data_PCOD8330576
_publ_section_title
;
Structure prediction by ZEFSAII (Michael W. Deem and Ramdas Pophale) SiO2 
 PCOD8330576
Probable space group: P 63/M M C
;
_chemical_formula_sum "Si O2"
_cell_formula_units_Z 144
_cell_length_a 21.978526
_cell_length_b 21.978526
_cell_length_c 20.080678
_cell_angle_alpha 90.000000
_cell_angle_beta 90.000000
_cell_angle_gamma 120.000000
_cell_volume 8400.519217
_symmetry_space_group_name_H-M "P 63/M M C"
_symmetry_group_IT_number 194
_symmetry_cell_setting 'hexagonal'
loop_
_space_group_symop_operation_xyz
x,y,z
x-y,x,1/2+z
-y,x-y,z
-x,-y,1/2+z
-x+y,-x,z
y,-x+y,1/2+z
x-y,-y,-z
-x,-x+y,-z
y,x,-z
-y,-x,1/2-z
-x+y,y,1/2-z
x,x-y,1/2-z
-x,-y,-z
-x+y,-x,1/2-z
y,-x+y,-z
x,y,1/2-z
x-y,x,-z
-y,x-y,1/2-z
-x+y,y,z
x,x-y,z
-y,-x,z
y,x,1/2+z
x-y,-y,1/2+z
-x,-x+y,1/2+z
loop_
_atom_site_type_symbol
_atom_site_label
_atom_site_fract_x
_atom_site_fract_y
_atom_site_fract_z
Si Si1 0.263084 0.060837 0.673717
Si Si2 0.448836 0.041555 0.064307
Si Si3 0.667061 0.471988 0.474046
Si Si4 0.947954 0.601851 0.825746
Si Si5 0.140992 0.141195 0.923933
Si Si6 0.472408 0.805568 0.369115
O O1 0.241327 0.036542 0.750000
O O2 0.277642 0.138821 0.662080
O O3 0.334045 0.062788 0.652876
O O4 0.201695 0.006800 0.625242
O O5 0.516545 0.033090 0.067080
O O6 0.470745 0.123342 0.061166
O O7 0.405199 0.009839 0.130805
O O8 0.402585 0.000000 0.000000
O O9 0.741416 0.482831 0.448841
O O10 0.606826 0.393175 0.455797
O O11 0.667715 0.484257 0.552413
O O12 0.973276 0.609318 0.750000
O O13 0.875194 0.529892 0.833070
O O14 0.072000 0.143999 0.905422
O O15 0.123946 0.061973 0.912406
O O16 0.164745 0.164745 0.000000
O O17 0.395763 0.791525 0.349068
O O18 0.478914 0.739457 0.344416
#
# Coordination Sequence:
#
# PCOD8330576 Si02
#       6
#    24  24  24  24  24  24
#     4   9  19  35  51  68  96 135 176 213 247 293
#     4  10  19  34  53  75 104 134 170 214 255 299
#     4   9  17  31  53  79 105 133 167 211 261 309
#     4  11  22  35  52  73 101 141 181 212 250 300
#     4   9  17  31  52  78 104 128 158 202 258 313
#     4  10  19  32  51  77 107 138 172 210 254 305
#
# _framework density 17.141798000000001
#
# number of rings (size 3 to 8) (size 9 to 14) (size 15 to 20)
#    0.000    2.333    1.667    1.500    0.000    5.333 
#    0.000    0.833    0.000    3.500    0.000    0.000 
#    0.000    1.333    0.000    0.000    0.000    0.000 
#
# Total GULP energy -1785890.268812 kJ/mol
# GULP energy per Si atom -12402.015756 kJ/mol
# Density = 1.710278 g / cm^3
# Si number density = 17.141798 Si / 1000 Ang^3
#
#
#
# Elastic Constant Matrix: (Units=GPa)
#
#
# Indices 1 2 3 4 5 6 
#
# 1 99.2309 50.3318 47.4740 0.0000 0.0000 0.0000
# 2 50.3318 99.2309 47.4740 0.0000 0.0000 0.0000
# 3 47.4740 47.4740 68.2050 0.0000 0.0000 0.0000
# 4 0.0000 0.0000 0.0000 26.9066 0.0000 0.0000
# 5 0.0000 0.0000 0.0000 0.0000 26.9066 0.0000
# 6 0.0000 0.0000 0.0000 0.0000 0.0000 24.4495
#
#
#
# Elastic Compliance Matrix: (Units=1/GPa)
#
#
# Indices 1 2 3 4 5 6 
#
# 1 0.016215 -0.004235 -0.008338 0.000000 0.000000 0.000000
# 2 -0.004235 0.016215 -0.008338 0.000000 0.000000 0.000000
# 3 -0.008338 -0.008338 0.026270 0.000000 0.000000 0.000000
# 4 0.000000 0.000000 0.000000 0.037166 0.000000 0.000000
# 5 0.000000 0.000000 0.000000 0.000000 0.037166 0.000000
# 6 0.000000 0.000000 0.000000 0.000000 0.000000 0.040901
#
#
# Mechanical properties :
#
#
# Convention : Reuss Voigt Hill
#
# Bulk Modulus (GPa) = 59.25852 61.91405 60.58629
# Shear Modulus (GPa) = 22.58553 23.74504 23.16528
#
# Velocity S-wave (km/s) = 3.63377 3.72588 3.68012
# Velocity P-wave (km/s) = 7.22844 7.39640 7.31291
#
# Compressibility (1/GPa) = 0.01687521
#
# Stress axis : x y z
#
# Youngs Moduli (GPa) = 61.67129 61.67129 38.06681
#
# Poissons Ratio (x) = 0.26120 0.31742
# Poissons Ratio (y) = 0.26120 0.31742
# Poissons Ratio (z) = 0.51424 0.51424
#
# Static dielectric constant tensor:
#      x y z
#    x 3.210080 0.000000 0.000000 
#    y 0.000000 3.210080 0.000000 
#    z 0.000000 0.000000 3.111190 
# 
# 
# High freq. dielectric constant tensor:
#      x y z
#    x 1.660460 0.000000 0.000000 
#    y 0.000000 1.660460 0.000000 
#    z 0.000000 0.000000 1.647280 
# 
# From -- ./inp_files/8232.got.cif
#   From: 2010.03.12/outbox.cif.g09.slc.cpg/sg194_5_cif.got.tgz:8232.got - 2010.04.01 12:26:19.
