data_PCOD8330156
_publ_section_title
;
Structure prediction by ZEFSAII (Michael W. Deem and Ramdas Pophale) SiO2 
 PCOD8330156
Probable space group: P 63/M C M
;
_chemical_formula_sum "Si O2"
_cell_formula_units_Z 108
_cell_length_a 17.506511
_cell_length_b 17.506511
_cell_length_c 19.804057
_cell_angle_alpha 90.000000
_cell_angle_beta 90.000000
_cell_angle_gamma 120.000000
_cell_volume 5256.346682
_symmetry_space_group_name_H-M "P 63/M C M"
_symmetry_group_IT_number 193
_symmetry_cell_setting 'hexagonal'
loop_
_space_group_symop_operation_xyz
x,y,z
x-y,x,1/2+z
-y,x-y,z
-x,-y,1/2+z
-x+y,-x,z
y,-x+y,1/2+z
x-y,-y,1/2-z
-x,-x+y,1/2-z
y,x,1/2-z
-y,-x,-z
-x+y,y,-z
x,x-y,-z
-x,-y,-z
-x+y,-x,1/2-z
y,-x+y,-z
x,y,1/2-z
x-y,x,-z
-y,x-y,1/2-z
-x+y,y,1/2+z
x,x-y,1/2+z
-y,-x,1/2+z
y,x,z
x-y,-y,z
-x,-x+y,z
loop_
_atom_site_type_symbol
_atom_site_label
_atom_site_fract_x
_atom_site_fract_y
_atom_site_fract_z
Si Si1 0.361497 0.465460 0.923804
Si Si2 0.402823 0.201373 0.825069
Si Si3 0.208917 0.105471 0.645812
Si Si4 0.464744 0.103990 0.574634
Si Si5 0.099741 0.900260 0.500000
O O1 0.407734 0.407734 0.916865
O O2 0.291956 0.436504 0.864250
O O3 0.432667 0.568477 0.914084
O O4 0.319063 0.451625 0.999111
O O5 0.445459 0.220794 0.750000
O O6 0.297380 0.149465 0.810954
O O7 0.432522 0.143114 0.866961
O O8 0.145123 0.145123 0.663607
O O9 0.251605 0.138285 0.569749
O O10 0.153657 0.000000 0.657576
O O11 0.406574 0.000000 0.580727
O O12 0.000000 0.863811 0.480983
#
# Coordination Sequence:
#
# PCOD8330156 Si02
#       5
#    24  24  24  24  12
#     4   9  20  41  67  91 115 150 200 254 307 363
#     4  12  25  38  57  91 129 162 200 247 304 377
#     4  10  21  36  55  82 121 169 217 260 300 344
#     4   9  20  41  67  91 115 150 200 254 307 363
#     4   8  15  28  48  74 102 142 196 256 304 334
#
# _framework density 20.546590999999999
#
# number of rings (size 3 to 8) (size 9 to 14) (size 15 to 20)
#    0.000    2.222    0.000    3.667    3.111    6.222 
#    1.333    2.222    0.000    1.333    0.000    0.000 
#    0.000    0.000    0.000    0.000    0.000    0.000 
#
# Total GULP energy -1338060.457545 kJ/mol
# GULP energy per Si atom -12389.448681 kJ/mol
# Density = 2.049983 g / cm^3
# Si number density = 20.546591 Si / 1000 Ang^3
#
#
#
# Elastic Constant Matrix: (Units=GPa)
#
#
# Indices 1 2 3 4 5 6 
#
# 1 84.8548 47.0805 53.8829 0.0000 0.0000 0.0000
# 2 47.0805 84.8548 53.8829 0.0000 0.0000 0.0000
# 3 53.8829 53.8829 160.9173 0.0000 0.0000 0.0000
# 4 0.0000 0.0000 0.0000 5.1405 0.0000 0.0000
# 5 0.0000 0.0000 0.0000 0.0000 5.1405 0.0000
# 6 0.0000 0.0000 0.0000 0.0000 0.0000 18.8871
#
#
#
# Elastic Compliance Matrix: (Units=1/GPa)
#
#
# Indices 1 2 3 4 5 6 
#
# 1 0.018453 -0.008020 -0.003493 0.000000 0.000000 0.000000
# 2 -0.008020 0.018453 -0.003493 0.000000 0.000000 0.000000
# 3 -0.003493 -0.003493 0.008554 0.000000 0.000000 0.000000
# 4 0.000000 0.000000 0.000000 0.194533 0.000000 0.000000
# 5 0.000000 0.000000 0.000000 0.000000 0.194533 0.000000
# 6 0.000000 0.000000 0.000000 0.000000 0.000000 0.052946
#
#
# Mechanical properties :
#
#
# Convention : Reuss Voigt Hill
#
# Bulk Modulus (GPa) = 64.74164 71.14662 67.94413
# Shear Modulus (GPa) = 9.56692 17.55233 13.55963
#
# Velocity S-wave (km/s) = 2.16017 2.92596 2.57173
# Velocity P-wave (km/s) = 6.14816 6.79096 6.47754
#
# Compressibility (1/GPa) = 0.01544601
#
# Stress axis : x y z
#
# Youngs Moduli (GPa) = 54.19171 54.19171 116.90526
#
# Poissons Ratio (x) = 0.43462 0.40840
# Poissons Ratio (y) = 0.43462 0.40840
# Poissons Ratio (z) = 0.18932 0.18932
#
# Static dielectric constant tensor:
#      x y z
#    x 3.696150 0.000000 0.000000 
#    y 0.000000 3.696150 0.000000 
#    z 0.000000 0.000000 3.840110 
# 
# 
# High freq. dielectric constant tensor:
#      x y z
#    x 1.794550 0.000000 0.000000 
#    y 0.000000 1.794550 0.000000 
#    z 0.000000 0.000000 1.814260 
# 
# From -- ./inp_files/6295.got.cif
#   From: 2010.03.12/outbox.cif.g09.slc.cpg/sg193_4_cif.got.tgz:6295.got - 2010.04.01 12:20:39.
