data_PCOD8330771
_publ_section_title
;
Structure prediction by ZEFSAII (Michael W. Deem and Ramdas Pophale) SiO2 
 PCOD8330771
Probable space group: P 63/M M C
;
_chemical_formula_sum "Si O2"
_cell_formula_units_Z 136
_cell_length_a 30.004616
_cell_length_b 30.004616
_cell_length_c 9.011487
_cell_angle_alpha 90.000000
_cell_angle_beta 90.000000
_cell_angle_gamma 120.000000
_cell_volume 7025.920612
_symmetry_space_group_name_H-M "P 63/M M C"
_symmetry_group_IT_number 194
_symmetry_cell_setting 'hexagonal'
loop_
_space_group_symop_operation_xyz
x,y,z
x-y,x,1/2+z
-y,x-y,z
-x,-y,1/2+z
-x+y,-x,z
y,-x+y,1/2+z
x-y,-y,-z
-x,-x+y,-z
y,x,-z
-y,-x,1/2-z
-x+y,y,1/2-z
x,x-y,1/2-z
-x,-y,-z
-x+y,-x,1/2-z
y,-x+y,-z
x,y,1/2-z
x-y,x,-z
-y,x-y,1/2-z
-x+y,y,z
x,x-y,z
-y,-x,z
y,x,1/2+z
x-y,-y,1/2+z
-x,-x+y,1/2+z
loop_
_atom_site_type_symbol
_atom_site_label
_atom_site_fract_x
_atom_site_fract_y
_atom_site_fract_z
Si Si1 0.503897 0.345038 0.423931
Si Si2 0.397582 0.249353 0.421177
Si Si3 0.309091 0.256524 0.575471
Si Si4 0.793214 0.947405 0.424719
Si Si5 0.047842 0.576703 0.913474
Si Si6 0.333334 0.666667 0.927557
Si Si7 0.223408 0.611704 0.073199
O O1 0.520038 0.356205 0.250000
O O2 0.458375 0.287000 0.449817
O O3 0.483768 0.382280 0.486146
O O4 0.552531 0.357262 0.523377
O O5 0.384523 0.252487 0.250000
O O6 0.384758 0.192379 0.465129
O O7 0.363408 0.264711 0.520768
O O8 0.299273 0.299273 0.500000
O O9 0.311607 0.264826 0.750000
O O10 0.263608 0.199595 0.530112
O O11 0.801272 0.954432 0.250000
O O12 0.799464 0.899732 0.481279
O O13 0.836676 0.000000 0.500000
O O14 0.045403 0.596145 0.750000
O O15 0.043260 0.521630 0.910120
O O16 0.000000 0.574202 0.000000
O O17 0.333334 0.666667 0.750000
O O18 0.276466 0.638233 0.988714
O O19 0.230487 0.615244 0.250000
#
# Coordination Sequence:
#
# PCOD8330771 Si02
#       7
#    24  24  24  24  24   4  12
#     4  10  21  40  62  86 118 161 201 234 288 356
#     4  10  22  38  58  86 118 154 199 241 282 344
#     4  10  20  36  58  83 115 154 194 240 295 346
#     4   9  18  32  51  77 108 144 189 238 290 350
#     4   9  17  31  52  78 109 145 191 236 279 337
#     4  12  28  50  76  93 115 158 190 228 295 362
#     4  12  26  44  67  99 126 144 187 248 292 336
#
# _framework density 19.356895000000002
#
# number of rings (size 3 to 8) (size 9 to 14) (size 15 to 20)
#    0.000    2.118    0.882    2.118    1.235    4.235 
#    0.000    1.765    0.000    0.176    0.000    0.000 
#    0.000    0.000    0.000    0.000    0.000    0.000 
#
# Total GULP energy -1686494.173340 kJ/mol
# GULP energy per Si atom -12400.692451 kJ/mol
# Density = 1.931284 g / cm^3
# Si number density = 19.356895 Si / 1000 Ang^3
#
#
#
# Elastic Constant Matrix: (Units=GPa)
#
#
# Indices 1 2 3 4 5 6 
#
# 1 60.1218 102.0128 52.5306 -0.0012 -0.0002 0.0091
# 2 102.0128 60.1224 52.5341 0.0013 0.0002 -0.0054
# 3 52.5306 52.5341 91.0139 0.0000 0.0000 0.0022
# 4 -0.0012 0.0013 0.0000 29.8443 0.0000 -0.0002
# 5 -0.0002 0.0002 0.0000 0.0000 29.8443 0.0013
# 6 0.0091 -0.0054 0.0022 -0.0002 0.0013 -20.9003
#
#
#
# Elastic Compliance Matrix: (Units=1/GPa)
#
#
# Indices 1 2 3 4 5 6 
#
# 1 -0.007009 0.016862 -0.005688 -0.000001 0.000000 -0.000008
# 2 0.016862 -0.007010 -0.005686 0.000001 0.000000 0.000009
# 3 -0.005688 -0.005686 0.017552 0.000000 0.000000 0.000001
# 4 -0.000001 0.000001 0.000000 0.033507 0.000000 0.000000
# 5 0.000000 0.000000 0.000000 0.000000 0.033507 0.000002
# 6 -0.000008 0.000009 0.000001 0.000000 0.000002 -0.047846
#
#
# Mechanical properties :
#
#
# Convention : Reuss Voigt Hill
#
# Bulk Modulus (GPa) = 68.91747 69.49036 69.20391
# Shear Modulus (GPa) = 301.89391 8.03637 154.96514
#
# Velocity S-wave (km/s) = 12.50202 2.03978 8.95715
# Velocity P-wave (km/s) = 15.62311 6.44399 11.95003
#
# Compressibility (1/GPa) = 0.01451011
#
# Stress axis : x y z
#
# Youngs Moduli (GPa) = -142.67510 -142.65843 56.97248
#
# Poissons Ratio (x) = 2.40555 0.32404
# Poissons Ratio (y) = 2.40583 0.32396
# Poissons Ratio (z) = -0.81150 -0.81120
#
# Static dielectric constant tensor:
#      x y z
#    x 3.654640 0.000000 0.000000 
#    y 0.000000 3.654670 -0.000010 
#    z 0.000000 -0.000010 3.544980 
# 
# 
# High freq. dielectric constant tensor:
#      x y z
#    x 1.753800 0.000000 0.000000 
#    y 0.000000 1.753800 0.000000 
#    z 0.000000 0.000000 1.744430 
# 
# From -- ./inp_files/2213.got.cif
#   From: 2010.03.12/outbox.cif.g09.slc.cpg/sg194_2_cif.got.tgz:2213.got - 2010.04.01 12:26:19.
