data_PCOD8330299
_publ_section_title
;
Structure prediction by ZEFSAII (Michael W. Deem and Ramdas Pophale) SiO2 
 PCOD8330299
Probable space group: P 63/M M C
;
_chemical_formula_sum "Si O2"
_cell_formula_units_Z 96
_cell_length_a 21.161883
_cell_length_b 21.161883
_cell_length_c 13.129125
_cell_angle_alpha 90.000000
_cell_angle_beta 90.000000
_cell_angle_gamma 120.000000
_cell_volume 5091.843333
_symmetry_space_group_name_H-M "P 63/M M C"
_symmetry_group_IT_number 194
_symmetry_cell_setting 'hexagonal'
loop_
_space_group_symop_operation_xyz
x,y,z
x-y,x,1/2+z
-y,x-y,z
-x,-y,1/2+z
-x+y,-x,z
y,-x+y,1/2+z
x-y,-y,-z
-x,-x+y,-z
y,x,-z
-y,-x,1/2-z
-x+y,y,1/2-z
x,x-y,1/2-z
-x,-y,-z
-x+y,-x,1/2-z
y,-x+y,-z
x,y,1/2-z
x-y,x,-z
-y,x-y,1/2-z
-x+y,y,z
x,x-y,z
-y,-x,z
y,x,1/2+z
x-y,-y,1/2+z
-x,-x+y,1/2+z
loop_
_atom_site_type_symbol
_atom_site_label
_atom_site_fract_x
_atom_site_fract_y
_atom_site_fract_z
Si Si1 0.213892 0.935062 0.138156
Si Si2 0.333910 0.517785 0.250000
Si Si3 0.481324 0.814665 0.864619
Si Si4 0.000000 0.147881 0.000000
Si Si5 0.711185 0.138890 0.945836
O O1 0.247719 0.963046 0.250000
O O2 0.144468 0.855533 0.146816
O O3 0.189308 0.990714 0.096182
O O4 0.272815 0.928203 0.067075
O O5 0.402185 0.597816 0.250000
O O6 0.262366 0.524731 0.250000
O O7 0.336871 0.475399 0.149605
O O8 0.510210 0.842947 0.750000
O O9 0.405828 0.811656 0.885782
O O10 0.466562 0.733281 0.880062
O O11 0.540274 0.869993 0.946480
O O12 0.069273 0.138546 0.979053
O O13 0.785808 0.214193 0.947335
#
# Coordination Sequence:
#
# PCOD8330299 Si02
#       5
#    24  12  24  12  24
#     4   9  17  33  54  75 104 141 174 205 247 308
#     4  10  17  24  38  66 101 136 174 228 286 326
#     4   9  16  25  38  60  95 140 186 233 286 337
#     4  10  21  36  58  88 117 140 162 196 250 318
#     4   9  16  27  43  64  95 136 182 225 263 310
#
# _framework density 18.853681999999999
#
# number of rings (size 3 to 8) (size 9 to 14) (size 15 to 20)
#    0.000    2.750    1.250    1.250    0.000    1.500 
#    0.000    3.750    0.000    6.000    0.000    3.500 
#    0.000    0.000    0.000    0.000    0.000    0.000 
#
# Total GULP energy -1189775.214242 kJ/mol
# GULP energy per Si atom -12393.491815 kJ/mol
# Density = 1.881077 g / cm^3
# Si number density = 18.853682 Si / 1000 Ang^3
#
#
#
# Elastic Constant Matrix: (Units=GPa)
#
#
# Indices 1 2 3 4 5 6 
#
# 1 70.9710 54.4789 59.3288 0.0000 0.0000 0.0000
# 2 54.4789 70.9710 59.3288 0.0000 0.0000 0.0000
# 3 59.3288 59.3288 166.0849 0.0000 0.0000 0.0000
# 4 0.0000 0.0000 0.0000 17.4258 0.0000 0.0000
# 5 0.0000 0.0000 0.0000 0.0000 17.4258 0.0000
# 6 0.0000 0.0000 0.0000 0.0000 0.0000 8.2460
#
#
#
# Elastic Compliance Matrix: (Units=1/GPa)
#
#
# Indices 1 2 3 4 5 6 
#
# 1 0.036337 -0.024298 -0.004301 0.000000 0.000000 0.000000
# 2 -0.024298 0.036337 -0.004301 0.000000 0.000000 0.000000
# 3 -0.004301 -0.004301 0.009094 0.000000 0.000000 0.000000
# 4 0.000000 0.000000 0.000000 0.057386 0.000000 0.000000
# 5 0.000000 0.000000 0.000000 0.000000 0.057386 0.000000
# 6 0.000000 0.000000 0.000000 0.000000 0.000000 0.121270
#
#
# Mechanical properties :
#
#
# Convention : Reuss Voigt Hill
#
# Bulk Modulus (GPa) = 62.62022 72.69999 67.66011
# Shear Modulus (GPa) = 12.85573 17.61222 15.23398
#
# Velocity S-wave (km/s) = 2.61409 3.05971 2.84564
# Velocity P-wave (km/s) = 6.51131 7.15026 6.83825
#
# Compressibility (1/GPa) = 0.01596928
#
# Stress axis : x y z
#
# Youngs Moduli (GPa) = 27.52010 27.52010 109.96823
#
# Poissons Ratio (x) = 0.66868 0.47293
# Poissons Ratio (y) = 0.66868 0.47293
# Poissons Ratio (z) = 0.11835 0.11835
#
# Static dielectric constant tensor:
#      x y z
#    x 3.274140 0.000000 0.000000 
#    y 0.000000 3.274140 0.000000 
#    z 0.000000 0.000000 3.836830 
# 
# 
# High freq. dielectric constant tensor:
#      x y z
#    x 1.707130 0.000000 0.000000 
#    y 0.000000 1.707130 0.000000 
#    z 0.000000 0.000000 1.743720 
# 
# From -- ./inp_files/3125.got.cif
#   From: 2010.03.12/outbox.cif.g09.slc.cpg/sg194_2_cif.got.tgz:3125.got - 2010.04.01 12:26:19.
