data_PCOD8330556
_publ_section_title
;
Structure prediction by ZEFSAII (Michael W. Deem and Ramdas Pophale) SiO2 
 PCOD8330556
Probable space group: P 63/M M C
;
_chemical_formula_sum "Si O2"
_cell_formula_units_Z 192
_cell_length_a 22.505481
_cell_length_b 22.505481
_cell_length_c 24.994548
_cell_angle_alpha 90.000000
_cell_angle_beta 90.000000
_cell_angle_gamma 120.000000
_cell_volume 10963.583228
_symmetry_space_group_name_H-M "P 63/M M C"
_symmetry_group_IT_number 194
_symmetry_cell_setting 'hexagonal'
loop_
_space_group_symop_operation_xyz
x,y,z
x-y,x,1/2+z
-y,x-y,z
-x,-y,1/2+z
-x+y,-x,z
y,-x+y,1/2+z
x-y,-y,-z
-x,-x+y,-z
y,x,-z
-y,-x,1/2-z
-x+y,y,1/2-z
x,x-y,1/2-z
-x,-y,-z
-x+y,-x,1/2-z
y,-x+y,-z
x,y,1/2-z
x-y,x,-z
-y,x-y,1/2-z
-x+y,y,z
x,x-y,z
-y,-x,z
y,x,1/2+z
x-y,-y,1/2+z
-x,-x+y,1/2+z
loop_
_atom_site_type_symbol
_atom_site_label
_atom_site_fract_x
_atom_site_fract_y
_atom_site_fract_z
Si Si1 0.532675 0.925361 0.607573
Si Si2 0.724084 0.583652 0.311568
Si Si3 0.802229 0.468654 0.811290
Si Si4 0.344038 0.424240 0.117937
Si Si5 0.667316 0.590076 0.001706
Si Si6 0.201457 0.927014 0.488948
Si Si7 0.078376 0.789004 0.363741
Si Si8 0.937329 0.196182 0.312918
O O1 0.460239 0.920478 0.610255
O O2 0.535420 0.878291 0.654283
O O3 0.537528 0.891104 0.551220
O O4 0.591885 0.003792 0.616560
O O5 0.701700 0.575890 0.250000
O O6 0.779915 0.559829 0.320192
O O7 0.755967 0.662350 0.330147
O O8 0.822535 0.492636 0.750000
O O9 0.740494 0.480987 0.830049
O O10 0.776513 0.388257 0.816928
O O11 0.869068 0.509575 0.848110
O O12 0.281045 0.359909 0.148019
O O13 0.326342 0.437038 0.056897
O O14 0.605394 0.605394 0.000000
O O15 0.737652 0.658671 0.017572
O O16 0.130468 0.869533 0.514560
O O17 0.202684 0.917516 0.426579
O O18 0.207969 0.000000 0.500000
O O19 0.145522 0.854479 0.337959
O O20 0.009984 0.786899 0.342033
O O21 0.950298 0.201028 0.250000
O O22 0.882888 0.117113 0.329034
#
# Coordination Sequence:
#
# PCOD8330556 Si02
#       8
#    24  24  24  24  24  24  24  24
#     4  11  21  33  54  83 110 135 170 217 262 312
#     4   9  19  36  55  76 104 135 172 218 262 314
#     4  10  21  36  52  69  93 133 183 225 259 300
#     4  10  19  34  52  74 107 142 172 212 268 316
#     4   8  18  33  48  72 104 138 171 204 251 312
#     4   9  18  31  48  73 102 135 173 213 257 308
#     4  10  19  32  50  76 109 137 170 216 261 312
#     4   9  18  33  53  76 102 134 174 218 262 312
#
# _framework density 17.512523000000002
#
# number of rings (size 3 to 8) (size 9 to 14) (size 15 to 20)
#    0.000    2.500    1.250    2.375    0.000    6.250 
#    0.000    0.000    0.000    0.625    0.000    0.000 
#    0.000    0.000    0.000    0.000    0.000    0.000 
#
# Total GULP energy -2379834.293917 kJ/mol
# GULP energy per Si atom -12394.970281 kJ/mol
# Density = 1.747266 g / cm^3
# Si number density = 17.512523 Si / 1000 Ang^3
#
#
#
# Elastic Constant Matrix: (Units=GPa)
#
#
# Indices 1 2 3 4 5 6 
#
# 1 96.7622 48.2626 41.7113 0.0000 0.0000 0.0000
# 2 48.2626 96.7622 41.7113 0.0000 0.0000 0.0000
# 3 41.7113 41.7113 71.9848 0.0000 0.0000 0.0000
# 4 0.0000 0.0000 0.0000 22.4313 0.0000 0.0000
# 5 0.0000 0.0000 0.0000 0.0000 22.4313 0.0000
# 6 0.0000 0.0000 0.0000 0.0000 0.0000 24.2498
#
#
#
# Elastic Compliance Matrix: (Units=1/GPa)
#
#
# Indices 1 2 3 4 5 6 
#
# 1 0.015481 -0.005138 -0.005993 0.000000 0.000000 0.000000
# 2 -0.005138 0.015481 -0.005993 0.000000 0.000000 0.000000
# 3 -0.005993 -0.005993 0.020837 0.000000 0.000000 0.000000
# 4 0.000000 0.000000 0.000000 0.044581 0.000000 0.000000
# 5 0.000000 0.000000 0.000000 0.000000 0.044581 0.000000
# 6 0.000000 0.000000 0.000000 0.000000 0.000000 0.041237
#
#
# Mechanical properties :
#
#
# Convention : Reuss Voigt Hill
#
# Bulk Modulus (GPa) = 56.97879 58.76438 57.87159
# Shear Modulus (GPa) = 22.49255 22.74406 22.61831
#
# Velocity S-wave (km/s) = 3.58770 3.60770 3.59771
# Velocity P-wave (km/s) = 7.05470 7.14020 7.09758
#
# Compressibility (1/GPa) = 0.01755039
#
# Stress axis : x y z
#
# Youngs Moduli (GPa) = 64.59636 64.59636 47.99119
#
# Poissons Ratio (x) = 0.33189 0.28761
# Poissons Ratio (y) = 0.33189 0.28761
# Poissons Ratio (z) = 0.38713 0.38713
#
# Static dielectric constant tensor:
#      x y z
#    x 3.258580 0.000000 0.000000 
#    y 0.000000 3.258580 0.000000 
#    z 0.000000 0.000000 3.289370 
# 
# 
# High freq. dielectric constant tensor:
#      x y z
#    x 1.659500 0.000000 0.000000 
#    y 0.000000 1.659500 0.000000 
#    z 0.000000 0.000000 1.678410 
# 
# From -- ./inp_files/8749.got.cif
#   From: 2010.03.12/outbox.cif.g09.slc.cpg/sg194_5_cif.got.tgz:8749.got - 2010.04.01 12:26:19.
