data_PCOD8330698
_publ_section_title
;
Structure prediction by ZEFSAII (Michael W. Deem and Ramdas Pophale) SiO2 
 PCOD8330698
Probable space group: P 63/M M C
;
_chemical_formula_sum "Si O2"
_cell_formula_units_Z 144
_cell_length_a 32.362090
_cell_length_b 32.362090
_cell_length_c 8.954368
_cell_angle_alpha 90.000000
_cell_angle_beta 90.000000
_cell_angle_gamma 120.000000
_cell_volume 8121.545713
_symmetry_space_group_name_H-M "P 63/M M C"
_symmetry_group_IT_number 194
_symmetry_cell_setting 'hexagonal'
loop_
_space_group_symop_operation_xyz
x,y,z
x-y,x,1/2+z
-y,x-y,z
-x,-y,1/2+z
-x+y,-x,z
y,-x+y,1/2+z
x-y,-y,-z
-x,-x+y,-z
y,x,-z
-y,-x,1/2-z
-x+y,y,1/2-z
x,x-y,1/2-z
-x,-y,-z
-x+y,-x,1/2-z
y,-x+y,-z
x,y,1/2-z
x-y,x,-z
-y,x-y,1/2-z
-x+y,y,z
x,x-y,z
-y,-x,z
y,x,1/2+z
x-y,-y,1/2+z
-x,-x+y,1/2+z
loop_
_atom_site_type_symbol
_atom_site_label
_atom_site_fract_x
_atom_site_fract_y
_atom_site_fract_z
Si Si1 0.287485 0.806711 0.073776
Si Si2 0.142811 0.951768 0.574541
Si Si3 0.279150 0.384377 0.075399
Si Si4 0.861864 0.383207 0.422534
Si Si5 0.288778 0.192493 0.577350
Si Si6 0.386716 0.950158 0.425632
O O1 0.297932 0.813231 0.250000
O O2 0.246308 0.753693 0.032889
O O3 0.272199 0.844592 0.015585
O O4 0.335545 0.817204 0.989561
O O5 0.148580 0.958753 0.750000
O O6 0.090397 0.909604 0.528855
O O7 0.182830 0.940291 0.515106
O O8 0.150000 0.000000 0.500000
O O9 0.269149 0.380192 0.250000
O O10 0.240054 0.333605 0.006799
O O11 0.332452 0.395617 0.037262
O O12 0.869173 0.375272 0.250000
O O13 0.849310 0.424655 0.444317
O O14 0.910281 0.397188 0.510082
O O15 0.279273 0.198809 0.750000
O O16 0.300319 0.150160 0.557214
O O17 0.395908 0.953592 0.250000
O O18 0.422997 0.000000 0.500000
#
# Coordination Sequence:
#
# PCOD8330698 Si02
#       6
#    24  24  24  24  24  24
#     4   9  17  31  53  79 104 130 162 202 249 301
#     4  10  21  36  53  74  99 126 159 198 237 280
#     4   8  15  28  47  72 101 133 167 202 241 285
#     4  10  21  36  53  74 100 130 166 208 253 303
#     4   9  16  28  48  72  99 131 164 196 231 275
#     4  10  20  34  51  71  98 132 171 214 257 300
#
# _framework density 17.730616000000001
#
# number of rings (size 3 to 8) (size 9 to 14) (size 15 to 20)
#    0.000    2.667    0.000    3.000    0.000    5.667 
#    0.000    5.833    0.000    4.500    0.000    0.000 
#    0.000    0.000    0.000    0.000    0.000    0.000 
#
# Total GULP energy -1785563.182204 kJ/mol
# GULP energy per Si atom -12399.744321 kJ/mol
# Density = 1.769026 g / cm^3
# Si number density = 17.730616 Si / 1000 Ang^3
#
#
#
# Elastic Constant Matrix: (Units=GPa)
#
#
# Indices 1 2 3 4 5 6 
#
# 1 103.5572 61.1336 49.2579 0.0000 0.0000 0.0000
# 2 61.1336 103.5572 49.2579 0.0000 0.0000 0.0000
# 3 49.2579 49.2579 77.3150 0.0000 0.0000 0.0000
# 4 0.0000 0.0000 0.0000 26.0720 0.0000 0.0000
# 5 0.0000 0.0000 0.0000 0.0000 26.0720 0.0000
# 6 0.0000 0.0000 0.0000 0.0000 0.0000 21.2118
#
#
#
# Elastic Compliance Matrix: (Units=1/GPa)
#
#
# Indices 1 2 3 4 5 6 
#
# 1 0.016691 -0.006880 -0.006251 0.000000 0.000000 0.000000
# 2 -0.006880 0.016691 -0.006251 0.000000 0.000000 0.000000
# 3 -0.006251 -0.006251 0.020899 0.000000 0.000000 0.000000
# 4 0.000000 0.000000 0.000000 0.038355 0.000000 0.000000
# 5 0.000000 0.000000 0.000000 0.000000 0.038355 0.000000
# 6 0.000000 0.000000 0.000000 0.000000 0.000000 0.047144
#
#
# Mechanical properties :
#
#
# Convention : Reuss Voigt Hill
#
# Bulk Modulus (GPa) = 64.44061 67.08093 65.76077
# Shear Modulus (GPa) = 22.51521 22.98983 22.75252
#
# Velocity S-wave (km/s) = 3.56736 3.60476 3.58611
# Velocity P-wave (km/s) = 7.30693 7.43245 7.36996
#
# Compressibility (1/GPa) = 0.01551816
#
# Stress axis : x y z
#
# Youngs Moduli (GPa) = 59.91100 59.91100 47.84959
#
# Poissons Ratio (x) = 0.41221 0.29909
# Poissons Ratio (y) = 0.41221 0.29909
# Poissons Ratio (z) = 0.37449 0.37449
#
# Static dielectric constant tensor:
#      x y z
#    x 3.271930 0.000000 0.000000 
#    y 0.000000 3.271930 0.000000 
#    z 0.000000 0.000000 3.185760 
# 
# 
# High freq. dielectric constant tensor:
#      x y z
#    x 1.678420 0.000000 0.000000 
#    y 0.000000 1.678420 0.000000 
#    z 0.000000 0.000000 1.676090 
# 
# From -- ./inp_files/2125.got.cif
#   From: 2010.03.12/outbox.cif.g09.slc.cpg/sg194_2_cif.got.tgz:2125.got - 2010.04.01 12:26:19.
