data_PCOD8330995
_publ_section_title
;
Structure prediction by ZEFSAII (Michael W. Deem and Ramdas Pophale) SiO2 
 PCOD8330995
Probable space group: I 4 3 2
;
_chemical_formula_sum "Si O2"
_cell_formula_units_Z 248
_cell_length_a 23.104260
_cell_length_b 23.104260
_cell_length_c 23.104260
_cell_angle_alpha 90.000000
_cell_angle_beta 90.000000
_cell_angle_gamma 90.000000
_cell_volume 12333.211794
_symmetry_space_group_name_H-M "I 4 3 2"
_symmetry_group_IT_number 211
_symmetry_cell_setting 'cubic'
loop_
_space_group_symop_operation_xyz
x,y,z
-y,x,z
-x,-y,z
y,-x,z
x,-z,y
x,-y,-z
x,z,-y
z,y,-x
-x,y,-z
-z,y,x
z,x,y
y,z,x
-y,-z,x
z,-x,-y
-y,z,-x
-z,-x,y
-z,x,-y
y,-z,-x
y,x,-z
-y,-x,-z
-x,z,y
-x,-z,-y
z,-y,x
-z,-y,-x
1/2+x,1/2+y,1/2+z
1/2-y,1/2+x,1/2+z
1/2-x,1/2-y,1/2+z
1/2+y,1/2-x,1/2+z
1/2+x,1/2-z,1/2+y
1/2+x,1/2-y,1/2-z
1/2+x,1/2+z,1/2-y
1/2+z,1/2+y,1/2-x
1/2-x,1/2+y,1/2-z
1/2-z,1/2+y,1/2+x
1/2+z,1/2+x,1/2+y
1/2+y,1/2+z,1/2+x
1/2-y,1/2-z,1/2+x
1/2+z,1/2-x,1/2-y
1/2-y,1/2+z,1/2-x
1/2-z,1/2-x,1/2+y
1/2-z,1/2+x,1/2-y
1/2+y,1/2-z,1/2-x
1/2+y,1/2+x,1/2-z
1/2-y,1/2-x,1/2-z
1/2-x,1/2+z,1/2+y
1/2-x,1/2-z,1/2-y
1/2+z,1/2-y,1/2+x
1/2-z,1/2-y,1/2-x
loop_
_atom_site_type_symbol
_atom_site_label
_atom_site_fract_x
_atom_site_fract_y
_atom_site_fract_z
Si Si1 0.620084 0.960528 0.777798
Si Si2 0.840878 0.159123 0.500000
Si Si3 0.049923 0.079342 0.779596
Si Si4 0.884333 0.884333 0.884333
Si Si5 0.800666 0.344369 0.373879
Si Si6 0.816575 0.083111 0.395139
Si Si7 0.804823 0.195178 0.804824
O O1 0.559013 0.940987 0.750000
O O2 0.659417 0.979458 0.724817
O O3 0.651164 0.905565 0.806230
O O4 0.606475 0.013020 0.822515
O O5 0.851999 0.111624 0.449024
O O6 0.061031 0.094100 0.847002
O O7 0.077015 0.127550 0.738850
O O8 0.982232 0.079063 0.766302
O O9 0.844468 0.844468 0.844468
O O10 0.833719 0.393975 0.338663
O O11 0.761030 0.307077 0.329343
O O12 0.750000 0.099629 0.400372
#
# Coordination Sequence:
#
# PCOD8330995 Si02
#       7
#    48  24  48  16  48  48  16
#     4  11  23  41  67  93 126 171 210 264 322 379
#     4  10  22  42  62  94 123 162 212 258 321 378
#     4  10  20  35  57  83 115 157 202 253 308 364
#     4   9  18  36  51  82 113 154 198 246 292 365
#     4  11  22  41  58  92 124 166 209 258 316 378
#     4  10  23  40  64  91 125 162 210 262 312 384
#     4   9  24  33  58  85 126 166 202 243 316 377
#
# _framework density 20.108305999999999
#
# number of rings (size 3 to 8) (size 9 to 14) (size 15 to 20)
#    0.000    1.742    1.935    1.742    5.419    3.484 
#    3.484    0.968    0.000    0.000    0.000    4.065 
#    0.000    0.000    0.000    0.000    0.000    0.000 
#
# Total GULP energy -1537265.744482 kJ/mol
# GULP energy per Si atom -12397.304391 kJ/mol
# Density = 2.006254 g / cm^3
# Si number density = 20.108306 Si / 1000 Ang^3
#
#
#
# Elastic Constant Matrix: (Units=GPa)
#
#
# Indices 1 2 3 4 5 6 
#
# 1 71.2455 31.5721 31.5713 0.0000 0.0000 0.0000
# 2 31.5721 71.2455 31.5713 0.0000 0.0000 0.0000
# 3 31.5713 31.5713 71.2454 0.0000 0.0000 0.0000
# 4 0.0000 0.0000 0.0000 34.4831 0.0000 0.0000
# 5 0.0000 0.0000 0.0000 0.0000 34.4831 0.0000
# 6 0.0000 0.0000 0.0000 0.0000 0.0000 34.4832
#
#
#
# Elastic Compliance Matrix: (Units=1/GPa)
#
#
# Indices 1 2 3 4 5 6 
#
# 1 0.019284 -0.005922 -0.005921 0.000000 0.000000 0.000000
# 2 -0.005922 0.019284 -0.005921 0.000000 0.000000 0.000000
# 3 -0.005921 -0.005921 0.019284 0.000000 0.000000 0.000000
# 4 0.000000 0.000000 0.000000 0.029000 0.000000 0.000000
# 5 0.000000 0.000000 0.000000 0.000000 0.029000 0.000000
# 6 0.000000 0.000000 0.000000 0.000000 0.000000 0.029000
#
#
# Mechanical properties :
#
#
# Convention : Reuss Voigt Hill
#
# Bulk Modulus (GPa) = 44.79619 44.79619 44.79619
# Shear Modulus (GPa) = 26.62109 28.62465 27.62287
#
# Velocity S-wave (km/s) = 3.64247 3.77705 3.71037
# Velocity P-wave (km/s) = 6.32582 6.43019 6.37822
#
# Compressibility (1/GPa) = 0.02232333
#
# Stress axis : x y z
#
# Youngs Moduli (GPa) = 51.85627 51.85627 51.85675
#
# Poissons Ratio (x) = 0.30708 0.30706
# Poissons Ratio (y) = 0.30708 0.30706
# Poissons Ratio (z) = 0.30706 0.30706
#
# Static dielectric constant tensor:
#      x y z
#    x 3.764370 0.000000 0.000000 
#    y 0.000000 3.764370 0.000000 
#    z 0.000000 0.000000 3.764390 
# 
# 
# High freq. dielectric constant tensor:
#      x y z
#    x 1.784200 0.000000 0.000000 
#    y 0.000000 1.784200 0.000000 
#    z 0.000000 0.000000 1.784200 
# 
# From -- ./inp_files/675.got.cif
#   From: 2010.03.12/outbox.cif.g09.slc.cpg/sg211_cif.got.tgz:675.got - 2010.03.30 09:04:38.
