data_PCOD8330384
_publ_section_title
;
Structure prediction by ZEFSAII (Michael W. Deem and Ramdas Pophale) SiO2 
 PCOD8330384
Probable space group: P 63/M M C
;
_chemical_formula_sum "Si O2"
_cell_formula_units_Z 168
_cell_length_a 17.881344
_cell_length_b 17.881344
_cell_length_c 31.250691
_cell_angle_alpha 90.000000
_cell_angle_beta 90.000000
_cell_angle_gamma 120.000000
_cell_volume 8653.475586
_symmetry_space_group_name_H-M "P 63/M M C"
_symmetry_group_IT_number 194
_symmetry_cell_setting 'hexagonal'
loop_
_space_group_symop_operation_xyz
x,y,z
x-y,x,1/2+z
-y,x-y,z
-x,-y,1/2+z
-x+y,-x,z
y,-x+y,1/2+z
x-y,-y,-z
-x,-x+y,-z
y,x,-z
-y,-x,1/2-z
-x+y,y,1/2-z
x,x-y,1/2-z
-x,-y,-z
-x+y,-x,1/2-z
y,-x+y,-z
x,y,1/2-z
x-y,x,-z
-y,x-y,1/2-z
-x+y,y,z
x,x-y,z
-y,-x,z
y,x,1/2+z
x-y,-y,1/2+z
-x,-x+y,1/2+z
loop_
_atom_site_type_symbol
_atom_site_label
_atom_site_fract_x
_atom_site_fract_y
_atom_site_fract_z
Si Si1 0.577150 0.982251 0.356170
Si Si2 0.540674 0.907772 0.511189
Si Si3 0.840050 0.331494 0.101112
Si Si4 0.922961 0.674338 0.700556
Si Si5 0.834718 0.332104 0.921037
Si Si6 0.999285 0.173360 0.954912
Si Si7 0.827459 0.001215 0.862730
O O1 0.487738 0.975475 0.343221
O O2 0.601387 0.943186 0.315769
O O3 0.566305 0.924846 0.398046
O O4 0.647906 0.081423 0.366590
O O5 0.462380 0.924760 0.521026
O O6 0.552922 0.865207 0.554078
O O7 0.521174 0.843716 0.471631
O O8 0.624580 0.000000 0.500000
O O9 0.820296 0.410148 0.100083
O O10 0.754757 0.245244 0.117061
O O11 0.947884 0.693059 0.750000
O O12 0.822504 0.645008 0.692933
O O13 0.985196 0.760284 0.674548
O O14 0.807356 0.403678 0.912190
O O15 0.759314 0.240686 0.903331
O O16 0.924340 0.075661 0.961401
O O17 0.987331 0.209969 0.909254
O O18 0.086563 0.173125 0.948088
O O19 0.000000 0.222176 0.000000
O O20 0.928812 0.071189 0.859694
O O21 0.814491 0.907246 0.856024
#
# Coordination Sequence:
#
# PCOD8330384 Si02
#       7
#    24  24  24  24  24  24  24
#     4  10  21  37  58  81 106 138 174 222 284 345
#     4   9  15  27  46  71 108 150 189 230 274 322
#     4  10  19  32  52  79 112 150 193 237 280 328
#     4  10  22  40  60  82 108 139 178 225 277 334
#     4  10  18  29  49  77 109 144 183 225 272 329
#     4   8  12  19  36  64  99 138 178 218 257 297
#     4   9  17  30  51  79 112 149 188 230 271 311
#
# _framework density 19.414166000000002
#
# number of rings (size 3 to 8) (size 9 to 14) (size 15 to 20)
#    0.000    2.571    1.429    1.429    0.000    2.857 
#    0.000    1.429    3.143    1.143    0.000    0.000 
#    0.000    1.143    0.000    0.000    0.000    2.571 
#
# Total GULP energy -2081712.715379 kJ/mol
# GULP energy per Si atom -12391.147115 kJ/mol
# Density = 1.936998 g / cm^3
# Si number density = 19.414166 Si / 1000 Ang^3
#
#
#
# Elastic Constant Matrix: (Units=GPa)
#
#
# Indices 1 2 3 4 5 6 
#
# 1 90.4008 48.5276 46.4463 0.0000 0.0000 0.0000
# 2 48.5276 90.4008 46.4463 0.0000 0.0000 0.0000
# 3 46.4463 46.4463 139.3690 0.0000 0.0000 0.0000
# 4 0.0000 0.0000 0.0000 24.3989 0.0000 0.0000
# 5 0.0000 0.0000 0.0000 0.0000 24.3989 0.0000
# 6 0.0000 0.0000 0.0000 0.0000 0.0000 20.9366
#
#
#
# Elastic Compliance Matrix: (Units=1/GPa)
#
#
# Indices 1 2 3 4 5 6 
#
# 1 0.016572 -0.007310 -0.003087 0.000000 0.000000 0.000000
# 2 -0.007310 0.016572 -0.003087 0.000000 0.000000 0.000000
# 3 -0.003087 -0.003087 0.009232 0.000000 0.000000 0.000000
# 4 0.000000 0.000000 0.000000 0.040985 0.000000 0.000000
# 5 0.000000 0.000000 0.000000 0.000000 0.040985 0.000000
# 6 0.000000 0.000000 0.000000 0.000000 0.000000 0.047763
#
#
# Mechanical properties :
#
#
# Convention : Reuss Voigt Hill
#
# Bulk Modulus (GPa) = 64.89442 67.00124 65.94783
# Shear Modulus (GPa) = 24.48427 25.86357 25.17392
#
# Velocity S-wave (km/s) = 3.55513 3.65389 3.60485
# Velocity P-wave (km/s) = 7.09583 7.23793 7.16723
#
# Compressibility (1/GPa) = 0.01540964
#
# Stress axis : x y z
#
# Youngs Moduli (GPa) = 60.34390 60.34390 108.31326
#
# Poissons Ratio (x) = 0.44111 0.33432
# Poissons Ratio (y) = 0.44111 0.33432
# Poissons Ratio (z) = 0.18626 0.18626
#
# Static dielectric constant tensor:
#      x y z
#    x 3.375000 0.000000 0.000000 
#    y 0.000000 3.375000 0.000000 
#    z 0.000000 0.000000 3.568170 
# 
# 
# High freq. dielectric constant tensor:
#      x y z
#    x 1.744060 0.000000 0.000000 
#    y 0.000000 1.744060 0.000000 
#    z 0.000000 0.000000 1.738370 
# 
# From -- ./inp_files/12262.got.cif
#   From: 2010.03.12/outbox.cif.g09.slc.cpg/sg194_7_cif.got.tgz:12262.got - 2010.04.01 12:26:19.
