data_PCOD8330573
_publ_section_title
;
Structure prediction by ZEFSAII (Michael W. Deem and Ramdas Pophale) SiO2 
 PCOD8330573
Probable space group: P 63/M M C
;
_chemical_formula_sum "Si O2"
_cell_formula_units_Z 192
_cell_length_a 25.122396
_cell_length_b 25.122396
_cell_length_c 20.177505
_cell_angle_alpha 90.000000
_cell_angle_beta 90.000000
_cell_angle_gamma 120.000000
_cell_volume 11028.595529
_symmetry_space_group_name_H-M "P 63/M M C"
_symmetry_group_IT_number 194
_symmetry_cell_setting 'hexagonal'
loop_
_space_group_symop_operation_xyz
x,y,z
x-y,x,1/2+z
-y,x-y,z
-x,-y,1/2+z
-x+y,-x,z
y,-x+y,1/2+z
x-y,-y,-z
-x,-x+y,-z
y,x,-z
-y,-x,1/2-z
-x+y,y,1/2-z
x,x-y,1/2-z
-x,-y,-z
-x+y,-x,1/2-z
y,-x+y,-z
x,y,1/2-z
x-y,x,-z
-y,x-y,1/2-z
-x+y,y,z
x,x-y,z
-y,-x,z
y,x,1/2+z
x-y,-y,1/2+z
-x,-x+y,1/2+z
loop_
_atom_site_type_symbol
_atom_site_label
_atom_site_fract_x
_atom_site_fract_y
_atom_site_fract_z
Si Si1 0.883216 0.502615 0.933739
Si Si2 0.656196 0.723938 0.826984
Si Si3 0.733604 0.926313 0.438418
Si Si4 0.790540 0.455759 0.050816
Si Si5 0.673118 0.029213 0.929304
Si Si6 0.700076 0.523806 0.178292
Si Si7 0.762712 0.822479 0.588816
Si Si8 0.667309 0.213636 0.825854
O O1 0.907160 0.453580 0.938763
O O2 0.939640 0.570988 0.934378
O O3 0.848313 0.495642 0.865272
O O4 0.837893 0.493841 0.993381
O O5 0.668295 0.715542 0.750000
O O6 0.645719 0.665336 0.869800
O O7 0.595424 0.728352 0.836414
O O8 0.712440 0.786995 0.854468
O O9 0.732849 0.866425 0.408614
O O10 0.672434 0.926663 0.413204
O O11 0.729955 0.922937 0.517719
O O12 0.796853 0.986249 0.412040
O O13 0.732880 0.465759 0.043519
O O14 0.767591 0.383796 0.045255
O O15 0.826950 0.481835 0.120063
O O16 0.672133 0.000000 0.000000
O O17 0.665472 0.506592 0.250000
O O18 0.754704 0.509407 0.181593
O O19 0.793177 0.896589 0.601682
O O20 0.672430 0.198673 0.750000
O O21 0.617938 0.235876 0.835805
O O22 0.731881 0.268120 0.852771
#
# Coordination Sequence:
#
# PCOD8330573 Si02
#       8
#    24  24  24  24  24  24  24  24
#     4  10  22  35  49  70  97 127 165 214 263 311
#     4  10  19  32  51  77 104 129 165 216 261 298
#     4   9  17  30  50  77 104 134 174 217 253 301
#     4  10  20  33  50  72  98 128 161 203 254 309
#     4  11  20  36  53  72  97 133 173 211 256 315
#     4   9  18  32  50  73  99 127 161 204 250 295
#     4   9  16  29  49  75 105 138 171 208 253 301
#     4   9  17  31  51  73  96 123 156 195 242 299
#
# _framework density 17.409288
#
# number of rings (size 3 to 8) (size 9 to 14) (size 15 to 20)
#    0.000    2.375    2.500    1.750    0.000    3.250 
#    0.000    1.875    0.000    7.750    0.000    1.750 
#    0.000    0.000    0.000    0.375    0.000    0.875 
#
# Total GULP energy -2379681.880550 kJ/mol
# GULP energy per Si atom -12394.176461 kJ/mol
# Density = 1.736966 g / cm^3
# Si number density = 17.409288 Si / 1000 Ang^3
#
#
#
# Elastic Constant Matrix: (Units=GPa)
#
#
# Indices 1 2 3 4 5 6 
#
# 1 79.1224 36.7392 25.0839 0.0000 0.0000 0.0000
# 2 36.7392 79.1224 25.0839 0.0000 0.0000 0.0000
# 3 25.0839 25.0839 83.8588 0.0000 0.0000 0.0000
# 4 0.0000 0.0000 0.0000 16.2458 0.0000 0.0000
# 5 0.0000 0.0000 0.0000 0.0000 16.2458 0.0000
# 6 0.0000 0.0000 0.0000 0.0000 0.0000 21.1916
#
#
#
# Elastic Compliance Matrix: (Units=1/GPa)
#
#
# Indices 1 2 3 4 5 6 
#
# 1 0.016755 -0.006840 -0.002966 0.000000 0.000000 0.000000
# 2 -0.006840 0.016755 -0.002966 0.000000 0.000000 0.000000
# 3 -0.002966 -0.002966 0.013699 0.000000 0.000000 0.000000
# 4 0.000000 0.000000 0.000000 0.061554 0.000000 0.000000
# 5 0.000000 0.000000 0.000000 0.000000 0.061554 0.000000
# 6 0.000000 0.000000 0.000000 0.000000 0.000000 0.047189
#
#
# Mechanical properties :
#
#
# Convention : Reuss Voigt Hill
#
# Bulk Modulus (GPa) = 46.15500 46.21306 46.18403
# Shear Modulus (GPa) = 19.97842 21.08309 20.53076
#
# Velocity S-wave (km/s) = 3.39126 3.48375 3.43782
# Velocity P-wave (km/s) = 6.47329 6.54101 6.50723
#
# Compressibility (1/GPa) = 0.02166612
#
# Stress axis : x y z
#
# Youngs Moduli (GPa) = 59.68467 59.68467 72.99757
#
# Poissons Ratio (x) = 0.40822 0.21650
# Poissons Ratio (y) = 0.40822 0.21650
# Poissons Ratio (z) = 0.17701 0.17701
#
# Static dielectric constant tensor:
#      x y z
#    x 3.195970 0.000000 0.000000 
#    y 0.000000 3.195970 0.000000 
#    z 0.000000 0.000000 3.486360 
# 
# 
# High freq. dielectric constant tensor:
#      x y z
#    x 1.657590 0.000000 0.000000 
#    y 0.000000 1.657590 0.000000 
#    z 0.000000 0.000000 1.676060 
# 
# From -- ./inp_files/8703.got.cif
#   From: 2010.03.12/outbox.cif.g09.slc.cpg/sg194_5_cif.got.tgz:8703.got - 2010.04.01 12:26:19.
