data_PCOD8330840
_publ_section_title
;
Structure prediction by ZEFSAII (Michael W. Deem and Ramdas Pophale) SiO2 
 PCOD8330840
Probable space group: P 63/M M C
;
_chemical_formula_sum "Si O2"
_cell_formula_units_Z 168
_cell_length_a 25.053155
_cell_length_b 25.053155
_cell_length_c 19.623201
_cell_angle_alpha 90.000000
_cell_angle_beta 90.000000
_cell_angle_gamma 120.000000
_cell_volume 10666.583432
_symmetry_space_group_name_H-M "P 63/M M C"
_symmetry_group_IT_number 194
_symmetry_cell_setting 'hexagonal'
loop_
_space_group_symop_operation_xyz
x,y,z
x-y,x,1/2+z
-y,x-y,z
-x,-y,1/2+z
-x+y,-x,z
y,-x+y,1/2+z
x-y,-y,-z
-x,-x+y,-z
y,x,-z
-y,-x,1/2-z
-x+y,y,1/2-z
x,x-y,1/2-z
-x,-y,-z
-x+y,-x,1/2-z
y,-x+y,-z
x,y,1/2-z
x-y,x,-z
-y,x-y,1/2-z
-x+y,y,z
x,x-y,z
-y,-x,z
y,x,1/2+z
x-y,-y,1/2+z
-x,-x+y,1/2+z
loop_
_atom_site_type_symbol
_atom_site_label
_atom_site_fract_x
_atom_site_fract_y
_atom_site_fract_z
Si Si1 0.941836 0.179005 0.670894
Si Si2 0.438831 0.282703 0.542825
Si Si3 0.040381 0.832906 0.934938
Si Si4 0.748660 0.624743 0.825048
Si Si5 0.762815 0.110814 0.069475
Si Si6 0.554951 0.714208 0.674019
Si Si7 0.207369 0.540718 0.940963
O O1 0.953496 0.175192 0.750000
O O2 0.882643 0.117358 0.644317
O O3 0.930420 0.236401 0.656074
O O4 0.000065 0.182774 0.632867
O O5 0.434350 0.217175 0.543903
O O6 0.425217 0.297658 0.619427
O O7 0.385472 0.279603 0.494422
O O8 0.504913 0.332052 0.510930
O O9 0.099078 0.900923 0.929183
O O10 0.057821 0.779497 0.938899
O O11 0.000000 0.829189 0.000000
O O12 0.717490 0.605541 0.750000
O O13 0.813204 0.626408 0.823088
O O14 0.823490 0.176511 0.068113
O O15 0.726774 0.107302 0.139877
O O16 0.548419 0.685740 0.750000
O O17 0.554902 0.777451 0.679885
O O18 0.498418 0.668438 0.625379
O O19 0.276572 0.553143 0.939648
O O20 0.209158 0.604579 0.939657
#
# Coordination Sequence:
#
# PCOD8330840 Si02
#       7
#    24  24  24  24  24  24  24
#     4   9  18  32  48  66  89 113 136 168 211 257
#     4   8  13  23  38  55  77 104 134 169 211 255
#     4  11  21  31  46  67  90 116 143 171 203 242
#     4   8  13  23  42  64  81  99 125 163 215 267
#     4   8  15  26  40  58  79 105 133 163 207 257
#     4   8  14  25  39  55  78 107 138 175 218 257
#     4   9  16  24  35  53  80 117 155 184 207 235
#
# _framework density 15.750123
#
# number of rings (size 3 to 8) (size 9 to 14) (size 15 to 20)
#    0.000    3.286    0.000    4.000    0.000    3.429 
#    0.000    1.429    0.000    3.857    0.000    0.000 
#    0.000   37.714    0.000    6.000    0.000    0.000 
#
# Total GULP energy -2081196.670447 kJ/mol
# GULP energy per Si atom -12388.075419 kJ/mol
# Density = 1.571428 g / cm^3
# Si number density = 15.750123 Si / 1000 Ang^3
#
#
#
# Elastic Constant Matrix: (Units=GPa)
#
#
# Indices 1 2 3 4 5 6 
#
# 1 48.7943 16.9772 33.4833 0.0000 0.0000 0.0000
# 2 16.9772 48.7943 33.4833 0.0000 0.0000 0.0000
# 3 33.4833 33.4833 117.7735 0.0000 0.0000 0.0000
# 4 0.0000 0.0000 0.0000 18.1224 0.0000 0.0000
# 5 0.0000 0.0000 0.0000 0.0000 18.1224 0.0000
# 6 0.0000 0.0000 0.0000 0.0000 0.0000 15.9085
#
#
#
# Elastic Compliance Matrix: (Units=1/GPa)
#
#
# Indices 1 2 3 4 5 6 
#
# 1 0.026414 -0.005016 -0.006084 0.000000 0.000000 0.000000
# 2 -0.005016 0.026414 -0.006084 0.000000 0.000000 0.000000
# 3 -0.006084 -0.006084 0.011950 0.000000 0.000000 0.000000
# 4 0.000000 0.000000 0.000000 0.055180 0.000000 0.000000
# 5 0.000000 0.000000 0.000000 0.000000 0.055180 0.000000
# 6 0.000000 0.000000 0.000000 0.000000 0.000000 0.062859
#
#
# Mechanical properties :
#
#
# Convention : Reuss Voigt Hill
#
# Bulk Modulus (GPa) = 32.88149 42.58331 37.73240
# Shear Modulus (GPa) = 17.69905 19.19189 18.44547
#
# Velocity S-wave (km/s) = 3.35586 3.49452 3.42589
# Velocity P-wave (km/s) = 5.99483 6.58618 6.29745
#
# Compressibility (1/GPa) = 0.03041225
#
# Stress axis : x y z
#
# Youngs Moduli (GPa) = 37.85873 37.85873 83.68173
#
# Poissons Ratio (x) = 0.18989 0.50909
# Poissons Ratio (y) = 0.18989 0.50909
# Poissons Ratio (z) = 0.23032 0.23032
#
# Static dielectric constant tensor:
#      x y z
#    x 2.740620 0.000000 0.000000 
#    y 0.000000 2.740620 0.000000 
#    z 0.000000 0.000000 3.440200 
# 
# 
# High freq. dielectric constant tensor:
#      x y z
#    x 1.567710 0.000000 0.000000 
#    y 0.000000 1.567710 0.000000 
#    z 0.000000 0.000000 1.618540 
# 
# From -- ./inp_files/8588.got.cif
#   From: 2010.03.12/outbox.cif.g09.slc.cpg/sg194_5_cif.got.tgz:8588.got - 2010.04.01 12:26:19.
