data_PCOD8330890
_publ_section_title
;
Structure prediction by ZEFSAII (Michael W. Deem and Ramdas Pophale) SiO2 
 PCOD8330890
Probable space group: P 21 3
;
_chemical_formula_sum "Si O2"
_cell_formula_units_Z 36
_cell_length_a 12.215660
_cell_length_b 12.215660
_cell_length_c 12.215660
_cell_angle_alpha 90.000000
_cell_angle_beta 90.000000
_cell_angle_gamma 90.000000
_cell_volume 1822.849483
_symmetry_space_group_name_H-M "P 21 3"
_symmetry_group_IT_number 198
_symmetry_cell_setting 'cubic'
loop_
_space_group_symop_operation_xyz
x,y,z
z,x,y
y,z,x
1/2-y,-z,1/2+x
1/2+z,1/2-x,-y
-y,1/2+z,1/2-x
1/2-z,-x,1/2+y
-z,1/2+x,1/2-y
1/2+y,1/2-z,-x
1/2-x,-y,1/2+z
1/2+x,1/2-y,-z
-x,1/2+y,1/2-z
loop_
_atom_site_type_symbol
_atom_site_label
_atom_site_fract_x
_atom_site_fract_y
_atom_site_fract_z
Si Si1 0.431010 0.082025 0.755676
Si Si2 0.654557 0.023544 0.141742
Si Si3 0.734952 0.629220 0.926815
O O1 0.482361 0.175540 0.835839
O O2 0.368712 0.135904 0.653880
O O3 0.527520 0.006012 0.713909
O O4 0.752895 0.012296 0.230300
O O5 0.632397 0.149624 0.113061
O O6 0.543225 0.968564 0.189610
#
# Coordination Sequence:
#
# PCOD8330890 Si02
#       3
#    12  12  12
#     4  10  22  40  64  98 126 173 224 277 335 398
#     4  10  24  42  64  98 133 178 216 282 342 392
#     4  12  20  44  68  92 139 173 224 283 339 408
#
# _framework density 19.749298
#
# number of rings (size 3 to 8) (size 9 to 14) (size 15 to 20)
#    1.333    0.000    3.333    3.333    0.000    2.667 
#    6.000    0.000    0.000    0.000    0.000    0.000 
#    0.000    0.000    0.000    0.000    0.000    0.000 
#
# Total GULP energy -446008.258666 kJ/mol
# GULP energy per Si atom -12389.118296 kJ/mol
# Density = 1.970435 g / cm^3
# Si number density = 19.749298 Si / 1000 Ang^3
#
#
#
# Elastic Constant Matrix: (Units=GPa)
#
#
# Indices 1 2 3 4 5 6 
#
# 1 99.4545 48.9420 48.9420 0.0000 0.0000 0.0000
# 2 48.9420 99.4545 48.9420 0.0000 0.0000 0.0000
# 3 48.9420 48.9420 99.4545 0.0000 0.0000 0.0000
# 4 0.0000 0.0000 0.0000 34.3694 0.0000 0.0000
# 5 0.0000 0.0000 0.0000 0.0000 34.3694 0.0000
# 6 0.0000 0.0000 0.0000 0.0000 0.0000 34.3694
#
#
#
# Elastic Compliance Matrix: (Units=1/GPa)
#
#
# Indices 1 2 3 4 5 6 
#
# 1 0.014887 -0.004910 -0.004910 0.000000 0.000000 0.000000
# 2 -0.004910 0.014887 -0.004910 0.000000 0.000000 0.000000
# 3 -0.004910 -0.004910 0.014887 0.000000 0.000000 0.000000
# 4 0.000000 0.000000 0.000000 0.029096 0.000000 0.000000
# 5 0.000000 0.000000 0.000000 0.000000 0.029096 0.000000
# 6 0.000000 0.000000 0.000000 0.000000 0.000000 0.029096
#
#
# Mechanical properties :
#
#
# Convention : Reuss Voigt Hill
#
# Bulk Modulus (GPa) = 65.77950 65.77950 65.77950
# Shear Modulus (GPa) = 30.03448 30.72412 30.37930
#
# Velocity S-wave (km/s) = 3.90396 3.94852 3.92630
# Velocity P-wave (km/s) = 7.32808 7.35985 7.34398
#
# Compressibility (1/GPa) = 0.01520230
#
# Stress axis : x y z
#
# Youngs Moduli (GPa) = 67.17184 67.17184 67.17184
#
# Poissons Ratio (x) = 0.32981 0.32981
# Poissons Ratio (y) = 0.32981 0.32981
# Poissons Ratio (z) = 0.32981 0.32981
#
# Static dielectric constant tensor:
#      x y z
#    x 3.500350 0.000000 0.000000 
#    y 0.000000 3.500350 0.000000 
#    z 0.000000 0.000000 3.500350 
# 
# 
# High freq. dielectric constant tensor:
#      x y z
#    x 1.762850 0.000000 0.000000 
#    y 0.000000 1.762850 0.000000 
#    z 0.000000 0.000000 1.762850 
# 
# From -- ./inp_files/184.got.cif
#   From: 2010.03.12/outbox.cif.g09.slc.cpg/sg198_cif.got.tgz:184.got - 2010.04.01 12:33:50.
