data_PCOD8330133
_publ_section_title
;
Structure prediction by ZEFSAII (Michael W. Deem and Ramdas Pophale) SiO2 
 PCOD8330133
Probable space group: P 63/M C M
;
_chemical_formula_sum "Si O2"
_cell_formula_units_Z 102
_cell_length_a 21.095538
_cell_length_b 21.095538
_cell_length_c 13.019776
_cell_angle_alpha 90.000000
_cell_angle_beta 90.000000
_cell_angle_gamma 120.000000
_cell_volume 5017.823204
_symmetry_space_group_name_H-M "P 63/M C M"
_symmetry_group_IT_number 193
_symmetry_cell_setting 'hexagonal'
loop_
_space_group_symop_operation_xyz
x,y,z
x-y,x,1/2+z
-y,x-y,z
-x,-y,1/2+z
-x+y,-x,z
y,-x+y,1/2+z
x-y,-y,1/2-z
-x,-x+y,1/2-z
y,x,1/2-z
-y,-x,-z
-x+y,y,-z
x,x-y,-z
-x,-y,-z
-x+y,-x,1/2-z
y,-x+y,-z
x,y,1/2-z
x-y,x,-z
-y,x-y,1/2-z
-x+y,y,1/2+z
x,x-y,1/2+z
-y,-x,1/2+z
y,x,z
x-y,-y,z
-x,-x+y,z
loop_
_atom_site_type_symbol
_atom_site_label
_atom_site_fract_x
_atom_site_fract_y
_atom_site_fract_z
Si Si1 0.140483 0.000000 0.033909
Si Si2 0.255462 0.863837 0.928572
Si Si3 0.916601 0.520930 0.940702
Si Si4 0.291517 0.503631 0.250000
Si Si5 0.822435 0.369281 0.250000
Si Si6 0.754280 0.000000 0.364796
Si Si7 0.915874 0.915874 0.250000
O O1 0.136186 0.000000 0.157998
O O2 0.137804 0.068902 0.000000
O O3 0.206367 0.000000 0.971977
O O4 0.264002 0.810078 0.850669
O O5 0.247782 0.925088 0.866352
O O6 0.184671 0.815330 0.000000
O O7 0.329435 0.908887 0.991912
O O8 0.863851 0.502968 0.845829
O O9 0.000000 0.555229 0.903443
O O10 0.891010 0.445505 0.000000
O O11 0.378738 0.553678 0.250000
O O12 0.259095 0.558644 0.250000
O O13 0.787982 0.000000 0.250000
O O14 0.928693 0.000000 0.250000
#
# Coordination Sequence:
#
# PCOD8330133 Si02
#       7
#    12  24  24  12  12  12   6
#     4  12  24  45  71 107 145 184 239 297 352 418
#     4  12  24  46  68  94 136 185 228 285 346 418
#     4  11  23  40  68  97 128 169 230 286 336 409
#     4  12  25  41  70  98 136 180 224 278 354 430
#     4  12  24  42  64 105 135 173 224 287 355 414
#     4  12  28  46  70 103 141 190 245 293 352 433
#     4  10  20  42  74 104 138 186 230 288 360 418
#
# _framework density 20.327538000000001
#
# number of rings (size 3 to 8) (size 9 to 14) (size 15 to 20)
#    0.118    0.235    8.235    1.412    1.647    0.000 
#    2.118    1.176    0.000    0.000    0.000    0.000 
#    0.000    0.000    0.000    0.000    0.000    0.000 
#
# Total GULP energy -1264236.119048 kJ/mol
# GULP energy per Si atom -12394.471755 kJ/mol
# Density = 2.028127 g / cm^3
# Si number density = 20.327538 Si / 1000 Ang^3
#
#
#
# Elastic Constant Matrix: (Units=GPa)
#
#
# Indices 1 2 3 4 5 6 
#
# 1 92.1595 20.1672 35.5383 0.0000 0.0000 0.0000
# 2 20.1672 92.1595 35.5383 0.0000 0.0000 0.0000
# 3 35.5383 35.5383 135.8368 0.0000 0.0000 0.0000
# 4 0.0000 0.0000 0.0000 27.0060 0.0000 0.0000
# 5 0.0000 0.0000 0.0000 0.0000 27.0060 0.0000
# 6 0.0000 0.0000 0.0000 0.0000 0.0000 35.9961
#
#
#
# Elastic Compliance Matrix: (Units=1/GPa)
#
#
# Indices 1 2 3 4 5 6 
#
# 1 0.012280 -0.001611 -0.002791 0.000000 0.000000 0.000000
# 2 -0.001611 0.012280 -0.002791 0.000000 0.000000 0.000000
# 3 -0.002791 -0.002791 0.008822 0.000000 0.000000 0.000000
# 4 0.000000 0.000000 0.000000 0.037029 0.000000 0.000000
# 5 0.000000 0.000000 0.000000 0.000000 0.037029 0.000000
# 6 0.000000 0.000000 0.000000 0.000000 0.000000 0.027781
#
#
# Mechanical properties :
#
#
# Convention : Reuss Voigt Hill
#
# Bulk Modulus (GPa) = 52.64550 55.84927 54.24738
# Shear Modulus (GPa) = 32.06406 33.26245 32.66326
#
# Velocity S-wave (km/s) = 3.97592 4.04954 4.01290
# Velocity P-wave (km/s) = 6.85800 7.02847 6.94375
#
# Compressibility (1/GPa) = 0.01899498
#
# Stress axis : x y z
#
# Youngs Moduli (GPa) = 81.43602 81.43602 113.34946
#
# Poissons Ratio (x) = 0.13118 0.31638
# Poissons Ratio (y) = 0.13118 0.31638
# Poissons Ratio (z) = 0.22731 0.22731
#
# Static dielectric constant tensor:
#      x y z
#    x 3.599370 0.000000 0.000000 
#    y 0.000000 3.599370 0.000000 
#    z 0.000000 0.000000 4.137040 
# 
# 
# High freq. dielectric constant tensor:
#      x y z
#    x 1.796970 0.000000 0.000000 
#    y 0.000000 1.796970 0.000000 
#    z 0.000000 0.000000 1.806970 
# 
# From -- ./inp_files/3801.got.cif
#   From: 2010.03.12/outbox.cif.g09.slc.cpg/sg193_2_cif.got.tgz:3801.got - 2010.04.01 12:20:39.
