data_PCOD8330979
_publ_section_title
;
Structure prediction by ZEFSAII (Michael W. Deem and Ramdas Pophale) SiO2 
 PCOD8330979
Probable space group: P 42 3 2
;
_chemical_formula_sum "Si O2"
_cell_formula_units_Z 80
_cell_length_a 16.656757
_cell_length_b 16.656757
_cell_length_c 16.656757
_cell_angle_alpha 90.000000
_cell_angle_beta 90.000000
_cell_angle_gamma 90.000000
_cell_volume 4621.376483
_symmetry_space_group_name_H-M "P 42 3 2"
_symmetry_group_IT_number 208
_symmetry_cell_setting 'cubic'
loop_
_space_group_symop_operation_xyz
x,y,z
1/2-y,1/2+x,1/2+z
-x,-y,z
1/2+y,1/2-x,1/2+z
1/2+x,1/2-z,1/2+y
x,-y,-z
1/2+x,1/2+z,1/2-y
1/2+z,1/2+y,1/2-x
-x,y,-z
1/2-z,1/2+y,1/2+x
z,x,y
y,z,x
-y,-z,x
z,-x,-y
-y,z,-x
-z,-x,y
-z,x,-y
y,-z,-x
1/2+y,1/2+x,1/2-z
1/2-y,1/2-x,1/2-z
1/2-x,1/2+z,1/2+y
1/2-x,1/2-z,1/2-y
1/2+z,1/2-y,1/2+x
1/2-z,1/2-y,1/2-x
loop_
_atom_site_type_symbol
_atom_site_label
_atom_site_fract_x
_atom_site_fract_y
_atom_site_fract_z
Si Si1 0.695161 0.304840 0.304840
Si Si2 0.912888 0.475277 0.591283
Si Si3 0.907285 0.679263 0.322681
Si Si4 0.059204 0.311477 0.777923
O O1 0.750000 0.250000 0.250000
O O2 0.728552 0.395817 0.300619
O O3 0.900109 0.500000 0.500000
O O4 0.911933 0.378951 0.600112
O O5 0.842354 0.515246 0.642453
O O6 0.000000 0.500000 0.624911
O O7 0.868341 0.631660 0.250000
O O8 0.848979 0.750000 0.348979
O O9 0.995692 0.707684 0.293525
O O10 0.121767 0.378234 0.750000
#
# Coordination Sequence:
#
# PCOD8330979 Si02
#       4
#     8  24  24  24
#     4   9  21  33  51  75 102 141 180 219 264 333
#     4  10  20  34  53  78 106 141 184 220 265 324
#     4  10  21  35  57  79 110 142 180 224 276 329
#     4  10  19  36  54  74 110 142 176 219 280 317
#
# _framework density 17.310858
#
# number of rings (size 3 to 8) (size 9 to 14) (size 15 to 20)
#    0.000    2.100    3.000    0.300    4.200    0.000 
#    0.000    3.000    0.000    0.000    0.000    0.000 
#    0.000    0.000    0.000    0.000    0.000    0.000 
#
# Total GULP energy -991783.189351 kJ/mol
# GULP energy per Si atom -12397.289867 kJ/mol
# Density = 1.727146 g / cm^3
# Si number density = 17.310858 Si / 1000 Ang^3
#
#
#
# Elastic Constant Matrix: (Units=GPa)
#
#
# Indices 1 2 3 4 5 6 
#
# 1 83.2760 35.2275 35.2274 0.0000 0.0000 0.0000
# 2 35.2275 83.2760 35.2274 0.0000 0.0000 0.0000
# 3 35.2274 35.2274 83.2764 0.0000 0.0000 0.0000
# 4 0.0000 0.0000 0.0000 27.0504 0.0000 0.0000
# 5 0.0000 0.0000 0.0000 0.0000 27.0504 0.0000
# 6 0.0000 0.0000 0.0000 0.0000 0.0000 27.0505
#
#
#
# Elastic Compliance Matrix: (Units=1/GPa)
#
#
# Indices 1 2 3 4 5 6 
#
# 1 0.016043 -0.004769 -0.004769 0.000000 0.000000 0.000000
# 2 -0.004769 0.016043 -0.004769 0.000000 0.000000 0.000000
# 3 -0.004769 -0.004769 0.016043 0.000000 0.000000 0.000000
# 4 0.000000 0.000000 0.000000 0.036968 0.000000 0.000000
# 5 0.000000 0.000000 0.000000 0.000000 0.036968 0.000000
# 6 0.000000 0.000000 0.000000 0.000000 0.000000 0.036968
#
#
# Mechanical properties :
#
#
# Convention : Reuss Voigt Hill
#
# Bulk Modulus (GPa) = 51.24365 51.24365 51.24365
# Shear Modulus (GPa) = 25.75291 25.84001 25.79646
#
# Velocity S-wave (km/s) = 3.86122 3.86775 3.86449
# Velocity P-wave (km/s) = 7.03882 7.04360 7.04121
#
# Compressibility (1/GPa) = 0.01951461
#
# Stress axis : x y z
#
# Youngs Moduli (GPa) = 62.33195 62.33195 62.33239
#
# Poissons Ratio (x) = 0.29727 0.29727
# Poissons Ratio (y) = 0.29727 0.29727
# Poissons Ratio (z) = 0.29727 0.29727
#
# Static dielectric constant tensor:
#      x y z
#    x 3.255630 0.000000 0.000000 
#    y 0.000000 3.255630 0.000000 
#    z 0.000000 0.000000 3.255630 
# 
# 
# High freq. dielectric constant tensor:
#      x y z
#    x 1.663070 0.000000 0.000000 
#    y 0.000000 1.663070 0.000000 
#    z 0.000000 0.000000 1.663070 
# 
# From -- ./inp_files/682.got.cif
#   From: 2010.03.12/outbox.cif.g09.slc.cpg/sg208_cif.got.tgz:682.got - 2010.03.30 09:03:42.
