data_PCOD8330189
_publ_section_title
;
Structure prediction by ZEFSAII (Michael W. Deem and Ramdas Pophale) SiO2 
 PCOD8330189
Probable space group: P 63/M C M
;
_chemical_formula_sum "Si O2"
_cell_formula_units_Z 88
_cell_length_a 17.495880
_cell_length_b 17.495880
_cell_length_c 18.233787
_cell_angle_alpha 90.000000
_cell_angle_beta 90.000000
_cell_angle_gamma 120.000000
_cell_volume 4833.693309
_symmetry_space_group_name_H-M "P 63/M C M"
_symmetry_group_IT_number 193
_symmetry_cell_setting 'hexagonal'
loop_
_space_group_symop_operation_xyz
x,y,z
x-y,x,1/2+z
-y,x-y,z
-x,-y,1/2+z
-x+y,-x,z
y,-x+y,1/2+z
x-y,-y,1/2-z
-x,-x+y,1/2-z
y,x,1/2-z
-y,-x,-z
-x+y,y,-z
x,x-y,-z
-x,-y,-z
-x+y,-x,1/2-z
y,-x+y,-z
x,y,1/2-z
x-y,x,-z
-y,x-y,1/2-z
-x+y,y,1/2+z
x,x-y,1/2+z
-y,-x,1/2+z
y,x,z
x-y,-y,z
-x,-x+y,z
loop_
_atom_site_type_symbol
_atom_site_label
_atom_site_fract_x
_atom_site_fract_y
_atom_site_fract_z
Si Si1 0.000000 0.000000 0.408022
Si Si2 0.151935 0.000000 0.954950
Si Si3 0.309384 0.475213 0.167416
Si Si4 0.325987 0.325987 0.081346
Si Si5 0.643845 0.152203 0.833357
Si Si6 0.574450 0.574450 0.448364
O O1 0.000000 0.000000 0.500000
O O2 0.000000 0.910293 0.387046
O O3 0.234278 0.000000 0.916601
O O4 0.091810 0.908191 0.000000
O O5 0.303998 0.441194 0.250000
O O6 0.317934 0.405180 0.117258
O O7 0.225168 0.482709 0.146272
O O8 0.388535 0.574805 0.158651
O O9 0.349472 0.349472 0.996683
O O10 0.639264 0.116844 0.750000
O O11 0.619628 0.081435 0.895179
O O12 0.500000 0.500000 0.500000
#
# Coordination Sequence:
#
# PCOD8330189 Si02
#       6
#     4  12  24  12  24  12
#     4   6  12  36  57  72 100 137 199 213 261 348
#     4   8  18  35  56  81 109 150 185 225 283 349
#     4  10  21  38  60  81 107 151 200 239 282 343
#     4  12  23  34  55  88 123 143 179 249 304 340
#     4  10  21  40  60  78 108 153 197 233 278 347
#     4  12  23  37  51  83 119 153 184 226 295 343
#
# _framework density 18.205539999999999
#
# number of rings (size 3 to 8) (size 9 to 14) (size 15 to 20)
#    0.000    2.182    2.727    1.500    3.818    4.364 
#    0.000    0.000    0.000    0.000    0.000   11.455 
#    0.000    0.000    0.000    0.000    0.000    0.000 
#
# Total GULP energy -1090304.521116 kJ/mol
# GULP energy per Si atom -12389.824104 kJ/mol
# Density = 1.816410 g / cm^3
# Si number density = 18.205540 Si / 1000 Ang^3
#
#
#
# Elastic Constant Matrix: (Units=GPa)
#
#
# Indices 1 2 3 4 5 6 
#
# 1 125.1582 59.3080 64.6985 0.0000 0.0000 0.0000
# 2 59.3080 125.1582 64.6985 0.0000 0.0000 0.0000
# 3 64.6985 64.6985 111.4115 0.0000 0.0000 0.0000
# 4 0.0000 0.0000 0.0000 47.0149 0.0000 0.0000
# 5 0.0000 0.0000 0.0000 0.0000 47.0149 0.0000
# 6 0.0000 0.0000 0.0000 0.0000 0.0000 32.9251
#
#
#
# Elastic Compliance Matrix: (Units=1/GPa)
#
#
# Indices 1 2 3 4 5 6 
#
# 1 0.012167 -0.003019 -0.005312 0.000000 0.000000 0.000000
# 2 -0.003019 0.012167 -0.005312 0.000000 0.000000 0.000000
# 3 -0.005312 -0.005312 0.015145 0.000000 0.000000 0.000000
# 4 0.000000 0.000000 0.000000 0.021270 0.000000 0.000000
# 5 0.000000 0.000000 0.000000 0.000000 0.021270 0.000000
# 6 0.000000 0.000000 0.000000 0.000000 0.000000 0.030372
#
#
# Mechanical properties :
#
#
# Convention : Reuss Voigt Hill
#
# Bulk Modulus (GPa) = 82.02192 82.12641 82.07416
# Shear Modulus (GPa) = 34.78492 36.92584 35.85538
#
# Velocity S-wave (km/s) = 4.37587 4.50852 4.44269
# Velocity P-wave (km/s) = 8.40726 8.50359 8.45556
#
# Compressibility (1/GPa) = 0.01219186
#
# Stress axis : x y z
#
# Youngs Moduli (GPa) = 82.19236 82.19236 66.02766
#
# Poissons Ratio (x) = 0.24817 0.35073
# Poissons Ratio (y) = 0.24817 0.35073
# Poissons Ratio (z) = 0.43660 0.43660
#
# Static dielectric constant tensor:
#      x y z
#    x 3.466080 0.000000 0.000000 
#    y 0.000000 3.466080 0.000000 
#    z 0.000000 0.000000 -0.901130 
# 
# 
# High freq. dielectric constant tensor:
#      x y z
#    x 1.712970 0.000000 0.000000 
#    y 0.000000 1.712970 0.000000 
#    z 0.000000 0.000000 1.691900 
# 
# From -- ./inp_files/5156.got.cif
#   From: 2010.03.12/outbox.cif.g09.slc.cpg/sg193_3_cif.got.tgz:5156.got - 2010.04.01 12:20:39.
