data_PCOD8330514
_publ_section_title
;
Structure prediction by ZEFSAII (Michael W. Deem and Ramdas Pophale) SiO2 
 PCOD8330514
Probable space group: P 63/M M C
;
_chemical_formula_sum "Si O2"
_cell_formula_units_Z 144
_cell_length_a 32.108464
_cell_length_b 32.108464
_cell_length_c 9.439198
_cell_angle_alpha 90.000000
_cell_angle_beta 90.000000
_cell_angle_gamma 120.000000
_cell_volume 8427.616961
_symmetry_space_group_name_H-M "P 63/M M C"
_symmetry_group_IT_number 194
_symmetry_cell_setting 'hexagonal'
loop_
_space_group_symop_operation_xyz
x,y,z
x-y,x,1/2+z
-y,x-y,z
-x,-y,1/2+z
-x+y,-x,z
y,-x+y,1/2+z
x-y,-y,-z
-x,-x+y,-z
y,x,-z
-y,-x,1/2-z
-x+y,y,1/2-z
x,x-y,1/2-z
-x,-y,-z
-x+y,-x,1/2-z
y,-x+y,-z
x,y,1/2-z
x-y,x,-z
-y,x-y,1/2-z
-x+y,y,z
x,x-y,z
-y,-x,z
y,x,1/2+z
x-y,-y,1/2+z
-x,-x+y,1/2+z
loop_
_atom_site_type_symbol
_atom_site_label
_atom_site_fract_x
_atom_site_fract_y
_atom_site_fract_z
Si Si1 0.148432 0.527228 0.417866
Si Si2 0.811776 0.953477 0.414320
Si Si3 0.134002 0.768794 0.586911
Si Si4 0.189602 0.714205 0.587996
Si Si5 0.285397 0.237722 0.916728
Si Si6 0.471803 0.041767 0.594808
O O1 0.151322 0.523993 0.250000
O O2 0.162546 0.581273 0.462650
O O3 0.184246 0.513058 0.490514
O O4 0.094334 0.489547 0.470688
O O5 0.824462 0.964420 0.250000
O O6 0.815860 0.907930 0.465439
O O7 0.757864 0.941844 0.445440
O O8 0.850360 0.000000 0.500000
O O9 0.116846 0.764537 0.750000
O O10 0.178056 0.821945 0.558663
O O11 0.150067 0.729655 0.554015
O O12 0.091646 0.758026 0.478802
O O13 0.184943 0.697778 0.750000
O O14 0.241989 0.758012 0.555480
O O15 0.291918 0.250061 0.750000
O O16 0.275575 0.275575 0.000000
O O17 0.449330 0.037728 0.750000
O O18 0.516812 0.033623 0.607873
O O19 0.430241 0.000000 0.500000
#
# Coordination Sequence:
#
# PCOD8330514 Si02
#       6
#    24  24  24  24  24  24
#     4   9  18  32  50  74 102 129 160 199 240 283
#     4   9  18  31  46  67  94 121 153 196 243 292
#     4   9  18  33  51  70  95 127 162 201 243 286
#     4   9  19  35  53  74  99 126 160 202 243 285
#     4  10  19  31  48  71  99 129 162 200 243 291
#     4   8  14  25  41  63  92 122 151 184 220 260
#
# _framework density 17.086680999999999
#
# number of rings (size 3 to 8) (size 9 to 14) (size 15 to 20)
#    0.000    3.000    0.000    3.000    0.000    4.000 
#    0.000    4.167    0.000    2.500    0.000    0.000 
#    0.000    0.000    0.000    0.000    0.000    0.000 
#
# Total GULP energy -1785285.941028 kJ/mol
# GULP energy per Si atom -12397.819035 kJ/mol
# Density = 1.704779 g / cm^3
# Si number density = 17.086681 Si / 1000 Ang^3
#
#
#
# Elastic Constant Matrix: (Units=GPa)
#
#
# Indices 1 2 3 4 5 6 
#
# 1 94.6423 51.0621 53.7336 0.0000 0.0000 0.0000
# 2 51.0621 94.6423 53.7336 0.0000 0.0000 0.0000
# 3 53.7336 53.7336 79.1721 0.0000 0.0000 0.0000
# 4 0.0000 0.0000 0.0000 30.9059 0.0000 0.0000
# 5 0.0000 0.0000 0.0000 0.0000 30.9059 0.0000
# 6 0.0000 0.0000 0.0000 0.0000 0.0000 21.7901
#
#
#
# Elastic Compliance Matrix: (Units=1/GPa)
#
#
# Indices 1 2 3 4 5 6 
#
# 1 0.018344 -0.004602 -0.009327 0.000000 0.000000 0.000000
# 2 -0.004602 0.018344 -0.009327 0.000000 0.000000 0.000000
# 3 -0.009327 -0.009327 0.025291 0.000000 0.000000 0.000000
# 4 0.000000 0.000000 0.000000 0.032356 0.000000 0.000000
# 5 0.000000 0.000000 0.000000 0.000000 0.032356 0.000000
# 6 0.000000 0.000000 0.000000 0.000000 0.000000 0.045892
#
#
# Mechanical properties :
#
#
# Convention : Reuss Voigt Hill
#
# Bulk Modulus (GPa) = 64.64877 65.05725 64.85301
# Shear Modulus (GPa) = 22.29634 24.04888 23.17261
#
# Velocity S-wave (km/s) = 3.61625 3.75569 3.68663
# Velocity P-wave (km/s) = 7.44005 7.54748 7.49395
#
# Compressibility (1/GPa) = 0.01546820
#
# Stress axis : x y z
#
# Youngs Moduli (GPa) = 54.51275 54.51275 39.53979
#
# Poissons Ratio (x) = 0.25086 0.36879
# Poissons Ratio (y) = 0.25086 0.36879
# Poissons Ratio (z) = 0.50844 0.50844
#
# Static dielectric constant tensor:
#      x y z
#    x 3.049250 0.000000 0.000000 
#    y 0.000000 3.049250 0.000000 
#    z 0.000000 0.000000 3.242620 
# 
# 
# High freq. dielectric constant tensor:
#      x y z
#    x 1.644550 0.000000 0.000000 
#    y 0.000000 1.644550 0.000000 
#    z 0.000000 0.000000 1.660270 
# 
# From -- ./inp_files/2153.got.cif
#   From: 2010.03.12/outbox.cif.g09.slc.cpg/sg194_2_cif.got.tgz:2153.got - 2010.04.01 12:26:19.
