data_PCOD8330891
_publ_section_title
;
Structure prediction by ZEFSAII (Michael W. Deem and Ramdas Pophale) SiO2 
 PCOD8330891
Probable space group: P 21 3
;
_chemical_formula_sum "Si O2"
_cell_formula_units_Z 56
_cell_length_a 14.135584
_cell_length_b 14.135584
_cell_length_c 14.135584
_cell_angle_alpha 90.000000
_cell_angle_beta 90.000000
_cell_angle_gamma 90.000000
_cell_volume 2824.497971
_symmetry_space_group_name_H-M "P 21 3"
_symmetry_group_IT_number 198
_symmetry_cell_setting 'cubic'
loop_
_space_group_symop_operation_xyz
x,y,z
z,x,y
y,z,x
1/2-y,-z,1/2+x
1/2+z,1/2-x,-y
-y,1/2+z,1/2-x
1/2-z,-x,1/2+y
-z,1/2+x,1/2-y
1/2+y,1/2-z,-x
1/2-x,-y,1/2+z
1/2+x,1/2-y,-z
-x,1/2+y,1/2-z
loop_
_atom_site_type_symbol
_atom_site_label
_atom_site_fract_x
_atom_site_fract_y
_atom_site_fract_z
Si Si1 0.099616 0.941688 0.967189
Si Si2 0.090402 0.701320 0.095697
Si Si3 0.939485 0.755283 0.653889
Si Si4 0.270517 0.270517 0.270517
Si Si5 0.599013 0.900988 0.099014
Si Si6 0.920664 0.377588 0.730389
O O1 0.069660 0.866999 0.884527
O O2 0.211104 0.926893 0.989784
O O3 0.067126 0.043648 0.925365
O O4 0.101344 0.646864 0.194866
O O5 0.166875 0.784462 0.094428
O O6 0.985750 0.742342 0.092183
O O7 0.108385 0.630562 0.009200
O O8 0.988227 0.833016 0.720291
O O9 0.335982 0.335982 0.335982
O O10 0.178793 0.236205 0.327730
#
# Coordination Sequence:
#
# PCOD8330891 Si02
#       6
#    12  12  12   4   4  12
#     4  10  22  42  66  88 128 174 216 270 330 402
#     4  12  25  43  65 102 140 171 220 283 345 399
#     4  12  25  41  67 101 132 172 223 276 346 399
#     4  12  24  42  69 102 132 177 228 276 337 416
#     4  12  21  39  72 105 138 159 222 297 337 392
#     4  12  23  41  67  98 134 171 221 284 335 398
#
# _framework density 19.826533000000001
#
# number of rings (size 3 to 8) (size 9 to 14) (size 15 to 20)
#    0.429    0.000    8.571    0.429    3.000    0.000 
#    3.857    0.000    0.000    0.000    0.000    0.000 
#    0.000    0.000    0.000    0.000    0.000    0.000 
#
# Total GULP energy -693958.317889 kJ/mol
# GULP energy per Si atom -12392.112819 kJ/mol
# Density = 1.978141 g / cm^3
# Si number density = 19.826533 Si / 1000 Ang^3
#
#
#
# Elastic Constant Matrix: (Units=GPa)
#
#
# Indices 1 2 3 4 5 6 
#
# 1 106.3086 46.5319 46.5324 0.0000 0.0000 0.0000
# 2 46.5319 106.3086 46.5319 0.0000 0.0000 0.0000
# 3 46.5324 46.5319 106.3084 0.0000 0.0000 0.0000
# 4 0.0000 0.0000 0.0000 30.7744 0.0000 0.0000
# 5 0.0000 0.0000 0.0000 0.0000 30.7749 0.0000
# 6 0.0000 0.0000 0.0000 0.0000 0.0000 30.7751
#
#
#
# Elastic Compliance Matrix: (Units=1/GPa)
#
#
# Indices 1 2 3 4 5 6 
#
# 1 0.012825 -0.003904 -0.003904 0.000000 0.000000 0.000000
# 2 -0.003904 0.012825 -0.003904 0.000000 0.000000 0.000000
# 3 -0.003904 -0.003904 0.012825 0.000000 0.000000 0.000000
# 4 0.000000 0.000000 0.000000 0.032495 0.000000 0.000000
# 5 0.000000 0.000000 0.000000 0.000000 0.032494 0.000000
# 6 0.000000 0.000000 0.000000 0.000000 0.000000 0.032494
#
#
# Mechanical properties :
#
#
# Convention : Reuss Voigt Hill
#
# Bulk Modulus (GPa) = 66.45755 66.45755 66.45755
# Shear Modulus (GPa) = 30.41393 30.42016 30.41705
#
# Velocity S-wave (km/s) = 3.92088 3.92128 3.92108
# Velocity P-wave (km/s) = 7.35459 7.35488 7.35473
#
# Compressibility (1/GPa) = 0.01504720
#
# Stress axis : x y z
#
# Youngs Moduli (GPa) = 77.97521 77.97565 77.97508
#
# Poissons Ratio (x) = 0.30445 0.30445
# Poissons Ratio (y) = 0.30445 0.30444
# Poissons Ratio (z) = 0.30445 0.30445
#
# Static dielectric constant tensor:
#      x y z
#    x 3.742890 0.000000 0.000000 
#    y 0.000000 3.742890 0.000000 
#    z 0.000000 0.000000 3.742910 
# 
# 
# High freq. dielectric constant tensor:
#      x y z
#    x 1.770310 0.000000 0.000000 
#    y 0.000000 1.770310 0.000000 
#    z 0.000000 0.000000 1.770310 
# 
# From -- ./inp_files/298.got.cif
#   From: 2010.03.12/outbox.cif.g09.slc.cpg/sg198_cif.got.tgz:298.got - 2010.04.01 12:33:50.
