data_PCOD8330347
_publ_section_title
;
Structure prediction by ZEFSAII (Michael W. Deem and Ramdas Pophale) SiO2 
 PCOD8330347
Probable space group: P 63/M M C
;
_chemical_formula_sum "Si O2"
_cell_formula_units_Z 108
_cell_length_a 20.156740
_cell_length_b 20.156740
_cell_length_c 22.395576
_cell_angle_alpha 90.000000
_cell_angle_beta 90.000000
_cell_angle_gamma 120.000000
_cell_volume 7880.131344
_symmetry_space_group_name_H-M "P 63/M M C"
_symmetry_group_IT_number 194
_symmetry_cell_setting 'hexagonal'
loop_
_space_group_symop_operation_xyz
x,y,z
x-y,x,1/2+z
-y,x-y,z
-x,-y,1/2+z
-x+y,-x,z
y,-x+y,1/2+z
x-y,-y,-z
-x,-x+y,-z
y,x,-z
-y,-x,1/2-z
-x+y,y,1/2-z
x,x-y,1/2-z
-x,-y,-z
-x+y,-x,1/2-z
y,-x+y,-z
x,y,1/2-z
x-y,x,-z
-y,x-y,1/2-z
-x+y,y,z
x,x-y,z
-y,-x,z
y,x,1/2+z
x-y,-y,1/2+z
-x,-x+y,1/2+z
loop_
_atom_site_type_symbol
_atom_site_label
_atom_site_fract_x
_atom_site_fract_y
_atom_site_fract_z
Si Si1 0.452716 0.393284 0.087835
Si Si2 0.667355 0.487525 0.507221
Si Si3 0.483379 0.667833 0.818151
Si Si4 0.508322 0.175644 0.750000
Si Si5 0.101503 0.473747 0.372555
O O1 0.522590 0.477411 0.075245
O O2 0.462403 0.354272 0.146513
O O3 0.377704 0.400744 0.101899
O O4 0.448418 0.342746 0.029952
O O5 0.745405 0.490809 0.487512
O O6 0.596859 0.403142 0.491930
O O7 0.671320 0.504651 0.577672
O O8 0.508842 0.674864 0.750000
O O9 0.494529 0.747265 0.842961
O O10 0.394748 0.605253 0.826816
O O11 0.592300 0.184599 0.750000
O O12 0.520037 0.260019 0.750000
O O13 0.459370 0.130064 0.691129
O O14 0.084406 0.542203 0.362116
#
# Coordination Sequence:
#
# PCOD8330347 Si02
#       5
#    24  24  24  12  24
#     4   9  17  27  39  53  71  96 124 152 187 235
#     4  10  18  28  41  57  76  97 123 158 201 241
#     4   9  16  24  35  51  72  96 124 159 198 233
#     4  10  19  30  44  60  77  96 122 158 200 238
#     4   9  18  29  41  55  73  97 124 155 193 237
#
# _framework density 13.705356
#
# number of rings (size 3 to 8) (size 9 to 14) (size 15 to 20)
#    0.000    2.667    0.000    2.556    1.556    3.556 
#    0.000    4.444    0.000    0.000    0.000    0.000 
#    0.000    0.000    0.000    0.000    0.000    0.000 
#
# Total GULP energy -1338325.011195 kJ/mol
# GULP energy per Si atom -12391.898252 kJ/mol
# Density = 1.367416 g / cm^3
# Si number density = 13.705356 Si / 1000 Ang^3
#
#
#
# Elastic Constant Matrix: (Units=GPa)
#
#
# Indices 1 2 3 4 5 6 
#
# 1 47.7593 23.6399 24.4577 0.0000 0.0000 0.0000
# 2 23.6399 47.7593 24.4577 0.0000 0.0000 0.0000
# 3 24.4577 24.4577 89.3905 0.0000 0.0000 0.0000
# 4 0.0000 0.0000 0.0000 12.8418 0.0000 0.0000
# 5 0.0000 0.0000 0.0000 0.0000 12.8418 0.0000
# 6 0.0000 0.0000 0.0000 0.0000 0.0000 12.0597
#
#
#
# Elastic Compliance Matrix: (Units=1/GPa)
#
#
# Indices 1 2 3 4 5 6 
#
# 1 0.029349 -0.012112 -0.004716 0.000000 0.000000 0.000000
# 2 -0.012112 0.029349 -0.004716 0.000000 0.000000 0.000000
# 3 -0.004716 -0.004716 0.013768 0.000000 0.000000 0.000000
# 4 0.000000 0.000000 0.000000 0.077871 0.000000 0.000000
# 5 0.000000 0.000000 0.000000 0.000000 0.077871 0.000000
# 6 0.000000 0.000000 0.000000 0.000000 0.000000 0.082921
#
#
# Mechanical properties :
#
#
# Convention : Reuss Voigt Hill
#
# Bulk Modulus (GPa) = 34.04053 36.66885 35.35469
# Shear Modulus (GPa) = 13.73600 15.03892 14.38746
#
# Velocity S-wave (km/s) = 3.16925 3.31615 3.24353
# Velocity P-wave (km/s) = 6.18736 6.44016 6.31503
#
# Compressibility (1/GPa) = 0.02937675
#
# Stress axis : x y z
#
# Youngs Moduli (GPa) = 34.07321 34.07321 72.63464
#
# Poissons Ratio (x) = 0.41269 0.34255
# Poissons Ratio (y) = 0.41269 0.34255
# Poissons Ratio (z) = 0.16069 0.16069
#
# Static dielectric constant tensor:
#      x y z
#    x 2.534350 0.000000 0.000000 
#    y 0.000000 2.534350 0.000000 
#    z 0.000000 0.000000 3.116230 
# 
# 
# High freq. dielectric constant tensor:
#      x y z
#    x 1.482080 0.000000 0.000000 
#    y 0.000000 1.482080 0.000000 
#    z 0.000000 0.000000 1.548590 
# 
# From -- ./inp_files/8042.got.cif
#   From: 2010.03.12/outbox.cif.g09.slc.cpg/sg194_5_cif.got.tgz:8042.got - 2010.04.01 12:26:19.
