data_PCOD8330721
_publ_section_title
;
Structure prediction by ZEFSAII (Michael W. Deem and Ramdas Pophale) SiO2 
 PCOD8330721
Probable space group: P 63/M M C
;
_chemical_formula_sum "Si O2"
_cell_formula_units_Z 168
_cell_length_a 18.505779
_cell_length_b 18.505779
_cell_length_c 27.188982
_cell_angle_alpha 90.000000
_cell_angle_beta 90.000000
_cell_angle_gamma 120.000000
_cell_volume 8063.773522
_symmetry_space_group_name_H-M "P 63/M M C"
_symmetry_group_IT_number 194
_symmetry_cell_setting 'hexagonal'
loop_
_space_group_symop_operation_xyz
x,y,z
x-y,x,1/2+z
-y,x-y,z
-x,-y,1/2+z
-x+y,-x,z
y,-x+y,1/2+z
x-y,-y,-z
-x,-x+y,-z
y,x,-z
-y,-x,1/2-z
-x+y,y,1/2-z
x,x-y,1/2-z
-x,-y,-z
-x+y,-x,1/2-z
y,-x+y,-z
x,y,1/2-z
x-y,x,-z
-y,x-y,1/2-z
-x+y,y,z
x,x-y,z
-y,-x,z
y,x,1/2+z
x-y,-y,1/2+z
-x,-x+y,1/2+z
loop_
_atom_site_type_symbol
_atom_site_label
_atom_site_fract_x
_atom_site_fract_y
_atom_site_fract_z
Si Si1 0.493277 0.827256 0.407692
Si Si2 0.165576 0.164643 0.305907
Si Si3 0.155913 0.999016 0.056308
Si Si4 0.031222 0.338917 0.446105
Si Si5 0.564107 0.700581 0.304440
Si Si6 0.493232 0.826904 0.807811
Si Si7 0.699245 0.033357 0.155294
O O1 0.424383 0.848765 0.428116
O O2 0.461404 0.730702 0.417877
O O3 0.579894 0.879318 0.436929
O O4 0.499412 0.843178 0.348779
O O5 0.194484 0.194738 0.250000
O O6 0.090485 0.180969 0.320927
O O7 0.245805 0.213652 0.342096
O O8 0.133030 0.066515 0.310871
O O9 0.184087 0.092044 0.078324
O O10 0.220650 0.965874 0.059844
O O11 0.070617 0.929384 0.083121
O O12 0.134957 0.000000 0.000000
O O13 0.000000 0.347741 0.500000
O O14 0.972552 0.333829 0.400791
O O15 0.523099 0.668541 0.250000
O O16 0.600942 0.800471 0.308434
O O17 0.637802 0.680525 0.310218
O O18 0.494766 0.836764 0.750000
O O19 0.424998 0.849995 0.829667
O O20 0.463979 0.731990 0.822832
O O21 0.587309 0.883161 0.826034
#
# Coordination Sequence:
#
# PCOD8330721 Si02
#       7
#    24  24  24  24  24  24  24
#     4  10  21  38  61  87 115 149 190 236 284 337
#     4  10  20  34  53  80 117 158 195 230 271 324
#     4   9  17  31  53  80 108 139 177 222 273 330
#     4  10  23  41  59  79 111 151 193 239 292 344
#     4   9  18  33  54  84 121 154 181 217 272 333
#     4  10  21  38  60  86 116 147 178 219 278 346
#     4  11  21  34  57  84 109 144 192 240 279 324
#
# _framework density 20.833917
#
# number of rings (size 3 to 8) (size 9 to 14) (size 15 to 20)
#    0.000    2.143    0.000    3.143    0.000   10.286 
#    0.000    0.000    0.000    2.571    0.000    2.000 
#    0.000    0.000    0.000    0.000    0.000    0.000 
#
# Total GULP energy -2081204.705069 kJ/mol
# GULP energy per Si atom -12388.123244 kJ/mol
# Density = 2.078650 g / cm^3
# Si number density = 20.833917 Si / 1000 Ang^3
#
#
#
# Elastic Constant Matrix: (Units=GPa)
#
#
# Indices 1 2 3 4 5 6 
#
# 1 118.1035 69.6696 28.4042 0.0000 0.0000 0.0000
# 2 69.6696 118.1035 28.4042 0.0000 0.0000 0.0000
# 3 28.4042 28.4042 98.9726 0.0000 0.0000 0.0000
# 4 0.0000 0.0000 0.0000 7.2019 0.0000 0.0000
# 5 0.0000 0.0000 0.0000 0.0000 7.2019 0.0000
# 6 0.0000 0.0000 0.0000 0.0000 0.0000 24.2170
#
#
#
# Elastic Compliance Matrix: (Units=1/GPa)
#
#
# Indices 1 2 3 4 5 6 
#
# 1 0.013239 -0.007407 -0.001674 0.000000 0.000000 0.000000
# 2 -0.007407 0.013239 -0.001674 0.000000 0.000000 0.000000
# 3 -0.001674 -0.001674 0.011064 0.000000 0.000000 0.000000
# 4 0.000000 0.000000 0.000000 0.138851 0.000000 0.000000
# 5 0.000000 0.000000 0.000000 0.000000 0.138851 0.000000
# 6 0.000000 0.000000 0.000000 0.000000 0.000000 0.041293
#
#
# Mechanical properties :
#
#
# Convention : Reuss Voigt Hill
#
# Bulk Modulus (GPa) = 62.36937 65.34841 63.85889
# Shear Modulus (GPa) = 13.04144 21.63762 17.33953
#
# Velocity S-wave (km/s) = 2.50466 3.22619 2.88805
# Velocity P-wave (km/s) = 6.19402 6.73143 6.46831
#
# Compressibility (1/GPa) = 0.01603351
#
# Stress axis : x y z
#
# Youngs Moduli (GPa) = 75.53267 75.53267 90.37930
#
# Poissons Ratio (x) = 0.55950 0.15127
# Poissons Ratio (y) = 0.55950 0.15127
# Poissons Ratio (z) = 0.12642 0.12642
#
# Static dielectric constant tensor:
#      x y z
#    x 3.673000 0.000000 0.000000 
#    y 0.000000 3.673000 0.000000 
#    z 0.000000 0.000000 3.902970 
# 
# 
# High freq. dielectric constant tensor:
#      x y z
#    x 1.806790 0.000000 0.000000 
#    y 0.000000 1.806790 0.000000 
#    z 0.000000 0.000000 1.808780 
# 
# From -- ./inp_files/12221.got.cif
#   From: 2010.03.12/outbox.cif.g09.slc.cpg/sg194_7_cif.got.tgz:12221.got - 2010.04.01 12:26:19.
