data_PCOD8330392
_publ_section_title
;
Structure prediction by ZEFSAII (Michael W. Deem and Ramdas Pophale) SiO2 
 PCOD8330392
Probable space group: P 63/M M C
;
_chemical_formula_sum "Si O2"
_cell_formula_units_Z 144
_cell_length_a 21.946820
_cell_length_b 21.946820
_cell_length_c 22.591588
_cell_angle_alpha 90.000000
_cell_angle_beta 90.000000
_cell_angle_gamma 120.000000
_cell_volume 9423.681390
_symmetry_space_group_name_H-M "P 63/M M C"
_symmetry_group_IT_number 194
_symmetry_cell_setting 'hexagonal'
loop_
_space_group_symop_operation_xyz
x,y,z
x-y,x,1/2+z
-y,x-y,z
-x,-y,1/2+z
-x+y,-x,z
y,-x+y,1/2+z
x-y,-y,-z
-x,-x+y,-z
y,x,-z
-y,-x,1/2-z
-x+y,y,1/2-z
x,x-y,1/2-z
-x,-y,-z
-x+y,-x,1/2-z
y,-x+y,-z
x,y,1/2-z
x-y,x,-z
-y,x-y,1/2-z
-x+y,y,z
x,x-y,z
-y,-x,z
y,x,1/2+z
x-y,-y,1/2+z
-x,-x+y,1/2+z
loop_
_atom_site_type_symbol
_atom_site_label
_atom_site_fract_x
_atom_site_fract_y
_atom_site_fract_z
Si Si1 0.256451 0.375102 0.815872
Si Si2 0.642465 0.006538 0.394666
Si Si3 0.804139 0.470024 0.349172
Si Si4 0.117510 0.627995 0.968009
Si Si5 0.716176 0.144097 0.918923
Si Si6 0.381632 0.475408 0.317715
O O1 0.250961 0.344579 0.750000
O O2 0.180673 0.361346 0.837818
O O3 0.282603 0.337351 0.862314
O O4 0.311899 0.458569 0.813722
O O5 0.629296 0.047866 0.447111
O O6 0.639756 0.935915 0.420408
O O7 0.580280 0.982714 0.345276
O O8 0.722625 0.445250 0.340480
O O9 0.817477 0.408739 0.324422
O O10 0.822630 0.483303 0.418371
O O11 0.095412 0.547706 0.982774
O O12 0.152192 0.675226 0.025692
O O13 0.798635 0.201366 0.921792
O O14 0.682099 0.153239 0.857792
O O15 0.356343 0.455014 0.250000
O O16 0.447068 0.552933 0.321717
#
# Coordination Sequence:
#
# PCOD8330392 Si02
#       6
#    24  24  24  24  24  24
#     4   9  17  30  45  63  88 116 147 184 226 274
#     4   9  19  30  48  70  91 116 149 187 236 283
#     4   9  17  27  40  58  83 115 147 182 225 277
#     4  10  18  30  48  68  88 112 150 196 241 283
#     4  10  21  32  46  66  91 120 151 191 236 283
#     4   9  18  31  48  68  90 118 157 204 246 284
#
# _framework density 15.280652999999999
#
# number of rings (size 3 to 8) (size 9 to 14) (size 15 to 20)
#    1.000    1.667    0.000    2.667    0.000    2.667 
#    0.000    0.000    0.000    4.667    0.000    0.000 
#    0.000    0.000    0.000    0.500    0.000    4.833 
#
# Total GULP energy -1784164.711190 kJ/mol
# GULP energy per Si atom -12390.032717 kJ/mol
# Density = 1.524587 g / cm^3
# Si number density = 15.280653 Si / 1000 Ang^3
#
#
#
# Elastic Constant Matrix: (Units=GPa)
#
#
# Indices 1 2 3 4 5 6 
#
# 1 61.8454 28.1252 14.9560 0.0000 0.0000 0.0000
# 2 28.1252 61.8454 14.9560 0.0000 0.0000 0.0000
# 3 14.9560 14.9560 69.6473 0.0000 0.0000 0.0000
# 4 0.0000 0.0000 0.0000 16.7472 0.0000 0.0000
# 5 0.0000 0.0000 0.0000 0.0000 16.7472 0.0000
# 6 0.0000 0.0000 0.0000 0.0000 0.0000 16.8601
#
#
#
# Elastic Compliance Matrix: (Units=1/GPa)
#
#
# Indices 1 2 3 4 5 6 
#
# 1 0.020813 -0.008843 -0.002570 0.000000 0.000000 0.000000
# 2 -0.008843 0.020813 -0.002570 0.000000 0.000000 0.000000
# 3 -0.002570 -0.002570 0.015462 0.000000 0.000000 0.000000
# 4 0.000000 0.000000 0.000000 0.059711 0.000000 0.000000
# 5 0.000000 0.000000 0.000000 0.000000 0.059711 0.000000
# 6 0.000000 0.000000 0.000000 0.000000 0.000000 0.059312
#
#
# Mechanical properties :
#
#
# Convention : Reuss Voigt Hill
#
# Bulk Modulus (GPa) = 34.34137 34.37916 34.36026
# Shear Modulus (GPa) = 18.28185 19.09098 18.68642
#
# Velocity S-wave (km/s) = 3.46266 3.53846 3.50076
# Velocity P-wave (km/s) = 6.20558 6.26431 6.23501
#
# Compressibility (1/GPa) = 0.02911940
#
# Stress axis : x y z
#
# Youngs Moduli (GPa) = 48.04798 48.04798 64.67496
#
# Poissons Ratio (x) = 0.42490 0.16623
# Poissons Ratio (y) = 0.42490 0.16623
# Poissons Ratio (z) = 0.12350 0.12350
#
# Static dielectric constant tensor:
#      x y z
#    x 2.698650 0.000000 0.000000 
#    y 0.000000 2.698650 0.000000 
#    z 0.000000 0.000000 3.026910 
# 
# 
# High freq. dielectric constant tensor:
#      x y z
#    x 1.551690 0.000000 0.000000 
#    y 0.000000 1.551690 0.000000 
#    z 0.000000 0.000000 1.600000 
# 
# From -- ./inp_files/9958.got.cif
#   From: 2010.03.12/outbox.cif.g09.slc.cpg/sg194_5_cif.got.tgz:9958.got - 2010.04.01 12:26:19.
