data_PCOD8330792
_publ_section_title
;
Structure prediction by ZEFSAII (Michael W. Deem and Ramdas Pophale) SiO2 
 PCOD8330792
Probable space group: P 63/M M C
;
_chemical_formula_sum "Si O2"
_cell_formula_units_Z 136
_cell_length_a 30.523405
_cell_length_b 30.523405
_cell_length_c 8.912139
_cell_angle_alpha 90.000000
_cell_angle_beta 90.000000
_cell_angle_gamma 120.000000
_cell_volume 7190.822050
_symmetry_space_group_name_H-M "P 63/M M C"
_symmetry_group_IT_number 194
_symmetry_cell_setting 'hexagonal'
loop_
_space_group_symop_operation_xyz
x,y,z
x-y,x,1/2+z
-y,x-y,z
-x,-y,1/2+z
-x+y,-x,z
y,-x+y,1/2+z
x-y,-y,-z
-x,-x+y,-z
y,x,-z
-y,-x,1/2-z
-x+y,y,1/2-z
x,x-y,1/2-z
-x,-y,-z
-x+y,-x,1/2-z
y,-x+y,-z
x,y,1/2-z
x-y,x,-z
-y,x-y,1/2-z
-x+y,y,z
x,x-y,z
-y,-x,z
y,x,1/2+z
x-y,-y,1/2+z
-x,-x+y,1/2+z
loop_
_atom_site_type_symbol
_atom_site_label
_atom_site_fract_x
_atom_site_fract_y
_atom_site_fract_z
Si Si1 0.425814 0.474952 0.925239
Si Si2 0.257289 0.412652 0.414936
Si Si3 0.333334 0.666668 0.569214
Si Si4 0.388840 0.777679 0.429577
Si Si5 0.947396 0.151668 0.071861
Si Si6 0.657065 0.497848 0.426931
Si Si7 0.210132 0.893820 0.583778
O O1 0.428181 0.469050 0.750000
O O2 0.472921 0.527080 0.983892
O O3 0.376167 0.476611 0.972282
O O4 0.427630 0.427630 0.000000
O O5 0.283020 0.422919 0.250000
O O6 0.201480 0.402959 0.398459
O O7 0.286896 0.460698 0.524078
O O8 0.252872 0.361231 0.482293
O O9 0.333334 0.666667 0.750000
O O10 0.361711 0.723422 0.507892
O O11 0.385831 0.771662 0.250000
O O12 0.360672 0.807455 0.481506
O O13 0.951742 0.153376 0.250000
O O14 0.904056 0.095945 0.019065
O O15 0.933068 0.193861 0.017546
O O16 0.000000 0.162987 0.000000
O O17 0.653996 0.485700 0.250000
O O18 0.233488 0.910904 0.750000
O O19 0.160598 0.839403 0.594812
#
# Coordination Sequence:
#
# PCOD8330792 Si02
#       7
#    24  24   4  12  24  24  24
#     4   9  18  34  55  79 105 133 171 216 260 314
#     4  10  21  35  53  80 111 140 179 231 282 332
#     4  12  28  50  70  87 115 158 196 240 301 356
#     4  12  26  44  65  89 118 148 189 244 292 336
#     4   9  18  32  52  80 113 149 193 243 291 345
#     4  11  22  39  60  84 114 150 190 228 277 347
#     4   8  15  31  52  73 100 136 176 217 268 329
#
# _framework density 18.912997000000001
#
# number of rings (size 3 to 8) (size 9 to 14) (size 15 to 20)
#    0.000    2.294    0.882    3.176    1.235    3.529 
#    0.000    2.647    0.000    0.176    0.000    0.000 
#    0.000    0.000    0.000    0.000    0.000    0.000 
#
# Total GULP energy -1685867.077489 kJ/mol
# GULP energy per Si atom -12396.081452 kJ/mol
# Density = 1.886995 g / cm^3
# Si number density = 18.912997 Si / 1000 Ang^3
#
#
#
# Elastic Constant Matrix: (Units=GPa)
#
#
# Indices 1 2 3 4 5 6 
#
# 1 90.9836 51.5865 45.8470 0.0000 0.0000 0.0000
# 2 51.5865 90.9838 45.8472 -0.0001 0.0000 0.0000
# 3 45.8470 45.8472 92.9220 0.0000 0.0000 0.0001
# 4 0.0000 -0.0001 0.0000 29.8139 0.0000 0.0000
# 5 0.0000 0.0000 0.0000 0.0000 29.8139 0.0000
# 6 0.0000 0.0000 0.0001 0.0000 0.0000 19.6986
#
#
#
# Elastic Compliance Matrix: (Units=1/GPa)
#
#
# Indices 1 2 3 4 5 6 
#
# 1 0.017828 -0.007554 -0.005069 0.000000 0.000000 0.000000
# 2 -0.007554 0.017828 -0.005069 0.000000 0.000000 0.000000
# 3 -0.005069 -0.005069 0.015764 0.000000 0.000000 0.000000
# 4 0.000000 0.000000 0.000000 0.033541 0.000000 0.000000
# 5 0.000000 0.000000 0.000000 0.000000 0.033541 0.000000
# 6 0.000000 0.000000 0.000000 0.000000 0.000000 0.050765
#
#
# Mechanical properties :
#
#
# Convention : Reuss Voigt Hill
#
# Bulk Modulus (GPa) = 62.36127 62.38340 62.37234
# Shear Modulus (GPa) = 23.80959 24.63921 24.22440
#
# Velocity S-wave (km/s) = 3.55195 3.61330 3.58276
# Velocity P-wave (km/s) = 7.06159 7.10380 7.08273
#
# Compressibility (1/GPa) = 0.01603560
#
# Stress axis : x y z
#
# Youngs Moduli (GPa) = 56.09004 56.09004 63.43538
#
# Poissons Ratio (x) = 0.42371 0.32157
# Poissons Ratio (y) = 0.42371 0.32158
# Poissons Ratio (z) = 0.28434 0.28434
#
# Static dielectric constant tensor:
#      x y z
#    x 3.458880 0.000000 0.000000 
#    y 0.000000 3.458880 0.000000 
#    z 0.000000 0.000000 3.611650 
# 
# 
# High freq. dielectric constant tensor:
#      x y z
#    x 1.722290 0.000000 0.000000 
#    y 0.000000 1.722290 0.000000 
#    z 0.000000 0.000000 1.737140 
# 
# From -- ./inp_files/2195.got.cif
#   From: 2010.03.12/outbox.cif.g09.slc.cpg/sg194_2_cif.got.tgz:2195.got - 2010.04.01 12:26:19.
