data_PCOD8330072
_publ_section_title
;
Structure prediction by ZEFSAII (Michael W. Deem and Ramdas Pophale) SiO2 
 PCOD8330072
Probable space group: P 63/M C M
;
_chemical_formula_sum "Si O2"
_cell_formula_units_Z 104
_cell_length_a 20.715274
_cell_length_b 20.715274
_cell_length_c 14.273090
_cell_angle_alpha 90.000000
_cell_angle_beta 90.000000
_cell_angle_gamma 120.000000
_cell_volume 5304.323465
_symmetry_space_group_name_H-M "P 63/M C M"
_symmetry_group_IT_number 193
_symmetry_cell_setting 'hexagonal'
loop_
_space_group_symop_operation_xyz
x,y,z
x-y,x,1/2+z
-y,x-y,z
-x,-y,1/2+z
-x+y,-x,z
y,-x+y,1/2+z
x-y,-y,1/2-z
-x,-x+y,1/2-z
y,x,1/2-z
-y,-x,-z
-x+y,y,-z
x,x-y,-z
-x,-y,-z
-x+y,-x,1/2-z
y,-x+y,-z
x,y,1/2-z
x-y,x,-z
-y,x-y,1/2-z
-x+y,y,1/2+z
x,x-y,1/2+z
-y,-x,1/2+z
y,x,z
x-y,-y,z
-x,-x+y,z
loop_
_atom_site_type_symbol
_atom_site_label
_atom_site_fract_x
_atom_site_fract_y
_atom_site_fract_z
Si Si1 0.591429 0.763698 0.250000
Si Si2 0.113498 0.590311 0.750000
Si Si3 0.829436 0.700224 0.894752
Si Si4 0.333334 0.666668 0.388676
Si Si5 0.172068 0.088091 0.250000
Si Si6 0.670291 0.670291 0.640576
Si Si7 0.000000 0.518244 0.107096
Si Si8 0.446979 0.759251 0.250000
O O1 0.546136 0.674273 0.250000
O O2 0.642018 0.793973 0.342783
O O3 0.535881 0.797899 0.250000
O O4 0.071269 0.549190 0.655741
O O5 0.187606 0.587107 0.750000
O O6 0.873320 0.779004 0.842125
O O7 0.740948 0.667246 0.899233
O O8 0.856849 0.713698 0.000000
O O9 0.333334 0.666667 0.500000
O O10 0.416940 0.709815 0.345434
O O11 0.102643 0.102643 0.250000
O O12 0.142059 0.000000 0.250000
O O13 0.681616 0.681616 0.750000
O O14 0.595165 0.595165 0.615960
O O15 0.000000 0.500000 0.000000
#
# Coordination Sequence:
#
# PCOD8330072 Si02
#       8
#    12  12  24   8  12  12  12  12
#     4  11  22  41  63  92 128 166 213 273 329 384
#     4  11  22  43  60  86 131 156 211 264 323 380
#     4  11  25  42  68  99 130 175 223 271 325 400
#     4  10  20  34  55  89 118 154 197 253 322 380
#     4  11  23  45  71 103 137 171 213 267 334 404
#     4  12  20  49  71  88 130 183 232 263 318 411
#     4  11  27  42  65  93 122 176 216 274 318 371
#     4  10  20  42  60  83 121 161 200 261 326 376
#
# _framework density 19.606649000000001
#
# number of rings (size 3 to 8) (size 9 to 14) (size 15 to 20)
#    0.000    1.154    6.923    1.500    4.846    1.846 
#    8.308    0.000    0.000    1.385    0.000    0.000 
#    0.000    0.000    0.000    0.000    0.000    0.000 
#
# Total GULP energy -1289311.768088 kJ/mol
# GULP energy per Si atom -12397.228539 kJ/mol
# Density = 1.956202 g / cm^3
# Si number density = 19.606649 Si / 1000 Ang^3
#
#
#
# Elastic Constant Matrix: (Units=GPa)
#
#
# Indices 1 2 3 4 5 6 
#
# 1 123.7295 41.1434 42.8483 0.0000 0.0000 0.0000
# 2 41.1434 123.7290 42.8482 0.0000 0.0001 0.0000
# 3 42.8483 42.8482 184.9449 -0.0002 -0.0001 0.0000
# 4 0.0000 0.0000 -0.0002 19.4869 0.0000 0.0000
# 5 0.0000 0.0001 -0.0001 0.0000 19.4871 0.0000
# 6 0.0000 0.0000 0.0000 0.0000 0.0000 41.2930
#
#
#
# Elastic Compliance Matrix: (Units=1/GPa)
#
#
# Indices 1 2 3 4 5 6 
#
# 1 0.009502 -0.002606 -0.001598 0.000000 0.000000 0.000000
# 2 -0.002606 0.009502 -0.001598 0.000000 0.000000 0.000000
# 3 -0.001598 -0.001598 0.006147 0.000000 0.000000 0.000000
# 4 0.000000 0.000000 0.000000 0.051317 0.000000 0.000000
# 5 0.000000 0.000000 0.000000 0.000000 0.051316 0.000000
# 6 0.000000 0.000000 0.000000 0.000000 0.000000 0.024217
#
#
# Mechanical properties :
#
#
# Convention : Reuss Voigt Hill
#
# Bulk Modulus (GPa) = 73.81031 76.23147 75.02089
# Shear Modulus (GPa) = 29.74050 36.42428 33.08239
#
# Velocity S-wave (km/s) = 3.89891 4.31484 4.11214
# Velocity P-wave (km/s) = 7.61551 7.98678 7.80335
#
# Compressibility (1/GPa) = 0.01354824
#
# Stress axis : x y z
#
# Youngs Moduli (GPa) = 105.23957 105.23918 162.67357
#
# Poissons Ratio (x) = 0.27430 0.25989
# Poissons Ratio (y) = 0.27430 0.25989
# Poissons Ratio (z) = 0.16813 0.16813
#
# Static dielectric constant tensor:
#      x y z
#    x 4.898980 -0.000070 0.000020 
#    y -0.000070 4.898750 -0.000020 
#    z 0.000020 -0.000020 3.174520 
# 
# 
# High freq. dielectric constant tensor:
#      x y z
#    x 1.772820 0.000000 0.000000 
#    y 0.000000 1.772820 0.000000 
#    z 0.000000 0.000000 1.755800 
# 
# From -- ./inp_files/3811.got.cif
#   From: 2010.03.12/outbox.cif.g09.slc.cpg/sg193_2_cif.got.tgz:3811.got - 2010.04.01 12:20:39.
