data_PCOD8330490
_publ_section_title
;
Structure prediction by ZEFSAII (Michael W. Deem and Ramdas Pophale) SiO2 
 PCOD8330490
Probable space group: P 63/M M C
;
_chemical_formula_sum "Si O2"
_cell_formula_units_Z 84
_cell_length_a 23.327031
_cell_length_b 23.327031
_cell_length_c 10.324687
_cell_angle_alpha 90.000000
_cell_angle_beta 90.000000
_cell_angle_gamma 120.000000
_cell_volume 4865.488600
_symmetry_space_group_name_H-M "P 63/M M C"
_symmetry_group_IT_number 194
_symmetry_cell_setting 'hexagonal'
loop_
_space_group_symop_operation_xyz
x,y,z
x-y,x,1/2+z
-y,x-y,z
-x,-y,1/2+z
-x+y,-x,z
y,-x+y,1/2+z
x-y,-y,-z
-x,-x+y,-z
y,x,-z
-y,-x,1/2-z
-x+y,y,1/2-z
x,x-y,1/2-z
-x,-y,-z
-x+y,-x,1/2-z
y,-x+y,-z
x,y,1/2-z
x-y,x,-z
-y,x-y,1/2-z
-x+y,y,z
x,x-y,z
-y,-x,z
y,x,1/2+z
x-y,-y,1/2+z
-x,-x+y,1/2+z
loop_
_atom_site_type_symbol
_atom_site_label
_atom_site_fract_x
_atom_site_fract_y
_atom_site_fract_z
Si Si1 0.130588 0.738167 0.602748
Si Si2 0.362212 0.362212 0.500000
Si Si3 0.537910 0.206934 0.031824
Si Si4 0.830964 0.481247 0.750000
Si Si5 0.419613 0.442789 0.250000
O O1 0.111670 0.745118 0.750000
O O2 0.190267 0.809734 0.552934
O O3 0.154934 0.684193 0.602201
O O4 0.065933 0.711185 0.508872
O O5 0.408414 0.399489 0.377403
O O6 0.593578 0.187156 0.061278
O O7 0.562181 0.281091 0.083323
O O8 0.523327 0.208880 0.879027
O O9 0.849031 0.424516 0.750000
O O10 0.902726 0.545963 0.750000
O O11 0.492677 0.507324 0.250000
#
# Coordination Sequence:
#
# PCOD8330490 Si02
#       5
#    24  12  24  12  12
#     4  10  22  38  54  75 103 133 169 214 266 323
#     4  12  21  38  58  78 100 140 175 214 274 324
#     4  10  19  31  46  65  91 126 168 215 266 319
#     4   9  17  29  43  64  91 116 155 211 265 309
#     4  11  22  33  50  80 106 132 176 225 269 317
#
# _framework density 17.264454000000001
#
# number of rings (size 3 to 8) (size 9 to 14) (size 15 to 20)
#    0.000    1.714    4.286    1.143    0.000    1.714 
#    0.000    2.143    0.000    1.714    0.000    0.000 
#    0.000    0.000    0.000    0.429    0.000    2.000 
#
# Total GULP energy -1040724.678607 kJ/mol
# GULP energy per Si atom -12389.579507 kJ/mol
# Density = 1.722516 g / cm^3
# Si number density = 17.264454 Si / 1000 Ang^3
#
#
#
# Elastic Constant Matrix: (Units=GPa)
#
#
# Indices 1 2 3 4 5 6 
#
# 1 84.0063 47.0492 16.8183 0.0000 0.0000 0.0000
# 2 47.0492 84.0063 16.8183 0.0000 0.0000 0.0000
# 3 16.8183 16.8183 74.1551 0.0000 0.0000 0.0000
# 4 0.0000 0.0000 0.0000 15.4313 0.0000 0.0000
# 5 0.0000 0.0000 0.0000 0.0000 15.4313 0.0000
# 6 0.0000 0.0000 0.0000 0.0000 0.0000 18.4785
#
#
#
# Elastic Compliance Matrix: (Units=1/GPa)
#
#
# Indices 1 2 3 4 5 6 
#
# 1 0.017580 -0.009478 -0.001838 0.000000 0.000000 0.000000
# 2 -0.009478 0.017580 -0.001838 0.000000 0.000000 0.000000
# 3 -0.001838 -0.001838 0.014319 0.000000 0.000000 0.000000
# 4 0.000000 0.000000 0.000000 0.064804 0.000000 0.000000
# 5 0.000000 0.000000 0.000000 0.000000 0.064804 0.000000
# 6 0.000000 0.000000 0.000000 0.000000 0.000000 0.054117
#
#
# Mechanical properties :
#
#
# Convention : Reuss Voigt Hill
#
# Bulk Modulus (GPa) = 43.15441 44.83772 43.99607
# Shear Modulus (GPa) = 18.71022 20.63368 19.67195
#
# Velocity S-wave (km/s) = 3.29560 3.46085 3.37923
# Velocity P-wave (km/s) = 6.28742 6.48055 6.38471
#
# Compressibility (1/GPa) = 0.02317260
#
# Stress axis : x y z
#
# Youngs Moduli (GPa) = 56.88221 56.88221 69.83858
#
# Poissons Ratio (x) = 0.53914 0.12833
# Poissons Ratio (y) = 0.53914 0.12833
# Poissons Ratio (z) = 0.10452 0.10452
#
# Static dielectric constant tensor:
#      x y z
#    x 3.072280 0.000000 0.000000 
#    y 0.000000 3.072280 0.000000 
#    z 0.000000 0.000000 -3.325290 
# 
# 
# High freq. dielectric constant tensor:
#      x y z
#    x 1.636020 0.000000 0.000000 
#    y 0.000000 1.636020 0.000000 
#    z 0.000000 0.000000 1.671580 
# 
# From -- ./inp_files/2996.got.cif
#   From: 2010.03.12/outbox.cif.g09.slc.cpg/sg194_2_cif.got.tgz:2996.got - 2010.04.01 12:26:19.
