data_PCOD8330551
_publ_section_title
;
Structure prediction by ZEFSAII (Michael W. Deem and Ramdas Pophale) SiO2 
 PCOD8330551
Probable space group: P 63/M M C
;
_chemical_formula_sum "Si O2"
_cell_formula_units_Z 60
_cell_length_a 22.205724
_cell_length_b 22.205724
_cell_length_c 7.877448
_cell_angle_alpha 90.000000
_cell_angle_beta 90.000000
_cell_angle_gamma 120.000000
_cell_volume 3363.923043
_symmetry_space_group_name_H-M "P 63/M M C"
_symmetry_group_IT_number 194
_symmetry_cell_setting 'hexagonal'
loop_
_space_group_symop_operation_xyz
x,y,z
x-y,x,1/2+z
-y,x-y,z
-x,-y,1/2+z
-x+y,-x,z
y,-x+y,1/2+z
x-y,-y,-z
-x,-x+y,-z
y,x,-z
-y,-x,1/2-z
-x+y,y,1/2-z
x,x-y,1/2-z
-x,-y,-z
-x+y,-x,1/2-z
y,-x+y,-z
x,y,1/2-z
x-y,x,-z
-y,x-y,1/2-z
-x+y,y,z
x,x-y,z
-y,-x,z
y,x,1/2+z
x-y,-y,1/2+z
-x,-x+y,1/2+z
loop_
_atom_site_type_symbol
_atom_site_label
_atom_site_fract_x
_atom_site_fract_y
_atom_site_fract_z
Si Si1 0.525059 0.334396 0.250000
Si Si2 0.789701 0.075151 0.051168
Si Si3 0.565288 0.711268 0.062414
O O1 0.602774 0.397227 0.250000
O O2 0.528031 0.264016 0.250000
O O3 0.485740 0.340104 0.417492
O O4 0.783667 0.082063 0.250000
O O5 0.866310 0.133691 0.987262
O O6 0.729234 0.084802 0.964673
O O7 0.778242 0.000000 0.000000
O O8 0.540150 0.677589 0.250000
O O9 0.564652 0.782326 0.047221
#
# Coordination Sequence:
#
# PCOD8330551 Si02
#       3
#    12  24  24
#     4  10  19  32  50  74 103 134 172 214 262 316
#     4  10  19  32  52  80 108 134 169 213 256 299
#     4   9  17  31  50  72  99 133 173 214 257 301
#
# _framework density 17.836317999999999
#
# number of rings (size 3 to 8) (size 9 to 14) (size 15 to 20)
#    0.000    2.400    2.000    1.400    0.000    3.200 
#    0.000    0.000    0.000    4.000    0.000    0.000 
#    0.000    0.000    0.000    0.000    0.000    0.000 
#
# Total GULP energy -743789.213583 kJ/mol
# GULP energy per Si atom -12396.486893 kJ/mol
# Density = 1.779572 g / cm^3
# Si number density = 17.836318 Si / 1000 Ang^3
#
#
#
# Elastic Constant Matrix: (Units=GPa)
#
#
# Indices 1 2 3 4 5 6 
#
# 1 77.0051 33.6433 39.2690 0.0000 0.0000 0.0000
# 2 33.6433 77.0051 39.2690 0.0000 0.0000 0.0000
# 3 39.2690 39.2690 132.1933 0.0000 0.0000 0.0000
# 4 0.0000 0.0000 0.0000 19.5407 0.0000 0.0000
# 5 0.0000 0.0000 0.0000 0.0000 19.5407 0.0000
# 6 0.0000 0.0000 0.0000 0.0000 0.0000 21.6809
#
#
#
# Elastic Compliance Matrix: (Units=1/GPa)
#
#
# Indices 1 2 3 4 5 6 
#
# 1 0.017257 -0.005805 -0.003402 0.000000 0.000000 0.000000
# 2 -0.005805 0.017257 -0.003402 0.000000 0.000000 0.000000
# 3 -0.003402 -0.003402 0.009586 0.000000 0.000000 0.000000
# 4 0.000000 0.000000 0.000000 0.051175 0.000000 0.000000
# 5 0.000000 0.000000 0.000000 0.000000 0.051175 0.000000
# 6 0.000000 0.000000 0.000000 0.000000 0.000000 0.046124
#
#
# Mechanical properties :
#
#
# Convention : Reuss Voigt Hill
#
# Bulk Modulus (GPa) = 52.95892 56.72959 54.84426
# Shear Modulus (GPa) = 22.31287 23.75392 23.03340
#
# Velocity S-wave (km/s) = 3.54076 3.65331 3.59747
# Velocity P-wave (km/s) = 6.81704 7.04771 6.93333
#
# Compressibility (1/GPa) = 0.01888256
#
# Stress axis : x y z
#
# Youngs Moduli (GPa) = 57.94723 57.94723 104.32024
#
# Poissons Ratio (x) = 0.33637 0.35490
# Poissons Ratio (y) = 0.33637 0.35490
# Poissons Ratio (z) = 0.19714 0.19714
#
# Static dielectric constant tensor:
#      x y z
#    x 3.177300 0.000000 0.000000 
#    y 0.000000 3.177300 0.000000 
#    z 0.000000 0.000000 3.633170 
# 
# 
# High freq. dielectric constant tensor:
#      x y z
#    x 1.658250 0.000000 0.000000 
#    y 0.000000 1.658250 0.000000 
#    z 0.000000 0.000000 1.713090 
# 
# From -- ./inp_files/780.got.cif
#   From: 2010.03.12/outbox.cif.g09.slc.cpg/sg194_1_cif.got.tgz:780.got - 2010.04.01 12:26:19.
