data_PCOD8330619
_publ_section_title
;
Structure prediction by ZEFSAII (Michael W. Deem and Ramdas Pophale) SiO2 
 PCOD8330619
Probable space group: P 63/M M C
;
_chemical_formula_sum "Si O2"
_cell_formula_units_Z 156
_cell_length_a 22.423888
_cell_length_b 22.423888
_cell_length_c 20.448187
_cell_angle_alpha 90.000000
_cell_angle_beta 90.000000
_cell_angle_gamma 120.000000
_cell_volume 8904.453515
_symmetry_space_group_name_H-M "P 63/M M C"
_symmetry_group_IT_number 194
_symmetry_cell_setting 'hexagonal'
loop_
_space_group_symop_operation_xyz
x,y,z
x-y,x,1/2+z
-y,x-y,z
-x,-y,1/2+z
-x+y,-x,z
y,-x+y,1/2+z
x-y,-y,-z
-x,-x+y,-z
y,x,-z
-y,-x,1/2-z
-x+y,y,1/2-z
x,x-y,1/2-z
-x,-y,-z
-x+y,-x,1/2-z
y,-x+y,-z
x,y,1/2-z
x-y,x,-z
-y,x-y,1/2-z
-x+y,y,z
x,x-y,z
-y,-x,z
y,x,1/2+z
x-y,-y,1/2+z
-x,-x+y,1/2+z
loop_
_atom_site_type_symbol
_atom_site_label
_atom_site_fract_x
_atom_site_fract_y
_atom_site_fract_z
Si Si1 0.404889 0.460796 0.173173
Si Si2 0.610904 0.873547 0.114728
Si Si3 0.190378 0.948347 0.324462
Si Si4 0.872847 0.610207 0.463757
Si Si5 0.950934 0.763972 0.062323
Si Si6 0.472931 0.807253 0.750000
Si Si7 0.382614 0.479052 0.872037
O O1 0.396336 0.454670 0.250000
O O2 0.463515 0.536486 0.151625
O O3 0.334796 0.449303 0.141289
O O4 0.424121 0.404498 0.149313
O O5 0.587462 0.793731 0.125466
O O6 0.680118 0.922451 0.153980
O O7 0.623603 0.894687 0.039237
O O8 0.207346 0.975185 0.250000
O O9 0.112416 0.887585 0.331352
O O10 0.199373 0.009662 0.371172
O O11 0.792512 0.585024 0.455186
O O12 0.919850 0.682405 0.427394
O O13 0.885060 0.550731 0.435203
O O14 0.890659 0.781318 0.050310
O O15 0.000000 0.791776 0.000000
O O16 0.393203 0.786405 0.750000
O O17 0.478651 0.739326 0.750000
O O18 0.511214 0.851982 0.813453
O O19 0.448493 0.551508 0.891747
#
# Coordination Sequence:
#
# PCOD8330619 Si02
#       7
#    24  24  24  24  24  12  24
#     4  10  20  34  51  76 108 139 171 213 266 317
#     4  10  20  35  55  78 105 138 178 222 269 320
#     4  10  20  35  56  81 107 139 180 225 270 320
#     4  10  21  35  52  77 108 140 174 221 269 311
#     4  11  21  36  57  80 110 144 179 219 270 324
#     4  10  19  34  54  76 105 146 192 228 264 316
#     4  10  20  34  53  77 109 145 178 220 272 321
#
# _framework density 17.519323
#
# number of rings (size 3 to 8) (size 9 to 14) (size 15 to 20)
#    0.000    1.846    2.308    2.385    0.000    1.846 
#    1.385    1.538    0.000    3.385    0.000    0.000 
#    0.000    0.000    0.000    0.000    0.000    0.000 
#
# Total GULP energy -1934880.847236 kJ/mol
# GULP energy per Si atom -12403.082354 kJ/mol
# Density = 1.747945 g / cm^3
# Si number density = 17.519323 Si / 1000 Ang^3
#
#
#
# Elastic Constant Matrix: (Units=GPa)
#
#
# Indices 1 2 3 4 5 6 
#
# 1 311.8004 -170.3371 42.8318 0.0000 0.0000 0.0000
# 2 -170.3371 311.8004 42.8318 0.0000 0.0000 0.0000
# 3 42.8318 42.8318 95.0728 0.0000 0.0000 0.0000
# 4 0.0000 0.0000 0.0000 31.7445 0.0000 0.0000
# 5 0.0000 0.0000 0.0000 0.0000 31.7445 0.0000
# 6 0.0000 0.0000 0.0000 0.0000 0.0000 241.0688
#
#
#
# Elastic Compliance Matrix: (Units=1/GPa)
#
#
# Indices 1 2 3 4 5 6 
#
# 1 0.005898 0.003823 -0.004379 0.000000 0.000000 0.000000
# 2 0.003823 0.005898 -0.004379 0.000000 0.000000 0.000000
# 3 -0.004379 -0.004379 0.014464 0.000000 0.000000 0.000000
# 4 0.000000 0.000000 0.000000 0.031502 0.000000 0.000000
# 5 0.000000 0.000000 0.000000 0.000000 0.031502 0.000000
# 6 0.000000 0.000000 0.000000 0.000000 0.000000 0.004148
#
#
# Mechanical properties :
#
#
# Convention : Reuss Voigt Hill
#
# Bulk Modulus (GPa) = 61.01872 61.03628 61.02750
# Shear Modulus (GPa) = 45.97944 114.46804 80.22374
#
# Velocity S-wave (km/s) = 5.12854 8.09197 6.77429
# Velocity P-wave (km/s) = 8.36506 11.05539 9.80296
#
# Compressibility (1/GPa) = 0.01638841
#
# Stress axis : x y z
#
# Youngs Moduli (GPa) = 169.56267 169.56267 69.13588
#
# Poissons Ratio (x) = -0.64831 0.30278
# Poissons Ratio (y) = -0.64831 0.30278
# Poissons Ratio (z) = 0.74259 0.74259
#
# Static dielectric constant tensor:
#      x y z
#    x 3.356980 0.000000 0.000000 
#    y 0.000000 3.356980 0.000000 
#    z 0.000000 0.000000 3.278600 
# 
# 
# High freq. dielectric constant tensor:
#      x y z
#    x 1.671920 0.000000 0.000000 
#    y 0.000000 1.671920 0.000000 
#    z 0.000000 0.000000 1.683720 
# 
# From -- ./inp_files/8376.got.cif
#   From: 2010.03.12/outbox.cif.g09.slc.cpg/sg194_5_cif.got.tgz:8376.got - 2010.04.01 12:26:19.
