data_PCOD8330087
_publ_section_title
;
Structure prediction by ZEFSAII (Michael W. Deem and Ramdas Pophale) SiO2 
 PCOD8330087
Probable space group: P 63/M C M
;
_chemical_formula_sum "Si O2"
_cell_formula_units_Z 152
_cell_length_a 17.407201
_cell_length_b 17.407201
_cell_length_c 30.723367
_cell_angle_alpha 90.000000
_cell_angle_beta 90.000000
_cell_angle_gamma 120.000000
_cell_volume 8062.269820
_symmetry_space_group_name_H-M "P 63/M C M"
_symmetry_group_IT_number 193
_symmetry_cell_setting 'hexagonal'
loop_
_space_group_symop_operation_xyz
x,y,z
x-y,x,1/2+z
-y,x-y,z
-x,-y,1/2+z
-x+y,-x,z
y,-x+y,1/2+z
x-y,-y,1/2-z
-x,-x+y,1/2-z
y,x,1/2-z
-y,-x,-z
-x+y,y,-z
x,x-y,-z
-x,-y,-z
-x+y,-x,1/2-z
y,-x+y,-z
x,y,1/2-z
x-y,x,-z
-y,x-y,1/2-z
-x+y,y,1/2+z
x,x-y,1/2+z
-y,-x,1/2+z
y,x,z
x-y,-y,z
-x,-x+y,z
loop_
_atom_site_type_symbol
_atom_site_label
_atom_site_fract_x
_atom_site_fract_y
_atom_site_fract_z
Si Si1 0.663241 0.499382 0.670665
Si Si2 0.104691 0.733654 0.918819
Si Si3 0.666668 0.333334 0.302119
Si Si4 0.640787 0.101881 0.666336
Si Si5 0.898738 0.365134 0.000216
Si Si6 0.623777 0.897796 0.411080
Si Si7 0.729996 0.630120 0.750000
Si Si8 0.268606 0.894794 0.250000
O O1 0.702522 0.433218 0.679731
O O2 0.558507 0.440921 0.667226
O O3 0.699118 0.551050 0.626099
O O4 0.685377 0.569266 0.708448
O O5 0.132863 0.693658 0.878730
O O6 0.166321 0.841144 0.915835
O O7 0.000000 0.703781 0.919833
O O8 0.140166 0.708050 0.961875
O O9 0.666667 0.333334 0.250000
O O10 0.703631 0.142983 0.708375
O O11 0.606882 0.000000 0.671653
O O12 0.889924 0.320701 0.954076
O O13 0.000000 0.428657 0.014042
O O14 0.851822 0.425911 0.000000
O O15 0.696076 0.000000 0.400756
O O16 0.711050 0.711050 0.750000
O O17 0.837427 0.676052 0.750000
O O18 0.303128 0.000000 0.250000
#
# Coordination Sequence:
#
# PCOD8330087 Si02
#       8
#    24  24   8  24  24  24  12  12
#     4  12  23  36  53  79 111 143 179 217 266 319
#     4  10  20  36  57  80 107 147 192 232 280 339
#     4  12  24  39  54  75 112 155 184 219 264 325
#     4  10  20  35  56  78 105 142 182 220 264 324
#     4   9  18  33  55  80 108 142 181 225 272 326
#     4  11  22  36  55  82 112 143 185 239 287 331
#     4  12  23  35  53  76 103 135 172 216 265 317
#     4  10  21  37  55  76 103 137 178 222 265 317
#
# _framework density 18.853249999999999
#
# number of rings (size 3 to 8) (size 9 to 14) (size 15 to 20)
#    0.000    1.421    0.789    6.158    0.000    3.158 
#    0.000    0.000    0.000    4.895    0.000    0.000 
#    0.000    8.842    0.000    0.000    0.000    1.579 
#
# Total GULP energy -1884096.887649 kJ/mol
# GULP energy per Si atom -12395.374261 kJ/mol
# Density = 1.881034 g / cm^3
# Si number density = 18.853250 Si / 1000 Ang^3
#
#
#
# Elastic Constant Matrix: (Units=GPa)
#
#
# Indices 1 2 3 4 5 6 
#
# 1 100.7897 55.9316 38.2428 -0.0001 0.0000 0.0001
# 2 55.9316 100.7898 38.2429 0.0001 -0.0001 0.0000
# 3 38.2428 38.2429 127.8254 -0.0001 0.0001 0.0000
# 4 -0.0001 0.0001 -0.0001 48.1164 -0.0002 0.0000
# 5 0.0000 -0.0001 0.0001 -0.0002 48.1165 0.0001
# 6 0.0001 0.0000 0.0000 0.0000 0.0001 22.4291
#
#
#
# Elastic Compliance Matrix: (Units=1/GPa)
#
#
# Indices 1 2 3 4 5 6 
#
# 1 0.014882 -0.007410 -0.002235 0.000000 0.000000 0.000000
# 2 -0.007410 0.014882 -0.002235 0.000000 0.000000 0.000000
# 3 -0.002235 -0.002235 0.009161 0.000000 0.000000 0.000000
# 4 0.000000 0.000000 0.000000 0.020783 0.000000 0.000000
# 5 0.000000 0.000000 0.000000 0.000000 0.020783 0.000000
# 6 0.000000 0.000000 0.000000 0.000000 0.000000 0.044585
#
#
# Mechanical properties :
#
#
# Convention : Reuss Voigt Hill
#
# Bulk Modulus (GPa) = 65.95175 66.02659 65.98917
# Shear Modulus (GPa) = 32.49028 36.86491 34.67760
#
# Velocity S-wave (km/s) = 4.15580 4.42674 4.29341
# Velocity P-wave (km/s) = 7.62136 7.82467 7.72368
#
# Compressibility (1/GPa) = 0.01516260
#
# Stress axis : x y z
#
# Youngs Moduli (GPa) = 67.19484 67.19490 109.16147
#
# Poissons Ratio (x) = 0.49794 0.24402
# Poissons Ratio (y) = 0.49794 0.24402
# Poissons Ratio (z) = 0.15021 0.15021
#
# Static dielectric constant tensor:
#      x y z
#    x 3.483220 0.000000 0.000000 
#    y 0.000000 3.483220 0.000000 
#    z 0.000000 0.000000 3.899520 
# 
# 
# High freq. dielectric constant tensor:
#      x y z
#    x 1.719670 0.000000 0.000000 
#    y 0.000000 1.719670 0.000000 
#    z 0.000000 0.000000 1.755750 
# 
# From -- ./inp_files/9273.got.cif
#   From: 2010.03.12/outbox.cif.g09.slc.cpg/sg193_5_cif.got.tgz:9273.got - 2010.04.01 12:20:39.
