data_PCOD8330568
_publ_section_title
;
Structure prediction by ZEFSAII (Michael W. Deem and Ramdas Pophale) SiO2 
 PCOD8330568
Probable space group: P 63/M M C
;
_chemical_formula_sum "Si O2"
_cell_formula_units_Z 180
_cell_length_a 26.702474
_cell_length_b 26.702474
_cell_length_c 17.213446
_cell_angle_alpha 90.000000
_cell_angle_beta 90.000000
_cell_angle_gamma 120.000000
_cell_volume 10629.221441
_symmetry_space_group_name_H-M "P 63/M M C"
_symmetry_group_IT_number 194
_symmetry_cell_setting 'hexagonal'
loop_
_space_group_symop_operation_xyz
x,y,z
x-y,x,1/2+z
-y,x-y,z
-x,-y,1/2+z
-x+y,-x,z
y,-x+y,1/2+z
x-y,-y,-z
-x,-x+y,-z
y,x,-z
-y,-x,1/2-z
-x+y,y,1/2-z
x,x-y,1/2-z
-x,-y,-z
-x+y,-x,1/2-z
y,-x+y,-z
x,y,1/2-z
x-y,x,-z
-y,x-y,1/2-z
-x+y,y,z
x,x-y,z
-y,-x,z
y,x,1/2+z
x-y,-y,1/2+z
-x,-x+y,1/2+z
loop_
_atom_site_type_symbol
_atom_site_label
_atom_site_fract_x
_atom_site_fract_y
_atom_site_fract_z
Si Si1 0.778336 0.332139 0.750000
Si Si2 0.669037 0.890103 0.944027
Si Si3 0.321877 0.875150 0.010753
Si Si4 0.167726 0.220545 0.448838
Si Si5 0.351333 0.402440 0.161390
Si Si6 0.731329 0.728563 0.161451
Si Si7 0.551443 0.331459 0.917764
Si Si8 0.574758 0.035875 0.421104
O O1 0.709130 0.290871 0.750000
O O2 0.794554 0.397277 0.750000
O O3 0.802217 0.322654 0.667987
O O4 0.664439 0.832220 0.908157
O O5 0.683619 0.936215 0.876690
O O6 0.609949 0.873223 0.987679
O O7 0.719368 0.917784 0.006670
O O8 0.343556 0.903190 0.095855
O O9 0.313591 0.811592 0.017904
O O10 0.367903 0.904648 0.941695
O O11 0.170828 0.170828 0.500000
O O12 0.100586 0.201172 0.430099
O O13 0.206101 0.232690 0.371553
O O14 0.350214 0.423446 0.250000
O O15 0.299159 0.337082 0.150595
O O16 0.414176 0.409056 0.147085
O O17 0.749845 0.734237 0.250000
O O18 0.576944 0.288472 0.926967
O O19 0.603126 0.396875 0.929614
O O20 0.523242 0.046484 0.392167
O O21 0.557325 0.000000 0.500000
#
# Coordination Sequence:
#
# PCOD8330568 Si02
#       8
#    12  24  24  24  24  24  24  24
#     4   8  15  28  44  60  82 114 152 194 243 298
#     4  10  19  32  51  75 101 135 170 204 251 303
#     4  11  19  31  51  69  97 128 165 209 253 309
#     4   9  18  32  53  78 107 142 178 211 245 293
#     4  10  20  32  49  70  96 131 164 204 253 300
#     4  10  19  33  52  75 103 134 169 207 253 304
#     4  10  20  33  48  66  90 122 162 207 257 307
#     4   9  18  31  47  67  91 126 169 209 249 297
#
# _framework density 16.934448
#
# number of rings (size 3 to 8) (size 9 to 14) (size 15 to 20)
#    0.000    2.267    2.667    1.000    0.933    2.400 
#    0.000    0.000    0.000    0.133    0.000    0.000 
#    0.000    0.000    0.000    0.400    0.000    9.467 
#
# Total GULP energy -2230347.385315 kJ/mol
# GULP energy per Si atom -12390.818807 kJ/mol
# Density = 1.689590 g / cm^3
# Si number density = 16.934448 Si / 1000 Ang^3
#
#
#
# Elastic Constant Matrix: (Units=GPa)
#
#
# Indices 1 2 3 4 5 6 
#
# 1 70.3973 25.5680 21.7764 0.0000 0.0000 0.0000
# 2 25.5680 70.3973 21.7764 0.0000 0.0000 0.0000
# 3 21.7764 21.7764 63.9583 0.0000 0.0000 0.0000
# 4 0.0000 0.0000 0.0000 19.5268 0.0000 0.0000
# 5 0.0000 0.0000 0.0000 0.0000 19.5268 0.0000
# 6 0.0000 0.0000 0.0000 0.0000 0.0000 22.4147
#
#
#
# Elastic Compliance Matrix: (Units=1/GPa)
#
#
# Indices 1 2 3 4 5 6 
#
# 1 0.017316 -0.004991 -0.004196 0.000000 0.000000 0.000000
# 2 -0.004991 0.017316 -0.004196 0.000000 0.000000 0.000000
# 3 -0.004196 -0.004196 0.018493 0.000000 0.000000 0.000000
# 4 0.000000 0.000000 0.000000 0.051212 0.000000 0.000000
# 5 0.000000 0.000000 0.000000 0.000000 0.051212 0.000000
# 6 0.000000 0.000000 0.000000 0.000000 0.000000 0.044614
#
#
# Mechanical properties :
#
#
# Convention : Reuss Voigt Hill
#
# Bulk Modulus (GPa) = 37.94044 38.11049 38.02546
# Shear Modulus (GPa) = 21.21211 21.33580 21.27396
#
# Velocity S-wave (km/s) = 3.54305 3.55337 3.54821
# Velocity P-wave (km/s) = 6.26023 6.27605 6.26815
#
# Compressibility (1/GPa) = 0.02635710
#
# Stress axis : x y z
#
# Youngs Moduli (GPa) = 57.75048 57.75048 54.07525
#
# Poissons Ratio (x) = 0.28823 0.22692
# Poissons Ratio (y) = 0.28823 0.22692
# Poissons Ratio (z) = 0.24234 0.24234
#
# Static dielectric constant tensor:
#      x y z
#    x 3.175410 0.000000 0.000000 
#    y 0.000000 3.175410 0.000000 
#    z 0.000000 0.000000 3.090100 
# 
# 
# High freq. dielectric constant tensor:
#      x y z
#    x 1.643380 0.000000 0.000000 
#    y 0.000000 1.643380 0.000000 
#    z 0.000000 0.000000 1.633060 
# 
# From -- ./inp_files/7196.got.cif
#   From: 2010.03.12/outbox.cif.g09.slc.cpg/sg194_4_cif.got.tgz:7196.got - 2010.04.01 12:26:19.
