data_PCOD8330942
_publ_section_title
;
Structure prediction by ZEFSAII (Michael W. Deem and Ramdas Pophale) SiO2 
 PCOD8330942
Probable space group: I M 3
;
_chemical_formula_sum "Si O2"
_cell_formula_units_Z 224
_cell_length_a 23.189155
_cell_length_b 23.189155
_cell_length_c 23.189155
_cell_angle_alpha 90.000000
_cell_angle_beta 90.000000
_cell_angle_gamma 90.000000
_cell_volume 12469.664546
_symmetry_space_group_name_H-M "I M 3"
_symmetry_group_IT_number 204
_symmetry_cell_setting 'cubic'
loop_
_space_group_symop_operation_xyz
x,y,z
z,x,y
y,z,x
-y,-z,x
z,-x,-y
-y,z,-x
-z,-x,y
-z,x,-y
y,-z,-x
-x,-y,z
x,-y,-z
-x,y,-z
-x,-y,-z
-z,-x,-y
-y,-z,-x
y,z,-x
-z,x,y
y,-z,x
z,x,-y
z,-x,y
-y,z,x
x,y,-z
-x,y,z
x,-y,z
1/2+x,1/2+y,1/2+z
1/2+z,1/2+x,1/2+y
1/2+y,1/2+z,1/2+x
1/2-y,1/2-z,1/2+x
1/2+z,1/2-x,1/2-y
1/2-y,1/2+z,1/2-x
1/2-z,1/2-x,1/2+y
1/2-z,1/2+x,1/2-y
1/2+y,1/2-z,1/2-x
1/2-x,1/2-y,1/2+z
1/2+x,1/2-y,1/2-z
1/2-x,1/2+y,1/2-z
1/2-x,1/2-y,1/2-z
1/2-z,1/2-x,1/2-y
1/2-y,1/2-z,1/2-x
1/2+y,1/2+z,1/2-x
1/2-z,1/2+x,1/2+y
1/2+y,1/2-z,1/2+x
1/2+z,1/2+x,1/2-y
1/2+z,1/2-x,1/2+y
1/2-y,1/2+z,1/2+x
1/2+x,1/2+y,1/2-z
1/2-x,1/2+y,1/2+z
1/2+x,1/2-y,1/2+z
loop_
_atom_site_type_symbol
_atom_site_label
_atom_site_fract_x
_atom_site_fract_y
_atom_site_fract_z
Si Si1 0.431617 0.780914 0.000000
Si Si2 0.500000 0.931439 0.853150
Si Si3 0.107809 0.107809 0.107809
Si Si4 0.408608 0.108736 0.371807
Si Si5 0.181726 0.932174 0.000000
Si Si6 0.686994 0.068183 0.000000
Si Si7 0.685236 0.182826 0.316825
Si Si8 0.685214 0.685213 0.314788
O O1 0.410140 0.714016 0.000000
O O2 0.408602 0.814099 0.943437
O O3 0.500000 0.783084 0.000000
O O4 0.554046 0.908668 0.889330
O O5 0.500000 0.000000 0.854825
O O6 0.146642 0.146642 0.146642
O O7 0.055052 0.146278 0.087562
O O8 0.444180 0.152689 0.410933
O O9 0.350368 0.141125 0.356838
O O10 0.247229 0.906860 0.000000
O O11 0.185983 0.000000 0.000000
O O12 0.688577 0.000000 0.000000
O O13 0.669908 0.169088 0.251175
O O14 0.671152 0.249000 0.330074
#
# Coordination Sequence:
#
# PCOD8330942 Si02
#       8
#    24  24  16  48  24  24  48  16
#     4  10  21  37  52  82 114 142 191 240 279 332
#     4  11  23  36  59  84 111 151 193 235 282 334
#     4  12  21  37  59  79 114 147 196 233 280 348
#     4  11  20  37  58  80 113 150 189 229 289 337
#     4  11  23  38  56  84 110 149 188 234 283 323
#     4  10  23  38  56  79 114 146 184 231 278 331
#     4   9  18  34  57  84 112 145 184 232 287 344
#     4   9  19  34  57  85 112 147 187 230 289 351
#
# _framework density 17.963594000000001
#
# number of rings (size 3 to 8) (size 9 to 14) (size 15 to 20)
#    0.000    1.714    2.143    4.071    0.000    0.000 
#    0.000    2.143    0.000    0.000    0.000    0.000 
#    0.000    0.000    0.000    0.000    0.000    0.000 
#
# Total GULP energy -1388642.535667 kJ/mol
# GULP energy per Si atom -12398.594068 kJ/mol
# Density = 1.792271 g / cm^3
# Si number density = 17.963594 Si / 1000 Ang^3
#
#
#
# Elastic Constant Matrix: (Units=GPa)
#
#
# Indices 1 2 3 4 5 6 
#
# 1 56.8518 82.6674 82.6483 0.0000 0.0000 0.0000
# 2 82.6674 56.8597 82.6325 0.0000 0.0000 0.0000
# 3 82.6483 82.6325 56.8761 0.0000 0.0000 0.0000
# 4 0.0000 0.0000 0.0000 22.0489 0.0000 0.0000
# 5 0.0000 0.0000 0.0000 0.0000 22.0466 0.0000
# 6 0.0000 0.0000 0.0000 0.0000 0.0000 22.0473
#
#
#
# Elastic Compliance Matrix: (Units=1/GPa)
#
#
# Indices 1 2 3 4 5 6 
#
# 1 -0.024330 0.014402 0.014430 0.000000 0.000000 0.000000
# 2 0.014402 -0.024350 0.014449 0.000000 0.000000 0.000000
# 3 0.014430 0.014449 -0.024378 0.000000 0.000000 0.000000
# 4 0.000000 0.000000 0.000000 0.045354 0.000000 0.000000
# 5 0.000000 0.000000 0.000000 0.000000 0.045359 0.000000
# 6 0.000000 0.000000 0.000000 0.000000 0.000000 0.045357
#
#
# Mechanical properties :
#
#
# Convention : Reuss Voigt Hill
#
# Bulk Modulus (GPa) = 74.05379 74.05379 74.05379
# Shear Modulus (GPa) = -262.48631 8.07118 -127.20757
#
# Velocity S-wave (km/s) = -12.10118 2.12199 -8.42424
# Velocity P-wave (km/s) = 12.40715 6.87878 7.30136
#
# Compressibility (1/GPa) = 0.01350370
#
# Stress axis : x y z
#
# Youngs Moduli (GPa) = -41.10223 -41.06735 -41.02074
#
# Poissons Ratio (x) = 0.59147 0.59191
# Poissons Ratio (y) = 0.59197 0.59270
# Poissons Ratio (z) = 0.59309 0.59338
#
# Static dielectric constant tensor:
#      x y z
#    x 3.346880 0.000000 0.000000 
#    y 0.000000 3.346910 0.000000 
#    z 0.000000 0.000000 3.346940 
# 
# 
# High freq. dielectric constant tensor:
#      x y z
#    x 1.703910 0.000000 0.000000 
#    y 0.000000 1.703910 0.000000 
#    z 0.000000 0.000000 1.703910 
# 
# From -- ./inp_files/602.got.cif
#   From: 2010.03.12/outbox.cif.g09.slc.cpg/sg204_cif.got.tgz:602.got - 2010.03.30 09:02:39.
