data_PCOD8330826
_publ_section_title
;
Structure prediction by ZEFSAII (Michael W. Deem and Ramdas Pophale) SiO2 
 PCOD8330826
Probable space group: P 63/M M C
;
_chemical_formula_sum "Si O2"
_cell_formula_units_Z 90
_cell_length_a 25.696784
_cell_length_b 25.696784
_cell_length_c 8.902630
_cell_angle_alpha 90.000000
_cell_angle_beta 90.000000
_cell_angle_gamma 120.000000
_cell_volume 5091.039936
_symmetry_space_group_name_H-M "P 63/M M C"
_symmetry_group_IT_number 194
_symmetry_cell_setting 'hexagonal'
loop_
_space_group_symop_operation_xyz
x,y,z
x-y,x,1/2+z
-y,x-y,z
-x,-y,1/2+z
-x+y,-x,z
y,-x+y,1/2+z
x-y,-y,-z
-x,-x+y,-z
y,x,-z
-y,-x,1/2-z
-x+y,y,1/2-z
x,x-y,1/2-z
-x,-y,-z
-x+y,-x,1/2-z
y,-x+y,-z
x,y,1/2-z
x-y,x,-z
-y,x-y,1/2-z
-x+y,y,z
x,x-y,z
-y,-x,z
y,x,1/2+z
x-y,-y,1/2+z
-x,-x+y,1/2+z
loop_
_atom_site_type_symbol
_atom_site_label
_atom_site_fract_x
_atom_site_fract_y
_atom_site_fract_z
Si Si1 0.175250 0.941565 0.418480
Si Si2 0.633338 0.873589 0.071241
Si Si3 0.372673 0.627328 0.750000
Si Si4 0.066078 0.623836 0.070255
Si Si5 0.136067 0.568034 0.582966
O O1 0.198092 0.959394 0.250000
O O2 0.104927 0.895073 0.426614
O O3 0.213343 0.913867 0.493756
O O4 0.184303 0.000000 0.500000
O O5 0.635014 0.874409 0.250000
O O6 0.607871 0.803936 0.017932
O O7 0.595752 0.903599 0.011586
O O8 0.401355 0.700678 0.750000
O O9 0.395152 0.604849 0.603437
O O10 0.060808 0.617868 0.250000
O O11 0.113230 0.605576 0.010565
O O12 0.000000 0.583242 0.000000
O O13 0.106497 0.553248 0.750000
#
# Coordination Sequence:
#
# PCOD8330826 Si02
#       5
#    24  24   6  24  12
#     4   9  17  30  48  70  98 131 167 206 253 307
#     4   8  16  31  50  75 105 141 179 220 270 314
#     4   8  20  44  68  86 104 142 182 242 300 350
#     4  11  21  34  55  82 118 152 188 230 277 336
#     4  10  22  38  59  81 107 139 187 221 283 343
#
# _framework density 17.678117
#
# number of rings (size 3 to 8) (size 9 to 14) (size 15 to 20)
#    0.533    2.133    0.000    4.000    0.000    1.600 
#    0.000    1.333    0.000    5.867    0.000    0.000 
#    0.000    0.000    0.000    0.000    0.000    0.000 
#
# Total GULP energy -1114952.301968 kJ/mol
# GULP energy per Si atom -12388.358911 kJ/mol
# Density = 1.763788 g / cm^3
# Si number density = 17.678117 Si / 1000 Ang^3
#
#
#
# Elastic Constant Matrix: (Units=GPa)
#
#
# Indices 1 2 3 4 5 6 
#
# 1 115.1591 67.1279 39.3158 0.0000 0.0000 0.0000
# 2 67.1279 115.1591 39.3158 0.0000 0.0000 0.0000
# 3 39.3158 39.3158 59.0401 0.0000 0.0000 0.0000
# 4 0.0000 0.0000 0.0000 21.2667 0.0000 0.0000
# 5 0.0000 0.0000 0.0000 0.0000 21.2667 0.0000
# 6 0.0000 0.0000 0.0000 0.0000 0.0000 24.0156
#
#
#
# Elastic Compliance Matrix: (Units=1/GPa)
#
#
# Indices 1 2 3 4 5 6 
#
# 1 0.014258 -0.006562 -0.005125 0.000000 0.000000 0.000000
# 2 -0.006562 0.014258 -0.005125 0.000000 0.000000 0.000000
# 3 -0.005125 -0.005125 0.023764 0.000000 0.000000 0.000000
# 4 0.000000 0.000000 0.000000 0.047022 0.000000 0.000000
# 5 0.000000 0.000000 0.000000 0.000000 0.047022 0.000000
# 6 0.000000 0.000000 0.000000 0.000000 0.000000 0.041640
#
#
# Mechanical properties :
#
#
# Convention : Reuss Voigt Hill
#
# Bulk Modulus (GPa) = 53.60280 64.54191 59.07235
# Shear Modulus (GPa) = 21.94839 22.88303 22.41571
#
# Velocity S-wave (km/s) = 3.52740 3.60172 3.56475
# Velocity P-wave (km/s) = 6.85401 7.34066 7.10150
#
# Compressibility (1/GPa) = 0.01865574
#
# Stress axis : x y z
#
# Youngs Moduli (GPa) = 70.13465 70.13465 42.08079
#
# Poissons Ratio (x) = 0.46019 0.21568
# Poissons Ratio (y) = 0.46019 0.21568
# Poissons Ratio (z) = 0.35947 0.35947
#
# Static dielectric constant tensor:
#      x y z
#    x 3.403080 0.000000 0.000000 
#    y 0.000000 3.403080 0.000000 
#    z 0.000000 0.000000 3.032520 
# 
# 
# High freq. dielectric constant tensor:
#      x y z
#    x 1.684210 0.000000 0.000000 
#    y 0.000000 1.684210 0.000000 
#    z 0.000000 0.000000 1.658540 
# 
# From -- ./inp_files/1455.got.cif
#   From: 2010.03.12/outbox.cif.g09.slc.cpg/sg194_1_cif.got.tgz:1455.got - 2010.04.01 12:26:19.
