data_PCOD8330898
_publ_section_title
;
Structure prediction by ZEFSAII (Michael W. Deem and Ramdas Pophale) SiO2 
 PCOD8330898
Probable space group: P 21 3
;
_chemical_formula_sum "Si O2"
_cell_formula_units_Z 64
_cell_length_a 14.346207
_cell_length_b 14.346207
_cell_length_c 14.346207
_cell_angle_alpha 90.000000
_cell_angle_beta 90.000000
_cell_angle_gamma 90.000000
_cell_volume 2952.645302
_symmetry_space_group_name_H-M "P 21 3"
_symmetry_group_IT_number 198
_symmetry_cell_setting 'cubic'
loop_
_space_group_symop_operation_xyz
x,y,z
z,x,y
y,z,x
1/2-y,-z,1/2+x
1/2+z,1/2-x,-y
-y,1/2+z,1/2-x
1/2-z,-x,1/2+y
-z,1/2+x,1/2-y
1/2+y,1/2-z,-x
1/2-x,-y,1/2+z
1/2+x,1/2-y,-z
-x,1/2+y,1/2-z
loop_
_atom_site_type_symbol
_atom_site_label
_atom_site_fract_x
_atom_site_fract_y
_atom_site_fract_z
Si Si1 0.654329 0.345673 0.845673
Si Si2 0.601784 0.675776 0.084176
Si Si3 0.809055 0.755142 0.532425
Si Si4 0.188409 0.311593 0.688409
Si Si5 0.953753 0.765109 0.056068
Si Si6 0.287829 0.821489 0.031566
Si Si7 0.282580 0.282580 0.282581
Si Si8 0.314550 0.185452 0.814550
O O1 0.696327 0.448726 0.853058
O O2 0.718665 0.281336 0.781336
O O3 0.557043 0.581885 0.126727
O O4 0.626513 0.728071 0.181414
O O5 0.532346 0.737629 0.023398
O O6 0.695378 0.657159 0.026285
O O7 0.752845 0.843830 0.497331
O O8 0.890702 0.794020 0.598541
O O9 0.733121 0.687785 0.583418
O O10 0.081283 0.292989 0.718808
O O11 0.251344 0.248658 0.751344
O O12 0.878962 0.682133 0.034819
#
# Coordination Sequence:
#
# PCOD8330898 Si02
#       8
#     4  12  12   4  12  12   4   4
#     4  12  24  51  72 100 140 199 228 285 355 428
#     4  12  24  43  71 100 140 182 235 295 347 423
#     4  11  25  45  71  98 144 187 235 285 359 423
#     4   9  18  39  63  94 143 184 225 285 363 397
#     4  12  25  41  70 104 139 185 238 290 353 423
#     4  11  23  42  66 101 141 181 234 298 348 420
#     4  12  24  48  72  97 140 190 222 282 376 407
#     4   9  21  45  69 100 131 190 231 288 345 421
#
# _framework density 21.675478999999999
#
# number of rings (size 3 to 8) (size 9 to 14) (size 15 to 20)
#    0.000    0.750    3.750    4.875    2.625    3.000 
#    1.125    0.000    0.000    0.000    0.000    0.000 
#    0.000    0.000    0.000    0.000    0.000    0.000 
#
# Total GULP energy -793466.618446 kJ/mol
# GULP energy per Si atom -12397.915913 kJ/mol
# Density = 2.162614 g / cm^3
# Si number density = 21.675479 Si / 1000 Ang^3
#
#
#
# Elastic Constant Matrix: (Units=GPa)
#
#
# Indices 1 2 3 4 5 6 
#
# 1 101.9028 33.8525 33.8517 0.0000 0.0000 0.0000
# 2 33.8525 101.9028 33.8514 0.0000 0.0000 0.0000
# 3 33.8517 33.8514 101.9012 0.0000 0.0000 0.0000
# 4 0.0000 0.0000 0.0000 31.9529 0.0000 0.0000
# 5 0.0000 0.0000 0.0000 0.0000 31.9530 0.0000
# 6 0.0000 0.0000 0.0000 0.0000 0.0000 31.9554
#
#
#
# Elastic Compliance Matrix: (Units=1/GPa)
#
#
# Indices 1 2 3 4 5 6 
#
# 1 0.011762 -0.002933 -0.002933 0.000000 0.000000 0.000000
# 2 -0.002933 0.011762 -0.002933 0.000000 0.000000 0.000000
# 3 -0.002933 -0.002933 0.011762 0.000000 0.000000 0.000000
# 4 0.000000 0.000000 0.000000 0.031296 0.000000 0.000000
# 5 0.000000 0.000000 0.000000 0.000000 0.031296 0.000000
# 6 0.000000 0.000000 0.000000 0.000000 0.000000 0.031294
#
#
# Mechanical properties :
#
#
# Convention : Reuss Voigt Hill
#
# Bulk Modulus (GPa) = 56.53535 56.53535 56.53535
# Shear Modulus (GPa) = 32.75131 32.78233 32.76682
#
# Velocity S-wave (km/s) = 3.89136 3.89320 3.89228
# Velocity P-wave (km/s) = 6.80657 6.80798 6.80728
#
# Compressibility (1/GPa) = 0.01768805
#
# Stress axis : x y z
#
# Youngs Moduli (GPa) = 85.01978 85.01997 85.01900
#
# Poissons Ratio (x) = 0.24937 0.24936
# Poissons Ratio (y) = 0.24937 0.24935
# Poissons Ratio (z) = 0.24936 0.24936
#
# Static dielectric constant tensor:
#      x y z
#    x 4.223450 0.000000 0.000000 
#    y 0.000000 4.223450 0.000000 
#    z 0.000000 0.000000 4.223440 
# 
# 
# High freq. dielectric constant tensor:
#      x y z
#    x 1.854380 0.000000 0.000000 
#    y 0.000000 1.854380 0.000000 
#    z 0.000000 0.000000 1.854380 
# 
# From -- ./inp_files/383.got.cif
#   From: 2010.03.12/outbox.cif.g09.slc.cpg/sg198_cif.got.tgz:383.got - 2010.04.01 12:33:50.
