data_PCOD8330489
_publ_section_title
;
Structure prediction by ZEFSAII (Michael W. Deem and Ramdas Pophale) SiO2 
 PCOD8330489
Probable space group: P 63/M M C
;
_chemical_formula_sum "Si O2"
_cell_formula_units_Z 120
_cell_length_a 17.294793
_cell_length_b 17.294793
_cell_length_c 30.988661
_cell_angle_alpha 90.000000
_cell_angle_beta 90.000000
_cell_angle_gamma 120.000000
_cell_volume 8027.201770
_symmetry_space_group_name_H-M "P 63/M M C"
_symmetry_group_IT_number 194
_symmetry_cell_setting 'hexagonal'
loop_
_space_group_symop_operation_xyz
x,y,z
x-y,x,1/2+z
-y,x-y,z
-x,-y,1/2+z
-x+y,-x,z
y,-x+y,1/2+z
x-y,-y,-z
-x,-x+y,-z
y,x,-z
-y,-x,1/2-z
-x+y,y,1/2-z
x,x-y,1/2-z
-x,-y,-z
-x+y,-x,1/2-z
y,-x+y,-z
x,y,1/2-z
x-y,x,-z
-y,x-y,1/2-z
-x+y,y,z
x,x-y,z
-y,-x,z
y,x,1/2+z
x-y,-y,1/2+z
-x,-x+y,1/2+z
loop_
_atom_site_type_symbol
_atom_site_label
_atom_site_fract_x
_atom_site_fract_y
_atom_site_fract_z
Si Si1 0.491679 0.333712 0.568737
Si Si2 0.999400 0.182458 0.124028
Si Si3 0.242694 0.302059 0.201926
Si Si4 0.942396 0.240216 0.957787
Si Si5 0.666259 0.508909 0.829158
O O1 0.512990 0.256495 0.554912
O O2 0.572037 0.427964 0.552238
O O3 0.400466 0.317864 0.547111
O O4 0.480191 0.332571 0.619760
O O5 0.913939 0.086062 0.120279
O O6 0.085296 0.170592 0.125042
O O7 0.992084 0.230306 0.167539
O O8 0.001998 0.241870 0.083640
O O9 0.253955 0.272802 0.250000
O O10 0.153187 0.306373 0.197401
O O11 0.323807 0.401384 0.191955
O O12 0.854183 0.145818 0.962155
O O13 0.000000 0.256291 0.000000
O O14 0.745942 0.491884 0.814478
O O15 0.573713 0.426288 0.812759
#
# Coordination Sequence:
#
# PCOD8330489 Si02
#       5
#    24  24  24  24  24
#     4   9  16  27  44  65  89 116 146 176 206 245
#     4  10  19  32  47  63  82 108 143 182 221 260
#     4   9  17  29  43  60  85 114 142 174 212 250
#     4  10  19  31  46  65  88 114 143 178 219 261
#     4   9  15  25  41  63  89 118 148 175 203 242
#
# _framework density 14.949168999999999
#
# number of rings (size 3 to 8) (size 9 to 14) (size 15 to 20)
#    0.000    2.600    2.000    1.200    0.000    2.800 
#    0.000    0.000    0.000    5.600    0.000    0.000 
#    0.000    0.000    0.000    2.800    0.000    5.200 
#
# Total GULP energy -1487757.920276 kJ/mol
# GULP energy per Si atom -12397.982669 kJ/mol
# Density = 1.491514 g / cm^3
# Si number density = 14.949169 Si / 1000 Ang^3
#
#
#
# Elastic Constant Matrix: (Units=GPa)
#
#
# Indices 1 2 3 4 5 6 
#
# 1 65.8871 30.4272 38.9383 0.0000 0.0000 0.0000
# 2 30.4272 65.8871 38.9383 0.0000 0.0000 0.0000
# 3 38.9383 38.9383 90.2212 0.0000 0.0000 0.0000
# 4 0.0000 0.0000 0.0000 18.9768 0.0000 0.0000
# 5 0.0000 0.0000 0.0000 0.0000 18.9768 0.0000
# 6 0.0000 0.0000 0.0000 0.0000 0.0000 17.7300
#
#
#
# Elastic Compliance Matrix: (Units=1/GPa)
#
#
# Indices 1 2 3 4 5 6 
#
# 1 0.022074 -0.006126 -0.006883 0.000000 0.000000 0.000000
# 2 -0.006126 0.022074 -0.006883 0.000000 0.000000 0.000000
# 3 -0.006883 -0.006883 0.017025 0.000000 0.000000 0.000000
# 4 0.000000 0.000000 0.000000 0.052696 0.000000 0.000000
# 5 0.000000 0.000000 0.000000 0.000000 0.052696 0.000000
# 6 0.000000 0.000000 0.000000 0.000000 0.000000 0.056402
#
#
# Mechanical properties :
#
#
# Convention : Reuss Voigt Hill
#
# Bulk Modulus (GPa) = 46.75245 48.73366 47.74306
# Shear Modulus (GPa) = 18.52663 18.71616 18.62139
#
# Velocity S-wave (km/s) = 3.52420 3.54218 3.53320
# Velocity P-wave (km/s) = 6.92114 7.02850 6.97502
#
# Compressibility (1/GPa) = 0.02138925
#
# Stress axis : x y z
#
# Youngs Moduli (GPa) = 45.30131 45.30131 58.73703
#
# Poissons Ratio (x) = 0.27754 0.40428
# Poissons Ratio (y) = 0.27754 0.40428
# Poissons Ratio (z) = 0.31181 0.31181
#
# Static dielectric constant tensor:
#      x y z
#    x 2.790130 0.000000 0.000000 
#    y 0.000000 2.790130 0.000000 
#    z 0.000000 0.000000 2.970350 
# 
# 
# High freq. dielectric constant tensor:
#      x y z
#    x 1.554980 0.000000 0.000000 
#    y 0.000000 1.554980 0.000000 
#    z 0.000000 0.000000 1.570390 
# 
# From -- ./inp_files/11847.got.cif
#   From: 2010.03.12/outbox.cif.g09.slc.cpg/sg194_6_cif.got.tgz:11847.got - 2010.04.01 12:26:19.
