data_PCOD8330477
_publ_section_title
;
Structure prediction by ZEFSAII (Michael W. Deem and Ramdas Pophale) SiO2 
 PCOD8330477
Probable space group: P 63/M M C
;
_chemical_formula_sum "Si O2"
_cell_formula_units_Z 168
_cell_length_a 22.367337
_cell_length_b 22.367337
_cell_length_c 23.256943
_cell_angle_alpha 90.000000
_cell_angle_beta 90.000000
_cell_angle_gamma 120.000000
_cell_volume 10076.549031
_symmetry_space_group_name_H-M "P 63/M M C"
_symmetry_group_IT_number 194
_symmetry_cell_setting 'hexagonal'
loop_
_space_group_symop_operation_xyz
x,y,z
x-y,x,1/2+z
-y,x-y,z
-x,-y,1/2+z
-x+y,-x,z
y,-x+y,1/2+z
x-y,-y,-z
-x,-x+y,-z
y,x,-z
-y,-x,1/2-z
-x+y,y,1/2-z
x,x-y,1/2-z
-x,-y,-z
-x+y,-x,1/2-z
y,-x+y,-z
x,y,1/2-z
x-y,x,-z
-y,x-y,1/2-z
-x+y,y,z
x,x-y,z
-y,-x,z
y,x,1/2+z
x-y,-y,1/2+z
-x,-x+y,1/2+z
loop_
_atom_site_type_symbol
_atom_site_label
_atom_site_fract_x
_atom_site_fract_y
_atom_site_fract_z
Si Si1 0.611874 0.684957 0.009051
Si Si2 0.666333 0.200349 0.644336
Si Si3 0.758052 0.008850 0.684945
Si Si4 0.261198 0.877249 0.366944
Si Si5 0.717081 0.926253 0.920582
Si Si6 0.532605 0.199033 0.992653
Si Si7 0.136729 0.137121 0.113826
O O1 0.627739 0.707472 0.075114
O O2 0.614206 0.614206 0.000000
O O3 0.675144 0.742872 0.972825
O O4 0.538840 0.672616 0.986511
O O5 0.591927 0.183853 0.669018
O O6 0.724573 0.275428 0.667225
O O7 0.684340 0.141403 0.663327
O O8 0.665447 0.201038 0.575695
O O9 0.737104 0.982963 0.750000
O O10 0.758581 0.080852 0.677339
O O11 0.833983 0.018794 0.671366
O O12 0.702214 0.952510 0.640443
O O13 0.193999 0.806002 0.385180
O O14 0.693482 0.846741 0.912137
O O15 0.800468 0.972471 0.932921
O O16 0.596537 0.193073 0.017978
O O17 0.536938 0.268469 0.016984
O O18 0.068655 0.137309 0.090884
O O19 0.117688 0.058844 0.127817
#
# Coordination Sequence:
#
# PCOD8330477 Si02
#       7
#    24  24  24  24  24  24  24
#     4  11  18  31  49  72 100 130 160 194 234 286
#     4   8  14  25  43  68  96 126 158 192 232 276
#     4  10  20  33  48  66  89 121 158 195 240 284
#     4  10  19  30  47  71  96 124 159 197 234 281
#     4   9  19  33  49  68  90 121 157 196 240 286
#     4   9  17  28  45  69 100 134 164 197 236 285
#     4   9  18  31  48  69  90 115 148 191 240 285
#
# _framework density 16.672374999999999
#
# number of rings (size 3 to 8) (size 9 to 14) (size 15 to 20)
#    0.857    1.714    1.429    3.000    0.000    3.714 
#    0.000    0.000    0.000    1.286    0.000    0.000 
#    0.000   17.714    0.000    0.286    0.000    2.857 
#
# Total GULP energy -2081347.351256 kJ/mol
# GULP energy per Si atom -12388.972329 kJ/mol
# Density = 1.663443 g / cm^3
# Si number density = 16.672375 Si / 1000 Ang^3
#
#
#
# Elastic Constant Matrix: (Units=GPa)
#
#
# Indices 1 2 3 4 5 6 
#
# 1 113.6445 52.9373 17.8753 0.0000 0.0000 0.0000
# 2 52.9373 113.6445 17.8753 0.0000 0.0000 0.0000
# 3 17.8753 17.8753 29.0946 0.0000 0.0000 0.0000
# 4 0.0000 0.0000 0.0000 5.1220 0.0000 0.0000
# 5 0.0000 0.0000 0.0000 0.0000 5.1220 0.0000
# 6 0.0000 0.0000 0.0000 0.0000 0.0000 30.3536
#
#
#
# Elastic Compliance Matrix: (Units=1/GPa)
#
#
# Indices 1 2 3 4 5 6 
#
# 1 0.011694 -0.004779 -0.004248 0.000000 0.000000 0.000000
# 2 -0.004779 0.011694 -0.004248 0.000000 0.000000 0.000000
# 3 -0.004248 -0.004248 0.039591 0.000000 0.000000 0.000000
# 4 0.000000 0.000000 0.000000 0.195238 0.000000 0.000000
# 5 0.000000 0.000000 0.000000 0.000000 0.195238 0.000000
# 6 0.000000 0.000000 0.000000 0.000000 0.000000 0.032945
#
#
# Mechanical properties :
#
#
# Convention : Reuss Voigt Hill
#
# Bulk Modulus (GPa) = 27.45207 48.19548 37.82378
# Shear Modulus (GPa) = 9.52213 19.29922 14.41068
#
# Velocity S-wave (km/s) = 2.39243 3.40598 2.94316
# Velocity P-wave (km/s) = 4.91253 6.66616 5.85537
#
# Compressibility (1/GPa) = 0.03642712
#
# Stress axis : x y z
#
# Youngs Moduli (GPa) = 85.51646 85.51646 25.25832
#
# Poissons Ratio (x) = 0.40867 0.10731
# Poissons Ratio (y) = 0.40867 0.10731
# Poissons Ratio (z) = 0.36330 0.36330
#
# Static dielectric constant tensor:
#      x y z
#    x 3.329750 0.000000 0.000000 
#    y 0.000000 3.329750 0.000000 
#    z 0.000000 0.000000 2.610800 
# 
# 
# High freq. dielectric constant tensor:
#      x y z
#    x 1.642790 0.000000 0.000000 
#    y 0.000000 1.642790 0.000000 
#    z 0.000000 0.000000 1.590030 
# 
# From -- ./inp_files/10070.got.cif
#   From: 2010.03.12/outbox.cif.g09.slc.cpg/sg194_6_cif.got.tgz:10070.got - 2010.04.01 12:26:19.
