data_PCOD8330070
_publ_section_title
;
Structure prediction by ZEFSAII (Michael W. Deem and Ramdas Pophale) SiO2 
 PCOD8330070
Probable space group: P 63/M C M
;
_chemical_formula_sum "Si O2"
_cell_formula_units_Z 132
_cell_length_a 24.517745
_cell_length_b 24.517745
_cell_length_c 14.303833
_cell_angle_alpha 90.000000
_cell_angle_beta 90.000000
_cell_angle_gamma 120.000000
_cell_volume 7446.361399
_symmetry_space_group_name_H-M "P 63/M C M"
_symmetry_group_IT_number 193
_symmetry_cell_setting 'hexagonal'
loop_
_space_group_symop_operation_xyz
x,y,z
x-y,x,1/2+z
-y,x-y,z
-x,-y,1/2+z
-x+y,-x,z
y,-x+y,1/2+z
x-y,-y,1/2-z
-x,-x+y,1/2-z
y,x,1/2-z
-y,-x,-z
-x+y,y,-z
x,x-y,-z
-x,-y,-z
-x+y,-x,1/2-z
y,-x+y,-z
x,y,1/2-z
x-y,x,-z
-y,x-y,1/2-z
-x+y,y,1/2+z
x,x-y,1/2+z
-y,-x,1/2+z
y,x,z
x-y,-y,z
-x,-x+y,z
loop_
_atom_site_type_symbol
_atom_site_label
_atom_site_fract_x
_atom_site_fract_y
_atom_site_fract_z
Si Si1 0.130882 0.771799 0.356041
Si Si2 0.150796 0.927652 0.920732
Si Si3 0.817027 0.468940 0.022601
Si Si4 0.628893 0.556313 0.858159
Si Si5 0.929317 0.855689 0.250000
Si Si6 0.484257 0.227452 0.140207
O O1 0.118572 0.783226 0.250000
O O2 0.112256 0.813463 0.418967
O O3 0.086164 0.698715 0.381542
O O4 0.203818 0.792533 0.371901
O O5 0.107587 0.917046 0.833725
O O6 0.202687 0.000000 0.937200
O O7 0.098954 0.901047 0.000000
O O8 0.885888 0.499413 0.070742
O O9 0.769751 0.472227 0.098312
O O10 0.792635 0.396318 0.000000
O O11 0.819733 0.503761 0.924187
O O12 0.626194 0.534875 0.750000
O O13 0.578793 0.578793 0.876553
O O14 0.880093 0.880093 0.250000
O O15 0.000000 0.915308 0.250000
O O16 0.500611 0.225342 0.250000
#
# Coordination Sequence:
#
# PCOD8330070 Si02
#       6
#    24  24  24  24  12  24
#     4   9  17  33  55  79 103 134 177 224 270 323
#     4  11  22  33  51  78 107 137 175 224 276 324
#     4  10  20  34  55  81 110 139 183 223 261 322
#     4   9  18  32  53  80 109 139 179 222 268 318
#     4  10  21  38  54  72 102 142 184 224 272 330
#     4   9  20  37  56  78 108 146 180 220 279 328
#
# _framework density 17.726779000000001
#
# number of rings (size 3 to 8) (size 9 to 14) (size 15 to 20)
#    0.000    2.364    0.909    2.818    5.091    2.545 
#    4.364    0.000    0.000    3.455    0.000    0.000 
#    0.000    0.000    0.000    0.000    0.000    0.000 
#
# Total GULP energy -1636221.631937 kJ/mol
# GULP energy per Si atom -12395.618424 kJ/mol
# Density = 1.768643 g / cm^3
# Si number density = 17.726779 Si / 1000 Ang^3
#
#
#
# Elastic Constant Matrix: (Units=GPa)
#
#
# Indices 1 2 3 4 5 6 
#
# 1 109.3330 7.4311 40.7164 0.0000 0.0000 0.0000
# 2 7.4311 109.3330 40.7164 0.0000 0.0000 0.0000
# 3 40.7164 40.7164 119.9710 0.0000 0.0000 0.0000
# 4 0.0000 0.0000 0.0000 29.4305 0.0000 0.0000
# 5 0.0000 0.0000 0.0000 0.0000 29.4305 0.0000
# 6 0.0000 0.0000 0.0000 0.0000 0.0000 50.9509
#
#
#
# Elastic Compliance Matrix: (Units=1/GPa)
#
#
# Indices 1 2 3 4 5 6 
#
# 1 0.010517 0.000703 -0.003808 0.000000 0.000000 0.000000
# 2 0.000703 0.010517 -0.003808 0.000000 0.000000 0.000000
# 3 -0.003808 -0.003808 0.010920 0.000000 0.000000 0.000000
# 4 0.000000 0.000000 0.000000 0.033978 0.000000 0.000000
# 5 0.000000 0.000000 0.000000 0.000000 0.033978 0.000000
# 6 0.000000 0.000000 0.000000 0.000000 0.000000 0.019627
#
#
# Mechanical properties :
#
#
# Convention : Reuss Voigt Hill
#
# Bulk Modulus (GPa) = 55.16214 57.37388 56.26801
# Shear Modulus (GPa) = 35.86685 38.61393 37.24039
#
# Velocity S-wave (km/s) = 4.50301 4.67227 4.58842
# Velocity P-wave (km/s) = 7.63031 7.84492 7.73836
#
# Compressibility (1/GPa) = 0.01812838
#
# Stress axis : x y z
#
# Youngs Moduli (GPa) = 95.08724 95.08724 91.57483
#
# Poissons Ratio (x) = -0.06687 0.34871
# Poissons Ratio (y) = -0.06687 0.34871
# Poissons Ratio (z) = 0.36208 0.36208
#
# Static dielectric constant tensor:
#      x y z
#    x 3.172470 0.000000 0.000000 
#    y 0.000000 3.172470 0.000000 
#    z 0.000000 0.000000 3.389660 
# 
# 
# High freq. dielectric constant tensor:
#      x y z
#    x 1.673400 0.000000 0.000000 
#    y 0.000000 1.673400 0.000000 
#    z 0.000000 0.000000 1.692450 
# 
# From -- ./inp_files/4141.got.cif
#   From: 2010.03.12/outbox.cif.g09.slc.cpg/sg193_3_cif.got.tgz:4141.got - 2010.04.01 12:20:39.
