data_PCOD8330004
_publ_section_title
;
Structure prediction by ZEFSAII (Michael W. Deem and Ramdas Pophale) SiO2 
 PCOD8330004
Probable space group: P 63/M C M
;
_chemical_formula_sum "Si O2"
_cell_formula_units_Z 120
_cell_length_a 30.965816
_cell_length_b 30.965816
_cell_length_c 9.864261
_cell_angle_alpha 90.000000
_cell_angle_beta 90.000000
_cell_angle_gamma 120.000000
_cell_volume 8191.439806
_symmetry_space_group_name_H-M "P 63/M C M"
_symmetry_group_IT_number 193
_symmetry_cell_setting 'hexagonal'
loop_
_space_group_symop_operation_xyz
x,y,z
x-y,x,1/2+z
-y,x-y,z
-x,-y,1/2+z
-x+y,-x,z
y,-x+y,1/2+z
x-y,-y,1/2-z
-x,-x+y,1/2-z
y,x,1/2-z
-y,-x,-z
-x+y,y,-z
x,x-y,-z
-x,-y,-z
-x+y,-x,1/2-z
y,-x+y,-z
x,y,1/2-z
x-y,x,-z
-y,x-y,1/2-z
-x+y,y,1/2+z
x,x-y,1/2+z
-y,-x,1/2+z
y,x,z
x-y,-y,z
-x,-x+y,z
loop_
_atom_site_type_symbol
_atom_site_label
_atom_site_fract_x
_atom_site_fract_y
_atom_site_fract_z
Si Si1 0.581719 0.059351 0.250000
Si Si2 0.108886 0.816274 0.598618
Si Si3 0.245023 0.407905 0.910195
Si Si4 0.090552 0.647831 0.499866
Si Si5 0.260363 0.000000 0.402863
Si Si6 0.057093 0.478510 0.250000
Si Si7 0.340449 0.000000 0.913596
O O1 0.616319 0.091174 0.373076
O O2 0.532599 0.063094 0.250000
O O3 0.566504 0.000000 0.250000
O O4 0.136789 0.863212 0.500000
O O5 0.126256 0.836724 0.750000
O O6 0.123206 0.773701 0.566883
O O7 0.049592 0.793389 0.581809
O O8 0.243494 0.419242 0.750000
O O9 0.300390 0.441235 0.971172
O O10 0.211753 0.423505 0.000000
O O11 0.082895 0.611582 0.621599
O O12 0.047592 0.660780 0.476979
O O13 0.281822 0.000000 0.250000
O O14 0.292685 0.000000 0.528114
O O15 0.000000 0.436327 0.250000
O O16 0.339841 0.000000 0.750000
#
# Coordination Sequence:
#
# PCOD8330004 Si02
#       7
#    12  24  24  24  12  12  12
#     4  11  22  36  45  72 100 128 163 201 240 273
#     4   9  18  31  45  65  91 118 155 199 240 274
#     4  10  21  33  49  69  90 122 158 197 242 281
#     4  12  20  34  49  68  94 127 166 201 236 282
#     4  10  20  32  50  65  89 125 168 204 236 284
#     4  11  22  32  53  68  94 130 167 201 232 281
#     4  12  22  30  43  72  93 125 168 205 241 274
#
# _framework density 14.649438999999999
#
# number of rings (size 3 to 8) (size 9 to 14) (size 15 to 20)
#    0.000    1.400    6.000    0.600    2.800    2.400 
#    0.000    0.000    0.000    0.000    0.000    0.000 
#    0.000    0.000    0.000   12.300    0.000    3.600 
#
# Total GULP energy -1487337.306635 kJ/mol
# GULP energy per Si atom -12394.477555 kJ/mol
# Density = 1.461610 g / cm^3
# Si number density = 14.649439 Si / 1000 Ang^3
#
#
#
# Elastic Constant Matrix: (Units=GPa)
#
#
# Indices 1 2 3 4 5 6 
#
# 1 82.5876 36.2383 50.0377 0.0000 0.0000 0.0000
# 2 36.2383 82.5876 50.0377 0.0000 0.0000 0.0000
# 3 50.0377 50.0377 119.9204 0.0000 0.0000 0.0000
# 4 0.0000 0.0000 0.0000 25.8233 0.0000 0.0000
# 5 0.0000 0.0000 0.0000 0.0000 25.8233 0.0000
# 6 0.0000 0.0000 0.0000 0.0000 0.0000 23.1746
#
#
#
# Elastic Compliance Matrix: (Units=1/GPa)
#
#
# Indices 1 2 3 4 5 6 
#
# 1 0.017275 -0.004300 -0.005414 0.000000 0.000000 0.000000
# 2 -0.004300 0.017275 -0.005414 0.000000 0.000000 0.000000
# 3 -0.005414 -0.005414 0.012857 0.000000 0.000000 0.000000
# 4 0.000000 0.000000 0.000000 0.038725 0.000000 0.000000
# 5 0.000000 0.000000 0.000000 0.000000 0.038725 0.000000
# 6 0.000000 0.000000 0.000000 0.000000 0.000000 0.043151
#
#
# Mechanical properties :
#
#
# Convention : Reuss Voigt Hill
#
# Bulk Modulus (GPa) = 58.30396 61.96921 60.13659
# Shear Modulus (GPa) = 24.51205 24.88303 24.69754
#
# Velocity S-wave (km/s) = 4.09496 4.12584 4.11043
# Velocity P-wave (km/s) = 7.88950 8.06783 7.97916
#
# Compressibility (1/GPa) = 0.01715149
#
# Stress axis : x y z
#
# Youngs Moduli (GPa) = 57.88587 57.88587 77.77861
#
# Poissons Ratio (x) = 0.24891 0.42110
# Poissons Ratio (y) = 0.24891 0.42110
# Poissons Ratio (z) = 0.31340 0.31340
#
# Static dielectric constant tensor:
#      x y z
#    x 2.691440 0.000000 0.000000 
#    y 0.000000 2.691440 0.000000 
#    z 0.000000 0.000000 3.067620 
# 
# 
# High freq. dielectric constant tensor:
#      x y z
#    x 1.533520 0.000000 0.000000 
#    y 0.000000 1.533520 0.000000 
#    z 0.000000 0.000000 1.582900 
# 
# From -- ./inp_files/2525.got.cif
#   From: 2010.03.12/outbox.cif.g09.slc.cpg/sg193_2_cif.got.tgz:2525.got - 2010.04.01 12:20:39.
