data_PCOD8330066
_publ_section_title
;
Structure prediction by ZEFSAII (Michael W. Deem and Ramdas Pophale) SiO2 
 PCOD8330066
Probable space group: P 63/M C M
;
_chemical_formula_sum "Si O2"
_cell_formula_units_Z 144
_cell_length_a 31.022240
_cell_length_b 31.022240
_cell_length_c 8.643267
_cell_angle_alpha 90.000000
_cell_angle_beta 90.000000
_cell_angle_gamma 120.000000
_cell_volume 7203.687548
_symmetry_space_group_name_H-M "P 63/M C M"
_symmetry_group_IT_number 193
_symmetry_cell_setting 'hexagonal'
loop_
_space_group_symop_operation_xyz
x,y,z
x-y,x,1/2+z
-y,x-y,z
-x,-y,1/2+z
-x+y,-x,z
y,-x+y,1/2+z
x-y,-y,1/2-z
-x,-x+y,1/2-z
y,x,1/2-z
-y,-x,-z
-x+y,y,-z
x,x-y,-z
-x,-y,-z
-x+y,-x,1/2-z
y,-x+y,-z
x,y,1/2-z
x-y,x,-z
-y,x-y,1/2-z
-x+y,y,1/2+z
x,x-y,1/2+z
-y,-x,1/2+z
y,x,z
x-y,-y,z
-x,-x+y,z
loop_
_atom_site_type_symbol
_atom_site_label
_atom_site_fract_x
_atom_site_fract_y
_atom_site_fract_z
Si Si1 0.427148 0.482352 0.068386
Si Si2 0.614474 0.852856 0.567640
Si Si3 0.145534 0.202403 0.930121
Si Si4 0.762618 0.057104 0.069104
Si Si5 0.759321 0.333060 0.066598
Si Si6 0.670659 0.520028 0.932650
O O1 0.433814 0.487659 0.250000
O O2 0.442191 0.442191 0.005780
O O3 0.370418 0.464470 0.022385
O O4 0.463322 0.536679 0.000000
O O5 0.632488 0.816244 0.500000
O O6 0.609295 0.847229 0.750000
O O7 0.654635 0.909139 0.522086
O O8 0.561377 0.837733 0.495690
O O9 0.146855 0.214576 0.750000
O O10 0.160463 0.160463 0.960598
O O11 0.090653 0.181306 0.000000
O O12 0.182493 0.253112 0.017665
O O13 0.763168 0.067692 0.250000
O O14 0.723342 0.000000 0.027992
O O15 0.756043 0.332700 0.250000
O O16 0.720794 0.279207 0.000000
O O17 0.746064 0.373032 0.000000
O O18 0.814001 0.346392 0.013423
O O19 0.674139 0.514342 0.750000
#
# Coordination Sequence:
#
# PCOD8330066 Si02
#       6
#    24  24  24  24  24  24
#     4   9  19  36  59  86 116 150 188 232 281 333
#     4  12  25  41  60  83 115 154 195 238 286 342
#     4  10  20  34  54  81 112 146 186 233 284 339
#     4  10  21  38  60  85 114 149 189 235 286 339
#     4  12  25  43  65  91 121 153 191 236 290 347
#     4  11  23  40  61  87 119 155 196 240 288 343
#
# _framework density 19.989761999999999
#
# number of rings (size 3 to 8) (size 9 to 14) (size 15 to 20)
#    0.000    1.333    0.000    6.167    0.000    5.333 
#    0.000    1.667    0.000    0.167    0.000    0.000 
#    0.000    0.000    0.000    0.000    0.000    0.000 
#
# Total GULP energy -1786472.575174 kJ/mol
# GULP energy per Si atom -12406.059550 kJ/mol
# Density = 1.994426 g / cm^3
# Si number density = 19.989762 Si / 1000 Ang^3
#
#
#
# Elastic Constant Matrix: (Units=GPa)
#
#
# Indices 1 2 3 4 5 6 
#
# 1 93.8205 36.0394 42.7471 0.0000 0.0000 0.0000
# 2 36.0394 93.8205 42.7471 0.0000 0.0000 0.0000
# 3 42.7471 42.7471 114.2153 0.0000 0.0000 0.0000
# 4 0.0000 0.0000 0.0000 34.3485 0.0000 0.0000
# 5 0.0000 0.0000 0.0000 0.0000 34.3485 0.0000
# 6 0.0000 0.0000 0.0000 0.0000 0.0000 28.8905
#
#
#
# Elastic Compliance Matrix: (Units=1/GPa)
#
#
# Indices 1 2 3 4 5 6 
#
# 1 0.013763 -0.003544 -0.003824 0.000000 0.000000 0.000000
# 2 -0.003544 0.013763 -0.003824 0.000000 0.000000 0.000000
# 3 -0.003824 -0.003824 0.011618 0.000000 0.000000 0.000000
# 4 0.000000 0.000000 0.000000 0.029113 0.000000 0.000000
# 5 0.000000 0.000000 0.000000 0.000000 0.029113 0.000000
# 6 0.000000 0.000000 0.000000 0.000000 0.000000 0.034613
#
#
# Mechanical properties :
#
#
# Convention : Reuss Voigt Hill
#
# Bulk Modulus (GPa) = 59.67555 60.54703 60.11129
# Shear Modulus (GPa) = 31.25876 31.53902 31.39889
#
# Velocity S-wave (km/s) = 3.95870 3.97641 3.96757
# Velocity P-wave (km/s) = 7.12832 7.17197 7.15018
#
# Compressibility (1/GPa) = 0.01675728
#
# Stress axis : x y z
#
# Youngs Moduli (GPa) = 72.66082 72.66082 86.07244
#
# Poissons Ratio (x) = 0.25752 0.32918
# Poissons Ratio (y) = 0.25752 0.32918
# Poissons Ratio (z) = 0.27789 0.27789
#
# Static dielectric constant tensor:
#      x y z
#    x 3.715750 0.000000 0.000000 
#    y 0.000000 3.715750 0.000000 
#    z 0.000000 0.000000 3.708070 
# 
# 
# High freq. dielectric constant tensor:
#      x y z
#    x 1.782660 0.000000 0.000000 
#    y 0.000000 1.782660 0.000000 
#    z 0.000000 0.000000 1.792360 
# 
# From -- ./inp_files/1561.got.cif
#   From: 2010.03.12/outbox.cif.g09.slc.cpg/sg193_1_cif.got.tgz:1561.got - 2010.04.01 12:20:39.
