data_PCOD8330374
_publ_section_title
;
Structure prediction by ZEFSAII (Michael W. Deem and Ramdas Pophale) SiO2 
 PCOD8330374
Probable space group: P 63/M M C
;
_chemical_formula_sum "Si O2"
_cell_formula_units_Z 108
_cell_length_a 16.922907
_cell_length_b 16.922907
_cell_length_c 29.283067
_cell_angle_alpha 90.000000
_cell_angle_beta 90.000000
_cell_angle_gamma 120.000000
_cell_volume 7262.683666
_symmetry_space_group_name_H-M "P 63/M M C"
_symmetry_group_IT_number 194
_symmetry_cell_setting 'hexagonal'
loop_
_space_group_symop_operation_xyz
x,y,z
x-y,x,1/2+z
-y,x-y,z
-x,-y,1/2+z
-x+y,-x,z
y,-x+y,1/2+z
x-y,-y,-z
-x,-x+y,-z
y,x,-z
-y,-x,1/2-z
-x+y,y,1/2-z
x,x-y,1/2-z
-x,-y,-z
-x+y,-x,1/2-z
y,-x+y,-z
x,y,1/2-z
x-y,x,-z
-y,x-y,1/2-z
-x+y,y,z
x,x-y,z
-y,-x,z
y,x,1/2+z
x-y,-y,1/2+z
-x,-x+y,1/2+z
loop_
_atom_site_type_symbol
_atom_site_label
_atom_site_fract_x
_atom_site_fract_y
_atom_site_fract_z
Si Si1 0.391549 0.423377 0.069624
Si Si2 0.147079 0.666808 0.517068
Si Si3 0.177473 0.178017 0.697483
Si Si4 0.519629 0.853488 0.250000
Si Si5 0.277735 0.905367 0.339380
O O1 0.480744 0.519257 0.075364
O O2 0.420294 0.348949 0.055161
O O3 0.341592 0.398433 0.117390
O O4 0.328234 0.433614 0.031687
O O5 0.169393 0.584697 0.517935
O O6 0.238643 0.761358 0.527176
O O7 0.203188 0.206498 0.750000
O O8 0.142519 0.071260 0.691347
O O9 0.265416 0.238130 0.667234
O O10 0.098298 0.196595 0.680423
O O11 0.420074 0.840147 0.250000
O O12 0.510835 0.755418 0.250000
O O13 0.573356 0.908959 0.205000
O O14 0.197578 0.802423 0.348226
#
# Coordination Sequence:
#
# PCOD8330374 Si02
#       5
#    24  24  24  12  24
#     4   9  18  30  44  64  89 114 140 175 218 259
#     4   9  17  30  47  66  86 110 142 178 217 259
#     4   9  16  27  42  61  84 110 141 176 212 247
#     4  10  19  30  43  60  84 114 146 176 205 244
#     4  10  18  29  44  63  87 115 145 174 209 253
#
# _framework density 14.870537000000001
#
# number of rings (size 3 to 8) (size 9 to 14) (size 15 to 20)
#    0.000    2.667    1.111    3.222    0.000    1.778 
#    0.000    0.000    0.000    7.111    0.000    0.000 
#    0.000    0.000    0.000   28.000    0.000    0.000 
#
# Total GULP energy -1338885.212178 kJ/mol
# GULP energy per Si atom -12397.085298 kJ/mol
# Density = 1.483669 g / cm^3
# Si number density = 14.870537 Si / 1000 Ang^3
#
#
#
# Elastic Constant Matrix: (Units=GPa)
#
#
# Indices 1 2 3 4 5 6 
#
# 1 66.1424 28.6600 44.0606 0.0000 0.0000 0.0000
# 2 28.6600 66.1424 44.0606 0.0000 0.0000 0.0000
# 3 44.0606 44.0606 114.2087 0.0000 0.0000 0.0000
# 4 0.0000 0.0000 0.0000 22.7565 0.0000 0.0000
# 5 0.0000 0.0000 0.0000 0.0000 22.7565 0.0000
# 6 0.0000 0.0000 0.0000 0.0000 0.0000 18.7412
#
#
#
# Elastic Compliance Matrix: (Units=1/GPa)
#
#
# Indices 1 2 3 4 5 6 
#
# 1 0.021562 -0.005117 -0.006345 0.000000 0.000000 0.000000
# 2 -0.005117 0.021562 -0.006345 0.000000 0.000000 0.000000
# 3 -0.006345 -0.006345 0.013651 0.000000 0.000000 0.000000
# 4 0.000000 0.000000 0.000000 0.043943 0.000000 0.000000
# 5 0.000000 0.000000 0.000000 0.000000 0.043943 0.000000
# 6 0.000000 0.000000 0.000000 0.000000 0.000000 0.053358
#
#
# Mechanical properties :
#
#
# Convention : Reuss Voigt Hill
#
# Bulk Modulus (GPa) = 47.24936 53.33956 50.29446
# Shear Modulus (GPa) = 20.77377 21.49834 21.13606
#
# Velocity S-wave (km/s) = 3.74167 3.80636 3.77415
# Velocity P-wave (km/s) = 7.10701 7.43404 7.27236
#
# Compressibility (1/GPa) = 0.02116431
#
# Stress axis : x y z
#
# Youngs Moduli (GPa) = 46.37688 46.37688 73.25331
#
# Poissons Ratio (x) = 0.23730 0.46476
# Poissons Ratio (y) = 0.23730 0.46476
# Poissons Ratio (z) = 0.29424 0.29424
#
# Static dielectric constant tensor:
#      x y z
#    x 2.837180 0.000000 0.000000 
#    y 0.000000 2.837180 0.000000 
#    z 0.000000 0.000000 2.611520 
# 
# 
# High freq. dielectric constant tensor:
#      x y z
#    x 1.565470 0.000000 0.000000 
#    y 0.000000 1.565470 0.000000 
#    z 0.000000 0.000000 1.562980 
# 
# From -- ./inp_files/9239.got.cif
#   From: 2010.03.12/outbox.cif.g09.slc.cpg/sg194_5_cif.got.tgz:9239.got - 2010.04.01 12:26:19.
