data_PCOD8330369
_publ_section_title
;
Structure prediction by ZEFSAII (Michael W. Deem and Ramdas Pophale) SiO2 
 PCOD8330369
Probable space group: P 63/M M C
;
_chemical_formula_sum "Si O2"
_cell_formula_units_Z 132
_cell_length_a 29.873239
_cell_length_b 29.873239
_cell_length_c 10.689396
_cell_angle_alpha 90.000000
_cell_angle_beta 90.000000
_cell_angle_gamma 120.000000
_cell_volume 8261.300599
_symmetry_space_group_name_H-M "P 63/M M C"
_symmetry_group_IT_number 194
_symmetry_cell_setting 'hexagonal'
loop_
_space_group_symop_operation_xyz
x,y,z
x-y,x,1/2+z
-y,x-y,z
-x,-y,1/2+z
-x+y,-x,z
y,-x+y,1/2+z
x-y,-y,-z
-x,-x+y,-z
y,x,-z
-y,-x,1/2-z
-x+y,y,1/2-z
x,x-y,1/2-z
-x,-y,-z
-x+y,-x,1/2-z
y,-x+y,-z
x,y,1/2-z
x-y,x,-z
-y,x-y,1/2-z
-x+y,y,z
x,x-y,z
-y,-x,z
y,x,1/2+z
x-y,-y,1/2+z
-x,-x+y,1/2+z
loop_
_atom_site_type_symbol
_atom_site_label
_atom_site_fract_x
_atom_site_fract_y
_atom_site_fract_z
Si Si1 0.108627 0.784915 0.750000
Si Si2 0.799920 0.799920 0.500000
Si Si3 0.142567 0.753416 0.980832
Si Si4 0.666237 0.227586 0.250000
Si Si5 0.048596 0.204360 0.750000
Si Si6 0.905357 0.196508 0.889424
Si Si7 0.694909 0.198501 0.500550
Si Si8 0.666131 0.227323 0.750000
O O1 0.161466 0.838535 0.750000
O O2 0.105395 0.749658 0.867352
O O3 0.062685 0.798331 0.750000
O O4 0.822543 0.836563 0.624036
O O5 0.790974 0.742953 0.519629
O O6 0.199633 0.800368 0.955200
O O7 0.148637 0.703136 0.998735
O O8 0.115660 0.762941 0.101409
O O9 0.717005 0.282996 0.250000
O O10 0.618338 0.236675 0.250000
O O11 0.664084 0.195995 0.374535
O O12 0.098407 0.196814 0.750000
O O13 0.923729 0.196199 0.750000
O O14 0.859482 0.140519 0.931780
O O15 0.748841 0.251160 0.504760
O O16 0.663147 0.195034 0.625660
O O17 0.717484 0.282517 0.750000
O O18 0.618620 0.237240 0.750000
#
# Coordination Sequence:
#
# PCOD8330369 Si02
#       8
#    12  12  24  12  12  24  24  12
#     4   9  15  26  44  63  87 120 158 189 218 263
#     4  12  20  34  50  72 102 140 176 204 228 272
#     4   9  16  27  43  62  87 118 155 196 229 274
#     4  10  18  29  42  59  83 114 153 196 241 287
#     4  11  22  35  50  74 104 140 177 203 233 274
#     4  10  20  31  46  69  97 132 167 195 228 269
#     4   9  18  28  41  60  81 110 152 194 235 281
#     4  10  19  30  41  56  79 112 151 194 241 290
#
# _framework density 15.978115000000001
#
# number of rings (size 3 to 8) (size 9 to 14) (size 15 to 20)
#    0.000    2.182    2.727    1.818    1.273    2.182 
#    0.000    1.818    0.000    0.000    0.000    0.000 
#    0.000    0.000    0.000   51.818    0.000    0.000 
#
# Total GULP energy -1635663.198297 kJ/mol
# GULP energy per Si atom -12391.387866 kJ/mol
# Density = 1.594175 g / cm^3
# Si number density = 15.978115 Si / 1000 Ang^3
#
#
#
# Elastic Constant Matrix: (Units=GPa)
#
#
# Indices 1 2 3 4 5 6 
#
# 1 43.7498 19.9948 40.2896 0.0000 0.0000 0.0000
# 2 19.9948 43.7498 40.2896 0.0000 0.0000 0.0000
# 3 40.2896 40.2896 121.6678 0.0000 0.0000 0.0000
# 4 0.0000 0.0000 0.0000 21.4875 0.0000 0.0000
# 5 0.0000 0.0000 0.0000 0.0000 21.4875 0.0000
# 6 0.0000 0.0000 0.0000 0.0000 0.0000 11.8775
#
#
#
# Elastic Compliance Matrix: (Units=1/GPa)
#
#
# Indices 1 2 3 4 5 6 
#
# 1 0.034539 -0.007557 -0.008935 0.000000 0.000000 0.000000
# 2 -0.007557 0.034539 -0.008935 0.000000 0.000000 0.000000
# 3 -0.008935 -0.008935 0.014137 0.000000 0.000000 0.000000
# 4 0.000000 0.000000 0.000000 0.046539 0.000000 0.000000
# 5 0.000000 0.000000 0.000000 0.000000 0.046539 0.000000
# 6 0.000000 0.000000 0.000000 0.000000 0.000000 0.084193
#
#
# Mechanical properties :
#
#
# Convention : Reuss Voigt Hill
#
# Bulk Modulus (GPa) = 30.90124 45.59059 38.24591
# Shear Modulus (GPa) = 15.52185 18.21006 16.86596
#
# Velocity S-wave (km/s) = 3.12018 3.37959 3.25247
# Velocity P-wave (km/s) = 5.68880 6.61996 6.17197
#
# Compressibility (1/GPa) = 0.03236116
#
# Stress axis : x y z
#
# Youngs Moduli (GPa) = 28.95254 28.95254 70.73807
#
# Poissons Ratio (x) = 0.21879 0.63205
# Poissons Ratio (y) = 0.21879 0.63205
# Poissons Ratio (z) = 0.25869 0.25869
#
# Static dielectric constant tensor:
#      x y z
#    x 2.825810 0.000000 0.000000 
#    y 0.000000 2.825810 0.000000 
#    z 0.000000 0.000000 3.487050 
# 
# 
# High freq. dielectric constant tensor:
#      x y z
#    x 1.574450 0.000000 0.000000 
#    y 0.000000 1.574450 0.000000 
#    z 0.000000 0.000000 1.640650 
# 
# From -- ./inp_files/3507.got.cif
#   From: 2010.03.12/outbox.cif.g09.slc.cpg/sg194_2_cif.got.tgz:3507.got - 2010.04.01 12:26:19.
