data_PCOD8330267
_publ_section_title
;
Structure prediction by ZEFSAII (Michael W. Deem and Ramdas Pophale) SiO2 
 PCOD8330267
Probable space group: P 63/M C M
;
_chemical_formula_sum "Si O2"
_cell_formula_units_Z 96
_cell_length_a 28.939339
_cell_length_b 28.939339
_cell_length_c 9.758522
_cell_angle_alpha 90.000000
_cell_angle_beta 90.000000
_cell_angle_gamma 120.000000
_cell_volume 7077.695784
_symmetry_space_group_name_H-M "P 63/M C M"
_symmetry_group_IT_number 193
_symmetry_cell_setting 'hexagonal'
loop_
_space_group_symop_operation_xyz
x,y,z
x-y,x,1/2+z
-y,x-y,z
-x,-y,1/2+z
-x+y,-x,z
y,-x+y,1/2+z
x-y,-y,1/2-z
-x,-x+y,1/2-z
y,x,1/2-z
-y,-x,-z
-x+y,y,-z
x,x-y,-z
-x,-y,-z
-x+y,-x,1/2-z
y,-x+y,-z
x,y,1/2-z
x-y,x,-z
-y,x-y,1/2-z
-x+y,y,1/2+z
x,x-y,1/2+z
-y,-x,1/2+z
y,x,z
x-y,-y,z
-x,-x+y,z
loop_
_atom_site_type_symbol
_atom_site_label
_atom_site_fract_x
_atom_site_fract_y
_atom_site_fract_z
Si Si1 0.329295 0.388384 0.087176
Si Si2 0.123160 0.790591 0.090716
Si Si3 0.428417 0.936325 0.597324
Si Si4 0.147445 0.208929 0.092079
O O1 0.329608 0.384347 0.250000
O O2 0.350743 0.350743 0.024646
O O3 0.269630 0.367670 0.035006
O O4 0.368730 0.450099 0.043192
O O5 0.139575 0.795801 0.250000
O O6 0.080178 0.809496 0.066495
O O7 0.175330 0.824671 0.000000
O O8 0.456115 0.912230 0.500000
O O9 0.426151 0.914047 0.750000
O O10 0.461902 0.000000 0.599135
O O11 0.129357 0.199082 0.250000
O O12 0.174465 0.174465 0.048318
O O13 0.095145 0.190289 0.000000
#
# Coordination Sequence:
#
# PCOD8330267 Si02
#       4
#    24  24  24  24
#     4   8  13  22  37  53  68  93 127 152 170 203
#     4   9  16  26  39  54  73  96 122 151 180 211
#     4   8  13  21  33  49  68  90 117 146 172 196
#     4   9  17  28  42  59  76  94 117 146 181 220
#
# _framework density 13.563737
#
# number of rings (size 3 to 8) (size 9 to 14) (size 15 to 20)
#    0.000    3.500    0.000    2.250    0.000    3.500 
#    0.000    1.250    0.000    4.000    0.000    0.000 
#    0.000    0.000    0.000    0.750    0.000    9.000 
#
# Total GULP energy -1189823.971212 kJ/mol
# GULP energy per Si atom -12393.999700 kJ/mol
# Density = 1.353287 g / cm^3
# Si number density = 13.563737 Si / 1000 Ang^3
#
#
#
# Elastic Constant Matrix: (Units=GPa)
#
#
# Indices 1 2 3 4 5 6 
#
# 1 97.7642 53.6591 42.3444 0.0000 0.0000 0.0000
# 2 53.6591 97.7642 42.3444 0.0000 0.0000 0.0000
# 3 42.3444 42.3444 49.0055 0.0000 0.0000 0.0000
# 4 0.0000 0.0000 0.0000 19.1880 0.0000 0.0000
# 5 0.0000 0.0000 0.0000 0.0000 19.1880 0.0000
# 6 0.0000 0.0000 0.0000 0.0000 0.0000 22.0526
#
#
#
# Elastic Compliance Matrix: (Units=1/GPa)
#
#
# Indices 1 2 3 4 5 6 
#
# 1 0.017727 -0.004946 -0.011043 0.000000 0.000000 0.000000
# 2 -0.004946 0.017727 -0.011043 0.000000 0.000000 0.000000
# 3 -0.011043 -0.011043 0.039490 0.000000 0.000000 0.000000
# 4 0.000000 0.000000 0.000000 0.052116 0.000000 0.000000
# 5 0.000000 0.000000 0.000000 0.000000 0.052116 0.000000
# 6 0.000000 0.000000 0.000000 0.000000 0.000000 0.045346
#
#
# Mechanical properties :
#
#
# Convention : Reuss Voigt Hill
#
# Bulk Modulus (GPa) = 47.89700 57.91440 52.90570
# Shear Modulus (GPa) = 17.51032 19.16478 18.33755
#
# Velocity S-wave (km/s) = 3.59690 3.76299 3.68088
# Velocity P-wave (km/s) = 7.25530 7.85308 7.56010
#
# Compressibility (1/GPa) = 0.02087814
#
# Stress axis : x y z
#
# Youngs Moduli (GPa) = 56.41216 56.41216 25.32285
#
# Poissons Ratio (x) = 0.27904 0.27964
# Poissons Ratio (y) = 0.27904 0.27964
# Poissons Ratio (z) = 0.62296 0.62296
#
# Static dielectric constant tensor:
#      x y z
#    x 2.703670 0.000000 0.000000 
#    y 0.000000 2.703670 0.000000 
#    z 0.000000 0.000000 2.620750 
# 
# 
# High freq. dielectric constant tensor:
#      x y z
#    x 1.496410 0.000000 0.000000 
#    y 0.000000 1.496410 0.000000 
#    z 0.000000 0.000000 1.500280 
# 
# From -- ./inp_files/2256.got.cif
#   From: 2010.03.12/outbox.cif.g09.slc.cpg/sg193_2_cif.got.tgz:2256.got - 2010.04.01 12:20:39.
