data_PCOD8330432
_publ_section_title
;
Structure prediction by ZEFSAII (Michael W. Deem and Ramdas Pophale) SiO2 
 PCOD8330432
Probable space group: P 63/M M C
;
_chemical_formula_sum "Si O2"
_cell_formula_units_Z 132
_cell_length_a 17.312963
_cell_length_b 17.312963
_cell_length_c 30.168511
_cell_angle_alpha 90.000000
_cell_angle_beta 90.000000
_cell_angle_gamma 120.000000
_cell_volume 7831.181852
_symmetry_space_group_name_H-M "P 63/M M C"
_symmetry_group_IT_number 194
_symmetry_cell_setting 'hexagonal'
loop_
_space_group_symop_operation_xyz
x,y,z
x-y,x,1/2+z
-y,x-y,z
-x,-y,1/2+z
-x+y,-x,z
y,-x+y,1/2+z
x-y,-y,-z
-x,-x+y,-z
y,x,-z
-y,-x,1/2-z
-x+y,y,1/2-z
x,x-y,1/2-z
-x,-y,-z
-x+y,-x,1/2-z
y,-x+y,-z
x,y,1/2-z
x-y,x,-z
-y,x-y,1/2-z
-x+y,y,z
x,x-y,z
-y,-x,z
y,x,1/2+z
x-y,-y,1/2+z
-x,-x+y,1/2+z
loop_
_atom_site_type_symbol
_atom_site_label
_atom_site_fract_x
_atom_site_fract_y
_atom_site_fract_z
Si Si1 0.664340 0.152542 0.879420
Si Si2 0.415360 0.411709 0.552204
Si Si3 0.000000 0.820044 0.500000
Si Si4 0.724754 0.094342 0.797969
Si Si5 0.001466 0.821287 0.670216
Si Si6 0.942219 0.232350 0.081276
O O1 0.588566 0.177131 0.867748
O O2 0.758458 0.241543 0.883659
O O3 0.644531 0.103040 0.926975
O O4 0.663237 0.087214 0.839845
O O5 0.393361 0.393361 0.500000
O O6 0.483007 0.516994 0.559763
O O7 0.326109 0.382697 0.580915
O O8 0.991057 0.761153 0.542546
O O9 0.916371 0.832741 0.494470
O O10 0.675339 0.078921 0.750000
O O11 0.806646 0.193355 0.799821
O O12 0.761570 0.024694 0.798455
O O13 0.090186 0.909815 0.687679
O O14 0.019009 0.790233 0.623611
O O15 0.921888 0.843775 0.666260
O O16 0.840653 0.159348 0.072148
#
# Coordination Sequence:
#
# PCOD8330432 Si02
#       6
#    24  24  12  24  24  24
#     4  10  20  34  54  77 103 133 167 208 257 314
#     4  10  20  34  51  73  98 128 164 204 249 298
#     4  10  19  28  41  64  96 130 164 200 241 288
#     4   9  18  32  50  72 100 134 168 206 251 296
#     4  10  19  31  47  69  99 134 172 210 248 290
#     4  10  19  30  47  69  93 126 164 203 247 297
#
# _framework density 16.855694
#
# number of rings (size 3 to 8) (size 9 to 14) (size 15 to 20)
#    0.000    2.182    2.727    1.000    0.000    2.182 
#    0.000    1.818    0.000    2.545    0.000    0.000 
#    0.000    0.000    0.000    0.000    0.000   16.545 
#
# Total GULP energy -1635503.714924 kJ/mol
# GULP energy per Si atom -12390.179659 kJ/mol
# Density = 1.681733 g / cm^3
# Si number density = 16.855694 Si / 1000 Ang^3
#
#
#
# Elastic Constant Matrix: (Units=GPa)
#
#
# Indices 1 2 3 4 5 6 
#
# 1 75.6864 29.8201 25.7161 0.0000 0.0000 0.0000
# 2 29.8201 75.6864 25.7161 0.0000 0.0000 0.0000
# 3 25.7161 25.7161 92.6399 0.0000 0.0000 0.0000
# 4 0.0000 0.0000 0.0000 -47.5282 0.0000 0.0000
# 5 0.0000 0.0000 0.0000 0.0000 -47.5282 0.0000
# 6 0.0000 0.0000 0.0000 0.0000 0.0000 22.9331
#
#
#
# Elastic Compliance Matrix: (Units=1/GPa)
#
#
# Indices 1 2 3 4 5 6 
#
# 1 0.016382 -0.005421 -0.003043 0.000000 0.000000 0.000000
# 2 -0.005421 0.016382 -0.003043 0.000000 0.000000 0.000000
# 3 -0.003043 -0.003043 0.012484 0.000000 0.000000 0.000000
# 4 0.000000 0.000000 0.000000 -0.021040 0.000000 0.000000
# 5 0.000000 0.000000 0.000000 0.000000 -0.021040 0.000000
# 6 0.000000 0.000000 0.000000 0.000000 0.000000 0.043605
#
#
# Mechanical properties :
#
#
# Convention : Reuss Voigt Hill
#
# Bulk Modulus (GPa) = 44.97334 45.16859 45.07096
# Shear Modulus (GPa) = 64.76975 -3.57395 30.59790
#
# Velocity S-wave (km/s) = 6.20560 -1.45771 4.26524
# Velocity P-wave (km/s) = 8.83659 4.90124 7.14519
#
# Compressibility (1/GPa) = 0.02223540
#
# Stress axis : x y z
#
# Youngs Moduli (GPa) = 61.04278 61.04278 80.10385
#
# Poissons Ratio (x) = 0.33089 0.24374
# Poissons Ratio (y) = 0.33089 0.24374
# Poissons Ratio (z) = 0.18574 0.18574
#
# Static dielectric constant tensor:
#      x y z
#    x 3.200790 0.000000 0.000000 
#    y 0.000000 3.200790 0.000000 
#    z 0.000000 0.000000 3.356760 
# 
# 
# High freq. dielectric constant tensor:
#      x y z
#    x 1.637060 0.000000 0.000000 
#    y 0.000000 1.637060 0.000000 
#    z 0.000000 0.000000 1.656080 
# 
# From -- ./inp_files/10834.got.cif
#   From: 2010.03.12/outbox.cif.g09.slc.cpg/sg194_6_cif.got.tgz:10834.got - 2010.04.01 12:26:19.
