data_PCOD8330822
_publ_section_title
;
Structure prediction by ZEFSAII (Michael W. Deem and Ramdas Pophale) SiO2 
 PCOD8330822
Probable space group: P 63/M M C
;
_chemical_formula_sum "Si O2"
_cell_formula_units_Z 168
_cell_length_a 17.735059
_cell_length_b 17.735059
_cell_length_c 32.933193
_cell_angle_alpha 90.000000
_cell_angle_beta 90.000000
_cell_angle_gamma 120.000000
_cell_volume 8970.770499
_symmetry_space_group_name_H-M "P 63/M M C"
_symmetry_group_IT_number 194
_symmetry_cell_setting 'hexagonal'
loop_
_space_group_symop_operation_xyz
x,y,z
x-y,x,1/2+z
-y,x-y,z
-x,-y,1/2+z
-x+y,-x,z
y,-x+y,1/2+z
x-y,-y,-z
-x,-x+y,-z
y,x,-z
-y,-x,1/2-z
-x+y,y,1/2-z
x,x-y,1/2-z
-x,-y,-z
-x+y,-x,1/2-z
y,-x+y,-z
x,y,1/2-z
x-y,x,-z
-y,x-y,1/2-z
-x+y,y,z
x,x-y,z
-y,-x,z
y,x,1/2+z
x-y,-y,1/2+z
-x,-x+y,1/2+z
loop_
_atom_site_type_symbol
_atom_site_label
_atom_site_fract_x
_atom_site_fract_y
_atom_site_fract_z
Si Si1 0.838679 0.333340 0.476669
Si Si2 0.089129 0.351913 0.910866
Si Si3 0.000101 0.826119 0.046705
Si Si4 0.163393 0.666456 0.431352
Si Si5 0.361578 0.092875 0.703093
Si Si6 0.597325 0.021686 0.636177
Si Si7 0.999649 0.166225 0.201731
O O1 0.853716 0.426858 0.463177
O O2 0.736685 0.263316 0.471851
O O3 0.898231 0.310232 0.449444
O O4 0.868205 0.333751 0.522907
O O5 0.178969 0.357937 0.897667
O O6 0.018341 0.253496 0.923594
O O7 0.059415 0.387761 0.872450
O O8 0.926672 0.853344 0.052224
O O9 0.092990 0.907011 0.059389
O O10 0.000000 0.798449 0.000000
O O11 0.200165 0.600083 0.427767
O O12 0.238927 0.761073 0.417838
O O13 0.081902 0.638321 0.402769
O O14 0.374987 0.077901 0.750000
O O15 0.382731 0.191366 0.696265
O O16 0.425921 0.073646 0.676633
O O17 0.263147 0.025040 0.688345
O O18 0.495677 0.991353 0.641748
O O19 0.999627 0.162608 0.250000
O O20 0.071826 0.143652 0.185124
O O21 0.905021 0.094980 0.184075
#
# Coordination Sequence:
#
# PCOD8330822 Si02
#       7
#    24  24  24  24  24  24  24
#     4   9  17  31  51  74 102 137 176 217 262 315
#     4  10  22  36  51  75 106 140 176 220 267 310
#     4   9  18  32  51  74 102 140 184 223 253 288
#     4   9  18  31  50  75 103 134 168 207 254 312
#     4   9  19  36  56  78 105 136 172 214 260 313
#     4  11  23  36  53  77 103 135 172 216 271 324
#     4   8  13  23  44  76 110 140 167 196 236 292
#
# _framework density 18.727488999999998
#
# number of rings (size 3 to 8) (size 9 to 14) (size 15 to 20)
#    0.000    2.714    0.000    2.286    2.000    4.286 
#    0.000    2.143    0.000    0.571    0.000    5.000 
#    0.000    0.000    0.000    0.000    0.000    0.000 
#
# Total GULP energy -2082977.398654 kJ/mol
# GULP energy per Si atom -12398.674992 kJ/mol
# Density = 1.868486 g / cm^3
# Si number density = 18.727489 Si / 1000 Ang^3
#
#
#
# Elastic Constant Matrix: (Units=GPa)
#
#
# Indices 1 2 3 4 5 6 
#
# 1 97.5764 50.7363 38.9439 0.0000 0.0000 0.0000
# 2 50.7363 97.5764 38.9439 0.0000 0.0000 0.0000
# 3 38.9439 38.9439 64.2523 0.0000 0.0000 0.0000
# 4 0.0000 0.0000 0.0000 24.7708 0.0000 0.0000
# 5 0.0000 0.0000 0.0000 0.0000 24.7708 0.0000
# 6 0.0000 0.0000 0.0000 0.0000 0.0000 23.4200
#
#
#
# Elastic Compliance Matrix: (Units=1/GPa)
#
#
# Indices 1 2 3 4 5 6 
#
# 1 0.015620 -0.005729 -0.005995 0.000000 0.000000 0.000000
# 2 -0.005729 0.015620 -0.005995 0.000000 0.000000 0.000000
# 3 -0.005995 -0.005995 0.022831 0.000000 0.000000 0.000000
# 4 0.000000 0.000000 0.000000 0.040370 0.000000 0.000000
# 5 0.000000 0.000000 0.000000 0.000000 0.040370 0.000000
# 6 0.000000 0.000000 0.000000 0.000000 0.000000 0.042698
#
#
# Mechanical properties :
#
#
# Convention : Reuss Voigt Hill
#
# Bulk Modulus (GPa) = 53.66893 57.40594 55.53744
# Shear Modulus (GPa) = 22.81454 23.31106 23.06280
#
# Velocity S-wave (km/s) = 3.49411 3.53193 3.51307
# Velocity P-wave (km/s) = 6.70809 6.88132 6.79526
#
# Compressibility (1/GPa) = 0.01863275
#
# Stress axis : x y z
#
# Youngs Moduli (GPa) = 64.02040 64.02040 43.80047
#
# Poissons Ratio (x) = 0.36679 0.26258
# Poissons Ratio (y) = 0.36679 0.26258
# Poissons Ratio (z) = 0.38380 0.38380
#
# Static dielectric constant tensor:
#      x y z
#    x 3.451530 0.000000 0.000000 
#    y 0.000000 3.451530 0.000000 
#    z 0.000000 0.000000 3.141350 
# 
# 
# High freq. dielectric constant tensor:
#      x y z
#    x 1.723960 0.000000 0.000000 
#    y 0.000000 1.723960 0.000000 
#    z 0.000000 0.000000 1.701040 
# 
# From -- ./inp_files/12283.got.cif
#   From: 2010.03.12/outbox.cif.g09.slc.cpg/sg194_7_cif.got.tgz:12283.got - 2010.04.01 12:26:19.
