data_PCOD8330188
_publ_section_title
;
Structure prediction by ZEFSAII (Michael W. Deem and Ramdas Pophale) SiO2 
 PCOD8330188
Probable space group: P 63/M C M
;
_chemical_formula_sum "Si O2"
_cell_formula_units_Z 144
_cell_length_a 30.511872
_cell_length_b 30.511872
_cell_length_c 8.628260
_cell_angle_alpha 90.000000
_cell_angle_beta 90.000000
_cell_angle_gamma 120.000000
_cell_volume 6956.512387
_symmetry_space_group_name_H-M "P 63/M C M"
_symmetry_group_IT_number 193
_symmetry_cell_setting 'hexagonal'
loop_
_space_group_symop_operation_xyz
x,y,z
x-y,x,1/2+z
-y,x-y,z
-x,-y,1/2+z
-x+y,-x,z
y,-x+y,1/2+z
x-y,-y,1/2-z
-x,-x+y,1/2-z
y,x,1/2-z
-y,-x,-z
-x+y,y,-z
x,x-y,-z
-x,-y,-z
-x+y,-x,1/2-z
y,-x+y,-z
x,y,1/2-z
x-y,x,-z
-y,x-y,1/2-z
-x+y,y,1/2+z
x,x-y,1/2+z
-y,-x,1/2+z
y,x,z
x-y,-y,z
-x,-x+y,z
loop_
_atom_site_type_symbol
_atom_site_label
_atom_site_fract_x
_atom_site_fract_y
_atom_site_fract_z
Si Si1 0.691300 0.942515 0.081382
Si Si2 0.787212 0.845627 0.565795
Si Si3 0.427155 0.941765 0.921320
Si Si4 0.575268 0.334555 0.568694
Si Si5 0.322267 0.911940 0.069598
Si Si6 0.190755 0.470557 0.571745
O O1 0.667154 0.917065 0.250000
O O2 0.728221 0.922577 0.013830
O O3 0.730615 0.000000 0.115613
O O4 0.649548 0.941944 0.963286
O O5 0.802863 0.901432 0.500000
O O6 0.789068 0.849295 0.750000
O O7 0.826255 0.826255 0.508845
O O8 0.407493 0.916731 0.750000
O O9 0.466891 0.000000 0.896976
O O10 0.458411 0.916821 0.000000
O O11 0.381328 0.938454 0.024044
O O12 0.610607 0.389394 0.500000
O O13 0.590022 0.295011 0.500000
O O14 0.581376 0.335193 0.750000
O O15 0.519256 0.320830 0.521773
O O16 0.317522 0.897684 0.250000
O O17 0.292407 0.865370 0.954645
O O18 0.224888 0.449775 0.500000
O O19 0.204751 0.484996 0.750000
#
# Coordination Sequence:
#
# PCOD8330188 Si02
#       6
#    24  24  24  24  24  24
#     4   9  19  37  58  81 113 152 193 240 292 341
#     4   9  19  36  59  89 125 164 206 252 302 354
#     4  10  21  38  59  83 112 146 185 233 289 346
#     4  11  21  36  56  80 105 131 165 208 260 317
#     4  12  24  37  56  83 112 146 188 232 282 344
#     4  11  23  41  59  77 103 136 173 215 266 322
#
# _framework density 20.700029000000001
#
# number of rings (size 3 to 8) (size 9 to 14) (size 15 to 20)
#    0.000    1.667    0.000    7.667    0.000    5.667 
#    0.000    6.667    0.000    0.167    0.000    0.000 
#    0.000    0.000    0.000    0.000    0.000    0.000 
#
# Total GULP energy -1784164.472701 kJ/mol
# GULP energy per Si atom -12390.031060 kJ/mol
# Density = 2.065291 g / cm^3
# Si number density = 20.700029 Si / 1000 Ang^3
#
#
#
# Elastic Constant Matrix: (Units=GPa)
#
#
# Indices 1 2 3 4 5 6 
#
# 1 100.6535 30.0633 28.1395 0.0000 0.0000 0.0000
# 2 30.0633 100.6535 28.1395 0.0000 0.0000 0.0000
# 3 28.1395 28.1395 129.9560 0.0000 0.0000 0.0000
# 4 0.0000 0.0000 0.0000 30.2528 0.0000 0.0000
# 5 0.0000 0.0000 0.0000 0.0000 30.2528 0.0000
# 6 0.0000 0.0000 0.0000 0.0000 0.0000 35.2951
#
#
#
# Elastic Compliance Matrix: (Units=1/GPa)
#
#
# Indices 1 2 3 4 5 6 
#
# 1 0.011301 -0.002865 -0.001827 0.000000 0.000000 0.000000
# 2 -0.002865 0.011301 -0.001827 0.000000 0.000000 0.000000
# 3 -0.001827 -0.001827 0.008486 0.000000 0.000000 0.000000
# 4 0.000000 0.000000 0.000000 0.033055 0.000000 0.000000
# 5 0.000000 0.000000 0.000000 0.000000 0.033055 0.000000
# 6 0.000000 0.000000 0.000000 0.000000 0.000000 0.028333
#
#
# Mechanical properties :
#
#
# Convention : Reuss Voigt Hill
#
# Bulk Modulus (GPa) = 55.39513 55.99418 55.69466
# Shear Modulus (GPa) = 34.58171 35.48821 35.03496
#
# Velocity S-wave (km/s) = 4.09175 4.14503 4.11847
# Velocity P-wave (km/s) = 7.01015 7.07230 7.04129
#
# Compressibility (1/GPa) = 0.01805213
#
# Stress axis : x y z
#
# Youngs Moduli (GPa) = 88.48421 88.48421 117.84080
#
# Poissons Ratio (x) = 0.25349 0.21527
# Poissons Ratio (y) = 0.25349 0.21527
# Poissons Ratio (z) = 0.16164 0.16164
#
# Static dielectric constant tensor:
#      x y z
#    x 3.671580 0.000000 0.000000 
#    y 0.000000 3.671580 0.000000 
#    z 0.000000 0.000000 3.807560 
# 
# 
# High freq. dielectric constant tensor:
#      x y z
#    x 1.800900 0.000000 0.000000 
#    y 0.000000 1.800900 0.000000 
#    z 0.000000 0.000000 1.815170 
# 
# From -- ./inp_files/1578.got.cif
#   From: 2010.03.12/outbox.cif.g09.slc.cpg/sg193_1_cif.got.tgz:1578.got - 2010.04.01 12:20:39.
