data_PCOD8330903
_publ_section_title
;
Structure prediction by ZEFSAII (Michael W. Deem and Ramdas Pophale) SiO2 
 PCOD8330903
Probable space group: I 21 3
;
_chemical_formula_sum "Si O2"
_cell_formula_units_Z 104
_cell_length_a 16.428709
_cell_length_b 16.428709
_cell_length_c 16.428709
_cell_angle_alpha 90.000000
_cell_angle_beta 90.000000
_cell_angle_gamma 90.000000
_cell_volume 4434.149293
_symmetry_space_group_name_H-M "I 21 3"
_symmetry_group_IT_number 199
_symmetry_cell_setting 'cubic'
loop_
_space_group_symop_operation_xyz
x,y,z
z,x,y
y,z,x
-y,1/2-z,x
z,-x,1/2-y
1/2-y,z,-x
-z,1/2-x,y
1/2-z,x,-y
y,-z,1/2-x
-x,1/2-y,z
x,-y,1/2-z
1/2-x,y,-z
1/2+x,1/2+y,1/2+z
1/2+z,1/2+x,1/2+y
1/2+y,1/2+z,1/2+x
1/2-y,-z,1/2+x
1/2+z,1/2-x,-y
-y,1/2+z,1/2-x
1/2-z,-x,1/2+y
-z,1/2+x,1/2-y
1/2+y,1/2-z,-x
1/2-x,-y,1/2+z
1/2+x,1/2-y,-z
-x,1/2+y,1/2-z
loop_
_atom_site_type_symbol
_atom_site_label
_atom_site_fract_x
_atom_site_fract_y
_atom_site_fract_z
Si Si1 0.899482 0.100520 0.600520
Si Si2 0.871099 0.228972 0.877099
Si Si3 0.978973 0.621101 0.627099
Si Si4 0.750000 0.303490 0.000000
Si Si5 0.850523 0.350522 0.149479
Si Si6 0.739352 0.239352 0.260649
Si Si7 0.989350 0.510652 0.489349
Si Si8 0.053486 0.500000 0.750000
O O1 0.811432 0.108690 0.555349
O O2 0.954851 0.045151 0.545151
O O3 0.936500 0.162022 0.902098
O O4 0.809834 0.243177 0.951406
O O5 0.826669 0.195175 0.796223
O O6 0.912025 0.313497 0.847900
O O7 0.993173 0.559834 0.701405
O O8 0.945175 0.576676 0.546220
O O9 0.694650 0.358694 0.938569
O O10 0.795154 0.295153 0.204848
#
# Coordination Sequence:
#
# PCOD8330903 Si02
#       8
#     8  24  24  12   8   8   8  12
#     4   9  21  40  65  94 124 164 208 256 314 373
#     4  10  23  41  63  91 122 162 208 254 310 373
#     4  10  23  41  63  91 122 162 208 254 310 373
#     4  10  22  42  63  92 129 162 206 260 314 372
#     4   9  21  40  65  94 124 164 208 256 314 373
#     4   9  21  40  59  88 124 155 199 256 311 364
#     4   9  21  40  59  88 124 155 199 256 311 364
#     4  10  22  42  63  92 129 162 206 260 314 372
#
# _framework density 23.454329999999999
#
# number of rings (size 3 to 8) (size 9 to 14) (size 15 to 20)
#    0.000    2.308    0.000    0.000    0.000   18.462 
#    0.000    9.231    0.000    0.000    0.000    0.000 
#    0.000    0.000    0.000    0.000    0.000    0.000 
#
# Total GULP energy -644586.458084 kJ/mol
# GULP energy per Si atom -12395.893425 kJ/mol
# Density = 2.340095 g / cm^3
# Si number density = 23.454330 Si / 1000 Ang^3
#
#
#
# Elastic Constant Matrix: (Units=GPa)
#
#
# Indices 1 2 3 4 5 6 
#
# 1 83.5958 18.9887 18.9876 0.0000 0.0000 0.0000
# 2 18.9887 83.5901 18.9872 0.0000 0.0000 0.0000
# 3 18.9876 18.9872 83.5888 0.0000 0.0000 0.0000
# 4 0.0000 0.0000 0.0000 17.8262 0.0000 0.0000
# 5 0.0000 0.0000 0.0000 0.0000 17.8266 0.0000
# 6 0.0000 0.0000 0.0000 0.0000 0.0000 17.8273
#
#
#
# Elastic Compliance Matrix: (Units=1/GPa)
#
#
# Indices 1 2 3 4 5 6 
#
# 1 0.013061 -0.002418 -0.002418 0.000000 0.000000 0.000000
# 2 -0.002418 0.013062 -0.002418 0.000000 0.000000 0.000000
# 3 -0.002418 -0.002418 0.013062 0.000000 0.000000 0.000000
# 4 0.000000 0.000000 0.000000 0.056097 0.000000 0.000000
# 5 0.000000 0.000000 0.000000 0.000000 0.056096 0.000000
# 6 0.000000 0.000000 0.000000 0.000000 0.000000 0.056094
#
#
# Mechanical properties :
#
#
# Convention : Reuss Voigt Hill
#
# Bulk Modulus (GPa) = 40.52241 40.52241 40.52241
# Shear Modulus (GPa) = 21.71999 23.61678 22.66839
#
# Velocity S-wave (km/s) = 3.04642 3.17665 3.11222
# Velocity P-wave (km/s) = 5.44875 5.54703 5.49811
#
# Compressibility (1/GPa) = 0.02467770
#
# Stress axis : x y z
#
# Youngs Moduli (GPa) = 76.56598 76.56061 76.55986
#
# Poissons Ratio (x) = 0.18511 0.18509
# Poissons Ratio (y) = 0.18512 0.18510
# Poissons Ratio (z) = 0.18510 0.18510
#
# Static dielectric constant tensor:
#      x y z
#    x 4.294640 0.000000 0.000000 
#    y 0.000000 4.294610 0.000000 
#    z 0.000000 0.000000 4.294630 
# 
# 
# High freq. dielectric constant tensor:
#      x y z
#    x 1.927180 0.000000 0.000000 
#    y 0.000000 1.927180 0.000000 
#    z 0.000000 0.000000 1.927180 
# 
# From -- ./inp_files/619.got.cif
#   From: 2010.03.12/outbox.cif.g09.slc.cpg/sg199_cif.got.tgz:619.got - 2010.04.01 12:34:00.
