data_PCOD8330191
_publ_section_title
;
Structure prediction by ZEFSAII (Michael W. Deem and Ramdas Pophale) SiO2 
 PCOD8330191
Probable space group: P 63/M C M
;
_chemical_formula_sum "Si O2"
_cell_formula_units_Z 72
_cell_length_a 13.538427
_cell_length_b 13.538427
_cell_length_c 24.128028
_cell_angle_alpha 90.000000
_cell_angle_beta 90.000000
_cell_angle_gamma 120.000000
_cell_volume 3829.912703
_symmetry_space_group_name_H-M "P 63/M C M"
_symmetry_group_IT_number 193
_symmetry_cell_setting 'hexagonal'
loop_
_space_group_symop_operation_xyz
x,y,z
x-y,x,1/2+z
-y,x-y,z
-x,-y,1/2+z
-x+y,-x,z
y,-x+y,1/2+z
x-y,-y,1/2-z
-x,-x+y,1/2-z
y,x,1/2-z
-y,-x,-z
-x+y,y,-z
x,x-y,-z
-x,-y,-z
-x+y,-x,1/2-z
y,-x+y,-z
x,y,1/2-z
x-y,x,-z
-y,x-y,1/2-z
-x+y,y,1/2+z
x,x-y,1/2+z
-y,-x,1/2+z
y,x,z
x-y,-y,z
-x,-x+y,z
loop_
_atom_site_type_symbol
_atom_site_label
_atom_site_fract_x
_atom_site_fract_y
_atom_site_fract_z
Si Si1 0.000000 0.385802 0.573544
Si Si2 0.000000 0.000000 0.183220
Si Si3 0.000000 0.215839 0.186326
Si Si4 0.333334 0.666668 0.182941
Si Si5 0.616039 0.000000 0.549937
Si Si6 0.227720 0.803852 0.371057
O O1 0.108772 0.410392 0.609652
O O2 0.000000 0.500134 0.559085
O O3 0.000000 0.339131 0.512159
O O4 0.109387 0.000000 0.156781
O O5 0.000000 0.000000 0.250000
O O6 0.116588 0.330207 0.173128
O O7 0.000000 0.194574 0.250000
O O8 0.333334 0.666668 0.250000
O O9 0.455802 0.696238 0.159235
O O10 0.712456 0.117442 0.576109
#
# Coordination Sequence:
#
# PCOD8330191 Si02
#       6
#    12   4  12   8  12  24
#     4  11  21  38  62  89 117 158 198 243 307 359
#     4   9  18  36  57  84 109 146 205 246 291 348
#     4  10  21  38  61  86 120 162 202 252 301 357
#     4  12  24  39  58  86 124 162 207 258 307 359
#     4  10  22  38  60  88 122 153 195 252 298 362
#     4  11  22  40  59  89 123 158 204 249 303 368
#
# _framework density 18.799385000000001
#
# number of rings (size 3 to 8) (size 9 to 14) (size 15 to 20)
#    0.000    1.333    3.333    3.000    0.000    0.000 
#    0.000    4.167    0.000    0.000    0.000    9.333 
#    0.000    0.000    0.000    0.000    0.000    0.000 
#
# Total GULP energy -892445.338279 kJ/mol
# GULP energy per Si atom -12395.074143 kJ/mol
# Density = 1.875660 g / cm^3
# Si number density = 18.799385 Si / 1000 Ang^3
#
#
#
# Elastic Constant Matrix: (Units=GPa)
#
#
# Indices 1 2 3 4 5 6 
#
# 1 108.7987 30.3063 17.9121 -0.0001 0.0001 -0.0002
# 2 30.3063 108.7986 17.9119 -0.0001 0.0002 0.0000
# 3 17.9121 17.9119 69.7366 -0.0001 0.0001 -0.0001
# 4 -0.0001 -0.0001 -0.0001 30.4393 -0.0001 0.0000
# 5 0.0001 0.0002 0.0001 -0.0001 30.4395 0.0000
# 6 -0.0002 0.0000 -0.0001 0.0000 0.0000 39.2463
#
#
#
# Elastic Compliance Matrix: (Units=1/GPa)
#
#
# Indices 1 2 3 4 5 6 
#
# 1 0.010219 -0.002521 -0.001977 0.000000 0.000000 0.000000
# 2 -0.002521 0.010219 -0.001977 0.000000 0.000000 0.000000
# 3 -0.001977 -0.001977 0.015355 0.000000 0.000000 0.000000
# 4 0.000000 0.000000 0.000000 0.032852 0.000000 0.000000
# 5 0.000000 0.000000 0.000000 0.000000 0.032852 0.000000
# 6 0.000000 0.000000 0.000000 0.000000 0.000000 0.025480
#
#
# Mechanical properties :
#
#
# Convention : Reuss Voigt Hill
#
# Bulk Modulus (GPa) = 43.77818 46.62161 45.19989
# Shear Modulus (GPa) = 33.88839 34.77193 34.33016
#
# Velocity S-wave (km/s) = 4.25035 4.30540 4.27796
# Velocity P-wave (km/s) = 6.88657 7.04050 6.96396
#
# Compressibility (1/GPa) = 0.02284243
#
# Stress axis : x y z
#
# Youngs Moduli (GPa) = 97.85631 97.85634 65.12366
#
# Poissons Ratio (x) = 0.24670 0.12877
# Poissons Ratio (y) = 0.24670 0.12876
# Poissons Ratio (z) = 0.19349 0.19348
#
# Static dielectric constant tensor:
#      x y z
#    x 3.545620 0.000000 0.000000 
#    y 0.000000 3.545630 0.000000 
#    z 0.000000 0.000000 3.507230 
# 
# 
# High freq. dielectric constant tensor:
#      x y z
#    x 1.742850 0.000000 0.000000 
#    y 0.000000 1.742850 0.000000 
#    z 0.000000 0.000000 1.728470 
# 
# From -- ./inp_files/8710.got.cif
#   From: 2010.03.12/outbox.cif.g09.slc.cpg/sg193_5_cif.got.tgz:8710.got - 2010.04.01 12:20:39.
