data_PCOD8330337
_publ_section_title
;
Structure prediction by ZEFSAII (Michael W. Deem and Ramdas Pophale) SiO2 
 PCOD8330337
Probable space group: P 63/M M C
;
_chemical_formula_sum "Si O2"
_cell_formula_units_Z 96
_cell_length_a 29.078782
_cell_length_b 29.078782
_cell_length_c 9.274916
_cell_angle_alpha 90.000000
_cell_angle_beta 90.000000
_cell_angle_gamma 120.000000
_cell_volume 6791.927477
_symmetry_space_group_name_H-M "P 63/M M C"
_symmetry_group_IT_number 194
_symmetry_cell_setting 'hexagonal'
loop_
_space_group_symop_operation_xyz
x,y,z
x-y,x,1/2+z
-y,x-y,z
-x,-y,1/2+z
-x+y,-x,z
y,-x+y,1/2+z
x-y,-y,-z
-x,-x+y,-z
y,x,-z
-y,-x,1/2-z
-x+y,y,1/2-z
x,x-y,1/2-z
-x,-y,-z
-x+y,-x,1/2-z
y,-x+y,-z
x,y,1/2-z
x-y,x,-z
-y,x-y,1/2-z
-x+y,y,z
x,x-y,z
-y,-x,z
y,x,1/2+z
x-y,-y,1/2+z
-x,-x+y,1/2+z
loop_
_atom_site_type_symbol
_atom_site_label
_atom_site_fract_x
_atom_site_fract_y
_atom_site_fract_z
Si Si1 0.124475 0.697262 0.581147
Si Si2 0.525644 0.947370 0.917578
Si Si3 0.211250 0.788750 0.078582
Si Si4 0.315413 0.157707 0.414185
Si Si5 0.947194 0.694955 0.413452
O O1 0.138254 0.707626 0.750000
O O2 0.100552 0.635837 0.539116
O O3 0.178569 0.729610 0.489011
O O4 0.082063 0.715524 0.537473
O O5 0.536870 0.960678 0.750000
O O6 0.465332 0.930663 0.959315
O O7 0.567540 0.000000 0.000000
O O8 0.214477 0.785524 0.250000
O O9 0.180657 0.819344 0.032414
O O10 0.339774 0.169887 0.250000
O O11 0.282326 0.188489 0.434490
O O12 0.965654 0.699371 0.250000
O O13 0.000000 0.731726 0.500000
#
# Coordination Sequence:
#
# PCOD8330337 Si02
#       5
#    24  24  12  12  24
#     4   9  17  29  41  54  79 109 131 156 198 242
#     4   9  17  28  42  60  82 109 138 165 195 234
#     4  10  18  26  40  60  76  94 128 169 197 224
#     4   8  16  30  40  50  76 108 129 153 196 238
#     4   9  16  25  38  54  73 101 133 160 189 226
#
# _framework density 14.134425999999999
#
# number of rings (size 3 to 8) (size 9 to 14) (size 15 to 20)
#    0.000    3.000    0.000    3.375    0.000    5.000 
#    0.000    0.000    0.000    0.000    0.000    0.000 
#    1.250    0.000    2.250    0.375    0.750    4.500 
#
# Total GULP energy -1189658.190633 kJ/mol
# GULP energy per Si atom -12392.272819 kJ/mol
# Density = 1.410226 g / cm^3
# Si number density = 14.134426 Si / 1000 Ang^3
#
#
#
# Elastic Constant Matrix: (Units=GPa)
#
#
# Indices 1 2 3 4 5 6 
#
# 1 93.0520 47.9847 40.8251 0.0000 0.0000 0.0000
# 2 47.9847 93.0520 40.8251 0.0000 0.0000 0.0000
# 3 40.8251 40.8251 59.5404 0.0000 0.0000 0.0000
# 4 0.0000 0.0000 0.0000 20.2045 0.0000 0.0000
# 5 0.0000 0.0000 0.0000 0.0000 20.2045 0.0000
# 6 0.0000 0.0000 0.0000 0.0000 0.0000 22.5336
#
#
#
# Elastic Compliance Matrix: (Units=1/GPa)
#
#
# Indices 1 2 3 4 5 6 
#
# 1 0.016973 -0.005216 -0.008062 0.000000 0.000000 0.000000
# 2 -0.005216 0.016973 -0.008062 0.000000 0.000000 0.000000
# 3 -0.008062 -0.008062 0.027851 0.000000 0.000000 0.000000
# 4 0.000000 0.000000 0.000000 0.049494 0.000000 0.000000
# 5 0.000000 0.000000 0.000000 0.000000 0.049494 0.000000
# 6 0.000000 0.000000 0.000000 0.000000 0.000000 0.044378
#
#
# Mechanical properties :
#
#
# Convention : Reuss Voigt Hill
#
# Bulk Modulus (GPa) = 52.30488 56.10160 54.20324
# Shear Modulus (GPa) = 19.66837 20.32247 19.99542
#
# Velocity S-wave (km/s) = 3.73436 3.79595 3.76528
# Velocity P-wave (km/s) = 7.46187 7.68049 7.57197
#
# Compressibility (1/GPa) = 0.01911867
#
# Stress axis : x y z
#
# Youngs Moduli (GPa) = 58.91599 58.91599 35.90554
#
# Poissons Ratio (x) = 0.30729 0.28946
# Poissons Ratio (y) = 0.30729 0.28946
# Poissons Ratio (z) = 0.47497 0.47497
#
# Static dielectric constant tensor:
#      x y z
#    x 2.779010 0.000000 0.000000 
#    y 0.000000 2.779010 0.000000 
#    z 0.000000 0.000000 2.717520 
# 
# 
# High freq. dielectric constant tensor:
#      x y z
#    x 1.517670 0.000000 0.000000 
#    y 0.000000 1.517670 0.000000 
#    z 0.000000 0.000000 1.540170 
# 
# From -- ./inp_files/1751.got.cif
#   From: 2010.03.12/outbox.cif.g09.slc.cpg/sg194_1_cif.got.tgz:1751.got - 2010.04.01 12:26:19.
