data_PCOD8330487
_publ_section_title
;
Structure prediction by ZEFSAII (Michael W. Deem and Ramdas Pophale) SiO2 
 PCOD8330487
Probable space group: P 63/M M C
;
_chemical_formula_sum "Si O2"
_cell_formula_units_Z 120
_cell_length_a 17.480119
_cell_length_b 17.480119
_cell_length_c 30.299826
_cell_angle_alpha 90.000000
_cell_angle_beta 90.000000
_cell_angle_gamma 120.000000
_cell_volume 8017.879703
_symmetry_space_group_name_H-M "P 63/M M C"
_symmetry_group_IT_number 194
_symmetry_cell_setting 'hexagonal'
loop_
_space_group_symop_operation_xyz
x,y,z
x-y,x,1/2+z
-y,x-y,z
-x,-y,1/2+z
-x+y,-x,z
y,-x+y,1/2+z
x-y,-y,-z
-x,-x+y,-z
y,x,-z
-y,-x,1/2-z
-x+y,y,1/2-z
x,x-y,1/2-z
-x,-y,-z
-x+y,-x,1/2-z
y,-x+y,-z
x,y,1/2-z
x-y,x,-z
-y,x-y,1/2-z
-x+y,y,z
x,x-y,z
-y,-x,z
y,x,1/2+z
x-y,-y,1/2+z
-x,-x+y,1/2+z
loop_
_atom_site_type_symbol
_atom_site_label
_atom_site_fract_x
_atom_site_fract_y
_atom_site_fract_z
Si Si1 0.824183 0.824261 0.800179
Si Si2 0.758530 0.061973 0.040053
Si Si3 0.937530 0.239442 0.621786
Si Si4 0.507073 0.666397 0.404095
Si Si5 0.158595 0.666373 0.993387
O O1 0.792326 0.795750 0.750000
O O2 0.813909 0.906955 0.814607
O O3 0.763063 0.740471 0.830796
O O4 0.926653 0.853305 0.805534
O O5 0.855473 0.144528 0.038712
O O6 0.685818 0.092820 0.035022
O O7 0.745875 0.013574 0.086083
O O8 0.752335 0.000000 0.000000
O O9 0.855691 0.144309 0.608208
O O10 0.904128 0.310356 0.624396
O O11 0.476584 0.738292 0.396368
O O12 0.428061 0.571940 0.388553
O O13 0.531145 0.665425 0.455312
O O14 0.144874 0.572437 0.978132
O O15 0.260095 0.739906 0.985016
#
# Coordination Sequence:
#
# PCOD8330487 Si02
#       5
#    24  24  24  24  24
#     4   9  17  30  49  70  88 107 136 178 224 263
#     4  11  20  30  42  58  84 118 148 175 208 249
#     4  10  19  31  45  63  87 114 144 178 215 257
#     4   9  16  27  43  64  88 115 147 181 216 253
#     4   9  17  28  43  62  85 113 146 184 221 254
#
# _framework density 14.96655
#
# number of rings (size 3 to 8) (size 9 to 14) (size 15 to 20)
#    0.000    2.400    2.000    1.800    0.000    3.600 
#    0.000    0.000    0.000    5.400    0.000    0.000 
#    0.000    1.600    0.000    0.000    0.000    2.400 
#
# Total GULP energy -1488062.194863 kJ/mol
# GULP energy per Si atom -12400.518291 kJ/mol
# Density = 1.493249 g / cm^3
# Si number density = 14.966550 Si / 1000 Ang^3
#
#
#
# Elastic Constant Matrix: (Units=GPa)
#
#
# Indices 1 2 3 4 5 6 
#
# 1 100.9213 57.3766 50.5379 0.0000 0.0000 0.0000
# 2 57.3766 100.9213 50.5379 0.0000 0.0000 0.0000
# 3 50.5379 50.5379 76.5796 0.0000 0.0000 0.0000
# 4 0.0000 0.0000 0.0000 20.8726 0.0000 0.0000
# 5 0.0000 0.0000 0.0000 0.0000 20.8726 0.0000
# 6 0.0000 0.0000 0.0000 0.0000 0.0000 21.7724
#
#
#
# Elastic Compliance Matrix: (Units=1/GPa)
#
#
# Indices 1 2 3 4 5 6 
#
# 1 0.016941 -0.006024 -0.007205 0.000000 0.000000 0.000000
# 2 -0.006024 0.016941 -0.007205 0.000000 0.000000 0.000000
# 3 -0.007205 -0.007205 0.022568 0.000000 0.000000 0.000000
# 4 0.000000 0.000000 0.000000 0.047910 0.000000 0.000000
# 5 0.000000 0.000000 0.000000 0.000000 0.047910 0.000000
# 6 0.000000 0.000000 0.000000 0.000000 0.000000 0.045930
#
#
# Mechanical properties :
#
#
# Convention : Reuss Voigt Hill
#
# Bulk Modulus (GPa) = 64.17089 66.14744 65.15917
# Shear Modulus (GPa) = 20.46986 20.70151 20.58568
#
# Velocity S-wave (km/s) = 3.70226 3.72315 3.71272
# Velocity P-wave (km/s) = 7.82592 7.92309 7.87465
#
# Compressibility (1/GPa) = 0.01558339
#
# Stress axis : x y z
#
# Youngs Moduli (GPa) = 59.02730 59.02730 44.31041
#
# Poissons Ratio (x) = 0.35556 0.31926
# Poissons Ratio (y) = 0.35556 0.31926
# Poissons Ratio (z) = 0.42529 0.42529
#
# Static dielectric constant tensor:
#      x y z
#    x 2.913850 0.000000 0.000000 
#    y 0.000000 2.913850 0.000000 
#    z 0.000000 0.000000 2.704640 
# 
# 
# High freq. dielectric constant tensor:
#      x y z
#    x 1.575820 0.000000 0.000000 
#    y 0.000000 1.575820 0.000000 
#    z 0.000000 0.000000 1.539540 
# 
# From -- ./inp_files/11855.got.cif
#   From: 2010.03.12/outbox.cif.g09.slc.cpg/sg194_6_cif.got.tgz:11855.got - 2010.04.01 12:26:19.
