data_PCOD8330667
_publ_section_title
;
Structure prediction by ZEFSAII (Michael W. Deem and Ramdas Pophale) SiO2 
 PCOD8330667
Probable space group: P 63/M M C
;
_chemical_formula_sum "Si O2"
_cell_formula_units_Z 72
_cell_length_a 12.654190
_cell_length_b 12.654190
_cell_length_c 30.277784
_cell_angle_alpha 90.000000
_cell_angle_beta 90.000000
_cell_angle_gamma 120.000000
_cell_volume 4198.782903
_symmetry_space_group_name_H-M "P 63/M M C"
_symmetry_group_IT_number 194
_symmetry_cell_setting 'hexagonal'
loop_
_space_group_symop_operation_xyz
x,y,z
x-y,x,1/2+z
-y,x-y,z
-x,-y,1/2+z
-x+y,-x,z
y,-x+y,1/2+z
x-y,-y,-z
-x,-x+y,-z
y,x,-z
-y,-x,1/2-z
-x+y,y,1/2-z
x,x-y,1/2-z
-x,-y,-z
-x+y,-x,1/2-z
y,-x+y,-z
x,y,1/2-z
x-y,x,-z
-y,x-y,1/2-z
-x+y,y,z
x,x-y,z
-y,-x,z
y,x,1/2+z
x-y,-y,1/2+z
-x,-x+y,1/2+z
loop_
_atom_site_type_symbol
_atom_site_label
_atom_site_fract_x
_atom_site_fract_y
_atom_site_fract_z
Si Si1 0.913369 0.333171 0.040927
Si Si2 0.000448 0.754578 0.877527
Si Si3 0.333321 0.909166 0.199734
O O1 0.893652 0.446826 0.048199
O O2 0.783883 0.216118 0.031047
O O3 0.975342 0.317910 0.084487
O O4 0.000000 0.351340 0.000000
O O5 0.106452 0.893549 0.874067
O O6 0.876203 0.752406 0.888894
O O7 0.993965 0.689996 0.831115
O O8 0.336167 0.952188 0.250000
O O9 0.461996 0.923991 0.185716
O O10 0.232306 0.767695 0.193837
#
# Coordination Sequence:
#
# PCOD8330667 Si02
#       3
#    24  24  24
#     4  10  20  34  52  73  97 125 158 197 241 288
#     4  10  20  33  49  70  97 129 163 197 234 279
#     4   9  17  30  49  72  96 122 154 194 239 283
#
# _framework density 17.147828000000001
#
# number of rings (size 3 to 8) (size 9 to 14) (size 15 to 20)
#    0.000    2.333    0.000    3.000    0.000    2.000 
#    0.000    0.000    0.000   18.667    0.000    0.000 
#    0.000    0.000    0.000    0.000    0.000    0.000 
#
# Total GULP energy -893003.459368 kJ/mol
# GULP energy per Si atom -12402.825825 kJ/mol
# Density = 1.710880 g / cm^3
# Si number density = 17.147828 Si / 1000 Ang^3
#
#
#
# Elastic Constant Matrix: (Units=GPa)
#
#
# Indices 1 2 3 4 5 6 
#
# 1 107.8605 68.3318 66.0347 0.0000 0.0000 0.0000
# 2 68.3318 107.8605 66.0347 0.0000 0.0000 0.0000
# 3 66.0347 66.0347 105.4934 0.0000 0.0000 0.0000
# 4 0.0000 0.0000 0.0000 28.0005 0.0000 0.0000
# 5 0.0000 0.0000 0.0000 0.0000 28.0005 0.0000
# 6 0.0000 0.0000 0.0000 0.0000 0.0000 19.7644
#
#
#
# Elastic Compliance Matrix: (Units=1/GPa)
#
#
# Indices 1 2 3 4 5 6 
#
# 1 0.017995 -0.007303 -0.006693 0.000000 0.000000 0.000000
# 2 -0.007303 0.017995 -0.006693 0.000000 0.000000 0.000000
# 3 -0.006693 -0.006693 0.017859 0.000000 0.000000 0.000000
# 4 0.000000 0.000000 0.000000 0.035714 0.000000 0.000000
# 5 0.000000 0.000000 0.000000 0.000000 0.035714 0.000000
# 6 0.000000 0.000000 0.000000 0.000000 0.000000 0.050596
#
#
# Mechanical properties :
#
#
# Convention : Reuss Voigt Hill
#
# Bulk Modulus (GPa) = 80.18481 80.22410 80.20445
# Shear Modulus (GPa) = 22.58273 23.20727 22.89500
#
# Velocity S-wave (km/s) = 3.63291 3.68280 3.65794
# Velocity P-wave (km/s) = 8.02869 8.06036 8.04454
#
# Compressibility (1/GPa) = 0.01247119
#
# Stress axis : x y z
#
# Youngs Moduli (GPa) = 55.56986 55.56986 55.99539
#
# Poissons Ratio (x) = 0.40581 0.37479
# Poissons Ratio (y) = 0.40581 0.37479
# Poissons Ratio (z) = 0.37194 0.37194
#
# Static dielectric constant tensor:
#      x y z
#    x 3.179030 0.000000 0.000000 
#    y 0.000000 3.179030 0.000000 
#    z 0.000000 0.000000 3.333700 
# 
# 
# High freq. dielectric constant tensor:
#      x y z
#    x 1.665190 0.000000 0.000000 
#    y 0.000000 1.665190 0.000000 
#    z 0.000000 0.000000 1.672060 
# 
# From -- ./inp_files/11280.got.cif
#   From: 2010.03.12/outbox.cif.g09.slc.cpg/sg194_6_cif.got.tgz:11280.got - 2010.04.01 12:26:19.
