data_PCOD8330633
_publ_section_title
;
Structure prediction by ZEFSAII (Michael W. Deem and Ramdas Pophale) SiO2 
 PCOD8330633
Probable space group: P 63/M M C
;
_chemical_formula_sum "Si O2"
_cell_formula_units_Z 132
_cell_length_a 18.003373
_cell_length_b 18.003373
_cell_length_c 24.058816
_cell_angle_alpha 90.000000
_cell_angle_beta 90.000000
_cell_angle_gamma 120.000000
_cell_volume 6753.247108
_symmetry_space_group_name_H-M "P 63/M M C"
_symmetry_group_IT_number 194
_symmetry_cell_setting 'hexagonal'
loop_
_space_group_symop_operation_xyz
x,y,z
x-y,x,1/2+z
-y,x-y,z
-x,-y,1/2+z
-x+y,-x,z
y,-x+y,1/2+z
x-y,-y,-z
-x,-x+y,-z
y,x,-z
-y,-x,1/2-z
-x+y,y,1/2-z
x,x-y,1/2-z
-x,-y,-z
-x+y,-x,1/2-z
y,-x+y,-z
x,y,1/2-z
x-y,x,-z
-y,x-y,1/2-z
-x+y,y,z
x,x-y,z
-y,-x,z
y,x,1/2+z
x-y,-y,1/2+z
-x,-x+y,1/2+z
loop_
_atom_site_type_symbol
_atom_site_label
_atom_site_fract_x
_atom_site_fract_y
_atom_site_fract_z
Si Si1 0.467941 0.100610 0.495176
Si Si2 0.504374 0.836250 0.116041
Si Si3 0.173312 0.997788 0.871977
Si Si4 0.587283 0.000652 0.313744
Si Si5 0.903769 0.263652 0.105196
Si Si6 0.833228 0.834695 0.750000
O O1 0.568653 0.137305 0.479500
O O2 0.459305 0.137599 0.553866
O O3 0.417753 0.123337 0.449875
O O4 0.424937 0.000000 0.500000
O O5 0.406880 0.813760 0.118582
O O6 0.509288 0.754644 0.135778
O O7 0.562235 0.909947 0.159232
O O8 0.073627 0.926374 0.884026
O O9 0.238906 0.978857 0.907718
O O10 0.185285 0.092643 0.883274
O O11 0.200997 0.985994 0.808797
O O12 0.612848 0.999953 0.250000
O O13 0.510177 0.020353 0.319619
O O14 0.666708 0.073650 0.347055
O O15 0.822001 0.178000 0.127311
O O16 0.905393 0.810785 0.750000
O O17 0.874497 0.937249 0.750000
#
# Coordination Sequence:
#
# PCOD8330633 Si02
#       6
#    24  24  24  24  24  12
#     4  10  19  37  62  84 111 147 187 232 289 353
#     4  10  20  36  61  91 120 150 186 231 283 343
#     4   9  18  31  48  72 107 149 190 230 277 328
#     4  10  22  40  60  82 115 159 195 223 276 350
#     4  11  22  35  56  86 114 145 192 248 291 326
#     4   8  13  24  42  64  93 134 182 228 270 316
#
# _framework density 19.546153
#
# number of rings (size 3 to 8) (size 9 to 14) (size 15 to 20)
#    0.000    2.182    1.818    1.545    1.273    2.909 
#    0.000    0.000    0.000    5.091    0.000    0.000 
#    0.000    3.636    0.000    0.000    0.000    1.818 
#
# Total GULP energy -1635664.044922 kJ/mol
# GULP energy per Si atom -12391.394280 kJ/mol
# Density = 1.950166 g / cm^3
# Si number density = 19.546153 Si / 1000 Ang^3
#
#
#
# Elastic Constant Matrix: (Units=GPa)
#
#
# Indices 1 2 3 4 5 6 
#
# 1 68.9574 29.0044 31.3756 0.0000 0.0000 0.0000
# 2 29.0044 68.9574 31.3756 0.0000 0.0000 0.0000
# 3 31.3756 31.3756 86.5648 0.0000 0.0000 0.0000
# 4 0.0000 0.0000 0.0000 16.5128 0.0000 0.0000
# 5 0.0000 0.0000 0.0000 0.0000 16.5128 0.0000
# 6 0.0000 0.0000 0.0000 0.0000 0.0000 19.9765
#
#
#
# Elastic Compliance Matrix: (Units=1/GPa)
#
#
# Indices 1 2 3 4 5 6 
#
# 1 0.019162 -0.005867 -0.004819 0.000000 0.000000 0.000000
# 2 -0.005867 0.019162 -0.004819 0.000000 0.000000 0.000000
# 3 -0.004819 -0.004819 0.015045 0.000000 0.000000 0.000000
# 4 0.000000 0.000000 0.000000 0.060559 0.000000 0.000000
# 5 0.000000 0.000000 0.000000 0.000000 0.060559 0.000000
# 6 0.000000 0.000000 0.000000 0.000000 0.000000 0.050059
#
#
# Mechanical properties :
#
#
# Convention : Reuss Voigt Hill
#
# Bulk Modulus (GPa) = 44.72307 45.33231 45.02769
# Shear Modulus (GPa) = 19.01074 19.44868 19.22971
#
# Velocity S-wave (km/s) = 3.12205 3.15781 3.13998
# Velocity P-wave (km/s) = 5.99389 6.04470 6.01935
#
# Compressibility (1/GPa) = 0.02235983
#
# Stress axis : x y z
#
# Youngs Moduli (GPa) = 52.18637 52.18637 66.46656
#
# Poissons Ratio (x) = 0.30619 0.32028
# Poissons Ratio (y) = 0.30619 0.32028
# Poissons Ratio (z) = 0.25147 0.25147
#
# Static dielectric constant tensor:
#      x y z
#    x 3.489370 0.000000 0.000000 
#    y 0.000000 3.489370 0.000000 
#    z 0.000000 0.000000 3.590310 
# 
# 
# High freq. dielectric constant tensor:
#      x y z
#    x 1.757520 0.000000 0.000000 
#    y 0.000000 1.757520 0.000000 
#    z 0.000000 0.000000 1.751850 
# 
# From -- ./inp_files/9539.got.cif
#   From: 2010.03.12/outbox.cif.g09.slc.cpg/sg194_5_cif.got.tgz:9539.got - 2010.04.01 12:26:19.
