data_PCOD8330664
_publ_section_title
;
Structure prediction by ZEFSAII (Michael W. Deem and Ramdas Pophale) SiO2 
 PCOD8330664
Probable space group: P 63/M M C
;
_chemical_formula_sum "Si O2"
_cell_formula_units_Z 168
_cell_length_a 20.935781
_cell_length_b 20.935781
_cell_length_c 24.270796
_cell_angle_alpha 90.000000
_cell_angle_beta 90.000000
_cell_angle_gamma 120.000000
_cell_volume 9212.828465
_symmetry_space_group_name_H-M "P 63/M M C"
_symmetry_group_IT_number 194
_symmetry_cell_setting 'hexagonal'
loop_
_space_group_symop_operation_xyz
x,y,z
x-y,x,1/2+z
-y,x-y,z
-x,-y,1/2+z
-x+y,-x,z
y,-x+y,1/2+z
x-y,-y,-z
-x,-x+y,-z
y,x,-z
-y,-x,1/2-z
-x+y,y,1/2-z
x,x-y,1/2-z
-x,-y,-z
-x+y,-x,1/2-z
y,-x+y,-z
x,y,1/2-z
x-y,x,-z
-y,x-y,1/2-z
-x+y,y,z
x,x-y,z
-y,-x,z
y,x,1/2+z
x-y,-y,1/2+z
-x,-x+y,1/2+z
loop_
_atom_site_type_symbol
_atom_site_label
_atom_site_fract_x
_atom_site_fract_y
_atom_site_fract_z
Si Si1 0.532265 0.615271 0.594943
Si Si2 0.081317 0.658832 0.108418
Si Si3 0.139153 0.999133 0.684828
Si Si4 0.293158 0.263093 0.813106
Si Si5 0.596468 0.871095 0.688600
Si Si6 0.181416 0.666883 0.488401
Si Si7 0.524929 0.191224 0.687980
O O1 0.463079 0.536922 0.605828
O O2 0.600691 0.600969 0.587272
O O3 0.539036 0.664355 0.647442
O O4 0.521534 0.655541 0.542926
O O5 0.080072 0.724715 0.142432
O O6 0.138095 0.686066 0.057623
O O7 0.115819 0.627548 0.152941
O O8 0.141149 0.991047 0.750000
O O9 0.080182 0.919819 0.659165
O O10 0.112716 0.056358 0.668218
O O11 0.221374 0.029427 0.663041
O O12 0.314090 0.252639 0.750000
O O13 0.273834 0.327488 0.814043
O O14 0.562664 0.857774 0.750000
O O15 0.611275 0.805638 0.670981
O O16 0.184993 0.592497 0.474594
O O17 0.264335 0.735665 0.495086
O O18 0.494885 0.170243 0.750000
O O19 0.612722 0.225443 0.686239
O O20 0.508146 0.254073 0.664410
#
# Coordination Sequence:
#
# PCOD8330664 Si02
#       7
#    24  24  24  24  24  24  24
#     4  10  21  36  54  77 104 132 163 203 253 305
#     4  11  21  34  52  75 101 131 168 210 258 307
#     4   9  16  26  42  65  95 132 172 211 250 294
#     4   9  18  31  47  70 101 136 171 207 249 297
#     4   9  17  31  52  76 102 133 169 204 239 287
#     4  11  23  39  58  77  99 129 167 211 257 307
#     4  10  20  33  49  70 100 138 177 214 250 292
#
# _framework density 18.235441999999999
#
# number of rings (size 3 to 8) (size 9 to 14) (size 15 to 20)
#    0.000    2.143    0.000    3.857    0.000    6.000 
#    0.000    2.857    0.000    0.286    0.000    0.000 
#    0.000    0.000    0.000    0.857    0.000   45.143 
#
# Total GULP energy -2081811.404147 kJ/mol
# GULP energy per Si atom -12391.734548 kJ/mol
# Density = 1.819394 g / cm^3
# Si number density = 18.235442 Si / 1000 Ang^3
#
#
#
# Elastic Constant Matrix: (Units=GPa)
#
#
# Indices 1 2 3 4 5 6 
#
# 1 86.6908 40.4471 41.5261 0.0000 0.0000 0.0000
# 2 40.4471 86.6908 41.5261 0.0000 0.0000 0.0000
# 3 41.5261 41.5261 77.0947 0.0000 0.0000 0.0000
# 4 0.0000 0.0000 0.0000 21.3136 0.0000 0.0000
# 5 0.0000 0.0000 0.0000 0.0000 21.3136 0.0000
# 6 0.0000 0.0000 0.0000 0.0000 0.0000 23.1218
#
#
#
# Elastic Compliance Matrix: (Units=1/GPa)
#
#
# Indices 1 2 3 4 5 6 
#
# 1 0.016880 -0.004745 -0.006537 0.000000 0.000000 0.000000
# 2 -0.004745 0.016880 -0.006537 0.000000 0.000000 0.000000
# 3 -0.006537 -0.006537 0.020013 0.000000 0.000000 0.000000
# 4 0.000000 0.000000 0.000000 0.046918 0.000000 0.000000
# 5 0.000000 0.000000 0.000000 0.000000 0.046918 0.000000
# 6 0.000000 0.000000 0.000000 0.000000 0.000000 0.043249
#
#
# Mechanical properties :
#
#
# Convention : Reuss Voigt Hill
#
# Bulk Modulus (GPa) = 55.13509 55.27500 55.20505
# Shear Modulus (GPa) = 21.50165 21.61494 21.55830
#
# Velocity S-wave (km/s) = 3.43755 3.44659 3.44207
# Velocity P-wave (km/s) = 6.78649 6.79826 6.79238
#
# Compressibility (1/GPa) = 0.01813727
#
# Stress axis : x y z
#
# Youngs Moduli (GPa) = 59.24156 59.24156 49.96790
#
# Poissons Ratio (x) = 0.28107 0.32662
# Poissons Ratio (y) = 0.28107 0.32662
# Poissons Ratio (z) = 0.38724 0.38724
#
# Static dielectric constant tensor:
#      x y z
#    x 3.492740 0.000000 0.000000 
#    y 0.000000 3.492740 0.000000 
#    z 0.000000 0.000000 3.363470 
# 
# 
# High freq. dielectric constant tensor:
#      x y z
#    x 1.710180 0.000000 0.000000 
#    y 0.000000 1.710180 0.000000 
#    z 0.000000 0.000000 1.684120 
# 
# From -- ./inp_files/9854.got.cif
#   From: 2010.03.12/outbox.cif.g09.slc.cpg/sg194_5_cif.got.tgz:9854.got - 2010.04.01 12:26:19.
