data_PCOD8330508
_publ_section_title
;
Structure prediction by ZEFSAII (Michael W. Deem and Ramdas Pophale) SiO2 
 PCOD8330508
Probable space group: P 63/M M C
;
_chemical_formula_sum "Si O2"
_cell_formula_units_Z 132
_cell_length_a 17.039515
_cell_length_b 17.039515
_cell_length_c 30.760330
_cell_angle_alpha 90.000000
_cell_angle_beta 90.000000
_cell_angle_gamma 120.000000
_cell_volume 7734.568327
_symmetry_space_group_name_H-M "P 63/M M C"
_symmetry_group_IT_number 194
_symmetry_cell_setting 'hexagonal'
loop_
_space_group_symop_operation_xyz
x,y,z
x-y,x,1/2+z
-y,x-y,z
-x,-y,1/2+z
-x+y,-x,z
y,-x+y,1/2+z
x-y,-y,-z
-x,-x+y,-z
y,x,-z
-y,-x,1/2-z
-x+y,y,1/2-z
x,x-y,1/2-z
-x,-y,-z
-x+y,-x,1/2-z
y,-x+y,-z
x,y,1/2-z
x-y,x,-z
-y,x-y,1/2-z
-x+y,y,z
x,x-y,z
-y,-x,z
y,x,1/2+z
x-y,-y,1/2+z
-x,-x+y,1/2+z
loop_
_atom_site_type_symbol
_atom_site_label
_atom_site_fract_x
_atom_site_fract_y
_atom_site_fract_z
Si Si1 0.095959 0.724453 0.048160
Si Si2 0.578442 0.978091 0.612074
Si Si3 0.709937 0.765812 0.836320
Si Si4 0.665540 0.152668 0.033903
Si Si5 0.177108 0.178276 0.922071
Si Si6 0.999275 0.184993 0.250000
O O1 0.196709 0.803292 0.060673
O O2 0.026918 0.763386 0.047382
O O3 0.067473 0.647353 0.084890
O O4 0.093747 0.685287 0.000485
O O5 0.494427 0.988853 0.628600
O O6 0.626793 0.961394 0.653227
O O7 0.544945 0.891425 0.580929
O O8 0.672965 0.836483 0.832910
O O9 0.786842 0.798100 0.872946
O O10 0.755056 0.761162 0.791580
O O11 0.575974 0.151947 0.017949
O O12 0.744974 0.255027 0.036876
O O13 0.145093 0.072547 0.922654
O O14 0.095643 0.191285 0.940357
O O15 0.093024 0.186048 0.250000
O O16 0.918869 0.081132 0.250000
#
# Coordination Sequence:
#
# PCOD8330508 Si02
#       6
#    24  24  24  24  24  12
#     4   9  18  30  44  66  95 126 161 202 243 281
#     4  10  19  32  50  70  93 123 159 195 234 283
#     4   9  18  31  47  71 100 126 153 190 237 283
#     4  10  19  31  48  69  93 120 154 198 245 289
#     4   9  16  27  44  66  94 128 165 200 235 279
#     4  10  19  32  53  80 108 134 160 190 225 268
#
# _framework density 17.066241000000002
#
# number of rings (size 3 to 8) (size 9 to 14) (size 15 to 20)
#    0.000    2.545    0.000    2.636    0.000    2.909 
#    0.000    3.182    0.000    0.727    0.000    0.000 
#    0.000   50.909    0.000    0.000    0.000    0.000 
#
# Total GULP energy -1636957.032767 kJ/mol
# GULP energy per Si atom -12401.189642 kJ/mol
# Density = 1.702740 g / cm^3
# Si number density = 17.066241 Si / 1000 Ang^3
#
#
#
# Elastic Constant Matrix: (Units=GPa)
#
#
# Indices 1 2 3 4 5 6 
#
# 1 115.0242 61.1130 48.6407 0.0000 0.0000 0.0000
# 2 61.1130 115.0242 48.6407 0.0000 0.0000 0.0000
# 3 48.6407 48.6407 81.7465 0.0000 0.0000 0.0000
# 4 0.0000 0.0000 0.0000 21.5249 0.0000 0.0000
# 5 0.0000 0.0000 0.0000 0.0000 21.5249 0.0000
# 6 0.0000 0.0000 0.0000 0.0000 0.0000 26.9556
#
#
#
# Elastic Compliance Matrix: (Units=1/GPa)
#
#
# Indices 1 2 3 4 5 6 
#
# 1 0.013503 -0.005046 -0.005032 0.000000 0.000000 0.000000
# 2 -0.005046 0.013503 -0.005032 0.000000 0.000000 0.000000
# 3 -0.005032 -0.005032 0.018221 0.000000 0.000000 0.000000
# 4 0.000000 0.000000 0.000000 0.046458 0.000000 0.000000
# 5 0.000000 0.000000 0.000000 0.000000 0.046458 0.000000
# 6 0.000000 0.000000 0.000000 0.000000 0.000000 0.037098
#
#
# Mechanical properties :
#
#
# Convention : Reuss Voigt Hill
#
# Bulk Modulus (GPa) = 66.63641 69.84267 68.23954
# Shear Modulus (GPa) = 23.75727 24.22778 23.99252
#
# Velocity S-wave (km/s) = 3.73508 3.77189 3.75353
# Velocity P-wave (km/s) = 7.59813 7.74486 7.67185
#
# Compressibility (1/GPa) = 0.01500681
#
# Stress axis : x y z
#
# Youngs Moduli (GPa) = 74.05905 74.05905 54.88202
#
# Poissons Ratio (x) = 0.37372 0.27615
# Poissons Ratio (y) = 0.37372 0.27615
# Poissons Ratio (z) = 0.37265 0.37265
#
# Static dielectric constant tensor:
#      x y z
#    x 3.269870 0.000000 0.000000 
#    y 0.000000 3.269870 0.000000 
#    z 0.000000 0.000000 2.989330 
# 
# 
# High freq. dielectric constant tensor:
#      x y z
#    x 1.660450 0.000000 0.000000 
#    y 0.000000 1.660450 0.000000 
#    z 0.000000 0.000000 1.631520 
# 
# From -- ./inp_files/10762.got.cif
#   From: 2010.03.12/outbox.cif.g09.slc.cpg/sg194_6_cif.got.tgz:10762.got - 2010.04.01 12:26:19.
