data_PCOD8330360
_publ_section_title
;
Structure prediction by ZEFSAII (Michael W. Deem and Ramdas Pophale) SiO2 
 PCOD8330360
Probable space group: P 63/M M C
;
_chemical_formula_sum "Si O2"
_cell_formula_units_Z 132
_cell_length_a 17.129619
_cell_length_b 17.129619
_cell_length_c 32.515128
_cell_angle_alpha 90.000000
_cell_angle_beta 90.000000
_cell_angle_gamma 120.000000
_cell_volume 8262.500648
_symmetry_space_group_name_H-M "P 63/M M C"
_symmetry_group_IT_number 194
_symmetry_cell_setting 'hexagonal'
loop_
_space_group_symop_operation_xyz
x,y,z
x-y,x,1/2+z
-y,x-y,z
-x,-y,1/2+z
-x+y,-x,z
y,-x+y,1/2+z
x-y,-y,-z
-x,-x+y,-z
y,x,-z
-y,-x,1/2-z
-x+y,y,1/2-z
x,x-y,1/2-z
-x,-y,-z
-x+y,-x,1/2-z
y,-x+y,-z
x,y,1/2-z
x-y,x,-z
-y,x-y,1/2-z
-x+y,y,z
x,x-y,z
-y,-x,z
y,x,1/2+z
x-y,-y,1/2+z
-x,-x+y,1/2+z
loop_
_atom_site_type_symbol
_atom_site_label
_atom_site_fract_x
_atom_site_fract_y
_atom_site_fract_z
Si Si1 0.042729 0.612237 0.331117
Si Si2 0.846750 0.513407 0.351979
Si Si3 0.517110 0.850937 0.250000
Si Si4 0.270522 0.897108 0.929931
Si Si5 0.903124 0.274814 0.587282
Si Si6 0.895004 0.362526 0.507672
O O1 0.056356 0.528178 0.341008
O O2 0.091905 0.662710 0.289638
O O3 0.088439 0.682106 0.368184
O O4 0.935766 0.576419 0.324745
O O5 0.762675 0.525350 0.337818
O O6 0.817169 0.408585 0.348350
O O7 0.877997 0.546067 0.398570
O O8 0.415308 0.830615 0.250000
O O9 0.514995 0.757498 0.250000
O O10 0.165120 0.834881 0.918667
O O11 0.291263 0.999627 0.927858
O O12 0.284276 0.863190 0.974067
O O13 0.831851 0.168150 0.589768
O O14 0.870651 0.321292 0.553489
O O15 0.848121 0.424061 0.502335
O O16 0.000000 0.425875 0.500000
#
# Coordination Sequence:
#
# PCOD8330360 Si02
#       6
#    24  24  12  24  24  24
#     4   9  18  31  46  64  87 114 141 174 217 260
#     4   9  16  27  44  66  91 119 149 178 209 247
#     4  10  19  32  49  66  84 108 142 180 215 254
#     4   9  17  28  42  61  86 116 150 185 215 246
#     4  10  18  28  44  64  85 112 145 179 217 260
#     4   9  16  26  41  60  82 109 140 173 209 250
#
# _framework density 15.975792999999999
#
# number of rings (size 3 to 8) (size 9 to 14) (size 15 to 20)
#    0.000    2.727    0.000    2.455    0.000    4.364 
#    0.000    0.455    0.000    9.091    0.000    1.273 
#    0.000    4.364    0.000    1.818    0.000    1.455 
#
# Total GULP energy -1635822.134232 kJ/mol
# GULP energy per Si atom -12392.591926 kJ/mol
# Density = 1.593943 g / cm^3
# Si number density = 15.975793 Si / 1000 Ang^3
#
#
#
# Elastic Constant Matrix: (Units=GPa)
#
#
# Indices 1 2 3 4 5 6 
#
# 1 89.5026 57.8144 42.0734 0.0000 0.0000 0.0000
# 2 57.8144 89.5026 42.0734 0.0000 0.0000 0.0000
# 3 42.0734 42.0734 104.7847 0.0000 0.0000 0.0000
# 4 0.0000 0.0000 0.0000 14.2166 0.0000 0.0000
# 5 0.0000 0.0000 0.0000 0.0000 14.2166 0.0000
# 6 0.0000 0.0000 0.0000 0.0000 0.0000 15.8441
#
#
#
# Elastic Compliance Matrix: (Units=1/GPa)
#
#
# Indices 1 2 3 4 5 6 
#
# 1 0.020183 -0.011375 -0.003537 0.000000 0.000000 0.000000
# 2 -0.011375 0.020183 -0.003537 0.000000 0.000000 0.000000
# 3 -0.003537 -0.003537 0.012384 0.000000 0.000000 0.000000
# 4 0.000000 0.000000 0.000000 0.070340 0.000000 0.000000
# 5 0.000000 0.000000 0.000000 0.000000 0.070340 0.000000
# 6 0.000000 0.000000 0.000000 0.000000 0.000000 0.063115
#
#
# Mechanical properties :
#
#
# Convention : Reuss Voigt Hill
#
# Bulk Modulus (GPa) = 63.07890 63.07915 63.07903
# Shear Modulus (GPa) = 16.73782 18.31073 17.52427
#
# Velocity S-wave (km/s) = 3.24033 3.38916 3.31558
# Velocity P-wave (km/s) = 7.31911 7.40845 7.36392
#
# Compressibility (1/GPa) = 0.01585316
#
# Stress axis : x y z
#
# Youngs Moduli (GPa) = 49.54707 49.54707 80.75261
#
# Poissons Ratio (x) = 0.56358 0.28560
# Poissons Ratio (y) = 0.56358 0.28560
# Poissons Ratio (z) = 0.17523 0.17523
#
# Static dielectric constant tensor:
#      x y z
#    x 2.962120 0.000000 0.000000 
#    y 0.000000 2.962120 0.000000 
#    z 0.000000 0.000000 3.035770 
# 
# 
# High freq. dielectric constant tensor:
#      x y z
#    x 1.599610 0.000000 0.000000 
#    y 0.000000 1.599610 0.000000 
#    z 0.000000 0.000000 1.610650 
# 
# From -- ./inp_files/12061.got.cif
#   From: 2010.03.12/outbox.cif.g09.slc.cpg/sg194_7_cif.got.tgz:12061.got - 2010.04.01 12:26:19.
