data_PCOD8330577
_publ_section_title
;
Structure prediction by ZEFSAII (Michael W. Deem and Ramdas Pophale) SiO2 
 PCOD8330577
Probable space group: P 63/M M C
;
_chemical_formula_sum "Si O2"
_cell_formula_units_Z 168
_cell_length_a 17.200492
_cell_length_b 17.200492
_cell_length_c 32.856883
_cell_angle_alpha 90.000000
_cell_angle_beta 90.000000
_cell_angle_gamma 120.000000
_cell_volume 8418.577846
_symmetry_space_group_name_H-M "P 63/M M C"
_symmetry_group_IT_number 194
_symmetry_cell_setting 'hexagonal'
loop_
_space_group_symop_operation_xyz
x,y,z
x-y,x,1/2+z
-y,x-y,z
-x,-y,1/2+z
-x+y,-x,z
y,-x+y,1/2+z
x-y,-y,-z
-x,-x+y,-z
y,x,-z
-y,-x,1/2-z
-x+y,y,1/2-z
x,x-y,1/2-z
-x,-y,-z
-x+y,-x,1/2-z
y,-x+y,-z
x,y,1/2-z
x-y,x,-z
-y,x-y,1/2-z
-x+y,y,z
x,x-y,z
-y,-x,z
y,x,1/2+z
x-y,-y,1/2+z
-x,-x+y,1/2+z
loop_
_atom_site_type_symbol
_atom_site_label
_atom_site_fract_x
_atom_site_fract_y
_atom_site_fract_z
Si Si1 0.513524 0.847792 0.017591
Si Si2 0.098304 0.724093 0.704381
Si Si3 0.690410 0.932231 0.159682
Si Si4 0.333737 0.847366 0.109884
Si Si5 0.363080 0.089757 0.446594
Si Si6 0.152554 0.666630 0.626602
Si Si7 0.997342 0.178259 0.914926
O O1 0.421297 0.842593 0.005845
O O2 0.498033 0.749017 0.011514
O O3 0.543277 0.882356 0.063611
O O4 0.589663 0.919157 0.987248
O O5 0.101962 0.691165 0.750000
O O6 0.170848 0.829153 0.698872
O O7 0.118910 0.666244 0.672372
O O8 0.999774 0.710101 0.696791
O O9 0.681976 0.840988 0.177345
O O10 0.597096 0.909736 0.138277
O O11 0.774210 0.978660 0.129215
O O12 0.427664 0.855327 0.123201
O O13 0.256601 0.743400 0.112857
O O14 0.370359 0.185180 0.446120
O O15 0.411482 0.084259 0.405262
O O16 0.257985 0.013869 0.446052
O O17 0.150274 0.575137 0.617858
O O18 0.253493 0.746508 0.620305
O O19 0.911679 0.088321 0.931711
O O20 0.081399 0.162798 0.911599
#
# Coordination Sequence:
#
# PCOD8330577 Si02
#       7
#    24  24  24  24  24  24  24
#     4   9  16  28  49  79 115 153 192 229 271 322
#     4  10  21  38  59  81 108 142 179 224 281 338
#     4  10  20  35  57  83 111 141 177 224 281 340
#     4   9  18  33  54  82 115 153 193 233 275 326
#     4   9  17  30  50  77 111 145 178 226 279 324
#     4  10  19  32  51  77 111 150 189 223 263 318
#     4  10  19  34  56  79 103 135 178 227 278 335
#
# _framework density 19.955863999999998
#
# number of rings (size 3 to 8) (size 9 to 14) (size 15 to 20)
#    0.000    2.429    1.429    1.429    0.000    2.286 
#    0.000    2.143    0.000    6.286    0.000    0.000 
#    0.000   10.286    0.000    0.571    0.000    1.000 
#
# Total GULP energy -2083070.911838 kJ/mol
# GULP energy per Si atom -12399.231618 kJ/mol
# Density = 1.991044 g / cm^3
# Si number density = 19.955864 Si / 1000 Ang^3
#
#
#
# Elastic Constant Matrix: (Units=GPa)
#
#
# Indices 1 2 3 4 5 6 
#
# 1 109.2434 46.3022 36.2953 0.0000 0.0000 0.0000
# 2 46.3022 109.2434 36.2953 0.0000 0.0000 0.0000
# 3 36.2953 36.2953 61.2290 0.0000 0.0000 0.0000
# 4 0.0000 0.0000 0.0000 24.7515 0.0000 0.0000
# 5 0.0000 0.0000 0.0000 0.0000 24.7515 0.0000
# 6 0.0000 0.0000 0.0000 0.0000 0.0000 31.4706
#
#
#
# Elastic Compliance Matrix: (Units=1/GPa)
#
#
# Indices 1 2 3 4 5 6 
#
# 1 0.012388 -0.003500 -0.005268 0.000000 0.000000 0.000000
# 2 -0.003500 0.012388 -0.005268 0.000000 0.000000 0.000000
# 3 -0.005268 -0.005268 0.022578 0.000000 0.000000 0.000000
# 4 0.000000 0.000000 0.000000 0.040402 0.000000 0.000000
# 5 0.000000 0.000000 0.000000 0.000000 0.040402 0.000000
# 6 0.000000 0.000000 0.000000 0.000000 0.000000 0.031776
#
#
# Mechanical properties :
#
#
# Convention : Reuss Voigt Hill
#
# Bulk Modulus (GPa) = 51.86781 57.50017 54.68399
# Shear Modulus (GPa) = 25.71578 26.91624 26.31601
#
# Velocity S-wave (km/s) = 3.59365 3.67657 3.63534
# Velocity P-wave (km/s) = 6.57775 6.84829 6.71438
#
# Compressibility (1/GPa) = 0.01927978
#
# Stress axis : x y z
#
# Youngs Moduli (GPa) = 80.72479 80.72479 44.29053
#
# Poissons Ratio (x) = 0.28254 0.23334
# Poissons Ratio (y) = 0.28254 0.23334
# Poissons Ratio (z) = 0.42529 0.42529
#
# Static dielectric constant tensor:
#      x y z
#    x 3.670270 0.000000 0.000000 
#    y 0.000000 3.670270 0.000000 
#    z 0.000000 0.000000 3.496250 
# 
# 
# High freq. dielectric constant tensor:
#      x y z
#    x 1.784290 0.000000 0.000000 
#    y 0.000000 1.784290 0.000000 
#    z 0.000000 0.000000 1.751460 
# 
# From -- ./inp_files/12258.got.cif
#   From: 2010.03.12/outbox.cif.g09.slc.cpg/sg194_7_cif.got.tgz:12258.got - 2010.04.01 12:26:19.
