data_PCOD8330634
_publ_section_title
;
Structure prediction by ZEFSAII (Michael W. Deem and Ramdas Pophale) SiO2 
 PCOD8330634
Probable space group: P 63/M M C
;
_chemical_formula_sum "Si O2"
_cell_formula_units_Z 192
_cell_length_a 22.594854
_cell_length_b 22.594854
_cell_length_c 25.446439
_cell_angle_alpha 90.000000
_cell_angle_beta 90.000000
_cell_angle_gamma 120.000000
_cell_volume 11250.626985
_symmetry_space_group_name_H-M "P 63/M M C"
_symmetry_group_IT_number 194
_symmetry_cell_setting 'hexagonal'
loop_
_space_group_symop_operation_xyz
x,y,z
x-y,x,1/2+z
-y,x-y,z
-x,-y,1/2+z
-x+y,-x,z
y,-x+y,1/2+z
x-y,-y,-z
-x,-x+y,-z
y,x,-z
-y,-x,1/2-z
-x+y,y,1/2-z
x,x-y,1/2-z
-x,-y,-z
-x+y,-x,1/2-z
y,-x+y,-z
x,y,1/2-z
x-y,x,-z
-y,x-y,1/2-z
-x+y,y,z
x,x-y,z
-y,-x,z
y,x,1/2+z
x-y,-y,1/2+z
-x,-x+y,1/2+z
loop_
_atom_site_type_symbol
_atom_site_label
_atom_site_fract_x
_atom_site_fract_y
_atom_site_fract_z
Si Si1 0.790080 0.716268 0.368232
Si Si2 0.385810 0.476789 0.898424
Si Si3 0.143984 0.720677 0.810010
Si Si4 0.059730 0.805381 0.310568
Si Si5 0.665943 0.197987 0.608394
Si Si6 0.001650 0.334639 0.938559
Si Si7 0.125187 0.740543 0.372154
Si Si8 0.199317 0.533020 0.987300
O O1 0.867076 0.734151 0.381067
O O2 0.754217 0.656004 0.325630
O O3 0.791721 0.783547 0.344670
O O4 0.745701 0.692037 0.421811
O O5 0.463396 0.536605 0.890914
O O6 0.343858 0.472383 0.846057
O O7 0.383956 0.405814 0.909075
O O8 0.350618 0.487010 0.949751
O O9 0.126619 0.695454 0.750000
O O10 0.223671 0.776329 0.816618
O O11 0.039882 0.798839 0.250000
O O12 0.116689 0.883312 0.325114
O O13 0.090419 0.754995 0.321990
O O14 0.593630 0.187260 0.628334
O O15 0.722477 0.277524 0.615668
O O16 0.684722 0.148308 0.641696
O O17 0.662587 0.176315 0.547531
O O18 0.925740 0.281188 0.920875
O O19 0.000000 0.342117 0.000000
O O20 0.191650 0.808351 0.392115
O O21 0.259281 0.518561 0.971787
O O22 0.225716 0.612858 0.978079
#
# Coordination Sequence:
#
# PCOD8330634 Si02
#       8
#    24  24  24  24  24  24  24  24
#     4   9  18  32  51  75  98 121 152 189 230 271
#     4  10  20  30  41  61  89 122 157 193 240 294
#     4   9  17  30  48  67  87 116 157 203 245 282
#     4   9  17  30  49  72  96 121 149 181 217 261
#     4   9  16  26  42  63  85 111 146 190 237 281
#     4  10  20  32  46  67  95 123 153 190 228 275
#     4   9  18  31  46  64  86 115 149 182 221 269
#     4   9  16  26  40  58  81 111 149 191 233 278
#
# _framework density 17.065715999999998
#
# number of rings (size 3 to 8) (size 9 to 14) (size 15 to 20)
#    0.000    2.750    0.000    1.750    0.000    3.750 
#    0.000    0.000    0.000    0.875    0.000    0.000 
#    0.000    1.500    0.000    0.000    0.000    0.000 
#
# Total GULP energy -2380317.802229 kJ/mol
# GULP energy per Si atom -12397.488553 kJ/mol
# Density = 1.702687 g / cm^3
# Si number density = 17.065716 Si / 1000 Ang^3
#
#
#
# Elastic Constant Matrix: (Units=GPa)
#
#
# Indices 1 2 3 4 5 6 
#
# 1 88.8874 46.3731 24.3744 0.0000 0.0000 0.0000
# 2 46.3731 88.8874 24.3744 0.0000 0.0000 0.0000
# 3 24.3744 24.3744 56.3275 0.0000 0.0000 0.0000
# 4 0.0000 0.0000 0.0000 19.1383 0.0000 0.0000
# 5 0.0000 0.0000 0.0000 0.0000 19.1383 0.0000
# 6 0.0000 0.0000 0.0000 0.0000 0.0000 21.2571
#
#
#
# Elastic Compliance Matrix: (Units=1/GPa)
#
#
# Indices 1 2 3 4 5 6 
#
# 1 0.016140 -0.007381 -0.003790 0.000000 0.000000 0.000000
# 2 -0.007381 0.016140 -0.003790 0.000000 0.000000 0.000000
# 3 -0.003790 -0.003790 0.021034 0.000000 0.000000 0.000000
# 4 0.000000 0.000000 0.000000 0.052251 0.000000 0.000000
# 5 0.000000 0.000000 0.000000 0.000000 0.052251 0.000000
# 6 0.000000 0.000000 0.000000 0.000000 0.000000 0.047043
#
#
# Mechanical properties :
#
#
# Convention : Reuss Voigt Hill
#
# Bulk Modulus (GPa) = 42.75197 47.14957 44.95077
# Shear Modulus (GPa) = 20.61171 21.17210 20.89191
#
# Velocity S-wave (km/s) = 3.47909 3.52607 3.50266
# Velocity P-wave (km/s) = 6.42219 6.65325 6.53874
#
# Compressibility (1/GPa) = 0.02339073
#
# Stress axis : x y z
#
# Youngs Moduli (GPa) = 61.95650 61.95650 47.54281
#
# Poissons Ratio (x) = 0.45731 0.18020
# Poissons Ratio (y) = 0.45731 0.18020
# Poissons Ratio (z) = 0.23484 0.23484
#
# Static dielectric constant tensor:
#      x y z
#    x 3.234040 0.000000 0.000000 
#    y 0.000000 3.234040 0.000000 
#    z 0.000000 0.000000 3.024650 
# 
# 
# High freq. dielectric constant tensor:
#      x y z
#    x 1.654310 0.000000 0.000000 
#    y 0.000000 1.654310 0.000000 
#    z 0.000000 0.000000 1.637850 
# 
# From -- ./inp_files/10138.got.cif
#   From: 2010.03.12/outbox.cif.g09.slc.cpg/sg194_6_cif.got.tgz:10138.got - 2010.04.01 12:26:19.
