data_PCOD8330949
_publ_section_title
;
Structure prediction by ZEFSAII (Michael W. Deem and Ramdas Pophale) SiO2 
 PCOD8330949
Probable space group: P A 3
;
_chemical_formula_sum "Si O2"
_cell_formula_units_Z 168
_cell_length_a 20.753991
_cell_length_b 20.753991
_cell_length_c 20.753991
_cell_angle_alpha 90.000000
_cell_angle_beta 90.000000
_cell_angle_gamma 90.000000
_cell_volume 8939.327991
_symmetry_space_group_name_H-M "P A 3"
_symmetry_group_IT_number 205
_symmetry_cell_setting 'cubic'
loop_
_space_group_symop_operation_xyz
x,y,z
z,x,y
y,z,x
1/2-y,-z,1/2+x
1/2+z,1/2-x,-y
-y,1/2+z,1/2-x
1/2-z,-x,1/2+y
-z,1/2+x,1/2-y
1/2+y,1/2-z,-x
1/2-x,-y,1/2+z
1/2+x,1/2-y,-z
-x,1/2+y,1/2-z
-x,-y,-z
-z,-x,-y
-y,-z,-x
1/2+y,z,1/2-x
1/2-z,1/2+x,y
y,1/2-z,1/2+x
1/2+z,x,1/2-y
z,1/2-x,1/2+y
1/2-y,1/2+z,x
1/2+x,y,1/2-z
1/2-x,1/2+y,z
x,1/2-y,1/2+z
loop_
_atom_site_type_symbol
_atom_site_label
_atom_site_fract_x
_atom_site_fract_y
_atom_site_fract_z
Si Si1 0.610419 0.071713 0.228664
Si Si2 0.536798 0.194802 0.269942
Si Si3 0.493665 0.749754 0.981027
Si Si4 0.989729 0.613136 0.578565
Si Si5 0.229293 0.084214 0.632556
Si Si6 0.611781 0.803179 0.904530
Si Si7 0.928016 0.808171 0.187556
O O1 0.583167 0.143809 0.234556
O O2 0.660108 0.063112 0.287186
O O3 0.555926 0.016990 0.234267
O O4 0.644093 0.063824 0.159178
O O5 0.466301 0.164876 0.278157
O O6 0.528472 0.257033 0.225131
O O7 0.488076 0.671255 0.973980
O O8 0.440204 0.785436 0.937948
O O9 0.559075 0.783204 0.957544
O O10 0.932747 0.558483 0.575820
O O11 0.979535 0.649502 0.646755
O O12 0.162562 0.084854 0.670754
O O13 0.270364 0.149499 0.628390
O O14 0.648902 0.737364 0.887756
#
# Coordination Sequence:
#
# PCOD8330949 Si02
#       7
#    24  24  24  24  24  24  24
#     4  10  22  39  61  93 122 161 203 265 317 373
#     4  10  20  38  62  88 122 159 204 262 317 367
#     4  10  23  39  61  93 120 166 209 253 320 373
#     4  11  22  38  60  91 130 165 204 252 307 389
#     4  10  20  37  60  88 116 157 207 252 306 373
#     4  11  21  41  64  84 129 159 206 265 307 381
#     4  10  21  38  60  90 116 165 205 247 318 370
#
# _framework density 18.793358999999999
#
# number of rings (size 3 to 8) (size 9 to 14) (size 15 to 20)
#    0.000    1.714    2.857    2.143    2.000    3.429 
#    1.714    1.429    0.000    0.857    0.000    0.000 
#    0.000    0.000    0.000    0.000    0.000    0.000 
#
# Total GULP energy -2081777.055045 kJ/mol
# GULP energy per Si atom -12391.530090 kJ/mol
# Density = 1.875058 g / cm^3
# Si number density = 18.793359 Si / 1000 Ang^3
#
#
#
# Elastic Constant Matrix: (Units=GPa)
#
#
# Indices 1 2 3 4 5 6 
#
# 1 108.0660 48.0826 48.0826 0.0000 0.0000 0.0000
# 2 48.0826 108.0660 48.0826 0.0000 0.0000 0.0000
# 3 48.0826 48.0826 108.0660 0.0000 0.0000 0.0000
# 4 0.0000 0.0000 0.0000 26.1298 0.0000 0.0000
# 5 0.0000 0.0000 0.0000 0.0000 26.1298 0.0000
# 6 0.0000 0.0000 0.0000 0.0000 0.0000 26.1298
#
#
#
# Elastic Compliance Matrix: (Units=1/GPa)
#
#
# Indices 1 2 3 4 5 6 
#
# 1 0.012746 -0.003925 -0.003925 0.000000 0.000000 0.000000
# 2 -0.003925 0.012746 -0.003925 0.000000 0.000000 0.000000
# 3 -0.003925 -0.003925 0.012746 0.000000 0.000000 0.000000
# 4 0.000000 0.000000 0.000000 0.038271 0.000000 0.000000
# 5 0.000000 0.000000 0.000000 0.000000 0.038271 0.000000
# 6 0.000000 0.000000 0.000000 0.000000 0.000000 0.038271
#
#
# Mechanical properties :
#
#
# Convention : Reuss Voigt Hill
#
# Bulk Modulus (GPa) = 68.07705 68.07705 68.07705
# Shear Modulus (GPa) = 27.54870 27.67454 27.61162
#
# Velocity S-wave (km/s) = 3.83283 3.84157 3.83720
# Velocity P-wave (km/s) = 7.47597 7.48195 7.47896
#
# Compressibility (1/GPa) = 0.01468924
#
# Stress axis : x y z
#
# Youngs Moduli (GPa) = 78.45403 78.45403 78.45403
#
# Poissons Ratio (x) = 0.30793 0.30793
# Poissons Ratio (y) = 0.30793 0.30793
# Poissons Ratio (z) = 0.30793 0.30793
#
# Static dielectric constant tensor:
#      x y z
#    x 3.544350 0.000000 0.000000 
#    y 0.000000 3.544350 0.000000 
#    z 0.000000 0.000000 3.544350 
# 
# 
# High freq. dielectric constant tensor:
#      x y z
#    x 1.728230 0.000000 0.000000 
#    y 0.000000 1.728230 0.000000 
#    z 0.000000 0.000000 1.728230 
# 
# From -- ./inp_files/570.got.cif
#   From: 2010.03.12/outbox.cif.g09.slc.cpg/sg205_cif.got.tgz:570.got - 2010.03.30 09:02:58.
