data_PCOD8330684
_publ_section_title
;
Structure prediction by ZEFSAII (Michael W. Deem and Ramdas Pophale) SiO2 
 PCOD8330684
Probable space group: P 63/M M C
;
_chemical_formula_sum "Si O2"
_cell_formula_units_Z 156
_cell_length_a 20.869181
_cell_length_b 20.869181
_cell_length_c 21.375788
_cell_angle_alpha 90.000000
_cell_angle_beta 90.000000
_cell_angle_gamma 120.000000
_cell_volume 8062.385812
_symmetry_space_group_name_H-M "P 63/M M C"
_symmetry_group_IT_number 194
_symmetry_cell_setting 'hexagonal'
loop_
_space_group_symop_operation_xyz
x,y,z
x-y,x,1/2+z
-y,x-y,z
-x,-y,1/2+z
-x+y,-x,z
y,-x+y,1/2+z
x-y,-y,-z
-x,-x+y,-z
y,x,-z
-y,-x,1/2-z
-x+y,y,1/2-z
x,x-y,1/2-z
-x,-y,-z
-x+y,-x,1/2-z
y,-x+y,-z
x,y,1/2-z
x-y,x,-z
-y,x-y,1/2-z
-x+y,y,z
x,x-y,z
-y,-x,z
y,x,1/2+z
x-y,-y,1/2+z
-x,-x+y,1/2+z
loop_
_atom_site_type_symbol
_atom_site_label
_atom_site_fract_x
_atom_site_fract_y
_atom_site_fract_z
Si Si1 0.193686 0.954779 0.439298
Si Si2 0.892259 0.519556 0.622003
Si Si3 0.849029 0.849284 0.820358
Si Si4 0.190052 0.667824 0.678121
Si Si5 0.334101 0.515873 0.250000
Si Si6 0.603676 0.060274 0.413771
Si Si7 0.273354 0.401225 0.018771
O O1 0.112856 0.887145 0.435369
O O2 0.253771 0.929085 0.447732
O O3 0.194589 0.000000 0.500000
O O4 0.206650 0.998804 0.373326
O O5 0.872412 0.436206 0.610534
O O6 0.868272 0.528764 0.691021
O O7 0.844660 0.536067 0.572059
O O8 0.978736 0.576793 0.611338
O O9 0.818031 0.819506 0.750000
O O10 0.854576 0.927288 0.832397
O O11 0.930727 0.861453 0.827169
O O12 0.175620 0.676461 0.750000
O O13 0.216378 0.608189 0.668852
O O14 0.254829 0.745172 0.650560
O O15 0.113848 0.643453 0.643895
O O16 0.399237 0.600764 0.250000
O O17 0.257157 0.514314 0.250000
O O18 0.533497 0.066994 0.438740
O O19 0.664517 0.082471 0.467321
O O20 0.199980 0.399959 0.991262
#
# Coordination Sequence:
#
# PCOD8330684 Si02
#       7
#    24  24  24  24  12  24  24
#     4  10  20  33  51  74 103 141 181 222 266 319
#     4  10  21  37  59  83 109 140 181 229 279 330
#     4   9  17  31  52  78 107 138 175 221 274 329
#     4   9  17  29  48  76 113 153 191 231 280 335
#     4  10  21  38  60  86 115 146 180 224 278 334
#     4  10  20  34  57  83 110 144 185 233 279 327
#     4  11  22  37  56  78 108 144 183 224 273 328
#
# _framework density 19.349112000000002
#
# number of rings (size 3 to 8) (size 9 to 14) (size 15 to 20)
#    0.000    2.154    0.000    3.615    1.077    2.462 
#    1.385    0.000    0.000    6.769    0.000    6.462 
#    0.000    0.000    0.000    0.000    0.000    0.000 
#
# Total GULP energy -1933802.794460 kJ/mol
# GULP energy per Si atom -12396.171759 kJ/mol
# Density = 1.930507 g / cm^3
# Si number density = 19.349112 Si / 1000 Ang^3
#
#
#
# Elastic Constant Matrix: (Units=GPa)
#
#
# Indices 1 2 3 4 5 6 
#
# 1 82.8741 48.1148 58.1009 0.0000 0.0000 0.0000
# 2 48.1148 82.8741 58.1009 0.0000 0.0000 0.0000
# 3 58.1009 58.1009 144.0633 0.0000 0.0000 0.0000
# 4 0.0000 0.0000 0.0000 26.4526 0.0000 0.0000
# 5 0.0000 0.0000 0.0000 0.0000 26.4526 0.0000
# 6 0.0000 0.0000 0.0000 0.0000 0.0000 17.3796
#
#
#
# Elastic Compliance Matrix: (Units=1/GPa)
#
#
# Indices 1 2 3 4 5 6 
#
# 1 0.020328 -0.008441 -0.004794 0.000000 0.000000 0.000000
# 2 -0.008441 0.020328 -0.004794 0.000000 0.000000 0.000000
# 3 -0.004794 -0.004794 0.010808 0.000000 0.000000 0.000000
# 4 0.000000 0.000000 0.000000 0.037804 0.000000 0.000000
# 5 0.000000 0.000000 0.000000 0.000000 0.037804 0.000000
# 6 0.000000 0.000000 0.000000 0.000000 0.000000 0.057539
#
#
# Mechanical properties :
#
#
# Convention : Reuss Voigt Hill
#
# Bulk Modulus (GPa) = 64.90893 70.93830 67.92361
# Shear Modulus (GPa) = 22.14307 23.75661 22.94984
#
# Velocity S-wave (km/s) = 3.38656 3.50778 3.44771
# Velocity P-wave (km/s) = 6.99362 7.29026 7.14348
#
# Compressibility (1/GPa) = 0.01540620
#
# Stress axis : x y z
#
# Youngs Moduli (GPa) = 49.19275 49.19275 92.52133
#
# Poissons Ratio (x) = 0.41524 0.44356
# Poissons Ratio (y) = 0.41524 0.44356
# Poissons Ratio (z) = 0.23583 0.23583
#
# Static dielectric constant tensor:
#      x y z
#    x 3.579190 0.000000 0.000000 
#    y 0.000000 3.579190 0.000000 
#    z 0.000000 0.000000 4.593850 
# 
# 
# High freq. dielectric constant tensor:
#      x y z
#    x 1.750440 0.000000 0.000000 
#    y 0.000000 1.750440 0.000000 
#    z 0.000000 0.000000 1.760130 
# 
# From -- ./inp_files/8388.got.cif
#   From: 2010.03.12/outbox.cif.g09.slc.cpg/sg194_5_cif.got.tgz:8388.got - 2010.04.01 12:26:19.
