data_PCOD8330529
_publ_section_title
;
Structure prediction by ZEFSAII (Michael W. Deem and Ramdas Pophale) SiO2 
 PCOD8330529
Probable space group: P 63/M M C
;
_chemical_formula_sum "Si O2"
_cell_formula_units_Z 72
_cell_length_a 26.332631
_cell_length_b 26.332631
_cell_length_c 7.557198
_cell_angle_alpha 90.000000
_cell_angle_beta 90.000000
_cell_angle_gamma 120.000000
_cell_volume 4538.161420
_symmetry_space_group_name_H-M "P 63/M M C"
_symmetry_group_IT_number 194
_symmetry_cell_setting 'hexagonal'
loop_
_space_group_symop_operation_xyz
x,y,z
x-y,x,1/2+z
-y,x-y,z
-x,-y,1/2+z
-x+y,-x,z
y,-x+y,1/2+z
x-y,-y,-z
-x,-x+y,-z
y,x,-z
-y,-x,1/2-z
-x+y,y,1/2-z
x,x-y,1/2-z
-x,-y,-z
-x+y,-x,1/2-z
y,-x+y,-z
x,y,1/2-z
x-y,x,-z
-y,x-y,1/2-z
-x+y,y,z
x,x-y,z
-y,-x,z
y,x,1/2+z
x-y,-y,1/2+z
-x,-x+y,1/2+z
loop_
_atom_site_type_symbol
_atom_site_label
_atom_site_fract_x
_atom_site_fract_y
_atom_site_fract_z
Si Si1 0.451068 0.784483 0.548137
Si Si2 0.290951 0.829399 0.250000
Si Si3 0.242530 0.179227 0.453349
Si Si4 0.668270 0.774365 0.250000
O O1 0.470184 0.803585 0.750000
O O2 0.393211 0.786421 0.497685
O O3 0.437027 0.718514 0.513685
O O4 0.504008 0.830379 0.425031
O O5 0.228070 0.771931 0.250000
O O6 0.283167 0.886694 0.250000
O O7 0.186710 0.186710 0.500000
O O8 0.261754 0.194487 0.250000
O O9 0.224449 0.112225 0.497565
O O10 0.296876 0.225010 0.573753
O O11 0.660822 0.830411 0.250000
#
# Coordination Sequence:
#
# PCOD8330529 Si02
#       4
#    24  12  24  12
#     4   9  16  25  38  57  83 115 152 189 226 271
#     4   9  17  27  39  56  83 119 150 183 226 270
#     4  10  19  31  50  73  96 125 154 181 215 255
#     4   9  18  31  44  64  94 121 151 187 222 264
#
# _framework density 15.865456
#
# number of rings (size 3 to 8) (size 9 to 14) (size 15 to 20)
#    0.000    2.667    1.667    0.833    0.000    2.667 
#    0.000    8.333    0.000    0.333    0.000    0.000 
#    0.000    5.333    0.000    0.000    0.000    0.000 
#
# Total GULP energy -892557.934638 kJ/mol
# GULP energy per Si atom -12396.637981 kJ/mol
# Density = 1.582935 g / cm^3
# Si number density = 15.865456 Si / 1000 Ang^3
#
#
#
# Elastic Constant Matrix: (Units=GPa)
#
#
# Indices 1 2 3 4 5 6 
#
# 1 83.0339 50.8572 51.4354 0.0000 0.0000 0.0000
# 2 50.8572 83.0339 51.4354 0.0000 0.0000 0.0000
# 3 51.4354 51.4354 123.1765 0.0000 0.0000 0.0000
# 4 0.0000 0.0000 0.0000 19.1382 0.0000 0.0000
# 5 0.0000 0.0000 0.0000 0.0000 19.1382 0.0000
# 6 0.0000 0.0000 0.0000 0.0000 0.0000 16.0883
#
#
#
# Elastic Compliance Matrix: (Units=1/GPa)
#
#
# Indices 1 2 3 4 5 6 
#
# 1 0.021038 -0.010041 -0.004592 0.000000 0.000000 0.000000
# 2 -0.010041 0.021038 -0.004592 0.000000 0.000000 0.000000
# 3 -0.004592 -0.004592 0.011953 0.000000 0.000000 0.000000
# 4 0.000000 0.000000 0.000000 0.052252 0.000000 0.000000
# 5 0.000000 0.000000 0.000000 0.000000 0.052252 0.000000
# 6 0.000000 0.000000 0.000000 0.000000 0.000000 0.062157
#
#
# Mechanical properties :
#
#
# Convention : Reuss Voigt Hill
#
# Bulk Modulus (GPa) = 64.18840 66.30004 65.24422
# Shear Modulus (GPa) = 18.91565 19.90735 19.41150
#
# Velocity S-wave (km/s) = 3.45665 3.54610 3.50166
# Velocity P-wave (km/s) = 7.51512 7.65808 7.58693
#
# Compressibility (1/GPa) = 0.01557914
#
# Stress axis : x y z
#
# Youngs Moduli (GPa) = 47.53383 47.53383 83.65774
#
# Poissons Ratio (x) = 0.47728 0.38416
# Poissons Ratio (y) = 0.47728 0.38416
# Poissons Ratio (z) = 0.21828 0.21828
#
# Static dielectric constant tensor:
#      x y z
#    x 2.959390 0.000000 0.000000 
#    y 0.000000 2.959390 0.000000 
#    z 0.000000 0.000000 3.256570 
# 
# 
# High freq. dielectric constant tensor:
#      x y z
#    x 1.578390 0.000000 0.000000 
#    y 0.000000 1.578390 0.000000 
#    z 0.000000 0.000000 1.631340 
# 
# From -- ./inp_files/1125.got.cif
#   From: 2010.03.12/outbox.cif.g09.slc.cpg/sg194_1_cif.got.tgz:1125.got - 2010.04.01 12:26:19.
