data_PCOD8330092
_publ_section_title
;
Structure prediction by ZEFSAII (Michael W. Deem and Ramdas Pophale) SiO2 
 PCOD8330092
Probable space group: P 63/M C M
;
_chemical_formula_sum "Si O2"
_cell_formula_units_Z 66
_cell_length_a 12.982426
_cell_length_b 12.982426
_cell_length_c 27.984940
_cell_angle_alpha 90.000000
_cell_angle_beta 90.000000
_cell_angle_gamma 120.000000
_cell_volume 4084.761681
_symmetry_space_group_name_H-M "P 63/M C M"
_symmetry_group_IT_number 193
_symmetry_cell_setting 'hexagonal'
loop_
_space_group_symop_operation_xyz
x,y,z
x-y,x,1/2+z
-y,x-y,z
-x,-y,1/2+z
-x+y,-x,z
y,-x+y,1/2+z
x-y,-y,1/2-z
-x,-x+y,1/2-z
y,x,1/2-z
-y,-x,-z
-x+y,y,-z
x,x-y,-z
-x,-y,-z
-x+y,-x,1/2-z
y,-x+y,-z
x,y,1/2-z
x-y,x,-z
-y,x-y,1/2-z
-x+y,y,1/2+z
x,x-y,1/2+z
-y,-x,1/2+z
y,x,z
x-y,-y,z
-x,-x+y,z
loop_
_atom_site_type_symbol
_atom_site_label
_atom_site_fract_x
_atom_site_fract_y
_atom_site_fract_z
Si Si1 0.866808 0.866808 0.250000
Si Si2 0.328045 0.863298 0.027164
Si Si3 0.320378 0.790801 0.135504
Si Si4 0.333445 0.333445 0.697273
O O1 0.791994 0.791994 0.203056
O O2 0.882970 0.000000 0.250000
O O3 0.315832 0.829414 0.082135
O O4 0.371661 0.000000 0.021627
O O5 0.202500 0.797501 0.000000
O O6 0.412804 0.825607 0.000000
O O7 0.210888 0.655261 0.143601
O O8 0.309916 0.880783 0.171079
O O9 0.384583 0.384583 0.750000
#
# Coordination Sequence:
#
# PCOD8330092 Si02
#       4
#     6  24  24  12
#     4   8  20  48  66  76 100 146 200 232 278 344
#     4  11  19  32  56  83 116 157 193 234 277 348
#     4  10  20  35  56  85 124 151 187 237 302 347
#     4  10  22  40  58  87 114 146 198 249 280 353
#
# _framework density 16.157613000000001
#
# number of rings (size 3 to 8) (size 9 to 14) (size 15 to 20)
#    1.455    0.364    5.455    0.364    0.000    1.455 
#    3.273    0.000    0.000    0.364    0.000    0.000 
#    0.000    0.000    0.000    0.000    0.000    0.000 
#
# Total GULP energy -817688.661687 kJ/mol
# GULP energy per Si atom -12389.222147 kJ/mol
# Density = 1.612084 g / cm^3
# Si number density = 16.157613 Si / 1000 Ang^3
#
#
#
# Elastic Constant Matrix: (Units=GPa)
#
#
# Indices 1 2 3 4 5 6 
#
# 1 127.8727 36.8025 58.9405 0.0000 0.0000 0.0000
# 2 36.8025 127.8727 58.9405 0.0000 0.0000 0.0000
# 3 58.9405 58.9405 137.1047 0.0000 0.0000 0.0000
# 4 0.0000 0.0000 0.0000 15.1029 0.0000 0.0000
# 5 0.0000 0.0000 0.0000 0.0000 15.1029 0.0000
# 6 0.0000 0.0000 0.0000 0.0000 0.0000 45.5351
#
#
#
# Elastic Compliance Matrix: (Units=1/GPa)
#
#
# Indices 1 2 3 4 5 6 
#
# 1 0.009876 -0.001104 -0.003771 0.000000 0.000000 0.000000
# 2 -0.001104 0.009876 -0.003771 0.000000 0.000000 0.000000
# 3 -0.003771 -0.003771 0.010536 0.000000 0.000000 0.000000
# 4 0.000000 0.000000 0.000000 0.066212 0.000000 0.000000
# 5 0.000000 0.000000 0.000000 0.000000 0.066212 0.000000
# 6 0.000000 0.000000 0.000000 0.000000 0.000000 0.021961
#
#
# Mechanical properties :
#
#
# Convention : Reuss Voigt Hill
#
# Bulk Modulus (GPa) = 76.94752 78.02413 77.48582
# Shear Modulus (GPa) = 24.23667 31.02597 27.63132
#
# Velocity S-wave (km/s) = 3.87721 4.38677 4.13984
# Velocity P-wave (km/s) = 8.23226 8.60538 8.42089
#
# Compressibility (1/GPa) = 0.01299587
#
# Stress axis : x y z
#
# Youngs Moduli (GPa) = 101.25274 101.25274 94.91271
#
# Poissons Ratio (x) = 0.11181 0.35792
# Poissons Ratio (y) = 0.11181 0.35792
# Poissons Ratio (z) = 0.38183 0.38183
#
# Static dielectric constant tensor:
#      x y z
#    x 2.999080 0.000000 0.000000 
#    y 0.000000 2.999080 0.000000 
#    z 0.000000 0.000000 2.806720 
# 
# 
# High freq. dielectric constant tensor:
#      x y z
#    x 1.610930 0.000000 0.000000 
#    y 0.000000 1.610930 0.000000 
#    z 0.000000 0.000000 1.627510 
# 
# From -- ./inp_files/7042.got.cif
#   From: 2010.03.12/outbox.cif.g09.slc.cpg/sg193_4_cif.got.tgz:7042.got - 2010.04.01 12:20:39.
