data_PCOD8330098
_publ_section_title
;
Structure prediction by ZEFSAII (Michael W. Deem and Ramdas Pophale) SiO2 
 PCOD8330098
Probable space group: P 63/M C M
;
_chemical_formula_sum "Si O2"
_cell_formula_units_Z 168
_cell_length_a 18.349766
_cell_length_b 18.349766
_cell_length_c 30.673901
_cell_angle_alpha 90.000000
_cell_angle_beta 90.000000
_cell_angle_gamma 120.000000
_cell_volume 8944.595474
_symmetry_space_group_name_H-M "P 63/M C M"
_symmetry_group_IT_number 193
_symmetry_cell_setting 'hexagonal'
loop_
_space_group_symop_operation_xyz
x,y,z
x-y,x,1/2+z
-y,x-y,z
-x,-y,1/2+z
-x+y,-x,z
y,-x+y,1/2+z
x-y,-y,1/2-z
-x,-x+y,1/2-z
y,x,1/2-z
-y,-x,-z
-x+y,y,-z
x,x-y,-z
-x,-y,-z
-x+y,-x,1/2-z
y,-x+y,-z
x,y,1/2-z
x-y,x,-z
-y,x-y,1/2-z
-x+y,y,1/2+z
x,x-y,1/2+z
-y,-x,1/2+z
y,x,z
x-y,-y,z
-x,-x+y,z
loop_
_atom_site_type_symbol
_atom_site_label
_atom_site_fract_x
_atom_site_fract_y
_atom_site_fract_z
Si Si1 0.095153 0.328570 0.528925
Si Si2 0.283411 0.471516 0.750000
Si Si3 0.608148 0.094882 0.345524
Si Si4 0.382530 0.532206 0.250000
Si Si5 0.504779 0.332537 0.989706
Si Si6 0.651241 0.904576 0.671076
Si Si7 0.527929 0.623292 0.101207
Si Si8 0.669743 0.767499 0.869684
O O1 0.151938 0.303875 0.500000
O O2 0.117176 0.423707 0.519708
O O3 0.108728 0.318099 0.579566
O O4 0.000000 0.265873 0.514878
O O5 0.367725 0.561243 0.750000
O O6 0.212928 0.497090 0.750000
O O7 0.277012 0.415918 0.708965
O O8 0.595853 0.094750 0.293632
O O9 0.560359 0.135796 0.371590
O O10 0.705611 0.135525 0.359297
O O11 0.563878 0.000000 0.361655
O O12 0.482308 0.327150 0.938986
O O13 0.572177 0.427824 0.000000
O O14 0.541032 0.270516 0.000000
O O15 0.600891 0.905841 0.629330
O O16 0.697724 0.851654 0.658870
O O17 0.721390 0.000000 0.684303
O O18 0.558013 0.558013 0.085658
O O19 0.726186 0.726186 0.855141
#
# Coordination Sequence:
#
# PCOD8330098 Si02
#       8
#    24  12  24  12  24  24  24  24
#     4  10  21  37  60  86 116 152 194 242 296 352
#     4  12  24  39  59  88 119 158 197 232 280 348
#     4  10  20  35  58  83 110 149 191 236 287 342
#     4  12  22  39  57  80 122 154 191 230 280 336
#     4  11  22  36  52  76 111 152 199 241 289 337
#     4  11  22  38  60  86 117 150 192 245 293 343
#     4  10  21  35  55  82 108 144 192 241 294 347
#     4  10  21  38  58  85 117 154 197 240 291 356
#
# _framework density 18.782291000000001
#
# number of rings (size 3 to 8) (size 9 to 14) (size 15 to 20)
#    0.000    1.429    2.857    3.714    0.000    4.571 
#    0.000    0.357    0.000    0.429    0.000    0.000 
#    0.000    0.000    0.000    0.000    0.000    0.000 
#
# Total GULP energy -2082933.771874 kJ/mol
# GULP energy per Si atom -12398.415309 kJ/mol
# Density = 1.873954 g / cm^3
# Si number density = 18.782291 Si / 1000 Ang^3
#
#
#
# Elastic Constant Matrix: (Units=GPa)
#
#
# Indices 1 2 3 4 5 6 
#
# 1 88.0377 42.8148 22.1940 0.0000 0.0000 0.0000
# 2 42.8148 88.0377 22.1940 0.0000 0.0000 0.0000
# 3 22.1940 22.1940 78.6638 0.0000 0.0000 0.0000
# 4 0.0000 0.0000 0.0000 26.5335 0.0000 0.0000
# 5 0.0000 0.0000 0.0000 0.0000 26.5335 0.0000
# 6 0.0000 0.0000 0.0000 0.0000 0.0000 22.6115
#
#
#
# Elastic Compliance Matrix: (Units=1/GPa)
#
#
# Indices 1 2 3 4 5 6 
#
# 1 0.015282 -0.006831 -0.002384 0.000000 0.000000 0.000000
# 2 -0.006831 0.015282 -0.002384 0.000000 0.000000 0.000000
# 3 -0.002384 -0.002384 0.014058 0.000000 0.000000 0.000000
# 4 0.000000 0.000000 0.000000 0.037688 0.000000 0.000000
# 5 0.000000 0.000000 0.000000 0.000000 0.037688 0.000000
# 6 0.000000 0.000000 0.000000 0.000000 0.000000 0.044225
#
#
# Mechanical properties :
#
#
# Convention : Reuss Voigt Hill
#
# Bulk Modulus (GPa) = 46.68013 47.68276 47.18145
# Shear Modulus (GPa) = 25.69861 26.30479 26.00170
#
# Velocity S-wave (km/s) = 3.70298 3.74640 3.72475
# Velocity P-wave (km/s) = 6.57191 6.64501 6.60856
#
# Compressibility (1/GPa) = 0.02142239
#
# Stress axis : x y z
#
# Youngs Moduli (GPa) = 65.43711 65.43711 71.13504
#
# Poissons Ratio (x) = 0.44699 0.16961
# Poissons Ratio (y) = 0.44699 0.16961
# Poissons Ratio (z) = 0.15603 0.15603
#
# Static dielectric constant tensor:
#      x y z
#    x 3.464410 0.000000 0.000000 
#    y 0.000000 3.464410 0.000000 
#    z 0.000000 0.000000 3.364750 
# 
# 
# High freq. dielectric constant tensor:
#      x y z
#    x 1.717720 0.000000 0.000000 
#    y 0.000000 1.717720 0.000000 
#    z 0.000000 0.000000 1.741220 
# 
# From -- ./inp_files/9369.got.cif
#   From: 2010.03.12/outbox.cif.g09.slc.cpg/sg193_5_cif.got.tgz:9369.got - 2010.04.01 12:20:39.
