data_PCOD8330108
_publ_section_title
;
Structure prediction by ZEFSAII (Michael W. Deem and Ramdas Pophale) SiO2 
 PCOD8330108
Probable space group: P 63/M C M
;
_chemical_formula_sum "Si O2"
_cell_formula_units_Z 168
_cell_length_a 18.024992
_cell_length_b 18.024992
_cell_length_c 28.945988
_cell_angle_alpha 90.000000
_cell_angle_beta 90.000000
_cell_angle_gamma 120.000000
_cell_volume 8144.588949
_symmetry_space_group_name_H-M "P 63/M C M"
_symmetry_group_IT_number 193
_symmetry_cell_setting 'hexagonal'
loop_
_space_group_symop_operation_xyz
x,y,z
x-y,x,1/2+z
-y,x-y,z
-x,-y,1/2+z
-x+y,-x,z
y,-x+y,1/2+z
x-y,-y,1/2-z
-x,-x+y,1/2-z
y,x,1/2-z
-y,-x,-z
-x+y,y,-z
x,x-y,-z
-x,-y,-z
-x+y,-x,1/2-z
y,-x+y,-z
x,y,1/2-z
x-y,x,-z
-y,x-y,1/2-z
-x+y,y,1/2+z
x,x-y,1/2+z
-y,-x,1/2+z
y,x,z
x-y,-y,z
-x,-x+y,z
loop_
_atom_site_type_symbol
_atom_site_label
_atom_site_fract_x
_atom_site_fract_y
_atom_site_fract_z
Si Si1 0.899333 0.641233 0.444603
Si Si2 0.101633 0.472128 0.478789
Si Si3 0.904596 0.809214 0.946165
Si Si4 0.738010 0.096127 0.696898
Si Si5 0.170246 0.676178 0.364378
Si Si6 0.253487 0.906914 0.803531
Si Si7 0.836560 0.496842 0.876612
O O1 0.865214 0.578234 0.488870
O O2 0.861450 0.705810 0.439325
O O3 0.877533 0.583641 0.399776
O O4 0.000000 0.700617 0.450846
O O5 0.135128 0.567564 0.500000
O O6 0.140688 0.471490 0.429077
O O7 0.000000 0.425182 0.474321
O O8 0.862348 0.862348 0.923480
O O9 0.000000 0.842076 0.925027
O O10 0.914219 0.828437 0.000000
O O11 0.723164 0.116905 0.750000
O O12 0.837193 0.156406 0.681694
O O13 0.675999 0.107980 0.661467
O O14 0.719585 0.000000 0.693187
O O15 0.133810 0.686417 0.315461
O O16 0.272627 0.736314 0.368407
O O17 0.142680 0.578650 0.370553
O O18 0.260001 0.922578 0.750000
O O19 0.285547 0.000000 0.827708
#
# Coordination Sequence:
#
# PCOD8330108 Si02
#       7
#    24  24  24  24  24  24  24
#     4  10  21  36  55  80 112 151 195 241 287 340
#     4  10  20  36  56  79 108 148 196 245 295 344
#     4   9  18  33  54  79 108 145 188 238 292 347
#     4   9  19  37  62  92 122 152 190 239 295 353
#     4  11  23  38  57  80 114 151 197 241 293 349
#     4   9  19  37  62  90 119 152 189 233 287 346
#     4  11  23  38  56  81 113 153 195 246 295 347
#
# _framework density 20.627192999999998
#
# number of rings (size 3 to 8) (size 9 to 14) (size 15 to 20)
#    0.000    2.143    1.429    1.286    2.000    2.857 
#    0.000    4.286    0.000    2.000    0.000    2.000 
#    0.000    0.000    0.000    0.000    0.000    0.000 
#
# Total GULP energy -2082167.658968 kJ/mol
# GULP energy per Si atom -12393.855113 kJ/mol
# Density = 2.058024 g / cm^3
# Si number density = 20.627193 Si / 1000 Ang^3
#
#
#
# Elastic Constant Matrix: (Units=GPa)
#
#
# Indices 1 2 3 4 5 6 
#
# 1 119.9838 68.5632 31.7893 0.0000 0.0000 0.0000
# 2 68.5632 119.9838 31.7893 0.0000 0.0000 0.0000
# 3 31.7893 31.7893 49.4556 0.0000 0.0000 0.0000
# 4 0.0000 0.0000 0.0000 25.3191 0.0000 0.0000
# 5 0.0000 0.0000 0.0000 0.0000 25.3191 0.0000
# 6 0.0000 0.0000 0.0000 0.0000 0.0000 25.7103
#
#
#
# Elastic Compliance Matrix: (Units=1/GPa)
#
#
# Indices 1 2 3 4 5 6 
#
# 1 0.013109 -0.006338 -0.004353 0.000000 0.000000 0.000000
# 2 -0.006338 0.013109 -0.004353 0.000000 0.000000 0.000000
# 3 -0.004353 -0.004353 0.025816 0.000000 0.000000 0.000000
# 4 0.000000 0.000000 0.000000 0.039496 0.000000 0.000000
# 5 0.000000 0.000000 0.000000 0.000000 0.039496 0.000000
# 6 0.000000 0.000000 0.000000 0.000000 0.000000 0.038895
#
#
# Mechanical properties :
#
#
# Convention : Reuss Voigt Hill
#
# Bulk Modulus (GPa) = 45.56171 61.52299 53.54235
# Shear Modulus (GPa) = 24.11688 25.75512 24.93600
#
# Velocity S-wave (km/s) = 3.42304 3.53739 3.48068
# Velocity P-wave (km/s) = 6.14484 6.82459 6.49362
#
# Compressibility (1/GPa) = 0.02194825
#
# Stress axis : x y z
#
# Youngs Moduli (GPa) = 76.28092 76.28092 38.73613
#
# Poissons Ratio (x) = 0.48347 0.16860
# Poissons Ratio (y) = 0.48347 0.16860
# Poissons Ratio (z) = 0.33202 0.33202
#
# Static dielectric constant tensor:
#      x y z
#    x 3.915630 0.000000 0.000000 
#    y 0.000000 3.915630 0.000000 
#    z 0.000000 0.000000 3.739470 
# 
# 
# High freq. dielectric constant tensor:
#      x y z
#    x 1.805330 0.000000 0.000000 
#    y 0.000000 1.805330 0.000000 
#    z 0.000000 0.000000 1.799220 
# 
# From -- ./inp_files/9316.got.cif
#   From: 2010.03.12/outbox.cif.g09.slc.cpg/sg193_5_cif.got.tgz:9316.got - 2010.04.01 12:20:39.
