data_PCOD8330592
_publ_section_title
;
Structure prediction by ZEFSAII (Michael W. Deem and Ramdas Pophale) SiO2 
 PCOD8330592
Probable space group: P 63/M M C
;
_chemical_formula_sum "Si O2"
_cell_formula_units_Z 144
_cell_length_a 21.477717
_cell_length_b 21.477717
_cell_length_c 19.424918
_cell_angle_alpha 90.000000
_cell_angle_beta 90.000000
_cell_angle_gamma 120.000000
_cell_volume 7760.077473
_symmetry_space_group_name_H-M "P 63/M M C"
_symmetry_group_IT_number 194
_symmetry_cell_setting 'hexagonal'
loop_
_space_group_symop_operation_xyz
x,y,z
x-y,x,1/2+z
-y,x-y,z
-x,-y,1/2+z
-x+y,-x,z
y,-x+y,1/2+z
x-y,-y,-z
-x,-x+y,-z
y,x,-z
-y,-x,1/2-z
-x+y,y,1/2-z
x,x-y,1/2-z
-x,-y,-z
-x+y,-x,1/2-z
y,-x+y,-z
x,y,1/2-z
x-y,x,-z
-y,x-y,1/2-z
-x+y,y,z
x,x-y,z
-y,-x,z
y,x,1/2+z
x-y,-y,1/2+z
-x,-x+y,1/2+z
loop_
_atom_site_type_symbol
_atom_site_label
_atom_site_fract_x
_atom_site_fract_y
_atom_site_fract_z
Si Si1 0.049564 0.806280 0.438707
Si Si2 0.550966 0.960754 0.172950
Si Si3 0.437799 0.323037 0.327423
Si Si4 0.210930 0.278301 0.829882
Si Si5 0.604363 0.676868 0.039416
Si Si6 0.331765 0.808153 0.953293
O O1 0.113959 0.886042 0.424955
O O2 0.080929 0.755233 0.461271
O O3 0.000000 0.807996 0.500000
O O4 0.003577 0.778547 0.369254
O O5 0.556975 0.934656 0.250000
O O6 0.468909 0.937817 0.155949
O O7 0.579709 0.925703 0.118037
O O8 0.597533 0.046804 0.169760
O O9 0.446362 0.301019 0.250000
O O10 0.358510 0.266493 0.356592
O O11 0.498164 0.321367 0.374019
O O12 0.225189 0.272186 0.750000
O O13 0.130230 0.260459 0.844218
O O14 0.619186 0.619186 0.000000
O O15 0.541524 0.681503 0.001710
O O16 0.410420 0.820840 0.967062
O O17 0.273860 0.726141 0.970705
#
# Coordination Sequence:
#
# PCOD8330592 Si02
#       6
#    24  24  24  24  24  24
#     4  11  22  37  58  84 113 144 182 232 286 338
#     4  10  19  32  53  83 118 147 173 217 278 339
#     4  10  19  34  57  84 113 144 184 230 276 328
#     4  10  20  36  59  86 116 148 182 223 277 338
#     4  11  21  36  58  86 111 141 185 238 291 339
#     4  12  25  39  54  75 110 154 198 236 277 331
#
# _framework density 18.556515999999998
#
# number of rings (size 3 to 8) (size 9 to 14) (size 15 to 20)
#    0.000    1.333    3.333    3.667    0.000    3.000 
#    0.000    0.000    0.000    5.500    0.000    0.000 
#    0.000    1.333    0.000    0.000    0.000    0.000 
#
# Total GULP energy -1786176.412150 kJ/mol
# GULP energy per Si atom -12404.002862 kJ/mol
# Density = 1.851428 g / cm^3
# Si number density = 18.556516 Si / 1000 Ang^3
#
#
#
# Elastic Constant Matrix: (Units=GPa)
#
#
# Indices 1 2 3 4 5 6 
#
# 1 83.3916 40.7142 30.1949 0.0000 0.0000 0.0000
# 2 40.7142 83.3916 30.1949 0.0000 0.0000 0.0000
# 3 30.1949 30.1949 82.4936 0.0000 0.0000 0.0000
# 4 0.0000 0.0000 0.0000 23.5842 0.0000 0.0000
# 5 0.0000 0.0000 0.0000 0.0000 23.5842 0.0000
# 6 0.0000 0.0000 0.0000 0.0000 0.0000 21.3387
#
#
#
# Elastic Compliance Matrix: (Units=1/GPa)
#
#
# Indices 1 2 3 4 5 6 
#
# 1 0.016618 -0.006814 -0.003588 0.000000 0.000000 0.000000
# 2 -0.006814 0.016618 -0.003588 0.000000 0.000000 0.000000
# 3 -0.003588 -0.003588 0.014749 0.000000 0.000000 0.000000
# 4 0.000000 0.000000 0.000000 0.042401 0.000000 0.000000
# 5 0.000000 0.000000 0.000000 0.000000 0.042401 0.000000
# 6 0.000000 0.000000 0.000000 0.000000 0.000000 0.046863
#
#
# Mechanical properties :
#
#
# Convention : Reuss Voigt Hill
#
# Bulk Modulus (GPa) = 49.99286 50.16496 50.07891
# Shear Modulus (GPa) = 23.33184 23.57961 23.45572
#
# Velocity S-wave (km/s) = 3.54974 3.56854 3.55916
# Velocity P-wave (km/s) = 6.61818 6.63865 6.62842
#
# Compressibility (1/GPa) = 0.02000286
#
# Stress axis : x y z
#
# Youngs Moduli (GPa) = 60.17684 60.17684 67.80081
#
# Poissons Ratio (x) = 0.41004 0.24330
# Poissons Ratio (y) = 0.41004 0.24330
# Poissons Ratio (z) = 0.21594 0.21594
#
# Static dielectric constant tensor:
#      x y z
#    x 3.242580 0.000000 0.000000 
#    y 0.000000 3.242580 0.000000 
#    z 0.000000 0.000000 3.587570 
# 
# 
# High freq. dielectric constant tensor:
#      x y z
#    x 1.702830 0.000000 0.000000 
#    y 0.000000 1.702830 0.000000 
#    z 0.000000 0.000000 1.731810 
# 
# From -- ./inp_files/8216.got.cif
#   From: 2010.03.12/outbox.cif.g09.slc.cpg/sg194_5_cif.got.tgz:8216.got - 2010.04.01 12:26:19.
