data_PCOD8330395
_publ_section_title
;
Structure prediction by ZEFSAII (Michael W. Deem and Ramdas Pophale) SiO2 
 PCOD8330395
Probable space group: P 63/M M C
;
_chemical_formula_sum "Si O2"
_cell_formula_units_Z 168
_cell_length_a 23.031491
_cell_length_b 23.031491
_cell_length_c 20.636311
_cell_angle_alpha 90.000000
_cell_angle_beta 90.000000
_cell_angle_gamma 120.000000
_cell_volume 9479.966529
_symmetry_space_group_name_H-M "P 63/M M C"
_symmetry_group_IT_number 194
_symmetry_cell_setting 'hexagonal'
loop_
_space_group_symop_operation_xyz
x,y,z
x-y,x,1/2+z
-y,x-y,z
-x,-y,1/2+z
-x+y,-x,z
y,-x+y,1/2+z
x-y,-y,-z
-x,-x+y,-z
y,x,-z
-y,-x,1/2-z
-x+y,y,1/2-z
x,x-y,1/2-z
-x,-y,-z
-x+y,-x,1/2-z
y,-x+y,-z
x,y,1/2-z
x-y,x,-z
-y,x-y,1/2-z
-x+y,y,z
x,x-y,z
-y,-x,z
y,x,1/2+z
x-y,-y,1/2+z
-x,-x+y,1/2+z
loop_
_atom_site_type_symbol
_atom_site_label
_atom_site_fract_x
_atom_site_fract_y
_atom_site_fract_z
Si Si1 0.263856 0.261717 0.677046
Si Si2 0.824371 0.779774 0.442894
Si Si3 0.606418 0.870166 0.364391
Si Si4 0.072152 0.409922 0.868371
Si Si5 0.119994 0.370698 0.986149
Si Si6 0.943794 0.406542 0.675289
Si Si7 0.333357 0.795815 0.674869
O O1 0.234257 0.242318 0.750000
O O2 0.208959 0.214406 0.624013
O O3 0.326492 0.249596 0.672309
O O4 0.285503 0.339330 0.664927
O O5 0.830744 0.830744 0.500000
O O6 0.898077 0.796153 0.423520
O O7 0.780528 0.707690 0.475407
O O8 0.590699 0.795350 0.348778
O O9 0.614234 0.886624 0.439978
O O10 0.545157 0.879170 0.339037
O O11 0.094371 0.411173 0.942689
O O12 0.133924 0.469694 0.831953
O O13 0.007654 0.419399 0.867402
O O14 0.196616 0.393232 0.967947
O O15 0.965380 0.411654 0.750000
O O16 0.923363 0.461682 0.657159
O O17 0.333341 0.781468 0.750000
O O18 0.399425 0.798849 0.642894
O O19 0.265664 0.734337 0.643410
#
# Coordination Sequence:
#
# PCOD8330395 Si02
#       7
#    24  24  24  24  24  24  24
#     4  10  20  31  49  81 110 131 167 218 265 318
#     4  10  19  33  52  73 105 148 180 209 256 312
#     4  10  19  34  56  78 104 136 171 214 267 319
#     4  10  18  30  49  69  99 135 169 207 263 326
#     4   9  18  31  49  74 102 133 171 214 256 312
#     4  10  21  35  50  73 105 137 171 214 264 319
#     4  10  19  30  44  62  87 124 172 221 265 313
#
# _framework density 17.721581
#
# number of rings (size 3 to 8) (size 9 to 14) (size 15 to 20)
#    0.000    2.143    1.429    3.571    0.000    3.714 
#    0.000    2.143    0.000    0.429    0.000    0.000 
#    0.000    0.000    0.000    0.000    0.000    0.000 
#
# Total GULP energy -2082928.321714 kJ/mol
# GULP energy per Si atom -12398.382867 kJ/mol
# Density = 1.768125 g / cm^3
# Si number density = 17.721581 Si / 1000 Ang^3
#
#
#
# Elastic Constant Matrix: (Units=GPa)
#
#
# Indices 1 2 3 4 5 6 
#
# 1 81.1715 45.7593 30.8238 0.0000 0.0000 0.0000
# 2 45.7593 81.1715 30.8238 0.0000 0.0000 0.0000
# 3 30.8238 30.8238 95.3769 0.0000 0.0000 0.0000
# 4 0.0000 0.0000 0.0000 22.6747 0.0000 0.0000
# 5 0.0000 0.0000 0.0000 0.0000 22.6747 0.0000
# 6 0.0000 0.0000 0.0000 0.0000 0.0000 17.7061
#
#
#
# Elastic Compliance Matrix: (Units=1/GPa)
#
#
# Indices 1 2 3 4 5 6 
#
# 1 0.018792 -0.009447 -0.003020 0.000000 0.000000 0.000000
# 2 -0.009447 0.018792 -0.003020 0.000000 0.000000 0.000000
# 3 -0.003020 -0.003020 0.012437 0.000000 0.000000 0.000000
# 4 0.000000 0.000000 0.000000 0.044102 0.000000 0.000000
# 5 0.000000 0.000000 0.000000 0.000000 0.044102 0.000000
# 6 0.000000 0.000000 0.000000 0.000000 0.000000 0.056478
#
#
# Mechanical properties :
#
#
# Convention : Reuss Voigt Hill
#
# Bulk Modulus (GPa) = 52.50313 52.50374 52.50344
# Shear Modulus (GPa) = 21.54933 22.63196 22.09064
#
# Velocity S-wave (km/s) = 3.49089 3.57751 3.53447
# Velocity P-wave (km/s) = 6.77786 6.83784 6.80792
#
# Compressibility (1/GPa) = 0.01904648
#
# Stress axis : x y z
#
# Youngs Moduli (GPa) = 53.21417 53.21417 80.40643
#
# Poissons Ratio (x) = 0.50271 0.24284
# Poissons Ratio (y) = 0.50271 0.24284
# Poissons Ratio (z) = 0.16071 0.16071
#
# Static dielectric constant tensor:
#      x y z
#    x 3.250900 0.000000 0.000000 
#    y 0.000000 3.250900 0.000000 
#    z 0.000000 0.000000 3.308410 
# 
# 
# High freq. dielectric constant tensor:
#      x y z
#    x 1.668340 0.000000 0.000000 
#    y 0.000000 1.668340 0.000000 
#    z 0.000000 0.000000 1.680810 
# 
# From -- ./inp_files/8606.got.cif
#   From: 2010.03.12/outbox.cif.g09.slc.cpg/sg194_5_cif.got.tgz:8606.got - 2010.04.01 12:26:19.
