data_PCOD8330983
_publ_section_title
;
Structure prediction by ZEFSAII (Michael W. Deem and Ramdas Pophale) SiO2 
 PCOD8330983
Probable space group: P 42 3 2
;
_chemical_formula_sum "Si O2"
_cell_formula_units_Z 54
_cell_length_a 13.844951
_cell_length_b 13.844951
_cell_length_c 13.844951
_cell_angle_alpha 90.000000
_cell_angle_beta 90.000000
_cell_angle_gamma 90.000000
_cell_volume 2653.837149
_symmetry_space_group_name_H-M "P 42 3 2"
_symmetry_group_IT_number 208
_symmetry_cell_setting 'cubic'
loop_
_space_group_symop_operation_xyz
x,y,z
1/2-y,1/2+x,1/2+z
-x,-y,z
1/2+y,1/2-x,1/2+z
1/2+x,1/2-z,1/2+y
x,-y,-z
1/2+x,1/2+z,1/2-y
1/2+z,1/2+y,1/2-x
-x,y,-z
1/2-z,1/2+y,1/2+x
z,x,y
y,z,x
-y,-z,x
z,-x,-y
-y,z,-x
-z,-x,y
-z,x,-y
y,-z,-x
1/2+y,1/2+x,1/2-z
1/2-y,1/2-x,1/2-z
1/2-x,1/2+z,1/2+y
1/2-x,1/2-z,1/2-y
1/2+z,1/2-y,1/2+x
1/2-z,1/2-y,1/2-x
loop_
_atom_site_type_symbol
_atom_site_label
_atom_site_fract_x
_atom_site_fract_y
_atom_site_fract_z
Si Si1 0.406286 0.937363 0.638754
Si Si2 0.750000 0.000000 0.500000
Si Si3 0.420096 0.727213 0.575547
O O1 0.402948 0.902948 0.750000
O O2 0.315259 0.999198 0.598334
O O3 0.409289 0.841579 0.574653
O O4 0.500000 0.000000 0.618496
O O5 0.500000 0.694246 0.500000
O O6 0.316369 0.679882 0.547115
#
# Coordination Sequence:
#
# PCOD8330983 Si02
#       3
#    24   6  24
#     4  11  24  41  63  93 129 179 230 280 344 419
#     4  12  22  40  68  86 136 172 232 288 346 402
#     4  10  21  36  62  92 131 163 217 277 351 415
#
# _framework density 20.347895000000001
#
# number of rings (size 3 to 8) (size 9 to 14) (size 15 to 20)
#    0.889    0.444    0.000    6.889    0.000    0.000 
#    1.333    0.000    0.000    7.111    0.000    0.000 
#    0.000    0.000    0.000    0.000    0.000    0.000 
#
# Total GULP energy -669123.018841 kJ/mol
# GULP energy per Si atom -12391.167016 kJ/mol
# Density = 2.030158 g / cm^3
# Si number density = 20.347895 Si / 1000 Ang^3
#
#
#
# Elastic Constant Matrix: (Units=GPa)
#
#
# Indices 1 2 3 4 5 6 
#
# 1 120.4736 45.9769 45.9769 0.0000 0.0000 0.0000
# 2 45.9769 120.4736 45.9769 0.0000 0.0000 0.0000
# 3 45.9769 45.9769 120.4736 0.0000 0.0000 0.0000
# 4 0.0000 0.0000 0.0000 30.9185 0.0000 0.0000
# 5 0.0000 0.0000 0.0000 0.0000 30.9185 0.0000
# 6 0.0000 0.0000 0.0000 0.0000 0.0000 30.9185
#
#
#
# Elastic Compliance Matrix: (Units=1/GPa)
#
#
# Indices 1 2 3 4 5 6 
#
# 1 0.010518 -0.002905 -0.002905 0.000000 0.000000 0.000000
# 2 -0.002905 0.010518 -0.002905 0.000000 0.000000 0.000000
# 3 -0.002905 -0.002905 0.010518 0.000000 0.000000 0.000000
# 4 0.000000 0.000000 0.000000 0.032343 0.000000 0.000000
# 5 0.000000 0.000000 0.000000 0.000000 0.032343 0.000000
# 6 0.000000 0.000000 0.000000 0.000000 0.000000 0.032343
#
#
# Mechanical properties :
#
#
# Convention : Reuss Voigt Hill
#
# Bulk Modulus (GPa) = 70.80916 70.80916 70.80916
# Shear Modulus (GPa) = 33.17342 33.45041 33.31191
#
# Velocity S-wave (km/s) = 4.04209 4.05893 4.05052
# Velocity P-wave (km/s) = 7.52725 7.53932 7.53329
#
# Compressibility (1/GPa) = 0.01412247
#
# Stress axis : x y z
#
# Youngs Moduli (GPa) = 95.07412 95.07412 95.07412
#
# Poissons Ratio (x) = 0.27622 0.27622
# Poissons Ratio (y) = 0.27622 0.27622
# Poissons Ratio (z) = 0.27622 0.27622
#
# Static dielectric constant tensor:
#      x y z
#    x 3.641880 0.000000 0.000000 
#    y 0.000000 3.641880 0.000000 
#    z 0.000000 0.000000 3.641880 
# 
# 
# High freq. dielectric constant tensor:
#      x y z
#    x 1.794010 0.000000 0.000000 
#    y 0.000000 1.794010 0.000000 
#    z 0.000000 0.000000 1.794010 
# 
# From -- ./inp_files/359.got.cif
#   From: 2010.03.12/outbox.cif.g09.slc.cpg/sg208_cif.got.tgz:359.got - 2010.03.30 09:03:42.
