data_PCOD8330603
_publ_section_title
;
Structure prediction by ZEFSAII (Michael W. Deem and Ramdas Pophale) SiO2 
 PCOD8330603
Probable space group: P 63/M M C
;
_chemical_formula_sum "Si O2"
_cell_formula_units_Z 168
_cell_length_a 17.268178
_cell_length_b 17.268178
_cell_length_c 33.090204
_cell_angle_alpha 90.000000
_cell_angle_beta 90.000000
_cell_angle_gamma 120.000000
_cell_volume 8545.217273
_symmetry_space_group_name_H-M "P 63/M M C"
_symmetry_group_IT_number 194
_symmetry_cell_setting 'hexagonal'
loop_
_space_group_symop_operation_xyz
x,y,z
x-y,x,1/2+z
-y,x-y,z
-x,-y,1/2+z
-x+y,-x,z
y,-x+y,1/2+z
x-y,-y,-z
-x,-x+y,-z
y,x,-z
-y,-x,1/2-z
-x+y,y,1/2-z
x,x-y,1/2-z
-x,-y,-z
-x+y,-x,1/2-z
y,-x+y,-z
x,y,1/2-z
x-y,x,-z
-y,x-y,1/2-z
-x+y,y,z
x,x-y,z
-y,-x,z
y,x,1/2+z
x-y,-y,1/2+z
-x,-x+y,1/2+z
loop_
_atom_site_type_symbol
_atom_site_label
_atom_site_fract_x
_atom_site_fract_y
_atom_site_fract_z
Si Si1 0.532927 0.896637 0.010774
Si Si2 0.093590 0.730582 0.704209
Si Si3 0.688860 0.931207 0.153366
Si Si4 0.332268 0.847581 0.101269
Si Si5 0.364864 0.098189 0.438514
Si Si6 0.153960 0.667462 0.630864
Si Si7 0.997581 0.178123 0.919418
O O1 0.425581 0.851162 0.005151
O O2 0.553918 0.882010 0.056272
O O3 0.574925 0.859427 0.978406
O O4 0.579010 0.000000 0.000000
O O5 0.090547 0.698043 0.750000
O O6 0.163322 0.836679 0.700001
O O7 0.124927 0.675934 0.675853
O O8 0.994863 0.707837 0.691577
O O9 0.678903 0.839452 0.170046
O O10 0.595955 0.908544 0.131390
O O11 0.775827 0.980437 0.124867
O O12 0.429011 0.858021 0.110777
O O13 0.256479 0.743521 0.104730
O O14 0.345688 0.172844 0.419717
O O15 0.417884 0.081478 0.402148
O O16 0.264273 0.015931 0.447317
O O17 0.153002 0.576501 0.626635
O O18 0.253034 0.746967 0.620482
O O19 0.909145 0.090856 0.936271
O O20 0.078331 0.156662 0.918763
#
# Coordination Sequence:
#
# PCOD8330603 Si02
#       7
#    24  24  24  24  24  24  24
#     4  10  20  32  49  77 110 144 186 232 282 333
#     4  10  21  38  59  83 112 145 181 225 282 343
#     4  10  20  35  57  84 113 145 184 230 281 337
#     4  10  21  37  57  83 116 155 197 241 288 340
#     4  10  19  33  53  76 106 143 182 228 275 325
#     4  10  20  34  54  79 110 146 184 223 271 329
#     4  10  19  33  54  79 108 142 183 229 279 336
#
# _framework density 19.660119999999999
#
# number of rings (size 3 to 8) (size 9 to 14) (size 15 to 20)
#    0.000    2.000    1.429    2.571    0.000    1.143 
#    0.000    0.714    0.000    7.429    0.000    0.000 
#    0.000   18.857    0.000    0.000    0.000    0.000 
#
# Total GULP energy -2081768.785043 kJ/mol
# GULP energy per Si atom -12391.480863 kJ/mol
# Density = 1.961537 g / cm^3
# Si number density = 19.660120 Si / 1000 Ang^3
#
#
#
# Elastic Constant Matrix: (Units=GPa)
#
#
# Indices 1 2 3 4 5 6 
#
# 1 115.9265 53.1196 39.8508 0.0000 0.0000 0.0000
# 2 53.1196 115.9265 39.8508 0.0000 0.0000 0.0000
# 3 39.8508 39.8508 91.6470 0.0000 0.0000 0.0000
# 4 0.0000 0.0000 0.0000 25.9909 0.0000 0.0000
# 5 0.0000 0.0000 0.0000 0.0000 25.9909 0.0000
# 6 0.0000 0.0000 0.0000 0.0000 0.0000 31.4034
#
#
#
# Elastic Compliance Matrix: (Units=1/GPa)
#
#
# Indices 1 2 3 4 5 6 
#
# 1 0.011681 -0.004240 -0.003236 0.000000 0.000000 0.000000
# 2 -0.004240 0.011681 -0.003236 0.000000 0.000000 0.000000
# 3 -0.003236 -0.003236 0.013725 0.000000 0.000000 0.000000
# 4 0.000000 0.000000 0.000000 0.038475 0.000000 0.000000
# 5 0.000000 0.000000 0.000000 0.000000 0.038475 0.000000
# 6 0.000000 0.000000 0.000000 0.000000 0.000000 0.031844
#
#
# Mechanical properties :
#
#
# Convention : Reuss Voigt Hill
#
# Bulk Modulus (GPa) = 63.83638 65.46026 64.64832
# Shear Modulus (GPa) = 28.98102 29.38895 29.18498
#
# Velocity S-wave (km/s) = 3.84357 3.87052 3.85707
# Velocity P-wave (km/s) = 7.22757 7.30362 7.26570
#
# Compressibility (1/GPa) = 0.01566505
#
# Stress axis : x y z
#
# Youngs Moduli (GPa) = 85.60588 85.60588 72.85818
#
# Poissons Ratio (x) = 0.36300 0.23574
# Poissons Ratio (y) = 0.36300 0.23574
# Poissons Ratio (z) = 0.27699 0.27699
#
# Static dielectric constant tensor:
#      x y z
#    x 3.720240 0.000000 0.000000 
#    y 0.000000 3.720240 0.000000 
#    z 0.000000 0.000000 3.558240 
# 
# 
# High freq. dielectric constant tensor:
#      x y z
#    x 1.773510 0.000000 0.000000 
#    y 0.000000 1.773510 0.000000 
#    z 0.000000 0.000000 1.734370 
# 
# From -- ./inp_files/12259.got.cif
#   From: 2010.03.12/outbox.cif.g09.slc.cpg/sg194_7_cif.got.tgz:12259.got - 2010.04.01 12:26:19.
