data_PCOD8330583
_publ_section_title
;
Structure prediction by ZEFSAII (Michael W. Deem and Ramdas Pophale) SiO2 
 PCOD8330583
Probable space group: P 63/M M C
;
_chemical_formula_sum "Si O2"
_cell_formula_units_Z 192
_cell_length_a 24.313101
_cell_length_b 24.313101
_cell_length_c 21.371538
_cell_angle_alpha 90.000000
_cell_angle_beta 90.000000
_cell_angle_gamma 120.000000
_cell_volume 10940.750579
_symmetry_space_group_name_H-M "P 63/M M C"
_symmetry_group_IT_number 194
_symmetry_cell_setting 'hexagonal'
loop_
_space_group_symop_operation_xyz
x,y,z
x-y,x,1/2+z
-y,x-y,z
-x,-y,1/2+z
-x+y,-x,z
y,-x+y,1/2+z
x-y,-y,-z
-x,-x+y,-z
y,x,-z
-y,-x,1/2-z
-x+y,y,1/2-z
x,x-y,1/2-z
-x,-y,-z
-x+y,-x,1/2-z
y,-x+y,-z
x,y,1/2-z
x-y,x,-z
-y,x-y,1/2-z
-x+y,y,z
x,x-y,z
-y,-x,z
y,x,1/2+z
x-y,-y,1/2+z
-x,-x+y,1/2+z
loop_
_atom_site_type_symbol
_atom_site_label
_atom_site_fract_x
_atom_site_fract_y
_atom_site_fract_z
Si Si1 0.021775 0.355716 0.676277
Si Si2 0.126604 0.999949 0.177272
Si Si3 0.980687 0.750327 0.606479
Si Si4 0.460265 0.666669 0.387724
Si Si5 0.269846 0.413770 0.905959
Si Si6 0.698175 0.788661 0.509909
Si Si7 0.209436 0.666313 0.531539
Si Si8 0.524614 0.924159 0.176029
O O1 0.029048 0.361618 0.750000
O O2 0.989078 0.281807 0.657961
O O3 0.978964 0.385421 0.651621
O O4 0.092169 0.393587 0.648228
O O5 0.144481 0.003420 0.250000
O O6 0.053780 0.946221 0.165509
O O7 0.171333 0.980831 0.139224
O O8 0.135271 0.067636 0.155211
O O9 0.917747 0.705907 0.565525
O O10 0.031789 0.775389 0.552097
O O11 0.468333 0.734167 0.366899
O O12 0.387801 0.612200 0.374133
O O13 0.477226 0.666632 0.460187
O O14 0.509636 0.653720 0.349804
O O15 0.202246 0.404491 0.882290
O O16 0.260631 0.374275 0.969919
O O17 0.318309 0.486053 0.922072
O O18 0.717124 0.858562 0.530545
O O19 0.196593 0.598297 0.553040
O O20 0.283701 0.716299 0.539122
O O21 0.525672 0.919818 0.250000
O O22 0.470071 0.940141 0.153935
#
# Coordination Sequence:
#
# PCOD8330583 Si02
#       8
#    24  24  24  24  24  24  24  24
#     4  10  21  36  53  74 101 133 173 218 260 303
#     4  10  20  34  52  74 100 129 163 206 257 313
#     4  10  19  32  52  74  97 127 165 204 249 303
#     4   9  17  30  50  75 103 138 178 219 260 304
#     4   9  19  34  52  76 102 131 172 213 257 310
#     4   9  18  32  49  70  98 129 159 198 245 295
#     4   9  17  30  50  77 107 135 166 208 258 311
#     4   9  19  35  51  70 102 141 178 216 261 310
#
# _framework density 17.54907
#
# number of rings (size 3 to 8) (size 9 to 14) (size 15 to 20)
#    0.000    2.625    0.000    1.500    1.750    3.000 
#    0.000    0.625    0.000    4.500    0.000    4.375 
#    0.000    1.000    0.000    0.000    0.000    0.000 
#
# Total GULP energy -2379741.445712 kJ/mol
# GULP energy per Si atom -12394.486696 kJ/mol
# Density = 1.750913 g / cm^3
# Si number density = 17.549070 Si / 1000 Ang^3
#
#
#
# Elastic Constant Matrix: (Units=GPa)
#
#
# Indices 1 2 3 4 5 6 
#
# 1 93.2179 66.3795 42.8492 0.0000 0.0000 0.0000
# 2 66.3795 93.2179 42.8492 0.0000 0.0000 0.0000
# 3 42.8492 42.8492 61.2421 0.0000 0.0000 0.0000
# 4 0.0000 0.0000 0.0000 19.2640 0.0000 0.0000
# 5 0.0000 0.0000 0.0000 0.0000 19.2640 0.0000
# 6 0.0000 0.0000 0.0000 0.0000 0.0000 13.4192
#
#
#
# Elastic Compliance Matrix: (Units=1/GPa)
#
#
# Indices 1 2 3 4 5 6 
#
# 1 0.023648 -0.013612 -0.007022 0.000000 0.000000 0.000000
# 2 -0.013612 0.023648 -0.007022 0.000000 0.000000 0.000000
# 3 -0.007022 -0.007022 0.026155 0.000000 0.000000 0.000000
# 4 0.000000 0.000000 0.000000 0.051910 0.000000 0.000000
# 5 0.000000 0.000000 0.000000 0.000000 0.051910 0.000000
# 6 0.000000 0.000000 0.000000 0.000000 0.000000 0.074520
#
#
# Mechanical properties :
#
#
# Convention : Reuss Voigt Hill
#
# Bulk Modulus (GPa) = 55.12927 61.31487 58.22207
# Shear Modulus (GPa) = 15.96672 16.76276 16.36474
#
# Velocity S-wave (km/s) = 3.01962 3.09397 3.05702
# Velocity P-wave (km/s) = 6.60606 6.91220 6.76086
#
# Compressibility (1/GPa) = 0.01813918
#
# Stress axis : x y z
#
# Youngs Moduli (GPa) = 42.28637 42.28637 38.23348
#
# Poissons Ratio (x) = 0.57559 0.26848
# Poissons Ratio (y) = 0.57559 0.26848
# Poissons Ratio (z) = 0.29694 0.29694
#
# Static dielectric constant tensor:
#      x y z
#    x 3.397590 0.000000 0.000000 
#    y 0.000000 3.397590 0.000000 
#    z 0.000000 0.000000 3.263280 
# 
# 
# High freq. dielectric constant tensor:
#      x y z
#    x 1.682050 0.000000 0.000000 
#    y 0.000000 1.682050 0.000000 
#    z 0.000000 0.000000 1.662540 
# 
# From -- ./inp_files/8696.got.cif
#   From: 2010.03.12/outbox.cif.g09.slc.cpg/sg194_5_cif.got.tgz:8696.got - 2010.04.01 12:26:19.
