data_PCOD8330498
_publ_section_title
;
Structure prediction by ZEFSAII (Michael W. Deem and Ramdas Pophale) SiO2 
 PCOD8330498
Probable space group: P 63/M M C
;
_chemical_formula_sum "Si O2"
_cell_formula_units_Z 84
_cell_length_a 23.223840
_cell_length_b 23.223840
_cell_length_c 10.276658
_cell_angle_alpha 90.000000
_cell_angle_beta 90.000000
_cell_angle_gamma 120.000000
_cell_volume 4800.103447
_symmetry_space_group_name_H-M "P 63/M M C"
_symmetry_group_IT_number 194
_symmetry_cell_setting 'hexagonal'
loop_
_space_group_symop_operation_xyz
x,y,z
x-y,x,1/2+z
-y,x-y,z
-x,-y,1/2+z
-x+y,-x,z
y,-x+y,1/2+z
x-y,-y,-z
-x,-x+y,-z
y,x,-z
-y,-x,1/2-z
-x+y,y,1/2-z
x,x-y,1/2-z
-x,-y,-z
-x+y,-x,1/2-z
y,-x+y,-z
x,y,1/2-z
x-y,x,-z
-y,x-y,1/2-z
-x+y,y,z
x,x-y,z
-y,-x,z
y,x,1/2+z
x-y,-y,1/2+z
-x,-x+y,1/2+z
loop_
_atom_site_type_symbol
_atom_site_label
_atom_site_fract_x
_atom_site_fract_y
_atom_site_fract_z
Si Si1 0.130740 0.738776 0.601012
Si Si2 0.365154 0.365154 0.500000
Si Si3 0.540648 0.206539 0.035394
Si Si4 0.812432 0.499269 0.750000
Si Si5 0.410619 0.449877 0.250000
O O1 0.115399 0.746830 0.750000
O O2 0.189668 0.810333 0.547232
O O3 0.063579 0.709564 0.515176
O O4 0.153022 0.683670 0.589938
O O5 0.407395 0.408356 0.376758
O O6 0.594661 0.189321 0.093228
O O7 0.558510 0.279255 0.084330
O O8 0.545114 0.205741 0.878916
O O9 0.768441 0.536882 0.750000
O O10 0.890873 0.549292 0.750000
O O11 0.476685 0.523316 0.250000
#
# Coordination Sequence:
#
# PCOD8330498 Si02
#       5
#    24  12  24  12  12
#     4  10  22  39  55  75 104 136 171 216 269 325
#     4  12  23  38  58  80 100 140 181 216 272 336
#     4  10  19  31  47  67  92 126 169 218 269 321
#     4  10  20  32  48  68  94 127 163 214 274 323
#     4  12  24  36  51  78 108 135 177 234 282 327
#
# _framework density 17.499623
#
# number of rings (size 3 to 8) (size 9 to 14) (size 15 to 20)
#    0.000    1.429    4.286    2.000    0.000    1.714 
#    0.000    1.429    0.000    2.000    0.000    0.000 
#    0.000    0.000    0.000    0.429    0.000    2.000 
#
# Total GULP energy -1040924.238851 kJ/mol
# GULP energy per Si atom -12391.955224 kJ/mol
# Density = 1.745979 g / cm^3
# Si number density = 17.499623 Si / 1000 Ang^3
#
#
#
# Elastic Constant Matrix: (Units=GPa)
#
#
# Indices 1 2 3 4 5 6 
#
# 1 88.2688 57.1337 20.7790 0.0000 0.0000 0.0000
# 2 57.1337 88.2688 20.7790 0.0000 0.0000 0.0000
# 3 20.7790 20.7790 77.3003 0.0000 0.0000 0.0000
# 4 0.0000 0.0000 0.0000 13.6508 0.0000 0.0000
# 5 0.0000 0.0000 0.0000 0.0000 13.6508 0.0000
# 6 0.0000 0.0000 0.0000 0.0000 0.0000 15.5675
#
#
#
# Elastic Compliance Matrix: (Units=1/GPa)
#
#
# Indices 1 2 3 4 5 6 
#
# 1 0.019784 -0.012334 -0.002003 0.000000 0.000000 0.000000
# 2 -0.012334 0.019784 -0.002003 0.000000 0.000000 0.000000
# 3 -0.002003 -0.002003 0.014013 0.000000 0.000000 0.000000
# 4 0.000000 0.000000 0.000000 0.073256 0.000000 0.000000
# 5 0.000000 0.000000 0.000000 0.000000 0.073256 0.000000
# 6 0.000000 0.000000 0.000000 0.000000 0.000000 0.064236
#
#
# Mechanical properties :
#
#
# Convention : Reuss Voigt Hill
#
# Bulk Modulus (GPa) = 47.84113 50.13571 48.98842
# Shear Modulus (GPa) = 16.44871 18.91689 17.68280
#
# Velocity S-wave (km/s) = 3.06918 3.29141 3.18223
# Velocity P-wave (km/s) = 6.32120 6.56934 6.44646
#
# Compressibility (1/GPa) = 0.02090252
#
# Stress axis : x y z
#
# Youngs Moduli (GPa) = 50.54597 50.54597 71.36131
#
# Poissons Ratio (x) = 0.62344 0.14291
# Poissons Ratio (y) = 0.62344 0.14291
# Poissons Ratio (z) = 0.10122 0.10122
#
# Static dielectric constant tensor:
#      x y z
#    x 3.190650 0.000000 0.000000 
#    y 0.000000 3.190650 0.000000 
#    z 0.000000 0.000000 3.413810 
# 
# 
# High freq. dielectric constant tensor:
#      x y z
#    x 1.645920 0.000000 0.000000 
#    y 0.000000 1.645920 0.000000 
#    z 0.000000 0.000000 1.689830 
# 
# From -- ./inp_files/3013.got.cif
#   From: 2010.03.12/outbox.cif.g09.slc.cpg/sg194_2_cif.got.tgz:3013.got - 2010.04.01 12:26:19.
