data_PCOD8330321
_publ_section_title
;
Structure prediction by ZEFSAII (Michael W. Deem and Ramdas Pophale) SiO2 
 PCOD8330321
Probable space group: P 63/M M C
;
_chemical_formula_sum "Si O2"
_cell_formula_units_Z 108
_cell_length_a 17.516776
_cell_length_b 17.516776
_cell_length_c 22.536532
_cell_angle_alpha 90.000000
_cell_angle_beta 90.000000
_cell_angle_gamma 120.000000
_cell_volume 5988.610543
_symmetry_space_group_name_H-M "P 63/M M C"
_symmetry_group_IT_number 194
_symmetry_cell_setting 'hexagonal'
loop_
_space_group_symop_operation_xyz
x,y,z
x-y,x,1/2+z
-y,x-y,z
-x,-y,1/2+z
-x+y,-x,z
y,-x+y,1/2+z
x-y,-y,-z
-x,-x+y,-z
y,x,-z
-y,-x,1/2-z
-x+y,y,1/2-z
x,x-y,1/2-z
-x,-y,-z
-x+y,-x,1/2-z
y,-x+y,-z
x,y,1/2-z
x-y,x,-z
-y,x-y,1/2-z
-x+y,y,z
x,x-y,z
-y,-x,z
y,x,1/2+z
x-y,-y,1/2+z
-x,-x+y,1/2+z
loop_
_atom_site_type_symbol
_atom_site_label
_atom_site_fract_x
_atom_site_fract_y
_atom_site_fract_z
Si Si1 0.253117 0.339699 0.912417
Si Si2 0.666879 0.503365 0.864483
Si Si3 0.576008 0.595399 0.816768
Si Si4 0.000000 0.184221 0.000000
Si Si5 0.364035 0.895994 0.005262
O O1 0.161408 0.322815 0.885087
O O2 0.321727 0.372798 0.859104
O O3 0.234339 0.247883 0.943525
O O4 0.284206 0.419690 0.959512
O O5 0.761288 0.522575 0.842510
O O6 0.601222 0.398779 0.868996
O O7 0.631788 0.545532 0.816383
O O8 0.674877 0.546898 0.928823
O O9 0.573393 0.627022 0.750000
O O10 0.475407 0.524594 0.838335
O O11 0.087370 0.174739 0.009804
O O12 0.427483 0.854965 0.991078
O O13 0.421436 0.000000 0.000000
#
# Coordination Sequence:
#
# PCOD8330321 Si02
#       5
#    24  24  24  12  24
#     4  11  20  32  53  79 103 130 171 219 257 298
#     4  10  19  31  49  74 103 133 165 201 245 297
#     4  10  21  37  54  72 100 139 177 212 256 305
#     4  10  21  36  55  80 110 140 168 208 269 334
#     4  10  17  29  50  75 104 134 161 196 247 305
#
# _framework density 18.034233
#
# number of rings (size 3 to 8) (size 9 to 14) (size 15 to 20)
#    0.000    1.778    3.333    1.667    0.000    3.556 
#    0.000    0.000    0.000    6.222    0.000    0.000 
#    0.000    1.778    0.000    0.000    0.000    0.000 
#
# Total GULP energy -1338081.958639 kJ/mol
# GULP energy per Si atom -12389.647765 kJ/mol
# Density = 1.799319 g / cm^3
# Si number density = 18.034233 Si / 1000 Ang^3
#
#
#
# Elastic Constant Matrix: (Units=GPa)
#
#
# Indices 1 2 3 4 5 6 
#
# 1 94.0541 47.5924 41.1298 0.0000 0.0000 0.0000
# 2 47.5924 94.0541 41.1298 0.0000 0.0000 0.0000
# 3 41.1298 41.1298 77.7798 0.0000 0.0000 0.0000
# 4 0.0000 0.0000 0.0000 19.6763 0.0000 0.0000
# 5 0.0000 0.0000 0.0000 0.0000 19.6763 0.0000
# 6 0.0000 0.0000 0.0000 0.0000 0.0000 23.2309
#
#
#
# Elastic Compliance Matrix: (Units=1/GPa)
#
#
# Indices 1 2 3 4 5 6 
#
# 1 0.015856 -0.005667 -0.005388 0.000000 0.000000 0.000000
# 2 -0.005667 0.015856 -0.005388 0.000000 0.000000 0.000000
# 3 -0.005388 -0.005388 0.018555 0.000000 0.000000 0.000000
# 4 0.000000 0.000000 0.000000 0.050823 0.000000 0.000000
# 5 0.000000 0.000000 0.000000 0.000000 0.050823 0.000000
# 6 0.000000 0.000000 0.000000 0.000000 0.000000 0.043046
#
#
# Mechanical properties :
#
#
# Convention : Reuss Voigt Hill
#
# Bulk Modulus (GPa) = 57.53328 58.39909 57.96618
# Shear Modulus (GPa) = 21.40069 21.58576 21.49323
#
# Velocity S-wave (km/s) = 3.44855 3.46342 3.45599
# Velocity P-wave (km/s) = 6.91579 6.96034 6.93810
#
# Compressibility (1/GPa) = 0.01738125
#
# Stress axis : x y z
#
# Youngs Moduli (GPa) = 63.06803 63.06803 53.89413
#
# Poissons Ratio (x) = 0.35742 0.29037
# Poissons Ratio (y) = 0.35742 0.29037
# Poissons Ratio (z) = 0.33980 0.33980
#
# Static dielectric constant tensor:
#      x y z
#    x 3.527550 0.000000 0.000000 
#    y 0.000000 3.527550 0.000000 
#    z 0.000000 0.000000 3.319250 
# 
# 
# High freq. dielectric constant tensor:
#      x y z
#    x 1.693160 0.000000 0.000000 
#    y 0.000000 1.693160 0.000000 
#    z 0.000000 0.000000 1.678920 
# 
# From -- ./inp_files/7975.got.cif
#   From: 2010.03.12/outbox.cif.g09.slc.cpg/sg194_4_cif.got.tgz:7975.got - 2010.04.01 12:26:19.
