data_PCOD8330886
_publ_section_title
;
Structure prediction by ZEFSAII (Michael W. Deem and Ramdas Pophale) SiO2 
 PCOD8330886
Probable space group: P 21 3
;
_chemical_formula_sum "Si O2"
_cell_formula_units_Z 84
_cell_length_a 15.996869
_cell_length_b 15.996869
_cell_length_c 15.996869
_cell_angle_alpha 90.000000
_cell_angle_beta 90.000000
_cell_angle_gamma 90.000000
_cell_volume 4093.595863
_symmetry_space_group_name_H-M "P 21 3"
_symmetry_group_IT_number 198
_symmetry_cell_setting 'cubic'
loop_
_space_group_symop_operation_xyz
x,y,z
z,x,y
y,z,x
1/2-y,-z,1/2+x
1/2+z,1/2-x,-y
-y,1/2+z,1/2-x
1/2-z,-x,1/2+y
-z,1/2+x,1/2-y
1/2+y,1/2-z,-x
1/2-x,-y,1/2+z
1/2+x,1/2-y,-z
-x,1/2+y,1/2-z
loop_
_atom_site_type_symbol
_atom_site_label
_atom_site_fract_x
_atom_site_fract_y
_atom_site_fract_z
Si Si1 0.452017 0.280576 0.534352
Si Si2 0.215021 0.918091 0.178444
Si Si3 0.445238 0.712306 0.298315
Si Si4 0.078401 0.804566 0.571247
Si Si5 0.586209 0.156549 0.974475
Si Si6 0.051811 0.840349 0.184661
Si Si7 0.132730 0.457276 0.786749
O O1 0.495716 0.361248 0.575598
O O2 0.463161 0.198921 0.592833
O O3 0.357629 0.304042 0.509021
O O4 0.487327 0.256997 0.443897
O O5 0.221712 0.834160 0.121342
O O6 0.114230 0.921205 0.185644
O O7 0.256216 0.907706 0.269148
O O8 0.256999 0.997461 0.131735
O O9 0.536853 0.721747 0.340279
O O10 0.447582 0.709723 0.197300
O O11 0.405262 0.625520 0.327414
O O12 0.150911 0.874024 0.583023
O O13 0.124249 0.722677 0.534401
O O14 0.007337 0.843759 0.511011
#
# Coordination Sequence:
#
# PCOD8330886 Si02
#       7
#    12  12  12  12  12  12  12
#     4  11  21  39  65  92 128 164 220 282 321 375
#     4  10  19  36  60  93 131 166 206 268 324 382
#     4  11  21  39  65  92 128 164 220 282 321 375
#     4  11  21  36  63 100 130 168 209 268 333 397
#     4  10  19  36  60  93 131 166 206 268 324 382
#     4  11  21  36  63 100 130 168 209 268 333 397
#     4  12  22  42  66  94 120 172 226 278 320 384
#
# _framework density 20.519856999999998
#
# number of rings (size 3 to 8) (size 9 to 14) (size 15 to 20)
#    0.000    1.143    7.143    2.000    0.000    0.000 
#    2.571    0.000    0.000   29.714    0.000    0.000 
#    0.000    0.000    0.000    0.000    0.000    0.000 
#
# Total GULP energy -1041047.202053 kJ/mol
# GULP energy per Si atom -12393.419072 kJ/mol
# Density = 2.047315 g / cm^3
# Si number density = 20.519857 Si / 1000 Ang^3
#
#
#
# Elastic Constant Matrix: (Units=GPa)
#
#
# Indices 1 2 3 4 5 6 
#
# 1 91.5809 42.6713 42.6713 0.0000 0.0000 0.0000
# 2 42.6713 91.5809 42.6713 0.0000 0.0000 0.0000
# 3 42.6713 42.6713 91.5809 0.0000 0.0000 0.0000
# 4 0.0000 0.0000 0.0000 25.4326 0.0000 0.0000
# 5 0.0000 0.0000 0.0000 0.0000 25.4326 0.0000
# 6 0.0000 0.0000 0.0000 0.0000 0.0000 25.4326
#
#
#
# Elastic Compliance Matrix: (Units=1/GPa)
#
#
# Indices 1 2 3 4 5 6 
#
# 1 0.015515 -0.004931 -0.004931 0.000000 0.000000 0.000000
# 2 -0.004931 0.015515 -0.004931 0.000000 0.000000 0.000000
# 3 -0.004931 -0.004931 0.015515 0.000000 0.000000 0.000000
# 4 0.000000 0.000000 0.000000 0.039320 0.000000 0.000000
# 5 0.000000 0.000000 0.000000 0.000000 0.039320 0.000000
# 6 0.000000 0.000000 0.000000 0.000000 0.000000 0.039320
#
#
# Mechanical properties :
#
#
# Convention : Reuss Voigt Hill
#
# Bulk Modulus (GPa) = 58.97449 58.97449 58.97449
# Shear Modulus (GPa) = 25.03224 25.04147 25.03686
#
# Velocity S-wave (km/s) = 3.49650 3.49715 3.49682
# Velocity P-wave (km/s) = 6.71590 6.71635 6.71612
#
# Compressibility (1/GPa) = 0.01695648
#
# Stress axis : x y z
#
# Youngs Moduli (GPa) = 64.45522 64.45522 64.45522
#
# Poissons Ratio (x) = 0.31784 0.31784
# Poissons Ratio (y) = 0.31784 0.31784
# Poissons Ratio (z) = 0.31784 0.31784
#
# Static dielectric constant tensor:
#      x y z
#    x 3.671930 0.000000 0.000000 
#    y 0.000000 3.671930 0.000000 
#    z 0.000000 0.000000 3.671930 
# 
# 
# High freq. dielectric constant tensor:
#      x y z
#    x 1.790660 0.000000 0.000000 
#    y 0.000000 1.790660 0.000000 
#    z 0.000000 0.000000 1.790660 
# 
# From -- ./inp_files/426.got.cif
#   From: 2010.03.12/outbox.cif.g09.slc.cpg/sg198_cif.got.tgz:426.got - 2010.04.01 12:33:50.
