data_PCOD8330103
_publ_section_title
;
Structure prediction by ZEFSAII (Michael W. Deem and Ramdas Pophale) SiO2 
 PCOD8330103
Probable space group: P 63/M C M
;
_chemical_formula_sum "Si O2"
_cell_formula_units_Z 104
_cell_length_a 18.082882
_cell_length_b 18.082882
_cell_length_c 18.385187
_cell_angle_alpha 90.000000
_cell_angle_beta 90.000000
_cell_angle_gamma 120.000000
_cell_volume 5206.357425
_symmetry_space_group_name_H-M "P 63/M C M"
_symmetry_group_IT_number 193
_symmetry_cell_setting 'hexagonal'
loop_
_space_group_symop_operation_xyz
x,y,z
x-y,x,1/2+z
-y,x-y,z
-x,-y,1/2+z
-x+y,-x,z
y,-x+y,1/2+z
x-y,-y,1/2-z
-x,-x+y,1/2-z
y,x,1/2-z
-y,-x,-z
-x+y,y,-z
x,x-y,-z
-x,-y,-z
-x+y,-x,1/2-z
y,-x+y,-z
x,y,1/2-z
x-y,x,-z
-y,x-y,1/2-z
-x+y,y,1/2+z
x,x-y,1/2+z
-y,-x,1/2+z
y,x,z
x-y,-y,z
-x,-x+y,z
loop_
_atom_site_type_symbol
_atom_site_label
_atom_site_fract_x
_atom_site_fract_y
_atom_site_fract_z
Si Si1 0.094817 0.903939 0.836340
Si Si2 0.372875 0.131491 0.831958
Si Si3 0.572045 0.000000 0.914217
Si Si4 0.333334 0.666668 0.837291
Si Si5 0.827886 0.327945 0.331300
Si Si6 0.000000 0.397399 0.577492
O O1 0.089713 0.899567 0.750000
O O2 0.160863 0.874402 0.863209
O O3 0.000000 0.841614 0.868860
O O4 0.127371 0.000000 0.863699
O O5 0.356659 0.092210 0.750000
O O6 0.448044 0.226854 0.829682
O O7 0.403383 0.082879 0.885922
O O8 0.640735 0.086219 0.875749
O O9 0.484399 0.000000 0.911819
O O10 0.614049 0.000000 0.991120
O O11 0.333334 0.666668 0.750000
O O12 0.407267 0.760023 0.865368
O O13 0.853578 0.365758 0.250000
#
# Coordination Sequence:
#
# PCOD8330103 Si02
#       6
#    24  24  12   8  24  12
#     4   9  16  27  47  81 121 156 192 236 291 349
#     4  10  20  35  60  88 117 156 201 252 304 359
#     4  11  25  39  57  85 118 159 196 248 303 357
#     4   9  18  36  60  88 116 148 187 239 307 372
#     4  10  21  37  60  89 118 148 192 249 307 363
#     4  11  23  41  59  83 120 159 206 242 288 372
#
# _framework density 19.975579
#
# number of rings (size 3 to 8) (size 9 to 14) (size 15 to 20)
#    0.000    2.077    1.154    2.308    1.615    5.538 
#    0.000    0.000    0.000    2.769    0.000    0.000 
#    0.000    1.846    0.000    0.000    0.000    0.000 
#
# Total GULP energy -1289168.400153 kJ/mol
# GULP energy per Si atom -12395.850001 kJ/mol
# Density = 1.993011 g / cm^3
# Si number density = 19.975579 Si / 1000 Ang^3
#
#
#
# Elastic Constant Matrix: (Units=GPa)
#
#
# Indices 1 2 3 4 5 6 
#
# 1 105.8812 28.9540 45.6797 -0.0001 0.0000 0.0000
# 2 28.9540 105.8826 45.6796 -0.0001 -0.0001 0.0003
# 3 45.6797 45.6796 86.8757 0.0000 0.0000 0.0000
# 4 -0.0001 -0.0001 0.0000 25.6378 -0.0003 0.0000
# 5 0.0000 -0.0001 0.0000 -0.0003 25.6390 0.0000
# 6 0.0000 0.0003 0.0000 0.0000 0.0000 38.4642
#
#
#
# Elastic Compliance Matrix: (Units=1/GPa)
#
#
# Indices 1 2 3 4 5 6 
#
# 1 0.012260 -0.000739 -0.006058 0.000000 0.000000 0.000000
# 2 -0.000739 0.012260 -0.006058 0.000000 0.000000 0.000000
# 3 -0.006058 -0.006058 0.017881 0.000000 0.000000 0.000000
# 4 0.000000 0.000000 0.000000 0.039005 0.000000 0.000000
# 5 0.000000 0.000000 0.000000 0.000000 0.039003 0.000000
# 6 0.000000 0.000000 0.000000 0.000000 0.000000 0.025998
#
#
# Mechanical properties :
#
#
# Convention : Reuss Voigt Hill
#
# Bulk Modulus (GPa) = 59.90930 59.91848 59.91389
# Shear Modulus (GPa) = 28.14038 29.83661 28.98850
#
# Velocity S-wave (km/s) = 3.75739 3.86898 3.81359
# Velocity P-wave (km/s) = 6.99145 7.07245 7.03207
#
# Compressibility (1/GPa) = 0.01669190
#
# Stress axis : x y z
#
# Youngs Moduli (GPa) = 81.56503 81.56648 55.92505
#
# Poissons Ratio (x) = 0.06029 0.33878
# Poissons Ratio (y) = 0.06029 0.33878
# Poissons Ratio (z) = 0.49411 0.49410
#
# Static dielectric constant tensor:
#      x y z
#    x 3.801850 0.000000 0.000000 
#    y 0.000000 3.801840 0.000000 
#    z 0.000000 0.000000 3.359900 
# 
# 
# High freq. dielectric constant tensor:
#      x y z
#    x 1.794080 0.000000 0.000000 
#    y 0.000000 1.794080 0.000000 
#    z 0.000000 0.000000 1.726800 
# 
# From -- ./inp_files/6355.got.cif
#   From: 2010.03.12/outbox.cif.g09.slc.cpg/sg193_4_cif.got.tgz:6355.got - 2010.04.01 12:20:39.
