data_PCOD8330124
_publ_section_title
;
Structure prediction by ZEFSAII (Michael W. Deem and Ramdas Pophale) SiO2 
 PCOD8330124
Probable space group: P 63/M C M
;
_chemical_formula_sum "Si O2"
_cell_formula_units_Z 144
_cell_length_a 21.673451
_cell_length_b 21.673451
_cell_length_c 19.119716
_cell_angle_alpha 90.000000
_cell_angle_beta 90.000000
_cell_angle_gamma 120.000000
_cell_volume 7778.004773
_symmetry_space_group_name_H-M "P 63/M C M"
_symmetry_group_IT_number 193
_symmetry_cell_setting 'hexagonal'
loop_
_space_group_symop_operation_xyz
x,y,z
x-y,x,1/2+z
-y,x-y,z
-x,-y,1/2+z
-x+y,-x,z
y,-x+y,1/2+z
x-y,-y,1/2-z
-x,-x+y,1/2-z
y,x,1/2-z
-y,-x,-z
-x+y,y,-z
x,x-y,-z
-x,-y,-z
-x+y,-x,1/2-z
y,-x+y,-z
x,y,1/2-z
x-y,x,-z
-y,x-y,1/2-z
-x+y,y,1/2+z
x,x-y,1/2+z
-y,-x,1/2+z
y,x,z
x-y,-y,z
-x,-x+y,z
loop_
_atom_site_type_symbol
_atom_site_label
_atom_site_fract_x
_atom_site_fract_y
_atom_site_fract_z
Si Si1 0.917574 0.835801 0.830596
Si Si2 0.809676 0.334990 0.331031
Si Si3 0.193019 0.524028 0.830837
Si Si4 0.917619 0.602065 0.417338
Si Si5 0.305424 0.153660 0.581592
Si Si6 0.400250 0.082827 0.080572
O O1 0.903670 0.812201 0.750000
O O2 0.875452 0.875452 0.853376
O O3 0.891316 0.766905 0.877117
O O4 0.000000 0.889507 0.845203
O O5 0.827259 0.331435 0.250000
O O6 0.742117 0.261199 0.356072
O O7 0.790367 0.396262 0.344240
O O8 0.878561 0.352099 0.376599
O O9 0.176605 0.502910 0.750000
O O10 0.123937 0.470673 0.874687
O O11 0.888756 0.654760 0.396023
O O12 0.905564 0.582203 0.498732
O O13 0.000000 0.639590 0.396494
O O14 0.286978 0.143489 0.500000
O O15 0.353229 0.235617 0.602891
O O16 0.358718 0.000000 0.100675
#
# Coordination Sequence:
#
# PCOD8330124 Si02
#       6
#    24  24  24  24  24  24
#     4  10  21  36  54  78 110 148 190 238 292 347
#     4  10  21  38  60  85 114 148 187 230 276 327
#     4  10  21  38  60  85 114 148 187 230 276 327
#     4  10  21  37  58  84 114 148 186 231 280 330
#     4  10  20  37  59  81 110 148 192 236 283 337
#     4  10  21  37  58  84 114 148 186 231 280 330
#
# _framework density 18.513745
#
# number of rings (size 3 to 8) (size 9 to 14) (size 15 to 20)
#    0.000    2.000    1.667    1.500    0.000    7.333 
#    0.000    3.333    0.000    3.000    0.000    0.000 
#    0.000    0.000    0.000    0.000    0.000    0.000 
#
# Total GULP energy -1786348.105149 kJ/mol
# GULP energy per Si atom -12405.195175 kJ/mol
# Density = 1.847161 g / cm^3
# Si number density = 18.513745 Si / 1000 Ang^3
#
#
#
# Elastic Constant Matrix: (Units=GPa)
#
#
# Indices 1 2 3 4 5 6 
#
# 1 109.3538 44.0800 42.7523 0.0000 0.0000 0.0000
# 2 44.0800 109.3538 42.7523 0.0000 0.0000 0.0000
# 3 42.7523 42.7523 48.0898 0.0000 0.0000 0.0000
# 4 0.0000 0.0000 0.0000 33.5947 0.0000 0.0000
# 5 0.0000 0.0000 0.0000 0.0000 33.5947 0.0000
# 6 0.0000 0.0000 0.0000 0.0000 0.0000 32.6369
#
#
#
# Elastic Compliance Matrix: (Units=1/GPa)
#
#
# Indices 1 2 3 4 5 6 
#
# 1 0.014118 -0.001202 -0.011483 0.000000 0.000000 0.000000
# 2 -0.001202 0.014118 -0.011483 0.000000 0.000000 0.000000
# 3 -0.011483 -0.011483 0.041212 0.000000 0.000000 0.000000
# 4 0.000000 0.000000 0.000000 0.029767 0.000000 0.000000
# 5 0.000000 0.000000 0.000000 0.000000 0.029767 0.000000
# 6 0.000000 0.000000 0.000000 0.000000 0.000000 0.030640
#
#
# Mechanical properties :
#
#
# Convention : Reuss Voigt Hill
#
# Bulk Modulus (GPa) = 47.36497 58.44077 52.90287
# Shear Modulus (GPa) = 23.25637 29.11276 26.18457
#
# Velocity S-wave (km/s) = 3.54809 3.96977 3.76484
# Velocity P-wave (km/s) = 6.51341 7.25581 6.89461
#
# Compressibility (1/GPa) = 0.02111265
#
# Stress axis : x y z
#
# Youngs Moduli (GPa) = 70.82965 70.82965 24.26507
#
# Poissons Ratio (x) = 0.08512 0.27864
# Poissons Ratio (y) = 0.08512 0.27864
# Poissons Ratio (z) = 0.81334 0.81334
#
# Static dielectric constant tensor:
#      x y z
#    x 3.449960 0.000000 0.000000 
#    y 0.000000 3.449960 0.000000 
#    z 0.000000 0.000000 3.331700 
# 
# 
# High freq. dielectric constant tensor:
#      x y z
#    x 1.726770 0.000000 0.000000 
#    y 0.000000 1.726770 0.000000 
#    z 0.000000 0.000000 1.712090 
# 
# From -- ./inp_files/6559.got.cif
#   From: 2010.03.12/outbox.cif.g09.slc.cpg/sg193_4_cif.got.tgz:6559.got - 2010.04.01 12:20:39.
