data_PCOD8330227
_publ_section_title
;
Structure prediction by ZEFSAII (Michael W. Deem and Ramdas Pophale) SiO2 
 PCOD8330227
Probable space group: P 63/M C M
;
_chemical_formula_sum "Si O2"
_cell_formula_units_Z 120
_cell_length_a 26.009503
_cell_length_b 26.009503
_cell_length_c 13.340004
_cell_angle_alpha 90.000000
_cell_angle_beta 90.000000
_cell_angle_gamma 120.000000
_cell_volume 7815.390789
_symmetry_space_group_name_H-M "P 63/M C M"
_symmetry_group_IT_number 193
_symmetry_cell_setting 'hexagonal'
loop_
_space_group_symop_operation_xyz
x,y,z
x-y,x,1/2+z
-y,x-y,z
-x,-y,1/2+z
-x+y,-x,z
y,-x+y,1/2+z
x-y,-y,1/2-z
-x,-x+y,1/2-z
y,x,1/2-z
-y,-x,-z
-x+y,y,-z
x,x-y,-z
-x,-y,-z
-x+y,-x,1/2-z
y,-x+y,-z
x,y,1/2-z
x-y,x,-z
-y,x-y,1/2-z
-x+y,y,1/2+z
x,x-y,1/2+z
-y,-x,1/2+z
y,x,z
x-y,-y,z
-x,-x+y,z
loop_
_atom_site_type_symbol
_atom_site_label
_atom_site_fract_x
_atom_site_fract_y
_atom_site_fract_z
Si Si1 0.732726 0.191452 0.134787
Si Si2 0.225235 0.340071 0.024781
Si Si3 0.881368 0.381946 0.980209
Si Si4 0.292419 0.860967 0.133321
Si Si5 0.711259 0.711259 0.633245
Si Si6 0.000000 0.410854 0.632905
O O1 0.715551 0.185945 0.250000
O O2 0.752007 0.143500 0.108191
O O3 0.672705 0.175327 0.074844
O O4 0.789683 0.255833 0.109854
O O5 0.235535 0.290317 0.074917
O O6 0.155651 0.311303 0.000000
O O7 0.261579 0.367655 0.921807
O O8 0.941639 0.406199 0.916875
O O9 0.865988 0.432994 0.000000
O O10 0.887983 0.358507 0.089186
O O11 0.295562 0.875061 0.250000
O O12 0.726452 0.726452 0.750000
O O13 0.650119 0.650119 0.616855
O O14 0.000000 0.425047 0.750000
#
# Coordination Sequence:
#
# PCOD8330227 Si02
#       6
#    24  24  24  24  12  12
#     4   9  16  30  50  67  83 109 147 190 231 278
#     4   9  17  29  46  71  97 120 153 192 225 262
#     4  11  21  32  45  65  90 117 149 187 235 287
#     4   9  18  31  47  65  86 112 144 184 232 285
#     4  11  18  29  53  75  95 126 165 199 226 261
#     4  11  21  33  47  65  90 120 158 193 227 273
#
# _framework density 15.354319
#
# number of rings (size 3 to 8) (size 9 to 14) (size 15 to 20)
#    0.000    2.200    4.000    3.300    0.000    2.400 
#    0.000    2.000    0.000    3.200    0.000    0.000 
#    0.000    0.000    0.000    0.300    0.000    0.300 
#
# Total GULP energy -1487283.770518 kJ/mol
# GULP energy per Si atom -12394.031421 kJ/mol
# Density = 1.531937 g / cm^3
# Si number density = 15.354319 Si / 1000 Ang^3
#
#
#
# Elastic Constant Matrix: (Units=GPa)
#
#
# Indices 1 2 3 4 5 6 
#
# 1 73.3803 37.6756 45.1439 0.0000 0.0000 0.0000
# 2 37.6756 73.3803 45.1439 0.0000 0.0000 0.0000
# 3 45.1439 45.1439 113.6620 0.0000 0.0000 0.0000
# 4 0.0000 0.0000 0.0000 18.5290 0.0000 0.0000
# 5 0.0000 0.0000 0.0000 0.0000 18.5290 0.0000
# 6 0.0000 0.0000 0.0000 0.0000 0.0000 17.8524
#
#
#
# Elastic Compliance Matrix: (Units=1/GPa)
#
#
# Indices 1 2 3 4 5 6 
#
# 1 0.020653 -0.007354 -0.005282 0.000000 0.000000 0.000000
# 2 -0.007354 0.020653 -0.005282 0.000000 0.000000 0.000000
# 3 -0.005282 -0.005282 0.012994 0.000000 0.000000 0.000000
# 4 0.000000 0.000000 0.000000 0.053969 0.000000 0.000000
# 5 0.000000 0.000000 0.000000 0.000000 0.053969 0.000000
# 6 0.000000 0.000000 0.000000 0.000000 0.000000 0.056015
#
#
# Mechanical properties :
#
#
# Convention : Reuss Voigt Hill
#
# Bulk Modulus (GPa) = 54.16135 57.37215 55.76675
# Shear Modulus (GPa) = 19.21269 19.81269 19.51269
#
# Velocity S-wave (km/s) = 3.54119 3.59606 3.56873
# Velocity P-wave (km/s) = 7.21602 7.39519 7.30616
#
# Compressibility (1/GPa) = 0.01846335
#
# Stress axis : x y z
#
# Youngs Moduli (GPa) = 48.41898 48.41898 76.96029
#
# Poissons Ratio (x) = 0.35609 0.40650
# Poissons Ratio (y) = 0.35609 0.40650
# Poissons Ratio (z) = 0.25574 0.25574
#
# Static dielectric constant tensor:
#      x y z
#    x 2.839290 0.000000 0.000000 
#    y 0.000000 2.839290 0.000000 
#    z 0.000000 0.000000 3.150020 
# 
# 
# High freq. dielectric constant tensor:
#      x y z
#    x 1.556990 0.000000 0.000000 
#    y 0.000000 1.556990 0.000000 
#    z 0.000000 0.000000 1.608440 
# 
# From -- ./inp_files/4087.got.cif
#   From: 2010.03.12/outbox.cif.g09.slc.cpg/sg193_3_cif.got.tgz:4087.got - 2010.04.01 12:20:39.
