data_PCOD8330609
_publ_section_title
;
Structure prediction by ZEFSAII (Michael W. Deem and Ramdas Pophale) SiO2 
 PCOD8330609
Probable space group: P 63/M M C
;
_chemical_formula_sum "Si O2"
_cell_formula_units_Z 168
_cell_length_a 22.045186
_cell_length_b 22.045186
_cell_length_c 21.596002
_cell_angle_alpha 90.000000
_cell_angle_beta 90.000000
_cell_angle_gamma 120.000000
_cell_volume 9089.322763
_symmetry_space_group_name_H-M "P 63/M M C"
_symmetry_group_IT_number 194
_symmetry_cell_setting 'hexagonal'
loop_
_space_group_symop_operation_xyz
x,y,z
x-y,x,1/2+z
-y,x-y,z
-x,-y,1/2+z
-x+y,-x,z
y,-x+y,1/2+z
x-y,-y,-z
-x,-x+y,-z
y,x,-z
-y,-x,1/2-z
-x+y,y,1/2-z
x,x-y,1/2-z
-x,-y,-z
-x+y,-x,1/2-z
y,-x+y,-z
x,y,1/2-z
x-y,x,-z
-y,x-y,1/2-z
-x+y,y,z
x,x-y,z
-y,-x,z
y,x,1/2+z
x-y,-y,1/2+z
-x,-x+y,1/2+z
loop_
_atom_site_type_symbol
_atom_site_label
_atom_site_fract_x
_atom_site_fract_y
_atom_site_fract_z
Si Si1 0.336846 0.426403 0.320315
Si Si2 0.392423 0.125946 0.995355
Si Si3 0.750280 0.733256 0.818718
Si Si4 0.477685 0.810253 0.421657
Si Si5 0.380213 0.260439 0.137542
Si Si6 0.805025 0.053453 0.946930
Si Si7 0.461681 0.055360 0.177035
O O1 0.351833 0.453871 0.250000
O O2 0.270284 0.347957 0.322881
O O3 0.323869 0.482085 0.357096
O O4 0.402704 0.422619 0.349334
O O5 0.399420 0.199710 0.981593
O O6 0.369573 0.101741 0.065247
O O7 0.468417 0.137875 0.975081
O O8 0.328356 0.068360 0.953977
O O9 0.783910 0.761788 0.750000
O O10 0.683693 0.744252 0.823594
O O11 0.802193 0.775403 0.876037
O O12 0.406115 0.812229 0.426450
O O13 0.459820 0.729910 0.427799
O O14 0.389792 0.194896 0.153309
O O15 0.450194 0.331017 0.157099
O O16 0.878303 0.121698 0.959698
O O17 0.800291 0.000000 0.000000
O O18 0.459196 0.049439 0.250000
O O19 0.536555 0.073109 0.150013
#
# Coordination Sequence:
#
# PCOD8330609 Si02
#       7
#    24  24  24  24  24  24  24
#     4   9  18  33  51  70  96 135 181 227 278 337
#     4   9  19  34  52  73 100 140 181 220 268 324
#     4  10  20  33  55  86 117 148 184 230 281 335
#     4  11  22  35  50  71 100 137 183 236 290 339
#     4  10  19  33  54  80 111 143 178 227 288 343
#     4  11  21  37  60  85 117 152 188 228 272 326
#     4   9  18  32  49  71 101 137 176 220 274 335
#
# _framework density 18.483225999999998
#
# number of rings (size 3 to 8) (size 9 to 14) (size 15 to 20)
#    0.000    2.143    2.857    1.857    0.000    3.143 
#    0.000    1.429    0.000    4.286    0.000    0.000 
#    0.000    0.000    0.000    0.000    0.000    0.000 
#
# Total GULP energy -2081849.873476 kJ/mol
# GULP energy per Si atom -12391.963533 kJ/mol
# Density = 1.844116 g / cm^3
# Si number density = 18.483226 Si / 1000 Ang^3
#
#
#
# Elastic Constant Matrix: (Units=GPa)
#
#
# Indices 1 2 3 4 5 6 
#
# 1 65.8230 29.3210 25.6946 0.0000 0.0000 0.0000
# 2 29.3210 65.8230 25.6946 0.0000 0.0000 0.0000
# 3 25.6946 25.6946 93.0649 0.0000 0.0000 0.0000
# 4 0.0000 0.0000 0.0000 23.5424 0.0000 0.0000
# 5 0.0000 0.0000 0.0000 0.0000 23.5424 0.0000
# 6 0.0000 0.0000 0.0000 0.0000 0.0000 18.2510
#
#
#
# Elastic Compliance Matrix: (Units=1/GPa)
#
#
# Indices 1 2 3 4 5 6 
#
# 1 0.019874 -0.007522 -0.003410 0.000000 0.000000 0.000000
# 2 -0.007522 0.019874 -0.003410 0.000000 0.000000 0.000000
# 3 -0.003410 -0.003410 0.012628 0.000000 0.000000 0.000000
# 4 0.000000 0.000000 0.000000 0.042476 0.000000 0.000000
# 5 0.000000 0.000000 0.000000 0.000000 0.042476 0.000000
# 6 0.000000 0.000000 0.000000 0.000000 0.000000 0.054792
#
#
# Mechanical properties :
#
#
# Convention : Reuss Voigt Hill
#
# Bulk Modulus (GPa) = 42.20916 42.90347 42.55631
# Shear Modulus (GPa) = 21.86239 22.66723 22.26481
#
# Velocity S-wave (km/s) = 3.44295 3.50575 3.47449
# Velocity P-wave (km/s) = 6.22023 6.29679 6.25863
#
# Compressibility (1/GPa) = 0.02369154
#
# Stress axis : x y z
#
# Youngs Moduli (GPa) = 50.31674 50.31674 79.18682
#
# Poissons Ratio (x) = 0.37847 0.27006
# Poissons Ratio (y) = 0.37847 0.27006
# Poissons Ratio (z) = 0.17160 0.17160
#
# Static dielectric constant tensor:
#      x y z
#    x 3.295620 0.000000 0.000000 
#    y 0.000000 3.295620 0.000000 
#    z 0.000000 0.000000 3.543170 
# 
# 
# High freq. dielectric constant tensor:
#      x y z
#    x 1.692970 0.000000 0.000000 
#    y 0.000000 1.692970 0.000000 
#    z 0.000000 0.000000 1.725180 
# 
# From -- ./inp_files/8559.got.cif
#   From: 2010.03.12/outbox.cif.g09.slc.cpg/sg194_5_cif.got.tgz:8559.got - 2010.04.01 12:26:19.
