data_PCOD8330971
_publ_section_title
;
Structure prediction by ZEFSAII (Michael W. Deem and Ramdas Pophale) SiO2 
 PCOD8330971
Probable space group: I A 3
;
_chemical_formula_sum "Si O2"
_cell_formula_units_Z 96
_cell_length_a 14.861538
_cell_length_b 14.861538
_cell_length_c 14.861538
_cell_angle_alpha 90.000000
_cell_angle_beta 90.000000
_cell_angle_gamma 90.000000
_cell_volume 3282.398223
_symmetry_space_group_name_H-M "I A 3"
_symmetry_group_IT_number 206
_symmetry_cell_setting 'cubic'
loop_
_space_group_symop_operation_xyz
x,y,z
z,x,y
y,z,x
-y,1/2-z,x
z,-x,1/2-y
1/2-y,z,-x
-z,1/2-x,y
1/2-z,x,-y
y,-z,1/2-x
-x,1/2-y,z
x,-y,1/2-z
1/2-x,y,-z
-x,-y,-z
-z,-x,-y
-y,-z,-x
y,1/2+z,-x
-z,x,1/2+y
1/2+y,-z,x
z,1/2+x,-y
1/2+z,-x,y
-y,z,1/2+x
x,1/2+y,-z
-x,y,1/2+z
1/2+x,-y,z
1/2+x,1/2+y,1/2+z
1/2+z,1/2+x,1/2+y
1/2+y,1/2+z,1/2+x
1/2-y,-z,1/2+x
1/2+z,1/2-x,-y
-y,1/2+z,1/2-x
1/2-z,-x,1/2+y
-z,1/2+x,1/2-y
1/2+y,1/2-z,-x
1/2-x,-y,1/2+z
1/2+x,1/2-y,-z
-x,1/2+y,1/2-z
1/2-x,1/2-y,1/2-z
1/2-z,1/2-x,1/2-y
1/2-y,1/2-z,1/2-x
1/2+y,z,1/2-x
1/2-z,1/2+x,y
y,1/2-z,1/2+x
1/2+z,x,1/2-y
z,1/2-x,1/2+y
1/2-y,1/2+z,x
1/2+x,y,1/2-z
1/2-x,1/2+y,z
x,1/2-y,1/2+z
loop_
_atom_site_type_symbol
_atom_site_label
_atom_site_fract_x
_atom_site_fract_y
_atom_site_fract_z
Si Si1 0.325131 0.299891 0.070349
Si Si2 0.509879 0.848044 0.550471
O O1 0.359274 0.214721 0.127379
O O2 0.404372 0.349120 0.014792
O O3 0.250000 0.267169 0.000000
O O4 0.500000 0.750000 0.594671
O O5 0.512742 0.922557 0.629780
#
# Coordination Sequence:
#
# PCOD8330971 Si02
#       2
#    48  48
#     4  12  31  61  92 138 199 261 341 419 498 601
#     4  10  27  61 104 143 195 261 335 417 513 602
#
# _framework density 29.246908999999999
#
# number of rings (size 3 to 8) (size 9 to 14) (size 15 to 20)
#    1.000    0.000    0.000    2.000   14.000    2.000 
#    9.000   10.000    0.000    0.000    0.000    0.000 
#    0.000    0.000    0.000    0.000    0.000    0.000 
#
# Total GULP energy -594733.222879 kJ/mol
# GULP energy per Si atom -12390.275477 kJ/mol
# Density = 2.918034 g / cm^3
# Si number density = 29.246909 Si / 1000 Ang^3
#
#
#
# Elastic Constant Matrix: (Units=GPa)
#
#
# Indices 1 2 3 4 5 6 
#
# 1 213.8672 66.8242 66.8242 0.0000 0.0000 0.0000
# 2 66.8242 213.8672 66.8242 0.0000 0.0000 0.0000
# 3 66.8242 66.8242 213.8672 0.0000 0.0000 0.0000
# 4 0.0000 0.0000 0.0000 27.7741 0.0000 0.0000
# 5 0.0000 0.0000 0.0000 0.0000 27.7741 0.0000
# 6 0.0000 0.0000 0.0000 0.0000 0.0000 27.7741
#
#
#
# Elastic Compliance Matrix: (Units=1/GPa)
#
#
# Indices 1 2 3 4 5 6 
#
# 1 0.005493 -0.001308 -0.001308 0.000000 0.000000 0.000000
# 2 -0.001308 0.005493 -0.001308 0.000000 0.000000 0.000000
# 3 -0.001308 -0.001308 0.005493 0.000000 0.000000 0.000000
# 4 0.000000 0.000000 0.000000 0.036005 0.000000 0.000000
# 5 0.000000 0.000000 0.000000 0.000000 0.036005 0.000000
# 6 0.000000 0.000000 0.000000 0.000000 0.000000 0.036005
#
#
# Mechanical properties :
#
#
# Convention : Reuss Voigt Hill
#
# Bulk Modulus (GPa) = 115.83851 115.83851 115.83851
# Shear Modulus (GPa) = 36.97757 46.07309 41.52533
#
# Velocity S-wave (km/s) = 3.55959 3.97333 3.77214
# Velocity P-wave (km/s) = 7.52246 7.79377 7.65931
#
# Compressibility (1/GPa) = 0.00863271
#
# Stress axis : x y z
#
# Youngs Moduli (GPa) = 182.04957 182.04957 182.04957
#
# Poissons Ratio (x) = 0.23807 0.23807
# Poissons Ratio (y) = 0.23807 0.23807
# Poissons Ratio (z) = 0.23807 0.23807
#
# Static dielectric constant tensor:
#      x y z
#    x 6.539440 0.000000 0.000000 
#    y 0.000000 6.539440 0.000000 
#    z 0.000000 0.000000 6.539440 
# 
# 
# High freq. dielectric constant tensor:
#      x y z
#    x 2.209230 0.000000 0.000000 
#    y 0.000000 2.209230 0.000000 
#    z 0.000000 0.000000 2.209230 
# 
# From -- ./inp_files/310.got.cif
#   From: 2010.03.12/outbox.cif.g09.slc.cpg/sg206_cif.got.tgz:310.got - 2010.03.30 09:03:11.
