data_PCOD8330039
_publ_section_title
;
Structure prediction by ZEFSAII (Michael W. Deem and Ramdas Pophale) SiO2 
 PCOD8330039
Probable space group: P 63/M C M
;
_chemical_formula_sum "Si O2"
_cell_formula_units_Z 144
_cell_length_a 23.085087
_cell_length_b 23.085087
_cell_length_c 17.354584
_cell_angle_alpha 90.000000
_cell_angle_beta 90.000000
_cell_angle_gamma 120.000000
_cell_volume 8009.545461
_symmetry_space_group_name_H-M "P 63/M C M"
_symmetry_group_IT_number 193
_symmetry_cell_setting 'hexagonal'
loop_
_space_group_symop_operation_xyz
x,y,z
x-y,x,1/2+z
-y,x-y,z
-x,-y,1/2+z
-x+y,-x,z
y,-x+y,1/2+z
x-y,-y,1/2-z
-x,-x+y,1/2-z
y,x,1/2-z
-y,-x,-z
-x+y,y,-z
x,x-y,-z
-x,-y,-z
-x+y,-x,1/2-z
y,-x+y,-z
x,y,1/2-z
x-y,x,-z
-y,x-y,1/2-z
-x+y,y,1/2+z
x,x-y,1/2+z
-y,-x,1/2+z
y,x,z
x-y,-y,z
-x,-x+y,z
loop_
_atom_site_type_symbol
_atom_site_label
_atom_site_fract_x
_atom_site_fract_y
_atom_site_fract_z
Si Si1 0.073911 0.348997 0.119814
Si Si2 0.792004 0.632533 0.664461
Si Si3 0.480794 0.730719 0.840520
Si Si4 0.411835 0.805555 0.910078
Si Si5 0.923646 0.721580 0.028623
Si Si6 0.595490 0.519912 0.337907
O O1 0.129589 0.344656 0.170124
O O2 0.084722 0.422721 0.122300
O O3 0.000000 0.296081 0.152635
O O4 0.080588 0.333138 0.031302
O O5 0.767996 0.638392 0.750000
O O6 0.749816 0.555855 0.634159
O O7 0.782076 0.682556 0.609426
O O8 0.478727 0.742400 0.750000
O O9 0.459954 0.777214 0.886413
O O10 0.427215 0.655441 0.861424
O O11 0.452127 0.883520 0.886938
O O12 0.397022 0.794043 0.000000
O O13 0.000000 0.783416 0.036171
O O14 0.874631 0.749262 0.000000
O O15 0.612365 0.510679 0.250000
O O16 0.535901 0.535901 0.340128
#
# Coordination Sequence:
#
# PCOD8330039 Si02
#       6
#    24  24  24  24  24  24
#     4   9  17  31  56  83 105 134 173 223 276 327
#     4  10  20  33  55  81 109 144 181 222 279 339
#     4  11  23  40  56  73 102 140 182 229 283 344
#     4  12  25  37  57  79 104 136 182 235 282 332
#     4   9  19  34  55  83 119 151 184 225 270 322
#     4  10  20  36  57  79 104 135 173 219 275 335
#
# _framework density 17.978549000000001
#
# number of rings (size 3 to 8) (size 9 to 14) (size 15 to 20)
#    0.000    1.833    1.667    2.833    2.333    3.000 
#    0.000    0.833    0.000    1.167    0.000    0.000 
#    0.000    0.000    0.000    0.500    0.000    0.000 
#
# Total GULP energy -1785410.487329 kJ/mol
# GULP energy per Si atom -12398.683940 kJ/mol
# Density = 1.793763 g / cm^3
# Si number density = 17.978549 Si / 1000 Ang^3
#
#
#
# Elastic Constant Matrix: (Units=GPa)
#
#
# Indices 1 2 3 4 5 6 
#
# 1 80.9867 31.1493 41.1222 0.0000 0.0000 0.0000
# 2 31.1493 80.9867 41.1222 0.0000 0.0000 0.0000
# 3 41.1222 41.1222 94.5606 0.0000 0.0000 0.0000
# 4 0.0000 0.0000 0.0000 24.6270 0.0000 0.0000
# 5 0.0000 0.0000 0.0000 0.0000 24.6270 0.0000
# 6 0.0000 0.0000 0.0000 0.0000 0.0000 24.9187
#
#
#
# Elastic Compliance Matrix: (Units=1/GPa)
#
#
# Indices 1 2 3 4 5 6 
#
# 1 0.016580 -0.003486 -0.005694 0.000000 0.000000 0.000000
# 2 -0.003486 0.016580 -0.005694 0.000000 0.000000 0.000000
# 3 -0.005694 -0.005694 0.015528 0.000000 0.000000 0.000000
# 4 0.000000 0.000000 0.000000 0.040606 0.000000 0.000000
# 5 0.000000 0.000000 0.000000 0.000000 0.040606 0.000000
# 6 0.000000 0.000000 0.000000 0.000000 0.000000 0.040131
#
#
# Mechanical properties :
#
#
# Convention : Reuss Voigt Hill
#
# Bulk Modulus (GPa) = 52.80152 53.70239 53.25196
# Shear Modulus (GPa) = 24.26110 24.37720 24.31915
#
# Velocity S-wave (km/s) = 3.67747 3.68626 3.68186
# Velocity P-wave (km/s) = 6.88946 6.93203 6.91078
#
# Compressibility (1/GPa) = 0.01893885
#
# Stress axis : x y z
#
# Youngs Moduli (GPa) = 60.31463 60.31463 64.40011
#
# Poissons Ratio (x) = 0.21023 0.36672
# Poissons Ratio (y) = 0.21023 0.36672
# Poissons Ratio (z) = 0.34345 0.34345
#
# Static dielectric constant tensor:
#      x y z
#    x 3.395780 0.000000 0.000000 
#    y 0.000000 3.395780 0.000000 
#    z 0.000000 0.000000 3.350500 
# 
# 
# High freq. dielectric constant tensor:
#      x y z
#    x 1.686320 0.000000 0.000000 
#    y 0.000000 1.686320 0.000000 
#    z 0.000000 0.000000 1.702210 
# 
# From -- ./inp_files/5532.got.cif
#   From: 2010.03.12/outbox.cif.g09.slc.cpg/sg193_3_cif.got.tgz:5532.got - 2010.04.01 12:20:39.
