data_PCOD8330365
_publ_section_title
;
Structure prediction by ZEFSAII (Michael W. Deem and Ramdas Pophale) SiO2 
 PCOD8330365
Probable space group: P 63/M M C
;
_chemical_formula_sum "Si O2"
_cell_formula_units_Z 84
_cell_length_a 26.413157
_cell_length_b 26.413157
_cell_length_c 9.111253
_cell_angle_alpha 90.000000
_cell_angle_beta 90.000000
_cell_angle_gamma 120.000000
_cell_volume 5504.899105
_symmetry_space_group_name_H-M "P 63/M M C"
_symmetry_group_IT_number 194
_symmetry_cell_setting 'hexagonal'
loop_
_space_group_symop_operation_xyz
x,y,z
x-y,x,1/2+z
-y,x-y,z
-x,-y,1/2+z
-x+y,-x,z
y,-x+y,1/2+z
x-y,-y,-z
-x,-x+y,-z
y,x,-z
-y,-x,1/2-z
-x+y,y,1/2-z
x,x-y,1/2-z
-x,-y,-z
-x+y,-x,1/2-z
y,-x+y,-z
x,y,1/2-z
x-y,x,-z
-y,x-y,1/2-z
-x+y,y,z
x,x-y,z
-y,-x,z
y,x,1/2+z
x-y,-y,1/2+z
-x,-x+y,1/2+z
loop_
_atom_site_type_symbol
_atom_site_label
_atom_site_fract_x
_atom_site_fract_y
_atom_site_fract_z
Si Si1 0.346483 0.173242 0.583769
Si Si2 0.532960 0.665556 0.423204
Si Si3 0.767381 0.534762 0.423785
Si Si4 0.062648 0.531324 0.423082
Si Si5 0.942032 0.666715 0.915662
O O1 0.374424 0.187212 0.750000
O O2 0.396997 0.198499 0.463230
O O3 0.308527 0.103115 0.565264
O O4 0.527667 0.672682 0.250000
O O5 0.507054 0.702135 0.506574
O O6 0.497986 0.598457 0.473113
O O7 0.600005 0.689787 0.472011
O O8 0.762419 0.524837 0.250000
O O9 0.051266 0.525633 0.250000
O O10 0.000000 0.500000 0.500000
O O11 0.961618 0.668359 0.750000
O O12 0.000000 0.709513 0.000000
#
# Coordination Sequence:
#
# PCOD8330365 Si02
#       5
#    12  24  12  12  24
#     4   8  16  30  42  56  83 115 139 165 206 251
#     4   9  18  32  46  62  87 117 144 174 217 267
#     4  10  18  28  46  67  81 102 140 182 215 248
#     4  10  20  32  48  69  94 123 150 179 222 275
#     4   9  16  26  41  59  82 111 141 172 206 243
#
# _framework density 15.259135000000001
#
# number of rings (size 3 to 8) (size 9 to 14) (size 15 to 20)
#    0.000    2.857    0.000    3.857    0.000    5.714 
#    0.000    0.000    0.000    0.571    0.000    2.000 
#    0.000    0.000    0.000    0.429    0.000    5.143 
#
# Total GULP energy -1040886.446400 kJ/mol
# GULP energy per Si atom -12391.505314 kJ/mol
# Density = 1.522440 g / cm^3
# Si number density = 15.259135 Si / 1000 Ang^3
#
#
#
# Elastic Constant Matrix: (Units=GPa)
#
#
# Indices 1 2 3 4 5 6 
#
# 1 110.6142 61.6434 40.1309 0.0000 0.0000 0.0000
# 2 61.6434 110.6142 40.1309 0.0000 0.0000 0.0000
# 3 40.1309 40.1309 57.3812 0.0000 0.0000 0.0000
# 4 0.0000 0.0000 0.0000 22.8170 0.0000 0.0000
# 5 0.0000 0.0000 0.0000 0.0000 22.8170 0.0000
# 6 0.0000 0.0000 0.0000 0.0000 0.0000 24.4854
#
#
#
# Elastic Compliance Matrix: (Units=1/GPa)
#
#
# Indices 1 2 3 4 5 6 
#
# 1 0.014516 -0.005904 -0.006023 0.000000 0.000000 0.000000
# 2 -0.005904 0.014516 -0.006023 0.000000 0.000000 0.000000
# 3 -0.006023 -0.006023 0.025851 0.000000 0.000000 0.000000
# 4 0.000000 0.000000 0.000000 0.043827 0.000000 0.000000
# 5 0.000000 0.000000 0.000000 0.000000 0.043827 0.000000
# 6 0.000000 0.000000 0.000000 0.000000 0.000000 0.040841
#
#
# Mechanical properties :
#
#
# Convention : Reuss Voigt Hill
#
# Bulk Modulus (GPa) = 52.67637 62.49110 57.58373
# Shear Modulus (GPa) = 22.16264 23.13752 22.65008
#
# Velocity S-wave (km/s) = 3.81519 3.89820 3.85692
# Velocity P-wave (km/s) = 7.34872 7.82965 7.59300
#
# Compressibility (1/GPa) = 0.01898385
#
# Stress axis : x y z
#
# Youngs Moduli (GPa) = 68.89012 68.89012 38.68267
#
# Poissons Ratio (x) = 0.40676 0.23297
# Poissons Ratio (y) = 0.40676 0.23297
# Poissons Ratio (z) = 0.41490 0.41490
#
# Static dielectric constant tensor:
#      x y z
#    x 2.959480 0.000000 0.000000 
#    y 0.000000 2.959480 0.000000 
#    z 0.000000 0.000000 2.822010 
# 
# 
# High freq. dielectric constant tensor:
#      x y z
#    x 1.565520 0.000000 0.000000 
#    y 0.000000 1.565520 0.000000 
#    z 0.000000 0.000000 1.580730 
# 
# From -- ./inp_files/2997.got.cif
#   From: 2010.03.12/outbox.cif.g09.slc.cpg/sg194_2_cif.got.tgz:2997.got - 2010.04.01 12:26:19.
