data_PCOD8330075
_publ_section_title
;
Structure prediction by ZEFSAII (Michael W. Deem and Ramdas Pophale) SiO2 
 PCOD8330075
Probable space group: P 63/M C M
;
_chemical_formula_sum "Si O2"
_cell_formula_units_Z 144
_cell_length_a 22.697410
_cell_length_b 22.697410
_cell_length_c 18.108815
_cell_angle_alpha 90.000000
_cell_angle_beta 90.000000
_cell_angle_gamma 120.000000
_cell_volume 8079.291340
_symmetry_space_group_name_H-M "P 63/M C M"
_symmetry_group_IT_number 193
_symmetry_cell_setting 'hexagonal'
loop_
_space_group_symop_operation_xyz
x,y,z
x-y,x,1/2+z
-y,x-y,z
-x,-y,1/2+z
-x+y,-x,z
y,-x+y,1/2+z
x-y,-y,1/2-z
-x,-x+y,1/2-z
y,x,1/2-z
-y,-x,-z
-x+y,y,-z
x,x-y,-z
-x,-y,-z
-x+y,-x,1/2-z
y,-x+y,-z
x,y,1/2-z
x-y,x,-z
-y,x-y,1/2-z
-x+y,y,1/2+z
x,x-y,1/2+z
-y,-x,1/2+z
y,x,z
x-y,-y,z
-x,-x+y,z
loop_
_atom_site_type_symbol
_atom_site_label
_atom_site_fract_x
_atom_site_fract_y
_atom_site_fract_z
Si Si1 0.713800 0.792623 0.025185
Si Si2 0.860711 0.583048 0.425936
Si Si3 0.331641 0.785097 0.024085
Si Si4 0.143254 0.372562 0.164541
Si Si5 0.845825 0.490343 0.831415
Si Si6 0.920972 0.410667 0.831545
O O1 0.773036 0.773036 0.018438
O O2 0.689415 0.783103 0.110863
O O3 0.742414 0.871207 0.000000
O O4 0.652479 0.744296 0.970168
O O5 0.819220 0.527822 0.488090
O O6 0.813123 0.593056 0.367243
O O7 0.904504 0.556358 0.384003
O O8 0.323869 0.783451 0.112131
O O9 0.293552 0.706449 0.000000
O O10 0.410509 0.821018 0.000000
O O11 0.141271 0.347858 0.250000
O O12 0.117235 0.427498 0.164415
O O13 0.816113 0.464743 0.750000
O O14 0.894305 0.461351 0.857585
O O15 0.892010 0.381793 0.750000
O O16 0.000000 0.458438 0.829386
#
# Coordination Sequence:
#
# PCOD8330075 Si02
#       6
#    24  24  24  24  24  24
#     4  10  21  37  59  87 116 145 178 217 262 318
#     4  11  19  35  56  77 105 139 184 228 280 333
#     4  12  21  36  51  72  99 139 187 241 289 336
#     4  10  20  35  56  79 107 143 182 230 280 329
#     4  10  20  35  51  73 103 139 182 229 283 339
#     4  10  21  35  51  74 105 140 178 227 284 338
#
# _framework density 17.823346000000001
#
# number of rings (size 3 to 8) (size 9 to 14) (size 15 to 20)
#    0.000    1.500    5.000    1.667    0.000    1.000 
#    0.000    3.333    0.000    4.667    0.000    0.000 
#    0.000    0.000    0.000    0.500    0.000    0.000 
#
# Total GULP energy -1783893.689891 kJ/mol
# GULP energy per Si atom -12388.150624 kJ/mol
# Density = 1.778278 g / cm^3
# Si number density = 17.823346 Si / 1000 Ang^3
#
#
#
# Elastic Constant Matrix: (Units=GPa)
#
#
# Indices 1 2 3 4 5 6 
#
# 1 86.6823 45.4701 45.1641 0.0000 0.0000 0.0000
# 2 45.4701 86.6823 45.1641 0.0000 0.0000 0.0000
# 3 45.1641 45.1641 136.4183 0.0000 0.0000 0.0000
# 4 0.0000 0.0000 0.0000 15.3174 0.0000 0.0000
# 5 0.0000 0.0000 0.0000 0.0000 15.3174 0.0000
# 6 0.0000 0.0000 0.0000 0.0000 0.0000 20.6061
#
#
#
# Elastic Compliance Matrix: (Units=1/GPa)
#
#
# Indices 1 2 3 4 5 6 
#
# 1 0.017022 -0.007242 -0.003238 0.000000 0.000000 0.000000
# 2 -0.007242 0.017022 -0.003238 0.000000 0.000000 0.000000
# 3 -0.003238 -0.003238 0.009474 0.000000 0.000000 0.000000
# 4 0.000000 0.000000 0.000000 0.065285 0.000000 0.000000
# 5 0.000000 0.000000 0.000000 0.000000 0.065285 0.000000
# 6 0.000000 0.000000 0.000000 0.000000 0.000000 0.048529
#
#
# Mechanical properties :
#
#
# Convention : Reuss Voigt Hill
#
# Bulk Modulus (GPa) = 62.17739 64.59773 63.38756
# Shear Modulus (GPa) = 19.57587 21.84714 20.71150
#
# Velocity S-wave (km/s) = 3.31770 3.50488 3.41257
# Velocity P-wave (km/s) = 7.04537 7.25954 7.15326
#
# Compressibility (1/GPa) = 0.01608302
#
# Stress axis : x y z
#
# Youngs Moduli (GPa) = 58.74598 58.74598 105.54792
#
# Poissons Ratio (x) = 0.42545 0.34176
# Poissons Ratio (y) = 0.42545 0.34176
# Poissons Ratio (z) = 0.19022 0.19022
#
# Static dielectric constant tensor:
#      x y z
#    x 3.147230 0.000000 0.000000 
#    y 0.000000 3.147230 0.000000 
#    z 0.000000 0.000000 3.571090 
# 
# 
# High freq. dielectric constant tensor:
#      x y z
#    x 1.663830 0.000000 0.000000 
#    y 0.000000 1.663830 0.000000 
#    z 0.000000 0.000000 1.710370 
# 
# From -- ./inp_files/6613.got.cif
#   From: 2010.03.12/outbox.cif.g09.slc.cpg/sg193_4_cif.got.tgz:6613.got - 2010.04.01 12:20:39.
