data_PCOD8330549
_publ_section_title
;
Structure prediction by ZEFSAII (Michael W. Deem and Ramdas Pophale) SiO2 
 PCOD8330549
Probable space group: P 63/M M C
;
_chemical_formula_sum "Si O2"
_cell_formula_units_Z 144
_cell_length_a 32.556607
_cell_length_b 32.556607
_cell_length_c 8.712084
_cell_angle_alpha 90.000000
_cell_angle_beta 90.000000
_cell_angle_gamma 120.000000
_cell_volume 7997.071150
_symmetry_space_group_name_H-M "P 63/M M C"
_symmetry_group_IT_number 194
_symmetry_cell_setting 'hexagonal'
loop_
_space_group_symop_operation_xyz
x,y,z
x-y,x,1/2+z
-y,x-y,z
-x,-y,1/2+z
-x+y,-x,z
y,-x+y,1/2+z
x-y,-y,-z
-x,-x+y,-z
y,x,-z
-y,-x,1/2-z
-x+y,y,1/2-z
x,x-y,1/2-z
-x,-y,-z
-x+y,-x,1/2-z
y,-x+y,-z
x,y,1/2-z
x-y,x,-z
-y,x-y,1/2-z
-x+y,y,z
x,x-y,z
-y,-x,z
y,x,1/2+z
x-y,-y,1/2+z
-x,-x+y,1/2+z
loop_
_atom_site_type_symbol
_atom_site_label
_atom_site_fract_x
_atom_site_fract_y
_atom_site_fract_z
Si Si1 0.282116 0.380921 0.068409
Si Si2 0.718548 0.526663 0.568828
Si Si3 0.806520 0.099278 0.069579
Si Si4 0.856928 0.807920 0.569858
Si Si5 0.950604 0.382632 0.431104
Si Si6 0.613986 0.135025 0.930121
O O1 0.286448 0.380048 0.250000
O O2 0.270540 0.421533 0.014013
O O3 0.241617 0.330480 0.010624
O O4 0.331957 0.392446 0.996647
O O5 0.722836 0.526664 0.750000
O O6 0.757912 0.515823 0.494430
O O7 0.665415 0.486941 0.518283
O O8 0.798559 0.092986 0.250000
O O9 0.848041 0.151960 0.025364
O O10 0.819504 0.060874 0.008374
O O11 0.849393 0.849393 0.500000
O O12 0.847413 0.803346 0.750000
O O13 0.910524 0.821047 0.531100
O O14 0.953799 0.381756 0.250000
O O15 0.911834 0.396921 0.478900
O O16 0.000000 0.422855 0.500000
O O17 0.614457 0.124428 0.750000
O O18 0.574752 0.149503 0.970840
#
# Coordination Sequence:
#
# PCOD8330549 Si02
#       6
#    24  24  24  24  24  24
#     4  10  19  32  50  73 102 136 174 214 255 299
#     4   8  14  26  47  73  98 127 163 202 246 295
#     4  10  20  33  50  75 107 140 174 211 249 293
#     4  10  21  37  57  80 105 135 171 210 254 303
#     4  11  22  36  52  71  97 129 168 213 260 307
#     4   9  18  33  52  74 100 131 168 208 250 300
#
# _framework density 18.006592999999999
#
# number of rings (size 3 to 8) (size 9 to 14) (size 15 to 20)
#    0.000    2.333    0.000    4.500    0.000    4.000 
#    0.000    3.333    0.000    5.000    0.000    2.333 
#    0.000    0.000    0.000    0.500    0.000    2.667 
#
# Total GULP energy -1785614.603248 kJ/mol
# GULP energy per Si atom -12400.101411 kJ/mol
# Density = 1.796561 g / cm^3
# Si number density = 18.006593 Si / 1000 Ang^3
#
#
#
# Elastic Constant Matrix: (Units=GPa)
#
#
# Indices 1 2 3 4 5 6 
#
# 1 104.5057 62.9149 33.3004 0.0000 0.0000 0.0000
# 2 62.9149 104.5057 33.3004 0.0000 0.0000 0.0000
# 3 33.3004 33.3004 81.0341 0.0000 0.0000 0.0000
# 4 0.0000 0.0000 0.0000 24.2116 0.0000 0.0000
# 5 0.0000 0.0000 0.0000 0.0000 24.2116 0.0000
# 6 0.0000 0.0000 0.0000 0.0000 0.0000 20.7954
#
#
#
# Elastic Compliance Matrix: (Units=1/GPa)
#
#
# Indices 1 2 3 4 5 6 
#
# 1 0.015592 -0.008452 -0.002934 0.000000 0.000000 0.000000
# 2 -0.008452 0.015592 -0.002934 0.000000 0.000000 0.000000
# 3 -0.002934 -0.002934 0.014752 0.000000 0.000000 0.000000
# 4 0.000000 0.000000 0.000000 0.041303 0.000000 0.000000
# 5 0.000000 0.000000 0.000000 0.000000 0.041303 0.000000
# 6 0.000000 0.000000 0.000000 0.000000 0.000000 0.048088
#
#
# Mechanical properties :
#
#
# Convention : Reuss Voigt Hill
#
# Bulk Modulus (GPa) = 57.81803 61.00852 59.41327
# Shear Modulus (GPa) = 23.69283 24.54571 24.11927
#
# Velocity S-wave (km/s) = 3.63131 3.69609 3.66385
# Velocity P-wave (km/s) = 7.05415 7.22285 7.13900
#
# Compressibility (1/GPa) = 0.01729564
#
# Stress axis : x y z
#
# Youngs Moduli (GPa) = 64.13542 64.13542 67.78703
#
# Poissons Ratio (x) = 0.54206 0.19890
# Poissons Ratio (y) = 0.54206 0.19890
# Poissons Ratio (z) = 0.18819 0.18819
#
# Static dielectric constant tensor:
#      x y z
#    x 3.401660 0.000000 0.000000 
#    y 0.000000 3.401660 0.000000 
#    z 0.000000 0.000000 3.230820 
# 
# 
# High freq. dielectric constant tensor:
#      x y z
#    x 1.690560 0.000000 0.000000 
#    y 0.000000 1.690560 0.000000 
#    z 0.000000 0.000000 1.692760 
# 
# From -- ./inp_files/2151.got.cif
#   From: 2010.03.12/outbox.cif.g09.slc.cpg/sg194_2_cif.got.tgz:2151.got - 2010.04.01 12:26:19.
