data_PCOD8330957
_publ_section_title
;
Structure prediction by ZEFSAII (Michael W. Deem and Ramdas Pophale) SiO2 
 PCOD8330957
Probable space group: P A 3
;
_chemical_formula_sum "Si O2"
_cell_formula_units_Z 120
_cell_length_a 18.134284
_cell_length_b 18.134284
_cell_length_c 18.134284
_cell_angle_alpha 90.000000
_cell_angle_beta 90.000000
_cell_angle_gamma 90.000000
_cell_volume 5963.500208
_symmetry_space_group_name_H-M "P A 3"
_symmetry_group_IT_number 205
_symmetry_cell_setting 'cubic'
loop_
_space_group_symop_operation_xyz
x,y,z
z,x,y
y,z,x
1/2-y,-z,1/2+x
1/2+z,1/2-x,-y
-y,1/2+z,1/2-x
1/2-z,-x,1/2+y
-z,1/2+x,1/2-y
1/2+y,1/2-z,-x
1/2-x,-y,1/2+z
1/2+x,1/2-y,-z
-x,1/2+y,1/2-z
-x,-y,-z
-z,-x,-y
-y,-z,-x
1/2+y,z,1/2-x
1/2-z,1/2+x,y
y,1/2-z,1/2+x
1/2+z,x,1/2-y
z,1/2-x,1/2+y
1/2-y,1/2+z,x
1/2+x,y,1/2-z
1/2-x,1/2+y,z
x,1/2-y,1/2+z
loop_
_atom_site_type_symbol
_atom_site_label
_atom_site_fract_x
_atom_site_fract_y
_atom_site_fract_z
Si Si1 0.328740 0.960480 0.845497
Si Si2 0.973114 0.009784 0.722070
Si Si3 0.431458 0.516531 0.860634
Si Si4 0.183177 0.072089 0.618392
Si Si5 0.187158 0.525229 0.256892
O O1 0.387738 0.990281 0.786951
O O2 0.359511 0.891516 0.889146
O O3 0.257090 0.940946 0.797900
O O4 0.306737 0.020244 0.906794
O O5 0.022391 0.954860 0.671606
O O6 0.997591 0.001555 0.808011
O O7 0.446578 0.587119 0.912939
O O8 0.360196 0.530976 0.808485
O O9 0.240700 0.136259 0.596770
O O10 0.212215 0.019916 0.684304
#
# Coordination Sequence:
#
# PCOD8330957 Si02
#       5
#    24  24  24  24  24
#     4  12  22  44  64  99 134 165 222 282 334 402
#     4  11  23  39  72  97 130 171 225 278 337 397
#     4  11  22  42  68  95 129 178 223 274 332 406
#     4  11  21  43  66  96 125 180 220 270 335 402
#     4  11  23  42  69  92 137 175 220 275 347 400
#
# _framework density 20.122409000000001
#
# number of rings (size 3 to 8) (size 9 to 14) (size 15 to 20)
#    0.000    0.800    8.000    0.600    0.000    3.200 
#    4.800    2.000    0.000    0.000    0.000    0.000 
#    0.000    0.000    0.000    0.000    0.000    0.000 
#
# Total GULP energy -1487499.883903 kJ/mol
# GULP energy per Si atom -12395.832366 kJ/mol
# Density = 2.007661 g / cm^3
# Si number density = 20.122409 Si / 1000 Ang^3
#
#
#
# Elastic Constant Matrix: (Units=GPa)
#
#
# Indices 1 2 3 4 5 6 
#
# 1 91.0785 35.8622 35.8622 0.0000 0.0000 0.0000
# 2 35.8622 91.0785 35.8622 0.0000 0.0000 0.0000
# 3 35.8622 35.8622 91.0785 0.0000 0.0000 0.0000
# 4 0.0000 0.0000 0.0000 26.8594 0.0000 0.0000
# 5 0.0000 0.0000 0.0000 0.0000 26.8594 0.0000
# 6 0.0000 0.0000 0.0000 0.0000 0.0000 26.8594
#
#
#
# Elastic Compliance Matrix: (Units=1/GPa)
#
#
# Indices 1 2 3 4 5 6 
#
# 1 0.014121 -0.003989 -0.003989 0.000000 0.000000 0.000000
# 2 -0.003989 0.014121 -0.003989 0.000000 0.000000 0.000000
# 3 -0.003989 -0.003989 0.014121 0.000000 0.000000 0.000000
# 4 0.000000 0.000000 0.000000 0.037231 0.000000 0.000000
# 5 0.000000 0.000000 0.000000 0.000000 0.037231 0.000000
# 6 0.000000 0.000000 0.000000 0.000000 0.000000 0.037231
#
#
# Mechanical properties :
#
#
# Convention : Reuss Voigt Hill
#
# Bulk Modulus (GPa) = 54.26763 54.26763 54.26763
# Shear Modulus (GPa) = 27.15401 27.15894 27.15648
#
# Velocity S-wave (km/s) = 3.67746 3.67779 3.67763
# Velocity P-wave (km/s) = 6.71259 6.71284 6.71272
#
# Compressibility (1/GPa) = 0.01842719
#
# Stress axis : x y z
#
# Youngs Moduli (GPa) = 70.81560 70.81560 70.81560
#
# Poissons Ratio (x) = 0.28251 0.28251
# Poissons Ratio (y) = 0.28251 0.28251
# Poissons Ratio (z) = 0.28251 0.28251
#
# Static dielectric constant tensor:
#      x y z
#    x 3.796170 0.000000 0.000000 
#    y 0.000000 3.796170 0.000000 
#    z 0.000000 0.000000 3.796170 
# 
# 
# High freq. dielectric constant tensor:
#      x y z
#    x 1.781810 0.000000 0.000000 
#    y 0.000000 1.781810 0.000000 
#    z 0.000000 0.000000 1.781810 
# 
# From -- ./inp_files/470.got.cif
#   From: 2010.03.12/outbox.cif.g09.slc.cpg/sg205_cif.got.tgz:470.got - 2010.03.30 09:02:58.
