data_PCOD8330854
_publ_section_title
;
Structure prediction by ZEFSAII (Michael W. Deem and Ramdas Pophale) SiO2 
 PCOD8330854
Probable space group: P 63/M M C
;
_chemical_formula_sum "Si O2"
_cell_formula_units_Z 108
_cell_length_a 17.069015
_cell_length_b 17.069015
_cell_length_c 33.902295
_cell_angle_alpha 90.000000
_cell_angle_beta 90.000000
_cell_angle_gamma 120.000000
_cell_volume 8554.145841
_symmetry_space_group_name_H-M "P 63/M M C"
_symmetry_group_IT_number 194
_symmetry_cell_setting 'hexagonal'
loop_
_space_group_symop_operation_xyz
x,y,z
x-y,x,1/2+z
-y,x-y,z
-x,-y,1/2+z
-x+y,-x,z
y,-x+y,1/2+z
x-y,-y,-z
-x,-x+y,-z
y,x,-z
-y,-x,1/2-z
-x+y,y,1/2-z
x,x-y,1/2-z
-x,-y,-z
-x+y,-x,1/2-z
y,-x+y,-z
x,y,1/2-z
x-y,x,-z
-y,x-y,1/2-z
-x+y,y,z
x,x-y,z
-y,-x,z
y,x,1/2+z
x-y,-y,1/2+z
-x,-x+y,1/2+z
loop_
_atom_site_type_symbol
_atom_site_label
_atom_site_fract_x
_atom_site_fract_y
_atom_site_fract_z
Si Si1 0.667644 0.154870 0.060442
Si Si2 0.903719 0.273477 0.985684
Si Si3 0.037695 0.427947 0.089778
Si Si4 0.334995 0.488799 0.250000
Si Si5 0.148708 0.483771 0.164629
O O1 0.591932 0.183864 0.061930
O O2 0.761848 0.238153 0.075619
O O3 0.642874 0.069652 0.088791
O O4 0.674784 0.128446 0.015540
O O5 0.833493 0.166508 0.985005
O O6 0.908841 0.313529 0.942557
O O7 0.000000 0.287362 0.000000
O O8 0.055812 0.527906 0.080581
O O9 0.074332 0.420876 0.132607
O O10 0.404395 0.595606 0.250000
O O11 0.236362 0.472723 0.250000
O O12 0.346065 0.448118 0.291721
O O13 0.238542 0.477083 0.159564
O O14 0.175918 0.587959 0.158405
#
# Coordination Sequence:
#
# PCOD8330854 Si02
#       5
#    24  24  24  12  24
#     4   9  16  25  36  49  65  86 112 141 171 200
#     4   9  16  25  36  49  66  88 112 137 165 197
#     4   9  16  24  34  49  68  88 110 137 166 195
#     4   8  13  20  30  44  63  88 114 136 156 182
#     4   9  15  22  32  47  68  92 115 135 156 185
#
# _framework density 12.625456
#
# number of rings (size 3 to 8) (size 9 to 14) (size 15 to 20)
#    0.000    3.111    0.000    1.889    0.000    4.444 
#    0.000    0.000    0.000    7.333    0.000    0.778 
#    0.000    0.000    0.000    3.111    0.000    0.000 
#
# Total GULP energy -1338208.195011 kJ/mol
# GULP energy per Si atom -12390.816620 kJ/mol
# Density = 1.259672 g / cm^3
# Si number density = 12.625456 Si / 1000 Ang^3
#
#
#
# Elastic Constant Matrix: (Units=GPa)
#
#
# Indices 1 2 3 4 5 6 
#
# 1 68.3667 35.7119 44.0684 0.0000 0.0000 0.0000
# 2 35.7119 68.3667 44.0684 0.0000 0.0000 0.0000
# 3 44.0684 44.0684 114.2595 0.0000 0.0000 0.0000
# 4 0.0000 0.0000 0.0000 14.9781 0.0000 0.0000
# 5 0.0000 0.0000 0.0000 0.0000 14.9781 0.0000
# 6 0.0000 0.0000 0.0000 0.0000 0.0000 16.3274
#
#
#
# Elastic Compliance Matrix: (Units=1/GPa)
#
#
# Indices 1 2 3 4 5 6 
#
# 1 0.022446 -0.008178 -0.005503 0.000000 0.000000 0.000000
# 2 -0.008178 0.022446 -0.005503 0.000000 0.000000 0.000000
# 3 -0.005503 -0.005503 0.012997 0.000000 0.000000 0.000000
# 4 0.000000 0.000000 0.000000 0.066764 0.000000 0.000000
# 5 0.000000 0.000000 0.000000 0.000000 0.066764 0.000000
# 6 0.000000 0.000000 0.000000 0.000000 0.000000 0.061247
#
#
# Mechanical properties :
#
#
# Convention : Reuss Voigt Hill
#
# Bulk Modulus (GPa) = 51.22645 55.41005 53.31825
# Shear Modulus (GPa) = 16.80458 17.73301 17.26880
#
# Velocity S-wave (km/s) = 3.65226 3.75179 3.70236
# Velocity P-wave (km/s) = 7.64508 7.92154 7.78454
#
# Compressibility (1/GPa) = 0.01952116
#
# Stress axis : x y z
#
# Youngs Moduli (GPa) = 44.55173 44.55173 76.94103
#
# Poissons Ratio (x) = 0.36432 0.42341
# Poissons Ratio (y) = 0.36432 0.42341
# Poissons Ratio (z) = 0.24517 0.24517
#
# Static dielectric constant tensor:
#      x y z
#    x 2.459470 0.000000 0.000000 
#    y 0.000000 2.459470 0.000000 
#    z 0.000000 0.000000 2.822910 
# 
# 
# High freq. dielectric constant tensor:
#      x y z
#    x 1.457760 0.000000 0.000000 
#    y 0.000000 1.457760 0.000000 
#    z 0.000000 0.000000 1.479340 
# 
# From -- ./inp_files/10593.got.cif
#   From: 2010.03.12/outbox.cif.g09.slc.cpg/sg194_6_cif.got.tgz:10593.got - 2010.04.01 12:26:19.
