data_PCOD8330356
_publ_section_title
;
Structure prediction by ZEFSAII (Michael W. Deem and Ramdas Pophale) SiO2 
 PCOD8330356
Probable space group: P 63/M M C
;
_chemical_formula_sum "Si O2"
_cell_formula_units_Z 180
_cell_length_a 20.633474
_cell_length_b 20.633474
_cell_length_c 27.068117
_cell_angle_alpha 90.000000
_cell_angle_beta 90.000000
_cell_angle_gamma 120.000000
_cell_volume 9980.065391
_symmetry_space_group_name_H-M "P 63/M M C"
_symmetry_group_IT_number 194
_symmetry_cell_setting 'hexagonal'
loop_
_space_group_symop_operation_xyz
x,y,z
x-y,x,1/2+z
-y,x-y,z
-x,-y,1/2+z
-x+y,-x,z
y,-x+y,1/2+z
x-y,-y,-z
-x,-x+y,-z
y,x,-z
-y,-x,1/2-z
-x+y,y,1/2-z
x,x-y,1/2-z
-x,-y,-z
-x+y,-x,1/2-z
y,-x+y,-z
x,y,1/2-z
x-y,x,-z
-y,x-y,1/2-z
-x+y,y,z
x,x-y,z
-y,-x,z
y,x,1/2+z
x-y,-y,1/2+z
-x,-x+y,1/2+z
loop_
_atom_site_type_symbol
_atom_site_label
_atom_site_fract_x
_atom_site_fract_y
_atom_site_fract_z
Si Si1 0.184138 0.214426 0.149274
Si Si2 0.046133 0.804781 0.548380
Si Si3 0.002003 0.855617 0.750000
Si Si4 0.117580 0.485929 0.068247
Si Si5 0.256628 0.361709 0.195569
Si Si6 0.384829 0.029813 0.446767
Si Si7 0.485678 0.818368 0.964601
Si Si8 0.813667 0.334071 0.830466
O O1 0.102685 0.205369 0.147225
O O2 0.193918 0.179759 0.098695
O O3 0.192714 0.174731 0.198705
O O4 0.249634 0.301658 0.154570
O O5 0.130355 0.869646 0.540330
O O6 0.046788 0.728816 0.554339
O O7 0.000000 0.803823 0.500000
O O8 0.915787 0.831573 0.750000
O O9 0.055197 0.944804 0.750000
O O10 0.090733 0.545367 0.057845
O O11 0.180385 0.514405 0.110389
O O12 0.042913 0.409286 0.086476
O O13 0.159076 0.479311 0.019610
O O14 0.254880 0.328388 0.250000
O O15 0.187168 0.374336 0.187625
O O16 0.328500 0.444321 0.190819
O O17 0.460030 0.107615 0.431523
O O18 0.394085 0.000000 0.500000
O O19 0.400123 0.800245 0.961150
O O20 0.488598 0.744299 0.947637
O O21 0.821447 0.410724 0.810074
O O22 0.733451 0.266550 0.813549
#
# Coordination Sequence:
#
# PCOD8330356 Si02
#       8
#    24  24  12  24  24  24  24  24
#     4  10  19  34  55  75  98 127 163 206 249 296
#     4  11  22  35  51  73 101 132 166 203 245 297
#     4  10  19  32  52  78 103 126 154 196 252 308
#     4   9  17  29  44  63  87 120 162 205 251 299
#     4   9  17  31  49  69  90 119 161 204 246 288
#     4   9  18  31  46  64  88 121 163 208 248 288
#     4  10  18  28  43  63  90 122 158 202 253 308
#     4  10  19  29  43  64  94 128 164 205 249 299
#
# _framework density 18.035955000000001
#
# number of rings (size 3 to 8) (size 9 to 14) (size 15 to 20)
#    0.000    2.267    0.667    3.133    0.000    1.867 
#    0.000    5.333    0.000    4.000    0.000    0.000 
#    0.000    0.000    0.000    0.000    0.000    0.000 
#
# Total GULP energy -2230196.222791 kJ/mol
# GULP energy per Si atom -12389.979016 kJ/mol
# Density = 1.799490 g / cm^3
# Si number density = 18.035955 Si / 1000 Ang^3
#
#
#
# Elastic Constant Matrix: (Units=GPa)
#
#
# Indices 1 2 3 4 5 6 
#
# 1 86.4434 29.7439 11.5758 0.0000 0.0000 0.0000
# 2 29.7439 86.4434 11.5758 0.0000 0.0000 0.0000
# 3 11.5758 11.5758 71.5869 0.0000 0.0000 0.0000
# 4 0.0000 0.0000 0.0000 18.6266 0.0000 0.0000
# 5 0.0000 0.0000 0.0000 0.0000 18.6266 0.0000
# 6 0.0000 0.0000 0.0000 0.0000 0.0000 28.3498
#
#
#
# Elastic Compliance Matrix: (Units=1/GPa)
#
#
# Indices 1 2 3 4 5 6 
#
# 1 0.013265 -0.004372 -0.001438 0.000000 0.000000 0.000000
# 2 -0.004372 0.013265 -0.001438 0.000000 0.000000 0.000000
# 3 -0.001438 -0.001438 0.014434 0.000000 0.000000 0.000000
# 4 0.000000 0.000000 0.000000 0.053687 0.000000 0.000000
# 5 0.000000 0.000000 0.000000 0.000000 0.053687 0.000000
# 6 0.000000 0.000000 0.000000 0.000000 0.000000 0.035274
#
#
# Mechanical properties :
#
#
# Convention : Reuss Voigt Hill
#
# Bulk Modulus (GPa) = 37.78075 38.91828 38.34952
# Shear Modulus (GPa) = 24.16280 25.89250 25.02765
#
# Velocity S-wave (km/s) = 3.66416 3.79305 3.72916
# Velocity P-wave (km/s) = 6.23654 6.38811 6.31278
#
# Compressibility (1/GPa) = 0.02646851
#
# Stress axis : x y z
#
# Youngs Moduli (GPa) = 75.38591 75.38591 69.28031
#
# Poissons Ratio (x) = 0.32957 0.09963
# Poissons Ratio (y) = 0.32957 0.09963
# Poissons Ratio (z) = 0.10841 0.10841
#
# Static dielectric constant tensor:
#      x y z
#    x 3.299470 0.000000 0.000000 
#    y 0.000000 3.299470 0.000000 
#    z 0.000000 0.000000 3.245750 
# 
# 
# High freq. dielectric constant tensor:
#      x y z
#    x 1.691580 0.000000 0.000000 
#    y 0.000000 1.691580 0.000000 
#    z 0.000000 0.000000 1.672830 
# 
# From -- ./inp_files/12471.got.cif
#   From: 2010.03.12/outbox.cif.g09.slc.cpg/sg194_7_cif.got.tgz:12471.got - 2010.04.01 12:26:19.
