data_PCOD8330859
_publ_section_title
;
Structure prediction by ZEFSAII (Michael W. Deem and Ramdas Pophale) SiO2 
 PCOD8330859
Probable space group: P 63/M M C
;
_chemical_formula_sum "Si O2"
_cell_formula_units_Z 144
_cell_length_a 21.572283
_cell_length_b 21.572283
_cell_length_c 25.545143
_cell_angle_alpha 90.000000
_cell_angle_beta 90.000000
_cell_angle_gamma 120.000000
_cell_volume 10295.114662
_symmetry_space_group_name_H-M "P 63/M M C"
_symmetry_group_IT_number 194
_symmetry_cell_setting 'hexagonal'
loop_
_space_group_symop_operation_xyz
x,y,z
x-y,x,1/2+z
-y,x-y,z
-x,-y,1/2+z
-x+y,-x,z
y,-x+y,1/2+z
x-y,-y,-z
-x,-x+y,-z
y,x,-z
-y,-x,1/2-z
-x+y,y,1/2-z
x,x-y,1/2-z
-x,-y,-z
-x+y,-x,1/2-z
y,-x+y,-z
x,y,1/2-z
x-y,x,-z
-y,x-y,1/2-z
-x+y,y,z
x,x-y,z
-y,-x,z
y,x,1/2+z
x-y,-y,1/2+z
-x,-x+y,1/2+z
loop_
_atom_site_type_symbol
_atom_site_label
_atom_site_fract_x
_atom_site_fract_y
_atom_site_fract_z
Si Si1 0.135213 0.406550 0.043762
Si Si2 0.194057 0.528103 0.641659
Si Si3 0.895208 0.376145 0.460589
Si Si4 0.656571 0.652602 0.098223
Si Si5 0.546121 0.594429 0.690505
Si Si6 0.792323 0.724876 0.465855
O O1 0.213469 0.426938 0.064948
O O2 0.081522 0.380327 0.092716
O O3 0.138725 0.474996 0.015196
O O4 0.108593 0.345142 0.000600
O O5 0.254940 0.509880 0.655958
O O6 0.226817 0.613409 0.639940
O O7 0.160882 0.494632 0.585487
O O8 0.134023 0.493001 0.686347
O O9 0.914385 0.457193 0.465140
O O10 0.968741 0.377349 0.446474
O O11 0.633619 0.617711 0.155573
O O12 0.742757 0.701994 0.087161
O O13 0.569994 0.594606 0.750000
O O14 0.487698 0.512303 0.672664
O O15 0.784797 0.784797 0.500000
O O16 0.876208 0.752416 0.451631
#
# Coordination Sequence:
#
# PCOD8330859 Si02
#       6
#    24  24  24  24  24  24
#     4   9  16  25  37  55  77  97 119 148 183 224
#     4   9  16  25  36  50  71 101 132 155 176 208
#     4   9  16  24  36  56  79 101 125 152 180 212
#     4   9  16  25  39  56  73  96 125 156 186 221
#     4   9  18  30  40  52  71  94 124 163 202 234
#     4   8  14  24  38  57  80 104 127 150 178 214
#
# _framework density 13.987216999999999
#
# number of rings (size 3 to 8) (size 9 to 14) (size 15 to 20)
#    0.000    3.167    0.000    3.667    0.000    6.333 
#    0.000    0.000    0.000    2.000    0.000    0.000 
#    0.000    0.000    0.000    0.000    0.000    0.000 
#
# Total GULP energy -1784153.939055 kJ/mol
# GULP energy per Si atom -12389.957910 kJ/mol
# Density = 1.395538 g / cm^3
# Si number density = 13.987217 Si / 1000 Ang^3
#
#
#
# Elastic Constant Matrix: (Units=GPa)
#
#
# Indices 1 2 3 4 5 6 
#
# 1 55.6136 35.9767 28.9240 0.0000 0.0000 0.0000
# 2 35.9767 55.6136 28.9240 0.0000 0.0000 0.0000
# 3 28.9240 28.9240 59.3404 0.0000 0.0000 0.0000
# 4 0.0000 0.0000 0.0000 10.2515 0.0000 0.0000
# 5 0.0000 0.0000 0.0000 0.0000 10.2515 0.0000
# 6 0.0000 0.0000 0.0000 0.0000 0.0000 9.8184
#
#
#
# Elastic Compliance Matrix: (Units=1/GPa)
#
#
# Indices 1 2 3 4 5 6 
#
# 1 0.033350 -0.017575 -0.007689 0.000000 0.000000 0.000000
# 2 -0.017575 0.033350 -0.007689 0.000000 0.000000 0.000000
# 3 -0.007689 -0.007689 0.024347 0.000000 0.000000 0.000000
# 4 0.000000 0.000000 0.000000 0.097547 0.000000 0.000000
# 5 0.000000 0.000000 0.000000 0.000000 0.097547 0.000000
# 6 0.000000 0.000000 0.000000 0.000000 0.000000 0.101849
#
#
# Mechanical properties :
#
#
# Convention : Reuss Voigt Hill
#
# Bulk Modulus (GPa) = 39.77589 39.80189 39.78889
# Shear Modulus (GPa) = 10.81607 11.18048 10.99828
#
# Velocity S-wave (km/s) = 2.78381 2.83032 2.80716
# Velocity P-wave (km/s) = 6.23152 6.26088 6.24622
#
# Compressibility (1/GPa) = 0.02514086
#
# Stress axis : x y z
#
# Youngs Moduli (GPa) = 29.98541 29.98541 41.07216
#
# Poissons Ratio (x) = 0.52700 0.31580
# Poissons Ratio (y) = 0.52700 0.31580
# Poissons Ratio (z) = 0.23055 0.23055
#
# Static dielectric constant tensor:
#      x y z
#    x 2.793820 0.000000 0.000000 
#    y 0.000000 2.793820 0.000000 
#    z 0.000000 0.000000 2.483570 
# 
# 
# High freq. dielectric constant tensor:
#      x y z
#    x 1.518250 0.000000 0.000000 
#    y 0.000000 1.518250 0.000000 
#    z 0.000000 0.000000 1.498640 
# 
# From -- ./inp_files/9930.got.cif
#   From: 2010.03.12/outbox.cif.g09.slc.cpg/sg194_5_cif.got.tgz:9930.got - 2010.04.01 12:26:19.
