data_PCOD8330631
_publ_section_title
;
Structure prediction by ZEFSAII (Michael W. Deem and Ramdas Pophale) SiO2 
 PCOD8330631
Probable space group: P 63/M M C
;
_chemical_formula_sum "Si O2"
_cell_formula_units_Z 72
_cell_length_a 14.882695
_cell_length_b 14.882695
_cell_length_c 19.963126
_cell_angle_alpha 90.000000
_cell_angle_beta 90.000000
_cell_angle_gamma 120.000000
_cell_volume 3829.326020
_symmetry_space_group_name_H-M "P 63/M M C"
_symmetry_group_IT_number 194
_symmetry_cell_setting 'hexagonal'
loop_
_space_group_symop_operation_xyz
x,y,z
x-y,x,1/2+z
-y,x-y,z
-x,-y,1/2+z
-x+y,-x,z
y,-x+y,1/2+z
x-y,-y,-z
-x,-x+y,-z
y,x,-z
-y,-x,1/2-z
-x+y,y,1/2-z
x,x-y,1/2-z
-x,-y,-z
-x+y,-x,1/2-z
y,-x+y,-z
x,y,1/2-z
x-y,x,-z
-y,x-y,1/2-z
-x+y,y,z
x,x-y,z
-y,-x,z
y,x,1/2+z
x-y,-y,1/2+z
-x,-x+y,1/2+z
loop_
_atom_site_type_symbol
_atom_site_label
_atom_site_fract_x
_atom_site_fract_y
_atom_site_fract_z
Si Si1 0.599989 0.400012 0.326189
Si Si2 0.791575 0.791575 0.000000
Si Si3 0.655404 0.932788 0.378994
Si Si4 0.212726 0.001696 0.750000
Si Si5 0.500228 0.000456 0.581726
O O1 0.549009 0.274505 0.334430
O O2 0.576138 0.423863 0.250000
O O3 0.557304 0.442697 0.385311
O O4 0.725720 0.732477 0.935748
O O5 0.903530 0.807059 0.995542
O O6 0.628201 0.814101 0.384418
O O7 0.714407 0.986774 0.311541
O O8 0.550000 0.934659 0.388371
O O9 0.179891 0.089946 0.750000
O O10 0.108827 0.891174 0.750000
O O11 0.500000 0.000000 0.500000
#
# Coordination Sequence:
#
# PCOD8330631 Si02
#       5
#    12  12  24  12  12
#     4   8  20  42  64  98 130 152 206 277 335 397
#     4  10  19  35  58  86 122 156 196 247 305 378
#     4  10  23  40  57  88 123 159 213 255 303 373
#     4  10  21  39  64  96 128 162 196 247 307 382
#     4  12  24  40  64  90 124 176 210 266 331 376
#
# _framework density 18.802264999999998
#
# number of rings (size 3 to 8) (size 9 to 14) (size 15 to 20)
#    0.333    1.667    1.667    1.333    2.333    4.000 
#    1.000    3.333    0.000    0.000    0.000    0.000 
#    0.000    0.000    0.000    0.000    0.000    0.000 
#
# Total GULP energy -892377.119209 kJ/mol
# GULP energy per Si atom -12394.126656 kJ/mol
# Density = 1.875947 g / cm^3
# Si number density = 18.802265 Si / 1000 Ang^3
#
#
#
# Elastic Constant Matrix: (Units=GPa)
#
#
# Indices 1 2 3 4 5 6 
#
# 1 100.3921 -0.4810 53.0671 0.0000 0.0000 0.0000
# 2 -0.4810 100.3921 53.0671 0.0000 0.0000 0.0000
# 3 53.0671 53.0671 172.5418 0.0000 0.0000 0.0000
# 4 0.0000 0.0000 0.0000 33.3179 0.0000 0.0000
# 5 0.0000 0.0000 0.0000 0.0000 33.3179 0.0000
# 6 0.0000 0.0000 0.0000 0.0000 0.0000 50.4366
#
#
#
# Elastic Compliance Matrix: (Units=1/GPa)
#
#
# Indices 1 2 3 4 5 6 
#
# 1 0.012390 0.002476 -0.004572 0.000000 0.000000 0.000000
# 2 0.002476 0.012390 -0.004572 0.000000 0.000000 0.000000
# 3 -0.004572 -0.004572 0.008608 0.000000 0.000000 0.000000
# 4 0.000000 0.000000 0.000000 0.030014 0.000000 0.000000
# 5 0.000000 0.000000 0.000000 0.000000 0.030014 0.000000
# 6 0.000000 0.000000 0.000000 0.000000 0.000000 0.019827
#
#
# Mechanical properties :
#
#
# Convention : Reuss Voigt Hill
#
# Bulk Modulus (GPa) = 49.87230 64.95913 57.41572
# Shear Modulus (GPa) = 37.52004 41.25931 39.38968
#
# Velocity S-wave (km/s) = 4.47196 4.68950 4.58202
# Velocity P-wave (km/s) = 7.29704 7.99659 7.65481
#
# Compressibility (1/GPa) = 0.02005121
#
# Stress axis : x y z
#
# Youngs Moduli (GPa) = 80.71256 80.71256 116.16925
#
# Poissons Ratio (x) = -0.19986 0.53114
# Poissons Ratio (y) = -0.19986 0.53114
# Poissons Ratio (z) = 0.36903 0.36903
#
# Static dielectric constant tensor:
#      x y z
#    x 3.329900 0.000000 0.000000 
#    y 0.000000 3.329900 0.000000 
#    z 0.000000 0.000000 9.634730 
# 
# 
# High freq. dielectric constant tensor:
#      x y z
#    x 1.726040 0.000000 0.000000 
#    y 0.000000 1.726040 0.000000 
#    z 0.000000 0.000000 1.748480 
# 
# From -- ./inp_files/6160.got.cif
#   From: 2010.03.12/outbox.cif.g09.slc.cpg/sg194_4_cif.got.tgz:6160.got - 2010.04.01 12:26:19.
