data_PCOD8330307
_publ_section_title
;
Structure prediction by ZEFSAII (Michael W. Deem and Ramdas Pophale) SiO2 
 PCOD8330307
Probable space group: P 63/M M C
;
_chemical_formula_sum "Si O2"
_cell_formula_units_Z 168
_cell_length_a 21.720565
_cell_length_b 21.720565
_cell_length_c 24.535054
_cell_angle_alpha 90.000000
_cell_angle_beta 90.000000
_cell_angle_gamma 120.000000
_cell_volume 10024.434579
_symmetry_space_group_name_H-M "P 63/M M C"
_symmetry_group_IT_number 194
_symmetry_cell_setting 'hexagonal'
loop_
_space_group_symop_operation_xyz
x,y,z
x-y,x,1/2+z
-y,x-y,z
-x,-y,1/2+z
-x+y,-x,z
y,-x+y,1/2+z
x-y,-y,-z
-x,-x+y,-z
y,x,-z
-y,-x,1/2-z
-x+y,y,1/2-z
x,x-y,1/2-z
-x,-y,-z
-x+y,-x,1/2-z
y,-x+y,-z
x,y,1/2-z
x-y,x,-z
-y,x-y,1/2-z
-x+y,y,z
x,x-y,z
-y,-x,z
y,x,1/2+z
x-y,-y,1/2+z
-x,-x+y,1/2+z
loop_
_atom_site_type_symbol
_atom_site_label
_atom_site_fract_x
_atom_site_fract_y
_atom_site_fract_z
Si Si1 0.942414 0.401422 0.072940
Si Si2 0.425956 0.088556 0.962626
Si Si3 0.473696 0.668732 0.379986
Si Si4 0.922993 0.704559 0.906347
Si Si5 0.140724 0.000109 0.435480
Si Si6 0.100340 0.395518 0.310052
Si Si7 0.552817 0.589607 0.690892
O O1 0.919057 0.459529 0.062084
O O2 0.920137 0.370871 0.135372
O O3 0.027164 0.437951 0.063659
O O4 0.903507 0.339635 0.028042
O O5 0.484891 0.161863 0.936401
O O6 0.345163 0.067567 0.950042
O O7 0.440526 0.720263 0.383426
O O8 0.411126 0.588875 0.369355
O O9 0.531358 0.696639 0.331862
O O10 0.852774 0.705548 0.923787
O O11 0.988310 0.785816 0.908568
O O12 0.915595 0.672628 0.846051
O O13 0.062456 0.937545 0.417720
O O14 0.148888 0.000000 0.500000
O O15 0.150747 0.075374 0.414993
O O16 0.119894 0.381348 0.250000
O O17 0.032911 0.405213 0.308777
O O18 0.542723 0.619785 0.750000
O O19 0.492784 0.507217 0.684982
#
# Coordination Sequence:
#
# PCOD8330307 Si02
#       7
#    24  24  24  24  24  24  24
#     4  10  17  26  43  65  86 118 155 190 235 288
#     4  10  18  28  44  64  94 121 151 194 244 289
#     4  11  21  33  46  63  90 127 169 209 246 287
#     4  10  20  31  46  69  94 120 152 191 234 281
#     4   9  18  32  51  73  98 125 152 182 225 285
#     4  10  19  31  47  64  89 124 159 199 245 283
#     4   9  16  26  41  63  88 116 154 194 232 276
#
# _framework density 16.759049999999998
#
# number of rings (size 3 to 8) (size 9 to 14) (size 15 to 20)
#    0.000    2.143    2.857    4.143    2.000    2.571 
#    0.000    0.000    0.000    1.286    0.000    0.000 
#    0.000    3.429    0.000    0.286    0.000    3.571 
#
# Total GULP energy -2081618.891420 kJ/mol
# GULP energy per Si atom -12390.588639 kJ/mol
# Density = 1.672091 g / cm^3
# Si number density = 16.759050 Si / 1000 Ang^3
#
#
#
# Elastic Constant Matrix: (Units=GPa)
#
#
# Indices 1 2 3 4 5 6 
#
# 1 80.8063 37.8572 37.0413 0.0000 0.0000 0.0000
# 2 37.8572 80.8063 37.0413 0.0000 0.0000 0.0000
# 3 37.0413 37.0413 149.0830 0.0000 0.0000 0.0000
# 4 0.0000 0.0000 0.0000 9.6644 0.0000 0.0000
# 5 0.0000 0.0000 0.0000 0.0000 9.6644 0.0000
# 6 0.0000 0.0000 0.0000 0.0000 0.0000 21.4746
#
#
#
# Elastic Compliance Matrix: (Units=1/GPa)
#
#
# Indices 1 2 3 4 5 6 
#
# 1 0.016629 -0.006654 -0.002478 0.000000 0.000000 0.000000
# 2 -0.006654 0.016629 -0.002478 0.000000 0.000000 0.000000
# 3 -0.002478 -0.002478 0.007939 0.000000 0.000000 0.000000
# 4 0.000000 0.000000 0.000000 0.103473 0.000000 0.000000
# 5 0.000000 0.000000 0.000000 0.000000 0.103473 0.000000
# 6 0.000000 0.000000 0.000000 0.000000 0.000000 0.046567
#
#
# Mechanical properties :
#
#
# Convention : Reuss Voigt Hill
#
# Bulk Modulus (GPa) = 55.63298 59.39725 57.51512
# Shear Modulus (GPa) = 15.43576 21.41104 18.42340
#
# Velocity S-wave (km/s) = 3.03816 3.57820 3.31918
# Velocity P-wave (km/s) = 6.75093 7.25191 7.00590
#
# Compressibility (1/GPa) = 0.01797495
#
# Stress axis : x y z
#
# Youngs Moduli (GPa) = 60.13635 60.13635 125.95775
#
# Poissons Ratio (x) = 0.40018 0.31215
# Poissons Ratio (y) = 0.40018 0.31215
# Poissons Ratio (z) = 0.14903 0.14903
#
# Static dielectric constant tensor:
#      x y z
#    x 3.020450 0.000000 0.000000 
#    y 0.000000 3.020450 0.000000 
#    z 0.000000 0.000000 3.676780 
# 
# 
# High freq. dielectric constant tensor:
#      x y z
#    x 1.623510 0.000000 0.000000 
#    y 0.000000 1.623510 0.000000 
#    z 0.000000 0.000000 1.645510 
# 
# From -- ./inp_files/11102.got.cif
#   From: 2010.03.12/outbox.cif.g09.slc.cpg/sg194_6_cif.got.tgz:11102.got - 2010.04.01 12:26:19.
