data_PCOD8330095
_publ_section_title
;
Structure prediction by ZEFSAII (Michael W. Deem and Ramdas Pophale) SiO2 
 PCOD8330095
Probable space group: P 63/M C M
;
_chemical_formula_sum "Si O2"
_cell_formula_units_Z 144
_cell_length_a 21.568386
_cell_length_b 21.568386
_cell_length_c 19.051739
_cell_angle_alpha 90.000000
_cell_angle_beta 90.000000
_cell_angle_gamma 120.000000
_cell_volume 7675.391725
_symmetry_space_group_name_H-M "P 63/M C M"
_symmetry_group_IT_number 193
_symmetry_cell_setting 'hexagonal'
loop_
_space_group_symop_operation_xyz
x,y,z
x-y,x,1/2+z
-y,x-y,z
-x,-y,1/2+z
-x+y,-x,z
y,-x+y,1/2+z
x-y,-y,1/2-z
-x,-x+y,1/2-z
y,x,1/2-z
-y,-x,-z
-x+y,y,-z
x,x-y,-z
-x,-y,-z
-x+y,-x,1/2-z
y,-x+y,-z
x,y,1/2-z
x-y,x,-z
-y,x-y,1/2-z
-x+y,y,1/2+z
x,x-y,1/2+z
-y,-x,1/2+z
y,x,z
x-y,-y,z
-x,-x+y,z
loop_
_atom_site_type_symbol
_atom_site_label
_atom_site_fract_x
_atom_site_fract_y
_atom_site_fract_z
Si Si1 0.309459 0.390741 0.571239
Si Si2 0.283924 0.199241 0.170869
Si Si3 0.196672 0.682743 0.667822
Si Si4 0.465063 0.651187 0.831704
Si Si5 0.319823 0.404237 0.412419
Si Si6 0.244731 0.163195 0.930283
O O1 0.374453 0.374453 0.582370
O O2 0.317510 0.449695 0.626532
O O3 0.310266 0.419107 0.492940
O O4 0.235375 0.318654 0.581041
O O5 0.305859 0.191727 0.250000
O O6 0.238653 0.238653 0.170455
O O7 0.355934 0.242605 0.124575
O O8 0.234931 0.121136 0.136943
O O9 0.181791 0.685148 0.750000
O O10 0.202561 0.613595 0.648409
O O11 0.272332 0.748899 0.644624
O O12 0.480323 0.650568 0.750000
O O13 0.520486 0.636120 0.873468
O O14 0.364452 0.364452 0.405315
O O15 0.179582 0.179582 0.933759
O O16 0.244696 0.122348 0.000000
#
# Coordination Sequence:
#
# PCOD8330095 Si02
#       6
#    24  24  24  24  24  24
#     4  10  22  37  56  83 115 148 181 231 293 344
#     4  10  20  35  57  85 115 147 188 239 288 335
#     4  10  22  39  58  81 112 151 193 237 287 344
#     4  10  21  37  57  80 108 146 190 235 281 336
#     4  10  20  36  57  83 113 145 186 235 289 343
#     4  11  21  36  59  85 115 152 191 232 285 345
#
# _framework density 18.761257000000001
#
# number of rings (size 3 to 8) (size 9 to 14) (size 15 to 20)
#    0.000    1.833    1.667    2.333    0.000    6.333 
#    0.000    5.000    0.000    5.000    0.000    0.000 
#    0.000    0.000    0.000    0.000    0.000    0.000 
#
# Total GULP energy -1785902.714164 kJ/mol
# GULP energy per Si atom -12402.102182 kJ/mol
# Density = 1.871856 g / cm^3
# Si number density = 18.761257 Si / 1000 Ang^3
#
#
#
# Elastic Constant Matrix: (Units=GPa)
#
#
# Indices 1 2 3 4 5 6 
#
# 1 67.6524 28.1718 49.0648 0.0000 0.0000 0.0000
# 2 28.1718 67.6524 49.0648 0.0000 0.0000 0.0000
# 3 49.0648 49.0648 98.4780 0.0000 0.0000 0.0000
# 4 0.0000 0.0000 0.0000 29.5074 0.0000 0.0000
# 5 0.0000 0.0000 0.0000 0.0000 29.5074 0.0000
# 6 0.0000 0.0000 0.0000 0.0000 0.0000 19.7403
#
#
#
# Elastic Compliance Matrix: (Units=1/GPa)
#
#
# Indices 1 2 3 4 5 6 
#
# 1 0.023318 -0.002011 -0.010616 0.000000 0.000000 0.000000
# 2 -0.002011 0.023318 -0.010616 0.000000 0.000000 0.000000
# 3 -0.010616 -0.010616 0.020733 0.000000 0.000000 0.000000
# 4 0.000000 0.000000 0.000000 0.033890 0.000000 0.000000
# 5 0.000000 0.000000 0.000000 0.000000 0.033890 0.000000
# 6 0.000000 0.000000 0.000000 0.000000 0.000000 0.050658
#
#
# Mechanical properties :
#
#
# Convention : Reuss Voigt Hill
#
# Bulk Modulus (GPa) = 47.88457 54.04284 50.96370
# Shear Modulus (GPa) = 20.89845 22.91646 21.90745
#
# Velocity S-wave (km/s) = 3.34116 3.49876 3.42086
# Velocity P-wave (km/s) = 6.36105 6.72234 6.54419
#
# Compressibility (1/GPa) = 0.02088355
#
# Stress axis : x y z
#
# Youngs Moduli (GPa) = 42.88548 42.88548 48.23274
#
# Poissons Ratio (x) = 0.08624 0.51203
# Poissons Ratio (y) = 0.08624 0.51203
# Poissons Ratio (z) = 0.45526 0.45526
#
# Static dielectric constant tensor:
#      x y z
#    x 3.535990 0.000000 0.000000 
#    y 0.000000 3.535990 0.000000 
#    z 0.000000 0.000000 3.549920 
# 
# 
# High freq. dielectric constant tensor:
#      x y z
#    x 1.726710 0.000000 0.000000 
#    y 0.000000 1.726710 0.000000 
#    z 0.000000 0.000000 1.733320 
# 
# From -- ./inp_files/6609.got.cif
#   From: 2010.03.12/outbox.cif.g09.slc.cpg/sg193_4_cif.got.tgz:6609.got - 2010.04.01 12:20:39.
