data_PCOD8330752
_publ_section_title
;
Structure prediction by ZEFSAII (Michael W. Deem and Ramdas Pophale) SiO2 
 PCOD8330752
Probable space group: P 63/M M C
;
_chemical_formula_sum "Si O2"
_cell_formula_units_Z 168
_cell_length_a 18.487222
_cell_length_b 18.487222
_cell_length_c 28.992705
_cell_angle_alpha 90.000000
_cell_angle_beta 90.000000
_cell_angle_gamma 120.000000
_cell_volume 8581.489612
_symmetry_space_group_name_H-M "P 63/M M C"
_symmetry_group_IT_number 194
_symmetry_cell_setting 'hexagonal'
loop_
_space_group_symop_operation_xyz
x,y,z
x-y,x,1/2+z
-y,x-y,z
-x,-y,1/2+z
-x+y,-x,z
y,-x+y,1/2+z
x-y,-y,-z
-x,-x+y,-z
y,x,-z
-y,-x,1/2-z
-x+y,y,1/2-z
x,x-y,1/2-z
-x,-y,-z
-x+y,-x,1/2-z
y,-x+y,-z
x,y,1/2-z
x-y,x,-z
-y,x-y,1/2-z
-x+y,y,z
x,x-y,z
-y,-x,z
y,x,1/2+z
x-y,-y,1/2+z
-x,-x+y,1/2+z
loop_
_atom_site_type_symbol
_atom_site_label
_atom_site_fract_x
_atom_site_fract_y
_atom_site_fract_z
Si Si1 0.575363 0.591652 0.198785
Si Si2 0.832083 0.999573 0.696957
Si Si3 0.707919 0.694440 0.630045
Si Si4 0.143987 0.695649 0.910770
Si Si5 0.826724 0.334011 0.313758
Si Si6 0.921601 0.679776 0.534151
Si Si7 0.503681 0.336235 0.991644
O O1 0.565897 0.621466 0.250000
O O2 0.486490 0.513511 0.182307
O O3 0.609466 0.668058 0.161913
O O4 0.645400 0.563515 0.202479
O O5 0.805623 0.999861 0.750000
O O6 0.854272 0.927136 0.688618
O O7 0.755557 0.983173 0.664238
O O8 0.912839 0.087162 0.684100
O O9 0.633305 0.692773 0.602052
O O10 0.769557 0.702347 0.588727
O O11 0.208279 0.791722 0.922833
O O12 0.176278 0.662552 0.869034
O O13 0.135591 0.641867 0.955585
O O14 0.806338 0.403169 0.293863
O O15 0.757395 0.242605 0.295132
O O16 0.847114 0.694227 0.515926
O O17 0.894153 0.582212 0.533984
O O18 0.000000 0.732943 0.500000
O O19 0.526951 0.263476 0.988132
O O20 0.579708 0.420293 0.969575
#
# Coordination Sequence:
#
# PCOD8330752 Si02
#       7
#    24  24  24  24  24  24  24
#     4   9  19  34  50  72 106 144 184 233 286 337
#     4  10  21  37  59  87 116 145 181 231 293 357
#     4  11  20  35  56  81 106 145 189 235 278 343
#     4   9  17  29  46  71 103 138 180 229 276 324
#     4   9  16  25  39  61  94 137 183 226 267 313
#     4  11  24  41  59  84 115 152 193 240 291 344
#     4  10  20  35  55  81 114 151 193 236 284 331
#
# _framework density 19.577021999999999
#
# number of rings (size 3 to 8) (size 9 to 14) (size 15 to 20)
#    0.000    2.143    1.429    2.143    0.000    3.429 
#    0.000    1.429    0.000    1.000    0.000    0.000 
#    0.000    0.000    0.000    0.000    0.000    7.571 
#
# Total GULP energy -2081706.518897 kJ/mol
# GULP energy per Si atom -12391.110232 kJ/mol
# Density = 1.953246 g / cm^3
# Si number density = 19.577022 Si / 1000 Ang^3
#
#
#
# Elastic Constant Matrix: (Units=GPa)
#
#
# Indices 1 2 3 4 5 6 
#
# 1 68.9991 28.9589 19.1797 0.0000 0.0000 0.0000
# 2 28.9589 68.9991 19.1797 0.0000 0.0000 0.0000
# 3 19.1797 19.1797 95.2078 0.0000 0.0000 0.0000
# 4 0.0000 0.0000 0.0000 10.2973 0.0000 0.0000
# 5 0.0000 0.0000 0.0000 0.0000 10.2973 0.0000
# 6 0.0000 0.0000 0.0000 0.0000 0.0000 20.0201
#
#
#
# Elastic Compliance Matrix: (Units=1/GPa)
#
#
# Indices 1 2 3 4 5 6 
#
# 1 0.018029 -0.006946 -0.002233 0.000000 0.000000 0.000000
# 2 -0.006946 0.018029 -0.002233 0.000000 0.000000 0.000000
# 3 -0.002233 -0.002233 0.011403 0.000000 0.000000 0.000000
# 4 0.000000 0.000000 0.000000 0.097113 0.000000 0.000000
# 5 0.000000 0.000000 0.000000 0.000000 0.097113 0.000000
# 6 0.000000 0.000000 0.000000 0.000000 0.000000 0.049950
#
#
# Mechanical properties :
#
#
# Convention : Reuss Voigt Hill
#
# Bulk Modulus (GPa) = 40.58801 40.87142 40.72972
# Shear Modulus (GPa) = 15.49568 19.18214 17.33891
#
# Velocity S-wave (km/s) = 2.81646 3.13362 2.97926
# Velocity P-wave (km/s) = 5.59947 5.83227 5.71705
#
# Compressibility (1/GPa) = 0.02463782
#
# Stress axis : x y z
#
# Youngs Moduli (GPa) = 55.46683 55.46683 87.69718
#
# Poissons Ratio (x) = 0.38528 0.19580
# Poissons Ratio (y) = 0.38528 0.19580
# Poissons Ratio (z) = 0.12384 0.12384
#
# Static dielectric constant tensor:
#      x y z
#    x 3.393070 0.000000 0.000000 
#    y 0.000000 3.393070 0.000000 
#    z 0.000000 0.000000 3.789480 
# 
# 
# High freq. dielectric constant tensor:
#      x y z
#    x 1.742390 0.000000 0.000000 
#    y 0.000000 1.742390 0.000000 
#    z 0.000000 0.000000 1.770120 
# 
# From -- ./inp_files/12300.got.cif
#   From: 2010.03.12/outbox.cif.g09.slc.cpg/sg194_7_cif.got.tgz:12300.got - 2010.04.01 12:26:19.
