data_PCOD8330099
_publ_section_title
;
Structure prediction by ZEFSAII (Michael W. Deem and Ramdas Pophale) SiO2 
 PCOD8330099
Probable space group: P 63/M C M
;
_chemical_formula_sum "Si O2"
_cell_formula_units_Z 116
_cell_length_a 14.505275
_cell_length_b 14.505275
_cell_length_c 32.564913
_cell_angle_alpha 90.000000
_cell_angle_beta 90.000000
_cell_angle_gamma 120.000000
_cell_volume 5933.794308
_symmetry_space_group_name_H-M "P 63/M C M"
_symmetry_group_IT_number 193
_symmetry_cell_setting 'hexagonal'
loop_
_space_group_symop_operation_xyz
x,y,z
x-y,x,1/2+z
-y,x-y,z
-x,-y,1/2+z
-x+y,-x,z
y,-x+y,1/2+z
x-y,-y,1/2-z
-x,-x+y,1/2-z
y,x,1/2-z
-y,-x,-z
-x+y,y,-z
x,x-y,-z
-x,-y,-z
-x+y,-x,1/2-z
y,-x+y,-z
x,y,1/2-z
x-y,x,-z
-y,x-y,1/2-z
-x+y,y,1/2+z
x,x-y,1/2+z
-y,-x,1/2+z
y,x,z
x-y,-y,z
-x,-x+y,z
loop_
_atom_site_type_symbol
_atom_site_label
_atom_site_fract_x
_atom_site_fract_y
_atom_site_fract_z
Si Si1 0.558717 0.435735 0.146416
Si Si2 0.666668 0.333334 0.199644
Si Si3 0.879131 0.298715 0.074687
Si Si4 0.734929 0.469857 0.000000
Si Si5 0.880129 0.758363 0.795433
Si Si6 0.118117 0.768738 0.128249
O O1 0.511492 0.511492 0.162930
O O2 0.615783 0.404628 0.182577
O O3 0.638507 0.489913 0.108538
O O4 0.465959 0.332001 0.124645
O O5 0.666667 0.333334 0.250000
O O6 0.790560 0.247699 0.039163
O O7 0.864259 0.194509 0.098141
O O8 0.000000 0.368593 0.057670
O O9 0.605937 0.394064 0.000000
O O10 0.864403 0.709618 0.750000
O O11 0.851633 0.851633 0.796613
O O12 0.805425 0.660787 0.824505
O O13 0.000000 0.807901 0.810759
O O14 0.000000 0.741177 0.116406
#
# Coordination Sequence:
#
# PCOD8330099 Si02
#       6
#    24   8  24  12  24  24
#     4  10  22  40  63  86 120 162 207 252 300 365
#     4  12  24  39  66  91 125 172 210 255 315 366
#     4  11  22  39  63  89 118 154 196 246 303 362
#     4  10  24  38  61  88 119 150 188 248 292 362
#     4   9  17  30  50  77 109 146 190 239 287 335
#     4  10  20  35  58  83 112 152 191 238 296 353
#
# _framework density 19.549043999999999
#
# number of rings (size 3 to 8) (size 9 to 14) (size 15 to 20)
#    0.207    1.655    2.069    2.069    0.000    3.310 
#    0.000    2.069    0.000    0.414    0.000    0.724 
#    0.000    0.000    0.000    0.000    0.000    0.000 
#
# Total GULP energy -1437161.061378 kJ/mol
# GULP energy per Si atom -12389.319495 kJ/mol
# Density = 1.950455 g / cm^3
# Si number density = 19.549044 Si / 1000 Ang^3
#
#
#
# Elastic Constant Matrix: (Units=GPa)
#
#
# Indices 1 2 3 4 5 6 
#
# 1 84.7328 42.1991 57.1826 0.0000 0.0000 0.0000
# 2 42.1991 84.7327 57.1828 0.0000 0.0000 0.0000
# 3 57.1826 57.1828 116.1137 0.0000 0.0000 0.0001
# 4 0.0000 0.0000 0.0000 25.0847 0.0000 0.0000
# 5 0.0000 0.0000 0.0000 0.0000 25.0848 0.0000
# 6 0.0000 0.0000 0.0001 0.0000 0.0000 21.2669
#
#
#
# Elastic Compliance Matrix: (Units=1/GPa)
#
#
# Indices 1 2 3 4 5 6 
#
# 1 0.018836 -0.004674 -0.006974 0.000000 0.000000 0.000000
# 2 -0.004674 0.018837 -0.006975 0.000000 0.000000 0.000000
# 3 -0.006974 -0.006975 0.015482 0.000000 0.000000 0.000000
# 4 0.000000 0.000000 0.000000 0.039865 0.000000 0.000000
# 5 0.000000 0.000000 0.000000 0.000000 0.039865 0.000000
# 6 0.000000 0.000000 0.000000 0.000000 0.000000 0.047021
#
#
# Mechanical properties :
#
#
# Convention : Reuss Voigt Hill
#
# Bulk Modulus (GPa) = 62.86056 66.52315 64.69186
# Shear Modulus (GPa) = 22.47643 22.88827 22.68235
#
# Velocity S-wave (km/s) = 3.39447 3.42543 3.40998
# Velocity P-wave (km/s) = 6.89843 7.05319 6.97624
#
# Compressibility (1/GPa) = 0.01590823
#
# Stress axis : x y z
#
# Youngs Moduli (GPa) = 53.08850 53.08821 64.59214
#
# Poissons Ratio (x) = 0.24815 0.45050
# Poissons Ratio (y) = 0.24815 0.45050
# Poissons Ratio (z) = 0.37026 0.37027
#
# Static dielectric constant tensor:
#      x y z
#    x 3.669800 0.000000 0.000000 
#    y 0.000000 3.669810 0.000000 
#    z 0.000000 0.000000 3.435920 
# 
# 
# High freq. dielectric constant tensor:
#      x y z
#    x 1.761770 0.000000 0.000000 
#    y 0.000000 1.761770 0.000000 
#    z 0.000000 0.000000 1.744430 
# 
# From -- ./inp_files/8985.got.cif
#   From: 2010.03.12/outbox.cif.g09.slc.cpg/sg193_5_cif.got.tgz:8985.got - 2010.04.01 12:20:39.
