data_PCOD8330493
_publ_section_title
;
Structure prediction by ZEFSAII (Michael W. Deem and Ramdas Pophale) SiO2 
 PCOD8330493
Probable space group: P 63/M M C
;
_chemical_formula_sum "Si O2"
_cell_formula_units_Z 144
_cell_length_a 21.322713
_cell_length_b 21.322713
_cell_length_c 22.223089
_cell_angle_alpha 90.000000
_cell_angle_beta 90.000000
_cell_angle_gamma 120.000000
_cell_volume 8750.240305
_symmetry_space_group_name_H-M "P 63/M M C"
_symmetry_group_IT_number 194
_symmetry_cell_setting 'hexagonal'
loop_
_space_group_symop_operation_xyz
x,y,z
x-y,x,1/2+z
-y,x-y,z
-x,-y,1/2+z
-x+y,-x,z
y,-x+y,1/2+z
x-y,-y,-z
-x,-x+y,-z
y,x,-z
-y,-x,1/2-z
-x+y,y,1/2-z
x,x-y,1/2-z
-x,-y,-z
-x+y,-x,1/2-z
y,-x+y,-z
x,y,1/2-z
x-y,x,-z
-y,x-y,1/2-z
-x+y,y,z
x,x-y,z
-y,-x,z
y,x,1/2+z
x-y,-y,1/2+z
-x,-x+y,1/2+z
loop_
_atom_site_type_symbol
_atom_site_label
_atom_site_fract_x
_atom_site_fract_y
_atom_site_fract_z
Si Si1 0.638202 0.746326 0.514730
Si Si2 0.743807 0.627618 0.684261
Si Si3 0.012121 0.273588 0.404096
Si Si4 0.147409 0.147342 0.680899
Si Si5 0.666620 0.188832 0.513679
Si Si6 0.470657 0.665845 0.344442
O O1 0.628181 0.814091 0.520089
O O2 0.695471 0.760906 0.461518
O O3 0.673109 0.739079 0.576859
O O4 0.556151 0.678013 0.507900
O O5 0.760630 0.663285 0.750000
O O6 0.819599 0.639197 0.655618
O O7 0.707562 0.663057 0.644836
O O8 0.686349 0.543587 0.690269
O O9 0.007288 0.203817 0.371082
O O10 0.173671 0.174622 0.750000
O O11 0.133774 0.066887 0.673116
O O12 0.072882 0.145763 0.667734
O O13 0.589815 0.179629 0.490140
O O14 0.732678 0.267323 0.492489
O O15 0.665759 0.183505 0.584873
O O16 0.443711 0.721856 0.328422
O O17 0.412022 0.587979 0.320057
#
# Coordination Sequence:
#
# PCOD8330493 Si02
#       6
#    24  24  24  24  24  24
#     4  10  20  33  49  69  96 124 155 196 234 276
#     4  10  19  31  47  65  88 121 160 197 228 267
#     4  11  20  32  49  69  92 126 160 187 228 282
#     4  10  20  34  53  75  97 120 152 197 243 283
#     4   9  16  29  49  72  96 123 156 197 240 279
#     4   9  16  27  44  66  92 121 154 192 232 272
#
# _framework density 16.456690999999999
#
# number of rings (size 3 to 8) (size 9 to 14) (size 15 to 20)
#    0.000    2.167    1.667    3.000    0.000    3.667 
#    0.000    2.500    0.000    1.000    0.000    5.833 
#    0.000    0.000    0.000    1.500    0.000   19.667 
#
# Total GULP energy -1783916.217128 kJ/mol
# GULP energy per Si atom -12388.307063 kJ/mol
# Density = 1.641923 g / cm^3
# Si number density = 16.456691 Si / 1000 Ang^3
#
#
#
# Elastic Constant Matrix: (Units=GPa)
#
#
# Indices 1 2 3 4 5 6 
#
# 1 89.4170 44.1832 40.6806 0.0000 0.0000 0.0000
# 2 44.1832 89.4170 40.6806 0.0000 0.0000 0.0000
# 3 40.6806 40.6806 61.9701 0.0000 0.0000 0.0000
# 4 0.0000 0.0000 0.0000 7.2366 0.0000 0.0000
# 5 0.0000 0.0000 0.0000 0.0000 7.2366 0.0000
# 6 0.0000 0.0000 0.0000 0.0000 0.0000 22.6169
#
#
#
# Elastic Compliance Matrix: (Units=1/GPa)
#
#
# Indices 1 2 3 4 5 6 
#
# 1 0.017289 -0.004818 -0.008186 0.000000 0.000000 0.000000
# 2 -0.004818 0.017289 -0.008186 0.000000 0.000000 0.000000
# 3 -0.008186 -0.008186 0.026885 0.000000 0.000000 0.000000
# 4 0.000000 0.000000 0.000000 0.138186 0.000000 0.000000
# 5 0.000000 0.000000 0.000000 0.000000 0.138186 0.000000
# 6 0.000000 0.000000 0.000000 0.000000 0.000000 0.044215
#
#
# Mechanical properties :
#
#
# Convention : Reuss Voigt Hill
#
# Bulk Modulus (GPa) = 52.40984 54.65476 53.53230
# Shear Modulus (GPa) = 11.60654 15.10200 13.35427
#
# Velocity S-wave (km/s) = 2.65859 3.03261 2.85174
# Velocity P-wave (km/s) = 6.42965 6.74875 6.59113
#
# Compressibility (1/GPa) = 0.01908039
#
# Stress axis : x y z
#
# Youngs Moduli (GPa) = 57.84071 57.84071 37.19602
#
# Poissons Ratio (x) = 0.27871 0.30450
# Poissons Ratio (y) = 0.27871 0.30450
# Poissons Ratio (z) = 0.47350 0.47350
#
# Static dielectric constant tensor:
#      x y z
#    x 3.238400 0.000000 0.000000 
#    y 0.000000 3.238400 0.000000 
#    z 0.000000 0.000000 3.062000 
# 
# 
# High freq. dielectric constant tensor:
#      x y z
#    x 1.629370 0.000000 0.000000 
#    y 0.000000 1.629370 0.000000 
#    z 0.000000 0.000000 1.616170 
# 
# From -- ./inp_files/8189.got.cif
#   From: 2010.03.12/outbox.cif.g09.slc.cpg/sg194_5_cif.got.tgz:8189.got - 2010.04.01 12:26:19.
