data_PCOD8330193
_publ_section_title
;
Structure prediction by ZEFSAII (Michael W. Deem and Ramdas Pophale) SiO2 
 PCOD8330193
Probable space group: P 63/M C M
;
_chemical_formula_sum "Si O2"
_cell_formula_units_Z 144
_cell_length_a 30.946471
_cell_length_b 30.946471
_cell_length_c 8.812911
_cell_angle_alpha 90.000000
_cell_angle_beta 90.000000
_cell_angle_gamma 120.000000
_cell_volume 7309.240943
_symmetry_space_group_name_H-M "P 63/M C M"
_symmetry_group_IT_number 193
_symmetry_cell_setting 'hexagonal'
loop_
_space_group_symop_operation_xyz
x,y,z
x-y,x,1/2+z
-y,x-y,z
-x,-y,1/2+z
-x+y,-x,z
y,-x+y,1/2+z
x-y,-y,1/2-z
-x,-x+y,1/2-z
y,x,1/2-z
-y,-x,-z
-x+y,y,-z
x,x-y,-z
-x,-y,-z
-x+y,-x,1/2-z
y,-x+y,-z
x,y,1/2-z
x-y,x,-z
-y,x-y,1/2-z
-x+y,y,1/2+z
x,x-y,1/2+z
-y,-x,1/2+z
y,x,z
x-y,-y,z
-x,-x+y,z
loop_
_atom_site_type_symbol
_atom_site_label
_atom_site_fract_x
_atom_site_fract_y
_atom_site_fract_z
Si Si1 0.387011 0.239096 0.075053
Si Si2 0.486061 0.338049 0.427021
Si Si3 0.482337 0.057046 0.072422
Si Si4 0.756687 0.056568 0.928195
Si Si5 0.798022 0.853762 0.071051
Si Si6 0.574823 0.241758 0.430930
O O1 0.375223 0.228002 0.250000
O O2 0.443849 0.281134 0.044995
O O3 0.375668 0.187834 0.000000
O O4 0.351227 0.258225 0.010505
O O5 0.499480 0.349096 0.250000
O O6 0.465407 0.372998 0.490678
O O7 0.535043 0.349262 0.520031
O O8 0.490524 0.069136 0.250000
O O9 0.439602 0.000000 0.042898
O O10 0.534129 0.068257 0.000000
O O11 0.756492 0.064706 0.750000
O O12 0.811406 0.068353 0.982511
O O13 0.715926 0.000000 0.971872
O O14 0.798639 0.858318 0.250000
O O15 0.838328 0.838328 0.017554
O O16 0.813307 0.906654 0.000000
O O17 0.628396 0.256791 0.500000
O O18 0.557641 0.278821 0.500000
O O19 0.578035 0.246097 0.250000
#
# Coordination Sequence:
#
# PCOD8330193 Si02
#       6
#    24  24  24  24  24  24
#     4  11  24  39  57  81 112 150 190 232 277 329
#     4  11  24  41  60  85 117 154 194 237 285 335
#     4  10  21  38  61  88 117 151 191 236 287 340
#     4   9  19  36  57  81 111 145 181 226 278 330
#     4   9  18  32  50  75 105 136 174 220 269 321
#     4  12  25  43  66  92 121 152 189 233 283 339
#
# _framework density 19.701087999999999
#
# number of rings (size 3 to 8) (size 9 to 14) (size 15 to 20)
#    0.000    1.667    0.000    5.667    0.000    8.333 
#    0.000    5.000    0.000    0.167    0.000    0.000 
#    0.000    0.000    0.000    0.000    0.000    0.000 
#
# Total GULP energy -1786279.026705 kJ/mol
# GULP energy per Si atom -12404.715463 kJ/mol
# Density = 1.965625 g / cm^3
# Si number density = 19.701088 Si / 1000 Ang^3
#
#
#
# Elastic Constant Matrix: (Units=GPa)
#
#
# Indices 1 2 3 4 5 6 
#
# 1 101.9611 22.0191 49.6614 0.0000 0.0000 0.0000
# 2 22.0191 101.9611 49.6614 0.0000 0.0000 0.0000
# 3 49.6614 49.6614 116.9813 0.0000 0.0000 0.0000
# 4 0.0000 0.0000 0.0000 35.7517 0.0000 0.0000
# 5 0.0000 0.0000 0.0000 0.0000 35.7517 0.0000
# 6 0.0000 0.0000 0.0000 0.0000 0.0000 39.9710
#
#
#
# Elastic Compliance Matrix: (Units=1/GPa)
#
#
# Indices 1 2 3 4 5 6 
#
# 1 0.012366 -0.000143 -0.005189 0.000000 0.000000 0.000000
# 2 -0.000143 0.012366 -0.005189 0.000000 0.000000 0.000000
# 3 -0.005189 -0.005189 0.012954 0.000000 0.000000 0.000000
# 4 0.000000 0.000000 0.000000 0.027971 0.000000 0.000000
# 5 0.000000 0.000000 0.000000 0.000000 0.027971 0.000000
# 6 0.000000 0.000000 0.000000 0.000000 0.000000 0.025018
#
#
# Mechanical properties :
#
#
# Convention : Reuss Voigt Hill
#
# Bulk Modulus (GPa) = 60.08173 62.62080 61.35127
# Shear Modulus (GPa) = 34.42697 35.59897 35.01297
#
# Velocity S-wave (km/s) = 4.18480 4.25544 4.22027
# Velocity P-wave (km/s) = 7.34255 7.48328 7.41325
#
# Compressibility (1/GPa) = 0.01664399
#
# Stress axis : x y z
#
# Youngs Moduli (GPa) = 80.86772 80.86772 77.19658
#
# Poissons Ratio (x) = 0.01158 0.40056
# Poissons Ratio (y) = 0.01158 0.40056
# Poissons Ratio (z) = 0.41961 0.41961
#
# Static dielectric constant tensor:
#      x y z
#    x 3.278810 0.000000 0.000000 
#    y 0.000000 3.278810 0.000000 
#    z 0.000000 0.000000 3.582480 
# 
# 
# High freq. dielectric constant tensor:
#      x y z
#    x 1.770410 0.000000 0.000000 
#    y 0.000000 1.770410 0.000000 
#    z 0.000000 0.000000 1.773920 
# 
# From -- ./inp_files/1518.got.cif
#   From: 2010.03.12/outbox.cif.g09.slc.cpg/sg193_1_cif.got.tgz:1518.got - 2010.04.01 12:20:39.
