data_PCOD8330769
_publ_section_title
;
Structure prediction by ZEFSAII (Michael W. Deem and Ramdas Pophale) SiO2 
 PCOD8330769
Probable space group: P 63/M M C
;
_chemical_formula_sum "Si O2"
_cell_formula_units_Z 168
_cell_length_a 17.158703
_cell_length_b 17.158703
_cell_length_c 35.043683
_cell_angle_alpha 90.000000
_cell_angle_beta 90.000000
_cell_angle_gamma 120.000000
_cell_volume 8935.303099
_symmetry_space_group_name_H-M "P 63/M M C"
_symmetry_group_IT_number 194
_symmetry_cell_setting 'hexagonal'
loop_
_space_group_symop_operation_xyz
x,y,z
x-y,x,1/2+z
-y,x-y,z
-x,-y,1/2+z
-x+y,-x,z
y,-x+y,1/2+z
x-y,-y,-z
-x,-x+y,-z
y,x,-z
-y,-x,1/2-z
-x+y,y,1/2-z
x,x-y,1/2-z
-x,-y,-z
-x+y,-x,1/2-z
y,-x+y,-z
x,y,1/2-z
x-y,x,-z
-y,x-y,1/2-z
-x+y,y,z
x,x-y,z
-y,-x,z
y,x,1/2+z
x-y,-y,1/2+z
-x,-x+y,1/2+z
loop_
_atom_site_type_symbol
_atom_site_label
_atom_site_fract_x
_atom_site_fract_y
_atom_site_fract_z
Si Si1 0.607254 0.577628 0.292185
Si Si2 0.150706 0.482599 0.495296
Si Si3 0.667274 0.149119 0.361653
Si Si4 0.848053 0.517116 0.830119
Si Si5 0.722435 0.629854 0.434389
Si Si6 0.331841 0.841510 0.086743
Si Si7 0.177669 0.000637 0.544909
O O1 0.651740 0.597945 0.250000
O O2 0.516184 0.483817 0.292496
O O3 0.674185 0.571824 0.322738
O O4 0.583752 0.655113 0.302560
O O5 0.250820 0.501640 0.503826
O O6 0.153849 0.576925 0.496751
O O7 0.082475 0.417737 0.527557
O O8 0.117157 0.435061 0.452976
O O9 0.577390 0.154780 0.363607
O O10 0.750836 0.249165 0.363586
O O11 0.666106 0.088184 0.396984
O O12 0.756853 0.513705 0.816310
O O13 0.831623 0.415812 0.829533
O O14 0.877267 0.561036 0.872891
O O15 0.813718 0.627435 0.436418
O O16 0.748213 0.733978 0.433023
O O17 0.433167 0.866334 0.086361
O O18 0.266193 0.733807 0.085598
O O19 0.076544 0.923457 0.555040
O O20 0.194248 0.000000 0.500000
O O21 0.191160 0.095580 0.558878
#
# Coordination Sequence:
#
# PCOD8330769 Si02
#       7
#    24  24  24  24  24  24  24
#     4   9  19  35  52  71  99 131 163 211 272 319
#     4   9  15  24  40  64  98 139 180 215 249 294
#     4  10  20  36  58  80 103 132 169 210 255 313
#     4   9  16  28  47  72 101 136 177 216 252 294
#     4   9  18  31  47  72 106 136 162 204 258 304
#     4   8  13  21  36  60  91 129 173 217 251 283
#     4   9  17  32  54  77  99 130 173 220 263 303
#
# _framework density 18.801824
#
# number of rings (size 3 to 8) (size 9 to 14) (size 15 to 20)
#    0.000    3.000    0.000    1.143    0.000    3.429 
#    2.571    2.143    0.000    2.571    0.000    0.000 
#    0.000    0.000    0.000    3.857    0.000    2.143 
#
# Total GULP energy -2081546.639132 kJ/mol
# GULP energy per Si atom -12390.158566 kJ/mol
# Density = 1.875903 g / cm^3
# Si number density = 18.801824 Si / 1000 Ang^3
#
#
#
# Elastic Constant Matrix: (Units=GPa)
#
#
# Indices 1 2 3 4 5 6 
#
# 1 60.3977 26.2592 28.1182 0.0000 0.0000 0.0000
# 2 26.2592 60.3977 28.1182 0.0000 0.0000 0.0000
# 3 28.1182 28.1182 115.5650 0.0000 0.0000 0.0000
# 4 0.0000 0.0000 0.0000 22.5099 0.0000 0.0000
# 5 0.0000 0.0000 0.0000 0.0000 22.5099 0.0000
# 6 0.0000 0.0000 0.0000 0.0000 0.0000 17.0692
#
#
#
# Elastic Compliance Matrix: (Units=1/GPa)
#
#
# Indices 1 2 3 4 5 6 
#
# 1 0.021498 -0.007795 -0.003334 0.000000 0.000000 0.000000
# 2 -0.007795 0.021498 -0.003334 0.000000 0.000000 0.000000
# 3 -0.003334 -0.003334 0.010276 0.000000 0.000000 0.000000
# 4 0.000000 0.000000 0.000000 0.044425 0.000000 0.000000
# 5 0.000000 0.000000 0.000000 0.000000 0.044425 0.000000
# 6 0.000000 0.000000 0.000000 0.000000 0.000000 0.058585
#
#
# Mechanical properties :
#
#
# Convention : Reuss Voigt Hill
#
# Bulk Modulus (GPa) = 41.07481 44.59462 42.83471
# Shear Modulus (GPa) = 21.03071 22.67546 21.85309
#
# Velocity S-wave (km/s) = 3.34810 3.47655 3.41293
# Velocity P-wave (km/s) = 6.06959 6.31545 6.19374
#
# Compressibility (1/GPa) = 0.02434582
#
# Stress axis : x y z
#
# Youngs Moduli (GPa) = 46.51593 46.51593 97.31763
#
# Poissons Ratio (x) = 0.36257 0.32448
# Poissons Ratio (y) = 0.36257 0.32448
# Poissons Ratio (z) = 0.15509 0.15509
#
# Static dielectric constant tensor:
#      x y z
#    x 3.292140 0.000000 0.000000 
#    y 0.000000 3.292140 0.000000 
#    z 0.000000 0.000000 3.823670 
# 
# 
# High freq. dielectric constant tensor:
#      x y z
#    x 1.713480 0.000000 0.000000 
#    y 0.000000 1.713480 0.000000 
#    z 0.000000 0.000000 1.722200 
# 
# From -- ./inp_files/12252.got.cif
#   From: 2010.03.12/outbox.cif.g09.slc.cpg/sg194_7_cif.got.tgz:12252.got - 2010.04.01 12:26:19.
