data_PCOD8330400
_publ_section_title
;
Structure prediction by ZEFSAII (Michael W. Deem and Ramdas Pophale) SiO2 
 PCOD8330400
Probable space group: P 63/M M C
;
_chemical_formula_sum "Si O2"
_cell_formula_units_Z 60
_cell_length_a 20.913541
_cell_length_b 20.913541
_cell_length_c 8.654723
_cell_angle_alpha 90.000000
_cell_angle_beta 90.000000
_cell_angle_gamma 120.000000
_cell_volume 3278.226438
_symmetry_space_group_name_H-M "P 63/M M C"
_symmetry_group_IT_number 194
_symmetry_cell_setting 'hexagonal'
loop_
_space_group_symop_operation_xyz
x,y,z
x-y,x,1/2+z
-y,x-y,z
-x,-y,1/2+z
-x+y,-x,z
y,-x+y,1/2+z
x-y,-y,-z
-x,-x+y,-z
y,x,-z
-y,-x,1/2-z
-x+y,y,1/2-z
x,x-y,1/2-z
-x,-y,-z
-x+y,-x,1/2-z
y,-x+y,-z
x,y,1/2-z
x-y,x,-z
-y,x-y,1/2-z
-x+y,y,z
x,x-y,z
-y,-x,z
y,x,1/2+z
x-y,-y,1/2+z
-x,-x+y,1/2+z
loop_
_atom_site_type_symbol
_atom_site_label
_atom_site_fract_x
_atom_site_fract_y
_atom_site_fract_z
Si Si1 0.676209 0.838105 0.930311
Si Si2 0.082142 0.541071 0.067213
Si Si3 0.918397 0.836794 0.567795
Si Si4 0.331798 0.412247 0.931479
O O1 0.697688 0.848844 0.750000
O O2 0.626569 0.873298 0.976604
O O3 0.750501 0.875251 0.028837
O O4 0.081886 0.540943 0.250000
O O5 0.120304 0.625241 0.004761
O O6 0.000000 0.500000 0.000000
O O7 0.874592 0.874592 0.500000
O O8 0.923759 0.847518 0.750000
O O9 0.344892 0.419503 0.750000
O O10 0.361594 0.361594 0.000000
#
# Coordination Sequence:
#
# PCOD8330400 Si02
#       4
#    12  12  12  24
#     4  10  22  37  55  81 111 142 179 223 274 326
#     4  10  18  30  50  75 100 129 164 202 246 298
#     4  12  25  41  60  80 108 145 190 239 289 342
#     4  10  19  33  52  76 105 136 171 212 258 311
#
# _framework density 18.302578
#
# number of rings (size 3 to 8) (size 9 to 14) (size 15 to 20)
#    0.000    1.600    0.000    8.600    0.000    6.400 
#    0.000    0.000    0.000    0.800    0.000    2.800 
#    0.000    0.000    0.000    0.000    0.000    0.000 
#
# Total GULP energy -743950.004095 kJ/mol
# GULP energy per Si atom -12399.166735 kJ/mol
# Density = 1.826092 g / cm^3
# Si number density = 18.302578 Si / 1000 Ang^3
#
#
#
# Elastic Constant Matrix: (Units=GPa)
#
#
# Indices 1 2 3 4 5 6 
#
# 1 119.0938 99.6591 69.2500 0.0000 0.0000 0.0000
# 2 99.6591 119.0938 69.2500 0.0000 0.0000 0.0000
# 3 69.2500 69.2500 141.8035 0.0000 0.0000 0.0000
# 4 0.0000 0.0000 0.0000 13.5893 0.0000 0.0000
# 5 0.0000 0.0000 0.0000 0.0000 13.5893 0.0000
# 6 0.0000 0.0000 0.0000 0.0000 0.0000 9.7174
#
#
#
# Elastic Compliance Matrix: (Units=1/GPa)
#
#
# Indices 1 2 3 4 5 6 
#
# 1 0.029036 -0.022418 -0.003232 0.000000 0.000000 0.000000
# 2 -0.022418 0.029036 -0.003232 0.000000 0.000000 0.000000
# 3 -0.003232 -0.003232 0.010208 0.000000 0.000000 0.000000
# 4 0.000000 0.000000 0.000000 0.073587 0.000000 0.000000
# 5 0.000000 0.000000 0.000000 0.000000 0.073587 0.000000
# 6 0.000000 0.000000 0.000000 0.000000 0.000000 0.102909
#
#
# Mechanical properties :
#
#
# Convention : Reuss Voigt Hill
#
# Bulk Modulus (GPa) = 95.08704 95.14549 95.11627
# Shear Modulus (GPa) = 13.17062 16.83464 15.00263
#
# Velocity S-wave (km/s) = 2.68546 3.03610 2.86615
# Velocity P-wave (km/s) = 7.85374 8.02422 7.93944
#
# Compressibility (1/GPa) = 0.01051668
#
# Stress axis : x y z
#
# Youngs Moduli (GPa) = 34.44015 34.44015 97.95887
#
# Poissons Ratio (x) = 0.77209 0.31657
# Poissons Ratio (y) = 0.77209 0.31657
# Poissons Ratio (z) = 0.11130 0.11130
#
# Static dielectric constant tensor:
#      x y z
#    x 3.694340 0.000000 0.000000 
#    y 0.000000 3.694340 0.000000 
#    z 0.000000 0.000000 3.506890 
# 
# 
# High freq. dielectric constant tensor:
#      x y z
#    x 1.704990 0.000000 0.000000 
#    y 0.000000 1.704990 0.000000 
#    z 0.000000 0.000000 1.726800 
# 
# From -- ./inp_files/813.got.cif
#   From: 2010.03.12/outbox.cif.g09.slc.cpg/sg194_1_cif.got.tgz:813.got - 2010.04.01 12:26:19.
