data_PCOD8330992
_publ_section_title
;
Structure prediction by ZEFSAII (Michael W. Deem and Ramdas Pophale) SiO2 
 PCOD8330992
Probable space group: P 42 3 2
;
_chemical_formula_sum "Si O2"
_cell_formula_units_Z 48
_cell_length_a 13.530447
_cell_length_b 13.530447
_cell_length_c 13.530447
_cell_angle_alpha 90.000000
_cell_angle_beta 90.000000
_cell_angle_gamma 90.000000
_cell_volume 2477.059470
_symmetry_space_group_name_H-M "P 42 3 2"
_symmetry_group_IT_number 208
_symmetry_cell_setting 'cubic'
loop_
_space_group_symop_operation_xyz
x,y,z
1/2-y,1/2+x,1/2+z
-x,-y,z
1/2+y,1/2-x,1/2+z
1/2+x,1/2-z,1/2+y
x,-y,-z
1/2+x,1/2+z,1/2-y
1/2+z,1/2+y,1/2-x
-x,y,-z
1/2-z,1/2+y,1/2+x
z,x,y
y,z,x
-y,-z,x
z,-x,-y
-y,z,-x
-z,-x,y
-z,x,-y
y,-z,-x
1/2+y,1/2+x,1/2-z
1/2-y,1/2-x,1/2-z
1/2-x,1/2+z,1/2+y
1/2-x,1/2-z,1/2-y
1/2+z,1/2-y,1/2+x
1/2-z,1/2-y,1/2-x
loop_
_atom_site_type_symbol
_atom_site_label
_atom_site_fract_x
_atom_site_fract_y
_atom_site_fract_z
Si Si1 0.000000 0.000000 0.000000
Si Si2 0.182559 0.817443 0.182559
Si Si3 0.750000 0.500000 0.000000
Si Si4 0.387256 0.496640 0.810651
Si Si5 0.364366 0.635636 0.635635
O O1 0.067494 0.067494 0.067494
O O2 0.250000 0.750000 0.250000
O O3 0.103351 0.874424 0.248615
O O4 0.682536 0.501742 0.904299
O O5 0.500000 0.500000 0.847154
O O6 0.360005 0.591941 0.745467
#
# Coordination Sequence:
#
# PCOD8330992 Si02
#       5
#     2   8   6  24   8
#     4  12  16  40  76 110 112 148 220 316 332 346
#     4  12  22  44  73  99 133 182 226 286 359 403
#     4  12  30  44  60  98 156 188 210 260 364 462
#     4  12  24  44  71 102 132 177 233 286 342 407
#     4  12  21  38  77 102 122 161 234 298 329 376
#
# _framework density 19.377817
#
# number of rings (size 3 to 8) (size 9 to 14) (size 15 to 20)
#    0.000    0.000   10.000    0.750    0.000    2.000 
#    0.000    0.000    0.000    0.000    0.000    0.000 
#    0.000    0.000    0.000    0.000    0.000    0.000 
#
# Total GULP energy -595538.216327 kJ/mol
# GULP energy per Si atom -12407.046173 kJ/mol
# Density = 1.933371 g / cm^3
# Si number density = 19.377817 Si / 1000 Ang^3
#
#
#
# Elastic Constant Matrix: (Units=GPa)
#
#
# Indices 1 2 3 4 5 6 
#
# 1 138.6877 74.6559 74.6550 0.0000 0.0000 0.0000
# 2 74.6559 138.6877 74.6550 0.0000 0.0000 0.0000
# 3 74.6550 74.6550 138.6878 0.0000 0.0000 0.0000
# 4 0.0000 0.0000 0.0000 65.1774 0.0000 0.0000
# 5 0.0000 0.0000 0.0000 0.0000 65.1774 0.0000
# 6 0.0000 0.0000 0.0000 0.0000 0.0000 64.7176
#
#
#
# Elastic Compliance Matrix: (Units=1/GPa)
#
#
# Indices 1 2 3 4 5 6 
#
# 1 0.011569 -0.004048 -0.004048 0.000000 0.000000 0.000000
# 2 -0.004048 0.011569 -0.004048 0.000000 0.000000 0.000000
# 3 -0.004048 -0.004048 0.011569 0.000000 0.000000 0.000000
# 4 0.000000 0.000000 0.000000 0.015343 0.000000 0.000000
# 5 0.000000 0.000000 0.000000 0.000000 0.015343 0.000000
# 6 0.000000 0.000000 0.000000 0.000000 0.000000 0.015452
#
#
# Mechanical properties :
#
#
# Convention : Reuss Voigt Hill
#
# Bulk Modulus (GPa) = 95.99942 95.99942 95.99942
# Shear Modulus (GPa) = 46.03818 51.82098 48.92958
#
# Velocity S-wave (km/s) = 4.87953 5.17692 5.03042
# Velocity P-wave (km/s) = 9.02191 9.24026 9.13174
#
# Compressibility (1/GPa) = 0.01041673
#
# Stress axis : x y z
#
# Youngs Moduli (GPa) = 86.43910 86.43910 86.44007
#
# Poissons Ratio (x) = 0.34994 0.34993
# Poissons Ratio (y) = 0.34994 0.34993
# Poissons Ratio (z) = 0.34992 0.34992
#
# Static dielectric constant tensor:
#      x y z
#    x 3.485800 0.000000 0.000000 
#    y 0.000000 3.485800 0.000000 
#    z 0.000000 0.000000 3.485710 
# 
# 
# High freq. dielectric constant tensor:
#      x y z
#    x 1.763240 0.000000 0.000000 
#    y 0.000000 1.763240 0.000000 
#    z 0.000000 0.000000 1.763240 
# 
# From -- ./inp_files/335.got.cif
#   From: 2010.03.12/outbox.cif.g09.slc.cpg/sg208_cif.got.tgz:335.got - 2010.03.30 09:03:42.
