data_PCOD8330994
_publ_section_title
;
Structure prediction by ZEFSAII (Michael W. Deem and Ramdas Pophale) SiO2 
 PCOD8330994
Probable space group: F 41 3 2
;
_chemical_formula_sum "Si O2"
_cell_formula_units_Z 544
_cell_length_a 28.866363
_cell_length_b 28.866363
_cell_length_c 28.866363
_cell_angle_alpha 90.000000
_cell_angle_beta 90.000000
_cell_angle_gamma 90.000000
_cell_volume 24053.385182
_symmetry_space_group_name_H-M "F 41 3 2"
_symmetry_group_IT_number 210
_symmetry_cell_setting 'cubic'
loop_
_space_group_symop_operation_xyz
x,y,z
1/4-y,1/4+x,1/4+z
-x,-y,z
1/4+y,1/4-x,1/4+z
1/4+x,1/4-z,1/4+y
x,-y,-z
1/4+x,1/4+z,1/4-y
1/4+z,1/4+y,1/4-x
-x,y,-z
1/4-z,1/4+y,1/4+x
z,x,y
y,z,x
-y,-z,x
z,-x,-y
-y,z,-x
-z,-x,y
-z,x,-y
y,-z,-x
1/4+y,1/4+x,1/4-z
1/4-y,1/4-x,1/4-z
1/4-x,1/4+z,1/4+y
1/4-x,1/4-z,1/4-y
1/4+z,1/4-y,1/4+x
1/4-z,1/4-y,1/4-x
x,1/2+y,1/2+z
1/4-y,3/4+x,3/4+z
-x,1/2-y,1/2+z
1/4+y,3/4-x,3/4+z
1/4+x,3/4-z,3/4+y
x,1/2-y,1/2-z
1/4+x,3/4+z,3/4-y
1/4+z,3/4+y,3/4-x
-x,1/2+y,1/2-z
1/4-z,3/4+y,3/4+x
z,1/2+x,1/2+y
y,1/2+z,1/2+x
-y,1/2-z,1/2+x
z,1/2-x,1/2-y
-y,1/2+z,1/2-x
-z,1/2-x,1/2+y
-z,1/2+x,1/2-y
y,1/2-z,1/2-x
1/4+y,3/4+x,3/4-z
1/4-y,3/4-x,3/4-z
1/4-x,3/4+z,3/4+y
1/4-x,3/4-z,3/4-y
1/4+z,3/4-y,3/4+x
1/4-z,3/4-y,3/4-x
1/2+x,y,1/2+z
3/4-y,1/4+x,3/4+z
1/2-x,-y,1/2+z
3/4+y,1/4-x,3/4+z
3/4+x,1/4-z,3/4+y
1/2+x,-y,1/2-z
3/4+x,1/4+z,3/4-y
3/4+z,1/4+y,3/4-x
1/2-x,y,1/2-z
3/4-z,1/4+y,3/4+x
1/2+z,x,1/2+y
1/2+y,z,1/2+x
1/2-y,-z,1/2+x
1/2+z,-x,1/2-y
1/2-y,z,1/2-x
1/2-z,-x,1/2+y
1/2-z,x,1/2-y
1/2+y,-z,1/2-x
3/4+y,1/4+x,3/4-z
3/4-y,1/4-x,3/4-z
3/4-x,1/4+z,3/4+y
3/4-x,1/4-z,3/4-y
3/4+z,1/4-y,3/4+x
3/4-z,1/4-y,3/4-x
1/2+x,1/2+y,z
3/4-y,3/4+x,1/4+z
1/2-x,1/2-y,z
3/4+y,3/4-x,1/4+z
3/4+x,3/4-z,1/4+y
1/2+x,1/2-y,-z
3/4+x,3/4+z,1/4-y
3/4+z,3/4+y,1/4-x
1/2-x,1/2+y,-z
3/4-z,3/4+y,1/4+x
1/2+z,1/2+x,y
1/2+y,1/2+z,x
1/2-y,1/2-z,x
1/2+z,1/2-x,-y
1/2-y,1/2+z,-x
1/2-z,1/2-x,y
1/2-z,1/2+x,-y
1/2+y,1/2-z,-x
3/4+y,3/4+x,1/4-z
3/4-y,3/4-x,1/4-z
3/4-x,3/4+z,1/4+y
3/4-x,3/4-z,1/4-y
3/4+z,3/4-y,1/4+x
3/4-z,3/4-y,1/4-x
loop_
_atom_site_type_symbol
_atom_site_label
_atom_site_fract_x
_atom_site_fract_y
_atom_site_fract_z
Si Si1 0.530358 0.833248 0.958468
Si Si2 0.748933 0.170362 0.892214
Si Si3 0.869578 0.745810 0.616053
Si Si4 0.604345 0.104345 0.895657
Si Si5 0.298722 0.520776 0.700484
Si Si6 0.588602 0.164918 0.528474
Si Si7 0.831153 0.331153 0.831153
O O1 0.582270 0.851354 0.965977
O O2 0.513255 0.851787 0.909700
O O3 0.524128 0.777741 0.959853
O O4 0.500000 0.854511 0.000000
O O5 0.733772 0.170256 0.946213
O O6 0.747714 0.118858 0.870575
O O7 0.799050 0.193784 0.886213
O O8 0.707833 0.195332 0.862559
O O9 0.846486 0.695943 0.623627
O O10 0.902840 0.740453 0.572966
O O11 0.636467 0.136467 0.863533
O O12 0.250405 0.546036 0.688658
O O13 0.625000 0.186231 0.563770
#
# Coordination Sequence:
#
# PCOD8330994 Si02
#       7
#    96  96  96  32  96  96  32
#     4  12  26  45  72 108 148 192 256 313 380 457
#     4  12  25  47  72 105 145 190 244 300 365 433
#     4  12  25  46  71 104 147 195 247 314 380 453
#     4  12  21  45  75 105 144 198 246 294 372 455
#     4  12  27  44  73 105 144 196 247 311 372 454
#     4  12  26  45  71 105 146 186 244 304 367 436
#     4  12  24  45  81 105 141 201 240 303 352 448
#
# _framework density 22.61636
#
# number of rings (size 3 to 8) (size 9 to 14) (size 15 to 20)
#    0.000    0.000    5.294    4.941    0.000    4.235 
#    0.000    1.765    0.000    0.000    0.000    0.000 
#    0.000    0.000    0.000    0.000    0.000    0.000 
#
# Total GULP energy -1686657.436728 kJ/mol
# GULP energy per Si atom -12401.892917 kJ/mol
# Density = 2.256488 g / cm^3
# Si number density = 22.616360 Si / 1000 Ang^3
#
#
#
# Elastic Constant Matrix: (Units=GPa)
#
#
# Indices 1 2 3 4 5 6 
#
# 1 92.9390 39.6864 39.6861 0.0000 0.0000 0.0000
# 2 39.6864 92.9390 39.6861 0.0000 0.0000 0.0000
# 3 39.6861 39.6861 92.9374 0.0000 0.0000 0.0000
# 4 0.0000 0.0000 0.0000 11.1123 0.0000 0.0000
# 5 0.0000 0.0000 0.0000 0.0000 11.1123 0.0000
# 6 0.0000 0.0000 0.0000 0.0000 0.0000 11.1772
#
#
#
# Elastic Compliance Matrix: (Units=1/GPa)
#
#
# Indices 1 2 3 4 5 6 
#
# 1 0.014453 -0.004325 -0.004325 0.000000 0.000000 0.000000
# 2 -0.004325 0.014453 -0.004325 0.000000 0.000000 0.000000
# 3 -0.004325 -0.004325 0.014454 0.000000 0.000000 0.000000
# 4 0.000000 0.000000 0.000000 0.089990 0.000000 0.000000
# 5 0.000000 0.000000 0.000000 0.000000 0.089991 0.000000
# 6 0.000000 0.000000 0.000000 0.000000 0.000000 0.089468
#
#
# Mechanical properties :
#
#
# Convention : Reuss Voigt Hill
#
# Bulk Modulus (GPa) = 57.43694 57.43694 57.43694
# Shear Modulus (GPa) = 14.51113 17.33081 15.92097
#
# Velocity S-wave (km/s) = 2.53577 2.77121 2.65610
# Velocity P-wave (km/s) = 5.83308 5.97418 5.90405
#
# Compressibility (1/GPa) = 0.01741040
#
# Stress axis : x y z
#
# Youngs Moduli (GPa) = 69.18772 69.18772 69.18654
#
# Poissons Ratio (x) = 0.29924 0.29923
# Poissons Ratio (y) = 0.29924 0.29923
# Poissons Ratio (z) = 0.29924 0.29924
#
# Static dielectric constant tensor:
#      x y z
#    x 4.170710 0.000000 0.000000 
#    y 0.000000 4.170710 0.000000 
#    z 0.000000 0.000000 4.170680 
# 
# 
# High freq. dielectric constant tensor:
#      x y z
#    x 1.899180 0.000000 0.000000 
#    y 0.000000 1.899180 0.000000 
#    z 0.000000 0.000000 1.899180 
# 
# From -- ./inp_files/725.got.cif
#   From: 2010.03.12/outbox.cif.g09.slc.cpg/sg210_cif.got.tgz:725.got - 2010.03.30 09:04:27.
