data_PCOD8330137
_publ_section_title
;
Structure prediction by ZEFSAII (Michael W. Deem and Ramdas Pophale) SiO2 
 PCOD8330137
Probable space group: P 63/M C M
;
_chemical_formula_sum "Si O2"
_cell_formula_units_Z 96
_cell_length_a 19.776386
_cell_length_b 19.776386
_cell_length_c 16.583801
_cell_angle_alpha 90.000000
_cell_angle_beta 90.000000
_cell_angle_gamma 120.000000
_cell_volume 5617.053621
_symmetry_space_group_name_H-M "P 63/M C M"
_symmetry_group_IT_number 193
_symmetry_cell_setting 'hexagonal'
loop_
_space_group_symop_operation_xyz
x,y,z
x-y,x,1/2+z
-y,x-y,z
-x,-y,1/2+z
-x+y,-x,z
y,-x+y,1/2+z
x-y,-y,1/2-z
-x,-x+y,1/2-z
y,x,1/2-z
-y,-x,-z
-x+y,y,-z
x,x-y,-z
-x,-y,-z
-x+y,-x,1/2-z
y,-x+y,-z
x,y,1/2-z
x-y,x,-z
-y,x-y,1/2-z
-x+y,y,1/2+z
x,x-y,1/2+z
-y,-x,1/2+z
y,x,z
x-y,-y,z
-x,-x+y,z
loop_
_atom_site_type_symbol
_atom_site_label
_atom_site_fract_x
_atom_site_fract_y
_atom_site_fract_z
Si Si1 0.720019 0.197720 0.923212
Si Si2 0.548986 0.463040 0.404906
Si Si3 0.912913 0.679083 0.009852
Si Si4 0.127049 0.423573 0.658567
O O1 0.633943 0.159995 0.884553
O O2 0.779437 0.244509 0.851552
O O3 0.742046 0.257955 0.000000
O O4 0.727083 0.124171 0.953630
O O5 0.542856 0.457145 0.500000
O O6 0.533582 0.533582 0.377211
O O7 0.483993 0.385496 0.362613
O O8 0.914588 0.652379 0.101525
O O9 0.000000 0.739959 0.981114
O O10 0.860098 0.720195 0.000000
O O11 0.103960 0.395235 0.750000
#
# Coordination Sequence:
#
# PCOD8330137 Si02
#       4
#    24  24  24  24
#     4   9  18  32  49  68  95 129 165 204 244 295
#     4  11  19  31  53  75  96 127 172 215 253 301
#     4   9  17  31  53  75  96 126 160 197 239 291
#     4  10  21  34  48  73 103 129 165 212 256 293
#
# _framework density 17.090810999999999
#
# number of rings (size 3 to 8) (size 9 to 14) (size 15 to 20)
#    0.000    2.750    5.000    1.500    0.000    3.000 
#    1.500    1.250    0.000   18.250    0.000    0.000 
#    0.000    0.000    0.000    0.750    0.000    0.000 
#
# Total GULP energy -1189325.232225 kJ/mol
# GULP energy per Si atom -12388.804502 kJ/mol
# Density = 1.705191 g / cm^3
# Si number density = 17.090811 Si / 1000 Ang^3
#
#
#
# Elastic Constant Matrix: (Units=GPa)
#
#
# Indices 1 2 3 4 5 6 
#
# 1 82.8553 34.2490 14.6038 0.0000 0.0000 0.0000
# 2 34.2490 82.8553 14.6038 0.0000 0.0000 0.0000
# 3 14.6038 14.6038 66.7687 0.0000 0.0000 0.0000
# 4 0.0000 0.0000 0.0000 -59.1430 0.0000 0.0000
# 5 0.0000 0.0000 0.0000 0.0000 -59.1430 0.0000
# 6 0.0000 0.0000 0.0000 0.0000 0.0000 24.3032
#
#
#
# Elastic Compliance Matrix: (Units=1/GPa)
#
#
# Indices 1 2 3 4 5 6 
#
# 1 0.014803 -0.005771 -0.001976 0.000000 0.000000 0.000000
# 2 -0.005771 0.014803 -0.001976 0.000000 0.000000 0.000000
# 3 -0.001976 -0.001976 0.015841 0.000000 0.000000 0.000000
# 4 0.000000 0.000000 0.000000 -0.016908 0.000000 0.000000
# 5 0.000000 0.000000 0.000000 0.000000 -0.016908 0.000000
# 6 0.000000 0.000000 0.000000 0.000000 0.000000 0.041147
#
#
# Mechanical properties :
#
#
# Convention : Reuss Voigt Hill
#
# Bulk Modulus (GPa) = 38.45648 39.93247 39.19448
# Shear Modulus (GPa) = 61.81342 -7.52838 27.14252
#
# Velocity S-wave (km/s) = 6.02048 -2.10107 3.98946
# Velocity P-wave (km/s) = 8.41893 4.18684 6.64861
#
# Compressibility (1/GPa) = 0.02600342
#
# Stress axis : x y z
#
# Youngs Moduli (GPa) = 67.55486 67.55486 63.12633
#
# Poissons Ratio (x) = 0.38984 0.12471
# Poissons Ratio (y) = 0.38984 0.12471
# Poissons Ratio (z) = 0.13346 0.13346
#
# Static dielectric constant tensor:
#      x y z
#    x 3.625590 0.000000 0.000000 
#    y 0.000000 3.625590 0.000000 
#    z 0.000000 0.000000 3.115370 
# 
# 
# High freq. dielectric constant tensor:
#      x y z
#    x 1.646050 0.000000 0.000000 
#    y 0.000000 1.646050 0.000000 
#    z 0.000000 0.000000 1.634310 
# 
# From -- ./inp_files/3568.got.cif
#   From: 2010.03.12/outbox.cif.g09.slc.cpg/sg193_2_cif.got.tgz:3568.got - 2010.04.01 12:20:39.
