data_PCOD8330535
_publ_section_title
;
Structure prediction by ZEFSAII (Michael W. Deem and Ramdas Pophale) SiO2 
 PCOD8330535
Probable space group: P 63/M M C
;
_chemical_formula_sum "Si O2"
_cell_formula_units_Z 144
_cell_length_a 21.534885
_cell_length_b 21.534885
_cell_length_c 21.355152
_cell_angle_alpha 90.000000
_cell_angle_beta 90.000000
_cell_angle_gamma 120.000000
_cell_volume 8576.664316
_symmetry_space_group_name_H-M "P 63/M M C"
_symmetry_group_IT_number 194
_symmetry_cell_setting 'hexagonal'
loop_
_space_group_symop_operation_xyz
x,y,z
x-y,x,1/2+z
-y,x-y,z
-x,-y,1/2+z
-x+y,-x,z
y,-x+y,1/2+z
x-y,-y,-z
-x,-x+y,-z
y,x,-z
-y,-x,1/2-z
-x+y,y,1/2-z
x,x-y,1/2-z
-x,-y,-z
-x+y,-x,1/2-z
y,-x+y,-z
x,y,1/2-z
x-y,x,-z
-y,x-y,1/2-z
-x+y,y,z
x,x-y,z
-y,-x,z
y,x,1/2+z
x-y,-y,1/2+z
-x,-x+y,1/2+z
loop_
_atom_site_type_symbol
_atom_site_label
_atom_site_fract_x
_atom_site_fract_y
_atom_site_fract_z
Si Si1 0.877546 0.267465 0.985667
Si Si2 0.859069 0.860994 0.250000
Si Si3 0.943735 0.400556 0.678832
Si Si4 0.332760 0.524088 0.403592
Si Si5 0.817042 0.780100 0.130124
Si Si6 0.985170 0.661219 0.404636
Si Si7 0.145066 0.000000 0.500000
O O1 0.818289 0.181712 0.992384
O O2 0.837516 0.309861 0.963821
O O3 0.940129 0.280017 0.937180
O O4 0.918512 0.304724 0.049610
O O5 0.891002 0.945501 0.250000
O O6 0.814576 0.829288 0.186006
O O7 0.921815 0.843629 0.250000
O O8 0.945428 0.377471 0.750000
O O9 0.967074 0.483537 0.673869
O O10 0.862888 0.350887 0.654144
O O11 0.001538 0.392275 0.637788
O O12 0.268109 0.536217 0.381754
O O13 0.400676 0.599324 0.423433
O O14 0.884465 0.768930 0.136552
O O15 0.745184 0.704655 0.139003
O O16 0.814898 0.809989 0.061474
O O17 0.134504 0.067252 0.507029
#
# Coordination Sequence:
#
# PCOD8330535 Si02
#       7
#    24  12  24  24  24  24  12
#     4   9  18  31  47  72  99 124 156 191 234 285
#     4  10  21  36  50  66  91 124 162 206 254 298
#     4   9  19  34  50  69  94 123 161 202 233 272
#     4   9  17  30  49  73 101 129 157 190 230 280
#     4  10  21  33  48  71  96 123 160 204 248 298
#     4  10  19  31  52  69  92 129 156 192 241 287
#     4  10  19  32  50  70  93 124 166 212 252 292
#
# _framework density 16.789743999999999
#
# number of rings (size 3 to 8) (size 9 to 14) (size 15 to 20)
#    0.000    2.500    0.000    2.333    1.167    3.667 
#    0.000    5.000    0.000    1.000    0.000    0.000 
#    0.000    0.000    0.000    0.000    0.000    0.833 
#
# Total GULP energy -1784921.780252 kJ/mol
# GULP energy per Si atom -12395.290141 kJ/mol
# Density = 1.675153 g / cm^3
# Si number density = 16.789744 Si / 1000 Ang^3
#
#
#
# Elastic Constant Matrix: (Units=GPa)
#
#
# Indices 1 2 3 4 5 6 
#
# 1 82.7339 37.9726 50.6543 0.0000 0.0000 0.0000
# 2 37.9726 82.7339 50.6543 0.0000 0.0000 0.0000
# 3 50.6543 50.6543 109.2036 0.0000 0.0000 0.0000
# 4 0.0000 0.0000 0.0000 18.9380 0.0000 0.0000
# 5 0.0000 0.0000 0.0000 0.0000 18.9380 0.0000
# 6 0.0000 0.0000 0.0000 0.0000 0.0000 22.3806
#
#
#
# Elastic Compliance Matrix: (Units=1/GPa)
#
#
# Indices 1 2 3 4 5 6 
#
# 1 0.017953 -0.004387 -0.006293 0.000000 0.000000 0.000000
# 2 -0.004387 0.017953 -0.006293 0.000000 0.000000 0.000000
# 3 -0.006293 -0.006293 0.014995 0.000000 0.000000 0.000000
# 4 0.000000 0.000000 0.000000 0.052804 0.000000 0.000000
# 5 0.000000 0.000000 0.000000 0.000000 0.052804 0.000000
# 6 0.000000 0.000000 0.000000 0.000000 0.000000 0.044681
#
#
# Mechanical properties :
#
#
# Convention : Reuss Voigt Hill
#
# Bulk Modulus (GPa) = 58.97492 61.47043 60.22267
# Shear Modulus (GPa) = 20.76516 21.07734 20.92125
#
# Velocity S-wave (km/s) = 3.52060 3.54696 3.53381
# Velocity P-wave (km/s) = 7.19222 7.31204 7.25238
#
# Compressibility (1/GPa) = 0.01695636
#
# Stress axis : x y z
#
# Youngs Moduli (GPa) = 55.70005 55.70005 66.68963
#
# Poissons Ratio (x) = 0.24438 0.41965
# Poissons Ratio (y) = 0.24438 0.41965
# Poissons Ratio (z) = 0.35050 0.35050
#
# Static dielectric constant tensor:
#      x y z
#    x 3.134950 0.000000 0.000000 
#    y 0.000000 3.134950 0.000000 
#    z 0.000000 0.000000 3.263010 
# 
# 
# High freq. dielectric constant tensor:
#      x y z
#    x 1.644260 0.000000 0.000000 
#    y 0.000000 1.644260 0.000000 
#    z 0.000000 0.000000 1.640570 
# 
# From -- ./inp_files/8326.got.cif
#   From: 2010.03.12/outbox.cif.g09.slc.cpg/sg194_5_cif.got.tgz:8326.got - 2010.04.01 12:26:19.
