data_PCOD8330596
_publ_section_title
;
Structure prediction by ZEFSAII (Michael W. Deem and Ramdas Pophale) SiO2 
 PCOD8330596
Probable space group: P 63/M M C
;
_chemical_formula_sum "Si O2"
_cell_formula_units_Z 168
_cell_length_a 17.724426
_cell_length_b 17.724426
_cell_length_c 33.321316
_cell_angle_alpha 90.000000
_cell_angle_beta 90.000000
_cell_angle_gamma 120.000000
_cell_volume 9065.612175
_symmetry_space_group_name_H-M "P 63/M M C"
_symmetry_group_IT_number 194
_symmetry_cell_setting 'hexagonal'
loop_
_space_group_symop_operation_xyz
x,y,z
x-y,x,1/2+z
-y,x-y,z
-x,-y,1/2+z
-x+y,-x,z
y,-x+y,1/2+z
x-y,-y,-z
-x,-x+y,-z
y,x,-z
-y,-x,1/2-z
-x+y,y,1/2-z
x,x-y,1/2-z
-x,-y,-z
-x+y,-x,1/2-z
y,-x+y,-z
x,y,1/2-z
x-y,x,-z
-y,x-y,1/2-z
-x+y,y,z
x,x-y,z
-y,-x,z
y,x,1/2+z
x-y,-y,1/2+z
-x,-x+y,1/2+z
loop_
_atom_site_type_symbol
_atom_site_label
_atom_site_fract_x
_atom_site_fract_y
_atom_site_fract_z
Si Si1 0.302791 0.867973 0.448089
Si Si2 0.956492 0.655909 0.083994
Si Si3 0.299183 0.062717 0.204566
Si Si4 0.978950 0.576419 0.162768
Si Si5 0.497179 0.665850 0.138915
Si Si6 0.833507 0.333619 0.466429
Si Si7 0.823065 0.997718 0.867295
O O1 0.200704 0.799297 0.451828
O O2 0.343467 0.850484 0.408548
O O3 0.352836 0.865550 0.487516
O O4 0.312451 0.961709 0.444784
O O5 0.949494 0.592147 0.119783
O O6 0.874276 0.592092 0.056886
O O7 0.962349 0.745062 0.099812
O O8 0.267563 0.033589 0.250000
O O9 0.323722 0.161861 0.196556
O O10 0.387781 0.059523 0.196874
O O11 0.219804 0.999042 0.175212
O O12 0.948119 0.474060 0.169069
O O13 0.083143 0.635383 0.165288
O O14 0.528793 0.764397 0.151639
O O15 0.395359 0.604642 0.148667
O O16 0.855685 0.427843 0.448136
O O17 0.729678 0.270323 0.465380
O O18 0.857446 0.928723 0.865869
O O19 0.905479 0.094522 0.876422
#
# Coordination Sequence:
#
# PCOD8330596 Si02
#       7
#    24  24  24  24  24  24  24
#     4   9  18  30  46  70  97 128 168 212 256 298
#     4  10  19  33  51  71  99 132 168 208 250 297
#     4   9  19  35  54  77 104 132 160 194 241 294
#     4   9  18  31  49  73  99 130 168 206 241 283
#     4   9  16  27  44  68  99 133 168 204 242 283
#     4  11  22  34  48  68  97 133 173 217 262 304
#     4  10  20  35  56  80 105 131 160 196 240 294
#
# _framework density 18.531568
#
# number of rings (size 3 to 8) (size 9 to 14) (size 15 to 20)
#    0.000    2.429    0.000    2.571    0.000    6.857 
#    0.000    1.429    0.000    1.143    0.000    0.000 
#    0.000    8.000    0.000    0.000    0.000    0.000 
#
# Total GULP energy -2081688.764896 kJ/mol
# GULP energy per Si atom -12391.004553 kJ/mol
# Density = 1.848939 g / cm^3
# Si number density = 18.531568 Si / 1000 Ang^3
#
#
#
# Elastic Constant Matrix: (Units=GPa)
#
#
# Indices 1 2 3 4 5 6 
#
# 1 85.5919 46.1069 31.7065 0.0000 0.0000 0.0000
# 2 46.1069 85.5919 31.7065 0.0000 0.0000 0.0000
# 3 31.7065 31.7065 55.7405 0.0000 0.0000 0.0000
# 4 0.0000 0.0000 0.0000 20.9676 0.0000 0.0000
# 5 0.0000 0.0000 0.0000 0.0000 20.9676 0.0000
# 6 0.0000 0.0000 0.0000 0.0000 0.0000 19.7425
#
#
#
# Elastic Compliance Matrix: (Units=1/GPa)
#
#
# Indices 1 2 3 4 5 6 
#
# 1 0.017892 -0.007434 -0.005948 0.000000 0.000000 0.000000
# 2 -0.007434 0.017892 -0.005948 0.000000 0.000000 0.000000
# 3 -0.005948 -0.005948 0.024707 0.000000 0.000000 0.000000
# 4 0.000000 0.000000 0.000000 0.047693 0.000000 0.000000
# 5 0.000000 0.000000 0.000000 0.000000 0.047693 0.000000
# 6 0.000000 0.000000 0.000000 0.000000 0.000000 0.050652
#
#
# Mechanical properties :
#
#
# Convention : Reuss Voigt Hill
#
# Bulk Modulus (GPa) = 45.81161 49.55158 47.68159
# Shear Modulus (GPa) = 19.80464 20.16251 19.98358
#
# Velocity S-wave (km/s) = 3.27264 3.30208 3.28739
# Velocity P-wave (km/s) = 6.24938 6.42926 6.33996
#
# Compressibility (1/GPa) = 0.02182853
#
# Stress axis : x y z
#
# Youngs Moduli (GPa) = 55.89208 55.89208 40.47386
#
# Poissons Ratio (x) = 0.41553 0.24075
# Poissons Ratio (y) = 0.41553 0.24075
# Poissons Ratio (z) = 0.33246 0.33246
#
# Static dielectric constant tensor:
#      x y z
#    x 3.368910 0.000000 0.000000 
#    y 0.000000 3.368910 0.000000 
#    z 0.000000 0.000000 3.240860 
# 
# 
# High freq. dielectric constant tensor:
#      x y z
#    x 1.716840 0.000000 0.000000 
#    y 0.000000 1.716840 0.000000 
#    z 0.000000 0.000000 1.694510 
# 
# From -- ./inp_files/12297.got.cif
#   From: 2010.03.12/outbox.cif.g09.slc.cpg/sg194_7_cif.got.tgz:12297.got - 2010.04.01 12:26:19.
