data_PCOD8330893
_publ_section_title
;
Structure prediction by ZEFSAII (Michael W. Deem and Ramdas Pophale) SiO2 
 PCOD8330893
Probable space group: P 21 3
;
_chemical_formula_sum "Si O2"
_cell_formula_units_Z 64
_cell_length_a 14.271002
_cell_length_b 14.271002
_cell_length_c 14.271002
_cell_angle_alpha 90.000000
_cell_angle_beta 90.000000
_cell_angle_gamma 90.000000
_cell_volume 2906.453646
_symmetry_space_group_name_H-M "P 21 3"
_symmetry_group_IT_number 198
_symmetry_cell_setting 'cubic'
loop_
_space_group_symop_operation_xyz
x,y,z
z,x,y
y,z,x
1/2-y,-z,1/2+x
1/2+z,1/2-x,-y
-y,1/2+z,1/2-x
1/2-z,-x,1/2+y
-z,1/2+x,1/2-y
1/2+y,1/2-z,-x
1/2-x,-y,1/2+z
1/2+x,1/2-y,-z
-x,1/2+y,1/2-z
loop_
_atom_site_type_symbol
_atom_site_label
_atom_site_fract_x
_atom_site_fract_y
_atom_site_fract_z
Si Si1 0.412320 0.412321 0.412320
Si Si2 0.214218 0.714219 0.785782
Si Si3 0.651945 0.151946 0.348056
Si Si4 0.089309 0.509980 0.320590
Si Si5 0.496063 0.824247 0.776481
Si Si6 0.522881 0.022882 0.477120
Si Si7 0.796404 0.921493 0.648741
Si Si8 0.651048 0.688578 0.388888
O O1 0.348627 0.348627 0.348627
O O2 0.516693 0.407266 0.372041
O O3 0.283996 0.648333 0.728491
O O4 0.609737 0.255539 0.345430
O O5 0.587396 0.087395 0.412606
O O6 0.036549 0.606962 0.302737
O O7 0.199943 0.525439 0.332324
O O8 0.065141 0.443123 0.231085
O O9 0.051295 0.461168 0.414867
O O10 0.582169 0.778433 0.832460
O O11 0.443492 0.743411 0.720446
O O12 0.424326 0.879965 0.845837
#
# Coordination Sequence:
#
# PCOD8330893 Si02
#       8
#     4   4   4  12  12   4  12  12
#     4  12  24  42  70 104 136 195 240 300 364 443
#     4   9  18  40  67  96 130 172 231 285 352 416
#     4  12  27  48  67 110 148 183 231 307 368 436
#     4  12  24  45  72 103 141 191 238 297 369 430
#     4  11  25  45  71 105 144 189 243 303 364 436
#     4  12  27  43  76 105 136 190 255 289 353 457
#     4  12  26  44  73 103 151 186 238 308 375 437
#     4  10  23  43  70  98 140 186 238 293 359 441
#
# _framework density 22.019964000000002
#
# number of rings (size 3 to 8) (size 9 to 14) (size 15 to 20)
#    0.000    0.750    3.750    3.750    2.625    1.500 
#    1.125    0.000    0.000    0.000    0.000    0.000 
#    0.000    0.000    0.000    0.000    0.000    0.000 
#
# Total GULP energy -793733.893951 kJ/mol
# GULP energy per Si atom -12402.092093 kJ/mol
# Density = 2.196985 g / cm^3
# Si number density = 22.019964 Si / 1000 Ang^3
#
#
#
# Elastic Constant Matrix: (Units=GPa)
#
#
# Indices 1 2 3 4 5 6 
#
# 1 98.4079 27.3116 27.3118 0.0000 0.0000 0.0000
# 2 27.3116 98.4066 27.3119 0.0000 0.0000 0.0000
# 3 27.3118 27.3119 98.4084 0.0000 0.0000 0.0000
# 4 0.0000 0.0000 0.0000 31.1422 0.0000 0.0000
# 5 0.0000 0.0000 0.0000 0.0000 31.1429 0.0000
# 6 0.0000 0.0000 0.0000 0.0000 0.0000 31.1423
#
#
#
# Elastic Compliance Matrix: (Units=1/GPa)
#
#
# Indices 1 2 3 4 5 6 
#
# 1 0.011555 -0.002510 -0.002510 0.000000 0.000000 0.000000
# 2 -0.002510 0.011555 -0.002510 0.000000 0.000000 0.000000
# 3 -0.002510 -0.002510 0.011555 0.000000 0.000000 0.000000
# 4 0.000000 0.000000 0.000000 0.032111 0.000000 0.000000
# 5 0.000000 0.000000 0.000000 0.000000 0.032110 0.000000
# 6 0.000000 0.000000 0.000000 0.000000 0.000000 0.032111
#
#
# Mechanical properties :
#
#
# Convention : Reuss Voigt Hill
#
# Bulk Modulus (GPa) = 51.01039 51.01039 51.01039
# Shear Modulus (GPa) = 32.76677 32.90464 32.83570
#
# Velocity S-wave (km/s) = 3.86171 3.86982 3.86577
# Velocity P-wave (km/s) = 6.56502 6.57139 6.56821
#
# Compressibility (1/GPa) = 0.01960385
#
# Stress axis : x y z
#
# Youngs Moduli (GPa) = 86.54130 86.54006 86.54166
#
# Poissons Ratio (x) = 0.21724 0.21724
# Poissons Ratio (y) = 0.21724 0.21725
# Poissons Ratio (z) = 0.21724 0.21724
#
# Static dielectric constant tensor:
#      x y z
#    x 4.063510 0.000000 0.000000 
#    y 0.000000 4.063510 0.000000 
#    z 0.000000 0.000000 4.063500 
# 
# 
# High freq. dielectric constant tensor:
#      x y z
#    x 1.869570 0.000000 0.000000 
#    y 0.000000 1.869570 0.000000 
#    z 0.000000 0.000000 1.869570 
# 
# From -- ./inp_files/374.got.cif
#   From: 2010.03.12/outbox.cif.g09.slc.cpg/sg198_cif.got.tgz:374.got - 2010.04.01 12:33:50.
