data_PCOD8330011
_publ_section_title
;
Structure prediction by ZEFSAII (Michael W. Deem and Ramdas Pophale) SiO2 
 PCOD8330011
Probable space group: P 63/M C M
;
_chemical_formula_sum "Si O2"
_cell_formula_units_Z 168
_cell_length_a 19.149143
_cell_length_b 19.149143
_cell_length_c 29.310656
_cell_angle_alpha 90.000000
_cell_angle_beta 90.000000
_cell_angle_gamma 120.000000
_cell_volume 9307.967428
_symmetry_space_group_name_H-M "P 63/M C M"
_symmetry_group_IT_number 193
_symmetry_cell_setting 'hexagonal'
loop_
_space_group_symop_operation_xyz
x,y,z
x-y,x,1/2+z
-y,x-y,z
-x,-y,1/2+z
-x+y,-x,z
y,-x+y,1/2+z
x-y,-y,1/2-z
-x,-x+y,1/2-z
y,x,1/2-z
-y,-x,-z
-x+y,y,-z
x,x-y,-z
-x,-y,-z
-x+y,-x,1/2-z
y,-x+y,-z
x,y,1/2-z
x-y,x,-z
-y,x-y,1/2-z
-x+y,y,1/2+z
x,x-y,1/2+z
-y,-x,1/2+z
y,x,z
x-y,-y,z
-x,-x+y,z
loop_
_atom_site_type_symbol
_atom_site_label
_atom_site_fract_x
_atom_site_fract_y
_atom_site_fract_z
Si Si1 0.856853 0.166139 0.552737
Si Si2 0.419371 0.323704 0.562083
Si Si3 0.904426 0.811815 0.870977
Si Si4 0.096069 0.540875 0.612323
Si Si5 0.209113 0.304703 0.199076
Si Si6 0.634761 0.096054 0.300746
Si Si7 0.565998 0.908298 0.038484
O O1 0.855908 0.144093 0.500000
O O2 0.768824 0.131486 0.575176
O O3 0.902587 0.127090 0.578838
O O4 0.903886 0.262204 0.558893
O O5 0.364503 0.364503 0.559472
O O6 0.489465 0.366884 0.600092
O O7 0.458415 0.327395 0.512040
O O8 0.877374 0.877374 0.860120
O O9 0.865919 0.736736 0.835531
O O10 0.000000 0.854455 0.867486
O O11 0.129600 0.533486 0.661887
O O12 0.133565 0.508713 0.573486
O O13 0.000000 0.486189 0.612535
O O14 0.174917 0.299637 0.250000
O O15 0.256624 0.256624 0.196259
O O16 0.271781 0.398193 0.186442
O O17 0.629419 0.127276 0.250000
O O18 0.586448 0.000000 0.300684
O O19 0.588463 0.000000 0.033584
#
# Coordination Sequence:
#
# PCOD8330011 Si02
#       7
#    24  24  24  24  24  24  24
#     4  10  20  33  48  65  89 124 164 203 245 300
#     4   9  17  28  42  63  90 118 148 183 227 281
#     4  11  22  34  48  66  90 123 167 220 275 324
#     4   9  15  24  42  67  92 113 135 171 218 266
#     4   8  15  29  48  69  92 116 146 191 245 295
#     4   8  13  22  39  65  93 117 141 171 213 268
#     4   9  16  27  45  67  87 111 149 194 235 275
#
# _framework density 18.049053000000001
#
# number of rings (size 3 to 8) (size 9 to 14) (size 15 to 20)
#    0.000    2.857    0.000    3.143    0.000    6.000 
#    0.000    0.000    0.000    3.143    0.000    4.000 
#    0.000    0.000    0.000    0.000    0.000    0.000 
#
# Total GULP energy -2082017.758418 kJ/mol
# GULP energy per Si atom -12392.962848 kJ/mol
# Density = 1.800797 g / cm^3
# Si number density = 18.049053 Si / 1000 Ang^3
#
#
#
# Elastic Constant Matrix: (Units=GPa)
#
#
# Indices 1 2 3 4 5 6 
#
# 1 57.2890 13.6843 37.7229 0.0000 0.0000 0.0000
# 2 13.6843 57.2890 37.7229 0.0000 0.0000 0.0000
# 3 37.7229 37.7229 101.8984 0.0000 0.0000 0.0000
# 4 0.0000 0.0000 0.0000 23.4448 0.0000 0.0000
# 5 0.0000 0.0000 0.0000 0.0000 23.4448 0.0000
# 6 0.0000 0.0000 0.0000 0.0000 0.0000 21.8024
#
#
#
# Elastic Compliance Matrix: (Units=1/GPa)
#
#
# Indices 1 2 3 4 5 6 
#
# 1 0.023083 0.000150 -0.008601 0.000000 0.000000 0.000000
# 2 0.000150 0.023083 -0.008601 0.000000 0.000000 0.000000
# 3 -0.008601 -0.008601 0.016182 0.000000 0.000000 0.000000
# 4 0.000000 0.000000 0.000000 0.042653 0.000000 0.000000
# 5 0.000000 0.000000 0.000000 0.000000 0.042653 0.000000
# 6 0.000000 0.000000 0.000000 0.000000 0.000000 0.045867
#
#
# Mechanical properties :
#
#
# Convention : Reuss Voigt Hill
#
# Bulk Modulus (GPa) = 35.40589 43.85962 39.63276
# Shear Modulus (GPa) = 21.09357 22.22815 21.66086
#
# Velocity S-wave (km/s) = 3.42231 3.51314 3.46802
# Velocity P-wave (km/s) = 5.93930 6.38821 6.16784
#
# Compressibility (1/GPa) = 0.02824389
#
# Stress axis : x y z
#
# Youngs Moduli (GPa) = 43.32209 43.32209 61.79823
#
# Poissons Ratio (x) = -0.00648 0.53151
# Poissons Ratio (y) = -0.00648 0.53151
# Poissons Ratio (z) = 0.37260 0.37260
#
# Static dielectric constant tensor:
#      x y z
#    x 3.101890 0.000000 0.000000 
#    y 0.000000 3.101890 0.000000 
#    z 0.000000 0.000000 3.639440 
# 
# 
# High freq. dielectric constant tensor:
#      x y z
#    x 1.664200 0.000000 0.000000 
#    y 0.000000 1.664200 0.000000 
#    z 0.000000 0.000000 1.705010 
# 
# From -- ./inp_files/9307.got.cif
#   From: 2010.03.12/outbox.cif.g09.slc.cpg/sg193_5_cif.got.tgz:9307.got - 2010.04.01 12:20:39.
