data_PCOD8330927
_publ_section_title
;
Structure prediction by ZEFSAII (Michael W. Deem and Ramdas Pophale) SiO2 
 PCOD8330927
Probable space group: P N 3
;
_chemical_formula_sum "Si O2"
_cell_formula_units_Z 92
_cell_length_a 16.830029
_cell_length_b 16.830029
_cell_length_c 16.830029
_cell_angle_alpha 90.000000
_cell_angle_beta 90.000000
_cell_angle_gamma 90.000000
_cell_volume 4767.103630
_symmetry_space_group_name_H-M "P N 3"
_symmetry_group_IT_number 201
_space_group.IT_coordinate_system_code '2'
_symmetry_cell_setting 'cubic'
loop_
_space_group_symop_operation_xyz
x,y,z
z,x,y
y,z,x
1/2-y,1/2-z,x
z,1/2-x,1/2-y
1/2-y,z,1/2-x
1/2-z,1/2-x,y
1/2-z,x,1/2-y
y,1/2-z,1/2-x
1/2-x,1/2-y,z
x,1/2-y,1/2-z
1/2-x,y,1/2-z
-x,-y,-z
-z,-x,-y
-y,-z,-x
1/2+y,1/2+z,-x
-z,1/2+x,1/2+y
1/2+y,-z,1/2+x
1/2+z,1/2+x,-y
1/2+z,-x,1/2+y
-y,1/2+z,1/2+x
1/2+x,1/2+y,-z
-x,1/2+y,1/2+z
1/2+x,-y,1/2+z
loop_
_atom_site_type_symbol
_atom_site_label
_atom_site_fract_x
_atom_site_fract_y
_atom_site_fract_z
Si Si1 0.250000 0.250000 0.883202
Si Si2 0.446107 0.446107 0.446107
Si Si3 0.766514 0.072718 0.445632
Si Si4 0.401793 0.573577 0.334559
Si Si5 0.174836 0.582705 0.705489
O O1 0.272940 0.171367 0.933378
O O2 0.325800 0.270332 0.830439
O O3 0.500000 0.500000 0.500000
O O4 0.386209 0.505288 0.400256
O O5 0.839486 0.124876 0.410045
O O6 0.736243 0.099432 0.532572
O O7 0.689724 0.079689 0.388616
O O8 0.789797 0.981499 0.450849
O O9 0.250000 0.543441 0.750000
#
# Coordination Sequence:
#
# PCOD8330927 Si02
#       5
#    12   8  24  24  24
#     4  12  25  38  60  94 130 175 208 265 316 386
#     4  12  21  39  66  93 123 159 216 294 336 369
#     4  12  23  40  60  96 129 175 209 266 320 394
#     4  12  22  38  64  92 131 163 219 268 333 380
#     4  12  24  37  62  91 136 170 209 252 320 392
#
# _framework density 19.298932000000001
#
# number of rings (size 3 to 8) (size 9 to 14) (size 15 to 20)
#    0.000    0.000    7.826    3.522    0.000    0.000 
#    0.000    0.000    0.000   19.826    0.000    0.000 
#    0.000    0.000    0.000    0.000    0.000    0.000 
#
# Total GULP energy -1140532.707562 kJ/mol
# GULP energy per Si atom -12397.094647 kJ/mol
# Density = 1.925501 g / cm^3
# Si number density = 19.298932 Si / 1000 Ang^3
#
#
#
# Elastic Constant Matrix: (Units=GPa)
#
#
# Indices 1 2 3 4 5 6 
#
# 1 106.5353 49.1346 49.1349 0.0000 0.0000 0.0000
# 2 49.1346 106.5356 49.1348 0.0000 0.0000 0.0000
# 3 49.1349 49.1348 106.5356 0.0000 0.0000 0.0000
# 4 0.0000 0.0000 0.0000 31.9190 0.0000 0.0000
# 5 0.0000 0.0000 0.0000 0.0000 31.9191 0.0000
# 6 0.0000 0.0000 0.0000 0.0000 0.0000 31.9189
#
#
#
# Elastic Compliance Matrix: (Units=1/GPa)
#
#
# Indices 1 2 3 4 5 6 
#
# 1 0.013242 -0.004180 -0.004180 0.000000 0.000000 0.000000
# 2 -0.004180 0.013242 -0.004180 0.000000 0.000000 0.000000
# 3 -0.004180 -0.004180 0.013242 0.000000 0.000000 0.000000
# 4 0.000000 0.000000 0.000000 0.031329 0.000000 0.000000
# 5 0.000000 0.000000 0.000000 0.000000 0.031329 0.000000
# 6 0.000000 0.000000 0.000000 0.000000 0.000000 0.031329
#
#
# Mechanical properties :
#
#
# Convention : Reuss Voigt Hill
#
# Bulk Modulus (GPa) = 68.26835 68.26835 68.26835
# Shear Modulus (GPa) = 30.54865 30.63156 30.59010
#
# Velocity S-wave (km/s) = 3.98291 3.98831 3.98561
# Velocity P-wave (km/s) = 7.52345 7.52727 7.52536
#
# Compressibility (1/GPa) = 0.01464808
#
# Stress axis : x y z
#
# Youngs Moduli (GPa) = 75.51822 75.51852 75.51831
#
# Poissons Ratio (x) = 0.31563 0.31564
# Poissons Ratio (y) = 0.31563 0.31563
# Poissons Ratio (z) = 0.31564 0.31563
#
# Static dielectric constant tensor:
#      x y z
#    x 3.454850 0.000000 0.000000 
#    y 0.000000 3.454840 0.000000 
#    z 0.000000 0.000000 3.454850 
# 
# 
# High freq. dielectric constant tensor:
#      x y z
#    x 1.744070 0.000000 0.000000 
#    y 0.000000 1.744070 0.000000 
#    z 0.000000 0.000000 1.744070 
# 
# From -- ./inp_files/511.got.cif
#   From: 2010.03.12/outbox.cif.g09.slc.cpg/sg201_cif.got.tgz:511.got - 2010.03.30 09:02:05.
