data_PCOD8330641
_publ_section_title
;
Structure prediction by ZEFSAII (Michael W. Deem and Ramdas Pophale) SiO2 
 PCOD8330641
Probable space group: P 63/M M C
;
_chemical_formula_sum "Si O2"
_cell_formula_units_Z 96
_cell_length_a 13.079389
_cell_length_b 13.079389
_cell_length_c 39.826559
_cell_angle_alpha 90.000000
_cell_angle_beta 90.000000
_cell_angle_gamma 120.000000
_cell_volume 5900.357551
_symmetry_space_group_name_H-M "P 63/M M C"
_symmetry_group_IT_number 194
_symmetry_cell_setting 'hexagonal'
loop_
_space_group_symop_operation_xyz
x,y,z
x-y,x,1/2+z
-y,x-y,z
-x,-y,1/2+z
-x+y,-x,z
y,-x+y,1/2+z
x-y,-y,-z
-x,-x+y,-z
y,x,-z
-y,-x,1/2-z
-x+y,y,1/2-z
x,x-y,1/2-z
-x,-y,-z
-x+y,-x,1/2-z
y,-x+y,-z
x,y,1/2-z
x-y,x,-z
-y,x-y,1/2-z
-x+y,y,z
x,x-y,z
-y,-x,z
y,x,1/2+z
x-y,-y,1/2+z
-x,-x+y,1/2+z
loop_
_atom_site_type_symbol
_atom_site_label
_atom_site_fract_x
_atom_site_fract_y
_atom_site_fract_z
Si Si1 0.568676 0.902507 0.602030
Si Si2 0.333514 0.432383 0.288600
Si Si3 0.333505 0.431658 0.525728
Si Si4 0.000093 0.760019 0.842860
O O1 0.457727 0.915453 0.613370
O O2 0.530926 0.765463 0.605694
O O3 0.606131 0.945772 0.563862
O O4 0.680725 0.985257 0.624785
O O5 0.337115 0.398978 0.250000
O O6 0.234959 0.469918 0.294313
O O7 0.458235 0.541766 0.299967
O O8 0.304626 0.317932 0.310245
O O9 0.343610 0.343610 0.500000
O O10 0.211159 0.422318 0.517402
O O11 0.434610 0.565391 0.519270
O O12 0.887076 0.774152 0.848965
O O13 0.112108 0.887893 0.836863
#
# Coordination Sequence:
#
# PCOD8330641 Si02
#       4
#    24  24  24  24
#     4   9  17  30  48  68  88 113 148 189 230 269
#     4   9  17  30  49  71  92 114 142 179 222 264
#     4   9  17  29  46  67  90 116 146 182 224 270
#     4  10  20  32  46  65  91 123 155 185 218 259
#
# _framework density 16.270201
#
# number of rings (size 3 to 8) (size 9 to 14) (size 15 to 20)
#    0.000    2.750    0.000    1.750    0.000    4.500 
#    0.000    0.000    0.000    2.750    0.000    0.000 
#    0.000    0.000    0.000    0.000    0.000    0.000 
#
# Total GULP energy -1190486.778357 kJ/mol
# GULP energy per Si atom -12400.903941 kJ/mol
# Density = 1.623317 g / cm^3
# Si number density = 16.270201 Si / 1000 Ang^3
#
#
#
# Elastic Constant Matrix: (Units=GPa)
#
#
# Indices 1 2 3 4 5 6 
#
# 1 114.2978 70.1635 69.2089 0.0000 0.0000 0.0000
# 2 70.1635 114.2978 69.2089 0.0000 0.0000 0.0000
# 3 69.2089 69.2089 100.6756 0.0000 0.0000 0.0000
# 4 0.0000 0.0000 0.0000 27.6293 0.0000 0.0000
# 5 0.0000 0.0000 0.0000 0.0000 27.6293 0.0000
# 6 0.0000 0.0000 0.0000 0.0000 0.0000 22.0671
#
#
#
# Elastic Compliance Matrix: (Units=1/GPa)
#
#
# Indices 1 2 3 4 5 6 
#
# 1 0.016928 -0.005730 -0.007698 0.000000 0.000000 0.000000
# 2 -0.005730 0.016928 -0.007698 0.000000 0.000000 0.000000
# 3 -0.007698 -0.007698 0.020516 0.000000 0.000000 0.000000
# 4 0.000000 0.000000 0.000000 0.036193 0.000000 0.000000
# 5 0.000000 0.000000 0.000000 0.000000 0.036193 0.000000
# 6 0.000000 0.000000 0.000000 0.000000 0.000000 0.045316
#
#
# Mechanical properties :
#
#
# Convention : Reuss Voigt Hill
#
# Bulk Modulus (GPa) = 82.50378 82.93706 82.72042
# Shear Modulus (GPa) = 22.89733 23.51115 23.20424
#
# Velocity S-wave (km/s) = 3.75549 3.80550 3.78058
# Velocity P-wave (km/s) = 8.34407 8.39015 8.36714
#
# Compressibility (1/GPa) = 0.01212066
#
# Stress axis : x y z
#
# Youngs Moduli (GPa) = 59.07460 59.07460 48.74198
#
# Poissons Ratio (x) = 0.33852 0.37519
# Poissons Ratio (y) = 0.33852 0.37519
# Poissons Ratio (z) = 0.45473 0.45473
#
# Static dielectric constant tensor:
#      x y z
#    x 3.010380 0.000000 0.000000 
#    y 0.000000 3.010380 0.000000 
#    z 0.000000 0.000000 3.181690 
# 
# 
# High freq. dielectric constant tensor:
#      x y z
#    x 1.622670 0.000000 0.000000 
#    y 0.000000 1.622670 0.000000 
#    z 0.000000 0.000000 1.630810 
# 
# From -- ./inp_files/10492.got.cif
#   From: 2010.03.12/outbox.cif.g09.slc.cpg/sg194_6_cif.got.tgz:10492.got - 2010.04.01 12:26:19.
