data_PCOD8330134
_publ_section_title
;
Structure prediction by ZEFSAII (Michael W. Deem and Ramdas Pophale) SiO2 
 PCOD8330134
Probable space group: P 63/M C M
;
_chemical_formula_sum "Si O2"
_cell_formula_units_Z 108
_cell_length_a 17.366925
_cell_length_b 17.366925
_cell_length_c 21.584193
_cell_angle_alpha 90.000000
_cell_angle_beta 90.000000
_cell_angle_gamma 120.000000
_cell_volume 5637.834267
_symmetry_space_group_name_H-M "P 63/M C M"
_symmetry_group_IT_number 193
_symmetry_cell_setting 'hexagonal'
loop_
_space_group_symop_operation_xyz
x,y,z
x-y,x,1/2+z
-y,x-y,z
-x,-y,1/2+z
-x+y,-x,z
y,-x+y,1/2+z
x-y,-y,1/2-z
-x,-x+y,1/2-z
y,x,1/2-z
-y,-x,-z
-x+y,y,-z
x,x-y,-z
-x,-y,-z
-x+y,-x,1/2-z
y,-x+y,-z
x,y,1/2-z
x-y,x,-z
-y,x-y,1/2-z
-x+y,y,1/2+z
x,x-y,1/2+z
-y,-x,1/2+z
y,x,z
x-y,-y,z
-x,-x+y,z
loop_
_atom_site_type_symbol
_atom_site_label
_atom_site_fract_x
_atom_site_fract_y
_atom_site_fract_z
Si Si1 0.829681 0.000000 0.922464
Si Si2 0.811435 0.497692 0.877565
Si Si3 0.660841 0.000000 0.907880
Si Si4 0.177721 0.177721 0.429987
Si Si5 0.710099 0.445845 0.250000
Si Si6 0.000000 0.350755 0.947141
Si Si7 0.531803 0.355044 0.059897
O O1 0.826003 0.909516 0.901276
O O2 0.748945 0.000000 0.886130
O O3 0.824902 0.000000 0.996270
O O4 0.912289 0.575070 0.884248
O O5 0.775306 0.507235 0.810973
O O6 0.749565 0.497898 0.934869
O O7 0.808449 0.403482 0.881252
O O8 0.664373 0.000000 0.980899
O O9 0.268513 0.268513 0.410811
O O10 0.604444 0.371522 0.250000
O O11 0.084101 0.443776 0.930395
O O12 0.590278 0.409723 0.000000
#
# Coordination Sequence:
#
# PCOD8330134 Si02
#       7
#    12  24  12  12  12  12  24
#     4   9  17  31  50  76 112 149 199 226 264 340
#     4  12  23  39  61  81 112 151 199 241 288 345
#     4  11  23  36  50  87 121 151 181 242 302 345
#     4   9  17  30  51  74 109 163 192 223 269 337
#     4  10  20  43  60  82 104 145 204 256 276 326
#     4  11  22  35  50  81 130 150 179 236 305 349
#     4  12  22  36  57  86 113 153 191 235 285 363
#
# _framework density 19.156293000000002
#
# number of rings (size 3 to 8) (size 9 to 14) (size 15 to 20)
#    0.222    0.889    4.444    3.667    0.000    3.111 
#    0.000    0.000    0.000    0.667    0.000    0.000 
#    0.000    2.667    0.000    0.111    0.000    0.111 
#
# Total GULP energy -1338353.933392 kJ/mol
# GULP energy per Si atom -12392.166050 kJ/mol
# Density = 1.911269 g / cm^3
# Si number density = 19.156293 Si / 1000 Ang^3
#
#
#
# Elastic Constant Matrix: (Units=GPa)
#
#
# Indices 1 2 3 4 5 6 
#
# 1 142.7608 51.3824 19.4452 0.0000 0.0000 0.0000
# 2 51.3824 142.7608 19.4452 0.0000 0.0000 0.0000
# 3 19.4452 19.4452 47.1983 0.0000 0.0000 0.0000
# 4 0.0000 0.0000 0.0000 12.8457 0.0000 0.0000
# 5 0.0000 0.0000 0.0000 0.0000 12.8457 0.0000
# 6 0.0000 0.0000 0.0000 0.0000 0.0000 45.6892
#
#
#
# Elastic Compliance Matrix: (Units=1/GPa)
#
#
# Indices 1 2 3 4 5 6 
#
# 1 0.008279 -0.002665 -0.002313 0.000000 0.000000 0.000000
# 2 -0.002665 0.008279 -0.002313 0.000000 0.000000 0.000000
# 3 -0.002313 -0.002313 0.023093 0.000000 0.000000 0.000000
# 4 0.000000 0.000000 0.000000 0.077847 0.000000 0.000000
# 5 0.000000 0.000000 0.000000 0.000000 0.077847 0.000000
# 6 0.000000 0.000000 0.000000 0.000000 0.000000 0.021887
#
#
# Mechanical properties :
#
#
# Convention : Reuss Voigt Hill
#
# Bulk Modulus (GPa) = 39.88915 57.02949 48.45932
# Shear Modulus (GPa) = 20.81867 30.43929 25.62898
#
# Velocity S-wave (km/s) = 3.30021 3.99055 3.66168
# Velocity P-wave (km/s) = 5.94895 7.14618 6.57487
#
# Compressibility (1/GPa) = 0.02506947
#
# Stress axis : x y z
#
# Youngs Moduli (GPa) = 120.78997 120.78997 43.30310
#
# Poissons Ratio (x) = 0.32186 0.10016
# Poissons Ratio (y) = 0.32186 0.10016
# Poissons Ratio (z) = 0.27938 0.27938
#
# Static dielectric constant tensor:
#      x y z
#    x 3.624180 0.000000 0.000000 
#    y 0.000000 3.624180 0.000000 
#    z 0.000000 0.000000 3.051900 
# 
# 
# High freq. dielectric constant tensor:
#      x y z
#    x 1.753460 0.000000 0.000000 
#    y 0.000000 1.753460 0.000000 
#    z 0.000000 0.000000 1.692770 
# 
# From -- ./inp_files/6375.got.cif
#   From: 2010.03.12/outbox.cif.g09.slc.cpg/sg193_4_cif.got.tgz:6375.got - 2010.04.01 12:20:39.
