data_PCOD8330954
_publ_section_title
;
Structure prediction by ZEFSAII (Michael W. Deem and Ramdas Pophale) SiO2 
 PCOD8330954
Probable space group: P A 3
;
_chemical_formula_sum "Si O2"
_cell_formula_units_Z 104
_cell_length_a 17.204371
_cell_length_b 17.204371
_cell_length_c 17.204371
_cell_angle_alpha 90.000000
_cell_angle_beta 90.000000
_cell_angle_gamma 90.000000
_cell_volume 5092.328336
_symmetry_space_group_name_H-M "P A 3"
_symmetry_group_IT_number 205
_symmetry_cell_setting 'cubic'
loop_
_space_group_symop_operation_xyz
x,y,z
z,x,y
y,z,x
1/2-y,-z,1/2+x
1/2+z,1/2-x,-y
-y,1/2+z,1/2-x
1/2-z,-x,1/2+y
-z,1/2+x,1/2-y
1/2+y,1/2-z,-x
1/2-x,-y,1/2+z
1/2+x,1/2-y,-z
-x,1/2+y,1/2-z
-x,-y,-z
-z,-x,-y
-y,-z,-x
1/2+y,z,1/2-x
1/2-z,1/2+x,y
y,1/2-z,1/2+x
1/2+z,x,1/2-y
z,1/2-x,1/2+y
1/2-y,1/2+z,x
1/2+x,y,1/2-z
1/2-x,1/2+y,z
x,1/2-y,1/2+z
loop_
_atom_site_type_symbol
_atom_site_label
_atom_site_fract_x
_atom_site_fract_y
_atom_site_fract_z
Si Si1 0.416135 0.916134 0.583867
Si Si2 0.901005 0.907426 0.577791
Si Si3 0.375690 0.085511 0.547378
Si Si4 0.308192 0.308193 0.308193
Si Si5 0.687696 0.187695 0.312306
Si Si6 0.256547 0.843752 0.148269
Si Si7 0.913514 0.413513 0.086488
O O1 0.417245 0.877843 0.499909
O O2 0.364072 0.864072 0.635930
O O3 0.892418 0.891584 0.487191
O O4 0.847654 0.842799 0.618571
O O5 0.881664 0.998051 0.594677
O O6 0.453572 0.129226 0.577672
O O7 0.297589 0.126017 0.578137
O O8 0.357484 0.231596 0.284514
O O9 0.360848 0.360848 0.360848
O O10 0.751505 0.135270 0.267620
#
# Coordination Sequence:
#
# PCOD8330954 Si02
#       7
#     8  24  24   8   8  24   8
#     4   9  20  41  66  91 125 160 222 254 329 384
#     4   9  20  40  68  97 123 166 218 260 318 390
#     4   9  20  42  68  94 124 169 217 269 318 388
#     4  10  25  46  55 100 134 172 217 265 319 391
#     4  10  25  40  55  91 134 175 196 268 319 391
#     4  10  22  40  59  93 135 159 218 257 326 374
#     4   9  20  47  69  94 131 169 222 263 317 390
#
# _framework density 20.422878000000001
#
# number of rings (size 3 to 8) (size 9 to 14) (size 15 to 20)
#    0.000    2.769    0.000    1.846    3.231    5.538 
#   24.923    0.000    0.000    0.000    0.000    0.000 
#    0.000    0.000    0.000    0.000    0.000    0.000 
#
# Total GULP energy -1288860.533406 kJ/mol
# GULP energy per Si atom -12392.889744 kJ/mol
# Density = 2.037639 g / cm^3
# Si number density = 20.422878 Si / 1000 Ang^3
#
#
#
# Elastic Constant Matrix: (Units=GPa)
#
#
# Indices 1 2 3 4 5 6 
#
# 1 94.3111 31.5774 31.5471 0.0000 0.0000 0.0000
# 2 31.5774 94.2314 31.5368 0.0000 0.0000 0.0000
# 3 31.5471 31.5368 94.2095 0.0000 0.0000 0.0000
# 4 0.0000 0.0000 0.0000 69.1341 0.0000 0.0000
# 5 0.0000 0.0000 0.0000 0.0000 69.0862 0.0000
# 6 0.0000 0.0000 0.0000 0.0000 0.0000 69.0601
#
#
#
# Elastic Compliance Matrix: (Units=1/GPa)
#
#
# Indices 1 2 3 4 5 6 
#
# 1 0.012744 -0.003201 -0.003196 0.000000 0.000000 0.000000
# 2 -0.003201 0.012755 -0.003198 0.000000 0.000000 0.000000
# 3 -0.003196 -0.003198 0.012755 0.000000 0.000000 0.000000
# 4 0.000000 0.000000 0.000000 0.014465 0.000000 0.000000
# 5 0.000000 0.000000 0.000000 0.000000 0.014475 0.000000
# 6 0.000000 0.000000 0.000000 0.000000 0.000000 0.014480
#
#
# Mechanical properties :
#
#
# Convention : Reuss Voigt Hill
#
# Bulk Modulus (GPa) = 52.45272 52.45274 52.45273
# Shear Modulus (GPa) = 46.63376 53.99546 50.31461
#
# Velocity S-wave (km/s) = 4.78369 5.14744 4.96889
# Velocity P-wave (km/s) = 7.50004 7.81455 7.65891
#
# Compressibility (1/GPa) = 0.01906479
#
# Stress axis : x y z
#
# Youngs Moduli (GPa) = 78.46833 78.40002 78.39853
#
# Poissons Ratio (x) = 0.25096 0.25056
# Poissons Ratio (y) = 0.25118 0.25071
# Poissons Ratio (z) = 0.25078 0.25072
#
# Static dielectric constant tensor:
#      x y z
#    x 3.689900 0.000000 0.000000 
#    y 0.000000 3.689830 0.000000 
#    z 0.000000 0.000000 3.689810 
# 
# 
# High freq. dielectric constant tensor:
#      x y z
#    x 1.796020 0.000000 0.000000 
#    y 0.000000 1.796020 0.000000 
#    z 0.000000 0.000000 1.796020 
# 
# From -- ./inp_files/451.got.cif
#   From: 2010.03.12/outbox.cif.g09.slc.cpg/sg205_cif.got.tgz:451.got - 2010.03.30 09:02:58.
