data_PCOD8330965
_publ_section_title
;
Structure prediction by ZEFSAII (Michael W. Deem and Ramdas Pophale) SiO2 
 PCOD8330965
Probable space group: I A 3
;
_chemical_formula_sum "Si O2"
_cell_formula_units_Z 280
_cell_length_a 23.900575
_cell_length_b 23.900575
_cell_length_c 23.900575
_cell_angle_alpha 90.000000
_cell_angle_beta 90.000000
_cell_angle_gamma 90.000000
_cell_volume 13652.904361
_symmetry_space_group_name_H-M "I A 3"
_symmetry_group_IT_number 206
_symmetry_cell_setting 'cubic'
loop_
_space_group_symop_operation_xyz
x,y,z
z,x,y
y,z,x
-y,1/2-z,x
z,-x,1/2-y
1/2-y,z,-x
-z,1/2-x,y
1/2-z,x,-y
y,-z,1/2-x
-x,1/2-y,z
x,-y,1/2-z
1/2-x,y,-z
-x,-y,-z
-z,-x,-y
-y,-z,-x
y,1/2+z,-x
-z,x,1/2+y
1/2+y,-z,x
z,1/2+x,-y
1/2+z,-x,y
-y,z,1/2+x
x,1/2+y,-z
-x,y,1/2+z
1/2+x,-y,z
1/2+x,1/2+y,1/2+z
1/2+z,1/2+x,1/2+y
1/2+y,1/2+z,1/2+x
1/2-y,-z,1/2+x
1/2+z,1/2-x,-y
-y,1/2+z,1/2-x
1/2-z,-x,1/2+y
-z,1/2+x,1/2-y
1/2+y,1/2-z,-x
1/2-x,-y,1/2+z
1/2+x,1/2-y,-z
-x,1/2+y,1/2-z
1/2-x,1/2-y,1/2-z
1/2-z,1/2-x,1/2-y
1/2-y,1/2-z,1/2-x
1/2+y,z,1/2-x
1/2-z,1/2+x,y
y,1/2-z,1/2+x
1/2+z,x,1/2-y
z,1/2-x,1/2+y
1/2-y,1/2+z,x
1/2+x,y,1/2-z
1/2-x,1/2+y,z
x,1/2-y,1/2+z
loop_
_atom_site_type_symbol
_atom_site_label
_atom_site_fract_x
_atom_site_fract_y
_atom_site_fract_z
Si Si1 0.789592 0.289591 0.210410
Si Si2 0.242326 0.083164 0.187688
Si Si3 0.000000 0.250000 0.159795
Si Si4 0.899755 0.859966 0.155986
Si Si5 0.086223 0.692412 0.411436
Si Si6 0.398249 0.492892 0.923497
Si Si7 0.438095 0.258356 0.144909
O O1 0.750000 0.250000 0.250000
O O2 0.852637 0.292215 0.234948
O O3 0.194635 0.044856 0.214226
O O4 0.248483 0.077009 0.119614
O O5 0.301267 0.055071 0.203263
O O6 0.028950 0.294953 0.119826
O O7 0.841017 0.867929 0.125250
O O8 0.951031 0.873305 0.115136
O O9 0.906440 0.795326 0.169967
O O10 0.901742 0.899079 0.211565
O O11 0.070820 0.653451 0.464329
O O12 0.457094 0.520405 0.906544
O O13 0.500000 0.250000 0.118706
#
# Coordination Sequence:
#
# PCOD8330965 Si02
#       7
#    16  48  24  48  48  48  48
#     4  12  27  42  66  99 138 183 235 278 337 432
#     4  11  24  41  66  92 135 175 217 270 334 402
#     4  12  24  44  64  90 136 174 208 264 332 390
#     4  10  23  39  66  93 134 163 224 273 335 395
#     4  10  24  43  61  95 125 168 217 268 321 400
#     4  10  21  44  67  93 127 165 220 282 330 393
#     4  11  23  38  63  99 128 174 215 273 338 396
#
# _framework density 20.508457
#
# number of rings (size 3 to 8) (size 9 to 14) (size 15 to 20)
#    0.000    1.371    2.571    3.257    7.200    0.000 
#   10.800    0.000    0.000    0.000    0.000    0.000 
#    0.000    0.000    0.000    0.000    0.000    0.000 
#
# Total GULP energy -1734944.032211 kJ/mol
# GULP energy per Si atom -12392.457373 kJ/mol
# Density = 2.046178 g / cm^3
# Si number density = 20.508457 Si / 1000 Ang^3
#
#
#
# Elastic Constant Matrix: (Units=GPa)
#
#
# Indices 1 2 3 4 5 6 
#
# 1 113.8794 46.4369 46.4369 0.0000 0.0000 0.0000
# 2 46.4369 113.8784 46.4366 0.0000 0.0000 0.0000
# 3 46.4369 46.4366 113.8779 0.0000 0.0000 0.0000
# 4 0.0000 0.0000 0.0000 31.8543 0.0000 0.0000
# 5 0.0000 0.0000 0.0000 0.0000 31.8541 0.0000
# 6 0.0000 0.0000 0.0000 0.0000 0.0000 31.8545
#
#
#
# Elastic Compliance Matrix: (Units=1/GPa)
#
#
# Indices 1 2 3 4 5 6 
#
# 1 0.011497 -0.003330 -0.003330 0.000000 0.000000 0.000000
# 2 -0.003330 0.011497 -0.003330 0.000000 0.000000 0.000000
# 3 -0.003330 -0.003330 0.011497 0.000000 0.000000 0.000000
# 4 0.000000 0.000000 0.000000 0.031393 0.000000 0.000000
# 5 0.000000 0.000000 0.000000 0.000000 0.031393 0.000000
# 6 0.000000 0.000000 0.000000 0.000000 0.000000 0.031393
#
#
# Mechanical properties :
#
#
# Convention : Reuss Voigt Hill
#
# Bulk Modulus (GPa) = 68.91739 68.91739 68.91739
# Shear Modulus (GPa) = 32.57559 32.60095 32.58827
#
# Velocity S-wave (km/s) = 3.98979 3.99135 3.99057
# Velocity P-wave (km/s) = 7.40958 7.41070 7.41014
#
# Compressibility (1/GPa) = 0.01451012
#
# Stress axis : x y z
#
# Youngs Moduli (GPa) = 86.97747 86.97681 86.97635
#
# Poissons Ratio (x) = 0.28966 0.28966
# Poissons Ratio (y) = 0.28966 0.28966
# Poissons Ratio (z) = 0.28966 0.28966
#
# Static dielectric constant tensor:
#      x y z
#    x 3.842650 0.000000 0.000000 
#    y 0.000000 3.842680 0.000000 
#    z 0.000000 0.000000 3.842690 
# 
# 
# High freq. dielectric constant tensor:
#      x y z
#    x 1.802250 0.000000 0.000000 
#    y 0.000000 1.802250 0.000000 
#    z 0.000000 0.000000 1.802250 
# 
# From -- ./inp_files/598.got.cif
#   From: 2010.03.12/outbox.cif.g09.slc.cpg/sg206_cif.got.tgz:598.got - 2010.03.30 09:03:11.
