data_PCOD8330150
_publ_section_title
;
Structure prediction by ZEFSAII (Michael W. Deem and Ramdas Pophale) SiO2 
 PCOD8330150
Probable space group: P 63/M C M
;
_chemical_formula_sum "Si O2"
_cell_formula_units_Z 104
_cell_length_a 21.753432
_cell_length_b 21.753432
_cell_length_c 14.086015
_cell_angle_alpha 90.000000
_cell_angle_beta 90.000000
_cell_angle_gamma 120.000000
_cell_volume 5772.638312
_symmetry_space_group_name_H-M "P 63/M C M"
_symmetry_group_IT_number 193
_symmetry_cell_setting 'hexagonal'
loop_
_space_group_symop_operation_xyz
x,y,z
x-y,x,1/2+z
-y,x-y,z
-x,-y,1/2+z
-x+y,-x,z
y,-x+y,1/2+z
x-y,-y,1/2-z
-x,-x+y,1/2-z
y,x,1/2-z
-y,-x,-z
-x+y,y,-z
x,x-y,-z
-x,-y,-z
-x+y,-x,1/2-z
y,-x+y,-z
x,y,1/2-z
x-y,x,-z
-y,x-y,1/2-z
-x+y,y,1/2+z
x,x-y,1/2+z
-y,-x,1/2+z
y,x,z
x-y,-y,z
-x,-x+y,z
loop_
_atom_site_type_symbol
_atom_site_label
_atom_site_fract_x
_atom_site_fract_y
_atom_site_fract_z
Si Si1 0.351409 0.351409 0.637689
Si Si2 0.537306 0.647989 0.643207
Si Si3 0.258501 0.871005 0.476080
Si Si4 0.485459 0.755789 0.857198
Si Si5 0.333334 0.666667 0.637600
Si Si6 0.491431 0.491431 0.860166
O O1 0.349408 0.349408 0.750000
O O2 0.278956 0.346443 0.600370
O O3 0.422073 0.422073 0.595900
O O4 0.567876 0.651508 0.750000
O O5 0.601741 0.695042 0.570821
O O6 0.487613 0.682646 0.643886
O O7 0.494866 0.565249 0.609592
O O8 0.173455 0.826546 0.500000
O O9 0.276450 0.814271 0.429735
O O10 0.499378 0.787855 0.750000
O O11 0.407546 0.732608 0.896885
O O12 0.333334 0.666668 0.750000
O O13 0.479177 0.479177 0.750000
#
# Coordination Sequence:
#
# PCOD8330150 Si02
#       6
#    12  24  24  24   8  12
#     4  11  23  37  58  80 105 137 172 219 274 318
#     4   9  18  33  48  65  92 129 167 221 280 326
#     4  10  21  36  51  77 102 133 175 223 271 330
#     4   9  18  32  48  67  95 128 170 223 286 345
#     4   9  18  30  46  62  86 128 169 222 286 350
#     4   9  19  33  51  72  95 127 174 223 269 322
#
# _framework density 18.016024999999999
#
# number of rings (size 3 to 8) (size 9 to 14) (size 15 to 20)
#    0.000    2.538    0.000    1.385    3.231    2.769 
#    4.154    3.462    0.000    0.000    0.000    0.000 
#    0.000    0.000    0.000    0.346    0.000    0.462 
#
# Total GULP energy -1288372.596145 kJ/mol
# GULP energy per Si atom -12388.198040 kJ/mol
# Density = 1.797502 g / cm^3
# Si number density = 18.016025 Si / 1000 Ang^3
#
#
#
# Elastic Constant Matrix: (Units=GPa)
#
#
# Indices 1 2 3 4 5 6 
#
# 1 77.1495 35.4858 27.7755 -0.0001 0.0000 0.0002
# 2 35.4858 77.1508 27.7751 0.0001 -0.0001 0.0002
# 3 27.7755 27.7751 87.6354 0.0000 0.0000 -0.0001
# 4 -0.0001 0.0001 0.0000 22.6813 0.0000 0.0000
# 5 0.0000 -0.0001 0.0000 0.0000 22.6811 0.0001
# 6 0.0002 0.0002 -0.0001 0.0000 0.0001 20.8325
#
#
#
# Elastic Compliance Matrix: (Units=1/GPa)
#
#
# Indices 1 2 3 4 5 6 
#
# 1 0.017262 -0.006739 -0.003335 0.000000 0.000000 0.000000
# 2 -0.006739 0.017262 -0.003335 0.000000 0.000000 0.000000
# 3 -0.003335 -0.003335 0.013525 0.000000 0.000000 0.000000
# 4 0.000000 0.000000 0.000000 0.044089 0.000000 0.000000
# 5 0.000000 0.000000 0.000000 0.000000 0.044090 0.000000
# 6 0.000000 0.000000 0.000000 0.000000 0.000000 0.048002
#
#
# Mechanical properties :
#
#
# Convention : Reuss Voigt Hill
#
# Bulk Modulus (GPa) = 47.10238 47.11206 47.10722
# Shear Modulus (GPa) = 22.92251 23.29891 23.11071
#
# Velocity S-wave (km/s) = 3.57086 3.60006 3.58549
# Velocity P-wave (km/s) = 6.57289 6.59450 6.58370
#
# Compressibility (1/GPa) = 0.02123035
#
# Stress axis : x y z
#
# Youngs Moduli (GPa) = 57.92937 57.93072 73.93693
#
# Poissons Ratio (x) = 0.39040 0.24660
# Poissons Ratio (y) = 0.39040 0.24658
# Poissons Ratio (z) = 0.19321 0.19320
#
# Static dielectric constant tensor:
#      x y z
#    x 3.263850 0.000000 0.000000 
#    y 0.000000 3.263850 0.000000 
#    z 0.000000 0.000000 3.643950 
# 
# 
# High freq. dielectric constant tensor:
#      x y z
#    x 1.657370 0.000000 0.000000 
#    y 0.000000 1.657370 0.000000 
#    z 0.000000 0.000000 1.722850 
# 
# From -- ./inp_files/3773.got.cif
#   From: 2010.03.12/outbox.cif.g09.slc.cpg/sg193_2_cif.got.tgz:3773.got - 2010.04.01 12:20:39.
