data_PCOD8330504
_publ_section_title
;
Structure prediction by ZEFSAII (Michael W. Deem and Ramdas Pophale) SiO2 
 PCOD8330504
Probable space group: P 63/M M C
;
_chemical_formula_sum "Si O2"
_cell_formula_units_Z 168
_cell_length_a 21.652004
_cell_length_b 21.652004
_cell_length_c 23.573553
_cell_angle_alpha 90.000000
_cell_angle_beta 90.000000
_cell_angle_gamma 120.000000
_cell_volume 9570.880047
_symmetry_space_group_name_H-M "P 63/M M C"
_symmetry_group_IT_number 194
_symmetry_cell_setting 'hexagonal'
loop_
_space_group_symop_operation_xyz
x,y,z
x-y,x,1/2+z
-y,x-y,z
-x,-y,1/2+z
-x+y,-x,z
y,-x+y,1/2+z
x-y,-y,-z
-x,-x+y,-z
y,x,-z
-y,-x,1/2-z
-x+y,y,1/2-z
x,x-y,1/2-z
-x,-y,-z
-x+y,-x,1/2-z
y,-x+y,-z
x,y,1/2-z
x-y,x,-z
-y,x-y,1/2-z
-x+y,y,z
x,x-y,z
-y,-x,z
y,x,1/2+z
x-y,-y,1/2+z
-x,-x+y,1/2+z
loop_
_atom_site_type_symbol
_atom_site_label
_atom_site_fract_x
_atom_site_fract_y
_atom_site_fract_z
Si Si1 0.721768 0.137698 0.814268
Si Si2 0.470696 0.388749 0.484608
Si Si3 0.476550 0.666198 0.087144
Si Si4 0.334286 0.802206 0.683263
Si Si5 0.273789 0.992755 0.683950
Si Si6 0.272189 0.399965 0.612062
Si Si7 0.136705 0.136520 0.683236
O O1 0.698098 0.140379 0.750000
O O2 0.805287 0.194714 0.823027
O O3 0.673233 0.155594 0.854370
O O4 0.709268 0.060016 0.828415
O O5 0.419799 0.419799 0.500000
O O6 0.546745 0.453256 0.461185
O O7 0.484416 0.353595 0.539138
O O8 0.427822 0.324979 0.440923
O O9 0.478218 0.739109 0.070565
O O10 0.395095 0.604906 0.095276
O O11 0.338244 0.806617 0.750000
O O12 0.410156 0.820312 0.657140
O O13 0.276944 0.723056 0.662549
O O14 0.312745 0.858291 0.662646
O O15 0.267024 0.967433 0.750000
O O16 0.258675 0.932269 0.638147
O O17 0.214561 0.013602 0.669039
O O18 0.197122 0.394243 0.595360
O O19 0.126463 0.127007 0.750000
O O20 0.074780 0.149561 0.657500
O O21 0.129914 0.064957 0.656087
#
# Coordination Sequence:
#
# PCOD8330504 Si02
#       7
#    24  24  24  24  24  24  24
#     4   9  18  33  53  76 102 133 167 200 236 284
#     4  10  21  37  55  72  93 125 165 208 253 301
#     4  10  20  35  55  78 103 130 163 206 256 306
#     4   9  17  29  45  65  91 124 160 196 234 278
#     4  10  19  31  47  69 100 136 169 201 240 288
#     4  11  21  32  48  71  98 126 159 201 248 295
#     4   9  16  26  42  65  94 128 165 203 243 289
#
# _framework density 17.553243999999999
#
# number of rings (size 3 to 8) (size 9 to 14) (size 15 to 20)
#    0.000    2.286    0.000    3.429    0.000    4.571 
#    0.000    0.714    0.000    7.143    0.000    0.000 
#    0.000    0.000    0.000    0.000    0.000   26.286 
#
# Total GULP energy -2082533.546703 kJ/mol
# GULP energy per Si atom -12396.033016 kJ/mol
# Density = 1.751329 g / cm^3
# Si number density = 17.553244 Si / 1000 Ang^3
#
#
#
# Elastic Constant Matrix: (Units=GPa)
#
#
# Indices 1 2 3 4 5 6 
#
# 1 111.5338 51.7414 44.6118 0.0000 0.0000 0.0000
# 2 51.7414 111.5338 44.6118 0.0000 0.0000 0.0000
# 3 44.6118 44.6118 60.8921 0.0000 0.0000 0.0000
# 4 0.0000 0.0000 0.0000 20.9522 0.0000 0.0000
# 5 0.0000 0.0000 0.0000 0.0000 20.9522 0.0000
# 6 0.0000 0.0000 0.0000 0.0000 0.0000 29.8962
#
#
#
# Elastic Compliance Matrix: (Units=1/GPa)
#
#
# Indices 1 2 3 4 5 6 
#
# 1 0.013469 -0.003255 -0.007483 0.000000 0.000000 0.000000
# 2 -0.003255 0.013469 -0.007483 0.000000 0.000000 0.000000
# 3 -0.007483 -0.007483 0.027387 0.000000 0.000000 0.000000
# 4 0.000000 0.000000 0.000000 0.047728 0.000000 0.000000
# 5 0.000000 0.000000 0.000000 0.000000 0.047728 0.000000
# 6 0.000000 0.000000 0.000000 0.000000 0.000000 0.033449
#
#
# Mechanical properties :
#
#
# Convention : Reuss Voigt Hill
#
# Bulk Modulus (GPa) = 55.91992 62.87666 59.39829
# Shear Modulus (GPa) = 22.15981 23.89309 23.02645
#
# Velocity S-wave (km/s) = 3.55693 3.69342 3.62582
# Velocity P-wave (km/s) = 6.98538 7.35437 7.17225
#
# Compressibility (1/GPa) = 0.01788272
#
# Stress axis : x y z
#
# Youngs Moduli (GPa) = 74.24361 74.24361 36.51346
#
# Poissons Ratio (x) = 0.24169 0.27323
# Poissons Ratio (y) = 0.24169 0.27323
# Poissons Ratio (z) = 0.55557 0.55557
#
# Static dielectric constant tensor:
#      x y z
#    x 3.387170 0.000000 0.000000 
#    y 0.000000 3.387170 0.000000 
#    z 0.000000 0.000000 3.061590 
# 
# 
# High freq. dielectric constant tensor:
#      x y z
#    x 1.688590 0.000000 0.000000 
#    y 0.000000 1.688590 0.000000 
#    z 0.000000 0.000000 1.648250 
# 
# From -- ./inp_files/9847.got.cif
#   From: 2010.03.12/outbox.cif.g09.slc.cpg/sg194_5_cif.got.tgz:9847.got - 2010.04.01 12:26:19.
