data_PCOD8330640
_publ_section_title
;
Structure prediction by ZEFSAII (Michael W. Deem and Ramdas Pophale) SiO2 
 PCOD8330640
Probable space group: P 63/M M C
;
_chemical_formula_sum "Si O2"
_cell_formula_units_Z 168
_cell_length_a 21.890769
_cell_length_b 21.890769
_cell_length_c 23.872985
_cell_angle_alpha 90.000000
_cell_angle_beta 90.000000
_cell_angle_gamma 120.000000
_cell_volume 9907.393057
_symmetry_space_group_name_H-M "P 63/M M C"
_symmetry_group_IT_number 194
_symmetry_cell_setting 'hexagonal'
loop_
_space_group_symop_operation_xyz
x,y,z
x-y,x,1/2+z
-y,x-y,z
-x,-y,1/2+z
-x+y,-x,z
y,-x+y,1/2+z
x-y,-y,-z
-x,-x+y,-z
y,x,-z
-y,-x,1/2-z
-x+y,y,1/2-z
x,x-y,1/2-z
-x,-y,-z
-x+y,-x,1/2-z
y,-x+y,-z
x,y,1/2-z
x-y,x,-z
-y,x-y,1/2-z
-x+y,y,z
x,x-y,z
-y,-x,z
y,x,1/2+z
x-y,-y,1/2+z
-x,-x+y,1/2+z
loop_
_atom_site_type_symbol
_atom_site_label
_atom_site_fract_x
_atom_site_fract_y
_atom_site_fract_z
Si Si1 0.273488 0.867043 0.312723
Si Si2 0.191690 0.525454 0.101710
Si Si3 0.279109 0.207456 0.523052
Si Si4 0.720057 0.989248 0.136494
Si Si5 0.808407 0.474465 0.027000
Si Si6 0.618263 0.878107 0.579413
Si Si7 0.141480 0.141517 0.684287
O O1 0.295998 0.858844 0.250000
O O2 0.192909 0.807092 0.324973
O O3 0.325687 0.862302 0.357520
O O4 0.279187 0.943469 0.315842
O O5 0.270490 0.540980 0.111862
O O6 0.189904 0.594952 0.118690
O O7 0.168169 0.504274 0.037441
O O8 0.213139 0.213139 0.500000
O O9 0.250503 0.125252 0.530860
O O10 0.306813 0.247232 0.581538
O O11 0.343437 0.243643 0.480260
O O12 0.798992 0.008250 0.151846
O O13 0.717750 0.060966 0.125699
O O14 0.728219 0.456438 0.034591
O O15 0.813545 0.406773 0.045130
O O16 0.860421 0.538389 0.067797
O O17 0.618470 0.809235 0.602591
O O18 0.155666 0.154991 0.750000
O O19 0.143299 0.071650 0.665844
O O20 0.065678 0.131355 0.667895
#
# Coordination Sequence:
#
# PCOD8330640 Si02
#       7
#    24  24  24  24  24  24  24
#     4  10  20  32  46  65  89 119 157 199 238 273
#     4   9  17  30  49  71  94 121 153 189 229 272
#     4   9  17  28  43  61  82 110 145 184 224 268
#     4  11  19  30  47  65  87 119 157 189 222 269
#     4   9  16  28  48  73  98 121 146 179 221 269
#     4   9  18  31  46  66  92 120 149 183 224 268
#     4  10  20  33  49  69  92 117 148 191 242 287
#
# _framework density 16.957034
#
# number of rings (size 3 to 8) (size 9 to 14) (size 15 to 20)
#    0.000    2.429    0.000    3.429    0.000    6.000 
#    0.000    0.714    0.000    6.571    0.000    0.000 
#    0.000    0.000    0.000    1.286    0.000   16.857 
#
# Total GULP energy -2083114.254162 kJ/mol
# GULP energy per Si atom -12399.489608 kJ/mol
# Density = 1.691844 g / cm^3
# Si number density = 16.957034 Si / 1000 Ang^3
#
#
#
# Elastic Constant Matrix: (Units=GPa)
#
#
# Indices 1 2 3 4 5 6 
#
# 1 108.4646 53.3703 31.2160 0.0000 0.0000 0.0000
# 2 53.3703 108.4646 31.2160 0.0000 0.0000 0.0000
# 3 31.2160 31.2160 41.1900 0.0000 0.0000 0.0000
# 4 0.0000 0.0000 0.0000 22.7917 0.0000 0.0000
# 5 0.0000 0.0000 0.0000 0.0000 22.7917 0.0000
# 6 0.0000 0.0000 0.0000 0.0000 0.0000 27.5471
#
#
#
# Elastic Compliance Matrix: (Units=1/GPa)
#
#
# Indices 1 2 3 4 5 6 
#
# 1 0.013441 -0.004709 -0.006618 0.000000 0.000000 0.000000
# 2 -0.004709 0.013441 -0.006618 0.000000 0.000000 0.000000
# 3 -0.006618 -0.006618 0.034308 0.000000 0.000000 0.000000
# 4 0.000000 0.000000 0.000000 0.043876 0.000000 0.000000
# 5 0.000000 0.000000 0.000000 0.000000 0.043876 0.000000
# 6 0.000000 0.000000 0.000000 0.000000 0.000000 0.036301
#
#
# Mechanical properties :
#
#
# Convention : Reuss Voigt Hill
#
# Bulk Modulus (GPa) = 39.52296 54.41374 46.96835
# Shear Modulus (GPa) = 21.78018 24.11390 22.94704
#
# Velocity S-wave (km/s) = 3.58779 3.77511 3.68264
# Velocity P-wave (km/s) = 6.36563 7.15268 6.77060
#
# Compressibility (1/GPa) = 0.02530175
#
# Stress axis : x y z
#
# Youngs Moduli (GPa) = 74.39710 74.39710 29.14764
#
# Poissons Ratio (x) = 0.35036 0.19289
# Poissons Ratio (y) = 0.35036 0.19289
# Poissons Ratio (z) = 0.49233 0.49233
#
# Static dielectric constant tensor:
#      x y z
#    x 3.145470 0.000000 0.000000 
#    y 0.000000 3.145470 0.000000 
#    z 0.000000 0.000000 3.026800 
# 
# 
# High freq. dielectric constant tensor:
#      x y z
#    x 1.647230 0.000000 0.000000 
#    y 0.000000 1.647230 0.000000 
#    z 0.000000 0.000000 1.634770 
# 
# From -- ./inp_files/9811.got.cif
#   From: 2010.03.12/outbox.cif.g09.slc.cpg/sg194_5_cif.got.tgz:9811.got - 2010.04.01 12:26:19.
