data_PCOD8330002
_publ_section_title
;
Structure prediction by ZEFSAII (Michael W. Deem and Ramdas Pophale) SiO2 
 PCOD8330002
Probable space group: P 63/M C M
;
_chemical_formula_sum "Si O2"
_cell_formula_units_Z 108
_cell_length_a 27.491506
_cell_length_b 27.491506
_cell_length_c 9.719376
_cell_angle_alpha 90.000000
_cell_angle_beta 90.000000
_cell_angle_gamma 120.000000
_cell_volume 6361.595891
_symmetry_space_group_name_H-M "P 63/M C M"
_symmetry_group_IT_number 193
_symmetry_cell_setting 'hexagonal'
loop_
_space_group_symop_operation_xyz
x,y,z
x-y,x,1/2+z
-y,x-y,z
-x,-y,1/2+z
-x+y,-x,z
y,-x+y,1/2+z
x-y,-y,1/2-z
-x,-x+y,1/2-z
y,x,1/2-z
-y,-x,-z
-x+y,y,-z
x,x-y,-z
-x,-y,-z
-x+y,-x,1/2-z
y,-x+y,-z
x,y,1/2-z
x-y,x,-z
-y,x-y,1/2-z
-x+y,y,1/2+z
x,x-y,1/2+z
-y,-x,1/2+z
y,x,z
x-y,-y,z
-x,-x+y,z
loop_
_atom_site_type_symbol
_atom_site_label
_atom_site_fract_x
_atom_site_fract_y
_atom_site_fract_z
Si Si1 0.829608 0.267278 0.412235
Si Si2 0.217745 0.153343 0.593697
Si Si3 0.391662 0.877916 0.092813
Si Si4 0.061644 0.735100 0.586740
Si Si5 0.000000 0.545040 0.596331
O O1 0.778052 0.221949 0.500000
O O2 0.820527 0.252030 0.250000
O O3 0.833533 0.327112 0.440792
O O4 0.886979 0.271544 0.468609
O O5 0.198834 0.099417 0.500000
O O6 0.224566 0.138534 0.750000
O O7 0.169418 0.169418 0.583634
O O8 0.276571 0.204416 0.538695
O O9 0.405592 0.871160 0.250000
O O10 0.397914 0.940425 0.070962
O O11 0.433511 0.867022 0.000000
O O12 0.059609 0.731624 0.750000
O O13 0.000000 0.686367 0.531471
O O14 0.000000 0.500000 0.500000
O O15 0.000000 0.524429 0.750000
#
# Coordination Sequence:
#
# PCOD8330002 Si02
#       5
#    24  24  24  24  12
#     4  10  20  32  49  73 100 132 166 200 242 287
#     4   9  17  29  45  66  90 118 154 193 233 278
#     4   9  18  31  49  72  96 125 160 197 238 284
#     4   8  15  28  47  70  96 127 162 196 229 277
#     4   8  14  26  44  68  94 118 150 190 230 278
#
# _framework density 16.976873000000001
#
# number of rings (size 3 to 8) (size 9 to 14) (size 15 to 20)
#    0.000    3.111    0.000    2.000    1.556    1.333 
#    0.000    0.000    0.000    2.667    0.000    0.000 
#    0.000    0.000    0.000    0.000    0.000    0.000 
#
# Total GULP energy -1337929.687912 kJ/mol
# GULP energy per Si atom -12388.237851 kJ/mol
# Density = 1.693823 g / cm^3
# Si number density = 16.976873 Si / 1000 Ang^3
#
#
#
# Elastic Constant Matrix: (Units=GPa)
#
#
# Indices 1 2 3 4 5 6 
#
# 1 99.8059 58.5059 48.6633 0.0000 0.0000 0.0000
# 2 58.5059 99.8059 48.6633 0.0000 0.0000 0.0000
# 3 48.6633 48.6633 59.9322 0.0000 0.0000 0.0000
# 4 0.0000 0.0000 0.0000 25.1031 0.0000 0.0000
# 5 0.0000 0.0000 0.0000 0.0000 25.1031 0.0000
# 6 0.0000 0.0000 0.0000 0.0000 0.0000 20.6500
#
#
#
# Elastic Compliance Matrix: (Units=1/GPa)
#
#
# Indices 1 2 3 4 5 6 
#
# 1 0.018413 -0.005800 -0.010241 0.000000 0.000000 0.000000
# 2 -0.005800 0.018413 -0.010241 0.000000 0.000000 0.000000
# 3 -0.010241 -0.010241 0.033317 0.000000 0.000000 0.000000
# 4 0.000000 0.000000 0.000000 0.039836 0.000000 0.000000
# 5 0.000000 0.000000 0.000000 0.000000 0.039836 0.000000
# 6 0.000000 0.000000 0.000000 0.000000 0.000000 0.048426
#
#
# Mechanical properties :
#
#
# Convention : Reuss Voigt Hill
#
# Bulk Modulus (GPa) = 56.89144 63.46770 60.17957
# Shear Modulus (GPa) = 19.48073 21.08535 20.28304
#
# Velocity S-wave (km/s) = 3.39113 3.52803 3.46026
# Velocity P-wave (km/s) = 6.99406 7.35268 7.17561
#
# Compressibility (1/GPa) = 0.01757734
#
# Stress axis : x y z
#
# Youngs Moduli (GPa) = 54.30983 54.30983 30.01509
#
# Poissons Ratio (x) = 0.31501 0.30739
# Poissons Ratio (y) = 0.31501 0.30739
# Poissons Ratio (z) = 0.55620 0.55620
#
# Static dielectric constant tensor:
#      x y z
#    x 3.277990 0.000000 0.000000 
#    y 0.000000 3.277990 0.000000 
#    z 0.000000 0.000000 2.935540 
# 
# 
# High freq. dielectric constant tensor:
#      x y z
#    x 1.645140 0.000000 0.000000 
#    y 0.000000 1.645140 0.000000 
#    z 0.000000 0.000000 1.629710 
# 
# From -- ./inp_files/2353.got.cif
#   From: 2010.03.12/outbox.cif.g09.slc.cpg/sg193_2_cif.got.tgz:2353.got - 2010.04.01 12:20:39.
