data_PCOD8330628
_publ_section_title
;
Structure prediction by ZEFSAII (Michael W. Deem and Ramdas Pophale) SiO2 
 PCOD8330628
Probable space group: P 63/M M C
;
_chemical_formula_sum "Si O2"
_cell_formula_units_Z 100
_cell_length_a 26.504496
_cell_length_b 26.504496
_cell_length_c 9.061614
_cell_angle_alpha 90.000000
_cell_angle_beta 90.000000
_cell_angle_gamma 120.000000
_cell_volume 5512.838764
_symmetry_space_group_name_H-M "P 63/M M C"
_symmetry_group_IT_number 194
_symmetry_cell_setting 'hexagonal'
loop_
_space_group_symop_operation_xyz
x,y,z
x-y,x,1/2+z
-y,x-y,z
-x,-y,1/2+z
-x+y,-x,z
y,-x+y,1/2+z
x-y,-y,-z
-x,-x+y,-z
y,x,-z
-y,-x,1/2-z
-x+y,y,1/2-z
x,x-y,1/2-z
-x,-y,-z
-x+y,-x,1/2-z
y,-x+y,-z
x,y,1/2-z
x-y,x,-z
-y,x-y,1/2-z
-x+y,y,z
x,x-y,z
-y,-x,z
y,x,1/2+z
x-y,-y,1/2+z
-x,-x+y,1/2+z
loop_
_atom_site_type_symbol
_atom_site_label
_atom_site_fract_x
_atom_site_fract_y
_atom_site_fract_z
Si Si1 0.732520 0.465040 0.926034
Si Si2 0.333334 0.666667 0.424171
Si Si3 0.531446 0.468555 0.424305
Si Si4 0.522108 0.664711 0.576223
Si Si5 0.769204 0.942561 0.578582
Si Si6 0.641661 0.765287 0.576212
O O1 0.735561 0.471123 0.750000
O O2 0.699464 0.398928 0.982857
O O3 0.797263 0.492291 0.988766
O O4 0.333334 0.666667 0.250000
O O5 0.500000 0.500000 0.500000
O O6 0.526352 0.473649 0.250000
O O7 0.598655 0.498569 0.475394
O O8 0.511238 0.667880 0.750000
O O9 0.590994 0.700266 0.536014
O O10 0.772899 0.956073 0.750000
O O11 0.782981 0.891491 0.543850
O O12 0.704766 0.924796 0.514587
O O13 0.817900 0.000000 0.500000
O O14 0.648646 0.774081 0.750000
O O15 0.624679 0.812340 0.513099
#
# Coordination Sequence:
#
# PCOD8330628 Si02
#       6
#    12   4  12  24  24  24
#     4  11  21  34  54  80 105 136 176 227 284 333
#     4   9  21  36  46  65 106 144 169 209 286 351
#     4  10  23  38  54  77 106 144 188 226 268 324
#     4  10  19  35  56  76 102 139 178 219 270 328
#     4   9  18  32  51  76 103 134 169 201 243 294
#     4   8  14  28  51  72  95 131 166 201 252 310
#
# _framework density 18.139475000000001
#
# number of rings (size 3 to 8) (size 9 to 14) (size 15 to 20)
#    0.000    2.640    1.200    2.520    0.000    2.400 
#    0.000    3.000    0.000    0.240    0.000    0.000 
#    0.000    0.000    0.000    0.000    0.000    0.000 
#
# Total GULP energy -1239357.826009 kJ/mol
# GULP energy per Si atom -12393.578260 kJ/mol
# Density = 1.809819 g / cm^3
# Si number density = 18.139475 Si / 1000 Ang^3
#
#
#
# Elastic Constant Matrix: (Units=GPa)
#
#
# Indices 1 2 3 4 5 6 
#
# 1 132.6658 85.4872 47.9167 0.0000 0.0000 0.0000
# 2 85.4872 132.6656 47.9167 0.0000 0.0000 0.0000
# 3 47.9167 47.9167 43.4561 0.0000 0.0000 0.0000
# 4 0.0000 0.0000 0.0000 24.9733 0.0000 0.0000
# 5 0.0000 0.0000 0.0000 0.0000 24.9733 0.0000
# 6 0.0000 0.0000 0.0000 0.0000 0.0000 23.5893
#
#
#
# Elastic Compliance Matrix: (Units=1/GPa)
#
#
# Indices 1 2 3 4 5 6 
#
# 1 0.015043 -0.006153 -0.009803 0.000000 0.000000 0.000000
# 2 -0.006153 0.015043 -0.009803 0.000000 0.000000 0.000000
# 3 -0.009803 -0.009803 0.044630 0.000000 0.000000 0.000000
# 4 0.000000 0.000000 0.000000 0.040043 0.000000 0.000000
# 5 0.000000 0.000000 0.000000 0.000000 0.040043 0.000000
# 6 0.000000 0.000000 0.000000 0.000000 0.000000 0.042392
#
#
# Mechanical properties :
#
#
# Convention : Reuss Voigt Hill
#
# Bulk Modulus (GPa) = 43.10523 74.60321 58.85422
# Shear Modulus (GPa) = 19.49746 23.20499 21.35123
#
# Velocity S-wave (km/s) = 3.28207 3.58055 3.43455
# Velocity P-wave (km/s) = 6.17879 7.63614 6.94579
#
# Compressibility (1/GPa) = 0.02319904
#
# Stress axis : x y z
#
# Youngs Moduli (GPa) = 66.47540 66.47520 22.40660
#
# Poissons Ratio (x) = 0.40902 0.21965
# Poissons Ratio (y) = 0.40902 0.21965
# Poissons Ratio (z) = 0.65164 0.65164
#
# Static dielectric constant tensor:
#      x y z
#    x 3.460390 0.000000 0.000000 
#    y 0.000000 3.460390 0.000000 
#    z 0.000000 0.000000 3.004520 
# 
# 
# High freq. dielectric constant tensor:
#      x y z
#    x 1.704930 0.000000 0.000000 
#    y 0.000000 1.704930 0.000000 
#    z 0.000000 0.000000 1.670160 
# 
# From -- ./inp_files/1666.got.cif
#   From: 2010.03.12/outbox.cif.g09.slc.cpg/sg194_1_cif.got.tgz:1666.got - 2010.04.01 12:26:19.
