data_PCOD8330835
_publ_section_title
;
Structure prediction by ZEFSAII (Michael W. Deem and Ramdas Pophale) SiO2 
 PCOD8330835
Probable space group: P 63/M M C
;
_chemical_formula_sum "Si O2"
_cell_formula_units_Z 96
_cell_length_a 29.471013
_cell_length_b 29.471013
_cell_length_c 8.631521
_cell_angle_alpha 90.000000
_cell_angle_beta 90.000000
_cell_angle_gamma 120.000000
_cell_volume 6492.442189
_symmetry_space_group_name_H-M "P 63/M M C"
_symmetry_group_IT_number 194
_symmetry_cell_setting 'hexagonal'
loop_
_space_group_symop_operation_xyz
x,y,z
x-y,x,1/2+z
-y,x-y,z
-x,-y,1/2+z
-x+y,-x,z
y,-x+y,1/2+z
x-y,-y,-z
-x,-x+y,-z
y,x,-z
-y,-x,1/2-z
-x+y,y,1/2-z
x,x-y,1/2-z
-x,-y,-z
-x+y,-x,1/2-z
y,-x+y,-z
x,y,1/2-z
x-y,x,-z
-y,x-y,1/2-z
-x+y,y,z
x,x-y,z
-y,-x,z
y,x,1/2+z
x-y,-y,1/2+z
-x,-x+y,1/2+z
loop_
_atom_site_type_symbol
_atom_site_label
_atom_site_fract_x
_atom_site_fract_y
_atom_site_fract_z
Si Si1 0.300331 0.150166 0.421752
Si Si2 0.112217 0.417159 0.935831
Si Si3 0.055999 0.477849 0.567249
Si Si4 0.424238 0.212119 0.081235
Si Si5 0.697045 0.753574 0.433503
O O1 0.274602 0.137301 0.250000
O O2 0.362129 0.181065 0.402763
O O3 0.283369 0.096465 0.513531
O O4 0.111642 0.411103 0.750000
O O5 0.096655 0.459957 0.989556
O O6 0.171799 0.438914 0.002264
O O7 0.072479 0.360697 0.005304
O O8 0.050944 0.474429 0.750000
O O9 0.074273 0.537137 0.510171
O O10 0.000000 0.437068 0.500000
O O11 0.451202 0.225601 0.250000
O O12 0.738095 0.738095 0.500000
O O13 0.696407 0.751053 0.250000
#
# Coordination Sequence:
#
# PCOD8330835 Si02
#       5
#    12  24  24  12  24
#     4   9  17  31  45  59  81 107 136 172 207 239
#     4   9  16  27  41  56  76 101 132 169 206 246
#     4   9  17  27  38  53  74 100 130 163 200 242
#     4   7  12  23  39  55  71  93 121 156 198 239
#     4  11  20  29  42  61  83 110 142 172 205 243
#
# _framework density 14.786424
#
# number of rings (size 3 to 8) (size 9 to 14) (size 15 to 20)
#    0.000    2.750    0.000    4.875    0.000    3.000 
#    0.000    0.000    0.000    0.000    0.000    0.000 
#    1.250    0.000    3.750    0.375    0.000    5.250 
#
# Total GULP energy -1189371.388110 kJ/mol
# GULP energy per Si atom -12389.285293 kJ/mol
# Density = 1.475277 g / cm^3
# Si number density = 14.786424 Si / 1000 Ang^3
#
#
#
# Elastic Constant Matrix: (Units=GPa)
#
#
# Indices 1 2 3 4 5 6 
#
# 1 107.2233 73.6904 27.3196 0.0000 0.0000 0.0000
# 2 73.6904 107.2233 27.3196 0.0000 0.0000 0.0000
# 3 27.3196 27.3196 57.2874 0.0000 0.0000 0.0000
# 4 0.0000 0.0000 0.0000 16.5886 0.0000 0.0000
# 5 0.0000 0.0000 0.0000 0.0000 16.5886 0.0000
# 6 0.0000 0.0000 0.0000 0.0000 0.0000 16.7664
#
#
#
# Elastic Compliance Matrix: (Units=1/GPa)
#
#
# Indices 1 2 3 4 5 6 
#
# 1 0.018140 -0.011682 -0.003080 0.000000 0.000000 0.000000
# 2 -0.011682 0.018140 -0.003080 0.000000 0.000000 0.000000
# 3 -0.003080 -0.003080 0.020393 0.000000 0.000000 0.000000
# 4 0.000000 0.000000 0.000000 0.060282 0.000000 0.000000
# 5 0.000000 0.000000 0.000000 0.000000 0.060282 0.000000
# 6 0.000000 0.000000 0.000000 0.000000 0.000000 0.059643
#
#
# Mechanical properties :
#
#
# Convention : Reuss Voigt Hill
#
# Bulk Modulus (GPa) = 47.64164 58.71035 53.17599
# Shear Modulus (GPa) = 17.88536 19.54903 18.71719
#
# Velocity S-wave (km/s) = 3.48167 3.64000 3.56172
# Velocity P-wave (km/s) = 6.96079 7.58010 7.27704
#
# Compressibility (1/GPa) = 0.02099004
#
# Stress axis : x y z
#
# Youngs Moduli (GPa) = 55.12821 55.12821 49.03644
#
# Poissons Ratio (x) = 0.64401 0.15101
# Poissons Ratio (y) = 0.64401 0.15101
# Poissons Ratio (z) = 0.16977 0.16977
#
# Static dielectric constant tensor:
#      x y z
#    x 3.048390 0.000000 0.000000 
#    y 0.000000 3.048390 0.000000 
#    z 0.000000 0.000000 2.825210 
# 
# 
# High freq. dielectric constant tensor:
#      x y z
#    x 1.546950 0.000000 0.000000 
#    y 0.000000 1.546950 0.000000 
#    z 0.000000 0.000000 1.561490 
# 
# From -- ./inp_files/1776.got.cif
#   From: 2010.03.12/outbox.cif.g09.slc.cpg/sg194_1_cif.got.tgz:1776.got - 2010.04.01 12:26:19.
