data_PCOD8330328
_publ_section_title
;
Structure prediction by ZEFSAII (Michael W. Deem and Ramdas Pophale) SiO2 
 PCOD8330328
Probable space group: P 63/M M C
;
_chemical_formula_sum "Si O2"
_cell_formula_units_Z 144
_cell_length_a 22.639441
_cell_length_b 22.639441
_cell_length_c 19.182678
_cell_angle_alpha 90.000000
_cell_angle_beta 90.000000
_cell_angle_gamma 120.000000
_cell_volume 8514.737567
_symmetry_space_group_name_H-M "P 63/M M C"
_symmetry_group_IT_number 194
_symmetry_cell_setting 'hexagonal'
loop_
_space_group_symop_operation_xyz
x,y,z
x-y,x,1/2+z
-y,x-y,z
-x,-y,1/2+z
-x+y,-x,z
y,-x+y,1/2+z
x-y,-y,-z
-x,-x+y,-z
y,x,-z
-y,-x,1/2-z
-x+y,y,1/2-z
x,x-y,1/2-z
-x,-y,-z
-x+y,-x,1/2-z
y,-x+y,-z
x,y,1/2-z
x-y,x,-z
-y,x-y,1/2-z
-x+y,y,z
x,x-y,z
-y,-x,z
y,x,1/2+z
x-y,-y,1/2+z
-x,-x+y,1/2+z
loop_
_atom_site_type_symbol
_atom_site_label
_atom_site_fract_x
_atom_site_fract_y
_atom_site_fract_z
Si Si1 0.396859 0.133544 0.562305
Si Si2 0.999984 0.864540 0.329560
Si Si3 0.454811 0.412441 0.566391
Si Si4 0.394809 0.921974 0.830931
Si Si5 0.753939 0.744951 0.918188
Si Si6 0.874948 0.618143 0.101356
O O1 0.417331 0.208666 0.592193
O O2 0.452482 0.111289 0.580785
O O3 0.325480 0.078023 0.595709
O O4 0.392784 0.135610 0.480004
O O5 0.997780 0.840551 0.250000
O O6 0.056886 0.943115 0.338607
O O7 0.017073 0.819803 0.380425
O O8 0.928199 0.856398 0.351964
O O9 0.406781 0.406781 0.500000
O O10 0.532521 0.467480 0.547924
O O11 0.428448 0.432050 0.634732
O O12 0.386270 0.931574 0.750000
O O13 0.445669 0.891338 0.843377
O O14 0.320826 0.872816 0.864033
O O15 0.686584 0.740209 0.883903
O O16 0.761083 0.761083 0.000000
O O17 0.812762 0.625524 0.133498
#
# Coordination Sequence:
#
# PCOD8330328 Si02
#       6
#    24  24  24  24  24  24
#     4  10  18  30  50  77 103 130 166 207 252 301
#     4  10  21  36  51  66  88 124 168 210 253 303
#     4  10  17  31  54  75  97 133 176 211 250 302
#     4  10  20  33  51  76 105 133 166 211 254 293
#     4  10  19  34  51  72  98 128 163 207 260 306
#     4  10  19  31  50  75 104 134 167 207 249 298
#
# _framework density 16.911853000000001
#
# number of rings (size 3 to 8) (size 9 to 14) (size 15 to 20)
#    0.000    2.000    3.333    1.667    0.000    3.667 
#    0.000    0.000    0.000    2.167    0.000    0.000 
#    0.000    0.000    0.000    0.000    0.000    0.167 
#
# Total GULP energy -1785308.291611 kJ/mol
# GULP energy per Si atom -12397.974247 kJ/mol
# Density = 1.687336 g / cm^3
# Si number density = 16.911853 Si / 1000 Ang^3
#
#
#
# Elastic Constant Matrix: (Units=GPa)
#
#
# Indices 1 2 3 4 5 6 
#
# 1 109.8746 59.6584 31.3648 0.0000 0.0000 0.0000
# 2 59.6584 109.8746 31.3648 0.0000 0.0000 0.0000
# 3 31.3648 31.3648 41.4077 0.0000 0.0000 0.0000
# 4 0.0000 0.0000 0.0000 19.3558 0.0000 0.0000
# 5 0.0000 0.0000 0.0000 0.0000 19.3558 0.0000
# 6 0.0000 0.0000 0.0000 0.0000 0.0000 25.1081
#
#
#
# Elastic Compliance Matrix: (Units=1/GPa)
#
#
# Indices 1 2 3 4 5 6 
#
# 1 0.014055 -0.005859 -0.006208 0.000000 0.000000 0.000000
# 2 -0.005859 0.014055 -0.006208 0.000000 0.000000 0.000000
# 3 -0.006208 -0.006208 0.033554 0.000000 0.000000 0.000000
# 4 0.000000 0.000000 0.000000 0.051664 0.000000 0.000000
# 5 0.000000 0.000000 0.000000 0.000000 0.051664 0.000000
# 6 0.000000 0.000000 0.000000 0.000000 0.000000 0.039828
#
#
# Mechanical properties :
#
#
# Convention : Reuss Voigt Hill
#
# Bulk Modulus (GPa) = 39.81798 56.21475 48.01636
# Shear Modulus (GPa) = 20.02075 22.01520 21.01798
#
# Velocity S-wave (km/s) = 3.44442 3.61191 3.52916
# Velocity P-wave (km/s) = 6.27807 7.12085 6.71270
#
# Compressibility (1/GPa) = 0.02511429
#
# Stress axis : x y z
#
# Youngs Moduli (GPa) = 71.15051 71.15051 29.80234
#
# Poissons Ratio (x) = 0.41688 0.18501
# Poissons Ratio (y) = 0.41688 0.18501
# Poissons Ratio (z) = 0.44169 0.44169
#
# Static dielectric constant tensor:
#      x y z
#    x 3.673520 0.000000 0.000000 
#    y 0.000000 3.673520 0.000000 
#    z 0.000000 0.000000 3.015420 
# 
# 
# High freq. dielectric constant tensor:
#      x y z
#    x 1.646200 0.000000 0.000000 
#    y 0.000000 1.646200 0.000000 
#    z 0.000000 0.000000 1.635310 
# 
# From -- ./inp_files/8236.got.cif
#   From: 2010.03.12/outbox.cif.g09.slc.cpg/sg194_5_cif.got.tgz:8236.got - 2010.04.01 12:26:19.
