data_PCOD8330708
_publ_section_title
;
Structure prediction by ZEFSAII (Michael W. Deem and Ramdas Pophale) SiO2 
 PCOD8330708
Probable space group: P 63/M M C
;
_chemical_formula_sum "Si O2"
_cell_formula_units_Z 144
_cell_length_a 23.107744
_cell_length_b 23.107744
_cell_length_c 18.712617
_cell_angle_alpha 90.000000
_cell_angle_beta 90.000000
_cell_angle_gamma 120.000000
_cell_volume 8653.270015
_symmetry_space_group_name_H-M "P 63/M M C"
_symmetry_group_IT_number 194
_symmetry_cell_setting 'hexagonal'
loop_
_space_group_symop_operation_xyz
x,y,z
x-y,x,1/2+z
-y,x-y,z
-x,-y,1/2+z
-x+y,-x,z
y,-x+y,1/2+z
x-y,-y,-z
-x,-x+y,-z
y,x,-z
-y,-x,1/2-z
-x+y,y,1/2-z
x,x-y,1/2-z
-x,-y,-z
-x+y,-x,1/2-z
y,-x+y,-z
x,y,1/2-z
x-y,x,-z
-y,x-y,1/2-z
-x+y,y,z
x,x-y,z
-y,-x,z
y,x,1/2+z
x-y,-y,1/2+z
-x,-x+y,1/2+z
loop_
_atom_site_type_symbol
_atom_site_label
_atom_site_fract_x
_atom_site_fract_y
_atom_site_fract_z
Si Si1 0.103101 0.614102 0.169827
Si Si2 0.692062 0.064343 0.451056
Si Si3 0.814812 0.046042 0.069174
Si Si4 0.937146 0.737791 0.668264
Si Si5 0.737310 0.605965 0.910205
Si Si6 0.054021 0.460598 0.831006
O O1 0.129950 0.630453 0.250000
O O2 0.119700 0.559850 0.136191
O O3 0.141214 0.680687 0.125454
O O4 0.024738 0.585908 0.167964
O O5 0.756594 0.064048 0.420374
O O6 0.723463 0.126247 0.505736
O O7 0.653309 0.080693 0.389061
O O8 0.642926 0.000000 0.500000
O O9 0.887865 0.112136 0.066382
O O10 0.806075 0.000218 0.138352
O O11 0.802891 0.000000 0.000000
O O12 0.949510 0.726126 0.750000
O O13 0.872888 0.745776 0.659687
O O14 0.930717 0.674947 0.621652
O O15 0.805135 0.610270 0.888935
O O16 0.080155 0.459964 0.750000
O O17 0.074224 0.537112 0.851543
#
# Coordination Sequence:
#
# PCOD8330708 Si02
#       6
#    24  24  24  24  24  24
#     4   9  17  29  45  69 100 130 161 196 236 288
#     4  11  19  30  48  75 101 133 164 206 250 300
#     4  11  21  35  53  73 101 137 175 217 267 323
#     4  10  20  34  53  75  98 127 168 219 272 328
#     4  11  20  32  49  73 103 134 171 211 256 305
#     4   9  18  32  50  73 103 135 163 194 239 299
#
# _framework density 16.641107000000002
#
# number of rings (size 3 to 8) (size 9 to 14) (size 15 to 20)
#    0.000    1.833    5.000    2.500    0.000    4.333 
#    0.000    0.000    0.000    4.833    0.000    0.000 
#    0.000    0.000    0.000    0.000    0.000    0.833 
#
# Total GULP energy -1784289.810538 kJ/mol
# GULP energy per Si atom -12390.901462 kJ/mol
# Density = 1.660323 g / cm^3
# Si number density = 16.641107 Si / 1000 Ang^3
#
#
#
# Elastic Constant Matrix: (Units=GPa)
#
#
# Indices 1 2 3 4 5 6 
#
# 1 76.2171 42.2571 47.3196 0.0000 0.0000 0.0000
# 2 42.2571 76.2171 47.3196 0.0000 0.0000 0.0000
# 3 47.3196 47.3196 111.9629 0.0000 0.0000 0.0000
# 4 0.0000 0.0000 0.0000 20.9312 0.0000 0.0000
# 5 0.0000 0.0000 0.0000 0.0000 20.9312 0.0000
# 6 0.0000 0.0000 0.0000 0.0000 0.0000 16.9800
#
#
#
# Elastic Compliance Matrix: (Units=1/GPa)
#
#
# Indices 1 2 3 4 5 6 
#
# 1 0.021095 -0.008352 -0.005386 0.000000 0.000000 0.000000
# 2 -0.008352 0.021095 -0.005386 0.000000 0.000000 0.000000
# 3 -0.005386 -0.005386 0.013484 0.000000 0.000000 0.000000
# 4 0.000000 0.000000 0.000000 0.047776 0.000000 0.000000
# 5 0.000000 0.000000 0.000000 0.000000 0.047776 0.000000
# 6 0.000000 0.000000 0.000000 0.000000 0.000000 0.058893
#
#
# Mechanical properties :
#
#
# Convention : Reuss Voigt Hill
#
# Bulk Modulus (GPa) = 57.38203 59.79887 58.59045
# Shear Modulus (GPa) = 19.67172 20.26851 19.97012
#
# Velocity S-wave (km/s) = 3.44192 3.49374 3.46793
# Velocity P-wave (km/s) = 7.09597 7.23100 7.16380
#
# Compressibility (1/GPa) = 0.01742706
#
# Stress axis : x y z
#
# Youngs Moduli (GPa) = 47.40553 47.40553 74.16318
#
# Poissons Ratio (x) = 0.39592 0.39941
# Poissons Ratio (y) = 0.39592 0.39941
# Poissons Ratio (z) = 0.25530 0.25530
#
# Static dielectric constant tensor:
#      x y z
#    x 3.038660 0.000000 0.000000 
#    y 0.000000 3.038660 0.000000 
#    z 0.000000 0.000000 3.416360 
# 
# 
# High freq. dielectric constant tensor:
#      x y z
#    x 1.616110 0.000000 0.000000 
#    y 0.000000 1.616110 0.000000 
#    z 0.000000 0.000000 1.647760 
# 
# From -- ./inp_files/6999.got.cif
#   From: 2010.03.12/outbox.cif.g09.slc.cpg/sg194_4_cif.got.tgz:6999.got - 2010.04.01 12:26:19.
