data_PCOD8330034
_publ_section_title
;
Structure prediction by ZEFSAII (Michael W. Deem and Ramdas Pophale) SiO2 
 PCOD8330034
Probable space group: P 63/M C M
;
_chemical_formula_sum "Si O2"
_cell_formula_units_Z 144
_cell_length_a 31.882957
_cell_length_b 31.882957
_cell_length_c 8.774018
_cell_angle_alpha 90.000000
_cell_angle_beta 90.000000
_cell_angle_gamma 120.000000
_cell_volume 7724.072466
_symmetry_space_group_name_H-M "P 63/M C M"
_symmetry_group_IT_number 193
_symmetry_cell_setting 'hexagonal'
loop_
_space_group_symop_operation_xyz
x,y,z
x-y,x,1/2+z
-y,x-y,z
-x,-y,1/2+z
-x+y,-x,z
y,-x+y,1/2+z
x-y,-y,1/2-z
-x,-x+y,1/2-z
y,x,1/2-z
-y,-x,-z
-x+y,y,-z
x,x-y,-z
-x,-y,-z
-x+y,-x,1/2-z
y,-x+y,-z
x,y,1/2-z
x-y,x,-z
-y,x-y,1/2-z
-x+y,y,1/2+z
x,x-y,1/2+z
-y,-x,1/2+z
y,x,z
x-y,-y,z
-x,-x+y,z
loop_
_atom_site_type_symbol
_atom_site_label
_atom_site_fract_x
_atom_site_fract_y
_atom_site_fract_z
Si Si1 0.398089 0.153619 0.927957
Si Si2 0.428676 0.483090 0.070901
Si Si3 0.808870 0.101133 0.425763
Si Si4 0.143686 0.197493 0.927127
Si Si5 0.519129 0.858102 0.928285
Si Si6 0.666884 0.425113 0.068702
O O1 0.413321 0.163109 0.750000
O O2 0.344821 0.105026 0.945384
O O3 0.395924 0.197962 0.000000
O O4 0.436583 0.148808 0.028208
O O5 0.431281 0.489175 0.250000
O O6 0.442261 0.442261 0.020913
O O7 0.465597 0.534404 0.000000
O O8 0.376125 0.469518 0.014936
O O9 0.851688 0.148313 0.500000
O O10 0.820243 0.099329 0.250000
O O11 0.809636 0.056305 0.507611
O O12 0.140472 0.205054 0.750000
O O13 0.153234 0.153234 0.961383
O O14 0.092750 0.185499 0.000000
O O15 0.518554 0.866716 0.750000
O O16 0.468752 0.811178 0.978867
O O17 0.668308 0.420347 0.250000
O O18 0.624506 0.375495 0.000000
O O19 0.718080 0.436159 0.000000
#
# Coordination Sequence:
#
# PCOD8330034 Si02
#       6
#    24  24  24  24  24  24
#     4  10  20  34  53  78 109 144 181 222 268 320
#     4  10  21  38  60  83 107 136 171 215 267 322
#     4   9  17  30  50  74 100 134 172 210 255 305
#     4  10  20  33  52  79 108 140 180 224 270 320
#     4  11  23  37  57  84 111 144 184 225 273 328
#     4  11  24  40  58  81 110 145 185 230 280 331
#
# _framework density 18.643015999999999
#
# number of rings (size 3 to 8) (size 9 to 14) (size 15 to 20)
#    0.000    1.833    0.000    5.167    0.000    9.667 
#    0.000    0.833    0.000    1.167    0.000    0.000 
#    0.000    0.000    0.000    0.000    0.000    0.000 
#
# Total GULP energy -1784877.231539 kJ/mol
# GULP energy per Si atom -12394.980775 kJ/mol
# Density = 1.860058 g / cm^3
# Si number density = 18.643016 Si / 1000 Ang^3
#
#
#
# Elastic Constant Matrix: (Units=GPa)
#
#
# Indices 1 2 3 4 5 6 
#
# 1 93.7067 42.2912 32.3064 0.0000 0.0000 0.0000
# 2 42.2912 93.7067 32.3064 0.0000 0.0000 0.0000
# 3 32.3064 32.3064 78.8925 0.0000 0.0000 0.0000
# 4 0.0000 0.0000 0.0000 29.8485 0.0000 0.0000
# 5 0.0000 0.0000 0.0000 0.0000 29.8485 0.0000
# 6 0.0000 0.0000 0.0000 0.0000 0.0000 25.7077
#
#
#
# Elastic Compliance Matrix: (Units=1/GPa)
#
#
# Indices 1 2 3 4 5 6 
#
# 1 0.014289 -0.005160 -0.003738 0.000000 0.000000 0.000000
# 2 -0.005160 0.014289 -0.003738 0.000000 0.000000 0.000000
# 3 -0.003738 -0.003738 0.015737 0.000000 0.000000 0.000000
# 4 0.000000 0.000000 0.000000 0.033503 0.000000 0.000000
# 5 0.000000 0.000000 0.000000 0.000000 0.033503 0.000000
# 6 0.000000 0.000000 0.000000 0.000000 0.000000 0.038899
#
#
# Mechanical properties :
#
#
# Convention : Reuss Voigt Hill
#
# Bulk Modulus (GPa) = 52.51548 53.34597 52.93072
# Shear Modulus (GPa) = 27.49659 27.70773 27.60216
#
# Velocity S-wave (km/s) = 3.84461 3.85934 3.85198
# Velocity P-wave (km/s) = 6.92374 6.96677 6.94529
#
# Compressibility (1/GPa) = 0.01904201
#
# Stress axis : x y z
#
# Youngs Moduli (GPa) = 69.98254 69.98254 63.54376
#
# Poissons Ratio (x) = 0.36112 0.23755
# Poissons Ratio (y) = 0.36112 0.23755
# Poissons Ratio (z) = 0.26162 0.26162
#
# Static dielectric constant tensor:
#      x y z
#    x 3.630010 0.000000 0.000000 
#    y 0.000000 3.630010 0.000000 
#    z 0.000000 0.000000 3.600620 
# 
# 
# High freq. dielectric constant tensor:
#      x y z
#    x 1.717810 0.000000 0.000000 
#    y 0.000000 1.717810 0.000000 
#    z 0.000000 0.000000 1.743090 
# 
# From -- ./inp_files/1545.got.cif
#   From: 2010.03.12/outbox.cif.g09.slc.cpg/sg193_1_cif.got.tgz:1545.got - 2010.04.01 12:20:39.
