data_PCOD8330381
_publ_section_title
;
Structure prediction by ZEFSAII (Michael W. Deem and Ramdas Pophale) SiO2 
 PCOD8330381
Probable space group: P 63/M M C
;
_chemical_formula_sum "Si O2"
_cell_formula_units_Z 168
_cell_length_a 21.161372
_cell_length_b 21.161372
_cell_length_c 24.060803
_cell_angle_alpha 90.000000
_cell_angle_beta 90.000000
_cell_angle_gamma 120.000000
_cell_volume 9331.004365
_symmetry_space_group_name_H-M "P 63/M M C"
_symmetry_group_IT_number 194
_symmetry_cell_setting 'hexagonal'
loop_
_space_group_symop_operation_xyz
x,y,z
x-y,x,1/2+z
-y,x-y,z
-x,-y,1/2+z
-x+y,-x,z
y,-x+y,1/2+z
x-y,-y,-z
-x,-x+y,-z
y,x,-z
-y,-x,1/2-z
-x+y,y,1/2-z
x,x-y,1/2-z
-x,-y,-z
-x+y,-x,1/2-z
y,-x+y,-z
x,y,1/2-z
x-y,x,-z
-y,x-y,1/2-z
-x+y,y,z
x,x-y,z
-y,-x,z
y,x,1/2+z
x-y,-y,1/2+z
-x,-x+y,1/2+z
loop_
_atom_site_type_symbol
_atom_site_label
_atom_site_fract_x
_atom_site_fract_y
_atom_site_fract_z
Si Si1 0.141412 0.140747 0.563769
Si Si2 0.271818 0.396691 0.898729
Si Si3 0.666547 0.479584 0.601123
Si Si4 0.066334 0.606639 0.813041
Si Si5 0.911958 0.321285 0.814138
Si Si6 0.970784 0.711517 0.602549
Si Si7 0.667376 0.078859 0.515769
O O1 0.163608 0.163608 0.500000
O O2 0.079914 0.159828 0.583432
O O3 0.214987 0.181958 0.599799
O O4 0.108688 0.054344 0.570987
O O5 0.196560 0.393120 0.885445
O O6 0.330963 0.451843 0.854828
O O7 0.261868 0.317470 0.890864
O O8 0.296984 0.424332 0.961308
O O9 0.741197 0.482393 0.583501
O O10 0.603820 0.396181 0.607079
O O11 0.677593 0.520186 0.659981
O O12 0.642741 0.518974 0.554993
O O13 0.087303 0.635561 0.750000
O O14 0.076091 0.538046 0.824110
O O15 0.982462 0.582370 0.824767
O O16 0.895626 0.300325 0.750000
O O17 0.925215 0.260431 0.844078
O O18 0.936425 0.662282 0.547504
O O19 0.597242 0.000000 0.500000
#
# Coordination Sequence:
#
# PCOD8330381 Si02
#       7
#    24  24  24  24  24  24  24
#     4  10  19  30  46  70 102 139 175 208 245 299
#     4  10  18  29  48  74 103 131 163 205 252 303
#     4  11  23  37  53  75 107 142 170 200 244 303
#     4   9  18  33  52  73  98 129 166 208 254 300
#     4   9  19  36  56  77  97 122 165 219 265 302
#     4   9  18  31  50  75 101 130 162 207 266 312
#     4   9  19  34  52  77 103 131 170 215 257 296
#
# _framework density 18.004493
#
# number of rings (size 3 to 8) (size 9 to 14) (size 15 to 20)
#    0.000    2.429    0.000    3.714    0.000    6.857 
#    0.000    0.000    0.000    2.429    0.000    0.000 
#    0.000    1.143    0.000    0.000    0.000    0.000 
#
# Total GULP energy -2083225.745059 kJ/mol
# GULP energy per Si atom -12400.153244 kJ/mol
# Density = 1.796351 g / cm^3
# Si number density = 18.004493 Si / 1000 Ang^3
#
#
#
# Elastic Constant Matrix: (Units=GPa)
#
#
# Indices 1 2 3 4 5 6 
#
# 1 91.1662 43.1243 44.8682 0.0000 0.0000 0.0000
# 2 43.1243 91.1662 44.8682 0.0000 0.0000 0.0000
# 3 44.8682 44.8682 104.2489 0.0000 0.0000 0.0000
# 4 0.0000 0.0000 0.0000 16.5485 0.0000 0.0000
# 5 0.0000 0.0000 0.0000 0.0000 16.5485 0.0000
# 6 0.0000 0.0000 0.0000 0.0000 0.0000 24.0210
#
#
#
# Elastic Compliance Matrix: (Units=1/GPa)
#
#
# Indices 1 2 3 4 5 6 
#
# 1 0.015634 -0.005181 -0.004499 0.000000 0.000000 0.000000
# 2 -0.005181 0.015634 -0.004499 0.000000 0.000000 0.000000
# 3 -0.004499 -0.004499 0.013465 0.000000 0.000000 0.000000
# 4 0.000000 0.000000 0.000000 0.060428 0.000000 0.000000
# 5 0.000000 0.000000 0.000000 0.000000 0.060428 0.000000
# 6 0.000000 0.000000 0.000000 0.000000 0.000000 0.041630
#
#
# Mechanical properties :
#
#
# Convention : Reuss Voigt Hill
#
# Bulk Modulus (GPa) = 61.06784 61.36696 61.21740
# Shear Modulus (GPa) = 20.74379 21.67165 21.20772
#
# Velocity S-wave (km/s) = 3.39801 3.47317 3.43580
# Velocity P-wave (km/s) = 7.02759 7.08817 7.05795
#
# Compressibility (1/GPa) = 0.01637523
#
# Stress axis : x y z
#
# Youngs Moduli (GPa) = 63.96333 63.96333 74.26685
#
# Poissons Ratio (x) = 0.33141 0.33411
# Poissons Ratio (y) = 0.33141 0.33411
# Poissons Ratio (z) = 0.28776 0.28776
#
# Static dielectric constant tensor:
#      x y z
#    x 3.182040 0.000000 0.000000 
#    y 0.000000 3.182040 0.000000 
#    z 0.000000 0.000000 3.367320 
# 
# 
# High freq. dielectric constant tensor:
#      x y z
#    x 1.687250 0.000000 0.000000 
#    y 0.000000 1.687250 0.000000 
#    z 0.000000 0.000000 1.688840 
# 
# From -- ./inp_files/9858.got.cif
#   From: 2010.03.12/outbox.cif.g09.slc.cpg/sg194_5_cif.got.tgz:9858.got - 2010.04.01 12:26:19.
