data_PCOD8330522
_publ_section_title
;
Structure prediction by ZEFSAII (Michael W. Deem and Ramdas Pophale) SiO2 
 PCOD8330522
Probable space group: P 63/M M C
;
_chemical_formula_sum "Si O2"
_cell_formula_units_Z 108
_cell_length_a 17.469349
_cell_length_b 17.469349
_cell_length_c 23.119962
_cell_angle_alpha 90.000000
_cell_angle_beta 90.000000
_cell_angle_gamma 120.000000
_cell_volume 6110.421794
_symmetry_space_group_name_H-M "P 63/M M C"
_symmetry_group_IT_number 194
_symmetry_cell_setting 'hexagonal'
loop_
_space_group_symop_operation_xyz
x,y,z
x-y,x,1/2+z
-y,x-y,z
-x,-y,1/2+z
-x+y,-x,z
y,-x+y,1/2+z
x-y,-y,-z
-x,-x+y,-z
y,x,-z
-y,-x,1/2-z
-x+y,y,1/2-z
x,x-y,1/2-z
-x,-y,-z
-x+y,-x,1/2-z
y,-x+y,-z
x,y,1/2-z
x-y,x,-z
-y,x-y,1/2-z
-x+y,y,z
x,x-y,z
-y,-x,z
y,x,1/2+z
x-y,-y,1/2+z
-x,-x+y,1/2+z
loop_
_atom_site_type_symbol
_atom_site_label
_atom_site_fract_x
_atom_site_fract_y
_atom_site_fract_z
Si Si1 0.903771 0.632262 0.412841
Si Si2 0.847871 0.515147 0.750000
Si Si3 0.045413 0.434161 0.360666
Si Si4 0.999988 0.167271 0.067736
Si Si5 0.844591 0.511709 0.976043
O O1 0.809821 0.619642 0.391534
O O2 0.977869 0.734186 0.419868
O O3 0.891399 0.581634 0.472902
O O4 0.947012 0.598558 0.364916
O O5 0.751466 0.502932 0.750000
O O6 0.835634 0.417817 0.750000
O O7 0.901158 0.571653 0.805971
O O8 0.028941 0.514471 0.351085
O O9 0.100794 0.444608 0.418311
O O10 0.924978 0.075023 0.095717
O O11 0.096312 0.192623 0.093503
O O12 0.000000 0.153722 0.000000
O O13 0.744240 0.488479 0.966563
O O14 0.844529 0.422265 0.992218
#
# Coordination Sequence:
#
# PCOD8330522 Si02
#       5
#    24  12  24  24  24
#     4  10  20  32  48  72  99 129 164 201 244 294
#     4  10  21  36  55  78 104 134 168 206 247 294
#     4  10  20  34  51  72 100 132 166 206 252 298
#     4   9  16  25  38  58  86 119 153 189 230 276
#     4  10  19  31  49  73 103 136 168 203 247 303
#
# _framework density 17.674721000000002
#
# number of rings (size 3 to 8) (size 9 to 14) (size 15 to 20)
#    0.000    2.222    0.000    3.889    0.000    6.222 
#    0.000    2.778    0.000    0.444    0.000    0.000 
#    0.000    0.000    0.000    0.000    0.000    1.556 
#
# Total GULP energy -1338763.073967 kJ/mol
# GULP energy per Si atom -12395.954389 kJ/mol
# Density = 1.763449 g / cm^3
# Si number density = 17.674721 Si / 1000 Ang^3
#
#
#
# Elastic Constant Matrix: (Units=GPa)
#
#
# Indices 1 2 3 4 5 6 
#
# 1 100.9443 46.6416 38.9345 0.0000 0.0000 0.0000
# 2 46.6416 100.9443 38.9345 0.0000 0.0000 0.0000
# 3 38.9345 38.9345 67.1526 0.0000 0.0000 0.0000
# 4 0.0000 0.0000 0.0000 20.0811 0.0000 0.0000
# 5 0.0000 0.0000 0.0000 0.0000 20.0811 0.0000
# 6 0.0000 0.0000 0.0000 0.0000 0.0000 27.1513
#
#
#
# Elastic Compliance Matrix: (Units=1/GPa)
#
#
# Indices 1 2 3 4 5 6 
#
# 1 0.014089 -0.004327 -0.005660 0.000000 0.000000 0.000000
# 2 -0.004327 0.014089 -0.005660 0.000000 0.000000 0.000000
# 3 -0.005660 -0.005660 0.021455 0.000000 0.000000 0.000000
# 4 0.000000 0.000000 0.000000 0.049798 0.000000 0.000000
# 5 0.000000 0.000000 0.000000 0.000000 0.049798 0.000000
# 6 0.000000 0.000000 0.000000 0.000000 0.000000 0.036831
#
#
# Mechanical properties :
#
#
# Convention : Reuss Voigt Hill
#
# Bulk Modulus (GPa) = 54.52887 57.56248 56.04567
# Shear Modulus (GPa) = 22.37491 23.09808 22.73649
#
# Velocity S-wave (km/s) = 3.56185 3.61895 3.59051
# Velocity P-wave (km/s) = 6.91621 7.07819 6.99767
#
# Compressibility (1/GPa) = 0.01833891
#
# Stress axis : x y z
#
# Youngs Moduli (GPa) = 70.97916 70.97916 46.61006
#
# Poissons Ratio (x) = 0.30710 0.26381
# Poissons Ratio (y) = 0.30710 0.26381
# Poissons Ratio (z) = 0.40174 0.40174
#
# Static dielectric constant tensor:
#      x y z
#    x 3.485750 0.000000 0.000000 
#    y 0.000000 3.485750 0.000000 
#    z 0.000000 0.000000 3.004550 
# 
# 
# High freq. dielectric constant tensor:
#      x y z
#    x 1.695710 0.000000 0.000000 
#    y 0.000000 1.695710 0.000000 
#    z 0.000000 0.000000 1.633920 
# 
# From -- ./inp_files/7919.got.cif
#   From: 2010.03.12/outbox.cif.g09.slc.cpg/sg194_4_cif.got.tgz:7919.got - 2010.04.01 12:26:19.
