data_PCOD8330000
_publ_section_title
;
Structure prediction by ZEFSAII (Michael W. Deem and Ramdas Pophale) SiO2 
 PCOD8330000
Probable space group: P 63/M C M
;
_chemical_formula_sum "Si O2"
_cell_formula_units_Z 144
_cell_length_a 32.099474
_cell_length_b 32.099474
_cell_length_c 8.851771
_cell_angle_alpha 90.000000
_cell_angle_beta 90.000000
_cell_angle_gamma 120.000000
_cell_volume 7898.718445
_symmetry_space_group_name_H-M "P 63/M C M"
_symmetry_group_IT_number 193
_symmetry_cell_setting 'hexagonal'
loop_
_space_group_symop_operation_xyz
x,y,z
x-y,x,1/2+z
-y,x-y,z
-x,-y,1/2+z
-x+y,-x,z
y,-x+y,1/2+z
x-y,-y,1/2-z
-x,-x+y,1/2-z
y,x,1/2-z
-y,-x,-z
-x+y,y,-z
x,x-y,-z
-x,-y,-z
-x+y,-x,1/2-z
y,-x+y,-z
x,y,1/2-z
x-y,x,-z
-y,x-y,1/2-z
-x+y,y,1/2+z
x,x-y,1/2+z
-y,-x,1/2+z
y,x,z
x-y,-y,z
-x,-x+y,z
loop_
_atom_site_type_symbol
_atom_site_label
_atom_site_fract_x
_atom_site_fract_y
_atom_site_fract_z
Si Si1 0.099925 0.380425 0.922396
Si Si2 0.477059 0.194510 0.925725
Si Si3 0.054814 0.194984 0.927756
Si Si4 0.718898 0.773917 0.425383
Si Si5 0.527910 0.142714 0.428708
Si Si6 0.944962 0.555806 0.074661
O O1 0.090538 0.362240 0.750000
O O2 0.154983 0.421217 0.948486
O O3 0.065118 0.401223 0.967375
O O4 0.088917 0.336273 0.029812
O O5 0.490594 0.202191 0.750000
O O6 0.487687 0.243844 0.000000
O O7 0.510706 0.178132 0.007782
O O8 0.060608 0.196514 0.750000
O O9 0.000000 0.158815 0.978437
O O10 0.087902 0.175804 0.000000
O O11 0.071759 0.248645 0.984977
O O12 0.725156 0.786813 0.250000
O O13 0.735030 0.735030 0.465883
O O14 0.579590 0.159179 0.500000
O O15 0.532096 0.146896 0.250000
O O16 0.490842 0.087594 0.474600
O O17 0.931537 0.541895 0.250000
O O18 0.000000 0.572496 0.039543
#
# Coordination Sequence:
#
# PCOD8330000 Si02
#       6
#    24  24  24  24  24  24
#     4   9  18  32  50  73 105 144 183 222 261 303
#     4  10  21  38  58  81 107 137 174 215 263 316
#     4  10  21  37  57  79 103 133 168 208 257 310
#     4  10  20  32  48  73 106 143 182 222 260 301
#     4  11  22  37  57  80 107 139 175 217 264 315
#     4   9  18  33  52  75 106 144 184 225 267 310
#
# _framework density 18.230806000000001
#
# number of rings (size 3 to 8) (size 9 to 14) (size 15 to 20)
#    0.000    2.167    0.000    4.500    0.000    7.333 
#    0.000    1.667    0.000    0.500    0.000    2.333 
#    0.000    0.000    0.000    0.000    0.000    0.000 
#
# Total GULP energy -1786185.599767 kJ/mol
# GULP energy per Si atom -12404.066665 kJ/mol
# Density = 1.818931 g / cm^3
# Si number density = 18.230806 Si / 1000 Ang^3
#
#
#
# Elastic Constant Matrix: (Units=GPa)
#
#
# Indices 1 2 3 4 5 6 
#
# 1 87.4366 69.8040 54.6418 0.0000 0.0000 0.0000
# 2 69.8040 87.4366 54.6418 0.0000 0.0000 0.0000
# 3 54.6418 54.6418 114.7876 0.0000 0.0000 0.0000
# 4 0.0000 0.0000 0.0000 32.5419 0.0000 0.0000
# 5 0.0000 0.0000 0.0000 0.0000 32.5419 0.0000
# 6 0.0000 0.0000 0.0000 0.0000 0.0000 8.8163
#
#
#
# Elastic Compliance Matrix: (Units=1/GPa)
#
#
# Indices 1 2 3 4 5 6 
#
# 1 0.033108 -0.023604 -0.004524 0.000000 0.000000 0.000000
# 2 -0.023604 0.033108 -0.004524 0.000000 0.000000 0.000000
# 3 -0.004524 -0.004524 0.013019 0.000000 0.000000 0.000000
# 4 0.000000 0.000000 0.000000 0.030730 0.000000 0.000000
# 5 0.000000 0.000000 0.000000 0.000000 0.030730 0.000000
# 6 0.000000 0.000000 0.000000 0.000000 0.000000 0.113426
#
#
# Mechanical properties :
#
#
# Convention : Reuss Voigt Hill
#
# Bulk Modulus (GPa) = 71.78557 71.98180 71.88369
# Shear Modulus (GPa) = 15.42876 22.15157 18.79016
#
# Velocity S-wave (km/s) = 2.91228 3.48956 3.21391
# Velocity P-wave (km/s) = 7.12530 7.47030 7.29984
#
# Compressibility (1/GPa) = 0.01393038
#
# Stress axis : x y z
#
# Youngs Moduli (GPa) = 30.20373 30.20373 76.81105
#
# Poissons Ratio (x) = 0.71294 0.34750
# Poissons Ratio (y) = 0.71294 0.34750
# Poissons Ratio (z) = 0.13665 0.13665
#
# Static dielectric constant tensor:
#      x y z
#    x 3.291820 0.000000 0.000000 
#    y 0.000000 3.291820 0.000000 
#    z 0.000000 0.000000 3.374770 
# 
# 
# High freq. dielectric constant tensor:
#      x y z
#    x 1.697140 0.000000 0.000000 
#    y 0.000000 1.697140 0.000000 
#    z 0.000000 0.000000 1.715470 
# 
# From -- ./inp_files/1488.got.cif
#   From: 2010.03.12/outbox.cif.g09.slc.cpg/sg193_1_cif.got.tgz:1488.got - 2010.04.01 12:20:39.
