data_PCOD8330247
_publ_section_title
;
Structure prediction by ZEFSAII (Michael W. Deem and Ramdas Pophale) SiO2 
 PCOD8330247
Probable space group: P 63/M C M
;
_chemical_formula_sum "Si O2"
_cell_formula_units_Z 64
_cell_length_a 14.338160
_cell_length_b 14.338160
_cell_length_c 18.338958
_cell_angle_alpha 90.000000
_cell_angle_beta 90.000000
_cell_angle_gamma 120.000000
_cell_volume 3265.067262
_symmetry_space_group_name_H-M "P 63/M C M"
_symmetry_group_IT_number 193
_symmetry_cell_setting 'hexagonal'
loop_
_space_group_symop_operation_xyz
x,y,z
x-y,x,1/2+z
-y,x-y,z
-x,-y,1/2+z
-x+y,-x,z
y,-x+y,1/2+z
x-y,-y,1/2-z
-x,-x+y,1/2-z
y,x,1/2-z
-y,-x,-z
-x+y,y,-z
x,x-y,-z
-x,-y,-z
-x+y,-x,1/2-z
y,-x+y,-z
x,y,1/2-z
x-y,x,-z
-y,x-y,1/2-z
-x+y,y,1/2+z
x,x-y,1/2+z
-y,-x,1/2+z
y,x,z
x-y,-y,z
-x,-x+y,z
loop_
_atom_site_type_symbol
_atom_site_label
_atom_site_fract_x
_atom_site_fract_y
_atom_site_fract_z
Si Si1 0.127066 0.336319 0.920036
Si Si2 0.000000 0.000000 0.336490
Si Si3 0.000000 0.208767 0.336226
Si Si4 0.225326 0.539008 0.668060
O O1 0.198734 0.307675 0.866904
O O2 0.148483 0.451704 0.891279
O O3 0.000000 0.250258 0.917273
O O4 0.173392 0.346784 0.000000
O O5 0.896192 0.896192 0.366679
O O6 0.000000 0.000000 0.250000
O O7 0.000000 0.217762 0.250000
O O8 0.351168 0.570950 0.657568
O O9 0.186795 0.493614 0.750000
#
# Coordination Sequence:
#
# PCOD8330247 Si02
#       4
#    24   4  12  24
#     4  12  24  39  60  92 132 167 204 255 317 380
#     4   9  18  33  55  80 109 156 205 257 304 342
#     4  11  22  37  59  85 120 169 217 254 302 371
#     4   8  19  43  67  87 117 158 208 264 312 364
#
# _framework density 19.601433
#
# number of rings (size 3 to 8) (size 9 to 14) (size 15 to 20)
#    0.750    1.125    3.750    1.125    0.000    3.750 
#    3.375    3.750    0.000    0.000    0.000    0.000 
#    0.000    0.000    0.000    0.000    0.000    0.000 
#
# Total GULP energy -793165.582783 kJ/mol
# GULP energy per Si atom -12393.212231 kJ/mol
# Density = 1.955682 g / cm^3
# Si number density = 19.601433 Si / 1000 Ang^3
#
#
#
# Elastic Constant Matrix: (Units=GPa)
#
#
# Indices 1 2 3 4 5 6 
#
# 1 60.3046 13.4360 39.9812 0.0000 0.0000 0.0000
# 2 13.4360 60.3046 39.9812 0.0000 0.0000 0.0000
# 3 39.9812 39.9812 134.4356 0.0000 0.0000 0.0000
# 4 0.0000 0.0000 0.0000 27.6659 0.0000 0.0000
# 5 0.0000 0.0000 0.0000 0.0000 27.6659 0.0000
# 6 0.0000 0.0000 0.0000 0.0000 0.0000 23.4343
#
#
#
# Elastic Compliance Matrix: (Units=1/GPa)
#
#
# Indices 1 2 3 4 5 6 
#
# 1 0.020676 -0.000660 -0.005953 0.000000 0.000000 0.000000
# 2 -0.000660 0.020676 -0.005953 0.000000 0.000000 0.000000
# 3 -0.005953 -0.005953 0.010979 0.000000 0.000000 0.000000
# 4 0.000000 0.000000 0.000000 0.036146 0.000000 0.000000
# 5 0.000000 0.000000 0.000000 0.000000 0.036146 0.000000
# 6 0.000000 0.000000 0.000000 0.000000 0.000000 0.042672
#
#
# Mechanical properties :
#
#
# Convention : Reuss Voigt Hill
#
# Bulk Modulus (GPa) = 36.76436 49.09350 42.92893
# Shear Modulus (GPa) = 24.81472 26.52965 25.67218
#
# Velocity S-wave (km/s) = 3.56190 3.68292 3.62292
# Velocity P-wave (km/s) = 5.97602 6.57157 6.28086
#
# Compressibility (1/GPa) = 0.02720025
#
# Stress axis : x y z
#
# Youngs Moduli (GPa) = 48.36488 48.36488 91.08108
#
# Poissons Ratio (x) = 0.03192 0.54219
# Poissons Ratio (y) = 0.03192 0.54219
# Poissons Ratio (z) = 0.28791 0.28791
#
# Static dielectric constant tensor:
#      x y z
#    x 3.402280 0.000000 0.000000 
#    y 0.000000 3.402280 0.000000 
#    z 0.000000 0.000000 3.393420 
# 
# 
# High freq. dielectric constant tensor:
#      x y z
#    x 1.750430 0.000000 0.000000 
#    y 0.000000 1.750430 0.000000 
#    z 0.000000 0.000000 1.764080 
# 
# From -- ./inp_files/4743.got.cif
#   From: 2010.03.12/outbox.cif.g09.slc.cpg/sg193_3_cif.got.tgz:4743.got - 2010.04.01 12:20:39.
