data_PCOD8330350
_publ_section_title
;
Structure prediction by ZEFSAII (Michael W. Deem and Ramdas Pophale) SiO2 
 PCOD8330350
Probable space group: P 63/M M C
;
_chemical_formula_sum "Si O2"
_cell_formula_units_Z 112
_cell_length_a 20.465869
_cell_length_b 20.465869
_cell_length_c 23.638903
_cell_angle_alpha 90.000000
_cell_angle_beta 90.000000
_cell_angle_gamma 120.000000
_cell_volume 8574.688067
_symmetry_space_group_name_H-M "P 63/M M C"
_symmetry_group_IT_number 194
_symmetry_cell_setting 'hexagonal'
loop_
_space_group_symop_operation_xyz
x,y,z
x-y,x,1/2+z
-y,x-y,z
-x,-y,1/2+z
-x+y,-x,z
y,-x+y,1/2+z
x-y,-y,-z
-x,-x+y,-z
y,x,-z
-y,-x,1/2-z
-x+y,y,1/2-z
x,x-y,1/2-z
-x,-y,-z
-x+y,-x,1/2-z
y,-x+y,-z
x,y,1/2-z
x-y,x,-z
-y,x-y,1/2-z
-x+y,y,z
x,x-y,z
-y,-x,z
y,x,1/2+z
x-y,-y,1/2+z
-x,-x+y,1/2+z
loop_
_atom_site_type_symbol
_atom_site_label
_atom_site_fract_x
_atom_site_fract_y
_atom_site_fract_z
Si Si1 0.372316 0.896034 0.866884
Si Si2 0.750945 0.501889 0.316637
Si Si3 0.052808 0.603675 0.313425
Si Si4 0.082683 0.616728 0.996067
Si Si5 0.332716 0.511918 0.400083
Si Si6 0.333334 0.666667 0.682603
O O1 0.441365 0.882729 0.848809
O O2 0.294123 0.836672 0.837745
O O3 0.358061 0.884775 0.933645
O O4 0.388884 0.978036 0.846817
O O5 0.751046 0.502092 0.250000
O O6 0.708739 0.417477 0.341763
O O7 0.054736 0.634690 0.250000
O O8 0.051975 0.525988 0.309794
O O9 0.126164 0.663122 0.348051
O O10 0.071963 0.535982 0.012888
O O11 0.141115 0.674888 0.041837
O O12 0.000000 0.609160 0.000000
O O13 0.259246 0.518491 0.391625
O O14 0.404245 0.595756 0.401287
O O15 0.333334 0.666667 0.750000
#
# Coordination Sequence:
#
# PCOD8330350 Si02
#       6
#    24  12  24  24  24   4
#     4  10  18  28  42  57  75 102 134 166 200 241
#     4  11  20  28  38  56  82 107 130 164 205 244
#     4   9  17  29  44  58  72  97 133 167 202 247
#     4   9  16  29  44  56  71  95 128 163 197 236
#     4  10  19  30  43  60  81 103 130 169 214 249
#     4   9  18  30  36  48  81 111 129 156 205 248
#
# _framework density 13.061699000000001
#
# number of rings (size 3 to 8) (size 9 to 14) (size 15 to 20)
#    0.000    2.357    3.214    0.857    1.500    1.286 
#    0.000    0.000    0.000    1.286    0.000    0.000 
#    0.000    0.000    0.000    0.000    0.000    0.000 
#
# Total GULP energy -1388423.611730 kJ/mol
# GULP energy per Si atom -12396.639390 kJ/mol
# Density = 1.303197 g / cm^3
# Si number density = 13.061699 Si / 1000 Ang^3
#
#
#
# Elastic Constant Matrix: (Units=GPa)
#
#
# Indices 1 2 3 4 5 6 
#
# 1 61.8667 30.3732 30.2856 0.0000 0.0000 0.0000
# 2 30.3732 61.8666 30.2856 0.0000 0.0000 0.0000
# 3 30.2856 30.2856 92.0092 0.0000 0.0000 0.0000
# 4 0.0000 0.0000 0.0000 16.0515 0.0000 0.0000
# 5 0.0000 0.0000 0.0000 0.0000 16.0515 0.0000
# 6 0.0000 0.0000 0.0000 0.0000 0.0000 15.7467
#
#
#
# Elastic Compliance Matrix: (Units=1/GPa)
#
#
# Indices 1 2 3 4 5 6 
#
# 1 0.022792 -0.008961 -0.004553 0.000000 0.000000 0.000000
# 2 -0.008961 0.022792 -0.004553 0.000000 0.000000 0.000000
# 3 -0.004553 -0.004553 0.013865 0.000000 0.000000 0.000000
# 4 0.000000 0.000000 0.000000 0.062300 0.000000 0.000000
# 5 0.000000 0.000000 0.000000 0.000000 0.062299 0.000000
# 6 0.000000 0.000000 0.000000 0.000000 0.000000 0.063505
#
#
# Mechanical properties :
#
#
# Convention : Reuss Voigt Hill
#
# Bulk Modulus (GPa) = 42.88717 44.18124 43.53420
# Shear Modulus (GPa) = 17.15515 17.88981 17.52248
#
# Velocity S-wave (km/s) = 3.62801 3.70488 3.66665
# Velocity P-wave (km/s) = 7.10320 7.22495 7.16434
#
# Compressibility (1/GPa) = 0.02331700
#
# Stress axis : x y z
#
# Youngs Moduli (GPa) = 43.87560 43.87548 72.12154
#
# Poissons Ratio (x) = 0.39317 0.32833
# Poissons Ratio (y) = 0.39317 0.32834
# Poissons Ratio (z) = 0.19974 0.19974
#
# Static dielectric constant tensor:
#      x y z
#    x 2.400180 0.000000 0.000000 
#    y 0.000000 2.400180 0.000000 
#    z 0.000000 0.000000 2.840320 
# 
# 
# High freq. dielectric constant tensor:
#      x y z
#    x 1.459940 0.000000 0.000000 
#    y 0.000000 1.459940 0.000000 
#    z 0.000000 0.000000 1.515590 
# 
# From -- ./inp_files/8088.got.cif
#   From: 2010.03.12/outbox.cif.g09.slc.cpg/sg194_5_cif.got.tgz:8088.got - 2010.04.01 12:26:19.
