data_PCOD8330226
_publ_section_title
;
Structure prediction by ZEFSAII (Michael W. Deem and Ramdas Pophale) SiO2 
 PCOD8330226
Probable space group: P 63/M C M
;
_chemical_formula_sum "Si O2"
_cell_formula_units_Z 120
_cell_length_a 18.077088
_cell_length_b 18.077088
_cell_length_c 23.572807
_cell_angle_alpha 90.000000
_cell_angle_beta 90.000000
_cell_angle_gamma 120.000000
_cell_volume 6671.121901
_symmetry_space_group_name_H-M "P 63/M C M"
_symmetry_group_IT_number 193
_symmetry_cell_setting 'hexagonal'
loop_
_space_group_symop_operation_xyz
x,y,z
x-y,x,1/2+z
-y,x-y,z
-x,-y,1/2+z
-x+y,-x,z
y,-x+y,1/2+z
x-y,-y,1/2-z
-x,-x+y,1/2-z
y,x,1/2-z
-y,-x,-z
-x+y,y,-z
x,x-y,-z
-x,-y,-z
-x+y,-x,1/2-z
y,-x+y,-z
x,y,1/2-z
x-y,x,-z
-y,x-y,1/2-z
-x+y,y,1/2+z
x,x-y,1/2+z
-y,-x,1/2+z
y,x,z
x-y,-y,z
-x,-x+y,z
loop_
_atom_site_type_symbol
_atom_site_label
_atom_site_fract_x
_atom_site_fract_y
_atom_site_fract_z
Si Si1 0.238735 0.333334 0.039126
Si Si2 0.093492 0.900853 0.250000
Si Si3 0.000000 0.498937 0.661140
Si Si4 0.239841 0.474027 0.250000
Si Si5 0.427932 0.000000 0.960874
Si Si6 0.432480 0.859306 0.250000
Si Si7 0.167730 0.834397 0.661140
Si Si8 0.666667 0.666667 0.319631
O O1 0.249475 0.249475 0.028758
O O2 0.333334 0.417192 0.028758
O O3 0.211853 0.333333 0.103280
O O4 0.166667 0.333334 0.000000
O O5 0.101625 0.853623 0.305059
O O6 0.000000 0.891027 0.250000
O O7 0.166213 0.000000 0.250000
O O8 0.085331 0.520289 0.694941
O O9 0.000000 0.454814 0.603280
O O10 0.000000 0.586441 0.652832
O O11 0.167121 0.500454 0.250000
O O12 0.333333 0.557693 0.250000
O O13 0.231708 0.418664 0.305059
O O14 0.500000 0.000000 0.000000
O O15 0.080226 0.746893 0.652832
O O16 0.666667 0.666667 0.250000
#
# Coordination Sequence:
#
# PCOD8330226 Si02
#       8
#    24  12  12  12  12  12  24  12
#     4  10  25  43  64  96 121 160 215 263 327 377
#     4  11  21  34  56  86 127 167 204 248 308 375
#     4  11  20  38  59  88 123 154 210 259 302 374
#     4  11  21  34  56  86 127 167 204 248 308 375
#     4  10  25  43  64  96 121 160 215 263 327 377
#     4  11  21  34  56  86 127 167 204 248 308 375
#     4  11  20  38  59  88 123 154 210 259 302 374
#     4  12  18  36  66  99 114 171 216 241 302 382
#
# _framework density 17.987978999999999
#
# number of rings (size 3 to 8) (size 9 to 14) (size 15 to 20)
#    0.600    0.600    6.000    2.100    4.200    0.000 
#    7.200    0.000    0.000    0.600    0.000    0.000 
#    0.000    0.000    0.000    0.000    0.000    0.000 
#
# Total GULP energy -1487118.087730 kJ/mol
# GULP energy per Si atom -12392.650731 kJ/mol
# Density = 1.794704 g / cm^3
# Si number density = 17.987979 Si / 1000 Ang^3
#
#
#
# Elastic Constant Matrix: (Units=GPa)
#
#
# Indices 1 2 3 4 5 6 
#
# 1 123.0881 44.3735 56.2240 0.0000 0.0000 0.0000
# 2 44.3735 123.0881 56.2240 0.0000 0.0000 0.0000
# 3 56.2240 56.2240 122.4339 0.0000 0.0000 0.0000
# 4 0.0000 0.0000 0.0000 42.4333 0.0000 0.0000
# 5 0.0000 0.0000 0.0000 0.0000 42.4333 0.0000
# 6 0.0000 0.0000 0.0000 0.0000 0.0000 39.3573
#
#
#
# Elastic Compliance Matrix: (Units=1/GPa)
#
#
# Indices 1 2 3 4 5 6 
#
# 1 0.010669 -0.002035 -0.003965 0.000000 0.000000 0.000000
# 2 -0.002035 0.010669 -0.003965 0.000000 0.000000 0.000000
# 3 -0.003965 -0.003965 0.011809 0.000000 0.000000 0.000000
# 4 0.000000 0.000000 0.000000 0.023566 0.000000 0.000000
# 5 0.000000 0.000000 0.000000 0.000000 0.023566 0.000000
# 6 0.000000 0.000000 0.000000 0.000000 0.000000 0.025408
#
#
# Mechanical properties :
#
#
# Convention : Reuss Voigt Hill
#
# Bulk Modulus (GPa) = 75.65727 75.80589 75.73158
# Shear Modulus (GPa) = 38.45458 38.96402 38.70930
#
# Velocity S-wave (km/s) = 4.62864 4.65920 4.64395
# Velocity P-wave (km/s) = 8.40934 8.43672 8.42304
#
# Compressibility (1/GPa) = 0.01321750
#
# Stress axis : x y z
#
# Youngs Moduli (GPa) = 93.72973 93.72973 84.68041
#
# Poissons Ratio (x) = 0.19075 0.33574
# Poissons Ratio (y) = 0.19075 0.33574
# Poissons Ratio (z) = 0.37162 0.37162
#
# Static dielectric constant tensor:
#      x y z
#    x 3.352240 0.000000 0.000000 
#    y 0.000000 3.352240 0.000000 
#    z 0.000000 0.000000 3.154420 
# 
# 
# High freq. dielectric constant tensor:
#      x y z
#    x 1.700480 0.000000 0.000000 
#    y 0.000000 1.700480 0.000000 
#    z 0.000000 0.000000 1.683220 
# 
# From -- ./inp_files/7437.got.cif
#   From: 2010.03.12/outbox.cif.g09.slc.cpg/sg193_4_cif.got.tgz:7437.got - 2010.04.01 12:20:39.
