data_PCOD8330532
_publ_section_title
;
Structure prediction by ZEFSAII (Michael W. Deem and Ramdas Pophale) SiO2 
 PCOD8330532
Probable space group: P 63/M M C
;
_chemical_formula_sum "Si O2"
_cell_formula_units_Z 96
_cell_length_a 18.222090
_cell_length_b 18.222090
_cell_length_c 17.721076
_cell_angle_alpha 90.000000
_cell_angle_beta 90.000000
_cell_angle_gamma 120.000000
_cell_volume 5095.855382
_symmetry_space_group_name_H-M "P 63/M M C"
_symmetry_group_IT_number 194
_symmetry_cell_setting 'hexagonal'
loop_
_space_group_symop_operation_xyz
x,y,z
x-y,x,1/2+z
-y,x-y,z
-x,-y,1/2+z
-x+y,-x,z
y,-x+y,1/2+z
x-y,-y,-z
-x,-x+y,-z
y,x,-z
-y,-x,1/2-z
-x+y,y,1/2-z
x,x-y,1/2-z
-x,-y,-z
-x+y,-x,1/2-z
y,-x+y,-z
x,y,1/2-z
x-y,x,-z
-y,x-y,1/2-z
-x+y,y,z
x,x-y,z
-y,-x,z
y,x,1/2+z
x-y,-y,1/2+z
-x,-x+y,1/2+z
loop_
_atom_site_type_symbol
_atom_site_label
_atom_site_fract_x
_atom_site_fract_y
_atom_site_fract_z
Si Si1 0.331955 0.002611 0.337237
Si Si2 0.164431 0.164192 0.339685
Si Si3 0.376478 0.913638 0.046218
Si Si4 0.504430 0.669143 0.604708
O O1 0.321368 0.976568 0.250000
O O2 0.419628 0.089469 0.348893
O O3 0.254465 0.013583 0.366554
O O4 0.326034 0.923526 0.383943
O O5 0.160669 0.160043 0.250000
O O6 0.087936 0.175871 0.371701
O O7 0.154944 0.077472 0.372679
O O8 0.446275 0.892549 0.079739
O O9 0.317630 0.842682 0.985163
O O10 0.422841 0.000000 0.000000
O O11 0.492194 0.746097 0.633377
O O12 0.419639 0.580362 0.620946
#
# Coordination Sequence:
#
# PCOD8330532 Si02
#       4
#    24  24  24  24
#     4  10  19  31  50  77 106 131 162 210 264 316
#     4   9  17  29  45  66  94 128 163 198 239 290
#     4   8  16  31  48  67  93 127 167 206 246 295
#     4  10  20  34  52  74 102 138 178 216 255 305
#
# _framework density 18.838840000000001
#
# number of rings (size 3 to 8) (size 9 to 14) (size 15 to 20)
#    0.000    2.750    0.000    3.500    0.000    5.500 
#    0.000    0.000    0.000    1.500    0.000    0.000 
#    0.000   22.000    0.000    0.000    0.000    0.000 
#
# Total GULP energy -1189915.030992 kJ/mol
# GULP energy per Si atom -12394.948239 kJ/mol
# Density = 1.879596 g / cm^3
# Si number density = 18.838840 Si / 1000 Ang^3
#
#
#
# Elastic Constant Matrix: (Units=GPa)
#
#
# Indices 1 2 3 4 5 6 
#
# 1 77.6257 25.6568 12.5743 0.0000 0.0000 0.0000
# 2 25.6568 77.6257 12.5743 0.0000 0.0000 0.0000
# 3 12.5743 12.5743 50.3766 0.0000 0.0000 0.0000
# 4 0.0000 0.0000 0.0000 20.4080 0.0000 0.0000
# 5 0.0000 0.0000 0.0000 0.0000 20.4080 0.0000
# 6 0.0000 0.0000 0.0000 0.0000 0.0000 25.9844
#
#
#
# Elastic Compliance Matrix: (Units=1/GPa)
#
#
# Indices 1 2 3 4 5 6 
#
# 1 0.014776 -0.004467 -0.002573 0.000000 0.000000 0.000000
# 2 -0.004467 0.014776 -0.002573 0.000000 0.000000 0.000000
# 3 -0.002573 -0.002573 0.021135 0.000000 0.000000 0.000000
# 4 0.000000 0.000000 0.000000 0.049000 0.000000 0.000000
# 5 0.000000 0.000000 0.000000 0.000000 0.049000 0.000000
# 6 0.000000 0.000000 0.000000 0.000000 0.000000 0.038485
#
#
# Mechanical properties :
#
#
# Convention : Reuss Voigt Hill
#
# Bulk Modulus (GPa) = 31.78643 34.13765 32.96204
# Shear Modulus (GPa) = 23.05380 23.68160 23.36770
#
# Velocity S-wave (km/s) = 3.50199 3.54935 3.52575
# Velocity P-wave (km/s) = 5.76727 5.91248 5.84033
#
# Compressibility (1/GPa) = 0.03145996
#
# Stress axis : x y z
#
# Youngs Moduli (GPa) = 67.67958 67.67958 47.31487
#
# Poissons Ratio (x) = 0.30231 0.12175
# Poissons Ratio (y) = 0.30231 0.12175
# Poissons Ratio (z) = 0.17415 0.17415
#
# Static dielectric constant tensor:
#      x y z
#    x 3.543400 0.000000 0.000000 
#    y 0.000000 3.543400 0.000000 
#    z 0.000000 0.000000 3.270990 
# 
# 
# High freq. dielectric constant tensor:
#      x y z
#    x 1.729380 0.000000 0.000000 
#    y 0.000000 1.729380 0.000000 
#    z 0.000000 0.000000 1.698870 
# 
# From -- ./inp_files/4572.got.cif
#   From: 2010.03.12/outbox.cif.g09.slc.cpg/sg194_3_cif.got.tgz:4572.got - 2010.04.01 12:26:19.
