data_PCOD8330298
_publ_section_title
;
Structure prediction by ZEFSAII (Michael W. Deem and Ramdas Pophale) SiO2 
 PCOD8330298
Probable space group: P 63/M M C
;
_chemical_formula_sum "Si O2"
_cell_formula_units_Z 120
_cell_length_a 17.590890
_cell_length_b 17.590890
_cell_length_c 32.635723
_cell_angle_alpha 90.000000
_cell_angle_beta 90.000000
_cell_angle_gamma 120.000000
_cell_volume 8745.799077
_symmetry_space_group_name_H-M "P 63/M M C"
_symmetry_group_IT_number 194
_symmetry_cell_setting 'hexagonal'
loop_
_space_group_symop_operation_xyz
x,y,z
x-y,x,1/2+z
-y,x-y,z
-x,-y,1/2+z
-x+y,-x,z
y,-x+y,1/2+z
x-y,-y,-z
-x,-x+y,-z
y,x,-z
-y,-x,1/2-z
-x+y,y,1/2-z
x,x-y,1/2-z
-x,-y,-z
-x+y,-x,1/2-z
y,-x+y,-z
x,y,1/2-z
x-y,x,-z
-y,x-y,1/2-z
-x+y,y,z
x,x-y,z
-y,-x,z
y,x,1/2+z
x-y,-y,1/2+z
-x,-x+y,1/2+z
loop_
_atom_site_type_symbol
_atom_site_label
_atom_site_fract_x
_atom_site_fract_y
_atom_site_fract_z
Si Si1 0.367402 0.458217 0.985606
Si Si2 0.163381 0.495350 0.071771
Si Si3 0.333152 0.488991 0.296877
Si Si4 0.022829 0.600623 0.135675
Si Si5 0.330751 0.843050 0.601252
O O1 0.466034 0.533967 0.975102
O O2 0.312204 0.445507 0.944455
O O3 0.372320 0.372320 0.000000
O O4 0.325583 0.484340 0.022835
O O5 0.240965 0.481930 0.088934
O O6 0.185288 0.592644 0.083910
O O7 0.073433 0.424910 0.093796
O O8 0.332679 0.461141 0.250000
O O9 0.244088 0.488176 0.308281
O O10 0.413115 0.586886 0.305273
O O11 0.341161 0.416830 0.324841
O O12 0.017888 0.508944 0.140289
O O13 0.922205 0.578953 0.131537
O O14 0.414153 0.828305 0.602084
O O15 0.245695 0.754306 0.616265
#
# Coordination Sequence:
#
# PCOD8330298 Si02
#       5
#    24  24  24  24  24
#     4   9  15  25  37  49  70 100 131 165 201 232
#     4  10  17  24  35  52  75 102 131 158 186 224
#     4   9  16  26  41  61  84 109 135 158 180 216
#     4   9  17  27  38  53  76 103 128 160 201 234
#     4  10  18  28  41  55  72  99 139 179 207 230
#
# _framework density 13.720874
#
# number of rings (size 3 to 8) (size 9 to 14) (size 15 to 20)
#    0.000    2.600    2.000    1.800    0.000    0.800 
#    0.000    4.000    0.000    0.600    0.000    0.000 
#    0.000    1.600    0.000    4.800    0.000    9.000 
#
# Total GULP energy -1486935.502778 kJ/mol
# GULP energy per Si atom -12391.129190 kJ/mol
# Density = 1.368964 g / cm^3
# Si number density = 13.720874 Si / 1000 Ang^3
#
#
#
# Elastic Constant Matrix: (Units=GPa)
#
#
# Indices 1 2 3 4 5 6 
#
# 1 69.8982 35.9219 28.8369 0.0000 0.0000 0.0000
# 2 35.9219 69.8982 28.8369 0.0000 0.0000 0.0000
# 3 28.8369 28.8369 75.4672 0.0000 0.0000 0.0000
# 4 0.0000 0.0000 0.0000 15.2018 0.0000 0.0000
# 5 0.0000 0.0000 0.0000 0.0000 15.2018 0.0000
# 6 0.0000 0.0000 0.0000 0.0000 0.0000 16.9882
#
#
#
# Elastic Compliance Matrix: (Units=1/GPa)
#
#
# Indices 1 2 3 4 5 6 
#
# 1 0.020684 -0.008748 -0.004561 0.000000 0.000000 0.000000
# 2 -0.008748 0.020684 -0.004561 0.000000 0.000000 0.000000
# 3 -0.004561 -0.004561 0.016736 0.000000 0.000000 0.000000
# 4 0.000000 0.000000 0.000000 0.065782 0.000000 0.000000
# 5 0.000000 0.000000 0.000000 0.000000 0.065782 0.000000
# 6 0.000000 0.000000 0.000000 0.000000 0.000000 0.058864
#
#
# Mechanical properties :
#
#
# Convention : Reuss Voigt Hill
#
# Bulk Modulus (GPa) = 44.71358 44.71720 44.71539
# Shear Modulus (GPa) = 17.13933 17.58955 17.36444
#
# Velocity S-wave (km/s) = 3.53816 3.58433 3.56132
# Velocity P-wave (km/s) = 7.02497 7.05629 7.04065
#
# Compressibility (1/GPa) = 0.02236457
#
# Stress axis : x y z
#
# Youngs Moduli (GPa) = 48.34663 48.34663 59.75063
#
# Poissons Ratio (x) = 0.42295 0.27251
# Poissons Ratio (y) = 0.42295 0.27251
# Poissons Ratio (z) = 0.22050 0.22050
#
# Static dielectric constant tensor:
#      x y z
#    x 2.557630 0.000000 0.000000 
#    y 0.000000 2.557630 0.000000 
#    z 0.000000 0.000000 2.831070 
# 
# 
# High freq. dielectric constant tensor:
#      x y z
#    x 1.489440 0.000000 0.000000 
#    y 0.000000 1.489440 0.000000 
#    z 0.000000 0.000000 1.523370 
# 
# From -- ./inp_files/11869.got.cif
#   From: 2010.03.12/outbox.cif.g09.slc.cpg/sg194_6_cif.got.tgz:11869.got - 2010.04.01 12:26:19.
