data_PCOD8330944
_publ_section_title
;
Structure prediction by ZEFSAII (Michael W. Deem and Ramdas Pophale) SiO2 
 PCOD8330944
Probable space group: I M 3
;
_chemical_formula_sum "Si O2"
_cell_formula_units_Z 120
_cell_length_a 17.741885
_cell_length_b 17.741885
_cell_length_c 17.741885
_cell_angle_alpha 90.000000
_cell_angle_beta 90.000000
_cell_angle_gamma 90.000000
_cell_volume 5584.692685
_symmetry_space_group_name_H-M "I M 3"
_symmetry_group_IT_number 204
_symmetry_cell_setting 'cubic'
loop_
_space_group_symop_operation_xyz
x,y,z
z,x,y
y,z,x
-y,-z,x
z,-x,-y
-y,z,-x
-z,-x,y
-z,x,-y
y,-z,-x
-x,-y,z
x,-y,-z
-x,y,-z
-x,-y,-z
-z,-x,-y
-y,-z,-x
y,z,-x
-z,x,y
y,-z,x
z,x,-y
z,-x,y
-y,z,x
x,y,-z
-x,y,z
x,-y,z
1/2+x,1/2+y,1/2+z
1/2+z,1/2+x,1/2+y
1/2+y,1/2+z,1/2+x
1/2-y,1/2-z,1/2+x
1/2+z,1/2-x,1/2-y
1/2-y,1/2+z,1/2-x
1/2-z,1/2-x,1/2+y
1/2-z,1/2+x,1/2-y
1/2+y,1/2-z,1/2-x
1/2-x,1/2-y,1/2+z
1/2+x,1/2-y,1/2-z
1/2-x,1/2+y,1/2-z
1/2-x,1/2-y,1/2-z
1/2-z,1/2-x,1/2-y
1/2-y,1/2-z,1/2-x
1/2+y,1/2+z,1/2-x
1/2-z,1/2+x,1/2+y
1/2+y,1/2-z,1/2+x
1/2+z,1/2+x,1/2-y
1/2+z,1/2-x,1/2+y
1/2-y,1/2+z,1/2+x
1/2+x,1/2+y,1/2-z
1/2-x,1/2+y,1/2+z
1/2+x,1/2-y,1/2+z
loop_
_atom_site_type_symbol
_atom_site_label
_atom_site_fract_x
_atom_site_fract_y
_atom_site_fract_z
Si Si1 0.379062 0.712479 0.419294
Si Si2 0.160590 0.169268 0.643220
Si Si3 0.410406 0.000000 0.411150
O O1 0.313245 0.649230 0.432109
O O2 0.421920 0.719082 0.500000
O O3 0.341819 0.791872 0.400831
O O4 0.167218 0.259486 0.632752
O O5 0.129062 0.126999 0.570889
O O6 0.500000 0.000000 0.397000
O O7 0.392038 0.000000 0.500000
#
# Coordination Sequence:
#
# PCOD8330944 Si02
#       3
#    48  48  24
#     4  10  22  41  66  99 136 183 232 289 351 424
#     4  12  24  44  74 104 143 187 247 295 361 444
#     4  11  30  50  70 106 150 192 242 307 378 444
#
# _framework density 21.487304000000002
#
# number of rings (size 3 to 8) (size 9 to 14) (size 15 to 20)
#    0.800    0.200    4.000    1.600    8.400    2.400 
#    0.000    0.000    0.000    0.800    0.000    0.000 
#    0.000    0.000    0.000    0.000    0.000    0.000 
#
# Total GULP energy -743341.104066 kJ/mol
# GULP energy per Si atom -12389.018401 kJ/mol
# Density = 2.143840 g / cm^3
# Si number density = 21.487304 Si / 1000 Ang^3
#
#
#
# Elastic Constant Matrix: (Units=GPa)
#
#
# Indices 1 2 3 4 5 6 
#
# 1 157.2305 51.5978 51.5978 0.0000 0.0000 0.0000
# 2 51.5978 157.2305 51.5978 0.0000 0.0000 0.0000
# 3 51.5978 51.5978 157.2305 0.0000 0.0000 0.0000
# 4 0.0000 0.0000 0.0000 -198.8092 0.0000 0.0000
# 5 0.0000 0.0000 0.0000 0.0000 -198.8091 0.0000
# 6 0.0000 0.0000 0.0000 0.0000 0.0000 -198.8091
#
#
#
# Elastic Compliance Matrix: (Units=1/GPa)
#
#
# Indices 1 2 3 4 5 6 
#
# 1 0.007591 -0.001876 -0.001876 0.000000 0.000000 0.000000
# 2 -0.001876 0.007591 -0.001876 0.000000 0.000000 0.000000
# 3 -0.001876 -0.001876 0.007591 0.000000 0.000000 0.000000
# 4 0.000000 0.000000 0.000000 -0.005030 0.000000 0.000000
# 5 0.000000 0.000000 0.000000 0.000000 -0.005030 0.000000
# 6 0.000000 0.000000 0.000000 0.000000 0.000000 -0.005030
#
#
# Mechanical properties :
#
#
# Convention : Reuss Voigt Hill
#
# Bulk Modulus (GPa) = 86.80869 86.80869 86.80869
# Shear Modulus (GPa) = 219.51782 -98.15894 60.67944
#
# Velocity S-wave (km/s) = 10.11847 -6.76620 5.31987
# Velocity P-wave (km/s) = 13.30409 4.53368 8.84434
#
# Compressibility (1/GPa) = 0.01151958
#
# Stress axis : x y z
#
# Youngs Moduli (GPa) = 131.73274 131.73274 131.73274
#
# Poissons Ratio (x) = 0.24708 0.24708
# Poissons Ratio (y) = 0.24708 0.24708
# Poissons Ratio (z) = 0.24708 0.24708
#
# Static dielectric constant tensor:
#      x y z
#    x 3.889240 0.000000 0.000000 
#    y 0.000000 3.889240 0.000000 
#    z 0.000000 0.000000 3.889240 
# 
# 
# High freq. dielectric constant tensor:
#      x y z
#    x 1.845580 0.000000 0.000000 
#    y 0.000000 1.845580 0.000000 
#    z 0.000000 0.000000 1.845580 
# 
# From -- ./inp_files/237.got.cif
#   From: 2010.03.12/outbox.cif.g09.slc.cpg/sg204_cif.got.tgz:237.got - 2010.03.30 09:02:39.
