data_PCOD8330433
_publ_section_title
;
Structure prediction by ZEFSAII (Michael W. Deem and Ramdas Pophale) SiO2 
 PCOD8330433
Probable space group: P 63/M M C
;
_chemical_formula_sum "Si O2"
_cell_formula_units_Z 132
_cell_length_a 17.334429
_cell_length_b 17.334429
_cell_length_c 30.081664
_cell_angle_alpha 90.000000
_cell_angle_beta 90.000000
_cell_angle_gamma 120.000000
_cell_volume 7828.013549
_symmetry_space_group_name_H-M "P 63/M M C"
_symmetry_group_IT_number 194
_symmetry_cell_setting 'hexagonal'
loop_
_space_group_symop_operation_xyz
x,y,z
x-y,x,1/2+z
-y,x-y,z
-x,-y,1/2+z
-x+y,-x,z
y,-x+y,1/2+z
x-y,-y,-z
-x,-x+y,-z
y,x,-z
-y,-x,1/2-z
-x+y,y,1/2-z
x,x-y,1/2-z
-x,-y,-z
-x+y,-x,1/2-z
y,-x+y,-z
x,y,1/2-z
x-y,x,-z
-y,x-y,1/2-z
-x+y,y,z
x,x-y,z
-y,-x,z
y,x,1/2+z
x-y,-y,1/2+z
-x,-x+y,1/2+z
loop_
_atom_site_type_symbol
_atom_site_label
_atom_site_fract_x
_atom_site_fract_y
_atom_site_fract_z
Si Si1 0.935585 0.239690 0.801279
Si Si2 0.178264 0.999397 0.119181
Si Si3 0.492517 0.334648 0.250000
Si Si4 0.690736 0.932418 0.539937
Si Si5 0.429306 0.398691 0.331032
Si Si6 0.666757 0.155150 0.085051
O O1 0.968463 0.252071 0.750000
O O2 0.830782 0.169219 0.804347
O O3 0.991982 0.207281 0.830637
O O4 0.948525 0.330226 0.823503
O O5 0.091219 0.908782 0.104127
O O6 0.154959 0.077480 0.118815
O O7 0.257667 0.018321 0.085068
O O8 0.598340 0.401661 0.250000
O O9 0.470590 0.235295 0.250000
O O10 0.447744 0.347091 0.292943
O O11 0.717426 0.858713 0.527093
O O12 0.583783 0.885170 0.545599
O O13 0.716795 0.000000 0.500000
O O14 0.495222 0.504779 0.328468
O O15 0.443505 0.359034 0.375872
O O16 0.582293 0.164585 0.070040
O O17 0.747611 0.252390 0.099401
#
# Coordination Sequence:
#
# PCOD8330433 Si02
#       6
#    24  24  12  24  24  24
#     4  10  20  34  51  74 102 134 169 207 249 295
#     4  10  20  34  51  72 100 133 170 209 252 298
#     4  10  19  28  43  68 102 136 166 202 245 292
#     4  10  20  34  53  76 101 131 167 211 255 299
#     4  10  19  32  50  73  98 130 168 206 247 297
#     4  10  20  34  52  75 103 134 167 203 249 302
#
# _framework density 16.862514999999998
#
# number of rings (size 3 to 8) (size 9 to 14) (size 15 to 20)
#    0.000    2.000    2.727    1.545    0.000    1.455 
#    0.000    1.818    0.000    4.364    0.000    0.000 
#    0.000    0.000    0.000    0.000    0.000    0.000 
#
# Total GULP energy -1636400.436804 kJ/mol
# GULP energy per Si atom -12396.973006 kJ/mol
# Density = 1.682413 g / cm^3
# Si number density = 16.862515 Si / 1000 Ang^3
#
#
#
# Elastic Constant Matrix: (Units=GPa)
#
#
# Indices 1 2 3 4 5 6 
#
# 1 94.6445 54.9303 35.5862 0.0000 0.0000 0.0000
# 2 54.9303 94.6445 35.5862 0.0000 0.0000 0.0000
# 3 35.5862 35.5862 72.2429 0.0000 0.0000 0.0000
# 4 0.0000 0.0000 0.0000 27.1764 0.0000 0.0000
# 5 0.0000 0.0000 0.0000 0.0000 27.1764 0.0000
# 6 0.0000 0.0000 0.0000 0.0000 0.0000 19.8571
#
#
#
# Elastic Compliance Matrix: (Units=1/GPa)
#
#
# Indices 1 2 3 4 5 6 
#
# 1 0.016956 -0.008224 -0.004302 0.000000 0.000000 0.000000
# 2 -0.008224 0.016956 -0.004302 0.000000 0.000000 0.000000
# 3 -0.004302 -0.004302 0.018080 0.000000 0.000000 0.000000
# 4 0.000000 0.000000 0.000000 0.036797 0.000000 0.000000
# 5 0.000000 0.000000 0.000000 0.000000 0.036797 0.000000
# 6 0.000000 0.000000 0.000000 0.000000 0.000000 0.050360
#
#
# Mechanical properties :
#
#
# Convention : Reuss Voigt Hill
#
# Bulk Modulus (GPa) = 54.52936 57.08194 55.80565
# Shear Modulus (GPa) = 23.17908 23.87059 23.52484
#
# Velocity S-wave (km/s) = 3.71157 3.76653 3.73915
# Velocity P-wave (km/s) = 7.12569 7.26915 7.19778
#
# Compressibility (1/GPa) = 0.01833874
#
# Stress axis : x y z
#
# Youngs Moduli (GPa) = 58.97568 58.97568 55.30982
#
# Poissons Ratio (x) = 0.48500 0.23792
# Poissons Ratio (y) = 0.48500 0.23792
# Poissons Ratio (z) = 0.25368 0.25368
#
# Static dielectric constant tensor:
#      x y z
#    x 3.223150 0.000000 0.000000 
#    y 0.000000 3.223150 0.000000 
#    z 0.000000 0.000000 3.026690 
# 
# 
# High freq. dielectric constant tensor:
#      x y z
#    x 1.648080 0.000000 0.000000 
#    y 0.000000 1.648080 0.000000 
#    z 0.000000 0.000000 1.644370 
# 
# From -- ./inp_files/10766.got.cif
#   From: 2010.03.12/outbox.cif.g09.slc.cpg/sg194_6_cif.got.tgz:10766.got - 2010.04.01 12:26:19.
