data_PCOD8330688
_publ_section_title
;
Structure prediction by ZEFSAII (Michael W. Deem and Ramdas Pophale) SiO2 
 PCOD8330688
Probable space group: P 63/M M C
;
_chemical_formula_sum "Si O2"
_cell_formula_units_Z 144
_cell_length_a 30.167637
_cell_length_b 30.167637
_cell_length_c 9.252048
_cell_angle_alpha 90.000000
_cell_angle_beta 90.000000
_cell_angle_gamma 120.000000
_cell_volume 7292.074488
_symmetry_space_group_name_H-M "P 63/M M C"
_symmetry_group_IT_number 194
_symmetry_cell_setting 'hexagonal'
loop_
_space_group_symop_operation_xyz
x,y,z
x-y,x,1/2+z
-y,x-y,z
-x,-y,1/2+z
-x+y,-x,z
y,-x+y,1/2+z
x-y,-y,-z
-x,-x+y,-z
y,x,-z
-y,-x,1/2-z
-x+y,y,1/2-z
x,x-y,1/2-z
-x,-y,-z
-x+y,-x,1/2-z
y,-x+y,-z
x,y,1/2-z
x-y,x,-z
-y,x-y,1/2-z
-x+y,y,z
x,x-y,z
-y,-x,z
y,x,1/2+z
x-y,-y,1/2+z
-x,-x+y,1/2+z
loop_
_atom_site_type_symbol
_atom_site_label
_atom_site_fract_x
_atom_site_fract_y
_atom_site_fract_z
Si Si1 0.295028 0.097614 0.584158
Si Si2 0.484879 0.130495 0.921538
Si Si3 0.229467 0.666668 0.918845
Si Si4 0.686438 0.053828 0.917990
Si Si5 0.852263 0.806299 0.411071
Si Si6 0.526738 0.571346 0.592483
O O1 0.277835 0.084308 0.750000
O O2 0.315640 0.157820 0.553877
O O3 0.337929 0.084003 0.542294
O O4 0.247411 0.062526 0.484604
O O5 0.494244 0.134347 0.750000
O O6 0.424905 0.096325 0.963886
O O7 0.514410 0.187594 0.987996
O O8 0.505693 0.097387 0.002905
O O9 0.216304 0.665399 0.750000
O O10 0.229743 0.614872 0.963213
O O11 0.285092 0.714909 0.954069
O O12 0.676256 0.040940 0.750000
O O13 0.656136 0.000000 0.000000
O O14 0.851038 0.851038 0.500000
O O15 0.831676 0.803565 0.250000
O O16 0.910345 0.820689 0.411754
O O17 0.574762 0.574762 0.500000
O O18 0.546558 0.598544 0.750000
O O19 0.488103 0.511898 0.622672
#
# Coordination Sequence:
#
# PCOD8330688 Si02
#       6
#    24  24  24  24  24  24
#     4   9  18  34  55  77 104 141 184 231 283 334
#     4  11  23  37  55  82 115 149 186 229 279 337
#     4  10  22  42  67  92 117 147 185 232 291 360
#     4  10  22  37  54  79 113 156 201 242 286 339
#     4  10  20  33  51  77 106 135 172 219 268 319
#     4  10  20  34  53  77 106 141 181 224 268 316
#
# _framework density 19.747468000000001
#
# number of rings (size 3 to 8) (size 9 to 14) (size 15 to 20)
#    0.000    2.000    0.000    3.167    0.000   10.667 
#    0.000    1.667    0.000    3.167    0.000    0.000 
#    0.000    0.000    0.000    0.000    0.000    0.000 
#
# Total GULP energy -1784617.111038 kJ/mol
# GULP energy per Si atom -12393.174382 kJ/mol
# Density = 1.970252 g / cm^3
# Si number density = 19.747468 Si / 1000 Ang^3
#
#
#
# Elastic Constant Matrix: (Units=GPa)
#
#
# Indices 1 2 3 4 5 6 
#
# 1 101.8429 70.5587 62.7291 0.0000 0.0000 0.0000
# 2 70.5587 101.8429 62.7291 0.0000 0.0000 0.0000
# 3 62.7291 62.7291 131.2414 0.0000 0.0000 0.0000
# 4 0.0000 0.0000 0.0000 25.4502 0.0000 0.0000
# 5 0.0000 0.0000 0.0000 0.0000 25.4502 0.0000
# 6 0.0000 0.0000 0.0000 0.0000 0.0000 15.6421
#
#
#
# Elastic Compliance Matrix: (Units=1/GPa)
#
#
# Indices 1 2 3 4 5 6 
#
# 1 0.020429 -0.011536 -0.004251 0.000000 0.000000 0.000000
# 2 -0.011536 0.020429 -0.004251 0.000000 0.000000 0.000000
# 3 -0.004251 -0.004251 0.011683 0.000000 0.000000 0.000000
# 4 0.000000 0.000000 0.000000 0.039292 0.000000 0.000000
# 5 0.000000 0.000000 0.000000 0.000000 0.039292 0.000000
# 6 0.000000 0.000000 0.000000 0.000000 0.000000 0.063930
#
#
# Mechanical properties :
#
#
# Convention : Reuss Voigt Hill
#
# Bulk Modulus (GPa) = 80.21149 80.77344 80.49246
# Shear Modulus (GPa) = 20.89535 22.56919 21.73227
#
# Velocity S-wave (km/s) = 3.25642 3.38433 3.32099
# Velocity P-wave (km/s) = 7.40580 7.50091 7.45350
#
# Compressibility (1/GPa) = 0.01246704
#
# Stress axis : x y z
#
# Youngs Moduli (GPa) = 48.94897 48.94897 85.59290
#
# Poissons Ratio (x) = 0.56465 0.36385
# Poissons Ratio (y) = 0.56465 0.36385
# Poissons Ratio (z) = 0.20808 0.20808
#
# Static dielectric constant tensor:
#      x y z
#    x 3.690740 0.000000 0.000000 
#    y 0.000000 3.690740 0.000000 
#    z 0.000000 0.000000 3.926020 
# 
# 
# High freq. dielectric constant tensor:
#      x y z
#    x 1.766460 0.000000 0.000000 
#    y 0.000000 1.766460 0.000000 
#    z 0.000000 0.000000 1.778960 
# 
# From -- ./inp_files/2133.got.cif
#   From: 2010.03.12/outbox.cif.g09.slc.cpg/sg194_2_cif.got.tgz:2133.got - 2010.04.01 12:26:19.
