data_PCOD8330542
_publ_section_title
;
Structure prediction by ZEFSAII (Michael W. Deem and Ramdas Pophale) SiO2 
 PCOD8330542
Probable space group: P 63/M M C
;
_chemical_formula_sum "Si O2"
_cell_formula_units_Z 96
_cell_length_a 24.029441
_cell_length_b 24.029441
_cell_length_c 12.095021
_cell_angle_alpha 90.000000
_cell_angle_beta 90.000000
_cell_angle_gamma 120.000000
_cell_volume 6048.178419
_symmetry_space_group_name_H-M "P 63/M M C"
_symmetry_group_IT_number 194
_symmetry_cell_setting 'hexagonal'
loop_
_space_group_symop_operation_xyz
x,y,z
x-y,x,1/2+z
-y,x-y,z
-x,-y,1/2+z
-x+y,-x,z
y,-x+y,1/2+z
x-y,-y,-z
-x,-x+y,-z
y,x,-z
-y,-x,1/2-z
-x+y,y,1/2-z
x,x-y,1/2-z
-x,-y,-z
-x+y,-x,1/2-z
y,-x+y,-z
x,y,1/2-z
x-y,x,-z
-y,x-y,1/2-z
-x+y,y,z
x,x-y,z
-y,-x,z
y,x,1/2+z
x-y,-y,1/2+z
-x,-x+y,1/2+z
loop_
_atom_site_type_symbol
_atom_site_label
_atom_site_fract_x
_atom_site_fract_y
_atom_site_fract_z
Si Si1 0.075011 0.710911 0.983075
Si Si2 0.849023 0.485063 0.485700
Si Si3 0.513774 0.317380 0.250000
Si Si4 0.256953 0.513905 0.374466
Si Si5 0.361837 0.180919 0.625096
Si Si6 0.757958 0.121895 0.250000
O O1 0.099809 0.660077 0.001596
O O2 0.079183 0.734392 0.858465
O O3 0.113802 0.773631 0.061319
O O4 0.000000 0.674644 0.000000
O O5 0.878682 0.439341 0.519748
O O6 0.827702 0.467411 0.358954
O O7 0.786192 0.463149 0.560848
O O8 0.548270 0.274135 0.250000
O O9 0.438872 0.268741 0.250000
O O10 0.271126 0.542251 0.250000
O O11 0.218858 0.437716 0.371158
O O12 0.333224 0.166612 0.750000
O O13 0.835476 0.164524 0.250000
#
# Coordination Sequence:
#
# PCOD8330542 Si02
#       6
#    24  24  12  12  12  12
#     4  10  20  32  51  75  97 127 163 199 240 291
#     4  10  19  32  49  67  91 120 154 204 260 304
#     4   9  15  29  51  67  81 110 153 199 249 300
#     4   9  18  33  49  61  81 120 161 192 235 300
#     4   9  18  33  51  71  95 124 158 194 233 280
#     4   9  16  31  51  70  94 124 159 192 231 286
#
# _framework density 15.872547000000001
#
# number of rings (size 3 to 8) (size 9 to 14) (size 15 to 20)
#    0.000    2.500    2.500    0.375    1.750    1.000 
#    0.750    0.000    0.000    0.000    0.000    0.000 
#    0.000    0.000    0.000    0.375    0.000    2.250 
#
# Total GULP energy -1189412.405496 kJ/mol
# GULP energy per Si atom -12389.712557 kJ/mol
# Density = 1.583642 g / cm^3
# Si number density = 15.872547 Si / 1000 Ang^3
#
#
#
# Elastic Constant Matrix: (Units=GPa)
#
#
# Indices 1 2 3 4 5 6 
#
# 1 82.6260 60.2327 43.5234 0.0000 0.0000 0.0000
# 2 60.2327 82.6260 43.5234 0.0000 0.0000 0.0000
# 3 43.5234 43.5234 136.8457 0.0000 0.0000 0.0000
# 4 0.0000 0.0000 0.0000 7.5906 0.0000 0.0000
# 5 0.0000 0.0000 0.0000 0.0000 7.5906 0.0000
# 6 0.0000 0.0000 0.0000 0.0000 0.0000 11.1966
#
#
#
# Elastic Compliance Matrix: (Units=1/GPa)
#
#
# Indices 1 2 3 4 5 6 
#
# 1 0.026669 -0.017987 -0.002761 0.000000 0.000000 0.000000
# 2 -0.017987 0.026669 -0.002761 0.000000 0.000000 0.000000
# 3 -0.002761 -0.002761 0.009064 0.000000 0.000000 0.000000
# 4 0.000000 0.000000 0.000000 0.131742 0.000000 0.000000
# 5 0.000000 0.000000 0.000000 0.000000 0.131742 0.000000
# 6 0.000000 0.000000 0.000000 0.000000 0.000000 0.089313
#
#
# Mechanical properties :
#
#
# Convention : Reuss Voigt Hill
#
# Bulk Modulus (GPa) = 65.00556 66.29517 65.65037
# Shear Modulus (GPa) = 10.69870 15.59678 13.14774
#
# Velocity S-wave (km/s) = 2.59904 3.13809 2.88120
# Velocity P-wave (km/s) = 7.07462 7.41539 7.24701
#
# Compressibility (1/GPa) = 0.01538330
#
# Stress axis : x y z
#
# Youngs Moduli (GPa) = 37.49613 37.49613 110.32604
#
# Poissons Ratio (x) = 0.67444 0.30466
# Poissons Ratio (y) = 0.67444 0.30466
# Poissons Ratio (z) = 0.10354 0.10354
#
# Static dielectric constant tensor:
#      x y z
#    x 2.747860 0.000000 0.000000 
#    y 0.000000 2.747860 0.000000 
#    z 0.000000 0.000000 3.898510 
# 
# 
# High freq. dielectric constant tensor:
#      x y z
#    x 1.577760 0.000000 0.000000 
#    y 0.000000 1.577760 0.000000 
#    z 0.000000 0.000000 1.627620 
# 
# From -- ./inp_files/3159.got.cif
#   From: 2010.03.12/outbox.cif.g09.slc.cpg/sg194_2_cif.got.tgz:3159.got - 2010.04.01 12:26:19.
