data_PCOD8330366
_publ_section_title
;
Structure prediction by ZEFSAII (Michael W. Deem and Ramdas Pophale) SiO2 
 PCOD8330366
Probable space group: P 63/M M C
;
_chemical_formula_sum "Si O2"
_cell_formula_units_Z 144
_cell_length_a 22.870354
_cell_length_b 22.870354
_cell_length_c 19.776639
_cell_angle_alpha 90.000000
_cell_angle_beta 90.000000
_cell_angle_gamma 120.000000
_cell_volume 8958.367851
_symmetry_space_group_name_H-M "P 63/M M C"
_symmetry_group_IT_number 194
_symmetry_cell_setting 'hexagonal'
loop_
_space_group_symop_operation_xyz
x,y,z
x-y,x,1/2+z
-y,x-y,z
-x,-y,1/2+z
-x+y,-x,z
y,-x+y,1/2+z
x-y,-y,-z
-x,-x+y,-z
y,x,-z
-y,-x,1/2-z
-x+y,y,1/2-z
x,x-y,1/2-z
-x,-y,-z
-x+y,-x,1/2-z
y,-x+y,-z
x,y,1/2-z
x-y,x,-z
-y,x-y,1/2-z
-x+y,y,z
x,x-y,z
-y,-x,z
y,x,1/2+z
x-y,-y,1/2+z
-x,-x+y,1/2+z
loop_
_atom_site_type_symbol
_atom_site_label
_atom_site_fract_x
_atom_site_fract_y
_atom_site_fract_z
Si Si1 0.244372 0.355329 0.824187
Si Si2 0.196048 0.529636 0.449341
Si Si3 0.730691 0.931060 0.468884
Si Si4 0.705786 0.955987 0.325190
Si Si5 0.864303 0.592783 0.034966
Si Si6 0.153526 0.440579 0.325105
O O1 0.269222 0.390070 0.750000
O O2 0.164239 0.328477 0.832881
O O3 0.257167 0.293425 0.830936
O O4 0.284729 0.407621 0.884500
O O5 0.271879 0.543757 0.457574
O O6 0.196934 0.598467 0.461697
O O7 0.143724 0.475667 0.503639
O O8 0.166006 0.500395 0.375467
O O9 0.742182 0.871091 0.495103
O O10 0.733764 0.931613 0.387036
O O11 0.659906 0.922112 0.497684
O O12 0.790420 0.000000 0.500000
O O13 0.720758 0.936310 0.250000
O O14 0.624645 0.920756 0.334072
O O15 0.795541 0.591082 0.017801
O O16 0.162353 0.470810 0.250000
O O17 0.208198 0.416395 0.339473
#
# Coordination Sequence:
#
# PCOD8330366 Si02
#       6
#    24  24  24  24  24  24
#     4   9  17  29  47  72  98 123 154 194 241 288
#     4  10  19  31  48  70  94 121 155 197 242 286
#     4  11  20  31  49  72  98 128 162 201 241 282
#     4  10  18  28  47  72  99 128 157 196 241 282
#     4   9  17  30  47  67  92 123 157 193 233 277
#     4   9  17  29  44  64  92 127 165 197 230 279
#
# _framework density 16.074356999999999
#
# number of rings (size 3 to 8) (size 9 to 14) (size 15 to 20)
#    0.000    2.333    3.333    0.667    0.000    1.333 
#    0.000    0.000    0.000    6.167    0.000    2.333 
#    0.000    1.333    0.000    0.000    0.000    0.000 
#
# Total GULP energy -1784333.603575 kJ/mol
# GULP energy per Si atom -12391.205580 kJ/mol
# Density = 1.603777 g / cm^3
# Si number density = 16.074357 Si / 1000 Ang^3
#
#
#
# Elastic Constant Matrix: (Units=GPa)
#
#
# Indices 1 2 3 4 5 6 
#
# 1 74.2833 37.1592 38.5505 0.0000 0.0000 0.0000
# 2 37.1592 74.2833 38.5505 0.0000 0.0000 0.0000
# 3 38.5505 38.5505 133.5066 0.0000 0.0000 0.0000
# 4 0.0000 0.0000 0.0000 19.4957 0.0000 0.0000
# 5 0.0000 0.0000 0.0000 0.0000 19.4957 0.0000
# 6 0.0000 0.0000 0.0000 0.0000 0.0000 18.5620
#
#
#
# Elastic Compliance Matrix: (Units=1/GPa)
#
#
# Indices 1 2 3 4 5 6 
#
# 1 0.019075 -0.007862 -0.003238 0.000000 0.000000 0.000000
# 2 -0.007862 0.019075 -0.003238 0.000000 0.000000 0.000000
# 3 -0.003238 -0.003238 0.009360 0.000000 0.000000 0.000000
# 4 0.000000 0.000000 0.000000 0.051293 0.000000 0.000000
# 5 0.000000 0.000000 0.000000 0.000000 0.051293 0.000000
# 6 0.000000 0.000000 0.000000 0.000000 0.000000 0.053873
#
#
# Mechanical properties :
#
#
# Convention : Reuss Voigt Hill
#
# Bulk Modulus (GPa) = 53.09176 56.73260 54.91218
# Shear Modulus (GPa) = 20.92721 22.69824 21.81272
#
# Velocity S-wave (km/s) = 3.61210 3.76184 3.68773
# Velocity P-wave (km/s) = 7.10612 7.36472 7.23657
#
# Compressibility (1/GPa) = 0.01883531
#
# Stress axis : x y z
#
# Youngs Moduli (GPa) = 52.42458 52.42458 106.83561
#
# Poissons Ratio (x) = 0.41214 0.34592
# Poissons Ratio (y) = 0.41214 0.34592
# Poissons Ratio (z) = 0.16975 0.16975
#
# Static dielectric constant tensor:
#      x y z
#    x 2.822070 0.000000 0.000000 
#    y 0.000000 2.822070 0.000000 
#    z 0.000000 0.000000 3.478610 
# 
# 
# High freq. dielectric constant tensor:
#      x y z
#    x 1.585690 0.000000 0.000000 
#    y 0.000000 1.585690 0.000000 
#    z 0.000000 0.000000 1.643370 
# 
# From -- ./inp_files/8233.got.cif
#   From: 2010.03.12/outbox.cif.g09.slc.cpg/sg194_5_cif.got.tgz:8233.got - 2010.04.01 12:26:19.
