data_PCOD8330550
_publ_section_title
;
Structure prediction by ZEFSAII (Michael W. Deem and Ramdas Pophale) SiO2 
 PCOD8330550
Probable space group: P 63/M M C
;
_chemical_formula_sum "Si O2"
_cell_formula_units_Z 144
_cell_length_a 32.238697
_cell_length_b 32.238697
_cell_length_c 9.075035
_cell_angle_alpha 90.000000
_cell_angle_beta 90.000000
_cell_angle_gamma 120.000000
_cell_volume 8168.341782
_symmetry_space_group_name_H-M "P 63/M M C"
_symmetry_group_IT_number 194
_symmetry_cell_setting 'hexagonal'
loop_
_space_group_symop_operation_xyz
x,y,z
x-y,x,1/2+z
-y,x-y,z
-x,-y,1/2+z
-x+y,-x,z
y,-x+y,1/2+z
x-y,-y,-z
-x,-x+y,-z
y,x,-z
-y,-x,1/2-z
-x+y,y,1/2-z
x,x-y,1/2-z
-x,-y,-z
-x+y,-x,1/2-z
y,-x+y,-z
x,y,1/2-z
x-y,x,-z
-y,x-y,1/2-z
-x+y,y,z
x,x-y,z
-y,-x,z
y,x,1/2+z
x-y,-y,1/2+z
-x,-x+y,1/2+z
loop_
_atom_site_type_symbol
_atom_site_label
_atom_site_fract_x
_atom_site_fract_y
_atom_site_fract_z
Si Si1 0.472271 0.622370 0.575586
Si Si2 0.862193 0.627951 0.077674
Si Si3 0.812915 0.529787 0.919893
Si Si4 0.714009 0.762907 0.075877
Si Si5 0.048032 0.189909 0.422603
Si Si6 0.570835 0.526981 0.089204
O O1 0.477731 0.631999 0.750000
O O2 0.418098 0.581903 0.537584
O O3 0.484295 0.669747 0.485675
O O4 0.509479 0.605492 0.519416
O O5 0.873708 0.629327 0.250000
O O6 0.819514 0.639027 0.048714
O O7 0.848351 0.576276 0.014074
O O8 0.908312 0.666179 0.990750
O O9 0.829063 0.538585 0.750000
O O10 0.758593 0.517185 0.937830
O O11 0.708223 0.753989 0.250000
O O12 0.757311 0.815593 0.036498
O O13 0.723271 0.723271 0.000000
O O14 0.040928 0.180850 0.250000
O O15 0.092561 0.185121 0.480994
O O16 0.000000 0.149504 0.500000
O O17 0.590298 0.548479 0.250000
O O18 0.518060 0.481941 0.102327
O O19 0.569440 0.569440 0.000000
#
# Coordination Sequence:
#
# PCOD8330550 Si02
#       6
#    24  24  24  24  24  24
#     4   9  18  33  53  77 104 133 166 205 248 295
#     4  10  20  34  53  75  99 131 171 211 251 298
#     4  10  21  36  54  77 103 131 167 211 255 299
#     4  10  19  32  50  73 103 135 167 206 253 304
#     4   9  18  31  47  69  96 126 161 203 253 307
#     4   8  14  25  42  66  96 127 157 189 225 267
#
# _framework density 17.629035999999999
#
# number of rings (size 3 to 8) (size 9 to 14) (size 15 to 20)
#    0.000    2.667    0.000    3.000    0.000    4.667 
#    0.000    2.500    0.000    2.500    0.000    0.000 
#    0.000    0.000    0.000    0.000    0.000    0.000 
#
# Total GULP energy -1785425.015036 kJ/mol
# GULP energy per Si atom -12398.784827 kJ/mol
# Density = 1.758891 g / cm^3
# Si number density = 17.629036 Si / 1000 Ang^3
#
#
#
# Elastic Constant Matrix: (Units=GPa)
#
#
# Indices 1 2 3 4 5 6 
#
# 1 96.4929 50.9631 50.7651 0.0000 0.0000 0.0000
# 2 50.9631 96.4929 50.7651 0.0000 0.0000 0.0000
# 3 50.7651 50.7651 87.8456 0.0000 0.0000 0.0000
# 4 0.0000 0.0000 0.0000 31.4638 0.0000 0.0000
# 5 0.0000 0.0000 0.0000 0.0000 31.4638 0.0000
# 6 0.0000 0.0000 0.0000 0.0000 0.0000 22.7649
#
#
#
# Elastic Compliance Matrix: (Units=1/GPa)
#
#
# Indices 1 2 3 4 5 6 
#
# 1 0.016614 -0.005350 -0.006509 0.000000 0.000000 0.000000
# 2 -0.005350 0.016614 -0.006509 0.000000 0.000000 0.000000
# 3 -0.006509 -0.006509 0.018907 0.000000 0.000000 0.000000
# 4 0.000000 0.000000 0.000000 0.031783 0.000000 0.000000
# 5 0.000000 0.000000 0.000000 0.000000 0.031783 0.000000
# 6 0.000000 0.000000 0.000000 0.000000 0.000000 0.043927
#
#
# Mechanical properties :
#
#
# Convention : Reuss Voigt Hill
#
# Bulk Modulus (GPa) = 64.94611 65.09089 65.01850
# Shear Modulus (GPa) = 24.81450 25.69435 25.25442
#
# Velocity S-wave (km/s) = 3.75586 3.82187 3.78901
# Velocity P-wave (km/s) = 7.46519 7.51520 7.49024
#
# Compressibility (1/GPa) = 0.01539738
#
# Stress axis : x y z
#
# Youngs Moduli (GPa) = 60.19182 60.19182 52.89149
#
# Poissons Ratio (x) = 0.32203 0.34427
# Poissons Ratio (y) = 0.32203 0.34427
# Poissons Ratio (z) = 0.39179 0.39179
#
# Static dielectric constant tensor:
#      x y z
#    x 3.185690 0.000000 0.000000 
#    y 0.000000 3.185690 0.000000 
#    z 0.000000 0.000000 3.400960 
# 
# 
# High freq. dielectric constant tensor:
#      x y z
#    x 1.667930 0.000000 0.000000 
#    y 0.000000 1.667930 0.000000 
#    z 0.000000 0.000000 1.687000 
# 
# From -- ./inp_files/2130.got.cif
#   From: 2010.03.12/outbox.cif.g09.slc.cpg/sg194_2_cif.got.tgz:2130.got - 2010.04.01 12:26:19.
