data_PCOD8330167
_publ_section_title
;
Structure prediction by ZEFSAII (Michael W. Deem and Ramdas Pophale) SiO2 
 PCOD8330167
Probable space group: P 63/M C M
;
_chemical_formula_sum "Si O2"
_cell_formula_units_Z 144
_cell_length_a 32.610618
_cell_length_b 32.610618
_cell_length_c 8.791403
_cell_angle_alpha 90.000000
_cell_angle_beta 90.000000
_cell_angle_gamma 120.000000
_cell_volume 8096.678199
_symmetry_space_group_name_H-M "P 63/M C M"
_symmetry_group_IT_number 193
_symmetry_cell_setting 'hexagonal'
loop_
_space_group_symop_operation_xyz
x,y,z
x-y,x,1/2+z
-y,x-y,z
-x,-y,1/2+z
-x+y,-x,z
y,-x+y,1/2+z
x-y,-y,1/2-z
-x,-x+y,1/2-z
y,x,1/2-z
-y,-x,-z
-x+y,y,-z
x,x-y,-z
-x,-y,-z
-x+y,-x,1/2-z
y,-x+y,-z
x,y,1/2-z
x-y,x,-z
-y,x-y,1/2-z
-x+y,y,1/2+z
x,x-y,1/2+z
-y,-x,1/2+z
y,x,z
x-y,-y,z
-x,-x+y,z
loop_
_atom_site_type_symbol
_atom_site_label
_atom_site_fract_x
_atom_site_fract_y
_atom_site_fract_z
Si Si1 0.474916 0.280058 0.928480
Si Si2 0.809626 0.103617 0.069816
Si Si3 0.947992 0.564824 0.569374
Si Si4 0.527530 0.386317 0.930173
Si Si5 0.620045 0.723911 0.428844
Si Si6 0.860252 0.806014 0.428533
O O1 0.478367 0.277829 0.750000
O O2 0.511574 0.333199 0.984872
O O3 0.421245 0.264729 0.974516
O O4 0.490646 0.245323 0.000000
O O5 0.814864 0.105614 0.250000
O O6 0.845132 0.154869 0.000000
O O7 0.756716 0.089416 0.023026
O O8 0.821671 0.064830 0.004492
O O9 0.948307 0.563356 0.750000
O O10 0.910853 0.512252 0.509527
O O11 0.932549 0.602780 0.521070
O O12 0.000000 0.581279 0.501478
O O13 0.531131 0.389997 0.750000
O O14 0.578173 0.421828 0.000000
O O15 0.631280 0.731820 0.250000
O O16 0.912094 0.824188 0.500000
O O17 0.862106 0.797331 0.250000
O O18 0.845401 0.845401 0.461034
#
# Coordination Sequence:
#
# PCOD8330167 Si02
#       6
#    24  24  24  24  24  24
#     4   9  18  31  48  70  95 123 157 198 242 290
#     4  11  21  32  48  71 101 134 167 204 242 283
#     4   8  15  29  48  68  93 128 166 200 235 278
#     4   9  18  32  49  71  96 121 154 195 238 286
#     4   9  17  30  47  69  98 131 168 206 241 280
#     4  10  21  37  57  79 102 131 166 202 243 291
#
# _framework density 17.785072
#
# number of rings (size 3 to 8) (size 9 to 14) (size 15 to 20)
#    0.000    2.667    0.000    5.500    0.000    5.000 
#    0.000    4.167    0.000    1.500    0.000    0.000 
#    0.000    0.000    0.000    0.000    0.000    0.000 
#
# Total GULP energy -1785226.594310 kJ/mol
# GULP energy per Si atom -12397.406905 kJ/mol
# Density = 1.774459 g / cm^3
# Si number density = 17.785072 Si / 1000 Ang^3
#
#
#
# Elastic Constant Matrix: (Units=GPa)
#
#
# Indices 1 2 3 4 5 6 
#
# 1 113.9225 68.7875 38.8943 0.0000 0.0000 0.0000
# 2 68.7875 113.9225 38.8943 0.0000 0.0000 0.0000
# 3 38.8943 38.8943 71.5383 0.0000 0.0000 0.0000
# 4 0.0000 0.0000 0.0000 25.0011 0.0000 0.0000
# 5 0.0000 0.0000 0.0000 0.0000 25.0011 0.0000
# 6 0.0000 0.0000 0.0000 0.0000 0.0000 22.5675
#
#
#
# Elastic Compliance Matrix: (Units=1/GPa)
#
#
# Indices 1 2 3 4 5 6 
#
# 1 0.014639 -0.007517 -0.003872 0.000000 0.000000 0.000000
# 2 -0.007517 0.014639 -0.003872 0.000000 0.000000 0.000000
# 3 -0.003872 -0.003872 0.018189 0.000000 0.000000 0.000000
# 4 0.000000 0.000000 0.000000 0.039998 0.000000 0.000000
# 5 0.000000 0.000000 0.000000 0.000000 0.039998 0.000000
# 6 0.000000 0.000000 0.000000 0.000000 0.000000 0.044312
#
#
# Mechanical properties :
#
#
# Convention : Reuss Voigt Hill
#
# Bulk Modulus (GPa) = 59.01690 65.83729 62.42709
# Shear Modulus (GPa) = 24.04494 24.70109 24.37301
#
# Velocity S-wave (km/s) = 3.68091 3.73079 3.70593
# Velocity P-wave (km/s) = 7.16386 7.46037 7.31362
#
# Compressibility (1/GPa) = 0.01694430
#
# Stress axis : x y z
#
# Youngs Moduli (GPa) = 68.31210 68.31210 54.97901
#
# Poissons Ratio (x) = 0.51351 0.21287
# Poissons Ratio (y) = 0.51351 0.21287
# Poissons Ratio (z) = 0.26450 0.26450
#
# Static dielectric constant tensor:
#      x y z
#    x 5.385890 0.000000 0.000000 
#    y 0.000000 5.385890 0.000000 
#    z 0.000000 0.000000 3.065050 
# 
# 
# High freq. dielectric constant tensor:
#      x y z
#    x 1.681520 0.000000 0.000000 
#    y 0.000000 1.681520 0.000000 
#    z 0.000000 0.000000 1.672160 
# 
# From -- ./inp_files/1500.got.cif
#   From: 2010.03.12/outbox.cif.g09.slc.cpg/sg193_1_cif.got.tgz:1500.got - 2010.04.01 12:20:39.
