data_PCOD8330148
_publ_section_title
;
Structure prediction by ZEFSAII (Michael W. Deem and Ramdas Pophale) SiO2 
 PCOD8330148
Probable space group: P 63/M C M
;
_chemical_formula_sum "Si O2"
_cell_formula_units_Z 168
_cell_length_a 29.902562
_cell_length_b 29.902562
_cell_length_c 14.042511
_cell_angle_alpha 90.000000
_cell_angle_beta 90.000000
_cell_angle_gamma 120.000000
_cell_volume 10874.071981
_symmetry_space_group_name_H-M "P 63/M C M"
_symmetry_group_IT_number 193
_symmetry_cell_setting 'hexagonal'
loop_
_space_group_symop_operation_xyz
x,y,z
x-y,x,1/2+z
-y,x-y,z
-x,-y,1/2+z
-x+y,-x,z
y,-x+y,1/2+z
x-y,-y,1/2-z
-x,-x+y,1/2-z
y,x,1/2-z
-y,-x,-z
-x+y,y,-z
x,x-y,-z
-x,-y,-z
-x+y,-x,1/2-z
y,-x+y,-z
x,y,1/2-z
x-y,x,-z
-y,x-y,1/2-z
-x+y,y,1/2+z
x,x-y,1/2+z
-y,-x,1/2+z
y,x,z
x-y,-y,z
-x,-x+y,z
loop_
_atom_site_type_symbol
_atom_site_label
_atom_site_fract_x
_atom_site_fract_y
_atom_site_fract_z
Si Si1 0.112865 0.749974 0.854586
Si Si2 0.654307 0.942138 0.457157
Si Si3 0.058494 0.441928 0.861139
Si Si4 0.630478 0.785903 0.862310
Si Si5 0.486871 0.212709 0.637846
Si Si6 0.689620 0.515997 0.146486
Si Si7 0.524985 0.149637 0.528757
O O1 0.089592 0.750887 0.750000
O O2 0.153996 0.807861 0.892120
O O3 0.147774 0.724295 0.841880
O O4 0.066902 0.718803 0.929017
O O5 0.600855 0.934322 0.416209
O O6 0.666689 0.901279 0.406582
O O7 0.700189 0.000000 0.435956
O O8 0.072799 0.442232 0.750000
O O9 0.096856 0.497013 0.909487
O O10 0.000000 0.430591 0.871626
O O11 0.631011 0.782190 0.750000
O O12 0.571878 0.748630 0.900379
O O13 0.489343 0.205199 0.750000
O O14 0.505699 0.272507 0.613625
O O15 0.524258 0.195857 0.586551
O O16 0.664955 0.492272 0.250000
O O17 0.644854 0.503502 0.071910
O O18 0.582768 0.165536 0.500000
#
# Coordination Sequence:
#
# PCOD8330148 Si02
#       7
#    24  24  24  24  24  24  24
#     4   9  17  30  48  68  90 116 147 183 217 254
#     4  11  19  27  45  69  94 122 146 175 220 269
#     4  10  21  36  50  64  88 121 151 178 211 254
#     4   9  16  28  49  71  87 111 149 188 221 251
#     4   9  17  32  53  71  87 108 133 169 216 258
#     4   9  18  33  51  70  90 108 132 169 213 257
#     4  12  22  31  50  72  90 111 142 180 210 251
#
# _framework density 15.449593999999999
#
# number of rings (size 3 to 8) (size 9 to 14) (size 15 to 20)
#    0.000    2.143    2.857    3.429    0.000    4.857 
#    0.000    0.000    0.000    2.714    0.000    0.000 
#    0.000    0.000    0.000    0.000    0.000    0.000 
#
# Total GULP energy -2082140.053539 kJ/mol
# GULP energy per Si atom -12393.690795 kJ/mol
# Density = 1.541443 g / cm^3
# Si number density = 15.449594 Si / 1000 Ang^3
#
#
#
# Elastic Constant Matrix: (Units=GPa)
#
#
# Indices 1 2 3 4 5 6 
#
# 1 46.2638 23.9621 31.8643 0.0000 0.0000 0.0000
# 2 23.9621 46.2638 31.8643 0.0000 0.0000 0.0000
# 3 31.8643 31.8643 70.2152 0.0000 0.0000 0.0000
# 4 0.0000 0.0000 0.0000 16.4094 0.0000 0.0000
# 5 0.0000 0.0000 0.0000 0.0000 16.4094 0.0000
# 6 0.0000 0.0000 0.0000 0.0000 0.0000 11.1508
#
#
#
# Elastic Compliance Matrix: (Units=1/GPa)
#
#
# Indices 1 2 3 4 5 6 
#
# 1 0.034525 -0.010315 -0.010987 0.000000 0.000000 0.000000
# 2 -0.010315 0.034525 -0.010987 0.000000 0.000000 0.000000
# 3 -0.010987 -0.010987 0.024214 0.000000 0.000000 0.000000
# 4 0.000000 0.000000 0.000000 0.060941 0.000000 0.000000
# 5 0.000000 0.000000 0.000000 0.000000 0.060941 0.000000
# 6 0.000000 0.000000 0.000000 0.000000 0.000000 0.089679
#
#
# Mechanical properties :
#
#
# Convention : Reuss Voigt Hill
#
# Bulk Modulus (GPa) = 34.85924 37.56934 36.21429
# Shear Modulus (GPa) = 13.19390 13.79738 13.49564
#
# Velocity S-wave (km/s) = 2.92549 2.99165 2.95876
# Velocity P-wave (km/s) = 5.83297 6.02523 5.92988
#
# Compressibility (1/GPa) = 0.02868680
#
# Stress axis : x y z
#
# Youngs Moduli (GPa) = 28.96466 28.96466 41.29899
#
# Poissons Ratio (x) = 0.29877 0.45374
# Poissons Ratio (y) = 0.29877 0.45374
# Poissons Ratio (z) = 0.31823 0.31823
#
# Static dielectric constant tensor:
#      x y z
#    x 2.781830 0.000000 0.000000 
#    y 0.000000 2.781830 0.000000 
#    z 0.000000 0.000000 3.516010 
# 
# 
# High freq. dielectric constant tensor:
#      x y z
#    x 1.552580 0.000000 0.000000 
#    y 0.000000 1.552580 0.000000 
#    z 0.000000 0.000000 1.620100 
# 
# From -- ./inp_files/4439.got.cif
#   From: 2010.03.12/outbox.cif.g09.slc.cpg/sg193_3_cif.got.tgz:4439.got - 2010.04.01 12:20:39.
