data_PCOD8330735
_publ_section_title
;
Structure prediction by ZEFSAII (Michael W. Deem and Ramdas Pophale) SiO2 
 PCOD8330735
Probable space group: P 63/M M C
;
_chemical_formula_sum "Si O2"
_cell_formula_units_Z 144
_cell_length_a 31.136834
_cell_length_b 31.136834
_cell_length_c 8.648684
_cell_angle_alpha 90.000000
_cell_angle_beta 90.000000
_cell_angle_gamma 120.000000
_cell_volume 7261.553874
_symmetry_space_group_name_H-M "P 63/M M C"
_symmetry_group_IT_number 194
_symmetry_cell_setting 'hexagonal'
loop_
_space_group_symop_operation_xyz
x,y,z
x-y,x,1/2+z
-y,x-y,z
-x,-y,1/2+z
-x+y,-x,z
y,-x+y,1/2+z
x-y,-y,-z
-x,-x+y,-z
y,x,-z
-y,-x,1/2-z
-x+y,y,1/2-z
x,x-y,1/2-z
-x,-y,-z
-x+y,-x,1/2-z
y,-x+y,-z
x,y,1/2-z
x-y,x,-z
-y,x-y,1/2-z
-x+y,y,z
x,x-y,z
-y,-x,z
y,x,1/2+z
x-y,-y,1/2+z
-x,-x+y,1/2+z
loop_
_atom_site_type_symbol
_atom_site_label
_atom_site_fract_x
_atom_site_fract_y
_atom_site_fract_z
Si Si1 0.149022 0.200632 0.568510
Si Si2 0.431908 0.666658 0.928788
Si Si3 0.331078 0.854332 0.430377
Si Si4 0.292881 0.052153 0.568315
Si Si5 0.384718 0.241732 0.069588
Si Si6 0.947008 0.423659 0.430290
O O1 0.157529 0.157529 0.500000
O O2 0.158286 0.204251 0.750000
O O3 0.093464 0.186928 0.526164
O O4 0.186992 0.253813 0.497698
O O5 0.446477 0.667471 0.750000
O O6 0.437042 0.718521 0.979276
O O7 0.375723 0.624277 0.959277
O O8 0.467452 0.655181 0.032325
O O9 0.321243 0.855229 0.250000
O O10 0.281520 0.841076 0.523672
O O11 0.375458 0.907330 0.480534
O O12 0.286561 0.046685 0.750000
O O13 0.347836 0.094242 0.525337
O O14 0.283012 0.000000 0.500000
O O15 0.376430 0.245611 0.250000
O O16 0.374837 0.187419 0.025998
O O17 0.946143 0.411710 0.250000
O O18 0.934743 0.467372 0.458562
O O19 0.000000 0.437978 0.500000
#
# Coordination Sequence:
#
# PCOD8330735 Si02
#       6
#    24  24  24  24  24  24
#     4  10  20  34  54  81 112 147 188 233 282 336
#     4  10  21  39  63  89 117 151 192 237 286 340
#     4  12  25  39  58  86 119 154 193 235 281 338
#     4  11  22  37  59  86 116 149 187 232 281 334
#     4  11  24  42  62  83 112 151 193 236 283 337
#     4  10  21  39  63  89 117 150 190 236 286 339
#
# _framework density 19.830466999999999
#
# number of rings (size 3 to 8) (size 9 to 14) (size 15 to 20)
#    0.000    1.333    0.000    7.167    0.000   11.667 
#    0.000    3.333    0.000    1.167    0.000    0.000 
#    0.000    0.000    0.000    0.000    0.000    0.000 
#
# Total GULP energy -1786614.300837 kJ/mol
# GULP energy per Si atom -12407.043756 kJ/mol
# Density = 1.978533 g / cm^3
# Si number density = 19.830467 Si / 1000 Ang^3
#
#
#
# Elastic Constant Matrix: (Units=GPa)
#
#
# Indices 1 2 3 4 5 6 
#
# 1 101.1567 34.3062 36.7645 0.0000 0.0000 0.0000
# 2 34.3062 101.1567 36.7645 0.0000 0.0000 0.0000
# 3 36.7645 36.7645 81.0593 0.0000 0.0000 0.0000
# 4 0.0000 0.0000 0.0000 30.4587 0.0000 0.0000
# 5 0.0000 0.0000 0.0000 0.0000 30.4587 0.0000
# 6 0.0000 0.0000 0.0000 0.0000 0.0000 33.4253
#
#
#
# Elastic Compliance Matrix: (Units=1/GPa)
#
#
# Indices 1 2 3 4 5 6 
#
# 1 0.012376 -0.002583 -0.004442 0.000000 0.000000 0.000000
# 2 -0.002583 0.012376 -0.004442 0.000000 0.000000 0.000000
# 3 -0.004442 -0.004442 0.016366 0.000000 0.000000 0.000000
# 4 0.000000 0.000000 0.000000 0.032831 0.000000 0.000000
# 5 0.000000 0.000000 0.000000 0.000000 0.032831 0.000000
# 6 0.000000 0.000000 0.000000 0.000000 0.000000 0.029917
#
#
# Mechanical properties :
#
#
# Convention : Reuss Voigt Hill
#
# Bulk Modulus (GPa) = 54.98988 55.44923 55.21956
# Shear Modulus (GPa) = 30.17655 30.57103 30.37379
#
# Velocity S-wave (km/s) = 3.90516 3.93061 3.91791
# Velocity P-wave (km/s) = 6.93714 6.97294 6.95506
#
# Compressibility (1/GPa) = 0.01818516
#
# Stress axis : x y z
#
# Youngs Moduli (GPa) = 80.80241 80.80241 61.10360
#
# Poissons Ratio (x) = 0.20870 0.27140
# Poissons Ratio (y) = 0.20870 0.27140
# Poissons Ratio (z) = 0.35889 0.35889
#
# Static dielectric constant tensor:
#      x y z
#    x 3.611070 0.000000 0.000000 
#    y 0.000000 3.611070 0.000000 
#    z 0.000000 0.000000 3.672950 
# 
# 
# High freq. dielectric constant tensor:
#      x y z
#    x 1.777360 0.000000 0.000000 
#    y 0.000000 1.777360 0.000000 
#    z 0.000000 0.000000 1.783780 
# 
# From -- ./inp_files/2080.got.cif
#   From: 2010.03.12/outbox.cif.g09.slc.cpg/sg194_2_cif.got.tgz:2080.got - 2010.04.01 12:26:19.
