data_PCOD8330062
_publ_section_title
;
Structure prediction by ZEFSAII (Michael W. Deem and Ramdas Pophale) SiO2 
 PCOD8330062
Probable space group: P 63/M C M
;
_chemical_formula_sum "Si O2"
_cell_formula_units_Z 132
_cell_length_a 17.856397
_cell_length_b 17.856397
_cell_length_c 25.326515
_cell_angle_alpha 90.000000
_cell_angle_beta 90.000000
_cell_angle_gamma 120.000000
_cell_volume 6993.486348
_symmetry_space_group_name_H-M "P 63/M C M"
_symmetry_group_IT_number 193
_symmetry_cell_setting 'hexagonal'
loop_
_space_group_symop_operation_xyz
x,y,z
x-y,x,1/2+z
-y,x-y,z
-x,-y,1/2+z
-x+y,-x,z
y,-x+y,1/2+z
x-y,-y,1/2-z
-x,-x+y,1/2-z
y,x,1/2-z
-y,-x,-z
-x+y,y,-z
x,x-y,-z
-x,-y,-z
-x+y,-x,1/2-z
y,-x+y,-z
x,y,1/2-z
x-y,x,-z
-y,x-y,1/2-z
-x+y,y,1/2+z
x,x-y,1/2+z
-y,-x,1/2+z
y,x,z
x-y,-y,z
-x,-x+y,z
loop_
_atom_site_type_symbol
_atom_site_label
_atom_site_fract_x
_atom_site_fract_y
_atom_site_fract_z
Si Si1 0.593523 0.796762 0.500000
Si Si2 0.342250 0.246722 0.842635
Si Si3 0.277800 0.469859 0.750000
Si Si4 0.500164 0.902896 0.133264
Si Si5 0.611099 0.461834 0.750000
Si Si6 0.237862 0.897452 0.897529
Si Si7 0.902940 0.362536 0.433878
O O1 0.657982 0.794255 0.543605
O O2 0.532966 0.835225 0.520910
O O3 0.266524 0.266524 0.824524
O O4 0.416894 0.279746 0.799712
O O5 0.302513 0.144949 0.856119
O O6 0.385046 0.298531 0.895278
O O7 0.196217 0.482583 0.750000
O O8 0.358430 0.567474 0.750000
O O9 0.484917 0.905067 0.195967
O O10 0.559027 0.860509 0.119714
O O11 0.412649 0.861405 0.097911
O O12 0.552980 0.000000 0.113352
O O13 0.280431 0.000000 0.893558
O O14 0.000000 0.428240 0.457046
#
# Coordination Sequence:
#
# PCOD8330062 Si02
#       7
#    12  24  12  24  12  24  24
#     4  10  20  34  54  80 111 148 197 244 286 342
#     4  10  20  35  57  85 115 149 194 239 284 344
#     4  12  22  35  55  84 119 162 191 226 284 332
#     4  10  20  34  56  81 110 147 190 234 281 337
#     4  12  22  35  53  80 120 156 187 228 272 332
#     4  10  21  38  59  84 115 150 189 241 298 345
#     4   9  18  33  54  79 107 146 194 240 284 336
#
# _framework density 18.874706
#
# number of rings (size 3 to 8) (size 9 to 14) (size 15 to 20)
#    0.000    1.818    3.636    1.273    0.000    2.182 
#    0.000    3.182    0.000    7.636    0.000    0.636 
#    0.000    0.000    0.000    0.000    0.000    0.000 
#
# Total GULP energy -1635472.759631 kJ/mol
# GULP energy per Si atom -12389.945149 kJ/mol
# Density = 1.883175 g / cm^3
# Si number density = 18.874706 Si / 1000 Ang^3
#
#
#
# Elastic Constant Matrix: (Units=GPa)
#
#
# Indices 1 2 3 4 5 6 
#
# 1 100.6168 52.7279 36.1799 0.0000 0.0000 0.0000
# 2 52.7279 100.6168 36.1799 0.0000 0.0000 0.0000
# 3 36.1799 36.1799 84.1995 0.0000 0.0000 0.0000
# 4 0.0000 0.0000 0.0000 23.7306 0.0000 0.0000
# 5 0.0000 0.0000 0.0000 0.0000 23.7306 0.0000
# 6 0.0000 0.0000 0.0000 0.0000 0.0000 23.9444
#
#
#
# Elastic Compliance Matrix: (Units=1/GPa)
#
#
# Indices 1 2 3 4 5 6 
#
# 1 0.014531 -0.006351 -0.003515 0.000000 0.000000 0.000000
# 2 -0.006351 0.014531 -0.003515 0.000000 0.000000 0.000000
# 3 -0.003515 -0.003515 0.014897 0.000000 0.000000 0.000000
# 4 0.000000 0.000000 0.000000 0.042140 0.000000 0.000000
# 5 0.000000 0.000000 0.000000 0.000000 0.042140 0.000000
# 6 0.000000 0.000000 0.000000 0.000000 0.000000 0.041763
#
#
# Mechanical properties :
#
#
# Convention : Reuss Voigt Hill
#
# Bulk Modulus (GPa) = 58.14788 59.51206 58.82997
# Shear Modulus (GPa) = 24.69196 24.97081 24.83139
#
# Velocity S-wave (km/s) = 3.62083 3.64122 3.63104
# Velocity P-wave (km/s) = 6.95376 7.01972 6.98682
#
# Compressibility (1/GPa) = 0.01719753
#
# Stress axis : x y z
#
# Youngs Moduli (GPa) = 68.81959 68.81959 67.12702
#
# Poissons Ratio (x) = 0.43707 0.23594
# Poissons Ratio (y) = 0.43707 0.23594
# Poissons Ratio (z) = 0.24189 0.24189
#
# Static dielectric constant tensor:
#      x y z
#    x 3.593380 0.000000 0.000000 
#    y 0.000000 3.593380 0.000000 
#    z 0.000000 0.000000 3.621650 
# 
# 
# High freq. dielectric constant tensor:
#      x y z
#    x 1.714400 0.000000 0.000000 
#    y 0.000000 1.714400 0.000000 
#    z 0.000000 0.000000 1.743580 
# 
# From -- ./inp_files/7516.got.cif
#   From: 2010.03.12/outbox.cif.g09.slc.cpg/sg193_4_cif.got.tgz:7516.got - 2010.04.01 12:20:39.
