data_PCOD8330715
_publ_section_title
;
Structure prediction by ZEFSAII (Michael W. Deem and Ramdas Pophale) SiO2 
 PCOD8330715
Probable space group: P 63/M M C
;
_chemical_formula_sum "Si O2"
_cell_formula_units_Z 144
_cell_length_a 21.344046
_cell_length_b 21.344046
_cell_length_c 20.249471
_cell_angle_alpha 90.000000
_cell_angle_beta 90.000000
_cell_angle_gamma 120.000000
_cell_volume 7989.099135
_symmetry_space_group_name_H-M "P 63/M M C"
_symmetry_group_IT_number 194
_symmetry_cell_setting 'hexagonal'
loop_
_space_group_symop_operation_xyz
x,y,z
x-y,x,1/2+z
-y,x-y,z
-x,-y,1/2+z
-x+y,-x,z
y,-x+y,1/2+z
x-y,-y,-z
-x,-x+y,-z
y,x,-z
-y,-x,1/2-z
-x+y,y,1/2-z
x,x-y,1/2-z
-x,-y,-z
-x+y,-x,1/2-z
y,-x+y,-z
x,y,1/2-z
x-y,x,-z
-y,x-y,1/2-z
-x+y,y,z
x,x-y,z
-y,-x,z
y,x,1/2+z
x-y,-y,1/2+z
-x,-x+y,1/2+z
loop_
_atom_site_type_symbol
_atom_site_label
_atom_site_fract_x
_atom_site_fract_y
_atom_site_fract_z
Si Si1 0.801205 0.052054 0.559675
Si Si2 0.332036 0.519719 0.949554
Si Si3 0.280813 0.415179 0.431038
Si Si4 0.855013 0.000033 0.674604
Si Si5 0.457947 0.059683 0.673920
Si Si6 0.374457 0.476855 0.822473
O O1 0.876138 0.123863 0.547589
O O2 0.736474 0.069794 0.559765
O O3 0.801862 0.014246 0.628603
O O4 0.791977 0.000000 0.500000
O O5 0.271536 0.543072 0.954897
O O6 0.409991 0.590009 0.959528
O O7 0.324006 0.482063 0.878394
O O8 0.321200 0.460822 0.004110
O O9 0.209120 0.418240 0.415778
O O10 0.331519 0.449185 0.368210
O O11 0.830287 0.998997 0.750000
O O12 0.937995 0.062006 0.664464
O O13 0.848761 0.924381 0.654933
O O14 0.460215 0.080917 0.750000
O O15 0.532392 0.064784 0.652051
O O16 0.391456 0.978583 0.660883
O O17 0.336651 0.463394 0.750000
O O18 0.449826 0.550175 0.819343
#
# Coordination Sequence:
#
# PCOD8330715 Si02
#       6
#    24  24  24  24  24  24
#     4  10  21  35  51  72 103 140 176 214 257 306
#     4  10  20  34  53  77 106 138 172 212 259 311
#     4  10  22  35  50  76 104 136 176 216 258 301
#     4   9  17  31  53  79 104 131 167 212 260 309
#     4   9  18  34  56  78  99 127 165 211 261 308
#     4   8  16  31  51  77 104 128 161 205 248 297
#
# _framework density 18.024560999999999
#
# number of rings (size 3 to 8) (size 9 to 14) (size 15 to 20)
#    0.000    2.667    0.000    2.333    2.333    2.000 
#    0.000    4.167    0.000    4.000    0.000    0.000 
#    0.000    0.000    0.000    0.000    0.000    0.000 
#
# Total GULP energy -1785472.233840 kJ/mol
# GULP energy per Si atom -12399.112735 kJ/mol
# Density = 1.798354 g / cm^3
# Si number density = 18.024561 Si / 1000 Ang^3
#
#
#
# Elastic Constant Matrix: (Units=GPa)
#
#
# Indices 1 2 3 4 5 6 
#
# 1 78.9174 41.3623 62.6825 0.0000 0.0000 0.0000
# 2 41.3623 78.9174 62.6825 0.0000 0.0000 0.0000
# 3 62.6825 62.6825 121.2055 0.0000 0.0000 0.0000
# 4 0.0000 0.0000 0.0000 27.8925 0.0000 0.0000
# 5 0.0000 0.0000 0.0000 0.0000 27.8925 0.0000
# 6 0.0000 0.0000 0.0000 0.0000 0.0000 18.7775
#
#
#
# Elastic Compliance Matrix: (Units=1/GPa)
#
#
# Indices 1 2 3 4 5 6 
#
# 1 0.022332 -0.004296 -0.009327 0.000000 0.000000 0.000000
# 2 -0.004296 0.022332 -0.009327 0.000000 0.000000 0.000000
# 3 -0.009327 -0.009327 0.017898 0.000000 0.000000 0.000000
# 4 0.000000 0.000000 0.000000 0.035852 0.000000 0.000000
# 5 0.000000 0.000000 0.000000 0.000000 0.035852 0.000000
# 6 0.000000 0.000000 0.000000 0.000000 0.000000 0.053255
#
#
# Mechanical properties :
#
#
# Convention : Reuss Voigt Hill
#
# Bulk Modulus (GPa) = 60.02437 68.05497 64.03967
# Shear Modulus (GPa) = 20.92276 22.40003 21.66139
#
# Velocity S-wave (km/s) = 3.41074 3.52909 3.47042
# Velocity P-wave (km/s) = 6.99175 7.37867 7.18781
#
# Compressibility (1/GPa) = 0.01665990
#
# Stress axis : x y z
#
# Youngs Moduli (GPa) = 44.77968 44.77968 55.87289
#
# Poissons Ratio (x) = 0.19238 0.52114
# Poissons Ratio (y) = 0.19238 0.52114
# Poissons Ratio (z) = 0.41767 0.41767
#
# Static dielectric constant tensor:
#      x y z
#    x 3.234210 0.000000 0.000000 
#    y 0.000000 3.234210 0.000000 
#    z 0.000000 0.000000 3.501590 
# 
# 
# High freq. dielectric constant tensor:
#      x y z
#    x 1.688550 0.000000 0.000000 
#    y 0.000000 1.688550 0.000000 
#    z 0.000000 0.000000 1.706800 
# 
# From -- ./inp_files/8276.got.cif
#   From: 2010.03.12/outbox.cif.g09.slc.cpg/sg194_5_cif.got.tgz:8276.got - 2010.04.01 12:26:19.
