data_PCOD8330318
_publ_section_title
;
Structure prediction by ZEFSAII (Michael W. Deem and Ramdas Pophale) SiO2 
 PCOD8330318
Probable space group: P 63/M M C
;
_chemical_formula_sum "Si O2"
_cell_formula_units_Z 144
_cell_length_a 22.408178
_cell_length_b 22.408178
_cell_length_c 19.516001
_cell_angle_alpha 90.000000
_cell_angle_beta 90.000000
_cell_angle_gamma 120.000000
_cell_volume 8486.616057
_symmetry_space_group_name_H-M "P 63/M M C"
_symmetry_group_IT_number 194
_symmetry_cell_setting 'hexagonal'
loop_
_space_group_symop_operation_xyz
x,y,z
x-y,x,1/2+z
-y,x-y,z
-x,-y,1/2+z
-x+y,-x,z
y,-x+y,1/2+z
x-y,-y,-z
-x,-x+y,-z
y,x,-z
-y,-x,1/2-z
-x+y,y,1/2-z
x,x-y,1/2-z
-x,-y,-z
-x+y,-x,1/2-z
y,-x+y,-z
x,y,1/2-z
x-y,x,-z
-y,x-y,1/2-z
-x+y,y,z
x,x-y,z
-y,-x,z
y,x,1/2+z
x-y,-y,1/2+z
-x,-x+y,1/2+z
loop_
_atom_site_type_symbol
_atom_site_label
_atom_site_fract_x
_atom_site_fract_y
_atom_site_fract_z
Si Si1 0.728437 0.593794 0.171390
Si Si2 0.333257 0.531163 0.328167
Si Si3 0.200447 0.269351 0.588754
Si Si4 0.294533 0.214392 0.568846
Si Si5 0.531586 0.923733 0.926116
Si Si6 0.429718 0.352303 0.922610
O O1 0.709124 0.595251 0.250000
O O2 0.785737 0.571473 0.163108
O O3 0.755694 0.669766 0.141445
O O4 0.660858 0.537315 0.132117
O O5 0.328380 0.505894 0.250000
O O6 0.259624 0.519248 0.353370
O O7 0.388078 0.611922 0.334188
O O8 0.358229 0.490024 0.375361
O O9 0.118143 0.236286 0.602921
O O10 0.224559 0.212534 0.594849
O O11 0.217878 0.300952 0.512922
O O12 0.292829 0.146415 0.598204
O O13 0.360304 0.282454 0.597362
O O14 0.453848 0.907696 0.928734
O O15 0.582262 0.003291 0.907648
O O16 0.551137 0.903305 0.998169
#
# Coordination Sequence:
#
# PCOD8330318 Si02
#       6
#    24  24  24  24  24  24
#     4  10  20  34  52  73  98 130 169 209 253 305
#     4  10  21  36  52  70  96 134 175 210 248 299
#     4   9  16  31  50  72 101 132 166 207 249 296
#     4  10  17  28  51  79 102 131 170 208 249 298
#     4  11  21  34  53  76 103 130 166 211 257 307
#     4  11  19  34  51  76 103 135 165 208 255 304
#
# _framework density 16.967894000000001
#
# number of rings (size 3 to 8) (size 9 to 14) (size 15 to 20)
#    0.000    1.833    3.333    3.667    0.000    2.333 
#    0.000    0.000    0.000    1.167    0.000    2.333 
#    0.000    0.000    0.000    0.000    0.000    0.167 
#
# Total GULP energy -1785603.162147 kJ/mol
# GULP energy per Si atom -12400.021959 kJ/mol
# Density = 1.692927 g / cm^3
# Si number density = 16.967894 Si / 1000 Ang^3
#
#
#
# Elastic Constant Matrix: (Units=GPa)
#
#
# Indices 1 2 3 4 5 6 
#
# 1 95.2093 44.9826 38.4841 0.0000 0.0000 0.0000
# 2 44.9826 95.2093 38.4841 0.0000 0.0000 0.0000
# 3 38.4841 38.4841 68.1440 0.0000 0.0000 0.0000
# 4 0.0000 0.0000 0.0000 21.2914 0.0000 0.0000
# 5 0.0000 0.0000 0.0000 0.0000 21.2914 0.0000
# 6 0.0000 0.0000 0.0000 0.0000 0.0000 25.1133
#
#
#
# Elastic Compliance Matrix: (Units=1/GPa)
#
#
# Indices 1 2 3 4 5 6 
#
# 1 0.015124 -0.004786 -0.005839 0.000000 0.000000 0.000000
# 2 -0.004786 0.015124 -0.005839 0.000000 0.000000 0.000000
# 3 -0.005839 -0.005839 0.021270 0.000000 0.000000 0.000000
# 4 0.000000 0.000000 0.000000 0.046967 0.000000 0.000000
# 5 0.000000 0.000000 0.000000 0.000000 0.046967 0.000000
# 6 0.000000 0.000000 0.000000 0.000000 0.000000 0.039819
#
#
# Mechanical properties :
#
#
# Convention : Reuss Voigt Hill
#
# Bulk Modulus (GPa) = 53.78651 55.82938 54.80794
# Shear Modulus (GPa) = 22.28210 22.64668 22.46439
#
# Velocity S-wave (km/s) = 3.62773 3.65729 3.64254
# Velocity P-wave (km/s) = 7.02247 7.12802 7.07544
#
# Compressibility (1/GPa) = 0.01859202
#
# Stress axis : x y z
#
# Youngs Moduli (GPa) = 66.11920 66.11920 47.01548
#
# Poissons Ratio (x) = 0.31642 0.27451
# Poissons Ratio (y) = 0.31642 0.27451
# Poissons Ratio (z) = 0.38605 0.38605
#
# Static dielectric constant tensor:
#      x y z
#    x 3.210990 0.000000 0.000000 
#    y 0.000000 3.210990 0.000000 
#    z 0.000000 0.000000 3.095340 
# 
# 
# High freq. dielectric constant tensor:
#      x y z
#    x 1.648630 0.000000 0.000000 
#    y 0.000000 1.648630 0.000000 
#    z 0.000000 0.000000 1.640810 
# 
# From -- ./inp_files/6992.got.cif
#   From: 2010.03.12/outbox.cif.g09.slc.cpg/sg194_4_cif.got.tgz:6992.got - 2010.04.01 12:26:19.
