data_PCOD8330030
_publ_section_title
;
Structure prediction by ZEFSAII (Michael W. Deem and Ramdas Pophale) SiO2 
 PCOD8330030
Probable space group: P 63/M C M
;
_chemical_formula_sum "Si O2"
_cell_formula_units_Z 168
_cell_length_a 21.432296
_cell_length_b 21.432296
_cell_length_c 23.373635
_cell_angle_alpha 90.000000
_cell_angle_beta 90.000000
_cell_angle_gamma 120.000000
_cell_volume 9298.101589
_symmetry_space_group_name_H-M "P 63/M C M"
_symmetry_group_IT_number 193
_symmetry_cell_setting 'hexagonal'
loop_
_space_group_symop_operation_xyz
x,y,z
x-y,x,1/2+z
-y,x-y,z
-x,-y,1/2+z
-x+y,-x,z
y,-x+y,1/2+z
x-y,-y,1/2-z
-x,-x+y,1/2-z
y,x,1/2-z
-y,-x,-z
-x+y,y,-z
x,x-y,-z
-x,-y,-z
-x+y,-x,1/2-z
y,-x+y,-z
x,y,1/2-z
x-y,x,-z
-y,x-y,1/2-z
-x+y,y,1/2+z
x,x-y,1/2+z
-y,-x,1/2+z
y,x,z
x-y,-y,z
-x,-x+y,z
loop_
_atom_site_type_symbol
_atom_site_label
_atom_site_fract_x
_atom_site_fract_y
_atom_site_fract_z
Si Si1 0.918228 0.207892 0.921224
Si Si2 0.080280 0.660203 0.872805
Si Si3 0.080903 0.529752 0.564036
Si Si4 0.816056 0.345094 0.849633
Si Si5 0.225082 0.919275 0.450178
Si Si6 0.918325 0.624417 0.312977
Si Si7 0.529465 0.317664 0.813918
O O1 0.857594 0.124342 0.927874
O O2 0.897111 0.238914 0.866175
O O3 0.000000 0.221985 0.913481
O O4 0.912180 0.240262 0.982511
O O5 0.081435 0.595767 0.905112
O O6 0.105488 0.726072 0.916455
O O7 0.138594 0.685623 0.822196
O O8 0.000000 0.633194 0.848143
O O9 0.105799 0.552900 0.500000
O O10 0.140684 0.513614 0.590689
O O11 0.000000 0.459784 0.567253
O O12 0.866350 0.327550 0.809867
O O13 0.737777 0.273487 0.857562
O O14 0.803788 0.405671 0.821116
O O15 0.246534 0.000000 0.435169
O O16 0.911381 0.654225 0.250000
O O17 0.000000 0.641777 0.322124
O O18 0.531287 0.291250 0.750000
#
# Coordination Sequence:
#
# PCOD8330030 Si02
#       7
#    24  24  24  24  24  24  24
#     4   9  18  31  51  78 104 135 168 207 260 310
#     4   9  19  34  50  73  99 128 169 210 255 309
#     4   9  19  35  55  77 102 130 160 207 266 320
#     4  11  22  36  52  75  98 133 177 216 258 312
#     4   9  17  31  51  75 104 135 170 209 247 302
#     4  10  20  33  52  79 106 130 164 217 272 316
#     4  11  22  36  53  71  98 137 176 217 259 305
#
# _framework density 18.068204999999999
#
# number of rings (size 3 to 8) (size 9 to 14) (size 15 to 20)
#    0.000    2.286    0.000    2.857    2.000    0.857 
#    0.000    2.143    0.000    1.571    0.000    2.000 
#    0.000    0.000    0.000    0.000    0.000    0.143 
#
# Total GULP energy -2081571.008400 kJ/mol
# GULP energy per Si atom -12390.303621 kJ/mol
# Density = 1.802708 g / cm^3
# Si number density = 18.068205 Si / 1000 Ang^3
#
#
#
# Elastic Constant Matrix: (Units=GPa)
#
#
# Indices 1 2 3 4 5 6 
#
# 1 92.6091 43.5738 48.3967 0.0000 0.0000 0.0000
# 2 43.5738 92.6091 48.3967 0.0000 0.0000 0.0000
# 3 48.3967 48.3967 104.2872 0.0000 0.0000 0.0000
# 4 0.0000 0.0000 0.0000 21.4863 0.0000 0.0000
# 5 0.0000 0.0000 0.0000 0.0000 21.4863 0.0000
# 6 0.0000 0.0000 0.0000 0.0000 0.0000 24.5177
#
#
#
# Elastic Compliance Matrix: (Units=1/GPa)
#
#
# Indices 1 2 3 4 5 6 
#
# 1 0.015675 -0.004718 -0.005085 0.000000 0.000000 0.000000
# 2 -0.004718 0.015675 -0.005085 0.000000 0.000000 0.000000
# 3 -0.005085 -0.005085 0.014308 0.000000 0.000000 0.000000
# 4 0.000000 0.000000 0.000000 0.046541 0.000000 0.000000
# 5 0.000000 0.000000 0.000000 0.000000 0.046541 0.000000
# 6 0.000000 0.000000 0.000000 0.000000 0.000000 0.040787
#
#
# Mechanical properties :
#
#
# Convention : Reuss Voigt Hill
#
# Bulk Modulus (GPa) = 62.95971 63.35997 63.15984
# Shear Modulus (GPa) = 23.29929 23.44063 23.36996
#
# Velocity S-wave (km/s) = 3.59488 3.60577 3.60033
# Velocity P-wave (km/s) = 7.22164 7.24422 7.23294
#
# Compressibility (1/GPa) = 0.01588317
#
# Stress axis : x y z
#
# Youngs Moduli (GPa) = 63.79445 63.79445 69.88876
#
# Poissons Ratio (x) = 0.30099 0.35538
# Poissons Ratio (y) = 0.30099 0.35538
# Poissons Ratio (z) = 0.32439 0.32439
#
# Static dielectric constant tensor:
#      x y z
#    x 3.395460 0.000000 0.000000 
#    y 0.000000 3.395460 0.000000 
#    z 0.000000 0.000000 3.198630 
# 
# 
# High freq. dielectric constant tensor:
#      x y z
#    x 1.691290 0.000000 0.000000 
#    y 0.000000 1.691290 0.000000 
#    z 0.000000 0.000000 1.696580 
# 
# From -- ./inp_files/7695.got.cif
#   From: 2010.03.12/outbox.cif.g09.slc.cpg/sg193_4_cif.got.tgz:7695.got - 2010.04.01 12:20:39.
