data_PCOD8330612
_publ_section_title
;
Structure prediction by ZEFSAII (Michael W. Deem and Ramdas Pophale) SiO2 
 PCOD8330612
Probable space group: P 63/M M C
;
_chemical_formula_sum "Si O2"
_cell_formula_units_Z 144
_cell_length_a 21.161441
_cell_length_b 21.161441
_cell_length_c 20.115283
_cell_angle_alpha 90.000000
_cell_angle_beta 90.000000
_cell_angle_gamma 120.000000
_cell_volume 7800.945692
_symmetry_space_group_name_H-M "P 63/M M C"
_symmetry_group_IT_number 194
_symmetry_cell_setting 'hexagonal'
loop_
_space_group_symop_operation_xyz
x,y,z
x-y,x,1/2+z
-y,x-y,z
-x,-y,1/2+z
-x+y,-x,z
y,-x+y,1/2+z
x-y,-y,-z
-x,-x+y,-z
y,x,-z
-y,-x,1/2-z
-x+y,y,1/2-z
x,x-y,1/2-z
-x,-y,-z
-x+y,-x,1/2-z
y,-x+y,-z
x,y,1/2-z
x-y,x,-z
-y,x-y,1/2-z
-x+y,y,z
x,x-y,z
-y,-x,z
y,x,1/2+z
x-y,-y,1/2+z
-x,-x+y,1/2+z
loop_
_atom_site_type_symbol
_atom_site_label
_atom_site_fract_x
_atom_site_fract_y
_atom_site_fract_z
Si Si1 0.420475 0.438102 0.176670
Si Si2 0.061787 0.795223 0.173525
Si Si3 0.057637 0.659739 0.556342
Si Si4 0.852720 0.284465 0.640744
Si Si5 0.331792 0.811513 0.006664
Si Si6 0.050363 0.249239 0.938438
O O1 0.433595 0.416445 0.250000
O O2 0.493985 0.506016 0.148191
O O3 0.393416 0.369566 0.128696
O O4 0.358559 0.462127 0.182712
O O5 0.040942 0.767358 0.250000
O O6 0.118448 0.881553 0.173204
O O7 0.097601 0.753240 0.136400
O O8 0.991074 0.779764 0.131789
O O9 0.131063 0.654375 0.551864
O O10 0.077544 0.743138 0.550750
O O11 0.000000 0.609803 0.500000
O O12 0.773813 0.226188 0.672960
O O13 0.840926 0.305250 0.567546
O O14 0.404849 0.809698 0.023949
O O15 0.269545 0.730456 0.985621
O O16 0.119023 0.238046 0.936554
O O17 0.000000 0.203116 0.000000
#
# Coordination Sequence:
#
# PCOD8330612 Si02
#       6
#    24  24  24  24  24  24
#     4  11  22  35  53  81 116 150 186 231 282 336
#     4  10  20  36  59  85 114 149 189 231 277 334
#     4  11  21  36  58  82 110 144 187 233 283 336
#     4  10  19  33  55  81 110 144 184 228 273 328
#     4  11  22  36  55  80 111 147 189 232 278 331
#     4  11  22  37  58  85 116 146 182 234 288 340
#
# _framework density 18.459301
#
# number of rings (size 3 to 8) (size 9 to 14) (size 15 to 20)
#    0.000    1.333    3.333    3.667    0.000    3.333 
#    0.000    0.000    0.000    4.833    0.000    0.000 
#    0.000    1.333    0.000    0.000    0.000    0.000 
#
# Total GULP energy -1785349.703308 kJ/mol
# GULP energy per Si atom -12398.261829 kJ/mol
# Density = 1.841729 g / cm^3
# Si number density = 18.459301 Si / 1000 Ang^3
#
#
#
# Elastic Constant Matrix: (Units=GPa)
#
#
# Indices 1 2 3 4 5 6 
#
# 1 106.3191 57.0500 47.2243 0.0000 0.0000 0.0000
# 2 57.0500 106.3191 47.2243 0.0000 0.0000 0.0000
# 3 47.2243 47.2243 96.0590 0.0000 0.0000 0.0000
# 4 0.0000 0.0000 0.0000 20.6526 0.0000 0.0000
# 5 0.0000 0.0000 0.0000 0.0000 20.6526 0.0000
# 6 0.0000 0.0000 0.0000 0.0000 0.0000 24.6346
#
#
#
# Elastic Compliance Matrix: (Units=1/GPa)
#
#
# Indices 1 2 3 4 5 6 
#
# 1 0.014424 -0.005873 -0.004204 0.000000 0.000000 0.000000
# 2 -0.005873 0.014424 -0.004204 0.000000 0.000000 0.000000
# 3 -0.004204 -0.004204 0.014544 0.000000 0.000000 0.000000
# 4 0.000000 0.000000 0.000000 0.048420 0.000000 0.000000
# 5 0.000000 0.000000 0.000000 0.000000 0.048420 0.000000
# 6 0.000000 0.000000 0.000000 0.000000 0.000000 0.040593
#
#
# Mechanical properties :
#
#
# Convention : Reuss Voigt Hill
#
# Bulk Modulus (GPa) = 67.42790 67.96607 67.69698
# Shear Modulus (GPa) = 23.32842 23.66786 23.49814
#
# Velocity S-wave (km/s) = 3.55882 3.58462 3.57174
# Velocity P-wave (km/s) = 7.31397 7.35065 7.33233
#
# Compressibility (1/GPa) = 0.01483066
#
# Stress axis : x y z
#
# Youngs Moduli (GPa) = 69.32809 69.32809 68.75717
#
# Poissons Ratio (x) = 0.40713 0.28907
# Poissons Ratio (y) = 0.40713 0.28907
# Poissons Ratio (z) = 0.29147 0.29147
#
# Static dielectric constant tensor:
#      x y z
#    x 3.424040 0.000000 0.000000 
#    y 0.000000 3.424040 0.000000 
#    z 0.000000 0.000000 3.305140 
# 
# 
# High freq. dielectric constant tensor:
#      x y z
#    x 1.708350 0.000000 0.000000 
#    y 0.000000 1.708350 0.000000 
#    z 0.000000 0.000000 1.707820 
# 
# From -- ./inp_files/8230.got.cif
#   From: 2010.03.12/outbox.cif.g09.slc.cpg/sg194_5_cif.got.tgz:8230.got - 2010.04.01 12:26:19.
