data_PCOD8330754
_publ_section_title
;
Structure prediction by ZEFSAII (Michael W. Deem and Ramdas Pophale) SiO2 
 PCOD8330754
Probable space group: P 63/M M C
;
_chemical_formula_sum "Si O2"
_cell_formula_units_Z 144
_cell_length_a 31.055030
_cell_length_b 31.055030
_cell_length_c 9.051321
_cell_angle_alpha 90.000000
_cell_angle_beta 90.000000
_cell_angle_gamma 120.000000
_cell_volume 7559.733837
_symmetry_space_group_name_H-M "P 63/M M C"
_symmetry_group_IT_number 194
_symmetry_cell_setting 'hexagonal'
loop_
_space_group_symop_operation_xyz
x,y,z
x-y,x,1/2+z
-y,x-y,z
-x,-y,1/2+z
-x+y,-x,z
y,-x+y,1/2+z
x-y,-y,-z
-x,-x+y,-z
y,x,-z
-y,-x,1/2-z
-x+y,y,1/2-z
x,x-y,1/2-z
-x,-y,-z
-x+y,-x,1/2-z
y,-x+y,-z
x,y,1/2-z
x-y,x,-z
-y,x-y,1/2-z
-x+y,y,z
x,x-y,z
-y,-x,z
y,x,1/2+z
x-y,-y,1/2+z
-x,-x+y,1/2+z
loop_
_atom_site_type_symbol
_atom_site_label
_atom_site_fract_x
_atom_site_fract_y
_atom_site_fract_z
Si Si1 0.703724 0.753941 0.923563
Si Si2 0.234385 0.567587 0.919611
Si Si3 0.141795 0.382188 0.419657
Si Si4 0.660931 0.143024 0.579738
Si Si5 0.575237 0.051003 0.077534
Si Si6 0.852601 0.802655 0.076356
O O1 0.701075 0.745187 0.750000
O O2 0.748114 0.808493 0.968488
O O3 0.712009 0.712009 0.000000
O O4 0.652248 0.747795 0.977817
O O5 0.219607 0.550943 0.750000
O O6 0.281533 0.563065 0.968294
O O7 0.248567 0.624284 0.942007
O O8 0.188393 0.533227 0.022814
O O9 0.127618 0.365702 0.250000
O O10 0.188622 0.377243 0.470295
O O11 0.156517 0.439028 0.442460
O O12 0.644556 0.133271 0.750000
O O13 0.626183 0.093959 0.487724
O O14 0.581886 0.045578 0.250000
O O15 0.531976 0.063951 0.045923
O O16 0.563280 0.000000 0.000000
O O17 0.853824 0.810753 0.250000
O O18 0.903977 0.807954 0.018586
O O19 0.845043 0.845043 0.000000
#
# Coordination Sequence:
#
# PCOD8330754 Si02
#       6
#    24  24  24  24  24  24
#     4  10  20  35  56  81 108 139 177 221 269 319
#     4  10  21  38  60  85 113 145 182 225 274 328
#     4  10  22  39  56  76 107 146 184 222 266 316
#     4  11  23  38  57  82 113 148 185 226 272 324
#     4  10  21  38  60  85 112 143 182 228 277 328
#     4   9  18  32  50  75 105 134 169 214 260 308
#
# _framework density 19.048289
#
# number of rings (size 3 to 8) (size 9 to 14) (size 15 to 20)
#    0.000    2.000    0.000    3.167    0.000    9.000 
#    0.000    0.000    0.000    1.167    0.000    0.000 
#    0.000    0.000    0.000    0.000    0.000    0.000 
#
# Total GULP energy -1786423.674924 kJ/mol
# GULP energy per Si atom -12405.719965 kJ/mol
# Density = 1.900493 g / cm^3
# Si number density = 19.048289 Si / 1000 Ang^3
#
#
#
# Elastic Constant Matrix: (Units=GPa)
#
#
# Indices 1 2 3 4 5 6 
#
# 1 94.6158 29.7976 41.7091 0.0000 0.0000 0.0000
# 2 29.7976 94.6158 41.7091 0.0000 0.0000 0.0000
# 3 41.7091 41.7091 81.9446 0.0000 0.0000 0.0000
# 4 0.0000 0.0000 0.0000 33.6609 0.0000 0.0000
# 5 0.0000 0.0000 0.0000 0.0000 33.6609 0.0000
# 6 0.0000 0.0000 0.0000 0.0000 0.0000 32.4091
#
#
#
# Elastic Compliance Matrix: (Units=1/GPa)
#
#
# Indices 1 2 3 4 5 6 
#
# 1 0.013815 -0.001613 -0.006211 0.000000 0.000000 0.000000
# 2 -0.001613 0.013815 -0.006211 0.000000 0.000000 0.000000
# 3 -0.006211 -0.006211 0.018526 0.000000 0.000000 0.000000
# 4 0.000000 0.000000 0.000000 0.029708 0.000000 0.000000
# 5 0.000000 0.000000 0.000000 0.000000 0.029708 0.000000
# 6 0.000000 0.000000 0.000000 0.000000 0.000000 0.030856
#
#
# Mechanical properties :
#
#
# Convention : Reuss Voigt Hill
#
# Bulk Modulus (GPa) = 55.28872 55.28977 55.28924
# Shear Modulus (GPa) = 29.32126 30.47686 29.89906
#
# Velocity S-wave (km/s) = 3.92766 4.00431 3.96617
# Velocity P-wave (km/s) = 7.04679 7.10412 7.07551
#
# Compressibility (1/GPa) = 0.01808687
#
# Stress axis : x y z
#
# Youngs Moduli (GPa) = 72.38586 72.38586 53.97889
#
# Poissons Ratio (x) = 0.11675 0.33525
# Poissons Ratio (y) = 0.11675 0.33525
# Poissons Ratio (z) = 0.44957 0.44957
#
# Static dielectric constant tensor:
#      x y z
#    x 3.502680 0.000000 0.000000 
#    y 0.000000 3.502680 0.000000 
#    z 0.000000 0.000000 3.513250 
# 
# 
# High freq. dielectric constant tensor:
#      x y z
#    x 1.742530 0.000000 0.000000 
#    y 0.000000 1.742530 0.000000 
#    z 0.000000 0.000000 1.744360 
# 
# From -- ./inp_files/2088.got.cif
#   From: 2010.03.12/outbox.cif.g09.slc.cpg/sg194_2_cif.got.tgz:2088.got - 2010.04.01 12:26:19.
