data_PCOD8330943
_publ_section_title
;
Structure prediction by ZEFSAII (Michael W. Deem and Ramdas Pophale) SiO2 
 PCOD8330943
Probable space group: I M 3
;
_chemical_formula_sum "Si O2"
_cell_formula_units_Z 168
_cell_length_a 20.339177
_cell_length_b 20.339177
_cell_length_c 20.339177
_cell_angle_alpha 90.000000
_cell_angle_beta 90.000000
_cell_angle_gamma 90.000000
_cell_volume 8413.953882
_symmetry_space_group_name_H-M "I M 3"
_symmetry_group_IT_number 204
_symmetry_cell_setting 'cubic'
loop_
_space_group_symop_operation_xyz
x,y,z
z,x,y
y,z,x
-y,-z,x
z,-x,-y
-y,z,-x
-z,-x,y
-z,x,-y
y,-z,-x
-x,-y,z
x,-y,-z
-x,y,-z
-x,-y,-z
-z,-x,-y
-y,-z,-x
y,z,-x
-z,x,y
y,-z,x
z,x,-y
z,-x,y
-y,z,x
x,y,-z
-x,y,z
x,-y,z
1/2+x,1/2+y,1/2+z
1/2+z,1/2+x,1/2+y
1/2+y,1/2+z,1/2+x
1/2-y,1/2-z,1/2+x
1/2+z,1/2-x,1/2-y
1/2-y,1/2+z,1/2-x
1/2-z,1/2-x,1/2+y
1/2-z,1/2+x,1/2-y
1/2+y,1/2-z,1/2-x
1/2-x,1/2-y,1/2+z
1/2+x,1/2-y,1/2-z
1/2-x,1/2+y,1/2-z
1/2-x,1/2-y,1/2-z
1/2-z,1/2-x,1/2-y
1/2-y,1/2-z,1/2-x
1/2+y,1/2+z,1/2-x
1/2-z,1/2+x,1/2+y
1/2+y,1/2-z,1/2+x
1/2+z,1/2+x,1/2-y
1/2+z,1/2-x,1/2+y
1/2-y,1/2+z,1/2+x
1/2+x,1/2+y,1/2-z
1/2-x,1/2+y,1/2+z
1/2+x,1/2-y,1/2+z
loop_
_atom_site_type_symbol
_atom_site_label
_atom_site_fract_x
_atom_site_fract_y
_atom_site_fract_z
Si Si1 0.731546 0.574325 0.179100
Si Si2 0.077506 0.500000 0.426514
Si Si3 0.127995 0.578191 0.138314
Si Si4 0.576921 0.307202 0.343917
O O1 0.749159 0.500000 0.194359
O O2 0.800945 0.607258 0.159534
O O3 0.683611 0.576375 0.116315
O O4 0.700034 0.602627 0.245970
O O5 0.108850 0.500000 0.500000
O O6 0.100203 0.436482 0.385596
O O7 0.000000 0.500000 0.434130
O O8 0.119010 0.500000 0.147357
O O9 0.623451 0.305930 0.409322
O O10 0.500000 0.301516 0.363148
#
# Coordination Sequence:
#
# PCOD8330943 Si02
#       4
#    48  24  48  48
#     4  10  22  38  57  88 119 156 205 248 304 370
#     4   9  18  36  58  86 120 159 206 256 310 359
#     4  10  22  37  59  85 118 160 203 252 304 366
#     4   9  21  41  63  89 121 156 200 254 315 387
#
# _framework density 19.966832
#
# number of rings (size 3 to 8) (size 9 to 14) (size 15 to 20)
#    0.571    1.857    0.000    0.857    6.000    2.286 
#    2.571    1.429    0.000    0.571    0.000    0.000 
#    0.000    0.000    0.000    0.000    0.000    0.000 
#
# Total GULP energy -1040813.293737 kJ/mol
# GULP energy per Si atom -12390.634449 kJ/mol
# Density = 1.992139 g / cm^3
# Si number density = 19.966832 Si / 1000 Ang^3
#
#
#
# Elastic Constant Matrix: (Units=GPa)
#
#
# Indices 1 2 3 4 5 6 
#
# 1 91.1302 33.4951 33.4951 0.0000 0.0000 0.0000
# 2 33.4951 91.1302 33.4951 0.0000 0.0000 0.0000
# 3 33.4951 33.4951 91.1302 0.0000 0.0000 0.0000
# 4 0.0000 0.0000 0.0000 28.7154 0.0000 0.0000
# 5 0.0000 0.0000 0.0000 0.0000 28.7154 0.0000
# 6 0.0000 0.0000 0.0000 0.0000 0.0000 28.7154
#
#
#
# Elastic Compliance Matrix: (Units=1/GPa)
#
#
# Indices 1 2 3 4 5 6 
#
# 1 0.013675 -0.003675 -0.003675 0.000000 0.000000 0.000000
# 2 -0.003675 0.013675 -0.003675 0.000000 0.000000 0.000000
# 3 -0.003675 -0.003675 0.013675 0.000000 0.000000 0.000000
# 4 0.000000 0.000000 0.000000 0.034825 0.000000 0.000000
# 5 0.000000 0.000000 0.000000 0.000000 0.034825 0.000000
# 6 0.000000 0.000000 0.000000 0.000000 0.000000 0.034825
#
#
# Mechanical properties :
#
#
# Convention : Reuss Voigt Hill
#
# Bulk Modulus (GPa) = 52.70681 52.70681 52.70681
# Shear Modulus (GPa) = 28.75616 28.75625 28.75621
#
# Velocity S-wave (km/s) = 3.79911 3.79912 3.79911
# Velocity P-wave (km/s) = 6.76009 6.76009 6.76009
#
# Compressibility (1/GPa) = 0.01897288
#
# Stress axis : x y z
#
# Youngs Moduli (GPa) = 73.12549 73.12549 73.12549
#
# Poissons Ratio (x) = 0.26877 0.26877
# Poissons Ratio (y) = 0.26877 0.26877
# Poissons Ratio (z) = 0.26877 0.26877
#
# Static dielectric constant tensor:
#      x y z
#    x 3.589390 0.000000 0.000000 
#    y 0.000000 3.589390 0.000000 
#    z 0.000000 0.000000 3.589390 
# 
# 
# High freq. dielectric constant tensor:
#      x y z
#    x 1.771530 0.000000 0.000000 
#    y 0.000000 1.771530 0.000000 
#    z 0.000000 0.000000 1.771530 
# 
# From -- ./inp_files/401.got.cif
#   From: 2010.03.12/outbox.cif.g09.slc.cpg/sg204_cif.got.tgz:401.got - 2010.03.30 09:02:39.
