data_PCOD8330244
_publ_section_title
;
Structure prediction by ZEFSAII (Michael W. Deem and Ramdas Pophale) SiO2 
 PCOD8330244
Probable space group: P 63/M C M
;
_chemical_formula_sum "Si O2"
_cell_formula_units_Z 92
_cell_length_a 21.153450
_cell_length_b 21.153450
_cell_length_c 13.855707
_cell_angle_alpha 90.000000
_cell_angle_beta 90.000000
_cell_angle_gamma 120.000000
_cell_volume 5369.350309
_symmetry_space_group_name_H-M "P 63/M C M"
_symmetry_group_IT_number 193
_symmetry_cell_setting 'hexagonal'
loop_
_space_group_symop_operation_xyz
x,y,z
x-y,x,1/2+z
-y,x-y,z
-x,-y,1/2+z
-x+y,-x,z
y,-x+y,1/2+z
x-y,-y,1/2-z
-x,-x+y,1/2-z
y,x,1/2-z
-y,-x,-z
-x+y,y,-z
x,x-y,-z
-x,-y,-z
-x+y,-x,1/2-z
y,-x+y,-z
x,y,1/2-z
x-y,x,-z
-y,x-y,1/2-z
-x+y,y,1/2+z
x,x-y,1/2+z
-y,-x,1/2+z
y,x,z
x-y,-y,z
-x,-x+y,z
loop_
_atom_site_type_symbol
_atom_site_label
_atom_site_fract_x
_atom_site_fract_y
_atom_site_fract_z
Si Si1 0.795660 0.204341 0.500000
Si Si2 0.514684 0.080453 0.136366
Si Si3 0.326559 0.519325 0.141607
Si Si4 0.915288 0.288164 0.138814
Si Si5 0.666668 0.333334 0.887318
O O1 0.811033 0.268315 0.573875
O O2 0.866855 0.222986 0.435548
O O3 0.520723 0.077399 0.250000
O O4 0.593780 0.138600 0.094388
O O5 0.455159 0.104295 0.112949
O O6 0.488792 0.000000 0.093069
O O7 0.319570 0.487651 0.250000
O O8 0.313519 0.587532 0.150518
O O9 0.894897 0.262866 0.250000
O O10 0.000000 0.315832 0.120625
O O11 0.666668 0.333334 0.000000
#
# Coordination Sequence:
#
# PCOD8330244 Si02
#       5
#    12  24  24  24   8
#     4  12  22  32  50  74  94 118 168 206 242 294
#     4   8  16  32  50  65  85 119 159 196 242 295
#     4  11  22  33  46  64  91 120 150 205 262 302
#     4   9  19  36  54  71  96 131 167 202 242 292
#     4  12  22  35  43  58  89 118 160 194 256 319
#
# _framework density 17.134288999999999
#
# number of rings (size 3 to 8) (size 9 to 14) (size 15 to 20)
#    0.000    2.087    1.304    4.696    0.000    3.130 
#    0.000    2.609    0.000    2.348    0.000    0.000 
#    0.000    0.000    0.000    0.391    0.000    1.826 
#
# Total GULP energy -1140538.441830 kJ/mol
# GULP energy per Si atom -12397.156976 kJ/mol
# Density = 1.709529 g / cm^3
# Si number density = 17.134289 Si / 1000 Ang^3
#
#
#
# Elastic Constant Matrix: (Units=GPa)
#
#
# Indices 1 2 3 4 5 6 
#
# 1 50.3388 42.1904 40.9545 -0.0012 -0.0003 0.0076
# 2 42.1904 50.3357 40.9567 0.0010 0.0006 -0.0109
# 3 40.9545 40.9567 100.3146 -0.0004 -0.0001 0.0025
# 4 -0.0012 0.0010 -0.0004 16.6061 0.0000 -0.0005
# 5 -0.0003 0.0006 -0.0001 0.0000 16.6070 0.0011
# 6 0.0076 -0.0109 0.0025 -0.0005 0.0011 4.0596
#
#
#
# Elastic Compliance Matrix: (Units=1/GPa)
#
#
# Indices 1 2 3 4 5 6 
#
# 1 0.069831 -0.052911 -0.006906 0.000008 0.000003 -0.000268
# 2 -0.052911 0.069841 -0.006913 -0.000008 -0.000004 0.000290
# 3 -0.006906 -0.006913 0.015611 0.000000 0.000000 -0.000015
# 4 0.000008 -0.000008 0.000000 0.060219 0.000000 0.000007
# 5 0.000003 -0.000004 0.000000 0.000000 0.060216 -0.000016
# 6 -0.000268 0.000290 -0.000015 0.000007 -0.000016 0.246329
#
#
# Mechanical properties :
#
#
# Convention : Reuss Voigt Hill
#
# Bulk Modulus (GPa) = 45.82809 49.91026 47.86917
# Shear Modulus (GPa) = 7.54395 12.58038 10.06216
#
# Velocity S-wave (km/s) = 2.10057 2.71259 2.42596
# Velocity P-wave (km/s) = 5.71731 6.24524 5.98710
#
# Compressibility (1/GPa) = 0.02182068
#
# Stress axis : x y z
#
# Youngs Moduli (GPa) = 14.32029 14.31821 64.05818
#
# Poissons Ratio (x) = 0.75760 0.44241
# Poissons Ratio (y) = 0.75771 0.44285
# Poissons Ratio (z) = 0.09890 0.09898
#
# Static dielectric constant tensor:
#      x y z
#    x 3.227560 -0.000010 0.000000 
#    y -0.000010 3.227580 -0.000010 
#    z 0.000000 -0.000010 3.360910 
# 
# 
# High freq. dielectric constant tensor:
#      x y z
#    x 1.624480 0.000000 0.000000 
#    y 0.000000 1.624480 0.000000 
#    z 0.000000 0.000000 1.684000 
# 
# From -- ./inp_files/3583.got.cif
#   From: 2010.03.12/outbox.cif.g09.slc.cpg/sg193_2_cif.got.tgz:3583.got - 2010.04.01 12:20:39.
