data_PCOD8330900
_publ_section_title
;
Structure prediction by ZEFSAII (Michael W. Deem and Ramdas Pophale) SiO2 
 PCOD8330900
Probable space group: P 21 3
;
_chemical_formula_sum "Si O2"
_cell_formula_units_Z 64
_cell_length_a 14.142834
_cell_length_b 14.142834
_cell_length_c 14.142834
_cell_angle_alpha 90.000000
_cell_angle_beta 90.000000
_cell_angle_gamma 90.000000
_cell_volume 2828.846171
_symmetry_space_group_name_H-M "P 21 3"
_symmetry_group_IT_number 198
_symmetry_cell_setting 'cubic'
loop_
_space_group_symop_operation_xyz
x,y,z
z,x,y
y,z,x
1/2-y,-z,1/2+x
1/2+z,1/2-x,-y
-y,1/2+z,1/2-x
1/2-z,-x,1/2+y
-z,1/2+x,1/2-y
1/2+y,1/2-z,-x
1/2-x,-y,1/2+z
1/2+x,1/2-y,-z
-x,1/2+y,1/2-z
loop_
_atom_site_type_symbol
_atom_site_label
_atom_site_fract_x
_atom_site_fract_y
_atom_site_fract_z
Si Si1 0.179731 0.764360 0.036232
Si Si2 0.124773 0.998627 0.842524
Si Si3 0.352797 0.352798 0.352797
Si Si4 0.941039 0.974359 0.286909
Si Si5 0.075148 0.132701 0.342890
Si Si6 0.554265 0.054264 0.445737
Si Si7 0.318359 0.681643 0.181643
Si Si8 0.722092 0.277910 0.777909
O O1 0.139196 0.691073 0.958191
O O2 0.253172 0.833314 0.985558
O O3 0.102256 0.832352 0.082436
O O4 0.224921 0.706985 0.122906
O O5 0.222805 0.000115 0.900127
O O6 0.133174 0.955864 0.738402
O O7 0.052142 0.937510 0.905805
O O8 0.287399 0.287399 0.287399
O O9 0.929167 0.933912 0.393460
O O10 0.993243 0.075528 0.288827
O O11 0.170843 0.139800 0.281281
O O12 0.617851 0.117850 0.382151
#
# Coordination Sequence:
#
# PCOD8330900 Si02
#       8
#    12  12   4  12  12   4   4   4
#     4  12  26  46  73 106 146 187 247 297 374 440
#     4  12  26  46  74 107 142 194 249 308 372 446
#     4  12  24  51  76 106 136 202 246 297 361 461
#     4  12  27  46  73 108 147 195 251 306 374 447
#     4  12  26  47  74 107 148 198 246 309 370 449
#     4  12  24  46  73 102 138 181 250 303 361 437
#     4  12  27  42  70 109 148 184 225 312 367 431
#     4  12  24  46  79  99 141 199 250 282 373 461
#
# _framework density 22.624067
#
# number of rings (size 3 to 8) (size 9 to 14) (size 15 to 20)
#    0.000    0.000    5.625    3.750    2.625    3.000 
#    0.000    0.000    0.000    0.000    0.000    0.000 
#    0.000    0.000    0.000    0.000    0.000    0.000 
#
# Total GULP energy -793799.841289 kJ/mol
# GULP energy per Si atom -12403.122520 kJ/mol
# Density = 2.257257 g / cm^3
# Si number density = 22.624067 Si / 1000 Ang^3
#
#
#
# Elastic Constant Matrix: (Units=GPa)
#
#
# Indices 1 2 3 4 5 6 
#
# 1 100.6782 35.6205 35.6127 0.0000 0.0000 0.0000
# 2 35.6205 100.6696 35.6234 0.0000 0.0000 0.0000
# 3 35.6127 35.6234 100.6795 0.0000 0.0000 0.0000
# 4 0.0000 0.0000 0.0000 42.9540 0.0000 0.0000
# 5 0.0000 0.0000 0.0000 0.0000 42.9535 0.0000
# 6 0.0000 0.0000 0.0000 0.0000 0.0000 42.9534
#
#
#
# Elastic Compliance Matrix: (Units=1/GPa)
#
#
# Indices 1 2 3 4 5 6 
#
# 1 0.012186 -0.003185 -0.003183 0.000000 0.000000 0.000000
# 2 -0.003185 0.012188 -0.003186 0.000000 0.000000 0.000000
# 3 -0.003183 -0.003186 0.012186 0.000000 0.000000 0.000000
# 4 0.000000 0.000000 0.000000 0.023281 0.000000 0.000000
# 5 0.000000 0.000000 0.000000 0.000000 0.023281 0.000000
# 6 0.000000 0.000000 0.000000 0.000000 0.000000 0.023281
#
#
# Mechanical properties :
#
#
# Convention : Reuss Voigt Hill
#
# Bulk Modulus (GPa) = 57.30448 57.30448 57.30448
# Shear Modulus (GPa) = 38.07282 38.78359 38.42820
#
# Velocity S-wave (km/s) = 4.10670 4.14486 4.12582
# Velocity P-wave (km/s) = 6.91886 6.94913 6.93401
#
# Compressibility (1/GPa) = 0.01745064
#
# Stress axis : x y z
#
# Youngs Moduli (GPa) = 82.06403 82.04895 82.06333
#
# Poissons Ratio (x) = 0.26135 0.26123
# Poissons Ratio (y) = 0.26139 0.26143
# Poissons Ratio (z) = 0.26123 0.26139
#
# Static dielectric constant tensor:
#      x y z
#    x 4.034290 0.000000 0.000000 
#    y 0.000000 4.034280 0.000000 
#    z 0.000000 0.000000 4.034240 
# 
# 
# High freq. dielectric constant tensor:
#      x y z
#    x 1.898310 0.000000 0.000000 
#    y 0.000000 1.898310 0.000000 
#    z 0.000000 0.000000 1.898310 
# 
# From -- ./inp_files/386.got.cif
#   From: 2010.03.12/outbox.cif.g09.slc.cpg/sg198_cif.got.tgz:386.got - 2010.04.01 12:33:50.
