data_PCOD8330928
_publ_section_title
;
Structure prediction by ZEFSAII (Michael W. Deem and Ramdas Pophale) SiO2 
 PCOD8330928
Probable space group: P N 3
;
_chemical_formula_sum "Si O2"
_cell_formula_units_Z 56
_cell_length_a 12.912761
_cell_length_b 12.912761
_cell_length_c 12.912761
_cell_angle_alpha 90.000000
_cell_angle_beta 90.000000
_cell_angle_gamma 90.000000
_cell_volume 2153.065978
_symmetry_space_group_name_H-M "P N 3"
_symmetry_group_IT_number 201
_space_group.IT_coordinate_system_code '2'
_symmetry_cell_setting 'cubic'
loop_
_space_group_symop_operation_xyz
x,y,z
z,x,y
y,z,x
1/2-y,1/2-z,x
z,1/2-x,1/2-y
1/2-y,z,1/2-x
1/2-z,1/2-x,y
1/2-z,x,1/2-y
y,1/2-z,1/2-x
1/2-x,1/2-y,z
x,1/2-y,1/2-z
1/2-x,y,1/2-z
-x,-y,-z
-z,-x,-y
-y,-z,-x
1/2+y,1/2+z,-x
-z,1/2+x,1/2+y
1/2+y,-z,1/2+x
1/2+z,1/2+x,-y
1/2+z,-x,1/2+y
-y,1/2+z,1/2+x
1/2+x,1/2+y,-z
-x,1/2+y,1/2+z
1/2+x,-y,1/2+z
loop_
_atom_site_type_symbol
_atom_site_label
_atom_site_fract_x
_atom_site_fract_y
_atom_site_fract_z
Si Si1 0.393623 0.847360 0.819558
Si Si2 0.569933 0.569932 0.569932
Si Si3 0.948605 0.301071 0.578079
O O1 0.373603 0.750000 0.750000
O O2 0.493240 0.835373 0.896242
O O3 0.284635 0.871849 0.873630
O O4 0.434870 0.938554 0.746188
O O5 0.500000 0.500000 0.500000
O O6 0.898128 0.341690 0.469494
#
# Coordination Sequence:
#
# PCOD8330928 Si02
#       3
#    24   8  24
#     4  12  29  53  87 120 173 228 277 355 438 518
#     4  12  24  57  78 117 168 222 282 345 427 515
#     4  12  29  51  81 125 169 217 287 354 422 512
#
# _framework density 26.009421
#
# number of rings (size 3 to 8) (size 9 to 14) (size 15 to 20)
#    0.000    0.000    4.286    1.714   18.000    1.714 
#    2.571    0.000    0.000    0.000    0.000    0.000 
#    0.000    0.000    0.000    0.000    0.000    0.000 
#
# Total GULP energy -693877.623606 kJ/mol
# GULP energy per Si atom -12390.671850 kJ/mol
# Density = 2.595022 g / cm^3
# Si number density = 26.009421 Si / 1000 Ang^3
#
#
#
# Elastic Constant Matrix: (Units=GPa)
#
#
# Indices 1 2 3 4 5 6 
#
# 1 128.6144 78.1898 78.1891 0.0000 0.0000 0.0000
# 2 78.1898 128.6134 78.1903 0.0000 0.0000 0.0000
# 3 78.1891 78.1903 128.6143 0.0000 0.0000 0.0000
# 4 0.0000 0.0000 0.0000 36.8242 0.0000 0.0000
# 5 0.0000 0.0000 0.0000 0.0000 36.8245 0.0000
# 6 0.0000 0.0000 0.0000 0.0000 0.0000 36.8240
#
#
#
# Elastic Compliance Matrix: (Units=1/GPa)
#
#
# Indices 1 2 3 4 5 6 
#
# 1 0.014391 -0.005441 -0.005441 0.000000 0.000000 0.000000
# 2 -0.005441 0.014391 -0.005441 0.000000 0.000000 0.000000
# 3 -0.005441 -0.005441 0.014391 0.000000 0.000000 0.000000
# 4 0.000000 0.000000 0.000000 0.027156 0.000000 0.000000
# 5 0.000000 0.000000 0.000000 0.000000 0.027156 0.000000
# 6 0.000000 0.000000 0.000000 0.000000 0.000000 0.027156
#
#
# Mechanical properties :
#
#
# Convention : Reuss Voigt Hill
#
# Bulk Modulus (GPa) = 94.99783 94.99783 94.99783
# Shear Modulus (GPa) = 31.09550 32.17939 31.63745
#
# Velocity S-wave (km/s) = 3.46142 3.52123 3.49145
# Velocity P-wave (km/s) = 7.25113 7.28943 7.27031
#
# Compressibility (1/GPa) = 0.01052656
#
# Stress axis : x y z
#
# Youngs Moduli (GPa) = 69.48989 69.48786 69.48934
#
# Poissons Ratio (x) = 0.37808 0.37807
# Poissons Ratio (y) = 0.37810 0.37810
# Poissons Ratio (z) = 0.37807 0.37809
#
# Static dielectric constant tensor:
#      x y z
#    x 1.203420 0.000000 0.000000 
#    y 0.000000 1.203600 0.000000 
#    z 0.000000 0.000000 1.204040 
# 
# 
# High freq. dielectric constant tensor:
#      x y z
#    x 2.052300 0.000000 0.000000 
#    y 0.000000 2.052300 0.000000 
#    z 0.000000 0.000000 2.052300 
# 
# From -- ./inp_files/275.got.cif
#   From: 2010.03.12/outbox.cif.g09.slc.cpg/sg201_cif.got.tgz:275.got - 2010.03.30 09:02:05.
