data_PCOD8330158
_publ_section_title
;
Structure prediction by ZEFSAII (Michael W. Deem and Ramdas Pophale) SiO2 
 PCOD8330158
Probable space group: P 63/M C M
;
_chemical_formula_sum "Si O2"
_cell_formula_units_Z 104
_cell_length_a 20.733032
_cell_length_b 20.733032
_cell_length_c 15.230318
_cell_angle_alpha 90.000000
_cell_angle_beta 90.000000
_cell_angle_gamma 120.000000
_cell_volume 5669.767353
_symmetry_space_group_name_H-M "P 63/M C M"
_symmetry_group_IT_number 193
_symmetry_cell_setting 'hexagonal'
loop_
_space_group_symop_operation_xyz
x,y,z
x-y,x,1/2+z
-y,x-y,z
-x,-y,1/2+z
-x+y,-x,z
y,-x+y,1/2+z
x-y,-y,1/2-z
-x,-x+y,1/2-z
y,x,1/2-z
-y,-x,-z
-x+y,y,-z
x,x-y,-z
-x,-y,-z
-x+y,-x,1/2-z
y,-x+y,-z
x,y,1/2-z
x-y,x,-z
-y,x-y,1/2-z
-x+y,y,1/2+z
x,x-y,1/2+z
-y,-x,1/2+z
y,x,z
x-y,-y,z
-x,-x+y,z
loop_
_atom_site_type_symbol
_atom_site_label
_atom_site_fract_x
_atom_site_fract_y
_atom_site_fract_z
Si Si1 0.085487 0.667134 0.093972
Si Si2 0.223180 0.914491 0.250000
Si Si3 0.238378 0.911741 0.750000
Si Si4 0.333335 0.666668 0.354234
Si Si5 0.588375 0.672840 0.396822
Si Si6 0.584272 0.417484 0.147839
O O1 0.113834 0.733174 0.165021
O O2 0.124456 0.617396 0.096750
O O3 0.000000 0.610424 0.114199
O O4 0.099266 0.702548 0.996888
O O5 0.135091 0.852357 0.250000
O O6 0.257923 0.899195 0.336100
O O7 0.238691 0.000000 0.250000
O O8 0.265822 0.000000 0.750000
O O9 0.333334 0.666668 0.250000
O O10 0.249846 0.623709 0.390178
O O11 0.606985 0.606985 0.384390
O O12 0.503806 0.638658 0.369078
O O13 0.565571 0.402177 0.250000
#
# Coordination Sequence:
#
# PCOD8330158 Si02
#       6
#    24  12  12   8  24  24
#     4  10  21  36  56  82 109 142 185 232 281 328
#     4  10  22  39  61  86 113 143 175 217 269 327
#     4  10  22  39  61  86 113 143 175 217 269 327
#     4   9  24  36  46  71 103 145 194 235 277 329
#     4  10  21  36  56  82 109 142 185 232 281 328
#     4  11  20  34  53  73 107 150 193 239 284 329
#
# _framework density 18.342904000000001
#
# number of rings (size 3 to 8) (size 9 to 14) (size 15 to 20)
#    0.000    1.846    2.308    1.385    3.231    3.692 
#    0.000    3.462    0.000    0.231    0.000    0.000 
#    0.000    0.000    0.000   11.538    0.000    0.000 
#
# Total GULP energy -1289614.803084 kJ/mol
# GULP energy per Si atom -12400.142337 kJ/mol
# Density = 1.830115 g / cm^3
# Si number density = 18.342904 Si / 1000 Ang^3
#
#
#
# Elastic Constant Matrix: (Units=GPa)
#
#
# Indices 1 2 3 4 5 6 
#
# 1 91.8500 34.7018 20.4003 0.0000 0.0000 -0.0001
# 2 34.7018 91.8504 20.3998 0.0001 0.0000 0.0001
# 3 20.4003 20.3998 95.3081 0.0001 0.0000 -0.0002
# 4 0.0000 0.0001 0.0001 10.7112 0.0001 0.0000
# 5 0.0000 0.0000 0.0000 0.0001 10.7112 0.0000
# 6 -0.0001 0.0001 -0.0002 0.0000 0.0000 28.5741
#
#
#
# Elastic Compliance Matrix: (Units=1/GPa)
#
#
# Indices 1 2 3 4 5 6 
#
# 1 0.012993 -0.004505 -0.001817 0.000000 0.000000 0.000000
# 2 -0.004505 0.012993 -0.001817 0.000000 0.000000 0.000000
# 3 -0.001817 -0.001817 0.011270 0.000000 0.000000 0.000000
# 4 0.000000 0.000000 0.000000 0.093360 -0.000001 0.000000
# 5 0.000000 0.000000 0.000000 -0.000001 0.093360 0.000000
# 6 0.000000 0.000000 0.000000 0.000000 0.000000 0.034997
#
#
# Mechanical properties :
#
#
# Convention : Reuss Voigt Hill
#
# Bulk Modulus (GPa) = 47.66820 47.77913 47.72366
# Shear Modulus (GPa) = 17.71523 23.56642 20.64082
#
# Velocity S-wave (km/s) = 3.11107 3.58826 3.35815
# Velocity P-wave (km/s) = 6.24089 6.57813 6.41173
#
# Compressibility (1/GPa) = 0.02097835
#
# Stress axis : x y z
#
# Youngs Moduli (GPa) = 76.96456 76.96512 88.73120
#
# Poissons Ratio (x) = 0.34675 0.16120
# Poissons Ratio (y) = 0.34675 0.16119
# Poissons Ratio (z) = 0.13983 0.13982
#
# Static dielectric constant tensor:
#      x y z
#    x 3.274140 0.000000 0.000000 
#    y 0.000000 3.274130 0.000000 
#    z 0.000000 0.000000 3.649980 
# 
# 
# High freq. dielectric constant tensor:
#      x y z
#    x 1.693960 0.000000 0.000000 
#    y 0.000000 1.693960 0.000000 
#    z 0.000000 0.000000 1.728400 
# 
# From -- ./inp_files/3742.got.cif
#   From: 2010.03.12/outbox.cif.g09.slc.cpg/sg193_2_cif.got.tgz:3742.got - 2010.04.01 12:20:39.
