data_PCOD8330702
_publ_section_title
;
Structure prediction by ZEFSAII (Michael W. Deem and Ramdas Pophale) SiO2 
 PCOD8330702
Probable space group: P 63/M M C
;
_chemical_formula_sum "Si O2"
_cell_formula_units_Z 108
_cell_length_a 17.560551
_cell_length_b 17.560551
_cell_length_c 22.310469
_cell_angle_alpha 90.000000
_cell_angle_beta 90.000000
_cell_angle_gamma 120.000000
_cell_volume 5958.207297
_symmetry_space_group_name_H-M "P 63/M M C"
_symmetry_group_IT_number 194
_symmetry_cell_setting 'hexagonal'
loop_
_space_group_symop_operation_xyz
x,y,z
x-y,x,1/2+z
-y,x-y,z
-x,-y,1/2+z
-x+y,-x,z
y,-x+y,1/2+z
x-y,-y,-z
-x,-x+y,-z
y,x,-z
-y,-x,1/2-z
-x+y,y,1/2-z
x,x-y,1/2-z
-x,-y,-z
-x+y,-x,1/2-z
y,-x+y,-z
x,y,1/2-z
x-y,x,-z
-y,x-y,1/2-z
-x+y,y,z
x,x-y,z
-y,-x,z
y,x,1/2+z
x-y,-y,1/2+z
-x,-x+y,1/2+z
loop_
_atom_site_type_symbol
_atom_site_label
_atom_site_fract_x
_atom_site_fract_y
_atom_site_fract_z
Si Si1 0.162604 0.667081 0.682360
Si Si2 0.269729 0.363583 0.316875
Si Si3 0.754608 0.071821 0.117895
Si Si4 0.342354 0.342354 0.000000
Si Si5 0.666004 0.153730 0.925471
O O1 0.128895 0.667305 0.750000
O O2 0.142359 0.571180 0.663460
O O3 0.266837 0.733163 0.679005
O O4 0.113166 0.694030 0.634684
O O5 0.309736 0.390197 0.250000
O O6 0.170677 0.341353 0.318521
O O7 0.263246 0.272500 0.337425
O O8 0.330099 0.444557 0.360763
O O9 0.857692 0.142309 0.125504
O O10 0.733492 0.038372 0.050018
O O11 0.434050 0.354593 0.975249
O O12 0.588282 0.176564 0.924636
O O13 0.757598 0.242403 0.940303
#
# Coordination Sequence:
#
# PCOD8330702 Si02
#       5
#    24  24  24  12  24
#     4   9  17  29  46  71 103 135 164 196 237 284
#     4   9  19  35  53  75 103 131 158 196 250 303
#     4  10  20  34  54  76  97 126 167 208 244 293
#     4  10  21  36  50  70 101 134 168 212 263 306
#     4  10  20  34  52  73 100 136 178 219 256 298
#
# _framework density 18.126256999999999
#
# number of rings (size 3 to 8) (size 9 to 14) (size 15 to 20)
#    0.000    2.444    0.000    2.111    0.000    8.000 
#    0.000    0.000    0.000    4.444    0.000    0.778 
#    0.000    0.000    0.000    0.000    0.000    0.000 
#
# Total GULP energy -1339010.760866 kJ/mol
# GULP energy per Si atom -12398.247786 kJ/mol
# Density = 1.808500 g / cm^3
# Si number density = 18.126257 Si / 1000 Ang^3
#
#
#
# Elastic Constant Matrix: (Units=GPa)
#
#
# Indices 1 2 3 4 5 6 
#
# 1 84.8915 44.9665 40.5579 0.0000 0.0000 0.0000
# 2 44.9665 84.8915 40.5579 0.0000 0.0000 0.0000
# 3 40.5579 40.5579 100.2229 0.0000 0.0000 0.0000
# 4 0.0000 0.0000 0.0000 22.5831 0.0000 0.0000
# 5 0.0000 0.0000 0.0000 0.0000 22.5831 0.0000
# 6 0.0000 0.0000 0.0000 0.0000 0.0000 19.9625
#
#
#
# Elastic Compliance Matrix: (Units=1/GPa)
#
#
# Indices 1 2 3 4 5 6 
#
# 1 0.017676 -0.007371 -0.004171 0.000000 0.000000 0.000000
# 2 -0.007371 0.017676 -0.004171 0.000000 0.000000 0.000000
# 3 -0.004171 -0.004171 0.013353 0.000000 0.000000 0.000000
# 4 0.000000 0.000000 0.000000 0.044281 0.000000 0.000000
# 5 0.000000 0.000000 0.000000 0.000000 0.044281 0.000000
# 6 0.000000 0.000000 0.000000 0.000000 0.000000 0.050094
#
#
# Mechanical properties :
#
#
# Convention : Reuss Voigt Hill
#
# Bulk Modulus (GPa) = 57.86120 58.01894 57.94007
# Shear Modulus (GPa) = 22.26717 22.62066 22.44392
#
# Velocity S-wave (km/s) = 3.50873 3.53647 3.52262
# Velocity P-wave (km/s) = 6.95740 6.98235 6.96988
#
# Compressibility (1/GPa) = 0.01728274
#
# Stress axis : x y z
#
# Youngs Moduli (GPa) = 56.57261 56.57261 74.88846
#
# Poissons Ratio (x) = 0.41697 0.31232
# Poissons Ratio (y) = 0.41697 0.31232
# Poissons Ratio (z) = 0.23594 0.23594
#
# Static dielectric constant tensor:
#      x y z
#    x 3.299540 0.000000 0.000000 
#    y 0.000000 3.299540 0.000000 
#    z 0.000000 0.000000 3.563470 
# 
# 
# High freq. dielectric constant tensor:
#      x y z
#    x 1.692080 0.000000 0.000000 
#    y 0.000000 1.692080 0.000000 
#    z 0.000000 0.000000 1.712060 
# 
# From -- ./inp_files/7955.got.cif
#   From: 2010.03.12/outbox.cif.g09.slc.cpg/sg194_4_cif.got.tgz:7955.got - 2010.04.01 12:26:19.
