data_PCOD8330661
_publ_section_title
;
Structure prediction by ZEFSAII (Michael W. Deem and Ramdas Pophale) SiO2 
 PCOD8330661
Probable space group: P 63/M M C
;
_chemical_formula_sum "Si O2"
_cell_formula_units_Z 192
_cell_length_a 27.050154
_cell_length_b 27.050154
_cell_length_c 19.501085
_cell_angle_alpha 90.000000
_cell_angle_beta 90.000000
_cell_angle_gamma 120.000000
_cell_volume 12357.450824
_symmetry_space_group_name_H-M "P 63/M M C"
_symmetry_group_IT_number 194
_symmetry_cell_setting 'hexagonal'
loop_
_space_group_symop_operation_xyz
x,y,z
x-y,x,1/2+z
-y,x-y,z
-x,-y,1/2+z
-x+y,-x,z
y,-x+y,1/2+z
x-y,-y,-z
-x,-x+y,-z
y,x,-z
-y,-x,1/2-z
-x+y,y,1/2-z
x,x-y,1/2-z
-x,-y,-z
-x+y,-x,1/2-z
y,-x+y,-z
x,y,1/2-z
x-y,x,-z
-y,x-y,1/2-z
-x+y,y,z
x,x-y,z
-y,-x,z
y,x,1/2+z
x-y,-y,1/2+z
-x,-x+y,1/2+z
loop_
_atom_site_type_symbol
_atom_site_label
_atom_site_fract_x
_atom_site_fract_y
_atom_site_fract_z
Si Si1 0.725441 0.156705 0.576522
Si Si2 0.443440 0.666446 0.581673
Si Si3 0.223868 0.331054 0.327868
Si Si4 0.212834 0.212829 0.169133
Si Si5 0.115367 0.115367 0.421083
Si Si6 0.156707 0.431269 0.576501
Si Si7 0.668930 0.776127 0.672129
Si Si8 0.333554 0.556559 0.418297
O O1 0.784978 0.215023 0.575154
O O2 0.728609 0.111077 0.626348
O O3 0.710408 0.130363 0.500010
O O4 0.677599 0.171573 0.603898
O O5 0.432759 0.716380 0.610763
O O6 0.394432 0.605569 0.610951
O O7 0.506022 0.677595 0.603872
O O8 0.441296 0.667473 0.499985
O O9 0.245906 0.343991 0.250000
O O10 0.163063 0.326126 0.336112
O O11 0.216850 0.271717 0.353128
O O12 0.200633 0.200635 0.250000
O O13 0.162268 0.162230 0.128042
O O14 0.271743 0.216889 0.146892
O O15 0.133179 0.133179 0.500000
O O16 0.109842 0.054921 0.404623
O O17 0.054957 0.109914 0.404592
O O18 0.215026 0.430052 0.575131
O O19 0.111085 0.382479 0.626338
O O20 0.655967 0.754104 0.750000
O O21 0.673889 0.836945 0.663851
O O22 0.283620 0.567239 0.389206
O O23 0.394433 0.605568 0.389019
#
# Coordination Sequence:
#
# PCOD8330661 Si02
#       8
#    24  24  24  24  24  24  24  24
#     4   8  14  24  38  57  81 108 137 168 202 243
#     4   8  12  18  31  54  83 112 140 170 204 242
#     4   9  17  29  44  61  82 107 132 163 207 252
#     4  10  20  33  49  69  89 109 140 181 217 248
#     4  10  21  36  52  70  94 123 149 170 197 239
#     4   8  14  24  38  57  81 108 137 168 202 243
#     4   9  17  29  44  61  82 107 132 163 207 252
#     4   8  12  18  31  54  83 112 140 170 204 242
#
# _framework density 15.537184999999999
#
# number of rings (size 3 to 8) (size 9 to 14) (size 15 to 20)
#    0.000    3.250    0.000    2.625    0.000    4.000 
#    0.000    2.500    0.000    1.500    0.000    0.875 
#    0.000    9.000    0.000    0.000    0.000    0.000 
#
# Total GULP energy -2379739.168274 kJ/mol
# GULP energy per Si atom -12394.474835 kJ/mol
# Density = 1.550182 g / cm^3
# Si number density = 15.537185 Si / 1000 Ang^3
#
#
#
# Elastic Constant Matrix: (Units=GPa)
#
#
# Indices 1 2 3 4 5 6 
#
# 1 92.1787 65.1078 47.4952 0.0000 0.0000 0.0000
# 2 65.1078 92.1787 47.4952 0.0000 0.0000 0.0000
# 3 47.4952 47.4952 54.5985 0.0000 0.0000 0.0000
# 4 0.0000 0.0000 0.0000 15.7033 0.0000 0.0000
# 5 0.0000 0.0000 0.0000 0.0000 15.7033 0.0000
# 6 0.0000 0.0000 0.0000 0.0000 0.0000 13.5354
#
#
#
# Elastic Compliance Matrix: (Units=1/GPa)
#
#
# Indices 1 2 3 4 5 6 
#
# 1 0.025168 -0.011772 -0.011652 0.000000 0.000000 0.000000
# 2 -0.011772 0.025168 -0.011652 0.000000 0.000000 0.000000
# 3 -0.011652 -0.011652 0.038588 0.000000 0.000000 0.000000
# 4 0.000000 0.000000 0.000000 0.063681 0.000000 0.000000
# 5 0.000000 0.000000 0.000000 0.000000 0.063681 0.000000
# 6 0.000000 0.000000 0.000000 0.000000 0.000000 0.073880
#
#
# Mechanical properties :
#
#
# Convention : Reuss Voigt Hill
#
# Bulk Modulus (GPa) = 53.27940 62.12806 57.70373
# Shear Modulus (GPa) = 13.63972 14.24557 13.94265
#
# Velocity S-wave (km/s) = 2.96611 3.03127 2.99887
# Velocity P-wave (km/s) = 6.78943 7.23360 7.01503
#
# Compressibility (1/GPa) = 0.01876898
#
# Stress axis : x y z
#
# Youngs Moduli (GPa) = 39.73369 39.73369 25.91455
#
# Poissons Ratio (x) = 0.46776 0.30197
# Poissons Ratio (y) = 0.46776 0.30197
# Poissons Ratio (z) = 0.46299 0.46299
#
# Static dielectric constant tensor:
#      x y z
#    x 3.075800 0.000000 0.000000 
#    y 0.000000 3.075800 0.000000 
#    z 0.000000 0.000000 2.880170 
# 
# 
# High freq. dielectric constant tensor:
#      x y z
#    x 1.583560 0.000000 0.000000 
#    y 0.000000 1.583560 0.000000 
#    z 0.000000 0.000000 1.571170 
# 
# From -- ./inp_files/8750.got.cif
#   From: 2010.03.12/outbox.cif.g09.slc.cpg/sg194_5_cif.got.tgz:8750.got - 2010.04.01 12:26:19.
