data_PCOD8330007
_publ_section_title
;
Structure prediction by ZEFSAII (Michael W. Deem and Ramdas Pophale) SiO2 
 PCOD8330007
Probable space group: P 63/M C M
;
_chemical_formula_sum "Si O2"
_cell_formula_units_Z 104
_cell_length_a 17.925527
_cell_length_b 17.925527
_cell_length_c 23.725594
_cell_angle_alpha 90.000000
_cell_angle_beta 90.000000
_cell_angle_gamma 120.000000
_cell_volume 6602.244312
_symmetry_space_group_name_H-M "P 63/M C M"
_symmetry_group_IT_number 193
_symmetry_cell_setting 'hexagonal'
loop_
_space_group_symop_operation_xyz
x,y,z
x-y,x,1/2+z
-y,x-y,z
-x,-y,1/2+z
-x+y,-x,z
y,-x+y,1/2+z
x-y,-y,1/2-z
-x,-x+y,1/2-z
y,x,1/2-z
-y,-x,-z
-x+y,y,-z
x,x-y,-z
-x,-y,-z
-x+y,-x,1/2-z
y,-x+y,-z
x,y,1/2-z
x-y,x,-z
-y,x-y,1/2-z
-x+y,y,1/2+z
x,x-y,1/2+z
-y,-x,1/2+z
y,x,z
x-y,-y,z
-x,-x+y,z
loop_
_atom_site_type_symbol
_atom_site_label
_atom_site_fract_x
_atom_site_fract_y
_atom_site_fract_z
Si Si1 0.202489 0.725302 0.140454
Si Si2 0.572904 0.476441 0.940124
Si Si3 0.424639 0.329461 0.631955
Si Si4 0.666668 0.333334 0.817451
Si Si5 0.896870 0.342394 0.750000
Si Si6 0.097903 0.607777 0.750000
O O1 0.151686 0.665262 0.088017
O O2 0.238954 0.822292 0.114064
O O3 0.281440 0.711915 0.159010
O O4 0.139294 0.712711 0.192785
O O5 0.555865 0.555865 0.950629
O O6 0.501612 0.408854 0.898872
O O7 0.568801 0.431200 0.000000
O O8 0.338285 0.338285 0.625650
O O9 0.451509 0.331537 0.696761
O O10 0.666667 0.333334 0.750000
O O11 0.855929 0.406172 0.750000
O O12 0.000000 0.387256 0.750000
O O13 0.000000 0.533761 0.750000
#
# Coordination Sequence:
#
# PCOD8330007 Si02
#       6
#    24  24  24   8  12  12
#     4  12  20  31  48  68  91 121 155 201 236 275
#     4  10  21  35  47  62  90 124 159 196 237 281
#     4  10  20  33  46  64  88 120 154 190 241 284
#     4  12  21  30  43  74  94 114 153 202 248 268
#     4  11  19  28  47  69  89 115 149 191 238 287
#     4   9  15  28  46  61  82 111 142 179 231 285
#
# _framework density 15.752219999999999
#
# number of rings (size 3 to 8) (size 9 to 14) (size 15 to 20)
#    0.000    1.385    5.769    1.385    0.000    0.923 
#    0.000    0.000    0.000    0.000    0.000    0.000 
#    0.000    0.000    0.000    9.692    0.000    0.000 
#
# Total GULP energy -1288742.281521 kJ/mol
# GULP energy per Si atom -12391.752707 kJ/mol
# Density = 1.571637 g / cm^3
# Si number density = 15.752220 Si / 1000 Ang^3
#
#
#
# Elastic Constant Matrix: (Units=GPa)
#
#
# Indices 1 2 3 4 5 6 
#
# 1 79.5844 42.7801 28.2952 0.0000 0.0000 -0.0001
# 2 42.7801 79.5845 28.2951 0.0001 0.0000 0.0000
# 3 28.2952 28.2951 90.5869 0.0000 -0.0001 0.0000
# 4 0.0000 0.0001 0.0000 12.4193 0.0000 0.0000
# 5 0.0000 0.0000 -0.0001 0.0000 12.4191 0.0000
# 6 -0.0001 0.0000 0.0000 0.0000 0.0000 18.4023
#
#
#
# Elastic Compliance Matrix: (Units=1/GPa)
#
#
# Indices 1 2 3 4 5 6 
#
# 1 0.018361 -0.008809 -0.002984 0.000000 0.000000 0.000000
# 2 -0.008809 0.018361 -0.002984 0.000000 0.000000 0.000000
# 3 -0.002984 -0.002984 0.012903 0.000000 0.000000 0.000000
# 4 0.000000 0.000000 0.000000 0.080520 0.000000 0.000000
# 5 0.000000 0.000000 0.000000 0.000000 0.080521 0.000000
# 6 0.000000 0.000000 0.000000 0.000000 0.000000 0.054341
#
#
# Mechanical properties :
#
#
# Convention : Reuss Voigt Hill
#
# Bulk Modulus (GPa) = 49.81880 49.83295 49.82588
# Shear Modulus (GPa) = 16.59740 18.67383 17.63561
#
# Velocity S-wave (km/s) = 3.24953 3.44680 3.34962
# Velocity P-wave (km/s) = 6.76568 6.89527 6.83078
#
# Compressibility (1/GPa) = 0.02007274
#
# Stress axis : x y z
#
# Youngs Moduli (GPa) = 54.46201 54.46209 77.50117
#
# Poissons Ratio (x) = 0.47977 0.23124
# Poissons Ratio (y) = 0.47977 0.23124
# Poissons Ratio (z) = 0.16250 0.16250
#
# Static dielectric constant tensor:
#      x y z
#    x 2.998650 0.000000 0.000000 
#    y 0.000000 2.998650 0.000000 
#    z 0.000000 0.000000 3.052890 
# 
# 
# High freq. dielectric constant tensor:
#      x y z
#    x 1.576940 0.000000 0.000000 
#    y 0.000000 1.576940 0.000000 
#    z 0.000000 0.000000 1.612850 
# 
# From -- ./inp_files/6364.got.cif
#   From: 2010.03.12/outbox.cif.g09.slc.cpg/sg193_4_cif.got.tgz:6364.got - 2010.04.01 12:20:39.
