data_PCOD8330422
_publ_section_title
;
Structure prediction by ZEFSAII (Michael W. Deem and Ramdas Pophale) SiO2 
 PCOD8330422
Probable space group: P 63/M M C
;
_chemical_formula_sum "Si O2"
_cell_formula_units_Z 100
_cell_length_a 26.597404
_cell_length_b 26.597404
_cell_length_c 9.095626
_cell_angle_alpha 90.000000
_cell_angle_beta 90.000000
_cell_angle_gamma 120.000000
_cell_volume 5572.392849
_symmetry_space_group_name_H-M "P 63/M M C"
_symmetry_group_IT_number 194
_symmetry_cell_setting 'hexagonal'
loop_
_space_group_symop_operation_xyz
x,y,z
x-y,x,1/2+z
-y,x-y,z
-x,-y,1/2+z
-x+y,-x,z
y,-x+y,1/2+z
x-y,-y,-z
-x,-x+y,-z
y,x,-z
-y,-x,1/2-z
-x+y,y,1/2-z
x,x-y,1/2-z
-x,-y,-z
-x+y,-x,1/2-z
y,-x+y,-z
x,y,1/2-z
x-y,x,-z
-y,x-y,1/2-z
-x+y,y,z
x,x-y,z
-y,-x,z
y,x,1/2+z
x-y,-y,1/2+z
-x,-x+y,1/2+z
loop_
_atom_site_type_symbol
_atom_site_label
_atom_site_fract_x
_atom_site_fract_y
_atom_site_fract_z
Si Si1 0.728027 0.456053 0.075407
Si Si2 0.333334 0.666667 0.424985
Si Si3 0.531440 0.468561 0.426098
Si Si4 0.524955 0.662962 0.576088
Si Si5 0.769761 0.942345 0.577856
Si Si6 0.641628 0.764789 0.575050
O O1 0.722003 0.444006 0.250000
O O2 0.795159 0.489797 0.025465
O O3 0.698880 0.397760 0.985115
O O4 0.333334 0.666667 0.250000
O O5 0.500000 0.500000 0.500000
O O6 0.527966 0.472035 0.250000
O O7 0.597787 0.498644 0.484757
O O8 0.523411 0.659814 0.750000
O O9 0.591441 0.701930 0.518152
O O10 0.775312 0.953266 0.750000
O O11 0.781950 0.890975 0.534789
O O12 0.705314 0.926301 0.521920
O O13 0.817887 0.000000 0.500000
O O14 0.641100 0.767018 0.750000
O O15 0.628497 0.814249 0.514824
#
# Coordination Sequence:
#
# PCOD8330422 Si02
#       6
#    12   4  12  24  24  24
#     4  10  18  33  59  82  93 117 171 230 267 299
#     4  12  25  35  43  66 109 143 160 198 271 341
#     4  10  21  34  46  68 101 134 166 198 236 292
#     4   9  16  29  52  77  97 119 161 219 261 288
#     4   9  18  31  49  74 103 133 165 199 240 289
#     4   8  13  25  46  73  99 121 149 196 256 298
#
# _framework density 17.945612000000001
#
# number of rings (size 3 to 8) (size 9 to 14) (size 15 to 20)
#    0.000    2.880    1.200    2.520    0.000    3.360 
#    0.000    2.400    0.000    1.680    0.000    0.000 
#    0.000    0.000    0.000    0.000    0.000    0.000 
#
# Total GULP energy -1239226.906490 kJ/mol
# GULP energy per Si atom -12392.269065 kJ/mol
# Density = 1.790477 g / cm^3
# Si number density = 17.945612 Si / 1000 Ang^3
#
#
#
# Elastic Constant Matrix: (Units=GPa)
#
#
# Indices 1 2 3 4 5 6 
#
# 1 145.8877 91.9511 33.7509 0.0000 0.0000 0.0000
# 2 91.9511 145.8875 33.7509 0.0001 0.0000 0.0000
# 3 33.7509 33.7509 25.7922 0.0001 0.0000 0.0000
# 4 0.0000 0.0001 0.0001 13.3018 0.0000 0.0000
# 5 0.0000 0.0000 0.0000 0.0000 13.3016 0.0000
# 6 0.0000 0.0000 0.0000 0.0000 0.0000 26.9683
#
#
#
# Elastic Compliance Matrix: (Units=1/GPa)
#
#
# Indices 1 2 3 4 5 6 
#
# 1 0.012614 -0.005926 -0.008753 0.000000 0.000000 0.000000
# 2 -0.005926 0.012614 -0.008753 0.000000 0.000000 0.000000
# 3 -0.008753 -0.008753 0.061678 -0.000001 0.000000 0.000000
# 4 0.000000 0.000000 -0.000001 0.075178 0.000000 0.000000
# 5 0.000000 0.000000 0.000000 0.000000 0.075179 0.000000
# 6 0.000000 0.000000 0.000000 0.000000 0.000000 0.037081
#
#
# Mechanical properties :
#
#
# Convention : Reuss Voigt Hill
#
# Bulk Modulus (GPa) = 24.97178 70.71925 47.84551
# Shear Modulus (GPa) = 14.94526 21.25532 18.10029
#
# Velocity S-wave (km/s) = 2.88897 3.44529 3.17932
# Velocity P-wave (km/s) = 5.00736 7.43773 6.34009
#
# Compressibility (1/GPa) = 0.04004521
#
# Stress axis : x y z
#
# Youngs Moduli (GPa) = 79.27413 79.27400 16.21321
#
# Poissons Ratio (x) = 0.46977 0.14191
# Poissons Ratio (y) = 0.46977 0.14191
# Poissons Ratio (z) = 0.69385 0.69385
#
# Static dielectric constant tensor:
#      x y z
#    x 3.524950 0.000000 0.000000 
#    y 0.000000 3.524950 0.000000 
#    z 0.000000 0.000000 2.741450 
# 
# 
# High freq. dielectric constant tensor:
#      x y z
#    x 1.699520 0.000000 0.000000 
#    y 0.000000 1.699520 0.000000 
#    z 0.000000 0.000000 1.635240 
# 
# From -- ./inp_files/1663.got.cif
#   From: 2010.03.12/outbox.cif.g09.slc.cpg/sg194_1_cif.got.tgz:1663.got - 2010.04.01 12:26:19.
