data_PCOD8330952
_publ_section_title
;
Structure prediction by ZEFSAII (Michael W. Deem and Ramdas Pophale) SiO2 
 PCOD8330952
Probable space group: P A 3
;
_chemical_formula_sum "Si O2"
_cell_formula_units_Z 96
_cell_length_a 16.754645
_cell_length_b 16.754645
_cell_length_c 16.754645
_cell_angle_alpha 90.000000
_cell_angle_beta 90.000000
_cell_angle_gamma 90.000000
_cell_volume 4703.332598
_symmetry_space_group_name_H-M "P A 3"
_symmetry_group_IT_number 205
_symmetry_cell_setting 'cubic'
loop_
_space_group_symop_operation_xyz
x,y,z
z,x,y
y,z,x
1/2-y,-z,1/2+x
1/2+z,1/2-x,-y
-y,1/2+z,1/2-x
1/2-z,-x,1/2+y
-z,1/2+x,1/2-y
1/2+y,1/2-z,-x
1/2-x,-y,1/2+z
1/2+x,1/2-y,-z
-x,1/2+y,1/2-z
-x,-y,-z
-z,-x,-y
-y,-z,-x
1/2+y,z,1/2-x
1/2-z,1/2+x,y
y,1/2-z,1/2+x
1/2+z,x,1/2-y
z,1/2-x,1/2+y
1/2-y,1/2+z,x
1/2+x,y,1/2-z
1/2-x,1/2+y,z
x,1/2-y,1/2+z
loop_
_atom_site_type_symbol
_atom_site_label
_atom_site_fract_x
_atom_site_fract_y
_atom_site_fract_z
Si Si1 0.857033 0.931739 0.502636
Si Si2 0.893686 0.764902 0.667727
Si Si3 0.566687 0.317011 0.325245
Si Si4 0.099173 0.743276 0.816882
O O1 0.938068 0.875839 0.499021
O O2 0.779198 0.883868 0.473133
O O3 0.837834 0.960915 0.591326
O O4 0.871616 0.852007 0.704822
O O5 0.913823 0.699221 0.732837
O O6 0.822583 0.735685 0.610126
O O7 0.491310 0.261567 0.351195
O O8 0.112834 0.665531 0.759165
#
# Coordination Sequence:
#
# PCOD8330952 Si02
#       4
#    24  24  24  24
#     4  10  23  36  58  90 128 158 202 261 317 363
#     4  11  21  40  59  91 125 165 203 256 311 367
#     4  11  21  37  63  86 126 164 202 255 304 372
#     4  10  22  39  60  88 122 163 211 249 303 377
#
# _framework density 20.411059000000002
#
# number of rings (size 3 to 8) (size 9 to 14) (size 15 to 20)
#    0.500    1.000    2.500    3.750    7.000    0.000 
#    0.000    0.000    0.000    0.000    0.000    0.000 
#    0.000    6.000    0.000    0.000    0.000    0.000 
#
# Total GULP energy -1189332.339993 kJ/mol
# GULP energy per Si atom -12388.878542 kJ/mol
# Density = 2.036460 g / cm^3
# Si number density = 20.411059 Si / 1000 Ang^3
#
#
#
# Elastic Constant Matrix: (Units=GPa)
#
#
# Indices 1 2 3 4 5 6 
#
# 1 72.3553 24.0322 24.0322 0.0000 0.0000 0.0000
# 2 24.0322 72.3553 24.0322 0.0000 0.0000 0.0000
# 3 24.0322 24.0322 72.3553 0.0000 0.0000 0.0000
# 4 0.0000 0.0000 0.0000 28.8981 0.0000 0.0000
# 5 0.0000 0.0000 0.0000 0.0000 28.8981 0.0000
# 6 0.0000 0.0000 0.0000 0.0000 0.0000 28.8981
#
#
#
# Elastic Compliance Matrix: (Units=1/GPa)
#
#
# Indices 1 2 3 4 5 6 
#
# 1 0.016564 -0.004130 -0.004130 0.000000 0.000000 0.000000
# 2 -0.004130 0.016564 -0.004130 0.000000 0.000000 0.000000
# 3 -0.004130 -0.004130 0.016564 0.000000 0.000000 0.000000
# 4 0.000000 0.000000 0.000000 0.034604 0.000000 0.000000
# 5 0.000000 0.000000 0.000000 0.000000 0.034604 0.000000
# 6 0.000000 0.000000 0.000000 0.000000 0.000000 0.034604
#
#
# Mechanical properties :
#
#
# Convention : Reuss Voigt Hill
#
# Bulk Modulus (GPa) = 40.13990 40.13990 40.13990
# Shear Modulus (GPa) = 26.79687 27.00352 26.90020
#
# Velocity S-wave (km/s) = 3.62727 3.64123 3.63426
# Velocity P-wave (km/s) = 6.10338 6.11445 6.10892
#
# Compressibility (1/GPa) = 0.02491287
#
# Stress axis : x y z
#
# Youngs Moduli (GPa) = 60.37153 60.37153 60.37153
#
# Poissons Ratio (x) = 0.24933 0.24933
# Poissons Ratio (y) = 0.24933 0.24933
# Poissons Ratio (z) = 0.24933 0.24933
#
# Static dielectric constant tensor:
#      x y z
#    x 3.643910 0.000000 0.000000 
#    y 0.000000 3.643910 0.000000 
#    z 0.000000 0.000000 3.643910 
# 
# 
# High freq. dielectric constant tensor:
#      x y z
#    x 1.787880 0.000000 0.000000 
#    y 0.000000 1.787880 0.000000 
#    z 0.000000 0.000000 1.787880 
# 
# From -- ./inp_files/374.got.cif
#   From: 2010.03.12/outbox.cif.g09.slc.cpg/sg205_cif.got.tgz:374.got - 2010.03.30 09:02:58.
