data_PCOD8330294
_publ_section_title
;
Structure prediction by ZEFSAII (Michael W. Deem and Ramdas Pophale) SiO2 
 PCOD8330294
Probable space group: P 63/M M C
;
_chemical_formula_sum "Si O2"
_cell_formula_units_Z 192
_cell_length_a 25.572933
_cell_length_b 25.572933
_cell_length_c 20.292815
_cell_angle_alpha 90.000000
_cell_angle_beta 90.000000
_cell_angle_gamma 120.000000
_cell_volume 11493.015950
_symmetry_space_group_name_H-M "P 63/M M C"
_symmetry_group_IT_number 194
_symmetry_cell_setting 'hexagonal'
loop_
_space_group_symop_operation_xyz
x,y,z
x-y,x,1/2+z
-y,x-y,z
-x,-y,1/2+z
-x+y,-x,z
y,-x+y,1/2+z
x-y,-y,-z
-x,-x+y,-z
y,x,-z
-y,-x,1/2-z
-x+y,y,1/2-z
x,x-y,1/2-z
-x,-y,-z
-x+y,-x,1/2-z
y,-x+y,-z
x,y,1/2-z
x-y,x,-z
-y,x-y,1/2-z
-x+y,y,z
x,x-y,z
-y,-x,z
y,x,1/2+z
x-y,-y,1/2+z
-x,-x+y,1/2+z
loop_
_atom_site_type_symbol
_atom_site_label
_atom_site_fract_x
_atom_site_fract_y
_atom_site_fract_z
Si Si1 0.545860 0.333236 0.825433
Si Si2 0.703894 0.171710 0.323451
Si Si3 0.834390 0.042858 0.561330
Si Si4 0.333525 0.267232 0.518021
Si Si5 0.831100 0.784940 0.174606
Si Si6 0.333579 0.788307 0.944413
Si Si7 0.657539 0.768451 0.626074
Si Si8 0.288195 0.833169 0.062838
O O1 0.526484 0.332737 0.750000
O O2 0.562847 0.281424 0.838566
O O3 0.603872 0.396129 0.844599
O O4 0.490325 0.322678 0.871209
O O5 0.676221 0.161374 0.250000
O O6 0.768296 0.231704 0.327348
O O7 0.659632 0.178768 0.374333
O O8 0.711805 0.114619 0.343911
O O9 0.899622 0.100379 0.555948
O O10 0.783033 0.061695 0.561027
O O11 0.825393 0.000000 0.500000
O O12 0.831345 0.008490 0.628849
O O13 0.322345 0.322345 0.500000
O O14 0.339954 0.236605 0.452113
O O15 0.394685 0.292901 0.560106
O O16 0.828614 0.802122 0.250000
O O17 0.894558 0.789116 0.157587
O O18 0.775293 0.717608 0.159822
O O19 0.395333 0.790665 0.961921
O O20 0.281119 0.718882 0.942389
O O21 0.320461 0.824781 0.999531
O O22 0.655005 0.827503 0.644256
O O23 0.218225 0.781776 0.064985
#
# Coordination Sequence:
#
# PCOD8330294 Si02
#       8
#    24  24  24  24  24  24  24  24
#     4   9  17  30  51  78 105 133 166 205 249 299
#     4   9  17  28  45  70  97 127 162 200 242 288
#     4  11  21  34  54  78 105 135 167 206 252 304
#     4  11  20  32  53  77 101 127 164 207 252 302
#     4  10  20  34  54  80 107 134 166 205 248 294
#     4  10  19  30  46  69  99 133 168 205 247 297
#     4  10  16  30  52  76 102 128 161 202 246 293
#     4  10  19  32  50  73 103 132 162 203 252 302
#
# _framework density 16.705797
#
# number of rings (size 3 to 8) (size 9 to 14) (size 15 to 20)
#    0.000    2.000    3.750    2.500    0.000    2.500 
#    0.000    1.875    0.000    6.000    0.000    0.000 
#    0.000    0.000    0.000    0.000    0.000    0.000 
#
# Total GULP energy -2380758.665713 kJ/mol
# GULP energy per Si atom -12399.784717 kJ/mol
# Density = 1.666777 g / cm^3
# Si number density = 16.705797 Si / 1000 Ang^3
#
#
#
# Elastic Constant Matrix: (Units=GPa)
#
#
# Indices 1 2 3 4 5 6 
#
# 1 89.8753 52.5246 41.5742 0.0000 0.0000 0.0000
# 2 52.5246 89.8753 41.5742 0.0000 0.0000 0.0000
# 3 41.5742 41.5742 106.9626 0.0000 0.0000 0.0000
# 4 0.0000 0.0000 0.0000 25.0497 0.0000 0.0000
# 5 0.0000 0.0000 0.0000 0.0000 25.0497 0.0000
# 6 0.0000 0.0000 0.0000 0.0000 0.0000 18.6754
#
#
#
# Elastic Compliance Matrix: (Units=1/GPa)
#
#
# Indices 1 2 3 4 5 6 
#
# 1 0.017929 -0.008845 -0.003531 0.000000 0.000000 0.000000
# 2 -0.008845 0.017929 -0.003531 0.000000 0.000000 0.000000
# 3 -0.003531 -0.003531 0.012094 0.000000 0.000000 0.000000
# 4 0.000000 0.000000 0.000000 0.039921 0.000000 0.000000
# 5 0.000000 0.000000 0.000000 0.000000 0.039921 0.000000
# 6 0.000000 0.000000 0.000000 0.000000 0.000000 0.053546
#
#
# Mechanical properties :
#
#
# Convention : Reuss Voigt Hill
#
# Bulk Modulus (GPa) = 61.96257 62.00661 61.98459
# Shear Modulus (GPa) = 22.88004 23.82429 23.35216
#
# Velocity S-wave (km/s) = 3.70481 3.78048 3.74284
# Velocity P-wave (km/s) = 7.44794 7.50023 7.47413
#
# Compressibility (1/GPa) = 0.01613878
#
# Stress axis : x y z
#
# Youngs Moduli (GPa) = 55.77649 55.77649 82.68709
#
# Poissons Ratio (x) = 0.49332 0.29195
# Poissons Ratio (y) = 0.49332 0.29195
# Poissons Ratio (z) = 0.19694 0.19694
#
# Static dielectric constant tensor:
#      x y z
#    x 3.012890 0.000000 0.000000 
#    y 0.000000 3.012890 0.000000 
#    z 0.000000 0.000000 3.283060 
# 
# 
# High freq. dielectric constant tensor:
#      x y z
#    x 1.621650 0.000000 0.000000 
#    y 0.000000 1.621650 0.000000 
#    z 0.000000 0.000000 1.652200 
# 
# From -- ./inp_files/8701.got.cif
#   From: 2010.03.12/outbox.cif.g09.slc.cpg/sg194_5_cif.got.tgz:8701.got - 2010.04.01 12:26:19.
