data_PCOD8330887
_publ_section_title
;
Structure prediction by ZEFSAII (Michael W. Deem and Ramdas Pophale) SiO2 
 PCOD8330887
Probable space group: P 21 3
;
_chemical_formula_sum "Si O2"
_cell_formula_units_Z 56
_cell_length_a 14.466578
_cell_length_b 14.466578
_cell_length_c 14.466578
_cell_angle_alpha 90.000000
_cell_angle_beta 90.000000
_cell_angle_gamma 90.000000
_cell_volume 3027.592627
_symmetry_space_group_name_H-M "P 21 3"
_symmetry_group_IT_number 198
_symmetry_cell_setting 'cubic'
loop_
_space_group_symop_operation_xyz
x,y,z
z,x,y
y,z,x
1/2-y,-z,1/2+x
1/2+z,1/2-x,-y
-y,1/2+z,1/2-x
1/2-z,-x,1/2+y
-z,1/2+x,1/2-y
1/2+y,1/2-z,-x
1/2-x,-y,1/2+z
1/2+x,1/2-y,-z
-x,1/2+y,1/2-z
loop_
_atom_site_type_symbol
_atom_site_label
_atom_site_fract_x
_atom_site_fract_y
_atom_site_fract_z
Si Si1 0.271971 0.873231 0.077011
Si Si2 0.289930 0.571919 0.369447
Si Si3 0.128144 0.830917 0.588811
Si Si4 0.095485 0.595485 0.904517
Si Si5 0.297981 0.026013 0.213781
Si Si6 0.531481 0.531481 0.531482
O O1 0.369492 0.836533 0.119449
O O2 0.195881 0.795714 0.092562
O O3 0.243445 0.966293 0.134386
O O4 0.280397 0.891430 0.968143
O O5 0.316379 0.463419 0.369613
O O6 0.260738 0.606849 0.472102
O O7 0.194552 0.763093 0.532995
O O8 0.177852 0.869715 0.680997
O O9 0.112391 0.923778 0.528987
O O10 0.031784 0.531783 0.968218
#
# Coordination Sequence:
#
# PCOD8330887 Si02
#       6
#    12  12  12   4  12   4
#     4  10  22  37  60  89 124 162 211 263 319 377
#     4  10  21  38  58  90 117 161 213 253 311 385
#     4  12  21  40  63  91 127 168 214 265 327 383
#     4  12  18  42  66  81 117 171 213 240 298 407
#     4  10  24  36  61  93 126 159 221 267 314 388
#     4  12  18  39  66  84 117 177 210 240 325 398
#
# _framework density 18.496545000000001
#
# number of rings (size 3 to 8) (size 9 to 14) (size 15 to 20)
#    1.286    0.000    6.429    0.857    3.000    1.714 
#    0.000    0.000    0.000    0.857    0.000    0.000 
#    0.000    0.000    0.000    0.000    0.000    0.000 
#
# Total GULP energy -694044.139379 kJ/mol
# GULP energy per Si atom -12393.645346 kJ/mol
# Density = 1.845445 g / cm^3
# Si number density = 18.496545 Si / 1000 Ang^3
#
#
#
# Elastic Constant Matrix: (Units=GPa)
#
#
# Indices 1 2 3 4 5 6 
#
# 1 67.5718 36.5603 36.5595 0.0000 0.0000 0.0000
# 2 36.5603 67.5739 36.5590 0.0000 0.0000 0.0000
# 3 36.5595 36.5590 67.5753 0.0000 0.0000 0.0000
# 4 0.0000 0.0000 0.0000 32.2658 0.0000 0.0000
# 5 0.0000 0.0000 0.0000 0.0000 32.2653 0.0000
# 6 0.0000 0.0000 0.0000 0.0000 0.0000 32.2658
#
#
#
# Elastic Compliance Matrix: (Units=1/GPa)
#
#
# Indices 1 2 3 4 5 6 
#
# 1 0.023866 -0.008380 -0.008379 0.000000 0.000000 0.000000
# 2 -0.008380 0.023865 -0.008378 0.000000 0.000000 0.000000
# 3 -0.008379 -0.008378 0.023864 0.000000 0.000000 0.000000
# 4 0.000000 0.000000 0.000000 0.030993 0.000000 0.000000
# 5 0.000000 0.000000 0.000000 0.000000 0.030993 0.000000
# 6 0.000000 0.000000 0.000000 0.000000 0.000000 0.030993
#
#
# Mechanical properties :
#
#
# Convention : Reuss Voigt Hill
#
# Bulk Modulus (GPa) = 46.89763 46.89763 46.89763
# Shear Modulus (GPa) = 22.52740 25.56219 24.04480
#
# Velocity S-wave (km/s) = 3.49366 3.72156 3.60941
# Velocity P-wave (km/s) = 6.45632 6.62393 6.54066
#
# Compressibility (1/GPa) = 0.02132304
#
# Stress axis : x y z
#
# Youngs Moduli (GPa) = 41.90044 41.90276 41.90472
#
# Poissons Ratio (x) = 0.35113 0.35110
# Poissons Ratio (y) = 0.35111 0.35106
# Poissons Ratio (z) = 0.35107 0.35105
#
# Static dielectric constant tensor:
#      x y z
#    x 3.259640 0.000000 0.000000 
#    y 0.000000 3.259630 0.000000 
#    z 0.000000 0.000000 3.259630 
# 
# 
# High freq. dielectric constant tensor:
#      x y z
#    x 1.708070 0.000000 0.000000 
#    y 0.000000 1.708070 0.000000 
#    z 0.000000 0.000000 1.708070 
# 
# From -- ./inp_files/305.got.cif
#   From: 2010.03.12/outbox.cif.g09.slc.cpg/sg198_cif.got.tgz:305.got - 2010.04.01 12:33:50.
