data_PCOD8330823
_publ_section_title
;
Structure prediction by ZEFSAII (Michael W. Deem and Ramdas Pophale) SiO2 
 PCOD8330823
Probable space group: P 63/M M C
;
_chemical_formula_sum "Si O2"
_cell_formula_units_Z 84
_cell_length_a 22.985281
_cell_length_b 22.985281
_cell_length_c 10.040802
_cell_angle_alpha 90.000000
_cell_angle_beta 90.000000
_cell_angle_gamma 120.000000
_cell_volume 4594.081228
_symmetry_space_group_name_H-M "P 63/M M C"
_symmetry_group_IT_number 194
_symmetry_cell_setting 'hexagonal'
loop_
_space_group_symop_operation_xyz
x,y,z
x-y,x,1/2+z
-y,x-y,z
-x,-y,1/2+z
-x+y,-x,z
y,-x+y,1/2+z
x-y,-y,-z
-x,-x+y,-z
y,x,-z
-y,-x,1/2-z
-x+y,y,1/2-z
x,x-y,1/2-z
-x,-y,-z
-x+y,-x,1/2-z
y,-x+y,-z
x,y,1/2-z
x-y,x,-z
-y,x-y,1/2-z
-x+y,y,z
x,x-y,z
-y,-x,z
y,x,1/2+z
x-y,-y,1/2+z
-x,-x+y,1/2+z
loop_
_atom_site_type_symbol
_atom_site_label
_atom_site_fract_x
_atom_site_fract_y
_atom_site_fract_z
Si Si1 0.338559 0.920755 0.987964
Si Si2 0.000000 0.133650 0.500000
Si Si3 0.780672 0.793706 0.250000
Si Si4 0.652089 0.892116 0.750000
Si Si5 0.119910 0.742974 0.250000
Si Si6 0.467807 0.532194 0.905978
O O1 0.282268 0.905079 0.881361
O O2 0.388092 0.893065 0.940568
O O3 0.302887 0.886830 0.124860
O O4 0.382524 0.000000 0.000000
O O5 0.062001 0.124001 0.545407
O O6 0.974944 0.161279 0.620493
O O7 0.794919 0.732364 0.250000
O O8 0.701209 0.765243 0.250000
O O9 0.630522 0.815261 0.750000
O O10 0.192689 0.807312 0.250000
O O11 0.478229 0.521772 0.750000
O O12 0.500000 0.500000 0.000000
#
# Coordination Sequence:
#
# PCOD8330823 Si02
#       6
#    24  12  12  12  12  12
#     4  11  21  39  59  86 124 154 193 237 290 351
#     4  12  25  42  60  78 100 139 206 276 328 374
#     4  12  24  42  57  79 116 156 196 240 316 386
#     4  12  22  37  59  83 117 160 198 246 294 361
#     4  12  24  39  59  87 125 164 202 250 300 365
#     4  10  22  36  62  88 122 158 190 230 292 356
#
# _framework density 18.284396999999998
#
# number of rings (size 3 to 8) (size 9 to 14) (size 15 to 20)
#    0.000    0.571    4.286    5.286    6.000    0.000 
#    0.000    1.429    0.000    0.000    0.000    0.000 
#   28.571    0.000    0.000    0.000    0.000    0.000 
#
# Total GULP energy -1041750.414551 kJ/mol
# GULP energy per Si atom -12401.790649 kJ/mol
# Density = 1.824278 g / cm^3
# Si number density = 18.284397 Si / 1000 Ang^3
#
#
#
# Elastic Constant Matrix: (Units=GPa)
#
#
# Indices 1 2 3 4 5 6 
#
# 1 79.4907 43.8336 33.2174 0.0000 0.0000 0.0000
# 2 43.8336 79.4907 33.2174 0.0000 0.0000 0.0000
# 3 33.2174 33.2174 146.2390 0.0000 0.0000 0.0000
# 4 0.0000 0.0000 0.0000 36.8443 0.0000 0.0000
# 5 0.0000 0.0000 0.0000 0.0000 36.8443 0.0000
# 6 0.0000 0.0000 0.0000 0.0000 0.0000 17.8285
#
#
#
# Elastic Compliance Matrix: (Units=1/GPa)
#
#
# Indices 1 2 3 4 5 6 
#
# 1 0.018642 -0.009403 -0.002099 0.000000 0.000000 0.000000
# 2 -0.009403 0.018642 -0.002099 0.000000 0.000000 0.000000
# 3 -0.002099 -0.002099 0.007792 0.000000 0.000000 0.000000
# 4 0.000000 0.000000 0.000000 0.027141 0.000000 0.000000
# 5 0.000000 0.000000 0.000000 0.000000 0.027141 0.000000
# 6 0.000000 0.000000 0.000000 0.000000 0.000000 0.056090
#
#
# Mechanical properties :
#
#
# Convention : Reuss Voigt Hill
#
# Bulk Modulus (GPa) = 55.94274 58.41748 57.18011
# Shear Modulus (GPa) = 26.51018 31.30021 28.90519
#
# Velocity S-wave (km/s) = 3.81186 4.14194 3.98032
# Velocity P-wave (km/s) = 7.07361 7.40898 7.24324
#
# Compressibility (1/GPa) = 0.01787542
#
# Stress axis : x y z
#
# Youngs Moduli (GPa) = 53.64207 53.64207 128.34472
#
# Poissons Ratio (x) = 0.50439 0.26935
# Poissons Ratio (y) = 0.50439 0.26935
# Poissons Ratio (z) = 0.11258 0.11258
#
# Static dielectric constant tensor:
#      x y z
#    x 3.634540 0.000000 0.000000 
#    y 0.000000 3.634540 0.000000 
#    z 0.000000 0.000000 3.680470 
# 
# 
# High freq. dielectric constant tensor:
#      x y z
#    x 1.698610 0.000000 0.000000 
#    y 0.000000 1.698610 0.000000 
#    z 0.000000 0.000000 1.732510 
# 
# From -- ./inp_files/2858.got.cif
#   From: 2010.03.12/outbox.cif.g09.slc.cpg/sg194_2_cif.got.tgz:2858.got - 2010.04.01 12:26:19.
