data_PCOD8330032
_publ_section_title
;
Structure prediction by ZEFSAII (Michael W. Deem and Ramdas Pophale) SiO2 
 PCOD8330032
Probable space group: P 63/M C M
;
_chemical_formula_sum "Si O2"
_cell_formula_units_Z 144
_cell_length_a 31.080280
_cell_length_b 31.080280
_cell_length_c 9.079629
_cell_angle_alpha 90.000000
_cell_angle_beta 90.000000
_cell_angle_gamma 120.000000
_cell_volume 7595.713587
_symmetry_space_group_name_H-M "P 63/M C M"
_symmetry_group_IT_number 193
_symmetry_cell_setting 'hexagonal'
loop_
_space_group_symop_operation_xyz
x,y,z
x-y,x,1/2+z
-y,x-y,z
-x,-y,1/2+z
-x+y,-x,z
y,-x+y,1/2+z
x-y,-y,1/2-z
-x,-x+y,1/2-z
y,x,1/2-z
-y,-x,-z
-x+y,y,-z
x,x-y,-z
-x,-y,-z
-x+y,-x,1/2-z
y,-x+y,-z
x,y,1/2-z
x-y,x,-z
-y,x-y,1/2-z
-x+y,y,1/2+z
x,x-y,1/2+z
-y,-x,1/2+z
y,x,z
x-y,-y,z
-x,-x+y,z
loop_
_atom_site_type_symbol
_atom_site_label
_atom_site_fract_x
_atom_site_fract_y
_atom_site_fract_z
Si Si1 0.149695 0.386885 0.921460
Si Si2 0.332516 0.576166 0.577988
Si Si3 0.483989 0.428119 0.922097
Si Si4 0.857224 0.800215 0.421773
Si Si5 0.769330 0.055935 0.419325
Si Si6 0.853043 0.526395 0.919426
O O1 0.162300 0.393187 0.750000
O O2 0.092956 0.344428 0.953627
O O3 0.185381 0.370762 0.000000
O O4 0.159521 0.439183 0.981577
O O5 0.375919 0.624081 0.500000
O O6 0.280898 0.561797 0.500000
O O7 0.330396 0.587568 0.750000
O O8 0.342347 0.530633 0.556168
O O9 0.495268 0.434535 0.750000
O O10 0.441618 0.441618 0.965915
O O11 0.465980 0.372051 0.971410
O O12 0.535502 0.464498 0.000000
O O13 0.909987 0.819973 0.500000
O O14 0.863279 0.794924 0.250000
O O15 0.839790 0.839790 0.457323
O O16 0.817402 0.746181 0.481843
O O17 0.786220 0.060378 0.250000
O O18 0.725696 0.000000 0.456536
O O19 0.854776 0.542162 0.750000
#
# Coordination Sequence:
#
# PCOD8330032 Si02
#       6
#    24  24  24  24  24  24
#     4  11  23  37  55  78 107 144 182 220 263 314
#     4  11  23  39  59  82 108 137 172 215 264 318
#     4   9  18  34  56  82 111 142 178 221 268 316
#     4  10  20  33  52  79 107 138 178 221 268 321
#     4   9  19  36  56  79 108 141 178 222 269 315
#     4  10  22  38  56  80 110 144 181 220 263 313
#
# _framework density 18.958061000000001
#
# number of rings (size 3 to 8) (size 9 to 14) (size 15 to 20)
#    0.000    2.000    0.000    3.167    0.000    7.667 
#    0.000    0.000    0.000    0.167    0.000    0.000 
#    0.000    0.000    0.000    0.000    0.000    0.000 
#
# Total GULP energy -1786180.331753 kJ/mol
# GULP energy per Si atom -12404.030082 kJ/mol
# Density = 1.891491 g / cm^3
# Si number density = 18.958061 Si / 1000 Ang^3
#
#
#
# Elastic Constant Matrix: (Units=GPa)
#
#
# Indices 1 2 3 4 5 6 
#
# 1 95.3319 37.8299 45.1057 0.0000 0.0000 0.0000
# 2 37.8299 95.3319 45.1057 0.0000 0.0000 0.0000
# 3 45.1057 45.1057 91.2311 0.0000 0.0000 0.0000
# 4 0.0000 0.0000 0.0000 30.4287 0.0000 0.0000
# 5 0.0000 0.0000 0.0000 0.0000 30.4287 0.0000
# 6 0.0000 0.0000 0.0000 0.0000 0.0000 28.7510
#
#
#
# Elastic Compliance Matrix: (Units=1/GPa)
#
#
# Indices 1 2 3 4 5 6 
#
# 1 0.014341 -0.003049 -0.005583 0.000000 0.000000 0.000000
# 2 -0.003049 0.014341 -0.005583 0.000000 0.000000 0.000000
# 3 -0.005583 -0.005583 0.016482 0.000000 0.000000 0.000000
# 4 0.000000 0.000000 0.000000 0.032864 0.000000 0.000000
# 5 0.000000 0.000000 0.000000 0.000000 0.032864 0.000000
# 6 0.000000 0.000000 0.000000 0.000000 0.000000 0.034781
#
#
# Mechanical properties :
#
#
# Convention : Reuss Voigt Hill
#
# Bulk Modulus (GPa) = 59.75875 59.77532 59.76703
# Shear Modulus (GPa) = 27.82712 28.17859 28.00285
#
# Velocity S-wave (km/s) = 3.83538 3.85952 3.84747
# Velocity P-wave (km/s) = 7.15566 7.17356 7.16462
#
# Compressibility (1/GPa) = 0.01673395
#
# Stress axis : x y z
#
# Youngs Moduli (GPa) = 69.72906 69.72906 60.67391
#
# Poissons Ratio (x) = 0.21264 0.33873
# Poissons Ratio (y) = 0.21264 0.33873
# Poissons Ratio (z) = 0.38928 0.38928
#
# Static dielectric constant tensor:
#      x y z
#    x 3.526480 0.000000 0.000000 
#    y 0.000000 3.526480 0.000000 
#    z 0.000000 0.000000 3.561300 
# 
# 
# High freq. dielectric constant tensor:
#      x y z
#    x 1.737970 0.000000 0.000000 
#    y 0.000000 1.737970 0.000000 
#    z 0.000000 0.000000 1.743040 
# 
# From -- ./inp_files/1497.got.cif
#   From: 2010.03.12/outbox.cif.g09.slc.cpg/sg193_1_cif.got.tgz:1497.got - 2010.04.01 12:20:39.
