data_PCOD8330956
_publ_section_title
;
Structure prediction by ZEFSAII (Michael W. Deem and Ramdas Pophale) SiO2 
 PCOD8330956
Probable space group: P A 3
;
_chemical_formula_sum "Si O2"
_cell_formula_units_Z 48
_cell_length_a 13.278931
_cell_length_b 13.278931
_cell_length_c 13.278931
_cell_angle_alpha 90.000000
_cell_angle_beta 90.000000
_cell_angle_gamma 90.000000
_cell_volume 2341.474016
_symmetry_space_group_name_H-M "P A 3"
_symmetry_group_IT_number 205
_symmetry_cell_setting 'cubic'
loop_
_space_group_symop_operation_xyz
x,y,z
z,x,y
y,z,x
1/2-y,-z,1/2+x
1/2+z,1/2-x,-y
-y,1/2+z,1/2-x
1/2-z,-x,1/2+y
-z,1/2+x,1/2-y
1/2+y,1/2-z,-x
1/2-x,-y,1/2+z
1/2+x,1/2-y,-z
-x,1/2+y,1/2-z
-x,-y,-z
-z,-x,-y
-y,-z,-x
1/2+y,z,1/2-x
1/2-z,1/2+x,y
y,1/2-z,1/2+x
1/2+z,x,1/2-y
z,1/2-x,1/2+y
1/2-y,1/2+z,x
1/2+x,y,1/2-z
1/2-x,1/2+y,z
x,1/2-y,1/2+z
loop_
_atom_site_type_symbol
_atom_site_label
_atom_site_fract_x
_atom_site_fract_y
_atom_site_fract_z
Si Si1 0.189557 0.509527 0.406484
Si Si2 0.658050 0.057337 0.261117
O O1 0.163246 0.591839 0.491077
O O2 0.219638 0.402861 0.454932
O O3 0.283647 0.551098 0.343648
O O4 0.739657 0.077733 0.350280
#
# Coordination Sequence:
#
# PCOD8330956 Si02
#       2
#    24  24
#     4  12  23  43  71  93 140 183 219 287 349 403
#     4  10  24  42  64 108 132 173 239 275 342 413
#
# _framework density 20.499907
#
# number of rings (size 3 to 8) (size 9 to 14) (size 15 to 20)
#    1.000    0.000    5.000    1.500    7.000    0.000 
#    0.000    0.000    0.000    6.000    0.000    0.000 
#    0.000    0.000    0.000    0.000    0.000    0.000 
#
# Total GULP energy -595102.265885 kJ/mol
# GULP energy per Si atom -12397.963873 kJ/mol
# Density = 2.045325 g / cm^3
# Si number density = 20.499907 Si / 1000 Ang^3
#
#
#
# Elastic Constant Matrix: (Units=GPa)
#
#
# Indices 1 2 3 4 5 6 
#
# 1 71.1145 35.6615 35.6615 0.0000 0.0000 0.0000
# 2 35.6615 71.1145 35.6615 0.0000 0.0000 0.0000
# 3 35.6615 35.6615 71.1145 0.0000 0.0000 0.0000
# 4 0.0000 0.0000 0.0000 44.8388 0.0000 0.0000
# 5 0.0000 0.0000 0.0000 0.0000 44.8388 0.0000
# 6 0.0000 0.0000 0.0000 0.0000 0.0000 44.8388
#
#
#
# Elastic Compliance Matrix: (Units=1/GPa)
#
#
# Indices 1 2 3 4 5 6 
#
# 1 0.021144 -0.007062 -0.007062 0.000000 0.000000 0.000000
# 2 -0.007062 0.021144 -0.007062 0.000000 0.000000 0.000000
# 3 -0.007062 -0.007062 0.021144 0.000000 0.000000 0.000000
# 4 0.000000 0.000000 0.000000 0.022302 0.000000 0.000000
# 5 0.000000 0.000000 0.000000 0.000000 0.022302 0.000000
# 6 0.000000 0.000000 0.000000 0.000000 0.000000 0.022302
#
#
# Mechanical properties :
#
#
# Convention : Reuss Voigt Hill
#
# Bulk Modulus (GPa) = 47.47917 47.47917 47.47917
# Shear Modulus (GPa) = 27.81925 33.99388 30.90657
#
# Velocity S-wave (km/s) = 3.68780 4.07657 3.88705
# Velocity P-wave (km/s) = 6.42994 6.73564 6.58457
#
# Compressibility (1/GPa) = 0.02106187
#
# Stress axis : x y z
#
# Youngs Moduli (GPa) = 47.29379 47.29379 47.29379
#
# Poissons Ratio (x) = 0.33398 0.33398
# Poissons Ratio (y) = 0.33398 0.33398
# Poissons Ratio (z) = 0.33398 0.33398
#
# Static dielectric constant tensor:
#      x y z
#    x 3.498920 0.000000 0.000000 
#    y 0.000000 3.498920 0.000000 
#    z 0.000000 0.000000 3.498920 
# 
# 
# High freq. dielectric constant tensor:
#      x y z
#    x 1.794460 0.000000 0.000000 
#    y 0.000000 1.794460 0.000000 
#    z 0.000000 0.000000 1.794460 
# 
# From -- ./inp_files/136.got.cif
#   From: 2010.03.12/outbox.cif.g09.slc.cpg/sg205_cif.got.tgz:136.got - 2010.03.30 09:02:58.
