data_PCOD8330252
_publ_section_title
;
Structure prediction by ZEFSAII (Michael W. Deem and Ramdas Pophale) SiO2 
 PCOD8330252
Probable space group: P 63/M C M
;
_chemical_formula_sum "Si O2"
_cell_formula_units_Z 120
_cell_length_a 14.752008
_cell_length_b 14.752008
_cell_length_c 27.990067
_cell_angle_alpha 90.000000
_cell_angle_beta 90.000000
_cell_angle_gamma 120.000000
_cell_volume 5275.174716
_symmetry_space_group_name_H-M "P 63/M C M"
_symmetry_group_IT_number 193
_symmetry_cell_setting 'hexagonal'
loop_
_space_group_symop_operation_xyz
x,y,z
x-y,x,1/2+z
-y,x-y,z
-x,-y,1/2+z
-x+y,-x,z
y,-x+y,1/2+z
x-y,-y,1/2-z
-x,-x+y,1/2-z
y,x,1/2-z
-y,-x,-z
-x+y,y,-z
x,x-y,-z
-x,-y,-z
-x+y,-x,1/2-z
y,-x+y,-z
x,y,1/2-z
x-y,x,-z
-y,x-y,1/2-z
-x+y,y,1/2+z
x,x-y,1/2+z
-y,-x,1/2+z
y,x,z
x-y,-y,z
-x,-x+y,z
loop_
_atom_site_type_symbol
_atom_site_label
_atom_site_fract_x
_atom_site_fract_y
_atom_site_fract_z
Si Si1 0.445854 0.879204 0.108125
Si Si2 0.439438 0.315307 0.196790
Si Si3 0.462621 0.232966 0.444281
Si Si4 0.226037 0.112782 0.055645
Si Si5 0.117730 0.882140 0.306584
O O1 0.463175 0.843048 0.160771
O O2 0.330441 0.799896 0.088820
O O3 0.523912 0.867097 0.072113
O O4 0.473773 0.000000 0.107636
O O5 0.483310 0.314273 0.250000
O O6 0.371343 0.371343 0.199386
O O7 0.357897 0.196108 0.178307
O O8 0.494419 0.247210 0.500000
O O9 0.344477 0.145525 0.434652
O O10 0.194832 0.194832 0.077747
O O11 0.154749 0.000000 0.080259
O O12 0.203931 0.101966 0.000000
O O13 0.113536 0.882915 0.250000
O O14 0.000000 0.839593 0.326628
O O15 0.195411 0.000000 0.326056
#
# Coordination Sequence:
#
# PCOD8330252 Si02
#       5
#    24  24  24  24  24
#     4  11  23  41  65  90 121 162 203 250 312 370
#     4   8  16  33  57  84 116 157 203 250 303 365
#     4  11  23  38  59  90 122 154 202 256 304 363
#     4   9  17  31  53  82 117 156 196 239 291 355
#     4   8  12  20  40  74 116 161 207 254 306 367
#
# _framework density 22.748062999999998
#
# number of rings (size 3 to 8) (size 9 to 14) (size 15 to 20)
#    0.000    2.600    0.000    3.800    0.000    4.800 
#    0.000    3.000    0.000    0.000    0.000    2.800 
#    0.000    0.000    0.000    0.800    0.000   32.000 
#
# Total GULP energy -1486786.832771 kJ/mol
# GULP energy per Si atom -12389.890273 kJ/mol
# Density = 2.269629 g / cm^3
# Si number density = 22.748063 Si / 1000 Ang^3
#
#
#
# Elastic Constant Matrix: (Units=GPa)
#
#
# Indices 1 2 3 4 5 6 
#
# 1 138.5389 7.3433 37.7704 0.0000 0.0000 0.0000
# 2 7.3433 138.5389 37.7704 0.0000 0.0000 0.0000
# 3 37.7704 37.7704 122.9190 0.0000 0.0000 0.0000
# 4 0.0000 0.0000 0.0000 5.0189 0.0000 0.0000
# 5 0.0000 0.0000 0.0000 0.0000 5.0189 0.0000
# 6 0.0000 0.0000 0.0000 0.0000 0.0000 65.5978
#
#
#
# Elastic Compliance Matrix: (Units=1/GPa)
#
#
# Indices 1 2 3 4 5 6 
#
# 1 0.007887 0.000265 -0.002505 0.000000 0.000000 0.000000
# 2 0.000265 0.007887 -0.002505 0.000000 0.000000 0.000000
# 3 -0.002505 -0.002505 0.009675 0.000000 0.000000 0.000000
# 4 0.000000 0.000000 0.000000 0.199248 0.000000 0.000000
# 5 0.000000 0.000000 0.000000 0.000000 0.199248 0.000000
# 6 0.000000 0.000000 0.000000 0.000000 0.000000 0.015244
#
#
# Mechanical properties :
#
#
# Convention : Reuss Voigt Hill
#
# Bulk Modulus (GPa) = 62.66031 62.86279 62.76155
# Shear Modulus (GPa) = 11.01326 36.26794 23.64060
#
# Velocity S-wave (km/s) = 2.20271 3.99724 3.22722
# Velocity P-wave (km/s) = 5.83732 6.99987 6.44487
#
# Compressibility (1/GPa) = 0.01595906
#
# Stress axis : x y z
#
# Youngs Moduli (GPa) = 126.78963 126.78963 103.36065
#
# Poissons Ratio (x) = -0.03358 0.25891
# Poissons Ratio (y) = -0.03358 0.25891
# Poissons Ratio (z) = 0.31760 0.31760
#
# Static dielectric constant tensor:
#      x y z
#    x 4.084290 0.000000 0.000000 
#    y 0.000000 4.084290 0.000000 
#    z 0.000000 0.000000 4.256470 
# 
# 
# High freq. dielectric constant tensor:
#      x y z
#    x 1.884160 0.000000 0.000000 
#    y 0.000000 1.884160 0.000000 
#    z 0.000000 0.000000 1.901220 
# 
# From -- ./inp_files/8949.got.cif
#   From: 2010.03.12/outbox.cif.g09.slc.cpg/sg193_5_cif.got.tgz:8949.got - 2010.04.01 12:20:39.
