data_PCOD8330797
_publ_section_title
;
Structure prediction by ZEFSAII (Michael W. Deem and Ramdas Pophale) SiO2 
 PCOD8330797
Probable space group: P 63/M M C
;
_chemical_formula_sum "Si O2"
_cell_formula_units_Z 108
_cell_length_a 27.026351
_cell_length_b 27.026351
_cell_length_c 10.291632
_cell_angle_alpha 90.000000
_cell_angle_beta 90.000000
_cell_angle_gamma 120.000000
_cell_volume 6510.130673
_symmetry_space_group_name_H-M "P 63/M M C"
_symmetry_group_IT_number 194
_symmetry_cell_setting 'hexagonal'
loop_
_space_group_symop_operation_xyz
x,y,z
x-y,x,1/2+z
-y,x-y,z
-x,-y,1/2+z
-x+y,-x,z
y,-x+y,1/2+z
x-y,-y,-z
-x,-x+y,-z
y,x,-z
-y,-x,1/2-z
-x+y,y,1/2-z
x,x-y,1/2-z
-x,-y,-z
-x+y,-x,1/2-z
y,-x+y,-z
x,y,1/2-z
x-y,x,-z
-y,x-y,1/2-z
-x+y,y,z
x,x-y,z
-y,-x,z
y,x,1/2+z
x-y,-y,1/2+z
-x,-x+y,1/2+z
loop_
_atom_site_type_symbol
_atom_site_label
_atom_site_fract_x
_atom_site_fract_y
_atom_site_fract_z
Si Si1 0.527504 0.360716 0.478328
Si Si2 0.446874 0.782143 0.250000
Si Si3 0.173457 0.826544 0.596079
Si Si4 0.049330 0.738106 0.899842
Si Si5 0.048018 0.426317 0.898177
Si Si6 0.528578 0.764289 0.607031
O O1 0.591566 0.408435 0.438939
O O2 0.522676 0.347155 0.630811
O O3 0.485542 0.382930 0.435394
O O4 0.511991 0.302708 0.407826
O O5 0.378529 0.757058 0.250000
O O6 0.458732 0.729366 0.250000
O O7 0.175629 0.824372 0.750000
O O8 0.205165 0.893016 0.553965
O O9 0.205394 0.794607 0.528438
O O10 0.032306 0.742482 0.750000
O O11 0.062434 0.686582 0.912489
O O12 0.000000 0.730109 0.000000
O O13 0.028920 0.428744 0.750000
O O14 0.000000 0.418732 0.000000
O O15 0.553021 0.776511 0.750000
#
# Coordination Sequence:
#
# PCOD8330797 Si02
#       6
#    24  12  12  24  24  12
#     4  11  23  38  56  75  99 129 165 210 263 313
#     4  10  21  38  58  76  96 126 162 203 252 314
#     4   9  16  30  54  74  96 138 174 198 247 306
#     4   9  17  31  50  74 103 135 170 208 249 296
#     4  10  21  36  55  78 105 133 166 209 256 307
#     4  11  20  35  55  75  99 126 165 212 259 320
#
# _framework density 16.589528999999999
#
# number of rings (size 3 to 8) (size 9 to 14) (size 15 to 20)
#    0.000    2.000    3.333    0.778    1.556    2.222 
#    0.667    0.556    2.444    0.000    0.000    0.000 
#    0.000    0.000    0.000    0.333    0.000    4.000 
#
# Total GULP energy -1338576.239163 kJ/mol
# GULP energy per Si atom -12394.224437 kJ/mol
# Density = 1.655177 g / cm^3
# Si number density = 16.589529 Si / 1000 Ang^3
#
#
#
# Elastic Constant Matrix: (Units=GPa)
#
#
# Indices 1 2 3 4 5 6 
#
# 1 103.8983 51.4088 44.3685 0.0000 0.0000 0.0000
# 2 51.4088 103.8983 44.3685 0.0000 0.0000 0.0000
# 3 44.3685 44.3685 94.7266 0.0000 0.0000 0.0000
# 4 0.0000 0.0000 0.0000 24.8561 0.0000 0.0000
# 5 0.0000 0.0000 0.0000 0.0000 24.8561 0.0000
# 6 0.0000 0.0000 0.0000 0.0000 0.0000 26.2448
#
#
#
# Elastic Compliance Matrix: (Units=1/GPa)
#
#
# Indices 1 2 3 4 5 6 
#
# 1 0.013922 -0.005130 -0.004118 0.000000 0.000000 0.000000
# 2 -0.005130 0.013922 -0.004118 0.000000 0.000000 0.000000
# 3 -0.004118 -0.004118 0.014414 0.000000 0.000000 0.000000
# 4 0.000000 0.000000 0.000000 0.040232 0.000000 0.000000
# 5 0.000000 0.000000 0.000000 0.000000 0.040232 0.000000
# 6 0.000000 0.000000 0.000000 0.000000 0.000000 0.038103
#
#
# Mechanical properties :
#
#
# Convention : Reuss Voigt Hill
#
# Bulk Modulus (GPa) = 64.40807 64.75721 64.58264
# Shear Modulus (GPa) = 25.94303 26.01654 25.97978
#
# Velocity S-wave (km/s) = 3.95881 3.96441 3.96161
# Velocity P-wave (km/s) = 7.73337 7.75082 7.74210
#
# Compressibility (1/GPa) = 0.01552601
#
# Stress axis : x y z
#
# Youngs Moduli (GPa) = 71.83111 71.83111 69.37598
#
# Poissons Ratio (x) = 0.36848 0.28568
# Poissons Ratio (y) = 0.36848 0.28568
# Poissons Ratio (z) = 0.29579 0.29579
#
# Static dielectric constant tensor:
#      x y z
#    x 3.042290 0.000000 0.000000 
#    y 0.000000 3.042290 0.000000 
#    z 0.000000 0.000000 3.266380 
# 
# 
# High freq. dielectric constant tensor:
#      x y z
#    x 1.623210 0.000000 0.000000 
#    y 0.000000 1.623210 0.000000 
#    z 0.000000 0.000000 1.638440 
# 
# From -- ./inp_files/3266.got.cif
#   From: 2010.03.12/outbox.cif.g09.slc.cpg/sg194_2_cif.got.tgz:3266.got - 2010.04.01 12:26:19.
