data_PCOD8330598
_publ_section_title
;
Structure prediction by ZEFSAII (Michael W. Deem and Ramdas Pophale) SiO2 
 PCOD8330598
Probable space group: P 63/M M C
;
_chemical_formula_sum "Si O2"
_cell_formula_units_Z 156
_cell_length_a 20.787241
_cell_length_b 20.787241
_cell_length_c 21.057565
_cell_angle_alpha 90.000000
_cell_angle_beta 90.000000
_cell_angle_gamma 120.000000
_cell_volume 7880.113701
_symmetry_space_group_name_H-M "P 63/M M C"
_symmetry_group_IT_number 194
_symmetry_cell_setting 'hexagonal'
loop_
_space_group_symop_operation_xyz
x,y,z
x-y,x,1/2+z
-y,x-y,z
-x,-y,1/2+z
-x+y,-x,z
y,-x+y,1/2+z
x-y,-y,-z
-x,-x+y,-z
y,x,-z
-y,-x,1/2-z
-x+y,y,1/2-z
x,x-y,1/2-z
-x,-y,-z
-x+y,-x,1/2-z
y,-x+y,-z
x,y,1/2-z
x-y,x,-z
-y,x-y,1/2-z
-x+y,y,z
x,x-y,z
-y,-x,z
y,x,1/2+z
x-y,-y,1/2+z
-x,-x+y,1/2+z
loop_
_atom_site_type_symbol
_atom_site_label
_atom_site_fract_x
_atom_site_fract_y
_atom_site_fract_z
Si Si1 0.856514 0.001100 0.630756
Si Si2 0.817308 0.334236 0.994645
Si Si3 0.721485 0.931695 0.459179
Si Si4 0.810356 0.771012 0.750000
Si Si5 0.922794 0.388698 0.250000
Si Si6 0.468030 0.084643 0.388742
Si Si7 0.667405 0.587164 0.889114
Si Si8 0.319767 0.391768 0.250000
O O1 0.846160 0.923080 0.610002
O O2 0.834680 0.033252 0.571926
O O3 0.800579 0.989392 0.688543
O O4 0.942219 0.057782 0.649425
O O5 0.795435 0.397718 0.002608
O O6 0.743774 0.256227 0.984079
O O7 0.858542 0.328340 0.058181
O O8 0.870988 0.353911 0.933975
O O9 0.707219 0.853610 0.492476
O O10 0.655347 0.908156 0.408925
O O11 0.726257 0.000000 0.500000
O O12 0.892295 0.784590 0.750000
O O13 0.756605 0.684074 0.750000
O O14 0.955655 0.477828 0.250000
O O15 0.879161 0.356593 0.317266
O O16 0.987232 0.369736 0.250000
O O17 0.534441 0.068882 0.403507
O O18 0.392845 0.006543 0.394557
O O19 0.673236 0.564154 0.815775
#
# Coordination Sequence:
#
# PCOD8330598 Si02
#       8
#    24  24  24  12  12  24  24  12
#     4  10  20  34  52  72  98 135 182 231 278 332
#     4  11  23  39  59  85 118 155 193 234 280 333
#     4  11  22  35  51  74 105 141 181 228 283 341
#     4  10  19  33  52  74 102 138 182 230 279 335
#     4   8  16  32  58  88 116 148 183 223 268 323
#     4   9  18  35  60  88 117 149 187 229 273 324
#     4  11  21  36  60  85 112 144 185 233 287 346
#     4  10  20  35  57  82 115 142 179 229 293 346
#
# _framework density 19.796668
#
# number of rings (size 3 to 8) (size 9 to 14) (size 15 to 20)
#    0.000    1.846    1.538    3.308    0.000    2.462 
#    0.000    1.923    0.000    2.462    0.000    2.154 
#    0.000    0.000    0.000    0.000    0.000    0.000 
#
# Total GULP energy -1932764.323509 kJ/mol
# GULP energy per Si atom -12389.514894 kJ/mol
# Density = 1.975161 g / cm^3
# Si number density = 19.796668 Si / 1000 Ang^3
#
#
#
# Elastic Constant Matrix: (Units=GPa)
#
#
# Indices 1 2 3 4 5 6 
#
# 1 57.5707 13.3993 25.3738 0.0000 0.0000 0.0000
# 2 13.3993 57.5707 25.3738 0.0000 0.0000 0.0000
# 3 25.3738 25.3738 138.6148 0.0000 0.0000 0.0000
# 4 0.0000 0.0000 0.0000 19.5728 0.0000 0.0000
# 5 0.0000 0.0000 0.0000 0.0000 19.5728 0.0000
# 6 0.0000 0.0000 0.0000 0.0000 0.0000 22.0857
#
#
#
# Elastic Compliance Matrix: (Units=1/GPa)
#
#
# Indices 1 2 3 4 5 6 
#
# 1 0.019426 -0.003213 -0.002968 0.000000 0.000000 0.000000
# 2 -0.003213 0.019426 -0.002968 0.000000 0.000000 0.000000
# 3 -0.002968 -0.002968 0.008301 0.000000 0.000000 0.000000
# 4 0.000000 0.000000 0.000000 0.051091 0.000000 0.000000
# 5 0.000000 0.000000 0.000000 0.000000 0.051091 0.000000
# 6 0.000000 0.000000 0.000000 0.000000 0.000000 0.045278
#
#
# Mechanical properties :
#
#
# Convention : Reuss Voigt Hill
#
# Bulk Modulus (GPa) = 34.65622 42.45003 38.55312
# Shear Modulus (GPa) = 22.46899 24.88688 23.67793
#
# Velocity S-wave (km/s) = 3.37261 3.54944 3.46216
# Velocity P-wave (km/s) = 5.71928 6.18770 5.95809
#
# Compressibility (1/GPa) = 0.02885485
#
# Stress axis : x y z
#
# Youngs Moduli (GPa) = 51.47788 51.47788 120.47102
#
# Poissons Ratio (x) = 0.16541 0.35753
# Poissons Ratio (y) = 0.16541 0.35753
# Poissons Ratio (z) = 0.15277 0.15277
#
# Static dielectric constant tensor:
#      x y z
#    x 3.509390 0.000000 0.000000 
#    y 0.000000 3.509390 0.000000 
#    z 0.000000 0.000000 4.103060 
# 
# 
# High freq. dielectric constant tensor:
#      x y z
#    x 1.754260 0.000000 0.000000 
#    y 0.000000 1.754260 0.000000 
#    z 0.000000 0.000000 1.784920 
# 
# From -- ./inp_files/8433.got.cif
#   From: 2010.03.12/outbox.cif.g09.slc.cpg/sg194_5_cif.got.tgz:8433.got - 2010.04.01 12:26:19.
