data_PCOD8330926
_publ_section_title
;
Structure prediction by ZEFSAII (Michael W. Deem and Ramdas Pophale) SiO2 
 PCOD8330926
Probable space group: P N 3
;
_chemical_formula_sum "Si O2"
_cell_formula_units_Z 120
_cell_length_a 17.443733
_cell_length_b 17.443733
_cell_length_c 17.443733
_cell_angle_alpha 90.000000
_cell_angle_beta 90.000000
_cell_angle_gamma 90.000000
_cell_volume 5307.845729
_symmetry_space_group_name_H-M "P N 3"
_symmetry_group_IT_number 201
_space_group.IT_coordinate_system_code '2'
_symmetry_cell_setting 'cubic'
loop_
_space_group_symop_operation_xyz
x,y,z
z,x,y
y,z,x
1/2-y,1/2-z,x
z,1/2-x,1/2-y
1/2-y,z,1/2-x
1/2-z,1/2-x,y
1/2-z,x,1/2-y
y,1/2-z,1/2-x
1/2-x,1/2-y,z
x,1/2-y,1/2-z
1/2-x,y,1/2-z
-x,-y,-z
-z,-x,-y
-y,-z,-x
1/2+y,1/2+z,-x
-z,1/2+x,1/2+y
1/2+y,-z,1/2+x
1/2+z,1/2+x,-y
1/2+z,-x,1/2+y
-y,1/2+z,1/2+x
1/2+x,1/2+y,-z
-x,1/2+y,1/2+z
1/2+x,-y,1/2+z
loop_
_atom_site_type_symbol
_atom_site_label
_atom_site_fract_x
_atom_site_fract_y
_atom_site_fract_z
Si Si1 0.530705 0.359029 0.582405
Si Si2 0.264189 0.392294 0.666504
Si Si3 0.963987 0.080712 0.874040
Si Si4 0.309561 0.516937 0.309034
Si Si5 0.034923 0.467330 0.246792
O O1 0.447968 0.402691 0.582682
O O2 0.548952 0.325665 0.665345
O O3 0.531024 0.290435 0.520893
O O4 0.250000 0.354717 0.750000
O O5 0.189256 0.441025 0.643209
O O6 0.286424 0.326529 0.605509
O O7 0.051599 0.089697 0.905024
O O8 0.951200 0.996015 0.834599
O O9 0.250000 0.481108 0.250000
O O10 0.263013 0.508786 0.387876
O O11 0.386908 0.466936 0.302727
#
# Coordination Sequence:
#
# PCOD8330926 Si02
#       5
#    24  24  24  24  24
#     4  12  20  40  68 103 131 181 241 301 356 418
#     4  11  25  44  69 104 147 185 237 295 368 439
#     4  11  25  44  68 100 140 192 243 288 352 433
#     4  11  25  46  71 104 137 182 237 299 372 430
#     4  11  23  44  73  98 138 179 240 297 356 432
#
# _framework density 22.608042000000001
#
# number of rings (size 3 to 8) (size 9 to 14) (size 15 to 20)
#    0.000    0.800    6.000    2.000    5.600    0.400 
#    1.200    0.000    0.000    0.000    0.000    0.000 
#    0.000    0.000    0.000    0.000    0.000    0.000 
#
# Total GULP energy -1487187.419121 kJ/mol
# GULP energy per Si atom -12393.228493 kJ/mol
# Density = 2.255659 g / cm^3
# Si number density = 22.608042 Si / 1000 Ang^3
#
#
#
# Elastic Constant Matrix: (Units=GPa)
#
#
# Indices 1 2 3 4 5 6 
#
# 1 78.2094 24.5136 24.5136 0.0000 0.0000 0.0000
# 2 24.5136 78.2094 24.5136 0.0000 0.0000 0.0000
# 3 24.5136 24.5136 78.2094 0.0000 0.0000 0.0000
# 4 0.0000 0.0000 0.0000 28.5451 0.0000 0.0000
# 5 0.0000 0.0000 0.0000 0.0000 28.5451 0.0000
# 6 0.0000 0.0000 0.0000 0.0000 0.0000 28.5451
#
#
#
# Elastic Compliance Matrix: (Units=1/GPa)
#
#
# Indices 1 2 3 4 5 6 
#
# 1 0.015035 -0.003588 -0.003588 0.000000 0.000000 0.000000
# 2 -0.003588 0.015035 -0.003588 0.000000 0.000000 0.000000
# 3 -0.003588 -0.003588 0.015035 0.000000 0.000000 0.000000
# 4 0.000000 0.000000 0.000000 0.035032 0.000000 0.000000
# 5 0.000000 0.000000 0.000000 0.000000 0.035032 0.000000
# 6 0.000000 0.000000 0.000000 0.000000 0.000000 0.035032
#
#
# Mechanical properties :
#
#
# Convention : Reuss Voigt Hill
#
# Bulk Modulus (GPa) = 42.41219 42.41219 42.41219
# Shear Modulus (GPa) = 27.84114 27.86625 27.85370
#
# Velocity S-wave (km/s) = 3.51304 3.51462 3.51383
# Velocity P-wave (km/s) = 5.93766 5.93891 5.93828
#
# Compressibility (1/GPa) = 0.02357813
#
# Stress axis : x y z
#
# Youngs Moduli (GPa) = 66.50969 66.50969 66.50969
#
# Poissons Ratio (x) = 0.23864 0.23864
# Poissons Ratio (y) = 0.23864 0.23864
# Poissons Ratio (z) = 0.23864 0.23864
#
# Static dielectric constant tensor:
#      x y z
#    x 4.053850 0.000000 0.000000 
#    y 0.000000 4.053850 0.000000 
#    z 0.000000 0.000000 4.053850 
# 
# 
# High freq. dielectric constant tensor:
#      x y z
#    x 1.886680 0.000000 0.000000 
#    y 0.000000 1.886680 0.000000 
#    z 0.000000 0.000000 1.886680 
# 
# From -- ./inp_files/616.got.cif
#   From: 2010.03.12/outbox.cif.g09.slc.cpg/sg201_cif.got.tgz:616.got - 2010.03.30 09:02:05.
