data_PCOD8330409
_publ_section_title
;
Structure prediction by ZEFSAII (Michael W. Deem and Ramdas Pophale) SiO2 
 PCOD8330409
Probable space group: P 63/M M C
;
_chemical_formula_sum "Si O2"
_cell_formula_units_Z 144
_cell_length_a 22.034628
_cell_length_b 22.034628
_cell_length_c 19.138570
_cell_angle_alpha 90.000000
_cell_angle_beta 90.000000
_cell_angle_gamma 120.000000
_cell_volume 8047.325396
_symmetry_space_group_name_H-M "P 63/M M C"
_symmetry_group_IT_number 194
_symmetry_cell_setting 'hexagonal'
loop_
_space_group_symop_operation_xyz
x,y,z
x-y,x,1/2+z
-y,x-y,z
-x,-y,1/2+z
-x+y,-x,z
y,-x+y,1/2+z
x-y,-y,-z
-x,-x+y,-z
y,x,-z
-y,-x,1/2-z
-x+y,y,1/2-z
x,x-y,1/2-z
-x,-y,-z
-x+y,-x,1/2-z
y,-x+y,-z
x,y,1/2-z
x-y,x,-z
-y,x-y,1/2-z
-x+y,y,z
x,x-y,z
-y,-x,z
y,x,1/2+z
x-y,-y,1/2+z
-x,-x+y,1/2+z
loop_
_atom_site_type_symbol
_atom_site_label
_atom_site_fract_x
_atom_site_fract_y
_atom_site_fract_z
Si Si1 0.212335 0.291654 0.570722
Si Si2 0.052387 0.457228 0.671445
Si Si3 0.414678 0.324954 0.666909
Si Si4 0.293814 0.451840 0.579773
Si Si5 0.283831 0.074505 0.592957
Si Si6 0.667287 0.191897 0.935302
O O1 0.131167 0.262334 0.588855
O O2 0.259899 0.369988 0.598437
O O3 0.225031 0.300532 0.488167
O O4 0.229744 0.236829 0.609551
O O5 0.070827 0.446893 0.750000
O O6 0.026676 0.513338 0.667633
O O7 0.123822 0.486987 0.626877
O O8 0.987744 0.384764 0.642896
O O9 0.421562 0.323090 0.750000
O O10 0.353500 0.250759 0.638942
O O11 0.488106 0.340349 0.634132
O O12 0.238851 0.477702 0.600414
O O13 0.315502 0.470590 0.499219
O O14 0.252336 0.126168 0.608546
O O15 0.595959 0.191918 0.950781
O O16 0.728585 0.271416 0.924604
#
# Coordination Sequence:
#
# PCOD8330409 Si02
#       6
#    24  24  24  24  24  24
#     4   9  17  31  52  78 106 132 167 210 254 310
#     4  10  21  36  53  77 109 140 170 210 262 317
#     4  11  22  36  52  75 105 137 177 222 265 310
#     4  10  19  34  56  80 104 133 171 216 263 313
#     4  10  18  31  52  77 106 138 170 210 258 306
#     4  11  23  38  55  76 102 136 178 221 265 312
#
# _framework density 17.894144000000001
#
# number of rings (size 3 to 8) (size 9 to 14) (size 15 to 20)
#    0.000    1.833    3.333    1.667    0.000    3.333 
#    0.000    1.667    0.000    2.167    0.000    2.333 
#    0.000    0.000    0.000    0.000    0.000    0.000 
#
# Total GULP energy -1785070.701371 kJ/mol
# GULP energy per Si atom -12396.324315 kJ/mol
# Density = 1.785342 g / cm^3
# Si number density = 17.894144 Si / 1000 Ang^3
#
#
#
# Elastic Constant Matrix: (Units=GPa)
#
#
# Indices 1 2 3 4 5 6 
#
# 1 101.5921 44.4139 32.0571 0.0000 0.0000 0.0000
# 2 44.4139 101.5921 32.0571 0.0000 0.0000 0.0000
# 3 32.0571 32.0571 54.9211 0.0000 0.0000 0.0000
# 4 0.0000 0.0000 0.0000 21.5216 0.0000 0.0000
# 5 0.0000 0.0000 0.0000 0.0000 21.5216 0.0000
# 6 0.0000 0.0000 0.0000 0.0000 0.0000 28.5891
#
#
#
# Elastic Compliance Matrix: (Units=1/GPa)
#
#
# Indices 1 2 3 4 5 6 
#
# 1 0.013349 -0.004140 -0.005376 0.000000 0.000000 0.000000
# 2 -0.004140 0.013349 -0.005376 0.000000 0.000000 0.000000
# 3 -0.005376 -0.005376 0.024483 0.000000 0.000000 0.000000
# 4 0.000000 0.000000 0.000000 0.046465 0.000000 0.000000
# 5 0.000000 0.000000 0.000000 0.000000 0.046465 0.000000
# 6 0.000000 0.000000 0.000000 0.000000 0.000000 0.034978
#
#
# Mechanical properties :
#
#
# Convention : Reuss Voigt Hill
#
# Bulk Modulus (GPa) = 46.72860 52.79570 49.76215
# Shear Modulus (GPa) = 23.14755 24.29826 23.72291
#
# Velocity S-wave (km/s) = 3.60054 3.68895 3.64502
# Velocity P-wave (km/s) = 6.59210 6.90746 6.75162
#
# Compressibility (1/GPa) = 0.02140017
#
# Stress axis : x y z
#
# Youngs Moduli (GPa) = 74.90991 74.90991 40.84425
#
# Poissons Ratio (x) = 0.31011 0.21956
# Poissons Ratio (y) = 0.31011 0.21956
# Poissons Ratio (z) = 0.40268 0.40268
#
# Static dielectric constant tensor:
#      x y z
#    x 3.372630 0.000000 0.000000 
#    y 0.000000 3.372630 0.000000 
#    z 0.000000 0.000000 3.099990 
# 
# 
# High freq. dielectric constant tensor:
#      x y z
#    x 1.689500 0.000000 0.000000 
#    y 0.000000 1.689500 0.000000 
#    z 0.000000 0.000000 1.673870 
# 
# From -- ./inp_files/8188.got.cif
#   From: 2010.03.12/outbox.cif.g09.slc.cpg/sg194_5_cif.got.tgz:8188.got - 2010.04.01 12:26:19.
