data_PCOD8330531
_publ_section_title
;
Structure prediction by ZEFSAII (Michael W. Deem and Ramdas Pophale) SiO2 
 PCOD8330531
Probable space group: P 63/M M C
;
_chemical_formula_sum "Si O2"
_cell_formula_units_Z 144
_cell_length_a 31.793802
_cell_length_b 31.793802
_cell_length_c 9.078739
_cell_angle_alpha 90.000000
_cell_angle_beta 90.000000
_cell_angle_gamma 120.000000
_cell_volume 7947.693187
_symmetry_space_group_name_H-M "P 63/M M C"
_symmetry_group_IT_number 194
_symmetry_cell_setting 'hexagonal'
loop_
_space_group_symop_operation_xyz
x,y,z
x-y,x,1/2+z
-y,x-y,z
-x,-y,1/2+z
-x+y,-x,z
y,-x+y,1/2+z
x-y,-y,-z
-x,-x+y,-z
y,x,-z
-y,-x,1/2-z
-x+y,y,1/2-z
x,x-y,1/2-z
-x,-y,-z
-x+y,-x,1/2-z
y,-x+y,-z
x,y,1/2-z
x-y,x,-z
-y,x-y,1/2-z
-x+y,y,z
x,x-y,z
-y,-x,z
y,x,1/2+z
x-y,-y,1/2+z
-x,-x+y,1/2+z
loop_
_atom_site_type_symbol
_atom_site_label
_atom_site_fract_x
_atom_site_fract_y
_atom_site_fract_z
Si Si1 0.240266 0.383680 0.420131
Si Si2 0.478982 0.139270 0.923003
Si Si3 0.573551 0.524800 0.078914
Si Si4 0.145121 0.952355 0.422563
Si Si5 0.428483 0.761688 0.425262
Si Si6 0.905219 0.194676 0.415549
O O1 0.238424 0.369796 0.250000
O O2 0.196758 0.393516 0.459851
O O3 0.289209 0.431827 0.461715
O O4 0.237024 0.338981 0.513166
O O5 0.483315 0.131712 0.750000
O O6 0.525524 0.188487 0.980419
O O7 0.475008 0.094472 0.010661
O O8 0.582562 0.537970 0.250000
O O9 0.527925 0.472076 0.050724
O O10 0.565518 0.565518 0.000000
O O11 0.154086 0.961072 0.250000
O O12 0.091727 0.908274 0.458527
O O13 0.186775 0.943093 0.488953
O O14 0.149614 0.000000 0.500000
O O15 0.428176 0.760054 0.250000
O O16 0.379476 0.758952 0.485218
O O17 0.431692 0.715846 0.488350
O O18 0.925411 0.209670 0.250000
O O19 0.854138 0.145863 0.417158
#
# Coordination Sequence:
#
# PCOD8330531 Si02
#       6
#    24  24  24  24  24  24
#     4   9  17  30  48  71 102 138 173 209 251 300
#     4  10  19  31  50  76 104 134 169 210 256 306
#     4  10  21  37  56  75  95 121 155 198 249 304
#     4  10  20  34  54  80 109 141 177 218 263 309
#     4   9  16  26  43  70 104 140 178 220 263 305
#     4   9  17  30  49  72  98 130 168 208 249 295
#
# _framework density 18.118463999999999
#
# number of rings (size 3 to 8) (size 9 to 14) (size 15 to 20)
#    0.000    2.500    0.000    2.667    0.000    8.000 
#    0.000    0.833    0.000    5.667    0.000    0.000 
#    0.000    1.333    0.000    0.000    0.000    0.000 
#
# Total GULP energy -1785762.175467 kJ/mol
# GULP energy per Si atom -12401.126219 kJ/mol
# Density = 1.807723 g / cm^3
# Si number density = 18.118464 Si / 1000 Ang^3
#
#
#
# Elastic Constant Matrix: (Units=GPa)
#
#
# Indices 1 2 3 4 5 6 
#
# 1 124.3107 73.2444 61.1265 0.0000 0.0000 0.0000
# 2 73.2444 124.3107 61.1265 0.0000 0.0000 0.0000
# 3 61.1265 61.1265 91.2940 0.0000 0.0000 0.0000
# 4 0.0000 0.0000 0.0000 26.3774 0.0000 0.0000
# 5 0.0000 0.0000 0.0000 0.0000 26.3774 0.0000
# 6 0.0000 0.0000 0.0000 0.0000 0.0000 25.5331
#
#
#
# Elastic Compliance Matrix: (Units=1/GPa)
#
#
# Indices 1 2 3 4 5 6 
#
# 1 0.014113 -0.005470 -0.005787 0.000000 0.000000 0.000000
# 2 -0.005470 0.014113 -0.005787 0.000000 0.000000 0.000000
# 3 -0.005787 -0.005787 0.018703 0.000000 0.000000 0.000000
# 4 0.000000 0.000000 0.000000 0.037911 0.000000 0.000000
# 5 0.000000 0.000000 0.000000 0.000000 0.037911 0.000000
# 6 0.000000 0.000000 0.000000 0.000000 0.000000 0.039165
#
#
# Mechanical properties :
#
#
# Convention : Reuss Voigt Hill
#
# Bulk Modulus (GPa) = 77.87466 81.21222 79.54344
# Shear Modulus (GPa) = 24.96461 25.28547 25.12504
#
# Velocity S-wave (km/s) = 3.71597 3.73978 3.72789
# Velocity P-wave (km/s) = 7.84126 7.97296 7.90739
#
# Compressibility (1/GPa) = 0.01284115
#
# Stress axis : x y z
#
# Youngs Moduli (GPa) = 70.85806 70.85806 53.46712
#
# Poissons Ratio (x) = 0.38757 0.30941
# Poissons Ratio (y) = 0.38757 0.30941
# Poissons Ratio (z) = 0.41006 0.41006
#
# Static dielectric constant tensor:
#      x y z
#    x 3.369320 0.000000 0.000000 
#    y 0.000000 3.369320 0.000000 
#    z 0.000000 0.000000 3.268650 
# 
# 
# High freq. dielectric constant tensor:
#      x y z
#    x 1.698370 0.000000 0.000000 
#    y 0.000000 1.698370 0.000000 
#    z 0.000000 0.000000 1.688090 
# 
# From -- ./inp_files/2162.got.cif
#   From: 2010.03.12/outbox.cif.g09.slc.cpg/sg194_2_cif.got.tgz:2162.got - 2010.04.01 12:26:19.
