data_PCOD8330507
_publ_section_title
;
Structure prediction by ZEFSAII (Michael W. Deem and Ramdas Pophale) SiO2 
 PCOD8330507
Probable space group: P 63/M M C
;
_chemical_formula_sum "Si O2"
_cell_formula_units_Z 132
_cell_length_a 16.943605
_cell_length_b 16.943605
_cell_length_c 29.225774
_cell_angle_alpha 90.000000
_cell_angle_beta 90.000000
_cell_angle_gamma 120.000000
_cell_volume 7266.215768
_symmetry_space_group_name_H-M "P 63/M M C"
_symmetry_group_IT_number 194
_symmetry_cell_setting 'hexagonal'
loop_
_space_group_symop_operation_xyz
x,y,z
x-y,x,1/2+z
-y,x-y,z
-x,-y,1/2+z
-x+y,-x,z
y,-x+y,1/2+z
x-y,-y,-z
-x,-x+y,-z
y,x,-z
-y,-x,1/2-z
-x+y,y,1/2-z
x,x-y,1/2-z
-x,-y,-z
-x+y,-x,1/2-z
y,-x+y,-z
x,y,1/2-z
x-y,x,-z
-y,x-y,1/2-z
-x+y,y,z
x,x-y,z
-y,-x,z
y,x,1/2+z
x-y,-y,1/2+z
-x,-x+y,1/2+z
loop_
_atom_site_type_symbol
_atom_site_label
_atom_site_fract_x
_atom_site_fract_y
_atom_site_fract_z
Si Si1 0.610338 0.036364 0.569165
Si Si2 0.362841 0.032839 0.834609
Si Si3 0.852811 0.519368 0.480023
Si Si4 0.000675 0.821824 0.802520
Si Si5 0.667169 0.154170 0.196847
Si Si6 0.851198 0.332314 0.750000
O O1 0.518918 0.037835 0.578231
O O2 0.670002 0.070605 0.615176
O O3 0.668746 0.109438 0.530295
O O4 0.583247 0.932998 0.555439
O O5 0.264784 0.024209 0.833117
O O6 0.425921 0.100905 0.795590
O O7 0.356306 0.935465 0.830856
O O8 0.762370 0.524740 0.469304
O O9 0.829687 0.414844 0.476323
O O10 0.007011 0.796901 0.750000
O O11 0.926391 0.852781 0.808481
O O12 0.096285 0.903716 0.819610
O O13 0.671996 0.133800 0.250000
O O14 0.590780 0.181559 0.187548
O O15 0.762853 0.237148 0.179751
O O16 0.747448 0.252553 0.750000
O O17 0.855382 0.427691 0.750000
#
# Coordination Sequence:
#
# PCOD8330507 Si02
#       6
#    24  24  24  24  24  12
#     4   9  20  36  53  78 110 140 171 218 274 320
#     4  12  21  35  57  78 106 144 189 228 265 320
#     4   9  18  35  58  82 106 134 172 216 269 328
#     4  10  20  35  53  76 104 136 176 226 276 318
#     4  10  19  31  47  71 103 141 182 226 271 318
#     4  12  25  40  55  76 108 148 192 234 271 308
#
# _framework density 18.166264999999999
#
# number of rings (size 3 to 8) (size 9 to 14) (size 15 to 20)
#    0.000    1.818    1.818    4.455    0.000    5.818 
#    0.000    0.000    0.000    4.364    0.000    0.000 
#    0.000    0.000    0.000    9.273    0.000    0.000 
#
# Total GULP energy -1636964.851295 kJ/mol
# GULP energy per Si atom -12401.248873 kJ/mol
# Density = 1.812492 g / cm^3
# Si number density = 18.166265 Si / 1000 Ang^3
#
#
#
# Elastic Constant Matrix: (Units=GPa)
#
#
# Indices 1 2 3 4 5 6 
#
# 1 78.1547 13.0626 17.3930 0.0000 0.0000 0.0000
# 2 13.0626 78.1547 17.3930 0.0000 0.0000 0.0000
# 3 17.3930 17.3930 90.6174 0.0000 0.0000 0.0000
# 4 0.0000 0.0000 0.0000 15.0405 0.0000 0.0000
# 5 0.0000 0.0000 0.0000 0.0000 15.0405 0.0000
# 6 0.0000 0.0000 0.0000 0.0000 0.0000 32.5461
#
#
#
# Elastic Compliance Matrix: (Units=1/GPa)
#
#
# Indices 1 2 3 4 5 6 
#
# 1 0.013596 -0.001767 -0.002270 0.000000 0.000000 0.000000
# 2 -0.001767 0.013596 -0.002270 0.000000 0.000000 0.000000
# 3 -0.002270 -0.002270 0.011907 0.000000 0.000000 0.000000
# 4 0.000000 0.000000 0.000000 0.066487 0.000000 0.000000
# 5 0.000000 0.000000 0.000000 0.000000 0.066487 0.000000
# 6 0.000000 0.000000 0.000000 0.000000 0.000000 0.030726
#
#
# Mechanical properties :
#
#
# Convention : Reuss Voigt Hill
#
# Bulk Modulus (GPa) = 37.76042 38.06931 37.91487
# Shear Modulus (GPa) = 22.29734 25.79729 24.04731
#
# Velocity S-wave (km/s) = 3.50723 3.77246 3.64226
# Velocity P-wave (km/s) = 6.10181 6.32273 6.21325
#
# Compressibility (1/GPa) = 0.02648275
#
# Stress axis : x y z
#
# Youngs Moduli (GPa) = 73.55246 73.55246 83.98454
#
# Poissons Ratio (x) = 0.12997 0.19068
# Poissons Ratio (y) = 0.12997 0.19068
# Poissons Ratio (z) = 0.16699 0.16699
#
# Static dielectric constant tensor:
#      x y z
#    x 3.347720 0.000000 0.000000 
#    y 0.000000 3.347720 0.000000 
#    z 0.000000 0.000000 3.355760 
# 
# 
# High freq. dielectric constant tensor:
#      x y z
#    x 1.705110 0.000000 0.000000 
#    y 0.000000 1.705110 0.000000 
#    z 0.000000 0.000000 1.685950 
# 
# From -- ./inp_files/10827.got.cif
#   From: 2010.03.12/outbox.cif.g09.slc.cpg/sg194_6_cif.got.tgz:10827.got - 2010.04.01 12:26:19.
