data_PCOD8330966
_publ_section_title
;
Structure prediction by ZEFSAII (Michael W. Deem and Ramdas Pophale) SiO2 
 PCOD8330966
Probable space group: I A 3
;
_chemical_formula_sum "Si O2"
_cell_formula_units_Z 280
_cell_length_a 23.651527
_cell_length_b 23.651527
_cell_length_c 23.651527
_cell_angle_alpha 90.000000
_cell_angle_beta 90.000000
_cell_angle_gamma 90.000000
_cell_volume 13230.539547
_symmetry_space_group_name_H-M "I A 3"
_symmetry_group_IT_number 206
_symmetry_cell_setting 'cubic'
loop_
_space_group_symop_operation_xyz
x,y,z
z,x,y
y,z,x
-y,1/2-z,x
z,-x,1/2-y
1/2-y,z,-x
-z,1/2-x,y
1/2-z,x,-y
y,-z,1/2-x
-x,1/2-y,z
x,-y,1/2-z
1/2-x,y,-z
-x,-y,-z
-z,-x,-y
-y,-z,-x
y,1/2+z,-x
-z,x,1/2+y
1/2+y,-z,x
z,1/2+x,-y
1/2+z,-x,y
-y,z,1/2+x
x,1/2+y,-z
-x,y,1/2+z
1/2+x,-y,z
1/2+x,1/2+y,1/2+z
1/2+z,1/2+x,1/2+y
1/2+y,1/2+z,1/2+x
1/2-y,-z,1/2+x
1/2+z,1/2-x,-y
-y,1/2+z,1/2-x
1/2-z,-x,1/2+y
-z,1/2+x,1/2-y
1/2+y,1/2-z,-x
1/2-x,-y,1/2+z
1/2+x,1/2-y,-z
-x,1/2+y,1/2-z
1/2-x,1/2-y,1/2-z
1/2-z,1/2-x,1/2-y
1/2-y,1/2-z,1/2-x
1/2+y,z,1/2-x
1/2-z,1/2+x,y
y,1/2-z,1/2+x
1/2+z,x,1/2-y
z,1/2-x,1/2+y
1/2-y,1/2+z,x
1/2+x,y,1/2-z
1/2-x,1/2+y,z
x,1/2-y,1/2+z
loop_
_atom_site_type_symbol
_atom_site_label
_atom_site_fract_x
_atom_site_fract_y
_atom_site_fract_z
Si Si1 0.788666 0.711335 0.288666
Si Si2 0.432655 0.688576 0.597647
Si Si3 0.405135 0.691823 0.266648
Si Si4 0.961713 0.326372 0.476592
Si Si5 0.748463 0.627940 0.938287
Si Si6 0.806651 0.000000 0.750000
Si Si7 0.871375 0.410494 0.436571
O O1 0.750000 0.750000 0.250000
O O2 0.768790 0.647228 0.285966
O O3 0.375038 0.724063 0.594382
O O4 0.465783 0.700657 0.539098
O O5 0.465951 0.707310 0.653208
O O6 0.428209 0.620625 0.597983
O O7 0.397891 0.718648 0.329140
O O8 0.460549 0.711568 0.232878
O O9 0.942718 0.277612 0.433238
O O10 0.912622 0.373221 0.475242
O O11 0.023157 0.352516 0.462331
O O12 0.684345 0.623669 0.916910
O O13 0.750000 0.656594 0.000000
#
# Coordination Sequence:
#
# PCOD8330966 Si02
#       7
#    16  48  48  48  48  24  48
#     4  12  30  48  72 108 147 183 232 311 367 453
#     4  12  27  47  70 102 147 190 234 300 357 438
#     4  12  25  50  70 105 144 187 247 290 367 439
#     4  11  23  44  68 106 141 169 242 300 355 425
#     4  10  22  39  71 101 131 178 233 297 345 414
#     4  12  30  44  74 100 142 204 232 290 366 440
#     4  11  23  42  70 105 131 181 229 295 366 412
#
# _framework density 21.163157000000002
#
# number of rings (size 3 to 8) (size 9 to 14) (size 15 to 20)
#    0.000    0.686    6.000    1.029    8.400    0.000 
#    1.029    0.857    0.000    0.000    0.000    0.000 
#    0.000    0.000    0.000    0.000    0.000    0.000 
#
# Total GULP energy -1735959.330202 kJ/mol
# GULP energy per Si atom -12399.709501 kJ/mol
# Density = 2.111499 g / cm^3
# Si number density = 21.163157 Si / 1000 Ang^3
#
#
#
# Elastic Constant Matrix: (Units=GPa)
#
#
# Indices 1 2 3 4 5 6 
#
# 1 118.0597 38.4871 38.4873 0.0000 0.0000 0.0000
# 2 38.4871 118.0593 38.4873 0.0000 0.0000 0.0000
# 3 38.4873 38.4873 118.0599 0.0000 0.0000 0.0000
# 4 0.0000 0.0000 0.0000 31.4227 0.0000 0.0000
# 5 0.0000 0.0000 0.0000 0.0000 31.4228 0.0000
# 6 0.0000 0.0000 0.0000 0.0000 0.0000 31.4227
#
#
#
# Elastic Compliance Matrix: (Units=1/GPa)
#
#
# Indices 1 2 3 4 5 6 
#
# 1 0.010087 -0.002480 -0.002480 0.000000 0.000000 0.000000
# 2 -0.002480 0.010087 -0.002480 0.000000 0.000000 0.000000
# 3 -0.002480 -0.002480 0.010087 0.000000 0.000000 0.000000
# 4 0.000000 0.000000 0.000000 0.031824 0.000000 0.000000
# 5 0.000000 0.000000 0.000000 0.000000 0.031824 0.000000
# 6 0.000000 0.000000 0.000000 0.000000 0.000000 0.031824
#
#
# Mechanical properties :
#
#
# Convention : Reuss Voigt Hill
#
# Bulk Modulus (GPa) = 65.01136 65.01136 65.01136
# Shear Modulus (GPa) = 34.30743 34.76811 34.53777
#
# Velocity S-wave (km/s) = 4.03065 4.05762 4.04416
# Velocity P-wave (km/s) = 7.24205 7.26210 7.25208
#
# Compressibility (1/GPa) = 0.01538193
#
# Stress axis : x y z
#
# Youngs Moduli (GPa) = 99.13553 99.13505 99.13555
#
# Poissons Ratio (x) = 0.24585 0.24585
# Poissons Ratio (y) = 0.24585 0.24585
# Poissons Ratio (z) = 0.24585 0.24585
#
# Static dielectric constant tensor:
#      x y z
#    x 3.899010 0.000000 0.000000 
#    y 0.000000 3.899020 0.000000 
#    z 0.000000 0.000000 3.899010 
# 
# 
# High freq. dielectric constant tensor:
#      x y z
#    x 1.834650 0.000000 0.000000 
#    y 0.000000 1.834650 0.000000 
#    z 0.000000 0.000000 1.834650 
# 
# From -- ./inp_files/599.got.cif
#   From: 2010.03.12/outbox.cif.g09.slc.cpg/sg206_cif.got.tgz:599.got - 2010.03.30 09:03:11.
