data_PCOD8330285
_publ_section_title
;
Structure prediction by ZEFSAII (Michael W. Deem and Ramdas Pophale) SiO2 
 PCOD8330285
Probable space group: P 63/M C M
;
_chemical_formula_sum "Si O2"
_cell_formula_units_Z 132
_cell_length_a 18.000000
_cell_length_b 18.000000
_cell_length_c 24.000000
_cell_angle_alpha 90.000000
_cell_angle_beta 90.000000
_cell_angle_gamma 120.000000
_cell_volume 6734.213540
_symmetry_space_group_name_H-M "P 63/M C M"
_symmetry_group_IT_number 193
_symmetry_cell_setting 'hexagonal'
loop_
_space_group_symop_operation_xyz
x,y,z
x-y,x,1/2+z
-y,x-y,z
-x,-y,1/2+z
-x+y,-x,z
y,-x+y,1/2+z
x-y,-y,1/2-z
-x,-x+y,1/2-z
y,x,1/2-z
-y,-x,-z
-x+y,y,-z
x,x-y,-z
-x,-y,-z
-x+y,-x,1/2-z
y,-x+y,-z
x,y,1/2-z
x-y,x,-z
-y,x-y,1/2-z
-x+y,y,1/2+z
x,x-y,1/2+z
-y,-x,1/2+z
y,x,z
x-y,-y,z
-x,-x+y,z
loop_
_atom_site_type_symbol
_atom_site_label
_atom_site_fract_x
_atom_site_fract_y
_atom_site_fract_z
Si Si1 0.331294 0.499436 0.991690
Si Si2 0.626740 0.899766 0.406227
Si Si3 0.491112 0.101905 0.812931
Si Si4 0.201785 0.298716 0.855871
Si Si5 0.199583 0.101217 0.750000
Si Si6 0.635521 0.538623 0.372151
O O1 0.304152 0.421786 0.034935
O O2 0.429782 0.570219 0.000000
O O3 0.269836 0.539672 0.000000
O O4 0.320047 0.467536 0.928532
O O5 0.559254 0.867792 0.354415
O O6 0.680970 0.850134 0.402947
O O7 0.693095 0.000000 0.401417
O O8 0.496583 0.138114 0.750000
O O9 0.587688 0.137589 0.837083
O O10 0.443611 0.000000 0.810407
O O11 0.232461 0.232461 0.878566
O O12 0.139757 0.259416 0.803460
O O13 0.286727 0.386781 0.836592
O O14 0.123786 0.123786 0.750000
O O15 0.159748 0.000000 0.750000
O O16 0.565209 0.565209 0.388686
#
# Coordination Sequence:
#
# PCOD8330285 Si02
#       6
#    24  24  24  24  12  24
#     4  12  23  39  58  86 120 164 203 254 311 373
#     4  11  22  37  61  90 119 158 208 261 316 375
#     4   9  19  34  56  86 117 150 189 241 302 371
#     4  10  22  38  57  86 124 165 207 260 322 381
#     4  10  21  38  62  90 124 166 216 274 335 396
#     4  10  20  36  58  84 117 157 204 249 303 375
#
# _framework density 19.601398
#
# number of rings (size 3 to 8) (size 9 to 14) (size 15 to 20)
#    0.000    1.636    3.636    1.364    2.545    0.727 
#    0.000    0.000    0.000    0.364    0.000    0.000 
#    0.000    0.727    0.000    0.000    0.000    0.000 
#
# Total GULP energy -1636533.205015 kJ/mol
# GULP energy per Si atom -12397.978826 kJ/mol
# Density = 1.955678 g / cm^3
# Si number density = 19.601398 Si / 1000 Ang^3
#
#
#
# Elastic Constant Matrix: (Units=GPa)
#
#
# Indices 1 2 3 4 5 6 
#
# 1 104.3049 39.7392 35.2386 0.0000 0.0000 0.0000
# 2 39.7392 104.3049 35.2386 0.0000 0.0000 0.0000
# 3 35.2386 35.2386 120.1313 0.0000 0.0000 0.0000
# 4 0.0000 0.0000 0.0000 28.0872 0.0000 0.0000
# 5 0.0000 0.0000 0.0000 0.0000 28.0872 0.0000
# 6 0.0000 0.0000 0.0000 0.0000 0.0000 32.2828
#
#
#
# Elastic Compliance Matrix: (Units=1/GPa)
#
#
# Indices 1 2 3 4 5 6 
#
# 1 0.011797 -0.003691 -0.002378 0.000000 0.000000 0.000000
# 2 -0.003691 0.011797 -0.002378 0.000000 0.000000 0.000000
# 3 -0.002378 -0.002378 0.009719 0.000000 0.000000 0.000000
# 4 0.000000 0.000000 0.000000 0.035603 0.000000 0.000000
# 5 0.000000 0.000000 0.000000 0.000000 0.035603 0.000000
# 6 0.000000 0.000000 0.000000 0.000000 0.000000 0.030976
#
#
# Mechanical properties :
#
#
# Convention : Reuss Voigt Hill
#
# Bulk Modulus (GPa) = 60.90218 61.01931 60.96074
# Shear Modulus (GPa) = 31.67317 32.25975 31.96646
#
# Velocity S-wave (km/s) = 4.02414 4.06123 4.04273
# Velocity P-wave (km/s) = 7.26150 7.29309 7.27731
#
# Compressibility (1/GPa) = 0.01641977
#
# Stress axis : x y z
#
# Youngs Moduli (GPa) = 84.76817 84.76817 102.88997
#
# Poissons Ratio (x) = 0.31290 0.24464
# Poissons Ratio (y) = 0.31290 0.24464
# Poissons Ratio (z) = 0.20155 0.20155
#
# Static dielectric constant tensor:
#      x y z
#    x 3.601140 0.000000 0.000000 
#    y 0.000000 3.601140 0.000000 
#    z 0.000000 0.000000 3.620300 
# 
# 
# High freq. dielectric constant tensor:
#      x y z
#    x 1.762950 0.000000 0.000000 
#    y 0.000000 1.762950 0.000000 
#    z 0.000000 0.000000 1.759690 
# 
# From -- ./inp_files/7454.got.cif
#   From: 2010.03.12/outbox.ucp.g09.slc.cvg/sg193_4_cif.got.tgz:7454.got - 2010.05.04 20:48:08.
