data_PCOD8330164
_publ_section_title
;
Structure prediction by ZEFSAII (Michael W. Deem and Ramdas Pophale) SiO2 
 PCOD8330164
Probable space group: P 63/M C M
;
_chemical_formula_sum "Si O2"
_cell_formula_units_Z 104
_cell_length_a 19.626985
_cell_length_b 19.626985
_cell_length_c 14.218720
_cell_angle_alpha 90.000000
_cell_angle_beta 90.000000
_cell_angle_gamma 120.000000
_cell_volume 4743.493555
_symmetry_space_group_name_H-M "P 63/M C M"
_symmetry_group_IT_number 193
_symmetry_cell_setting 'hexagonal'
loop_
_space_group_symop_operation_xyz
x,y,z
x-y,x,1/2+z
-y,x-y,z
-x,-y,1/2+z
-x+y,-x,z
y,-x+y,1/2+z
x-y,-y,1/2-z
-x,-x+y,1/2-z
y,x,1/2-z
-y,-x,-z
-x+y,y,-z
x,x-y,-z
-x,-y,-z
-x+y,-x,1/2-z
y,-x+y,-z
x,y,1/2-z
x-y,x,-z
-y,x-y,1/2-z
-x+y,y,1/2+z
x,x-y,1/2+z
-y,-x,1/2+z
y,x,z
x-y,-y,z
-x,-x+y,z
loop_
_atom_site_type_symbol
_atom_site_label
_atom_site_fract_x
_atom_site_fract_y
_atom_site_fract_z
Si Si1 0.913103 0.825689 0.610058
Si Si2 0.402206 0.556015 0.643650
Si Si3 0.908018 0.553463 0.020841
Si Si4 0.326270 0.093342 0.646303
Si Si5 0.666668 0.333334 0.889154
O O1 0.919328 0.838656 0.500000
O O2 0.874539 0.874539 0.654992
O O3 0.860255 0.732848 0.632873
O O4 0.000000 0.857686 0.653286
O O5 0.403687 0.527132 0.750000
O O6 0.487841 0.592602 0.597366
O O7 0.343764 0.482816 0.576684
O O8 0.374176 0.619512 0.648963
O O9 0.874251 0.606082 0.067003
O O10 0.000000 0.604350 0.997611
O O11 0.365207 0.117363 0.750000
O O12 0.276033 0.000000 0.635491
O O13 0.666668 0.333334 0.000000
#
# Coordination Sequence:
#
# PCOD8330164 Si02
#       5
#    24  24  24  24   8
#     4   9  17  31  53  81 114 156 208 267 321 368
#     4  11  22  38  63  92 122 156 198 249 298 353
#     4  10  21  36  59  91 125 164 201 240 298 364
#     4   9  18  34  54  79 117 160 201 248 304 366
#     4  12  22  44  64  88 125 157 193 248 304 355
#
# _framework density 21.924769000000001
#
# number of rings (size 3 to 8) (size 9 to 14) (size 15 to 20)
#    0.000    2.077    2.308    3.000    0.000    4.154 
#    4.154    0.000    0.000    1.385    0.000    6.462 
#    0.000    0.000    0.000    0.462    0.000    0.000 
#
# Total GULP energy -1289205.089802 kJ/mol
# GULP energy per Si atom -12396.202787 kJ/mol
# Density = 2.187487 g / cm^3
# Si number density = 21.924769 Si / 1000 Ang^3
#
#
#
# Elastic Constant Matrix: (Units=GPa)
#
#
# Indices 1 2 3 4 5 6 
#
# 1 81.4299 24.3646 32.3914 -0.0008 0.0000 -0.0001
# 2 24.3646 81.4290 32.3912 -0.0009 0.0003 -0.0002
# 3 32.3914 32.3912 159.8725 -0.0008 -0.0004 -0.0001
# 4 -0.0008 -0.0009 -0.0008 6.1031 0.0010 -0.0002
# 5 0.0000 0.0003 -0.0004 0.0010 6.1035 0.0000
# 6 -0.0001 -0.0002 -0.0001 -0.0002 0.0000 28.5325
#
#
#
# Elastic Compliance Matrix: (Units=1/GPa)
#
#
# Indices 1 2 3 4 5 6 
#
# 1 0.014157 -0.003366 -0.002186 0.000001 0.000000 0.000000
# 2 -0.003366 0.014158 -0.002186 0.000001 -0.000001 0.000000
# 3 -0.002186 -0.002186 0.007141 0.000000 0.000001 0.000000
# 4 0.000001 0.000001 0.000000 0.163852 -0.000026 0.000001
# 5 0.000000 -0.000001 0.000001 -0.000026 0.163840 0.000000
# 6 0.000000 0.000000 0.000000 0.000001 0.000000 0.035048
#
#
# Mechanical properties :
#
#
# Convention : Reuss Voigt Hill
#
# Bulk Modulus (GPa) = 50.05565 55.66953 52.86259
# Shear Modulus (GPa) = 11.89533 23.72009 17.80771
#
# Velocity S-wave (km/s) = 2.33180 3.29277 2.85304
# Velocity P-wave (km/s) = 5.48907 6.31686 5.91746
#
# Compressibility (1/GPa) = 0.01997777
#
# Stress axis : x y z
#
# Youngs Moduli (GPa) = 70.63419 70.63342 140.03776
#
# Poissons Ratio (x) = 0.23778 0.30617
# Poissons Ratio (y) = 0.23778 0.30617
# Poissons Ratio (z) = 0.15443 0.15443
#
# Static dielectric constant tensor:
#      x y z
#    x 3.980000 0.000000 0.000000 
#    y 0.000000 3.980000 0.000000 
#    z 0.000000 0.000000 4.138730 
# 
# 
# High freq. dielectric constant tensor:
#      x y z
#    x 1.846070 0.000000 0.000000 
#    y 0.000000 1.846070 0.000000 
#    z 0.000000 0.000000 1.869720 
# 
# From -- ./inp_files/3703.got.cif
#   From: 2010.03.12/outbox.cif.g09.slc.cpg/sg193_2_cif.got.tgz:3703.got - 2010.04.01 12:20:39.
