data_PCOD8330917
_publ_section_title
;
Structure prediction by ZEFSAII (Michael W. Deem and Ramdas Pophale) SiO2 
 PCOD8330917
Probable space group: P N 3
;
_chemical_formula_sum "Si O2"
_cell_formula_units_Z 148
_cell_length_a 19.550208
_cell_length_b 19.550208
_cell_length_c 19.550208
_cell_angle_alpha 90.000000
_cell_angle_beta 90.000000
_cell_angle_gamma 90.000000
_cell_volume 7472.297372
_symmetry_space_group_name_H-M "P N 3"
_symmetry_group_IT_number 201
_space_group.IT_coordinate_system_code '2'
_symmetry_cell_setting 'cubic'
loop_
_space_group_symop_operation_xyz
x,y,z
z,x,y
y,z,x
1/2-y,1/2-z,x
z,1/2-x,1/2-y
1/2-y,z,1/2-x
1/2-z,1/2-x,y
1/2-z,x,1/2-y
y,1/2-z,1/2-x
1/2-x,1/2-y,z
x,1/2-y,1/2-z
1/2-x,y,1/2-z
-x,-y,-z
-z,-x,-y
-y,-z,-x
1/2+y,1/2+z,-x
-z,1/2+x,1/2+y
1/2+y,-z,1/2+x
1/2+z,1/2+x,-y
1/2+z,-x,1/2+y
-y,1/2+z,1/2+x
1/2+x,1/2+y,-z
-x,1/2+y,1/2+z
1/2+x,-y,1/2+z
loop_
_atom_site_type_symbol
_atom_site_label
_atom_site_fract_x
_atom_site_fract_y
_atom_site_fract_z
Si Si1 0.047139 0.802639 0.030481
Si Si2 0.952199 0.547802 0.952199
Si Si3 0.380920 0.009634 0.813037
Si Si4 0.046202 0.453800 0.453800
Si Si5 0.910575 0.869141 0.069743
Si Si6 0.882636 0.395324 0.730028
Si Si7 0.883162 0.428913 0.878073
Si Si8 0.250000 0.750000 0.560073
O O1 0.090502 0.863196 0.064132
O O2 0.057034 0.729166 0.066147
O O3 0.965979 0.814734 0.043938
O O4 0.070138 0.791488 0.953786
O O5 0.906245 0.504237 0.900192
O O6 0.000000 0.500000 0.000000
O O7 0.401859 0.931019 0.826283
O O8 0.374114 0.047366 0.885136
O O9 0.311180 0.008779 0.769348
O O10 0.079599 0.504963 0.398635
O O11 0.000000 0.500000 0.500000
O O12 0.836293 0.834959 0.086796
O O13 0.852633 0.427291 0.800466
O O14 0.890091 0.313575 0.734740
#
# Coordination Sequence:
#
# PCOD8330917 Si02
#       8
#    24   8  24   8  24  24  24  12
#     4  12  20  31  55  79 111 138 179 229 274 333
#     4  12  18  36  54  87  99 135 180 251 302 333
#     4  11  20  35  50  79 101 142 181 232 275 323
#     4  12  15  30  51  78 117 129 168 224 275 324
#     4  12  19  32  52  83 112 138 175 225 275 332
#     4  11  22  35  51  83 108 146 182 224 281 333
#     4  11  22  35  58  74 109 137 188 237 283 335
#     4  10  20  34  52  76 112 142 188 232 268 348
#
# _framework density 19.806493
#
# number of rings (size 3 to 8) (size 9 to 14) (size 15 to 20)
#    0.000    0.649    8.108    2.919    0.000    0.000 
#    0.000    0.811    0.000    0.000    0.000    0.000 
#    0.000    0.000    0.000    0.000    0.000    0.000 
#
# Total GULP energy -1833945.598935 kJ/mol
# GULP energy per Si atom -12391.524317 kJ/mol
# Density = 1.976141 g / cm^3
# Si number density = 19.806493 Si / 1000 Ang^3
#
#
#
# Elastic Constant Matrix: (Units=GPa)
#
#
# Indices 1 2 3 4 5 6 
#
# 1 61.1347 5.1725 5.1727 0.0000 0.0000 0.0000
# 2 5.1725 61.1362 5.1727 0.0000 0.0000 0.0000
# 3 5.1727 5.1727 61.1356 0.0000 0.0000 0.0000
# 4 0.0000 0.0000 0.0000 24.9597 0.0000 0.0000
# 5 0.0000 0.0000 0.0000 0.0000 24.9597 0.0000
# 6 0.0000 0.0000 0.0000 0.0000 0.0000 24.9597
#
#
#
# Elastic Compliance Matrix: (Units=1/GPa)
#
#
# Indices 1 2 3 4 5 6 
#
# 1 0.016576 -0.001293 -0.001293 0.000000 0.000000 0.000000
# 2 -0.001293 0.016576 -0.001293 0.000000 0.000000 0.000000
# 3 -0.001293 -0.001293 0.016576 0.000000 0.000000 0.000000
# 4 0.000000 0.000000 0.000000 0.040065 0.000000 0.000000
# 5 0.000000 0.000000 0.000000 0.000000 0.040065 0.000000
# 6 0.000000 0.000000 0.000000 0.000000 0.000000 0.040065
#
#
# Mechanical properties :
#
#
# Convention : Reuss Voigt Hill
#
# Bulk Modulus (GPa) = 23.82690 23.82690 23.82690
# Shear Modulus (GPa) = 26.08653 26.16839 26.12746
#
# Velocity S-wave (km/s) = 3.63308 3.63878 3.63593
# Velocity P-wave (km/s) = 5.44564 5.45071 5.44818
#
# Compressibility (1/GPa) = 0.04196937
#
# Stress axis : x y z
#
# Youngs Moduli (GPa) = 60.32768 60.32923 60.32855
#
# Poissons Ratio (x) = 0.07801 0.07801
# Poissons Ratio (y) = 0.07800 0.07801
# Poissons Ratio (z) = 0.07801 0.07801
#
# Static dielectric constant tensor:
#      x y z
#    x 3.702080 0.000000 0.000000 
#    y 0.000000 3.702110 0.000000 
#    z 0.000000 0.000000 3.702110 
# 
# 
# High freq. dielectric constant tensor:
#      x y z
#    x 1.759910 0.000000 0.000000 
#    y 0.000000 1.759910 0.000000 
#    z 0.000000 0.000000 1.759910 
# 
# From -- ./inp_files/742.got.cif
#   From: 2010.03.12/outbox.cif.g09.slc.cpg/sg201_cif.got.tgz:742.got - 2010.03.30 09:02:05.
