data_PCOD8330010
_publ_section_title
;
Structure prediction by ZEFSAII (Michael W. Deem and Ramdas Pophale) SiO2 
 PCOD8330010
Probable space group: P 63/M C M
;
_chemical_formula_sum "Si O2"
_cell_formula_units_Z 120
_cell_length_a 18.598554
_cell_length_b 18.598554
_cell_length_c 23.529840
_cell_angle_alpha 90.000000
_cell_angle_beta 90.000000
_cell_angle_gamma 120.000000
_cell_volume 7048.682777
_symmetry_space_group_name_H-M "P 63/M C M"
_symmetry_group_IT_number 193
_symmetry_cell_setting 'hexagonal'
loop_
_space_group_symop_operation_xyz
x,y,z
x-y,x,1/2+z
-y,x-y,z
-x,-y,1/2+z
-x+y,-x,z
y,-x+y,1/2+z
x-y,-y,1/2-z
-x,-x+y,1/2-z
y,x,1/2-z
-y,-x,-z
-x+y,y,-z
x,x-y,-z
-x,-y,-z
-x+y,-x,1/2-z
y,-x+y,-z
x,y,1/2-z
x-y,x,-z
-y,x-y,1/2-z
-x+y,y,1/2+z
x,x-y,1/2+z
-y,-x,1/2+z
y,x,z
x-y,-y,z
-x,-x+y,z
loop_
_atom_site_type_symbol
_atom_site_label
_atom_site_fract_x
_atom_site_fract_y
_atom_site_fract_z
Si Si1 0.665038 0.174501 0.477169
Si Si2 0.312818 0.408673 0.857896
Si Si3 0.242097 0.906246 0.472809
Si Si4 0.477088 0.570528 0.873173
Si Si5 0.534701 0.147651 0.750000
Si Si6 0.721459 0.196622 0.750000
O O1 0.734425 0.265576 0.500000
O O2 0.575273 0.150545 0.500000
O O3 0.688311 0.106501 0.496435
O O4 0.651503 0.162138 0.408577
O O5 0.358994 0.358994 0.838659
O O6 0.244209 0.358626 0.906339
O O7 0.381150 0.498997 0.881232
O O8 0.265031 0.417753 0.804506
O O9 0.152114 0.847887 0.500000
O O10 0.262768 0.000000 0.481515
O O11 0.537645 0.537645 0.896151
O O12 0.499215 0.592355 0.806886
O O13 0.633584 0.192180 0.750000
O O14 0.504435 0.212839 0.750000
#
# Coordination Sequence:
#
# PCOD8330010 Si02
#       6
#    24  24  24  24  12  12
#     4  11  22  33  50  74 107 142 179 220 262 306
#     4   9  18  34  54  72  94 130 176 218 259 309
#     4  10  21  35  55  79 106 135 172 215 264 317
#     4  10  20  35  51  69  96 134 181 226 264 310
#     4  10  22  31  51  69  96 131 172 218 273 317
#     4  10  20  33  47  71  98 131 169 220 263 313
#
# _framework density 17.024457000000002
#
# number of rings (size 3 to 8) (size 9 to 14) (size 15 to 20)
#    0.000    2.000    2.000    1.600    5.600    3.200 
#    0.000    0.000    0.000    0.200    0.000    0.000 
#    0.000    0.000    0.000    0.000    0.000    0.200 
#
# Total GULP energy -1487404.728118 kJ/mol
# GULP energy per Si atom -12395.039401 kJ/mol
# Density = 1.698571 g / cm^3
# Si number density = 17.024457 Si / 1000 Ang^3
#
#
#
# Elastic Constant Matrix: (Units=GPa)
#
#
# Indices 1 2 3 4 5 6 
#
# 1 81.3905 35.8386 47.5020 0.0000 0.0000 0.0000
# 2 35.8386 81.3905 47.5020 0.0000 0.0000 0.0000
# 3 47.5020 47.5020 105.5807 0.0000 0.0000 0.0000
# 4 0.0000 0.0000 0.0000 22.0860 0.0000 0.0000
# 5 0.0000 0.0000 0.0000 0.0000 22.0860 0.0000
# 6 0.0000 0.0000 0.0000 0.0000 0.0000 22.7759
#
#
#
# Elastic Compliance Matrix: (Units=1/GPa)
#
#
# Indices 1 2 3 4 5 6 
#
# 1 0.017689 -0.004264 -0.006040 0.000000 0.000000 0.000000
# 2 -0.004264 0.017689 -0.006040 0.000000 0.000000 0.000000
# 3 -0.006040 -0.006040 0.014907 0.000000 0.000000 0.000000
# 4 0.000000 0.000000 0.000000 0.045278 0.000000 0.000000
# 5 0.000000 0.000000 0.000000 0.000000 0.045278 0.000000
# 6 0.000000 0.000000 0.000000 0.000000 0.000000 0.043906
#
#
# Mechanical properties :
#
#
# Convention : Reuss Voigt Hill
#
# Bulk Modulus (GPa) = 56.82980 58.89408 57.86194
# Shear Modulus (GPa) = 22.39137 22.55750 22.47444
#
# Velocity S-wave (km/s) = 3.63057 3.64401 3.63730
# Velocity P-wave (km/s) = 7.14342 7.23699 7.19036
#
# Compressibility (1/GPa) = 0.01759640
#
# Stress axis : x y z
#
# Youngs Moduli (GPa) = 56.53166 56.53166 67.08445
#
# Poissons Ratio (x) = 0.24104 0.40521
# Poissons Ratio (y) = 0.24104 0.40521
# Poissons Ratio (z) = 0.34147 0.34147
#
# Static dielectric constant tensor:
#      x y z
#    x 2.937960 0.000000 0.000000 
#    y 0.000000 2.937960 0.000000 
#    z 0.000000 0.000000 3.435600 
# 
# 
# High freq. dielectric constant tensor:
#      x y z
#    x 1.629640 0.000000 0.000000 
#    y 0.000000 1.629640 0.000000 
#    z 0.000000 0.000000 1.674290 
# 
# From -- ./inp_files/7405.got.cif
#   From: 2010.03.12/outbox.cif.g09.slc.cpg/sg193_4_cif.got.tgz:7405.got - 2010.04.01 12:20:39.
