data_PCOD8330484
_publ_section_title
;
Structure prediction by ZEFSAII (Michael W. Deem and Ramdas Pophale) SiO2 
 PCOD8330484
Probable space group: P 63/M M C
;
_chemical_formula_sum "Si O2"
_cell_formula_units_Z 120
_cell_length_a 17.522579
_cell_length_b 17.522579
_cell_length_c 28.137287
_cell_angle_alpha 90.000000
_cell_angle_beta 90.000000
_cell_angle_gamma 120.000000
_cell_volume 7481.848423
_symmetry_space_group_name_H-M "P 63/M M C"
_symmetry_group_IT_number 194
_symmetry_cell_setting 'hexagonal'
loop_
_space_group_symop_operation_xyz
x,y,z
x-y,x,1/2+z
-y,x-y,z
-x,-y,1/2+z
-x+y,-x,z
y,-x+y,1/2+z
x-y,-y,-z
-x,-x+y,-z
y,x,-z
-y,-x,1/2-z
-x+y,y,1/2-z
x,x-y,1/2-z
-x,-y,-z
-x+y,-x,1/2-z
y,-x+y,-z
x,y,1/2-z
x-y,x,-z
-y,x-y,1/2-z
-x+y,y,z
x,x-y,z
-y,-x,z
y,x,1/2+z
x-y,-y,1/2+z
-x,-x+y,1/2+z
loop_
_atom_site_type_symbol
_atom_site_label
_atom_site_fract_x
_atom_site_fract_y
_atom_site_fract_z
Si Si1 0.416830 0.997684 0.944014
Si Si2 0.001679 0.177634 0.859990
Si Si3 0.082554 0.736560 0.197003
Si Si4 0.770041 0.056219 0.452122
Si Si5 0.509230 0.664700 0.377472
O O1 0.480441 0.960881 0.923844
O O2 0.454595 0.097127 0.924946
O O3 0.313881 0.939466 0.930205
O O4 0.423910 0.000000 0.000000
O O5 0.920075 0.079926 0.855333
O O6 0.991173 0.246937 0.827144
O O7 0.088728 0.177455 0.842468
O O8 0.010088 0.206911 0.914757
O O9 0.051383 0.698055 0.250000
O O10 0.172169 0.827832 0.199234
O O11 0.098027 0.667800 0.166605
O O12 0.844599 0.155402 0.463263
O O13 0.744100 0.000000 0.500000
O O14 0.514430 0.757215 0.386246
O O15 0.409291 0.590710 0.365907
#
# Coordination Sequence:
#
# PCOD8330484 Si02
#       5
#    24  24  24  24  24
#     4   9  18  31  47  69  96 127 160 195 233 277
#     4  10  19  31  46  67  94 126 164 204 246 291
#     4   9  18  32  48  66  92 125 158 197 245 292
#     4  10  19  30  48  72  97 127 161 197 240 291
#     4  10  19  32  51  74 100 128 160 198 242 294
#
# _framework density 16.038817999999999
#
# number of rings (size 3 to 8) (size 9 to 14) (size 15 to 20)
#    0.000    2.400    2.000    1.000    0.000    4.000 
#    0.000    0.000    0.000    6.000    0.000    0.000 
#    0.000    0.000    0.000    0.000    0.000   18.200 
#
# Total GULP energy -1487242.910726 kJ/mol
# GULP energy per Si atom -12393.690923 kJ/mol
# Density = 1.600231 g / cm^3
# Si number density = 16.038818 Si / 1000 Ang^3
#
#
#
# Elastic Constant Matrix: (Units=GPa)
#
#
# Indices 1 2 3 4 5 6 
#
# 1 101.9278 54.8087 37.4269 0.0000 0.0000 0.0000
# 2 54.8087 101.9278 37.4269 0.0000 0.0000 0.0000
# 3 37.4269 37.4269 92.3958 0.0000 0.0000 0.0000
# 4 0.0000 0.0000 0.0000 9.5004 0.0000 0.0000
# 5 0.0000 0.0000 0.0000 0.0000 9.5004 0.0000
# 6 0.0000 0.0000 0.0000 0.0000 0.0000 23.5596
#
#
#
# Elastic Compliance Matrix: (Units=1/GPa)
#
#
# Indices 1 2 3 4 5 6 
#
# 1 0.014567 -0.006656 -0.003204 0.000000 0.000000 0.000000
# 2 -0.006656 0.014567 -0.003204 0.000000 0.000000 0.000000
# 3 -0.003204 -0.003204 0.013419 0.000000 0.000000 0.000000
# 4 0.000000 0.000000 0.000000 0.105259 0.000000 0.000000
# 5 0.000000 0.000000 0.000000 0.000000 0.105259 0.000000
# 6 0.000000 0.000000 0.000000 0.000000 0.000000 0.042446
#
#
# Mechanical properties :
#
#
# Convention : Reuss Voigt Hill
#
# Bulk Modulus (GPa) = 60.89154 61.73069 61.31111
# Shear Modulus (GPa) = 15.28494 19.61801 17.45147
#
# Velocity S-wave (km/s) = 3.09041 3.50116 3.30218
# Velocity P-wave (km/s) = 7.12613 7.41054 7.26972
#
# Compressibility (1/GPa) = 0.01642264
#
# Stress axis : x y z
#
# Youngs Moduli (GPa) = 68.65017 68.65017 74.52162
#
# Poissons Ratio (x) = 0.45695 0.23879
# Poissons Ratio (y) = 0.45695 0.23879
# Poissons Ratio (z) = 0.21997 0.21997
#
# Static dielectric constant tensor:
#      x y z
#    x 3.231340 0.000000 0.000000 
#    y 0.000000 3.231340 0.000000 
#    z 0.000000 0.000000 3.115060 
# 
# 
# High freq. dielectric constant tensor:
#      x y z
#    x 1.609520 0.000000 0.000000 
#    y 0.000000 1.609520 0.000000 
#    z 0.000000 0.000000 1.611340 
# 
# From -- ./inp_files/11840.got.cif
#   From: 2010.03.12/outbox.cif.g09.slc.cpg/sg194_6_cif.got.tgz:11840.got - 2010.04.01 12:26:19.
