data_PCOD8330635
_publ_section_title
;
Structure prediction by ZEFSAII (Michael W. Deem and Ramdas Pophale) SiO2 
 PCOD8330635
Probable space group: P 63/M M C
;
_chemical_formula_sum "Si O2"
_cell_formula_units_Z 112
_cell_length_a 30.044386
_cell_length_b 30.044386
_cell_length_c 9.000382
_cell_angle_alpha 90.000000
_cell_angle_beta 90.000000
_cell_angle_gamma 120.000000
_cell_volume 7035.877025
_symmetry_space_group_name_H-M "P 63/M M C"
_symmetry_group_IT_number 194
_symmetry_cell_setting 'hexagonal'
loop_
_space_group_symop_operation_xyz
x,y,z
x-y,x,1/2+z
-y,x-y,z
-x,-y,1/2+z
-x+y,-x,z
y,-x+y,1/2+z
x-y,-y,-z
-x,-x+y,-z
y,x,-z
-y,-x,1/2-z
-x+y,y,1/2-z
x,x-y,1/2-z
-x,-y,-z
-x+y,-x,1/2-z
y,-x+y,-z
x,y,1/2-z
x-y,x,-z
-y,x-y,1/2-z
-x+y,y,z
x,x-y,z
-y,-x,z
y,x,1/2+z
x-y,-y,1/2+z
-x,-x+y,1/2+z
loop_
_atom_site_type_symbol
_atom_site_label
_atom_site_fract_x
_atom_site_fract_y
_atom_site_fract_z
Si Si1 0.391289 0.782578 0.926886
Si Si2 0.666667 0.333334 0.425781
Si Si3 0.204296 0.152537 0.425402
Si Si4 0.204726 0.512161 0.424828
Si Si5 0.305719 0.051562 0.424899
Si Si6 0.255024 0.847691 0.921745
O O1 0.393657 0.787314 0.750000
O O2 0.362139 0.724277 0.986347
O O3 0.448521 0.808651 0.992492
O O4 0.666667 0.333334 0.250000
O O5 0.159686 0.159686 0.500000
O O6 0.197892 0.152135 0.250000
O O7 0.198601 0.099301 0.482685
O O8 0.260072 0.198394 0.475677
O O9 0.199783 0.516629 0.250000
O O10 0.261618 0.523236 0.469817
O O11 0.162647 0.455654 0.478371
O O12 0.305032 0.044690 0.250000
O O13 0.359461 0.099212 0.477735
O O14 0.298883 0.000000 0.500000
O O15 0.271057 0.850374 0.750000
O O16 0.196231 0.803770 0.945135
#
# Coordination Sequence:
#
# PCOD8330635 Si02
#       6
#    12   4  24  24  24  24
#     4  11  19  31  47  65  88 120 159 191 219 261
#     4   9  18  27  43  65  85 114 154 191 217 249
#     4   9  17  29  45  66  92 120 150 186 225 267
#     4  10  20  31  43  64  92 120 150 187 229 266
#     4   9  17  29  46  68  92 118 149 183 223 268
#     4   9  17  30  47  65  88 121 155 184 216 262
#
# _framework density 15.918412999999999
#
# number of rings (size 3 to 8) (size 9 to 14) (size 15 to 20)
#    0.000    2.571    1.071    1.607    0.000    4.714 
#    0.000    0.000    0.000    4.071    0.000    0.750 
#    0.000    0.000    0.000    0.000    0.000    0.000 
#
# Total GULP energy -1388943.191570 kJ/mol
# GULP energy per Si atom -12401.278496 kJ/mol
# Density = 1.588218 g / cm^3
# Si number density = 15.918413 Si / 1000 Ang^3
#
#
#
# Elastic Constant Matrix: (Units=GPa)
#
#
# Indices 1 2 3 4 5 6 
#
# 1 114.2004 59.2987 40.2746 0.0000 0.0000 0.0000
# 2 59.2987 114.2002 40.2747 0.0000 0.0000 0.0000
# 3 40.2746 40.2747 51.0470 0.0000 0.0000 0.0000
# 4 0.0000 0.0000 0.0000 25.9156 0.0000 0.0000
# 5 0.0000 0.0000 0.0000 0.0000 25.9156 0.0000
# 6 0.0000 0.0000 0.0000 0.0000 0.0000 27.4509
#
#
#
# Elastic Compliance Matrix: (Units=1/GPa)
#
#
# Indices 1 2 3 4 5 6 
#
# 1 0.013655 -0.004560 -0.007176 0.000000 0.000000 0.000000
# 2 -0.004560 0.013655 -0.007176 0.000000 0.000000 0.000000
# 3 -0.007176 -0.007176 0.030913 0.000000 0.000000 0.000000
# 4 0.000000 0.000000 0.000000 0.038587 0.000000 0.000000
# 5 0.000000 0.000000 0.000000 0.000000 0.038587 0.000000
# 6 0.000000 0.000000 0.000000 0.000000 0.000000 0.036429
#
#
# Mechanical properties :
#
#
# Convention : Reuss Voigt Hill
#
# Bulk Modulus (GPa) = 49.01995 62.12706 55.57351
# Shear Modulus (GPa) = 23.10029 25.16305 24.13167
#
# Velocity S-wave (km/s) = 3.81355 3.98018 3.89776
# Velocity P-wave (km/s) = 7.08888 7.76116 7.43263
#
# Compressibility (1/GPa) = 0.02039986
#
# Stress axis : x y z
#
# Youngs Moduli (GPa) = 73.23441 73.23416 32.34894
#
# Poissons Ratio (x) = 0.33392 0.23213
# Poissons Ratio (y) = 0.33392 0.23213
# Poissons Ratio (z) = 0.52552 0.52552
#
# Static dielectric constant tensor:
#      x y z
#    x 2.972500 0.000000 0.000000 
#    y 0.000000 2.972500 0.000000 
#    z 0.000000 0.000000 2.915290 
# 
# 
# High freq. dielectric constant tensor:
#      x y z
#    x 1.596650 0.000000 0.000000 
#    y 0.000000 1.596650 0.000000 
#    z 0.000000 0.000000 1.610290 
# 
# From -- ./inp_files/1915.got.cif
#   From: 2010.03.12/outbox.cif.g09.slc.cpg/sg194_1_cif.got.tgz:1915.got - 2010.04.01 12:26:19.
