data_PCOD8330791
_publ_section_title
;
Structure prediction by ZEFSAII (Michael W. Deem and Ramdas Pophale) SiO2 
 PCOD8330791
Probable space group: P 63/M M C
;
_chemical_formula_sum "Si O2"
_cell_formula_units_Z 144
_cell_length_a 21.804066
_cell_length_b 21.804066
_cell_length_c 19.721922
_cell_angle_alpha 90.000000
_cell_angle_beta 90.000000
_cell_angle_gamma 120.000000
_cell_volume 8119.977848
_symmetry_space_group_name_H-M "P 63/M M C"
_symmetry_group_IT_number 194
_symmetry_cell_setting 'hexagonal'
loop_
_space_group_symop_operation_xyz
x,y,z
x-y,x,1/2+z
-y,x-y,z
-x,-y,1/2+z
-x+y,-x,z
y,-x+y,1/2+z
x-y,-y,-z
-x,-x+y,-z
y,x,-z
-y,-x,1/2-z
-x+y,y,1/2-z
x,x-y,1/2-z
-x,-y,-z
-x+y,-x,1/2-z
y,-x+y,-z
x,y,1/2-z
x-y,x,-z
-y,x-y,1/2-z
-x+y,y,z
x,x-y,z
-y,-x,z
y,x,1/2+z
x-y,-y,1/2+z
-x,-x+y,1/2+z
loop_
_atom_site_type_symbol
_atom_site_label
_atom_site_fract_x
_atom_site_fract_y
_atom_site_fract_z
Si Si1 0.804140 0.052834 0.558303
Si Si2 0.330869 0.524662 0.965479
Si Si3 0.332364 0.399910 0.455603
Si Si4 0.858767 0.999828 0.672160
Si Si5 0.438549 0.020511 0.674039
Si Si6 0.358550 0.496718 0.823116
O O1 0.874133 0.125868 0.545218
O O2 0.739712 0.067483 0.555820
O O3 0.806523 0.017506 0.629471
O O4 0.799053 0.000000 0.500000
O O5 0.272842 0.545683 0.988378
O O6 0.409292 0.590709 0.977690
O O7 0.315425 0.502430 0.886130
O O8 0.319085 0.457251 0.007408
O O9 0.387758 0.387758 0.500000
O O10 0.361160 0.430433 0.381259
O O11 0.836309 0.996998 0.750000
O O12 0.940260 0.059741 0.660568
O O13 0.850468 0.925234 0.649145
O O14 0.438790 0.048983 0.750000
O O15 0.511279 0.022558 0.658872
O O16 0.372301 0.941007 0.665901
O O17 0.319243 0.487514 0.750000
O O18 0.434070 0.565931 0.818774
#
# Coordination Sequence:
#
# PCOD8330791 Si02
#       6
#    24  24  24  24  24  24
#     4  10  21  35  51  73 103 140 177 215 262 311
#     4  11  22  35  53  77 109 144 180 220 266 319
#     4  11  21  34  54  79 103 138 177 222 266 315
#     4   9  17  31  53  79 105 134 170 212 257 308
#     4   9  17  31  53  80 105 129 166 215 263 310
#     4   8  15  29  50  76 105 135 169 210 250 298
#
# _framework density 17.734038000000002
#
# number of rings (size 3 to 8) (size 9 to 14) (size 15 to 20)
#    0.000    2.333    1.667    2.833    0.000    2.333 
#    0.000    0.000    0.000    5.167    0.000    0.000 
#    0.000    1.333    0.000    0.000    0.000    0.000 
#
# Total GULP energy -1785044.889882 kJ/mol
# GULP energy per Si atom -12396.145069 kJ/mol
# Density = 1.769367 g / cm^3
# Si number density = 17.734038 Si / 1000 Ang^3
#
#
#
# Elastic Constant Matrix: (Units=GPa)
#
#
# Indices 1 2 3 4 5 6 
#
# 1 68.1979 51.6135 55.4320 0.0000 0.0000 0.0000
# 2 51.6135 68.1979 55.4320 0.0000 0.0000 0.0000
# 3 55.4320 55.4320 111.1098 0.0000 0.0000 0.0000
# 4 0.0000 0.0000 0.0000 23.5139 0.0000 0.0000
# 5 0.0000 0.0000 0.0000 0.0000 23.5139 0.0000
# 6 0.0000 0.0000 0.0000 0.0000 0.0000 8.2922
#
#
#
# Elastic Compliance Matrix: (Units=1/GPa)
#
#
# Indices 1 2 3 4 5 6 
#
# 1 0.037901 -0.022397 -0.007735 0.000000 0.000000 0.000000
# 2 -0.022397 0.037901 -0.007735 0.000000 0.000000 0.000000
# 3 -0.007735 -0.007735 0.016718 0.000000 0.000000 0.000000
# 4 0.000000 0.000000 0.000000 0.042528 0.000000 0.000000
# 5 0.000000 0.000000 0.000000 0.000000 0.042528 0.000000
# 6 0.000000 0.000000 0.000000 0.000000 0.000000 0.120596
#
#
# Mechanical properties :
#
#
# Convention : Reuss Voigt Hill
#
# Bulk Modulus (GPa) = 59.57295 63.60670 61.58983
# Shear Modulus (GPa) = 13.17529 16.73254 14.95391
#
# Velocity S-wave (km/s) = 2.72865 3.07502 2.90700
# Velocity P-wave (km/s) = 6.60248 6.96797 6.78768
#
# Compressibility (1/GPa) = 0.01678614
#
# Stress axis : x y z
#
# Youngs Moduli (GPa) = 26.38481 26.38481 59.81743
#
# Poissons Ratio (x) = 0.59095 0.46266
# Poissons Ratio (y) = 0.59095 0.46266
# Poissons Ratio (z) = 0.20407 0.20407
#
# Static dielectric constant tensor:
#      x y z
#    x 3.103890 0.000000 0.000000 
#    y 0.000000 3.103890 0.000000 
#    z 0.000000 0.000000 3.562650 
# 
# 
# High freq. dielectric constant tensor:
#      x y z
#    x 1.670590 0.000000 0.000000 
#    y 0.000000 1.670590 0.000000 
#    z 0.000000 0.000000 1.695790 
# 
# From -- ./inp_files/8280.got.cif
#   From: 2010.03.12/outbox.cif.g09.slc.cpg/sg194_5_cif.got.tgz:8280.got - 2010.04.01 12:26:19.
