data_PCOD8330764
_publ_section_title
;
Structure prediction by ZEFSAII (Michael W. Deem and Ramdas Pophale) SiO2 
 PCOD8330764
Probable space group: P 63/M M C
;
_chemical_formula_sum "Si O2"
_cell_formula_units_Z 156
_cell_length_a 21.815292
_cell_length_b 21.815292
_cell_length_c 21.494082
_cell_angle_alpha 90.000000
_cell_angle_beta 90.000000
_cell_angle_gamma 120.000000
_cell_volume 8858.732625
_symmetry_space_group_name_H-M "P 63/M M C"
_symmetry_group_IT_number 194
_symmetry_cell_setting 'hexagonal'
loop_
_space_group_symop_operation_xyz
x,y,z
x-y,x,1/2+z
-y,x-y,z
-x,-y,1/2+z
-x+y,-x,z
y,-x+y,1/2+z
x-y,-y,-z
-x,-x+y,-z
y,x,-z
-y,-x,1/2-z
-x+y,y,1/2-z
x,x-y,1/2-z
-x,-y,-z
-x+y,-x,1/2-z
y,-x+y,-z
x,y,1/2-z
x-y,x,-z
-y,x-y,1/2-z
-x+y,y,z
x,x-y,z
-y,-x,z
y,x,1/2+z
x-y,-y,1/2+z
-x,-x+y,1/2+z
loop_
_atom_site_type_symbol
_atom_site_label
_atom_site_fract_x
_atom_site_fract_y
_atom_site_fract_z
Si Si1 0.475565 0.665065 0.750000
Si Si2 0.332812 0.808115 0.964865
Si Si3 0.470568 0.666488 0.392480
Si Si4 0.093305 0.433067 0.861456
Si Si5 0.786501 0.709888 0.177318
Si Si6 0.642474 0.063292 0.676364
Si Si7 0.922631 0.711420 0.823186
O O1 0.392683 0.607318 0.750000
O O2 0.485566 0.742783 0.750000
O O3 0.511354 0.654055 0.810318
O O4 0.396430 0.792859 0.952504
O O5 0.260809 0.739192 0.941935
O O6 0.346284 0.878104 0.928362
O O7 0.327165 0.824246 0.036863
O O8 0.486216 0.743108 0.367680
O O9 0.386431 0.613570 0.389412
O O10 0.506530 0.632495 0.350249
O O11 0.097883 0.361842 0.858911
O O12 0.012157 0.414531 0.852930
O O13 0.766892 0.692564 0.250000
O O14 0.867671 0.735342 0.163024
O O15 0.774244 0.774080 0.155919
O O16 0.631352 0.057761 0.750000
O O17 0.721576 0.083721 0.656731
O O18 0.914552 0.713160 0.750000
O O19 0.860163 0.720326 0.855377
#
# Coordination Sequence:
#
# PCOD8330764 Si02
#       7
#    12  24  24  24  24  24  24
#     4  12  23  34  48  70 101 136 172 210 250 296
#     4  10  21  37  55  74  99 135 175 213 253 304
#     4  10  22  39  58  77  99 130 170 214 262 317
#     4  11  20  34  51  74 101 134 170 210 255 302
#     4   9  15  25  43  66  93 126 163 202 245 291
#     4  10  20  36  54  77 102 131 167 210 265 313
#     4   8  14  25  43  66  92 120 155 196 241 294
#
# _framework density 17.609741
#
# number of rings (size 3 to 8) (size 9 to 14) (size 15 to 20)
#    0.000    2.154    1.538    3.615    0.000    4.308 
#    0.000    3.077    0.000    1.231    0.000    2.154 
#    0.000    0.000    0.000    0.000    0.000    0.000 
#
# Total GULP energy -1934092.950555 kJ/mol
# GULP energy per Si atom -12398.031734 kJ/mol
# Density = 1.756966 g / cm^3
# Si number density = 17.609741 Si / 1000 Ang^3
#
#
#
# Elastic Constant Matrix: (Units=GPa)
#
#
# Indices 1 2 3 4 5 6 
#
# 1 102.2959 49.4072 30.0490 0.0000 0.0000 0.0000
# 2 49.4072 102.2959 30.0490 0.0000 0.0000 0.0000
# 3 30.0490 30.0490 38.3390 0.0000 0.0000 0.0000
# 4 0.0000 0.0000 0.0000 21.4803 0.0000 0.0000
# 5 0.0000 0.0000 0.0000 0.0000 21.4803 0.0000
# 6 0.0000 0.0000 0.0000 0.0000 0.0000 26.4444
#
#
#
# Elastic Compliance Matrix: (Units=1/GPa)
#
#
# Indices 1 2 3 4 5 6 
#
# 1 0.014234 -0.004674 -0.007493 0.000000 0.000000 0.000000
# 2 -0.004674 0.014234 -0.007493 0.000000 0.000000 0.000000
# 3 -0.007493 -0.007493 0.037829 0.000000 0.000000 0.000000
# 4 0.000000 0.000000 0.000000 0.046554 0.000000 0.000000
# 5 0.000000 0.000000 0.000000 0.000000 0.046554 0.000000
# 6 0.000000 0.000000 0.000000 0.000000 0.000000 0.037815
#
#
# Mechanical properties :
#
#
# Convention : Reuss Voigt Hill
#
# Bulk Modulus (GPa) = 37.06853 51.32680 44.19766
# Shear Modulus (GPa) = 20.36391 22.77602 21.56997
#
# Velocity S-wave (km/s) = 3.40428 3.60026 3.50364
# Velocity P-wave (km/s) = 6.04548 6.81854 6.44362
#
# Compressibility (1/GPa) = 0.02697706
#
# Stress axis : x y z
#
# Youngs Moduli (GPa) = 70.25468 70.25468 26.43495
#
# Poissons Ratio (x) = 0.32835 0.19808
# Poissons Ratio (y) = 0.32835 0.19808
# Poissons Ratio (z) = 0.52642 0.52642
#
# Static dielectric constant tensor:
#      x y z
#    x 3.336970 0.000000 0.000000 
#    y 0.000000 3.336970 0.000000 
#    z 0.000000 0.000000 3.000600 
# 
# 
# High freq. dielectric constant tensor:
#      x y z
#    x 1.682390 0.000000 0.000000 
#    y 0.000000 1.682390 0.000000 
#    z 0.000000 0.000000 1.647650 
# 
# From -- ./inp_files/8396.got.cif
#   From: 2010.03.12/outbox.cif.g09.slc.cpg/sg194_5_cif.got.tgz:8396.got - 2010.04.01 12:26:19.
