data_PCOD8330245
_publ_section_title
;
Structure prediction by ZEFSAII (Michael W. Deem and Ramdas Pophale) SiO2 
 PCOD8330245
Probable space group: P 63/M C M
;
_chemical_formula_sum "Si O2"
_cell_formula_units_Z 132
_cell_length_a 18.439845
_cell_length_b 18.439845
_cell_length_c 24.923891
_cell_angle_alpha 90.000000
_cell_angle_beta 90.000000
_cell_angle_gamma 120.000000
_cell_volume 7339.407601
_symmetry_space_group_name_H-M "P 63/M C M"
_symmetry_group_IT_number 193
_symmetry_cell_setting 'hexagonal'
loop_
_space_group_symop_operation_xyz
x,y,z
x-y,x,1/2+z
-y,x-y,z
-x,-y,1/2+z
-x+y,-x,z
y,-x+y,1/2+z
x-y,-y,1/2-z
-x,-x+y,1/2-z
y,x,1/2-z
-y,-x,-z
-x+y,y,-z
x,x-y,-z
-x,-y,-z
-x+y,-x,1/2-z
y,-x+y,-z
x,y,1/2-z
x-y,x,-z
-y,x-y,1/2-z
-x+y,y,1/2+z
x,x-y,1/2+z
-y,-x,1/2+z
y,x,z
x-y,-y,z
-x,-x+y,z
loop_
_atom_site_type_symbol
_atom_site_label
_atom_site_fract_x
_atom_site_fract_y
_atom_site_fract_z
Si Si1 0.901788 0.559819 0.015431
Si Si2 0.904156 0.806357 0.596014
Si Si3 0.099843 0.456755 0.309409
Si Si4 0.805483 0.706307 0.309540
Si Si5 0.569909 0.099686 0.915089
Si Si6 0.155582 0.311163 0.000000
O O1 0.867190 0.512795 0.958463
O O2 0.000000 0.599756 0.014489
O O3 0.868359 0.493450 0.065139
O O4 0.878094 0.630808 0.024112
O O5 0.848510 0.848510 0.582566
O O6 0.865575 0.747205 0.648282
O O7 0.902039 0.747917 0.547542
O O8 0.000000 0.878836 0.604998
O O9 0.130643 0.497637 0.250000
O O10 0.132967 0.391709 0.321153
O O11 0.135854 0.527866 0.355957
O O12 0.000000 0.406262 0.310091
O O13 0.844085 0.717586 0.250000
O O14 0.754431 0.754431 0.315179
O O15 0.522584 0.000000 0.912022
#
# Coordination Sequence:
#
# PCOD8330245 Si02
#       6
#    24  24  24  24  24  12
#     4   9  17  29  45  65  88 116 151 189 231 283
#     4  11  22  34  47  63  88 125 173 228 279 321
#     4   8  12  20  39  68  96 116 135 166 215 276
#     4   8  15  28  46  68  92 117 149 194 246 297
#     4   8  14  26  45  67  90 112 136 171 214 267
#     4  12  22  32  47  66  90 124 164 206 257 314
#
# _framework density 17.985102999999999
#
# number of rings (size 3 to 8) (size 9 to 14) (size 15 to 20)
#    0.000    2.909    0.000    5.091    0.000    3.273 
#    0.000    0.909    0.000    5.091    0.000    2.545 
#    0.000    0.000    0.000    0.000    0.000    0.000 
#
# Total GULP energy -1635564.575723 kJ/mol
# GULP energy per Si atom -12390.640725 kJ/mol
# Density = 1.794417 g / cm^3
# Si number density = 17.985103 Si / 1000 Ang^3
#
#
#
# Elastic Constant Matrix: (Units=GPa)
#
#
# Indices 1 2 3 4 5 6 
#
# 1 58.8429 17.4611 40.7405 0.0000 0.0000 0.0000
# 2 17.4611 58.8429 40.7405 0.0000 0.0000 0.0000
# 3 40.7405 40.7405 131.1544 0.0000 0.0000 0.0000
# 4 0.0000 0.0000 0.0000 22.6463 0.0000 0.0000
# 5 0.0000 0.0000 0.0000 0.0000 22.6463 0.0000
# 6 0.0000 0.0000 0.0000 0.0000 0.0000 20.6909
#
#
#
# Elastic Compliance Matrix: (Units=1/GPa)
#
#
# Indices 1 2 3 4 5 6 
#
# 1 0.021888 -0.002277 -0.006092 0.000000 0.000000 0.000000
# 2 -0.002277 0.021888 -0.006092 0.000000 0.000000 0.000000
# 3 -0.006092 -0.006092 0.011409 0.000000 0.000000 0.000000
# 4 0.000000 0.000000 0.000000 0.044157 0.000000 0.000000
# 5 0.000000 0.000000 0.000000 0.000000 0.044157 0.000000
# 6 0.000000 0.000000 0.000000 0.000000 0.000000 0.048330
#
#
# Mechanical properties :
#
#
# Convention : Reuss Voigt Hill
#
# Bulk Modulus (GPa) = 38.07574 49.63606 43.85590
# Shear Modulus (GPa) = 21.78601 23.18992 22.48797
#
# Velocity S-wave (km/s) = 3.48420 3.59471 3.53989
# Velocity P-wave (km/s) = 6.11579 6.69982 6.41446
#
# Compressibility (1/GPa) = 0.02626344
#
# Stress axis : x y z
#
# Youngs Moduli (GPa) = 45.68765 45.68765 87.64983
#
# Poissons Ratio (x) = 0.10405 0.53392
# Poissons Ratio (y) = 0.10405 0.53392
# Poissons Ratio (z) = 0.27831 0.27831
#
# Static dielectric constant tensor:
#      x y z
#    x 3.232030 0.000000 0.000000 
#    y 0.000000 3.232030 0.000000 
#    z 0.000000 0.000000 3.752130 
# 
# 
# High freq. dielectric constant tensor:
#      x y z
#    x 1.657930 0.000000 0.000000 
#    y 0.000000 1.657930 0.000000 
#    z 0.000000 0.000000 1.707990 
# 
# From -- ./inp_files/7449.got.cif
#   From: 2010.03.12/outbox.cif.g09.slc.cpg/sg193_4_cif.got.tgz:7449.got - 2010.04.01 12:20:39.
