data_PCOD8330228
_publ_section_title
;
Structure prediction by ZEFSAII (Michael W. Deem and Ramdas Pophale) SiO2 
 PCOD8330228
Probable space group: P 63/M C M
;
_chemical_formula_sum "Si O2"
_cell_formula_units_Z 96
_cell_length_a 14.814411
_cell_length_b 14.814411
_cell_length_c 28.942175
_cell_angle_alpha 90.000000
_cell_angle_beta 90.000000
_cell_angle_gamma 120.000000
_cell_volume 5500.859788
_symmetry_space_group_name_H-M "P 63/M C M"
_symmetry_group_IT_number 193
_symmetry_cell_setting 'hexagonal'
loop_
_space_group_symop_operation_xyz
x,y,z
x-y,x,1/2+z
-y,x-y,z
-x,-y,1/2+z
-x+y,-x,z
y,-x+y,1/2+z
x-y,-y,1/2-z
-x,-x+y,1/2-z
y,x,1/2-z
-y,-x,-z
-x+y,y,-z
x,x-y,-z
-x,-y,-z
-x+y,-x,1/2-z
y,-x+y,-z
x,y,1/2-z
x-y,x,-z
-y,x-y,1/2-z
-x+y,y,1/2+z
x,x-y,1/2+z
-y,-x,1/2+z
y,x,z
x-y,-y,z
-x,-x+y,z
loop_
_atom_site_type_symbol
_atom_site_label
_atom_site_fract_x
_atom_site_fract_y
_atom_site_fract_z
Si Si1 0.741744 0.466288 0.448416
Si Si2 0.118657 0.772058 0.803254
Si Si3 0.412743 0.120930 0.631717
Si Si4 0.565513 0.444476 0.300513
O O1 0.615650 0.400172 0.441597
O O2 0.756784 0.513568 0.500000
O O3 0.806319 0.561538 0.413467
O O4 0.145295 0.805981 0.750000
O O5 0.195645 0.866262 0.836669
O O6 0.138239 0.677032 0.815235
O O7 0.000000 0.740513 0.813899
O O8 0.520775 0.165993 0.660811
O O9 0.362368 0.000000 0.617401
O O10 0.572629 0.399813 0.250000
O O11 0.483650 0.483650 0.295790
#
# Coordination Sequence:
#
# PCOD8330228 Si02
#       4
#    24  24  24  24
#     4   8  17  34  51  63  94 131 160 191 236 294
#     4   9  18  32  46  63  95 135 161 180 223 283
#     4  11  19  28  48  76  96 116 157 207 242 272
#     4   8  15  27  42  64  95 125 152 183 222 272
#
# _framework density 17.451816999999998
#
# number of rings (size 3 to 8) (size 9 to 14) (size 15 to 20)
#    0.500    2.500    0.000    3.750    0.000    1.500 
#    1.500    3.750    0.000    0.500    0.000    0.000 
#    0.000    1.000    0.000    0.000    0.000    0.000 
#
# Total GULP energy -1189313.936921 kJ/mol
# GULP energy per Si atom -12388.686843 kJ/mol
# Density = 1.741210 g / cm^3
# Si number density = 17.451817 Si / 1000 Ang^3
#
#
#
# Elastic Constant Matrix: (Units=GPa)
#
#
# Indices 1 2 3 4 5 6 
#
# 1 40.6302 7.9947 31.5948 0.0000 0.0000 0.0000
# 2 7.9947 40.6302 31.5948 0.0000 0.0000 0.0000
# 3 31.5948 31.5948 108.2444 0.0000 0.0000 0.0000
# 4 0.0000 0.0000 0.0000 19.8825 0.0000 0.0000
# 5 0.0000 0.0000 0.0000 0.0000 19.8825 0.0000
# 6 0.0000 0.0000 0.0000 0.0000 0.0000 16.3178
#
#
#
# Elastic Compliance Matrix: (Units=1/GPa)
#
#
# Indices 1 2 3 4 5 6 
#
# 1 0.031887 0.001246 -0.009671 0.000000 0.000000 0.000000
# 2 0.001246 0.031887 -0.009671 0.000000 0.000000 0.000000
# 3 -0.009671 -0.009671 0.014884 0.000000 0.000000 0.000000
# 4 0.000000 0.000000 0.000000 0.050295 0.000000 0.000000
# 5 0.000000 0.000000 0.000000 0.000000 0.050295 0.000000
# 6 0.000000 0.000000 0.000000 0.000000 0.000000 0.061283
#
#
# Mechanical properties :
#
#
# Convention : Reuss Voigt Hill
#
# Bulk Modulus (GPa) = 23.54795 36.87481 30.21138
# Shear Modulus (GPa) = 17.18918 19.10461 18.14689
#
# Velocity S-wave (km/s) = 3.14180 3.31222 3.22814
# Velocity P-wave (km/s) = 5.16562 5.98357 5.58958
#
# Compressibility (1/GPa) = 0.04246655
#
# Stress axis : x y z
#
# Youngs Moduli (GPa) = 31.36028 31.36028 67.18611
#
# Poissons Ratio (x) = -0.03908 0.64976
# Poissons Ratio (y) = -0.03908 0.64976
# Poissons Ratio (z) = 0.30329 0.30329
#
# Static dielectric constant tensor:
#      x y z
#    x 2.911880 0.000000 0.000000 
#    y 0.000000 2.911880 0.000000 
#    z 0.000000 0.000000 3.304950 
# 
# 
# High freq. dielectric constant tensor:
#      x y z
#    x 1.637500 0.000000 0.000000 
#    y 0.000000 1.637500 0.000000 
#    z 0.000000 0.000000 1.672210 
# 
# From -- ./inp_files/8095.got.cif
#   From: 2010.03.12/outbox.cif.g09.slc.cpg/sg193_5_cif.got.tgz:8095.got - 2010.04.01 12:20:39.
