data_PCOD8330338
_publ_section_title
;
Structure prediction by ZEFSAII (Michael W. Deem and Ramdas Pophale) SiO2 
 PCOD8330338
Probable space group: P 63/M M C
;
_chemical_formula_sum "Si O2"
_cell_formula_units_Z 108
_cell_length_a 31.819298
_cell_length_b 31.819298
_cell_length_c 9.081188
_cell_angle_alpha 90.000000
_cell_angle_beta 90.000000
_cell_angle_gamma 120.000000
_cell_volume 7962.592422
_symmetry_space_group_name_H-M "P 63/M M C"
_symmetry_group_IT_number 194
_symmetry_cell_setting 'hexagonal'
loop_
_space_group_symop_operation_xyz
x,y,z
x-y,x,1/2+z
-y,x-y,z
-x,-y,1/2+z
-x+y,-x,z
y,-x+y,1/2+z
x-y,-y,-z
-x,-x+y,-z
y,x,-z
-y,-x,1/2-z
-x+y,y,1/2-z
x,x-y,1/2-z
-x,-y,-z
-x+y,-x,1/2-z
y,-x+y,-z
x,y,1/2-z
x-y,x,-z
-y,x-y,1/2-z
-x+y,y,z
x,x-y,z
-y,-x,z
y,x,1/2+z
x-y,-y,1/2+z
-x,-x+y,1/2+z
loop_
_atom_site_type_symbol
_atom_site_label
_atom_site_fract_x
_atom_site_fract_y
_atom_site_fract_z
Si Si1 0.525047 0.474954 0.580536
Si Si2 0.051561 0.435134 0.422760
Si Si3 0.889651 0.614811 0.578461
Si Si4 0.386632 0.193316 0.085379
Si Si5 0.948297 0.727874 0.576343
Si Si6 0.864323 0.135678 0.417521
O O1 0.500000 0.500000 0.500000
O O2 0.518296 0.481705 0.750000
O O3 0.582778 0.506353 0.542627
O O4 0.042728 0.424215 0.250000
O O5 0.087158 0.416792 0.481644
O O6 0.000000 0.404783 0.500000
O O7 0.877715 0.606928 0.750000
O O8 0.838576 0.594236 0.496053
O O9 0.926454 0.671059 0.543092
O O10 0.407400 0.203700 0.250000
O O11 0.328974 0.164487 0.083163
O O12 0.952869 0.738523 0.750000
O O13 0.914604 0.747100 0.504677
O O14 0.000000 0.756502 0.500000
O O15 0.874412 0.125589 0.250000
#
# Coordination Sequence:
#
# PCOD8330338 Si02
#       6
#    12  24  24  12  24  12
#     4   8  14  24  36  50  70  94 121 150 181 214
#     4   9  16  25  37  53  72  96 124 154 184 215
#     4   9  17  27  38  52  72  97 124 153 186 221
#     4   9  17  27  39  53  69  91 120 153 188 221
#     4  10  18  27  39  55  74  97 125 156 187 220
#     4   9  17  29  41  53  71  95 122 153 188 223
#
# _framework density 13.563421
#
# number of rings (size 3 to 8) (size 9 to 14) (size 15 to 20)
#    0.000    2.889    0.000    2.000    0.000    4.444 
#    0.000    0.000    0.000    0.000    0.000    0.000 
#    0.000    0.000    0.000    1.000    0.000   19.556 
#
# Total GULP energy -1338323.443320 kJ/mol
# GULP energy per Si atom -12391.883734 kJ/mol
# Density = 1.353255 g / cm^3
# Si number density = 13.563421 Si / 1000 Ang^3
#
#
#
# Elastic Constant Matrix: (Units=GPa)
#
#
# Indices 1 2 3 4 5 6 
#
# 1 93.0598 54.5976 42.1717 0.0000 0.0000 0.0000
# 2 54.5976 93.0598 42.1717 0.0000 0.0000 0.0000
# 3 42.1717 42.1717 63.7806 0.0000 0.0000 0.0000
# 4 0.0000 0.0000 0.0000 16.9525 0.0000 0.0000
# 5 0.0000 0.0000 0.0000 0.0000 16.9525 0.0000
# 6 0.0000 0.0000 0.0000 0.0000 0.0000 19.2311
#
#
#
# Elastic Compliance Matrix: (Units=1/GPa)
#
#
# Indices 1 2 3 4 5 6 
#
# 1 0.018441 -0.007558 -0.007196 0.000000 0.000000 0.000000
# 2 -0.007558 0.018441 -0.007196 0.000000 0.000000 0.000000
# 3 -0.007196 -0.007196 0.025194 0.000000 0.000000 0.000000
# 4 0.000000 0.000000 0.000000 0.058988 0.000000 0.000000
# 5 0.000000 0.000000 0.000000 0.000000 0.058988 0.000000
# 6 0.000000 0.000000 0.000000 0.000000 0.000000 0.051999
#
#
# Mechanical properties :
#
#
# Convention : Reuss Voigt Hill
#
# Bulk Modulus (GPa) = 55.01428 58.64245 56.82837
# Shear Modulus (GPa) = 17.72986 18.02452 17.87719
#
# Velocity S-wave (km/s) = 3.61942 3.64937 3.63443
# Velocity P-wave (km/s) = 7.62337 7.81581 7.72019
#
# Compressibility (1/GPa) = 0.01817710
#
# Stress axis : x y z
#
# Youngs Moduli (GPa) = 54.22678 54.22678 39.69173
#
# Poissons Ratio (x) = 0.40987 0.28560
# Poissons Ratio (y) = 0.40987 0.28560
# Poissons Ratio (z) = 0.39019 0.39019
#
# Static dielectric constant tensor:
#      x y z
#    x 2.735830 0.000000 0.000000 
#    y 0.000000 2.735830 0.000000 
#    z 0.000000 0.000000 2.908150 
# 
# 
# High freq. dielectric constant tensor:
#      x y z
#    x 1.492240 0.000000 0.000000 
#    y 0.000000 1.492240 0.000000 
#    z 0.000000 0.000000 1.529070 
# 
# From -- ./inp_files/1930.got.cif
#   From: 2010.03.12/outbox.cif.g09.slc.cpg/sg194_1_cif.got.tgz:1930.got - 2010.04.01 12:26:19.
