data_PCOD8330283
_publ_section_title
;
Structure prediction by ZEFSAII (Michael W. Deem and Ramdas Pophale) SiO2 
 PCOD8330283
Probable space group: P 63/M C M
;
_chemical_formula_sum "Si O2"
_cell_formula_units_Z 104
_cell_length_a 22.417752
_cell_length_b 22.417752
_cell_length_c 14.423874
_cell_angle_alpha 90.000000
_cell_angle_beta 90.000000
_cell_angle_gamma 120.000000
_cell_volume 6277.643839
_symmetry_space_group_name_H-M "P 63/M C M"
_symmetry_group_IT_number 193
_symmetry_cell_setting 'hexagonal'
loop_
_space_group_symop_operation_xyz
x,y,z
x-y,x,1/2+z
-y,x-y,z
-x,-y,1/2+z
-x+y,-x,z
y,-x+y,1/2+z
x-y,-y,1/2-z
-x,-x+y,1/2-z
y,x,1/2-z
-y,-x,-z
-x+y,y,-z
x,x-y,-z
-x,-y,-z
-x+y,-x,1/2-z
y,-x+y,-z
x,y,1/2-z
x-y,x,-z
-y,x-y,1/2-z
-x+y,y,1/2+z
x,x-y,1/2+z
-y,-x,1/2+z
y,x,z
x-y,-y,z
-x,-x+y,z
loop_
_atom_site_type_symbol
_atom_site_label
_atom_site_fract_x
_atom_site_fract_y
_atom_site_fract_z
Si Si1 0.726639 0.077850 0.008180
Si Si2 0.816304 0.193557 0.360159
Si Si3 0.784834 0.476150 0.644072
Si Si4 0.333333 0.666667 0.861495
Si Si5 0.479116 0.075646 0.059386
O O1 0.768850 0.117011 0.100409
O O2 0.711427 0.000000 0.014427
O O3 0.770168 0.110472 0.913550
O O4 0.656431 0.080950 0.007648
O O5 0.828282 0.192555 0.250000
O O6 0.779068 0.237167 0.388741
O O7 0.765893 0.464762 0.750000
O O8 0.727383 0.405600 0.595881
O O9 0.862632 0.490683 0.632953
O O10 0.333334 0.666668 0.750000
O O11 0.440827 0.000000 0.108945
O O12 0.542194 0.084388 0.000000
#
# Coordination Sequence:
#
# PCOD8330283 Si02
#       5
#    24  24  24   8  24
#     4   9  18  32  49  69  96 125 157 199 241 283
#     4   9  18  32  50  70  95 126 160 198 238 286
#     4   9  18  31  46  62  84 114 149 191 236 289
#     4   9  18  30  43  62  85 111 142 188 244 295
#     4   9  18  31  45  61  84 112 145 191 241 291
#
# _framework density 16.566725000000002
#
# number of rings (size 3 to 8) (size 9 to 14) (size 15 to 20)
#    0.000    3.000    0.000    0.000    3.231    1.385 
#    0.000    4.615    0.000    4.154    0.000    0.000 
#    0.000    0.000    0.000   22.154    0.000   48.000 
#
# Total GULP energy -1288649.869460 kJ/mol
# GULP energy per Si atom -12390.864129 kJ/mol
# Density = 1.652902 g / cm^3
# Si number density = 16.566725 Si / 1000 Ang^3
#
#
#
# Elastic Constant Matrix: (Units=GPa)
#
#
# Indices 1 2 3 4 5 6 
#
# 1 98.9462 63.9528 32.1877 0.0000 0.0000 0.0000
# 2 63.9528 98.9460 32.1877 0.0000 0.0000 0.0000
# 3 32.1877 32.1877 69.2146 0.0000 0.0000 0.0000
# 4 0.0000 0.0000 0.0000 16.9849 0.0000 0.0000
# 5 0.0000 0.0000 0.0000 0.0000 16.9849 0.0000
# 6 0.0000 0.0000 0.0000 0.0000 0.0000 17.4966
#
#
#
# Elastic Compliance Matrix: (Units=1/GPa)
#
#
# Indices 1 2 3 4 5 6 
#
# 1 0.018049 -0.010528 -0.003498 0.000000 0.000000 0.000000
# 2 -0.010528 0.018049 -0.003498 0.000000 0.000000 0.000000
# 3 -0.003498 -0.003498 0.017701 0.000000 0.000000 0.000000
# 4 0.000000 0.000000 0.000000 0.058876 0.000000 0.000000
# 5 0.000000 0.000000 0.000000 0.000000 0.058876 0.000000
# 6 0.000000 0.000000 0.000000 0.000000 0.000000 0.057154
#
#
# Mechanical properties :
#
#
# Convention : Reuss Voigt Hill
#
# Bulk Modulus (GPa) = 53.32616 58.19591 55.76103
# Shear Modulus (GPa) = 18.51842 19.54518 19.03180
#
# Velocity S-wave (km/s) = 3.34699 3.43853 3.39307
# Velocity P-wave (km/s) = 6.86987 7.13926 7.00586
#
# Compressibility (1/GPa) = 0.01875252
#
# Stress axis : x y z
#
# Youngs Moduli (GPa) = 55.40499 55.40494 56.49444
#
# Poissons Ratio (x) = 0.58330 0.19759
# Poissons Ratio (y) = 0.58330 0.19759
# Poissons Ratio (z) = 0.19378 0.19378
#
# Static dielectric constant tensor:
#      x y z
#    x 3.213180 0.000000 0.000000 
#    y 0.000000 3.213180 0.000000 
#    z 0.000000 0.000000 2.930110 
# 
# 
# High freq. dielectric constant tensor:
#      x y z
#    x 1.627350 0.000000 0.000000 
#    y 0.000000 1.627350 0.000000 
#    z 0.000000 0.000000 1.620940 
# 
# From -- ./inp_files/3708.got.cif
#   From: 2010.03.12/outbox.cif.g09.slc.cpg/sg193_2_cif.got.tgz:3708.got - 2010.04.01 12:20:39.
