data_PCOD8330572
_publ_section_title
;
Structure prediction by ZEFSAII (Michael W. Deem and Ramdas Pophale) SiO2 
 PCOD8330572
Probable space group: P 63/M M C
;
_chemical_formula_sum "Si O2"
_cell_formula_units_Z 90
_cell_length_a 19.099206
_cell_length_b 19.099206
_cell_length_c 16.707503
_cell_angle_alpha 90.000000
_cell_angle_beta 90.000000
_cell_angle_gamma 120.000000
_cell_volume 5278.041557
_symmetry_space_group_name_H-M "P 63/M M C"
_symmetry_group_IT_number 194
_symmetry_cell_setting 'hexagonal'
loop_
_space_group_symop_operation_xyz
x,y,z
x-y,x,1/2+z
-y,x-y,z
-x,-y,1/2+z
-x+y,-x,z
y,-x+y,1/2+z
x-y,-y,-z
-x,-x+y,-z
y,x,-z
-y,-x,1/2-z
-x+y,y,1/2-z
x,x-y,1/2-z
-x,-y,-z
-x+y,-x,1/2-z
y,-x+y,-z
x,y,1/2-z
x-y,x,-z
-y,x-y,1/2-z
-x+y,y,z
x,x-y,z
-y,-x,z
y,x,1/2+z
x-y,-y,1/2+z
-x,-x+y,1/2+z
loop_
_atom_site_type_symbol
_atom_site_label
_atom_site_fract_x
_atom_site_fract_y
_atom_site_fract_z
Si Si1 0.492369 0.667520 0.010257
Si Si2 0.052243 0.104486 0.750000
Si Si3 0.130753 0.869248 0.661355
Si Si4 0.385608 0.455041 0.339895
Si Si5 0.352225 0.298503 0.422671
O O1 0.459295 0.729648 0.010352
O O2 0.420441 0.579560 0.984863
O O3 0.524130 0.666422 0.099338
O O4 0.564172 0.696879 0.946339
O O5 0.081565 0.163129 0.671483
O O6 0.091950 0.045975 0.750000
O O7 0.150979 0.849022 0.750000
O O8 0.075875 0.787197 0.613879
O O9 0.356056 0.457231 0.250000
O O10 0.480557 0.519444 0.350554
O O11 0.372596 0.366995 0.356987
O O12 0.310797 0.310797 0.500000
#
# Coordination Sequence:
#
# PCOD8330572 Si02
#       5
#    24   6  12  24  24
#     4  10  19  32  51  76 110 149 186 224 272 328
#     4   8  20  44  62  80 110 138 176 216 280 364
#     4  10  20  36  61  84 106 145 180 226 280 336
#     4   9  18  32  51  74 104 141 181 226 280 329
#     4  10  19  34  53  80 110 136 181 233 274 327
#
# _framework density 17.051780000000001
#
# number of rings (size 3 to 8) (size 9 to 14) (size 15 to 20)
#    0.533    1.867    1.333    1.867    0.000    3.733 
#    2.400    0.000    0.000    2.400    0.000    0.000 
#    0.000    0.000    0.000    0.000    0.000    0.000 
#
# Total GULP energy -1115737.039262 kJ/mol
# GULP energy per Si atom -12397.078214 kJ/mol
# Density = 1.701297 g / cm^3
# Si number density = 17.051780 Si / 1000 Ang^3
#
#
#
# Elastic Constant Matrix: (Units=GPa)
#
#
# Indices 1 2 3 4 5 6 
#
# 1 104.8781 43.1195 29.2622 0.0000 0.0000 0.0000
# 2 43.1195 104.8781 29.2622 0.0000 0.0000 0.0000
# 3 29.2622 29.2622 64.0892 0.0000 0.0000 0.0000
# 4 0.0000 0.0000 0.0000 23.5228 0.0000 0.0000
# 5 0.0000 0.0000 0.0000 0.0000 23.5228 0.0000
# 6 0.0000 0.0000 0.0000 0.0000 0.0000 30.8793
#
#
#
# Elastic Compliance Matrix: (Units=1/GPa)
#
#
# Indices 1 2 3 4 5 6 
#
# 1 0.012219 -0.003973 -0.003765 0.000000 0.000000 0.000000
# 2 -0.003973 0.012219 -0.003765 0.000000 0.000000 0.000000
# 3 -0.003765 -0.003765 0.019041 0.000000 0.000000 0.000000
# 4 0.000000 0.000000 0.000000 0.042512 0.000000 0.000000
# 5 0.000000 0.000000 0.000000 0.000000 0.042512 0.000000
# 6 0.000000 0.000000 0.000000 0.000000 0.000000 0.032384
#
#
# Mechanical properties :
#
#
# Convention : Reuss Voigt Hill
#
# Bulk Modulus (GPa) = 48.84452 53.01478 50.92965
# Shear Modulus (GPa) = 26.21683 27.06507 26.64095
#
# Velocity S-wave (km/s) = 3.92533 3.98833 3.95695
# Velocity P-wave (km/s) = 7.01793 7.23650 7.12805
#
# Compressibility (1/GPa) = 0.02047312
#
# Stress axis : x y z
#
# Youngs Moduli (GPa) = 81.84067 81.84067 52.51767
#
# Poissons Ratio (x) = 0.32517 0.19772
# Poissons Ratio (y) = 0.32517 0.19772
# Poissons Ratio (z) = 0.30812 0.30812
#
# Static dielectric constant tensor:
#      x y z
#    x 3.074620 0.000000 0.000000 
#    y 0.000000 3.074620 0.000000 
#    z 0.000000 0.000000 3.159790 
# 
# 
# High freq. dielectric constant tensor:
#      x y z
#    x 1.653680 0.000000 0.000000 
#    y 0.000000 1.653680 0.000000 
#    z 0.000000 0.000000 1.653510 
# 
# From -- ./inp_files/6385.got.cif
#   From: 2010.03.12/outbox.cif.g09.slc.cpg/sg194_4_cif.got.tgz:6385.got - 2010.04.01 12:26:19.
