data_PCOD8330839
_publ_section_title
;
Structure prediction by ZEFSAII (Michael W. Deem and Ramdas Pophale) SiO2 
 PCOD8330839
Probable space group: P 63/M M C
;
_chemical_formula_sum "Si O2"
_cell_formula_units_Z 132
_cell_length_a 17.895375
_cell_length_b 17.895375
_cell_length_c 24.801842
_cell_angle_alpha 90.000000
_cell_angle_beta 90.000000
_cell_angle_gamma 120.000000
_cell_volume 6878.538545
_symmetry_space_group_name_H-M "P 63/M M C"
_symmetry_group_IT_number 194
_symmetry_cell_setting 'hexagonal'
loop_
_space_group_symop_operation_xyz
x,y,z
x-y,x,1/2+z
-y,x-y,z
-x,-y,1/2+z
-x+y,-x,z
y,-x+y,1/2+z
x-y,-y,-z
-x,-x+y,-z
y,x,-z
-y,-x,1/2-z
-x+y,y,1/2-z
x,x-y,1/2-z
-x,-y,-z
-x+y,-x,1/2-z
y,-x+y,-z
x,y,1/2-z
x-y,x,-z
-y,x-y,1/2-z
-x+y,y,z
x,x-y,z
-y,-x,z
y,x,1/2+z
x-y,-y,1/2+z
-x,-x+y,1/2+z
loop_
_atom_site_type_symbol
_atom_site_label
_atom_site_fract_x
_atom_site_fract_y
_atom_site_fract_z
Si Si1 0.831151 0.333058 0.169197
Si Si2 0.242439 0.310712 0.809574
Si Si3 0.687733 0.715602 0.415041
Si Si4 0.499984 0.831729 0.435056
Si Si5 0.363727 0.472575 0.553431
Si Si6 0.826792 0.826792 0.000000
O O1 0.852777 0.426389 0.190436
O O2 0.737719 0.262281 0.191020
O O3 0.903891 0.315126 0.192625
O O4 0.827927 0.327149 0.104294
O O5 0.238593 0.270919 0.750000
O O6 0.150307 0.300613 0.825061
O O7 0.269580 0.266105 0.855565
O O8 0.594229 0.706574 0.408133
O O9 0.668930 0.627899 0.443903
O O10 0.757417 0.793477 0.451403
O O11 0.428836 0.857672 0.415725
O O12 0.465441 0.732721 0.418591
O O13 0.510068 0.836870 0.499498
O O14 0.469127 0.530874 0.553479
O O15 0.838756 0.919378 0.981496
#
# Coordination Sequence:
#
# PCOD8330839 Si02
#       6
#    24  24  24  24  24  12
#     4   9  16  25  40  63  97 140 184 225 271 327
#     4   9  19  35  53  76 105 136 175 228 282 325
#     4  11  20  34  59  83 109 143 187 225 273 330
#     4  11  21  33  50  77 115 155 193 234 279 327
#     4   9  17  29  46  73 108 144 184 232 278 320
#     4  12  25  40  59  86 118 146 172 210 271 344
#
# _framework density 19.190121999999999
#
# number of rings (size 3 to 8) (size 9 to 14) (size 15 to 20)
#    0.000    2.000    1.818    2.636    0.000    4.000 
#    0.000    1.818    0.000    3.273    0.000    0.000 
#    0.000    2.909    0.000    0.000    0.000    0.000 
#
# Total GULP energy -1635822.693493 kJ/mol
# GULP energy per Si atom -12392.596163 kJ/mol
# Density = 1.914644 g / cm^3
# Si number density = 19.190122 Si / 1000 Ang^3
#
#
#
# Elastic Constant Matrix: (Units=GPa)
#
#
# Indices 1 2 3 4 5 6 
#
# 1 79.0530 32.3942 23.4375 0.0000 0.0000 0.0000
# 2 32.3942 79.0530 23.4375 0.0000 0.0000 0.0000
# 3 23.4375 23.4375 97.6892 0.0000 0.0000 0.0000
# 4 0.0000 0.0000 0.0000 11.8859 0.0000 0.0000
# 5 0.0000 0.0000 0.0000 0.0000 11.8859 0.0000
# 6 0.0000 0.0000 0.0000 0.0000 0.0000 23.3294
#
#
#
# Elastic Compliance Matrix: (Units=1/GPa)
#
#
# Indices 1 2 3 4 5 6 
#
# 1 0.015706 -0.005726 -0.002394 0.000000 0.000000 0.000000
# 2 -0.005726 0.015706 -0.002394 0.000000 0.000000 0.000000
# 3 -0.002394 -0.002394 0.011385 0.000000 0.000000 0.000000
# 4 0.000000 0.000000 0.000000 0.084134 0.000000 0.000000
# 5 0.000000 0.000000 0.000000 0.000000 0.084134 0.000000
# 6 0.000000 0.000000 0.000000 0.000000 0.000000 0.042864
#
#
# Mechanical properties :
#
#
# Convention : Reuss Voigt Hill
#
# Bulk Modulus (GPa) = 45.93935 46.03707 45.98821
# Shear Modulus (GPa) = 17.71700 21.18862 19.45281
#
# Velocity S-wave (km/s) = 3.04178 3.32647 3.18730
# Velocity P-wave (km/s) = 6.02724 6.22864 6.12876
#
# Compressibility (1/GPa) = 0.02176783
#
# Stress axis : x y z
#
# Youngs Moduli (GPa) = 63.66963 63.66963 87.83136
#
# Poissons Ratio (x) = 0.36458 0.21030
# Poissons Ratio (y) = 0.36458 0.21030
# Poissons Ratio (z) = 0.15245 0.15245
#
# Static dielectric constant tensor:
#      x y z
#    x 3.408410 0.000000 0.000000 
#    y 0.000000 3.408410 0.000000 
#    z 0.000000 0.000000 3.465240 
# 
# 
# High freq. dielectric constant tensor:
#      x y z
#    x 1.731720 0.000000 0.000000 
#    y 0.000000 1.731720 0.000000 
#    z 0.000000 0.000000 1.724470 
# 
# From -- ./inp_files/10786.got.cif
#   From: 2010.03.12/outbox.cif.g09.slc.cpg/sg194_6_cif.got.tgz:10786.got - 2010.04.01 12:26:19.
