data_PCOD8330494
_publ_section_title
;
Structure prediction by ZEFSAII (Michael W. Deem and Ramdas Pophale) SiO2 
 PCOD8330494
Probable space group: P 63/M M C
;
_chemical_formula_sum "Si O2"
_cell_formula_units_Z 96
_cell_length_a 27.433367
_cell_length_b 27.433367
_cell_length_c 9.126906
_cell_angle_alpha 90.000000
_cell_angle_beta 90.000000
_cell_angle_gamma 120.000000
_cell_volume 5948.568079
_symmetry_space_group_name_H-M "P 63/M M C"
_symmetry_group_IT_number 194
_symmetry_cell_setting 'hexagonal'
loop_
_space_group_symop_operation_xyz
x,y,z
x-y,x,1/2+z
-y,x-y,z
-x,-y,1/2+z
-x+y,-x,z
y,-x+y,1/2+z
x-y,-y,-z
-x,-x+y,-z
y,x,-z
-y,-x,1/2-z
-x+y,y,1/2-z
x,x-y,1/2-z
-x,-y,-z
-x+y,-x,1/2-z
y,-x+y,-z
x,y,1/2-z
x-y,x,-z
-y,x-y,1/2-z
-x+y,y,z
x,x-y,z
-y,-x,z
y,x,1/2+z
x-y,-y,1/2+z
-x,-x+y,1/2+z
loop_
_atom_site_type_symbol
_atom_site_label
_atom_site_fract_x
_atom_site_fract_y
_atom_site_fract_z
Si Si1 0.558680 0.333509 0.423937
Si Si2 0.943985 0.166431 0.921855
Si Si3 0.273568 0.840753 0.919257
Si Si4 0.943442 0.278191 0.922218
O O1 0.562204 0.332744 0.250000
O O2 0.570377 0.285189 0.487100
O O3 0.605735 0.394266 0.487018
O O4 0.496180 0.319771 0.467877
O O5 0.952709 0.165013 0.750000
O O6 0.891580 0.108421 0.978449
O O7 0.932077 0.216376 0.964722
O O8 0.000000 0.174750 0.000000
O O9 0.281382 0.859746 0.750000
O O10 0.211384 0.788617 0.945014
O O11 0.284070 0.891681 0.022380
O O12 0.950311 0.288773 0.750000
O O13 0.000000 0.325260 0.000000
#
# Coordination Sequence:
#
# PCOD8330494 Si02
#       4
#    24  24  24  24
#     4   8  13  22  39  64  92 120 149 182 220 261
#     4   9  18  31  46  66  90 114 142 175 211 253
#     4   9  17  28  43  66  94 120 147 181 220 262
#     4  10  19  31  47  66  89 117 148 183 224 268
#
# _framework density 16.138337
#
# number of rings (size 3 to 8) (size 9 to 14) (size 15 to 20)
#    0.000    3.000    0.000    3.250    0.000    4.000 
#    0.000    0.000    0.000    1.750    0.000    0.000 
#    0.000    2.000    0.000    0.000    0.000    0.000 
#
# Total GULP energy -1190175.435893 kJ/mol
# GULP energy per Si atom -12397.660791 kJ/mol
# Density = 1.610161 g / cm^3
# Si number density = 16.138337 Si / 1000 Ang^3
#
#
#
# Elastic Constant Matrix: (Units=GPa)
#
#
# Indices 1 2 3 4 5 6 
#
# 1 119.5026 65.6427 39.7838 0.0000 0.0000 0.0000
# 2 65.6427 119.5026 39.7838 0.0000 0.0000 0.0000
# 3 39.7838 39.7838 45.9392 0.0000 0.0000 0.0000
# 4 0.0000 0.0000 0.0000 19.5389 0.0000 0.0000
# 5 0.0000 0.0000 0.0000 0.0000 19.5389 0.0000
# 6 0.0000 0.0000 0.0000 0.0000 0.0000 26.9300
#
#
#
# Elastic Compliance Matrix: (Units=1/GPa)
#
#
# Indices 1 2 3 4 5 6 
#
# 1 0.013585 -0.004982 -0.007450 0.000000 0.000000 0.000000
# 2 -0.004982 0.013585 -0.007450 0.000000 0.000000 0.000000
# 3 -0.007450 -0.007450 0.034672 0.000000 0.000000 0.000000
# 4 0.000000 0.000000 0.000000 0.051180 0.000000 0.000000
# 5 0.000000 0.000000 0.000000 0.000000 0.051180 0.000000
# 6 0.000000 0.000000 0.000000 0.000000 0.000000 0.037133
#
#
# Mechanical properties :
#
#
# Convention : Reuss Voigt Hill
#
# Bulk Modulus (GPa) = 45.29642 63.92947 54.61295
# Shear Modulus (GPa) = 20.12408 22.51715 21.32061
#
# Velocity S-wave (km/s) = 3.53508 3.73937 3.63866
# Velocity P-wave (km/s) = 6.69260 7.63828 7.18102
#
# Compressibility (1/GPa) = 0.02207680
#
# Stress axis : x y z
#
# Youngs Moduli (GPa) = 73.61153 73.61153 28.84179
#
# Poissons Ratio (x) = 0.36672 0.21488
# Poissons Ratio (y) = 0.36672 0.21488
# Poissons Ratio (z) = 0.54843 0.54843
#
# Static dielectric constant tensor:
#      x y z
#    x 3.140930 0.000000 0.000000 
#    y 0.000000 3.140930 0.000000 
#    z 0.000000 0.000000 2.795730 
# 
# 
# High freq. dielectric constant tensor:
#      x y z
#    x 1.613530 0.000000 0.000000 
#    y 0.000000 1.613530 0.000000 
#    z 0.000000 0.000000 1.598250 
# 
# From -- ./inp_files/3061.got.cif
#   From: 2010.03.12/outbox.cif.g09.slc.cpg/sg194_2_cif.got.tgz:3061.got - 2010.04.01 12:26:19.
