data_PCOD8330614
_publ_section_title
;
Structure prediction by ZEFSAII (Michael W. Deem and Ramdas Pophale) SiO2 
 PCOD8330614
Probable space group: P 63/M M C
;
_chemical_formula_sum "Si O2"
_cell_formula_units_Z 108
_cell_length_a 18.331635
_cell_length_b 18.331635
_cell_length_c 22.929309
_cell_angle_alpha 90.000000
_cell_angle_beta 90.000000
_cell_angle_gamma 120.000000
_cell_volume 6673.044202
_symmetry_space_group_name_H-M "P 63/M M C"
_symmetry_group_IT_number 194
_symmetry_cell_setting 'hexagonal'
loop_
_space_group_symop_operation_xyz
x,y,z
x-y,x,1/2+z
-y,x-y,z
-x,-y,1/2+z
-x+y,-x,z
y,-x+y,1/2+z
x-y,-y,-z
-x,-x+y,-z
y,x,-z
-y,-x,1/2-z
-x+y,y,1/2-z
x,x-y,1/2-z
-x,-y,-z
-x+y,-x,1/2-z
y,-x+y,-z
x,y,1/2-z
x-y,x,-z
-y,x-y,1/2-z
-x+y,y,z
x,x-y,z
-y,-x,z
y,x,1/2+z
x-y,-y,1/2+z
-x,-x+y,1/2+z
loop_
_atom_site_type_symbol
_atom_site_label
_atom_site_fract_x
_atom_site_fract_y
_atom_site_fract_z
Si Si1 0.763081 0.236920 0.180524
Si Si2 0.428906 0.571095 0.680467
Si Si3 0.762259 0.963286 0.123862
Si Si4 0.000000 0.169188 0.000000
Si Si5 0.875208 0.288003 0.682932
Si Si6 0.524037 0.048074 0.818863
Si Si7 0.858809 0.717617 0.318675
O O1 0.763418 0.236582 0.250000
O O2 0.810365 0.332913 0.157117
O O3 0.811001 0.189000 0.156040
O O4 0.428969 0.571032 0.750000
O O5 0.476600 0.523401 0.655465
O O6 0.794032 0.897016 0.138151
O O7 0.770295 0.982956 0.055080
O O8 0.665793 0.924332 0.140809
O O9 0.815769 0.045743 0.161315
O O10 0.078523 0.157046 0.985098
O O11 0.904580 0.290426 0.750000
O O12 0.774707 0.225294 0.677613
O O13 0.898805 0.379791 0.660061
O O14 0.520453 0.040907 0.750000
O O15 0.856055 0.712110 0.250000
#
# Coordination Sequence:
#
# PCOD8330614 Si02
#       7
#    12  12  24  12  24  12  12
#     4   9  17  26  41  64  95 128 158 195 228 282
#     4   9  15  24  37  58  87 123 159 183 219 271
#     4  10  20  33  49  68  94 129 164 204 245 287
#     4  10  19  34  52  69  90 122 170 212 244 281
#     4   9  17  30  47  69  97 126 157 196 247 298
#     4   9  16  27  44  66  93 129 158 188 235 296
#     4  11  20  31  46  70  99 128 162 199 245 293
#
# _framework density 16.184517
#
# number of rings (size 3 to 8) (size 9 to 14) (size 15 to 20)
#    0.000    2.444    1.111    2.333    0.000    5.778 
#    1.333    0.000    0.000    0.667    0.000    0.000 
#    0.000    0.000    0.000    0.000    0.000    0.000 
#
# Total GULP energy -1338990.707708 kJ/mol
# GULP energy per Si atom -12398.062108 kJ/mol
# Density = 1.614768 g / cm^3
# Si number density = 16.184517 Si / 1000 Ang^3
#
#
#
# Elastic Constant Matrix: (Units=GPa)
#
#
# Indices 1 2 3 4 5 6 
#
# 1 133.8648 83.6798 38.9552 0.0000 0.0000 0.0000
# 2 83.6798 133.8648 38.9552 0.0000 0.0000 0.0000
# 3 38.9552 38.9552 52.9187 0.0000 0.0000 0.0000
# 4 0.0000 0.0000 0.0000 31.8817 0.0000 0.0000
# 5 0.0000 0.0000 0.0000 0.0000 31.8817 0.0000
# 6 0.0000 0.0000 0.0000 0.0000 0.0000 25.0925
#
#
#
# Elastic Compliance Matrix: (Units=1/GPa)
#
#
# Indices 1 2 3 4 5 6 
#
# 1 0.013084 -0.006842 -0.004595 0.000000 0.000000 0.000000
# 2 -0.006842 0.013084 -0.004595 0.000000 0.000000 0.000000
# 3 -0.004595 -0.004595 0.025662 0.000000 0.000000 0.000000
# 4 0.000000 0.000000 0.000000 0.031366 0.000000 0.000000
# 5 0.000000 0.000000 0.000000 0.000000 0.031366 0.000000
# 6 0.000000 0.000000 0.000000 0.000000 0.000000 0.039853
#
#
# Mechanical properties :
#
#
# Convention : Reuss Voigt Hill
#
# Bulk Modulus (GPa) = 50.59145 71.53652 61.06398
# Shear Modulus (GPa) = 25.89742 28.37506 27.13624
#
# Velocity S-wave (km/s) = 4.00451 4.19169 4.09917
# Velocity P-wave (km/s) = 7.26006 8.22943 7.75990
#
# Compressibility (1/GPa) = 0.01976619
#
# Stress axis : x y z
#
# Youngs Moduli (GPa) = 76.42693 76.42693 38.96745
#
# Poissons Ratio (x) = 0.52290 0.17907
# Poissons Ratio (y) = 0.52290 0.17907
# Poissons Ratio (z) = 0.35121 0.35121
#
# Static dielectric constant tensor:
#      x y z
#    x 3.264190 0.000000 0.000000 
#    y 0.000000 3.264190 0.000000 
#    z 0.000000 0.000000 2.719210 
# 
# 
# High freq. dielectric constant tensor:
#      x y z
#    x 1.631520 0.000000 0.000000 
#    y 0.000000 1.631520 0.000000 
#    z 0.000000 0.000000 1.571330 
# 
# From -- ./inp_files/8018.got.cif
#   From: 2010.03.12/outbox.cif.g09.slc.cpg/sg194_5_cif.got.tgz:8018.got - 2010.04.01 12:26:19.
