data_PCOD8330326
_publ_section_title
;
Structure prediction by ZEFSAII (Michael W. Deem and Ramdas Pophale) SiO2 
 PCOD8330326
Probable space group: P 63/M M C
;
_chemical_formula_sum "Si O2"
_cell_formula_units_Z 192
_cell_length_a 26.404936
_cell_length_b 26.404936
_cell_length_c 19.146122
_cell_angle_alpha 90.000000
_cell_angle_beta 90.000000
_cell_angle_gamma 120.000000
_cell_volume 11560.635065
_symmetry_space_group_name_H-M "P 63/M M C"
_symmetry_group_IT_number 194
_symmetry_cell_setting 'hexagonal'
loop_
_space_group_symop_operation_xyz
x,y,z
x-y,x,1/2+z
-y,x-y,z
-x,-y,1/2+z
-x+y,-x,z
y,-x+y,1/2+z
x-y,-y,-z
-x,-x+y,-z
y,x,-z
-y,-x,1/2-z
-x+y,y,1/2-z
x,x-y,1/2-z
-x,-y,-z
-x+y,-x,1/2-z
y,-x+y,-z
x,y,1/2-z
x-y,x,-z
-y,x-y,1/2-z
-x+y,y,z
x,x-y,z
-y,-x,z
y,x,1/2+z
x-y,-y,1/2+z
-x,-x+y,1/2+z
loop_
_atom_site_type_symbol
_atom_site_label
_atom_site_fract_x
_atom_site_fract_y
_atom_site_fract_z
Si Si1 0.802513 0.844116 0.332232
Si Si2 0.559736 0.667638 0.670103
Si Si3 0.676105 0.059171 0.919097
Si Si4 0.552243 0.566442 0.330465
Si Si5 0.719818 0.656378 0.431147
Si Si6 0.666476 0.445897 0.166766
Si Si7 0.218937 0.050100 0.442922
Si Si8 0.777408 0.107722 0.673856
O O1 0.809349 0.838645 0.250000
O O2 0.825089 0.912545 0.351110
O O3 0.836755 0.815799 0.370992
O O4 0.735210 0.805835 0.356544
O O5 0.570391 0.687858 0.750000
O O6 0.552114 0.603981 0.659927
O O7 0.613426 0.719826 0.627994
O O8 0.501243 0.663031 0.639765
O O9 0.729884 0.109091 0.876519
O O10 0.616311 0.053577 0.887859
O O11 0.680069 0.001492 0.902459
O O12 0.688028 0.073058 0.001193
O O13 0.552069 0.586595 0.250000
O O14 0.490839 0.509162 0.348365
O O15 0.784269 0.711428 0.442617
O O16 0.665021 0.443385 0.250000
O O17 0.724921 0.449841 0.136917
O O18 0.611842 0.388159 0.135374
O O19 0.212068 0.106034 0.460057
O O20 0.186562 0.000000 0.500000
O O21 0.749513 0.082343 0.750000
O O22 0.825623 0.174378 0.681922
#
# Coordination Sequence:
#
# PCOD8330326 Si02
#       8
#    24  24  24  24  24  24  24  24
#     4   9  18  34  55  78 102 126 159 203 249 302
#     4   9  18  31  47  65  94 130 161 199 238 281
#     4  10  17  31  47  65 101 127 154 199 241 283
#     4   9  17  29  47  70  93 127 169 198 233 285
#     4  10  20  33  46  70  94 125 160 191 239 300
#     4   9  16  27  44  64  86 114 153 200 241 273
#     4  12  23  37  55  75 100 130 164 204 246 298
#     4   9  16  27  49  76  97 123 157 191 238 297
#
# _framework density 16.608084000000002
#
# number of rings (size 3 to 8) (size 9 to 14) (size 15 to 20)
#    0.000    2.375    2.500    2.000    0.000    5.250 
#    0.000    5.625    0.000    2.250    0.000    0.000 
#    0.000    0.000    0.000    0.375    0.000    5.625 
#
# Total GULP energy -2379363.595267 kJ/mol
# GULP energy per Si atom -12392.518725 kJ/mol
# Density = 1.657028 g / cm^3
# Si number density = 16.608084 Si / 1000 Ang^3
#
#
#
# Elastic Constant Matrix: (Units=GPa)
#
#
# Indices 1 2 3 4 5 6 
#
# 1 78.6793 42.3561 40.1700 0.0000 0.0000 0.0000
# 2 42.3561 78.6793 40.1700 0.0000 0.0000 0.0000
# 3 40.1700 40.1700 68.2784 0.0000 0.0000 0.0000
# 4 0.0000 0.0000 0.0000 19.2265 0.0000 0.0000
# 5 0.0000 0.0000 0.0000 0.0000 19.2265 0.0000
# 6 0.0000 0.0000 0.0000 0.0000 0.0000 18.1616
#
#
#
# Elastic Compliance Matrix: (Units=1/GPa)
#
#
# Indices 1 2 3 4 5 6 
#
# 1 0.020543 -0.006987 -0.007975 0.000000 0.000000 0.000000
# 2 -0.006987 0.020543 -0.007975 0.000000 0.000000 0.000000
# 3 -0.007975 -0.007975 0.024030 0.000000 0.000000 0.000000
# 4 0.000000 0.000000 0.000000 0.052011 0.000000 0.000000
# 5 0.000000 0.000000 0.000000 0.000000 0.052011 0.000000
# 6 0.000000 0.000000 0.000000 0.000000 0.000000 0.055061
#
#
# Mechanical properties :
#
#
# Convention : Reuss Voigt Hill
#
# Bulk Modulus (GPa) = 51.97331 52.33660 52.15496
# Shear Modulus (GPa) = 18.08385 18.18566 18.13475
#
# Velocity S-wave (km/s) = 3.30336 3.31265 3.30801
# Velocity P-wave (km/s) = 6.77581 6.79799 6.78691
#
# Compressibility (1/GPa) = 0.01924065
#
# Stress axis : x y z
#
# Youngs Moduli (GPa) = 48.67790 48.67790 41.61457
#
# Poissons Ratio (x) = 0.34013 0.33189
# Poissons Ratio (y) = 0.34013 0.33189
# Poissons Ratio (z) = 0.38822 0.38822
#
# Static dielectric constant tensor:
#      x y z
#    x 3.030860 0.000000 0.000000 
#    y 0.000000 3.030860 0.000000 
#    z 0.000000 0.000000 3.117340 
# 
# 
# High freq. dielectric constant tensor:
#      x y z
#    x 1.621300 0.000000 0.000000 
#    y 0.000000 1.621300 0.000000 
#    z 0.000000 0.000000 1.630520 
# 
# From -- ./inp_files/8680.got.cif
#   From: 2010.03.12/outbox.cif.g09.slc.cpg/sg194_5_cif.got.tgz:8680.got - 2010.04.01 12:26:19.
