data_PCOD8330371
_publ_section_title
;
Structure prediction by ZEFSAII (Michael W. Deem and Ramdas Pophale) SiO2 
 PCOD8330371
Probable space group: P 63/M M C
;
_chemical_formula_sum "Si O2"
_cell_formula_units_Z 132
_cell_length_a 17.545376
_cell_length_b 17.545376
_cell_length_c 35.889216
_cell_angle_alpha 90.000000
_cell_angle_beta 90.000000
_cell_angle_gamma 120.000000
_cell_volume 9567.973466
_symmetry_space_group_name_H-M "P 63/M M C"
_symmetry_group_IT_number 194
_symmetry_cell_setting 'hexagonal'
loop_
_space_group_symop_operation_xyz
x,y,z
x-y,x,1/2+z
-y,x-y,z
-x,-y,1/2+z
-x+y,-x,z
y,-x+y,1/2+z
x-y,-y,-z
-x,-x+y,-z
y,x,-z
-y,-x,1/2-z
-x+y,y,1/2-z
x,x-y,1/2-z
-x,-y,-z
-x+y,-x,1/2-z
y,-x+y,-z
x,y,1/2-z
x-y,x,-z
-y,x-y,1/2-z
-x+y,y,z
x,x-y,z
-y,-x,z
y,x,1/2+z
x-y,-y,1/2+z
-x,-x+y,1/2+z
loop_
_atom_site_type_symbol
_atom_site_label
_atom_site_fract_x
_atom_site_fract_y
_atom_site_fract_z
Si Si1 0.822813 0.001538 0.669240
Si Si2 0.469480 0.366406 0.996459
Si Si3 0.829704 0.828550 0.750000
Si Si4 0.697084 0.936737 0.897274
Si Si5 0.235747 0.300573 0.465297
Si Si6 0.160764 0.493114 0.579695
O O1 0.910139 0.089862 0.655501
O O2 0.793632 0.017172 0.710726
O O3 0.845151 0.922576 0.670102
O O4 0.740733 0.977887 0.642376
O O5 0.571536 0.428465 0.982771
O O6 0.408173 0.288918 0.967724
O O7 0.428870 0.428870 0.000000
O O8 0.467626 0.324214 0.036323
O O9 0.935461 0.870921 0.750000
O O10 0.802040 0.901020 0.750000
O O11 0.711644 0.855822 0.908364
O O12 0.592834 0.902992 0.895763
O O13 0.744290 0.012675 0.927265
O O14 0.261287 0.261287 0.500000
O O15 0.132302 0.264603 0.466595
O O16 0.262345 0.524690 0.588318
O O17 0.140948 0.570474 0.590484
#
# Coordination Sequence:
#
# PCOD8330371 Si02
#       6
#    24  24  12  24  24  24
#     4   9  16  26  40  59  82 108 135 164 195 228
#     4   9  16  26  41  57  72  93 125 166 207 243
#     4   8  13  22  38  58  79 102 130 162 198 234
#     4  10  19  29  40  56  79 105 134 166 197 230
#     4  11  19  28  41  55  74 104 137 164 192 227
#     4  10  18  29  43  60  78  98 127 167 211 248
#
# _framework density 13.796025
#
# number of rings (size 3 to 8) (size 9 to 14) (size 15 to 20)
#    0.000    2.364    3.636    2.091    0.000    1.455 
#    0.000    0.000    0.000    4.727    0.000    0.636 
#    0.000    0.000    0.000    2.545    0.000    0.000 
#
# Total GULP energy -1635277.986441 kJ/mol
# GULP energy per Si atom -12388.469594 kJ/mol
# Density = 1.376462 g / cm^3
# Si number density = 13.796025 Si / 1000 Ang^3
#
#
#
# Elastic Constant Matrix: (Units=GPa)
#
#
# Indices 1 2 3 4 5 6 
#
# 1 73.4202 39.0751 42.1970 0.0000 0.0000 0.0000
# 2 39.0751 73.4202 42.1970 0.0000 0.0000 0.0000
# 3 42.1970 42.1970 89.7097 0.0000 0.0000 0.0000
# 4 0.0000 0.0000 0.0000 15.2677 0.0000 0.0000
# 5 0.0000 0.0000 0.0000 0.0000 15.2677 0.0000
# 6 0.0000 0.0000 0.0000 0.0000 0.0000 17.1725
#
#
#
# Elastic Compliance Matrix: (Units=1/GPa)
#
#
# Indices 1 2 3 4 5 6 
#
# 1 0.021426 -0.007690 -0.006461 0.000000 0.000000 0.000000
# 2 -0.007690 0.021426 -0.006461 0.000000 0.000000 0.000000
# 3 -0.006461 -0.006461 0.017226 0.000000 0.000000 0.000000
# 4 0.000000 0.000000 0.000000 0.065498 0.000000 0.000000
# 5 0.000000 0.000000 0.000000 0.000000 0.065498 0.000000
# 6 0.000000 0.000000 0.000000 0.000000 0.000000 0.058233
#
#
# Mechanical properties :
#
#
# Convention : Reuss Voigt Hill
#
# Bulk Modulus (GPa) = 53.04084 53.72091 53.38088
# Shear Modulus (GPa) = 16.84546 17.08030 16.96288
#
# Velocity S-wave (km/s) = 3.49813 3.52242 3.51030
# Velocity P-wave (km/s) = 7.40579 7.45434 7.43011
#
# Compressibility (1/GPa) = 0.01885340
#
# Stress axis : x y z
#
# Youngs Moduli (GPa) = 46.67141 46.67141 58.05346
#
# Poissons Ratio (x) = 0.35890 0.37510
# Poissons Ratio (y) = 0.35890 0.37510
# Poissons Ratio (z) = 0.30156 0.30156
#
# Static dielectric constant tensor:
#      x y z
#    x 2.939180 0.000000 0.000000 
#    y 0.000000 2.939180 0.000000 
#    z 0.000000 0.000000 2.766750 
# 
# 
# High freq. dielectric constant tensor:
#      x y z
#    x 1.517340 0.000000 0.000000 
#    y 0.000000 1.517340 0.000000 
#    z 0.000000 0.000000 1.500050 
# 
# From -- ./inp_files/12019.got.cif
#   From: 2010.03.12/outbox.cif.g09.slc.cpg/sg194_7_cif.got.tgz:12019.got - 2010.04.01 12:26:19.
