data_PCOD8330135
_publ_section_title
;
Structure prediction by ZEFSAII (Michael W. Deem and Ramdas Pophale) SiO2 
 PCOD8330135
Probable space group: P 63/M C M
;
_chemical_formula_sum "Si O2"
_cell_formula_units_Z 104
_cell_length_a 17.767356
_cell_length_b 17.767356
_cell_length_c 23.342126
_cell_angle_alpha 90.000000
_cell_angle_beta 90.000000
_cell_angle_gamma 120.000000
_cell_volume 6381.410011
_symmetry_space_group_name_H-M "P 63/M C M"
_symmetry_group_IT_number 193
_symmetry_cell_setting 'hexagonal'
loop_
_space_group_symop_operation_xyz
x,y,z
x-y,x,1/2+z
-y,x-y,z
-x,-y,1/2+z
-x+y,-x,z
y,-x+y,1/2+z
x-y,-y,1/2-z
-x,-x+y,1/2-z
y,x,1/2-z
-y,-x,-z
-x+y,y,-z
x,x-y,-z
-x,-y,-z
-x+y,-x,1/2-z
y,-x+y,-z
x,y,1/2-z
x-y,x,-z
-y,x-y,1/2-z
-x+y,y,1/2+z
x,x-y,1/2+z
-y,-x,1/2+z
y,x,z
x-y,-y,z
-x,-x+y,z
loop_
_atom_site_type_symbol
_atom_site_label
_atom_site_fract_x
_atom_site_fract_y
_atom_site_fract_z
Si Si1 0.269039 0.901781 0.010705
Si Si2 0.722043 0.521700 0.113264
Si Si3 0.579797 0.674528 0.887555
Si Si4 0.902778 0.469514 0.813453
Si Si5 0.333333 0.666666 0.432064
O O1 0.304739 0.872818 0.064622
O O2 0.286386 0.000000 0.020288
O O3 0.165934 0.834067 0.000000
O O4 0.325540 0.900986 0.956688
O O5 0.822355 0.586878 0.133038
O O6 0.666322 0.506468 0.170042
O O7 0.712550 0.432026 0.090282
O O8 0.660546 0.660546 0.867977
O O9 0.491401 0.597599 0.862055
O O10 0.876571 0.426158 0.750000
O O11 0.000000 0.549794 0.811937
O O12 0.333334 0.666667 0.500000
#
# Coordination Sequence:
#
# PCOD8330135 Si02
#       5
#    24  24  24  24   8
#     4   9  18  32  52  73  95 122 153 193 237 284
#     4  11  20  32  47  69  92 124 157 192 239 274
#     4   9  18  33  48  66  90 119 154 190 232 275
#     4  10  21  34  46  62  88 121 157 195 231 272
#     4  12  21  30  43  71 103 123 153 205 233 277
#
# _framework density 16.297338
#
# number of rings (size 3 to 8) (size 9 to 14) (size 15 to 20)
#    0.000    2.077    2.308    2.769    0.000    0.923 
#    0.000    3.462    0.000    0.231    0.000    0.000 
#    0.000    0.000    0.000    0.000    0.000    7.154 
#
# Total GULP energy -1288519.401707 kJ/mol
# GULP energy per Si atom -12389.609632 kJ/mol
# Density = 1.626024 g / cm^3
# Si number density = 16.297338 Si / 1000 Ang^3
#
#
#
# Elastic Constant Matrix: (Units=GPa)
#
#
# Indices 1 2 3 4 5 6 
#
# 1 89.4540 46.1838 46.4781 0.0000 0.0000 -0.0001
# 2 46.1838 89.4541 46.4782 0.0000 0.0000 0.0000
# 3 46.4781 46.4782 71.8127 0.0000 0.0000 0.0000
# 4 0.0000 0.0000 0.0000 16.2112 0.0000 0.0000
# 5 0.0000 0.0000 0.0000 0.0000 16.2112 0.0000
# 6 -0.0001 0.0000 0.0000 0.0000 0.0000 21.6351
#
#
#
# Elastic Compliance Matrix: (Units=1/GPa)
#
#
# Indices 1 2 3 4 5 6 
#
# 1 0.018180 -0.004931 -0.008575 0.000000 0.000000 0.000000
# 2 -0.004931 0.018180 -0.008575 0.000000 0.000000 0.000000
# 3 -0.008575 -0.008575 0.025025 0.000000 0.000000 0.000000
# 4 0.000000 0.000000 0.000000 0.061686 0.000000 0.000000
# 5 0.000000 0.000000 0.000000 0.000000 0.061686 0.000000
# 6 0.000000 0.000000 0.000000 0.000000 0.000000 0.046221
#
#
# Mechanical properties :
#
#
# Convention : Reuss Voigt Hill
#
# Bulk Modulus (GPa) = 58.06156 58.77790 58.41973
# Shear Modulus (GPa) = 17.80116 18.25021 18.02569
#
# Velocity S-wave (km/s) = 3.30854 3.35001 3.32934
# Velocity P-wave (km/s) = 7.09218 7.14896 7.12063
#
# Compressibility (1/GPa) = 0.01722310
#
# Stress axis : x y z
#
# Youngs Moduli (GPa) = 55.00553 55.00557 39.95991
#
# Poissons Ratio (x) = 0.27121 0.34266
# Poissons Ratio (y) = 0.27121 0.34266
# Poissons Ratio (z) = 0.47168 0.47168
#
# Static dielectric constant tensor:
#      x y z
#    x 3.189060 0.000000 0.000000 
#    y 0.000000 3.189060 0.000000 
#    z 0.000000 0.000000 3.103220 
# 
# 
# High freq. dielectric constant tensor:
#      x y z
#    x 1.612680 0.000000 0.000000 
#    y 0.000000 1.612680 0.000000 
#    z 0.000000 0.000000 1.623430 
# 
# From -- ./inp_files/6317.got.cif
#   From: 2010.03.12/outbox.cif.g09.slc.cpg/sg193_4_cif.got.tgz:6317.got - 2010.04.01 12:20:39.
