data_PCOD8330239
_publ_section_title
;
Structure prediction by ZEFSAII (Michael W. Deem and Ramdas Pophale) SiO2 
 PCOD8330239
Probable space group: P 63/M C M
;
_chemical_formula_sum "Si O2"
_cell_formula_units_Z 96
_cell_length_a 28.063105
_cell_length_b 28.063105
_cell_length_c 8.482526
_cell_angle_alpha 90.000000
_cell_angle_beta 90.000000
_cell_angle_gamma 120.000000
_cell_volume 5785.318505
_symmetry_space_group_name_H-M "P 63/M C M"
_symmetry_group_IT_number 193
_symmetry_cell_setting 'hexagonal'
loop_
_space_group_symop_operation_xyz
x,y,z
x-y,x,1/2+z
-y,x-y,z
-x,-y,1/2+z
-x+y,-x,z
y,-x+y,1/2+z
x-y,-y,1/2-z
-x,-x+y,1/2-z
y,x,1/2-z
-y,-x,-z
-x+y,y,-z
x,x-y,-z
-x,-y,-z
-x+y,-x,1/2-z
y,-x+y,-z
x,y,1/2-z
x-y,x,-z
-y,x-y,1/2-z
-x+y,y,1/2+z
x,x-y,1/2+z
-y,-x,1/2+z
y,x,z
x-y,-y,z
-x,-x+y,z
loop_
_atom_site_type_symbol
_atom_site_label
_atom_site_fract_x
_atom_site_fract_y
_atom_site_fract_z
Si Si1 0.000000 0.289834 0.562667
Si Si2 0.601223 0.000000 0.436158
Si Si3 0.216991 0.884891 0.436891
Si Si4 0.501843 0.393669 0.564279
Si Si5 0.824684 0.547180 0.436850
O O1 0.946712 0.236372 0.492461
O O2 0.000000 0.285943 0.750000
O O3 0.000000 0.344481 0.502307
O O4 0.547175 0.947402 0.495929
O O5 0.600938 0.000000 0.250000
O O6 0.155435 0.844566 0.500000
O O7 0.217581 0.880446 0.250000
O O8 0.259320 0.868089 0.509531
O O9 0.559441 0.440560 0.500000
O O10 0.500924 0.397107 0.750000
O O11 0.495359 0.336119 0.509411
O O12 0.764296 0.528591 0.500000
O O13 0.825118 0.544893 0.250000
#
# Coordination Sequence:
#
# PCOD8330239 Si02
#       5
#    12  12  24  24  24
#     4  11  21  34  54  77 108 143 179 220 263 306
#     4  11  22  36  53  75 105 139 174 213 259 311
#     4  11  21  34  53  77 105 139 178 216 258 305
#     4  12  24  38  55  76 103 135 170 211 260 315
#     4  11  21  36  55  77 101 129 165 208 255 307
#
# _framework density 16.593727999999999
#
# number of rings (size 3 to 8) (size 9 to 14) (size 15 to 20)
#    0.000    0.750    2.500    9.375    0.000    1.000 
#    0.000    0.000    0.000    0.500    0.000    3.500 
#    0.000    0.000    0.000    0.375    0.000    5.250 
#
# Total GULP energy -1190932.511856 kJ/mol
# GULP energy per Si atom -12405.546998 kJ/mol
# Density = 1.655596 g / cm^3
# Si number density = 16.593728 Si / 1000 Ang^3
#
#
#
# Elastic Constant Matrix: (Units=GPa)
#
#
# Indices 1 2 3 4 5 6 
#
# 1 99.5614 46.3595 0.4443 0.0000 0.0000 0.0000
# 2 46.3595 99.5614 0.4443 0.0000 0.0000 0.0000
# 3 0.4443 0.4443 24.0317 0.0000 0.0000 0.0000
# 4 0.0000 0.0000 0.0000 28.9050 0.0000 0.0000
# 5 0.0000 0.0000 0.0000 0.0000 28.9050 0.0000
# 6 0.0000 0.0000 0.0000 0.0000 0.0000 26.6009
#
#
#
# Elastic Compliance Matrix: (Units=1/GPa)
#
#
# Indices 1 2 3 4 5 6 
#
# 1 0.012825 -0.005971 -0.000127 0.000000 0.000000 0.000000
# 2 -0.005971 0.012825 -0.000127 0.000000 0.000000 0.000000
# 3 -0.000127 -0.000127 0.041616 0.000000 0.000000 0.000000
# 4 0.000000 0.000000 0.000000 0.034596 0.000000 0.000000
# 5 0.000000 0.000000 0.000000 0.000000 0.034596 0.000000
# 6 0.000000 0.000000 0.000000 0.000000 0.000000 0.037593
#
#
# Mechanical properties :
#
#
# Convention : Reuss Voigt Hill
#
# Bulk Modulus (GPa) = 18.24248 35.29453 26.76851
# Shear Modulus (GPa) = 24.41726 28.60926 26.51326
#
# Velocity S-wave (km/s) = 3.84014 4.15673 4.00157
# Velocity P-wave (km/s) = 5.53893 6.65987 6.12510
#
# Compressibility (1/GPa) = 0.05481710
#
# Stress axis : x y z
#
# Youngs Moduli (GPa) = 77.97233 77.97233 24.02899
#
# Poissons Ratio (x) = 0.46559 0.00305
# Poissons Ratio (y) = 0.46559 0.00305
# Poissons Ratio (z) = 0.00988 0.00988
#
# Static dielectric constant tensor:
#      x y z
#    x 3.186000 0.000000 0.000000 
#    y 0.000000 3.186000 0.000000 
#    z 0.000000 0.000000 3.333170 
# 
# 
# High freq. dielectric constant tensor:
#      x y z
#    x 1.624400 0.000000 0.000000 
#    y 0.000000 1.624400 0.000000 
#    z 0.000000 0.000000 1.667840 
# 
# From -- ./inp_files/1254.got.cif
#   From: 2010.03.12/outbox.cif.g09.slc.cpg/sg193_1_cif.got.tgz:1254.got - 2010.04.01 12:20:39.
