data_PCOD8330527
_publ_section_title
;
Structure prediction by ZEFSAII (Michael W. Deem and Ramdas Pophale) SiO2 
 PCOD8330527
Probable space group: P 63/M M C
;
_chemical_formula_sum "Si O2"
_cell_formula_units_Z 132
_cell_length_a 18.194736
_cell_length_b 18.194736
_cell_length_c 24.759345
_cell_angle_alpha 90.000000
_cell_angle_beta 90.000000
_cell_angle_gamma 120.000000
_cell_volume 7098.413591
_symmetry_space_group_name_H-M "P 63/M M C"
_symmetry_group_IT_number 194
_symmetry_cell_setting 'hexagonal'
loop_
_space_group_symop_operation_xyz
x,y,z
x-y,x,1/2+z
-y,x-y,z
-x,-y,1/2+z
-x+y,-x,z
y,-x+y,1/2+z
x-y,-y,-z
-x,-x+y,-z
y,x,-z
-y,-x,1/2-z
-x+y,y,1/2-z
x,x-y,1/2-z
-x,-y,-z
-x+y,-x,1/2-z
y,-x+y,-z
x,y,1/2-z
x-y,x,-z
-y,x-y,1/2-z
-x+y,y,z
x,x-y,z
-y,-x,z
y,x,1/2+z
x-y,-y,1/2+z
-x,-x+y,1/2+z
loop_
_atom_site_type_symbol
_atom_site_label
_atom_site_fract_x
_atom_site_fract_y
_atom_site_fract_z
Si Si1 0.926106 0.243318 0.811928
Si Si2 0.978150 0.574325 0.625743
Si Si3 0.000000 0.752894 0.500000
Si Si4 0.496919 0.830834 0.044875
Si Si5 0.165641 0.168830 0.392160
Si Si6 0.289210 0.874107 0.560546
O O1 0.950395 0.241360 0.750000
O O2 0.828346 0.171655 0.823221
O O3 0.940542 0.336647 0.825253
O O4 0.989717 0.227764 0.848895
O O5 0.980417 0.490209 0.643632
O O6 0.919307 0.559386 0.573862
O O7 0.071692 0.648733 0.609002
O O8 0.969314 0.788593 0.549113
O O9 0.922739 0.666419 0.477783
O O10 0.400133 0.800266 0.060453
O O11 0.518608 0.759304 0.064309
O O12 0.506049 0.844168 0.980310
O O13 0.067909 0.135817 0.376347
O O14 0.184991 0.092496 0.391266
O O15 0.207394 0.792607 0.586594
#
# Coordination Sequence:
#
# PCOD8330527 Si02
#       6
#    24  24  12  24  24  24
#     4  10  22  40  59  79 107 143 182 224 274 329
#     4  11  21  35  56  80 105 136 180 231 280 330
#     4  12  20  32  54  80 110 152 192 226 272 324
#     4  10  19  31  49  75 109 145 180 219 269 330
#     4  11  22  36  55  82 115 152 191 231 272 316
#     4  11  20  32  50  76 110 148 187 228 270 322
#
# _framework density 18.595704999999999
#
# number of rings (size 3 to 8) (size 9 to 14) (size 15 to 20)
#    0.000    1.273    3.636    3.091    0.000    5.091 
#    0.000    0.909    0.000    1.818    0.000    0.000 
#    0.000    0.000    0.000    0.000    0.000    0.000 
#
# Total GULP energy -1636781.027487 kJ/mol
# GULP energy per Si atom -12399.856269 kJ/mol
# Density = 1.855338 g / cm^3
# Si number density = 18.595705 Si / 1000 Ang^3
#
#
#
# Elastic Constant Matrix: (Units=GPa)
#
#
# Indices 1 2 3 4 5 6 
#
# 1 95.4907 46.7816 33.9603 0.0000 0.0000 0.0000
# 2 46.7816 95.4907 33.9603 0.0000 0.0000 0.0000
# 3 33.9603 33.9603 89.4849 0.0000 0.0000 0.0000
# 4 0.0000 0.0000 0.0000 20.6580 0.0000 0.0000
# 5 0.0000 0.0000 0.0000 0.0000 20.6580 0.0000
# 6 0.0000 0.0000 0.0000 0.0000 0.0000 24.3546
#
#
#
# Elastic Compliance Matrix: (Units=1/GPa)
#
#
# Indices 1 2 3 4 5 6 
#
# 1 0.014557 -0.005973 -0.003258 0.000000 0.000000 0.000000
# 2 -0.005973 0.014557 -0.003258 0.000000 0.000000 0.000000
# 3 -0.003258 -0.003258 0.013648 0.000000 0.000000 0.000000
# 4 0.000000 0.000000 0.000000 0.048407 0.000000 0.000000
# 5 0.000000 0.000000 0.000000 0.000000 0.048407 0.000000
# 6 0.000000 0.000000 0.000000 0.000000 0.000000 0.041060
#
#
# Mechanical properties :
#
#
# Convention : Reuss Voigt Hill
#
# Bulk Modulus (GPa) = 56.22742 56.65228 56.43985
# Shear Modulus (GPa) = 23.63603 24.18509 23.91056
#
# Velocity S-wave (km/s) = 3.56904 3.61026 3.58971
# Velocity P-wave (km/s) = 6.87652 6.92171 6.89915
#
# Compressibility (1/GPa) = 0.01778492
#
# Stress axis : x y z
#
# Youngs Moduli (GPa) = 68.69546 68.69546 73.27233
#
# Poissons Ratio (x) = 0.41032 0.23870
# Poissons Ratio (y) = 0.41032 0.23870
# Poissons Ratio (z) = 0.22379 0.22379
#
# Static dielectric constant tensor:
#      x y z
#    x 3.433250 0.000000 0.000000 
#    y 0.000000 3.433250 0.000000 
#    z 0.000000 0.000000 3.148170 
# 
# 
# High freq. dielectric constant tensor:
#      x y z
#    x 1.725600 0.000000 0.000000 
#    y 0.000000 1.725600 0.000000 
#    z 0.000000 0.000000 1.684860 
# 
# From -- ./inp_files/9547.got.cif
#   From: 2010.03.12/outbox.cif.g09.slc.cpg/sg194_5_cif.got.tgz:9547.got - 2010.04.01 12:26:19.
