data_PCOD8330208
_publ_section_title
;
Structure prediction by ZEFSAII (Michael W. Deem and Ramdas Pophale) SiO2 
 PCOD8330208
Probable space group: P 63/M C M
;
_chemical_formula_sum "Si O2"
_cell_formula_units_Z 132
_cell_length_a 18.050980
_cell_length_b 18.050980
_cell_length_c 23.630755
_cell_angle_alpha 90.000000
_cell_angle_beta 90.000000
_cell_angle_gamma 120.000000
_cell_volume 6668.218150
_symmetry_space_group_name_H-M "P 63/M C M"
_symmetry_group_IT_number 193
_symmetry_cell_setting 'hexagonal'
loop_
_space_group_symop_operation_xyz
x,y,z
x-y,x,1/2+z
-y,x-y,z
-x,-y,1/2+z
-x+y,-x,z
y,-x+y,1/2+z
x-y,-y,1/2-z
-x,-x+y,1/2-z
y,x,1/2-z
-y,-x,-z
-x+y,y,-z
x,x-y,-z
-x,-y,-z
-x+y,-x,1/2-z
y,-x+y,-z
x,y,1/2-z
x-y,x,-z
-y,x-y,1/2-z
-x+y,y,1/2+z
x,x-y,1/2+z
-y,-x,1/2+z
y,x,z
x-y,-y,z
-x,-x+y,z
loop_
_atom_site_type_symbol
_atom_site_label
_atom_site_fract_x
_atom_site_fract_y
_atom_site_fract_z
Si Si1 0.499428 0.170278 0.996896
Si Si2 0.335611 0.096206 0.426298
Si Si3 0.824721 0.223083 0.186320
Si Si4 0.557987 0.900732 0.376427
Si Si5 0.898567 0.797134 0.000000
Si Si6 0.510817 0.095974 0.312382
O O1 0.431664 0.142488 0.048337
O O2 0.569746 0.139491 0.000000
O O3 0.547509 0.273754 0.000000
O O4 0.444691 0.133333 0.939512
O O5 0.333602 0.107767 0.358889
O O6 0.268826 0.124703 0.448029
O O7 0.301605 0.000000 0.443592
O O8 0.845525 0.205197 0.250000
O O9 0.730915 0.150029 0.168977
O O10 0.832299 0.315898 0.183610
O O11 0.464551 0.884530 0.360737
O O12 0.629074 0.000000 0.372522
O O13 0.857203 0.857203 0.989478
O O14 0.550480 0.100609 0.250000
O O15 0.429690 0.000000 0.321677
#
# Coordination Sequence:
#
# PCOD8330208 Si02
#       6
#    24  24  24  24  12  24
#     4  12  24  41  61  90 124 163 204 252 308 370
#     4  11  22  39  61  90 126 162 203 257 314 375
#     4  11  22  38  59  86 119 160 206 253 302 359
#     4  11  23  39  61  87 118 157 202 254 309 364
#     4  10  21  40  68  96 126 162 208 266 329 390
#     4   9  19  37  58  81 113 155 204 251 294 351
#
# _framework density 19.795394000000002
#
# number of rings (size 3 to 8) (size 9 to 14) (size 15 to 20)
#    0.000    1.273    2.727    3.000    0.000    7.273 
#    1.091    0.000    0.000    0.000    0.000    0.000 
#    0.000    1.455    0.000    0.000    0.000    0.000 
#
# Total GULP energy -1635883.592780 kJ/mol
# GULP energy per Si atom -12393.057521 kJ/mol
# Density = 1.975034 g / cm^3
# Si number density = 19.795394 Si / 1000 Ang^3
#
#
#
# Elastic Constant Matrix: (Units=GPa)
#
#
# Indices 1 2 3 4 5 6 
#
# 1 93.0410 43.1165 33.9625 0.0000 0.0000 0.0000
# 2 43.1165 93.0410 33.9625 0.0000 0.0000 0.0000
# 3 33.9625 33.9625 134.2597 0.0000 0.0000 0.0000
# 4 0.0000 0.0000 0.0000 25.9217 0.0000 0.0000
# 5 0.0000 0.0000 0.0000 0.0000 25.9217 0.0000
# 6 0.0000 0.0000 0.0000 0.0000 0.0000 24.9623
#
#
#
# Elastic Compliance Matrix: (Units=1/GPa)
#
#
# Indices 1 2 3 4 5 6 
#
# 1 0.014218 -0.005813 -0.002126 0.000000 0.000000 0.000000
# 2 -0.005813 0.014218 -0.002126 0.000000 0.000000 0.000000
# 3 -0.002126 -0.002126 0.008524 0.000000 0.000000 0.000000
# 4 0.000000 0.000000 0.000000 0.038578 0.000000 0.000000
# 5 0.000000 0.000000 0.000000 0.000000 0.038578 0.000000
# 6 0.000000 0.000000 0.000000 0.000000 0.000000 0.040060
#
#
# Mechanical properties :
#
#
# Convention : Reuss Voigt Hill
#
# Bulk Modulus (GPa) = 59.41951 60.26942 59.84446
# Shear Modulus (GPa) = 27.79093 29.31448 28.55270
#
# Velocity S-wave (km/s) = 3.75094 3.85239 3.80200
# Velocity P-wave (km/s) = 6.98866 7.09226 7.04065
#
# Compressibility (1/GPa) = 0.01682949
#
# Stress axis : x y z
#
# Youngs Moduli (GPa) = 70.33499 70.33499 117.31676
#
# Poissons Ratio (x) = 0.40883 0.24944
# Poissons Ratio (y) = 0.40883 0.24944
# Poissons Ratio (z) = 0.14954 0.14954
#
# Static dielectric constant tensor:
#      x y z
#    x 3.566050 0.000000 0.000000 
#    y 0.000000 3.566050 0.000000 
#    z 0.000000 0.000000 3.803060 
# 
# 
# High freq. dielectric constant tensor:
#      x y z
#    x 1.764060 0.000000 0.000000 
#    y 0.000000 1.764060 0.000000 
#    z 0.000000 0.000000 1.782610 
# 
# From -- ./inp_files/7471.got.cif
#   From: 2010.03.12/outbox.cif.g09.slc.cpg/sg193_4_cif.got.tgz:7471.got - 2010.04.01 12:20:39.
