data_PCOD8330934
_publ_section_title
;
Structure prediction by ZEFSAII (Michael W. Deem and Ramdas Pophale) SiO2 
 PCOD8330934
Probable space group: F D 3
;
_chemical_formula_sum "Si O2"
_cell_formula_units_Z 488
_cell_length_a 28.789615
_cell_length_b 28.789615
_cell_length_c 28.789615
_cell_angle_alpha 90.000000
_cell_angle_beta 90.000000
_cell_angle_gamma 90.000000
_cell_volume 23862.040114
_symmetry_space_group_name_H-M "F D 3"
_symmetry_group_IT_number 203
_space_group.IT_coordinate_system_code '2'
_symmetry_cell_setting 'cubic'
loop_
_space_group_symop_operation_xyz
x,y,z
z,x,y
y,z,x
1/4-y,1/4-z,x
z,1/4-x,1/4-y
1/4-y,z,1/4-x
1/4-z,1/4-x,y
1/4-z,x,1/4-y
y,1/4-z,1/4-x
1/4-x,1/4-y,z
x,1/4-y,1/4-z
1/4-x,y,1/4-z
-x,-y,-z
-z,-x,-y
-y,-z,-x
3/4+y,3/4+z,-x
-z,3/4+x,3/4+y
3/4+y,-z,3/4+x
3/4+z,3/4+x,-y
3/4+z,-x,3/4+y
-y,3/4+z,3/4+x
3/4+x,3/4+y,-z
-x,3/4+y,3/4+z
3/4+x,-y,3/4+z
x,1/2+y,1/2+z
z,1/2+x,1/2+y
y,1/2+z,1/2+x
1/4-y,3/4-z,1/2+x
z,3/4-x,3/4-y
1/4-y,1/2+z,3/4-x
1/4-z,3/4-x,1/2+y
1/4-z,1/2+x,3/4-y
y,3/4-z,3/4-x
1/4-x,3/4-y,1/2+z
x,3/4-y,3/4-z
1/4-x,1/2+y,3/4-z
-x,1/2-y,1/2-z
-z,1/2-x,1/2-y
-y,1/2-z,1/2-x
3/4+y,1/4+z,1/2-x
-z,1/4+x,1/4+y
3/4+y,1/2-z,1/4+x
3/4+z,1/4+x,1/2-y
3/4+z,1/2-x,1/4+y
-y,1/4+z,1/4+x
3/4+x,1/4+y,1/2-z
-x,1/4+y,1/4+z
3/4+x,1/2-y,1/4+z
1/2+x,y,1/2+z
1/2+z,x,1/2+y
1/2+y,z,1/2+x
3/4-y,1/4-z,1/2+x
1/2+z,1/4-x,3/4-y
3/4-y,z,3/4-x
3/4-z,1/4-x,1/2+y
3/4-z,x,3/4-y
1/2+y,1/4-z,3/4-x
3/4-x,1/4-y,1/2+z
1/2+x,1/4-y,3/4-z
3/4-x,y,3/4-z
1/2-x,-y,1/2-z
1/2-z,-x,1/2-y
1/2-y,-z,1/2-x
1/4+y,3/4+z,1/2-x
1/2-z,3/4+x,1/4+y
1/4+y,-z,1/4+x
1/4+z,3/4+x,1/2-y
1/4+z,-x,1/4+y
1/2-y,3/4+z,1/4+x
1/4+x,3/4+y,1/2-z
1/2-x,3/4+y,1/4+z
1/4+x,-y,1/4+z
1/2+x,1/2+y,z
1/2+z,1/2+x,y
1/2+y,1/2+z,x
3/4-y,3/4-z,x
1/2+z,3/4-x,1/4-y
3/4-y,1/2+z,1/4-x
3/4-z,3/4-x,y
3/4-z,1/2+x,1/4-y
1/2+y,3/4-z,1/4-x
3/4-x,3/4-y,z
1/2+x,3/4-y,1/4-z
3/4-x,1/2+y,1/4-z
1/2-x,1/2-y,-z
1/2-z,1/2-x,-y
1/2-y,1/2-z,-x
1/4+y,1/4+z,-x
1/2-z,1/4+x,3/4+y
1/4+y,1/2-z,3/4+x
1/4+z,1/4+x,-y
1/4+z,1/2-x,3/4+y
1/2-y,1/4+z,3/4+x
1/4+x,1/4+y,-z
1/2-x,1/4+y,3/4+z
1/4+x,1/2-y,3/4+z
loop_
_atom_site_type_symbol
_atom_site_label
_atom_site_fract_x
_atom_site_fract_y
_atom_site_fract_z
Si Si1 0.172322 0.784910 0.149126
Si Si2 0.441238 0.808763 0.308764
Si Si3 0.425603 0.684516 0.725313
Si Si4 0.746824 0.322027 0.678729
Si Si5 0.943232 0.943232 0.306769
Si Si6 0.080239 0.511752 0.465057
Si Si7 0.625000 0.125000 0.625000
Si Si8 0.993946 0.493945 0.256056
O O1 0.125000 0.800366 0.125000
O O2 0.213367 0.803602 0.116119
O O3 0.176848 0.810196 0.198483
O O4 0.173421 0.728153 0.153673
O O5 0.491452 0.832237 0.297968
O O6 0.408142 0.841859 0.341860
O O7 0.447167 0.722118 0.690163
O O8 0.370192 0.690299 0.721876
O O9 0.735171 0.314834 0.625781
O O10 0.722590 0.278199 0.705027
O O11 0.974621 0.974620 0.275381
O O12 0.040125 0.517622 0.427272
#
# Coordination Sequence:
#
# PCOD8330934 Si02
#       8
#    96  32  96  96  32  96   8  32
#     4  11  22  41  61  88 124 158 208 267 312 382
#     4   9  22  40  61  94 126 181 211 273 330 375
#     4  12  24  39  61  90 121 161 202 256 327 377
#     4  11  21  39  61  91 121 166 209 259 322 376
#     4   9  21  42  61  76 114 165 199 250 316 376
#     4   9  19  39  65  90 125 165 216 262 319 384
#     4  12  24  44  68  96 156 168 232 280 324 396
#     4   9  21  37  61  81 123 163 202 252 303 379
#
# _framework density 20.450893000000001
#
# number of rings (size 3 to 8) (size 9 to 14) (size 15 to 20)
#    0.000    1.574    1.967    5.705    0.000    1.574 
#    1.180    1.967    2.164    0.000    0.000    0.000 
#    0.000    0.000    0.000    0.000    0.000    0.000 
#
# Total GULP energy -1511668.413073 kJ/mol
# GULP energy per Si atom -12390.724697 kJ/mol
# Density = 2.040435 g / cm^3
# Si number density = 20.450893 Si / 1000 Ang^3
#
#
#
# Elastic Constant Matrix: (Units=GPa)
#
#
# Indices 1 2 3 4 5 6 
#
# 1 69.3790 24.4858 24.4844 0.0000 0.0000 0.0000
# 2 24.4858 69.3835 24.4852 0.0000 0.0000 0.0000
# 3 24.4844 24.4852 69.3776 0.0000 0.0000 0.0000
# 4 0.0000 0.0000 0.0000 26.0451 0.0000 0.0000
# 5 0.0000 0.0000 0.0000 0.0000 26.0455 0.0000
# 6 0.0000 0.0000 0.0000 0.0000 0.0000 26.0442
#
#
#
# Elastic Compliance Matrix: (Units=1/GPa)
#
#
# Indices 1 2 3 4 5 6 
#
# 1 0.017666 -0.004608 -0.004608 0.000000 0.000000 0.000000
# 2 -0.004608 0.017665 -0.004608 0.000000 0.000000 0.000000
# 3 -0.004608 -0.004608 0.017667 0.000000 0.000000 0.000000
# 4 0.000000 0.000000 0.000000 0.038395 0.000000 0.000000
# 5 0.000000 0.000000 0.000000 0.000000 0.038394 0.000000
# 6 0.000000 0.000000 0.000000 0.000000 0.000000 0.038396
#
#
# Mechanical properties :
#
#
# Convention : Reuss Voigt Hill
#
# Bulk Modulus (GPa) = 39.45009 39.45009 39.45009
# Shear Modulus (GPa) = 24.47589 24.60592 24.54091
#
# Velocity S-wave (km/s) = 3.46325 3.47244 3.46785
# Velocity P-wave (km/s) = 5.94342 5.95056 5.94699
#
# Compressibility (1/GPa) = 0.02534848
#
# Stress axis : x y z
#
# Youngs Moduli (GPa) = 56.60503 56.60874 56.60415
#
# Poissons Ratio (x) = 0.26087 0.26085
# Poissons Ratio (y) = 0.26085 0.26084
# Poissons Ratio (z) = 0.26085 0.26086
#
# Static dielectric constant tensor:
#      x y z
#    x 5.355540 0.000000 0.000000 
#    y 0.000000 5.355490 0.000000 
#    z 0.000000 0.000000 5.356050 
# 
# 
# High freq. dielectric constant tensor:
#      x y z
#    x 1.796080 0.000000 0.000000 
#    y 0.000000 1.796080 0.000000 
#    z 0.000000 0.000000 1.796080 
# 
# From -- ./inp_files/659.got.cif
#   From: 2010.03.12/outbox.cif.g09.slc.cpg/sg203_cif.got.tgz:659.got - 2010.03.30 09:02:32.
