data_PCOD8330922
_publ_section_title
;
Structure prediction by ZEFSAII (Michael W. Deem and Ramdas Pophale) SiO2 
 PCOD8330922
Probable space group: P N 3
;
_chemical_formula_sum "Si O2"
_cell_formula_units_Z 116
_cell_length_a 17.324595
_cell_length_b 17.324595
_cell_length_c 17.324595
_cell_angle_alpha 90.000000
_cell_angle_beta 90.000000
_cell_angle_gamma 90.000000
_cell_volume 5199.831523
_symmetry_space_group_name_H-M "P N 3"
_symmetry_group_IT_number 201
_space_group.IT_coordinate_system_code '2'
_symmetry_cell_setting 'cubic'
loop_
_space_group_symop_operation_xyz
x,y,z
z,x,y
y,z,x
1/2-y,1/2-z,x
z,1/2-x,1/2-y
1/2-y,z,1/2-x
1/2-z,1/2-x,y
1/2-z,x,1/2-y
y,1/2-z,1/2-x
1/2-x,1/2-y,z
x,1/2-y,1/2-z
1/2-x,y,1/2-z
-x,-y,-z
-z,-x,-y
-y,-z,-x
1/2+y,1/2+z,-x
-z,1/2+x,1/2+y
1/2+y,-z,1/2+x
1/2+z,1/2+x,-y
1/2+z,-x,1/2+y
-y,1/2+z,1/2+x
1/2+x,1/2+y,-z
-x,1/2+y,1/2+z
1/2+x,-y,1/2+z
loop_
_atom_site_type_symbol
_atom_site_label
_atom_site_fract_x
_atom_site_fract_y
_atom_site_fract_z
Si Si1 0.750000 0.034708 0.750000
Si Si2 0.552755 0.947247 0.552754
Si Si3 0.641711 0.426212 0.489014
Si Si4 0.373543 0.912229 0.356066
Si Si5 0.787859 0.166997 0.996315
Si Si6 0.377650 0.164997 0.030733
O O1 0.674397 0.083019 0.724911
O O2 0.761468 0.980220 0.675867
O O3 0.495986 0.887818 0.597962
O O4 0.500000 0.000000 0.500000
O O5 0.566159 0.371260 0.499369
O O6 0.719797 0.383374 0.464054
O O7 0.648898 0.451237 0.578616
O O8 0.446181 0.860019 0.332806
O O9 0.317466 0.870774 0.417263
O O10 0.750000 0.250000 0.979157
O O11 0.320893 0.095170 0.056690
#
# Coordination Sequence:
#
# PCOD8330922 Si02
#       6
#    12   8  24  24  24  24
#     4  12  28  44  71 109 152 188 240 320 380 461
#     4  12  24  48  87 108 147 207 276 336 360 495
#     4  12  22  41  72 103 135 183 244 305 362 440
#     4  12  27  49  73 112 148 203 263 311 396 457
#     4  12  27  44  69 102 149 197 249 311 375 460
#     4  10  23  44  69 100 135 176 230 290 365 436
#
# _framework density 22.308413999999999
#
# number of rings (size 3 to 8) (size 9 to 14) (size 15 to 20)
#    0.414    0.000    6.207    1.448    5.793    3.310 
#    1.241    0.000    0.000    0.000    0.000    0.000 
#    0.000    0.000    0.000    0.000    0.000    0.000 
#
# Total GULP energy -1437268.096911 kJ/mol
# GULP energy per Si atom -12390.242215 kJ/mol
# Density = 2.225764 g / cm^3
# Si number density = 22.308414 Si / 1000 Ang^3
#
#
#
# Elastic Constant Matrix: (Units=GPa)
#
#
# Indices 1 2 3 4 5 6 
#
# 1 93.2130 35.8922 35.8923 0.0000 0.0000 0.0000
# 2 35.8922 93.2121 35.8926 0.0000 0.0000 0.0000
# 3 35.8923 35.8926 93.2133 0.0000 0.0000 0.0000
# 4 0.0000 0.0000 0.0000 42.4983 0.0000 0.0000
# 5 0.0000 0.0000 0.0000 0.0000 42.4984 0.0000
# 6 0.0000 0.0000 0.0000 0.0000 0.0000 42.4983
#
#
#
# Elastic Compliance Matrix: (Units=1/GPa)
#
#
# Indices 1 2 3 4 5 6 
#
# 1 0.013651 -0.003795 -0.003795 0.000000 0.000000 0.000000
# 2 -0.003795 0.013651 -0.003795 0.000000 0.000000 0.000000
# 3 -0.003795 -0.003795 0.013651 0.000000 0.000000 0.000000
# 4 0.000000 0.000000 0.000000 0.023530 0.000000 0.000000
# 5 0.000000 0.000000 0.000000 0.000000 0.023530 0.000000
# 6 0.000000 0.000000 0.000000 0.000000 0.000000 0.023530
#
#
# Mechanical properties :
#
#
# Convention : Reuss Voigt Hill
#
# Bulk Modulus (GPa) = 54.99917 54.99917 54.99917
# Shear Modulus (GPa) = 35.61909 36.96308 36.29109
#
# Velocity S-wave (km/s) = 4.00017 4.07493 4.03772
# Velocity P-wave (km/s) = 6.78547 6.84453 6.81507
#
# Compressibility (1/GPa) = 0.01818209
#
# Stress axis : x y z
#
# Youngs Moduli (GPa) = 73.25632 73.25528 73.25637
#
# Poissons Ratio (x) = 0.27801 0.27801
# Poissons Ratio (y) = 0.27801 0.27801
# Poissons Ratio (z) = 0.27801 0.27801
#
# Static dielectric constant tensor:
#      x y z
#    x 3.992200 0.000000 0.000000 
#    y 0.000000 3.992180 0.000000 
#    z 0.000000 0.000000 3.992190 
# 
# 
# High freq. dielectric constant tensor:
#      x y z
#    x 1.878070 0.000000 0.000000 
#    y 0.000000 1.878070 0.000000 
#    z 0.000000 0.000000 1.878070 
# 
# From -- ./inp_files/655.got.cif
#   From: 2010.03.12/outbox.cif.g09.slc.cpg/sg201_cif.got.tgz:655.got - 2010.03.30 09:02:05.
