data_PCOD8330078
_publ_section_title
;
Structure prediction by ZEFSAII (Michael W. Deem and Ramdas Pophale) SiO2 
 PCOD8330078
Probable space group: P 63/M C M
;
_chemical_formula_sum "Si O2"
_cell_formula_units_Z 120
_cell_length_a 22.609196
_cell_length_b 22.609196
_cell_length_c 14.813770
_cell_angle_alpha 90.000000
_cell_angle_beta 90.000000
_cell_angle_gamma 120.000000
_cell_volume 6557.925320
_symmetry_space_group_name_H-M "P 63/M C M"
_symmetry_group_IT_number 193
_symmetry_cell_setting 'hexagonal'
loop_
_space_group_symop_operation_xyz
x,y,z
x-y,x,1/2+z
-y,x-y,z
-x,-y,1/2+z
-x+y,-x,z
y,-x+y,1/2+z
x-y,-y,1/2-z
-x,-x+y,1/2-z
y,x,1/2-z
-y,-x,-z
-x+y,y,-z
x,x-y,-z
-x,-y,-z
-x+y,-x,1/2-z
y,-x+y,-z
x,y,1/2-z
x-y,x,-z
-y,x-y,1/2-z
-x+y,y,1/2+z
x,x-y,1/2+z
-y,-x,1/2+z
y,x,z
x-y,-y,z
-x,-x+y,z
loop_
_atom_site_type_symbol
_atom_site_label
_atom_site_fract_x
_atom_site_fract_y
_atom_site_fract_z
Si Si1 0.177230 0.366054 0.852641
Si Si2 0.760722 0.486431 0.402751
Si Si3 0.925382 0.403190 0.443161
Si Si4 0.729088 0.649609 0.493570
Si Si5 0.802584 0.387290 0.149306
O O1 0.161284 0.335382 0.750000
O O2 0.208354 0.447569 0.839300
O O3 0.109141 0.336252 0.914514
O O4 0.229254 0.347235 0.902902
O O5 0.758012 0.516024 0.500000
O O6 0.804420 0.447636 0.411829
O O7 0.687168 0.425990 0.370098
O O8 0.923204 0.461602 0.500000
O O9 0.910113 0.336832 0.502510
O O10 0.870023 0.381344 0.364260
O O11 0.000000 0.433167 0.398054
O O12 0.707065 0.707065 0.485535
O O13 0.798984 0.409919 0.250000
#
# Coordination Sequence:
#
# PCOD8330078 Si02
#       5
#    24  24  24  24  24
#     4  11  21  37  58  83 112 145 186 233 279 333
#     4  12  22  37  52  70 100 140 178 227 293 352
#     4  10  20  35  54  72  98 136 177 220 274 337
#     4  10  21  38  58  82 112 147 186 230 282 337
#     4  12  23  34  50  74  98 126 174 228 282 343
#
# _framework density 18.298469000000001
#
# number of rings (size 3 to 8) (size 9 to 14) (size 15 to 20)
#    0.000    1.000    4.000    5.200    0.000    1.200 
#    0.000    2.000    0.000    6.000    0.000    0.000 
#    0.000    0.000    0.000   19.200    0.000   41.600 
#
# Total GULP energy -1487612.651337 kJ/mol
# GULP energy per Si atom -12396.772094 kJ/mol
# Density = 1.825682 g / cm^3
# Si number density = 18.298469 Si / 1000 Ang^3
#
#
#
# Elastic Constant Matrix: (Units=GPa)
#
#
# Indices 1 2 3 4 5 6 
#
# 1 90.2338 40.7529 30.2788 0.0000 0.0000 0.0000
# 2 40.7529 90.2338 30.2788 0.0000 0.0000 0.0000
# 3 30.2788 30.2788 105.3284 0.0000 0.0000 0.0000
# 4 0.0000 0.0000 0.0000 14.9271 0.0000 0.0000
# 5 0.0000 0.0000 0.0000 0.0000 14.9271 0.0000
# 6 0.0000 0.0000 0.0000 0.0000 0.0000 24.7404
#
#
#
# Elastic Compliance Matrix: (Units=1/GPa)
#
#
# Indices 1 2 3 4 5 6 
#
# 1 0.014507 -0.005703 -0.002531 0.000000 0.000000 0.000000
# 2 -0.005703 0.014507 -0.002531 0.000000 0.000000 0.000000
# 3 -0.002531 -0.002531 0.010949 0.000000 0.000000 0.000000
# 4 0.000000 0.000000 0.000000 0.066992 0.000000 0.000000
# 5 0.000000 0.000000 0.000000 0.000000 0.066992 0.000000
# 6 0.000000 0.000000 0.000000 0.000000 0.000000 0.040420
#
#
# Mechanical properties :
#
#
# Convention : Reuss Voigt Hill
#
# Bulk Modulus (GPa) = 54.24705 54.26857 54.25781
# Shear Modulus (GPa) = 20.65757 23.21796 21.93777
#
# Velocity S-wave (km/s) = 3.36359 3.56595 3.46625
# Velocity P-wave (km/s) = 6.69291 6.83202 6.76282
#
# Compressibility (1/GPa) = 0.01843418
#
# Stress axis : x y z
#
# Youngs Moduli (GPa) = 68.93146 68.93146 91.32990
#
# Poissons Ratio (x) = 0.39309 0.23116
# Poissons Ratio (y) = 0.39309 0.23116
# Poissons Ratio (z) = 0.17447 0.17447
#
# Static dielectric constant tensor:
#      x y z
#    x 3.387920 0.000000 0.000000 
#    y 0.000000 3.387920 0.000000 
#    z 0.000000 0.000000 3.184890 
# 
# 
# High freq. dielectric constant tensor:
#      x y z
#    x 1.691820 0.000000 0.000000 
#    y 0.000000 1.691820 0.000000 
#    z 0.000000 0.000000 1.700820 
# 
# From -- ./inp_files/4001.got.cif
#   From: 2010.03.12/outbox.cif.g09.slc.cpg/sg193_3_cif.got.tgz:4001.got - 2010.04.01 12:20:39.
