data_PCOD8330833
_publ_section_title
;
Structure prediction by ZEFSAII (Michael W. Deem and Ramdas Pophale) SiO2 
 PCOD8330833
Probable space group: P 63/M M C
;
_chemical_formula_sum "Si O2"
_cell_formula_units_Z 64
_cell_length_a 15.889314
_cell_length_b 15.889314
_cell_length_c 21.052542
_cell_angle_alpha 90.000000
_cell_angle_beta 90.000000
_cell_angle_gamma 120.000000
_cell_volume 4603.047634
_symmetry_space_group_name_H-M "P 63/M M C"
_symmetry_group_IT_number 194
_symmetry_cell_setting 'hexagonal'
loop_
_space_group_symop_operation_xyz
x,y,z
x-y,x,1/2+z
-y,x-y,z
-x,-y,1/2+z
-x+y,-x,z
y,-x+y,1/2+z
x-y,-y,-z
-x,-x+y,-z
y,x,-z
-y,-x,1/2-z
-x+y,y,1/2-z
x,x-y,1/2-z
-x,-y,-z
-x+y,-x,1/2-z
y,-x+y,-z
x,y,1/2-z
x-y,x,-z
-y,x-y,1/2-z
-x+y,y,z
x,x-y,z
-y,-x,z
y,x,1/2+z
x-y,-y,1/2+z
-x,-x+y,1/2+z
loop_
_atom_site_type_symbol
_atom_site_label
_atom_site_fract_x
_atom_site_fract_y
_atom_site_fract_z
Si Si1 0.666667 0.333334 0.675128
Si Si2 0.222780 0.445559 0.325149
Si Si3 0.436149 0.370437 0.906125
Si Si4 0.332785 0.858654 0.953437
O O1 0.666667 0.333334 0.750000
O O2 0.721548 0.443096 0.650340
O O3 0.216025 0.432050 0.250000
O O4 0.114438 0.398759 0.354006
O O5 0.536045 0.463956 0.883220
O O6 0.353210 0.399883 0.913176
O O7 0.452380 0.331373 0.972326
O O8 0.415844 0.831688 0.939316
O O9 0.229708 0.770293 0.931627
#
# Coordination Sequence:
#
# PCOD8330833 Si02
#       4
#     4  12  24  24
#     4   9  18  24  36  57  81 123 144 150 202 263
#     4  11  18  26  40  60  87 114 139 169 208 256
#     4   9  17  26  37  59  87 112 141 173 205 246
#     4   9  16  26  41  59  83 115 144 173 206 240
#
# _framework density 13.903831
#
# number of rings (size 3 to 8) (size 9 to 14) (size 15 to 20)
#    0.000    2.625    3.750    2.625    0.000    0.000 
#    0.000    0.000    0.000    1.125    0.000    0.000 
#    1.875    6.375    0.000    0.000    0.000    0.000 
#
# Total GULP energy -793388.945764 kJ/mol
# GULP energy per Si atom -12396.702278 kJ/mol
# Density = 1.387219 g / cm^3
# Si number density = 13.903831 Si / 1000 Ang^3
#
#
#
# Elastic Constant Matrix: (Units=GPa)
#
#
# Indices 1 2 3 4 5 6 
#
# 1 95.8286 46.8994 37.9265 0.0000 0.0000 0.0000
# 2 46.8994 95.8287 37.9264 0.0000 0.0000 0.0000
# 3 37.9265 37.9264 66.2038 0.0000 0.0000 0.0000
# 4 0.0000 0.0000 0.0000 17.6734 0.0000 0.0000
# 5 0.0000 0.0000 0.0000 0.0000 17.6733 0.0000
# 6 0.0000 0.0000 0.0000 0.0000 0.0000 24.4646
#
#
#
# Elastic Compliance Matrix: (Units=1/GPa)
#
#
# Indices 1 2 3 4 5 6 
#
# 1 0.015255 -0.005182 -0.005771 0.000000 0.000000 0.000000
# 2 -0.005182 0.015255 -0.005771 0.000000 0.000000 0.000000
# 3 -0.005771 -0.005771 0.021717 0.000000 0.000000 0.000000
# 4 0.000000 0.000000 0.000000 0.056582 0.000000 0.000000
# 5 0.000000 0.000000 0.000000 0.000000 0.056582 0.000000
# 6 0.000000 0.000000 0.000000 0.000000 0.000000 0.040875
#
#
# Mechanical properties :
#
#
# Convention : Reuss Voigt Hill
#
# Bulk Modulus (GPa) = 53.24729 55.92950 54.58840
# Shear Modulus (GPa) = 20.32729 20.96951 20.64840
#
# Velocity S-wave (km/s) = 3.82775 3.88775 3.85786
# Velocity P-wave (km/s) = 7.61023 7.77599 7.69356
#
# Compressibility (1/GPa) = 0.01878030
#
# Stress axis : x y z
#
# Youngs Moduli (GPa) = 65.55046 65.55057 46.04772
#
# Poissons Ratio (x) = 0.33970 0.26573
# Poissons Ratio (y) = 0.33970 0.26572
# Poissons Ratio (z) = 0.37827 0.37827
#
# Static dielectric constant tensor:
#      x y z
#    x 2.662060 0.000000 0.000000 
#    y 0.000000 2.662060 0.000000 
#    z 0.000000 0.000000 2.463830 
# 
# 
# High freq. dielectric constant tensor:
#      x y z
#    x 1.513550 0.000000 0.000000 
#    y 0.000000 1.513550 0.000000 
#    z 0.000000 0.000000 1.505490 
# 
# From -- ./inp_files/7466.got.cif
#   From: 2010.03.12/outbox.cif.g09.slc.cpg/sg194_4_cif.got.tgz:7466.got - 2010.04.01 12:26:19.
