data_PCOD8330920
_publ_section_title
;
Structure prediction by ZEFSAII (Michael W. Deem and Ramdas Pophale) SiO2 
 PCOD8330920
Probable space group: P N 3
;
_chemical_formula_sum "Si O2"
_cell_formula_units_Z 120
_cell_length_a 17.299318
_cell_length_b 17.299318
_cell_length_c 17.299318
_cell_angle_alpha 90.000000
_cell_angle_beta 90.000000
_cell_angle_gamma 90.000000
_cell_volume 5177.104677
_symmetry_space_group_name_H-M "P N 3"
_symmetry_group_IT_number 201
_space_group.IT_coordinate_system_code '2'
_symmetry_cell_setting 'cubic'
loop_
_space_group_symop_operation_xyz
x,y,z
z,x,y
y,z,x
1/2-y,1/2-z,x
z,1/2-x,1/2-y
1/2-y,z,1/2-x
1/2-z,1/2-x,y
1/2-z,x,1/2-y
y,1/2-z,1/2-x
1/2-x,1/2-y,z
x,1/2-y,1/2-z
1/2-x,y,1/2-z
-x,-y,-z
-z,-x,-y
-y,-z,-x
1/2+y,1/2+z,-x
-z,1/2+x,1/2+y
1/2+y,-z,1/2+x
1/2+z,1/2+x,-y
1/2+z,-x,1/2+y
-y,1/2+z,1/2+x
1/2+x,1/2+y,-z
-x,1/2+y,1/2+z
1/2+x,-y,1/2+z
loop_
_atom_site_type_symbol
_atom_site_label
_atom_site_fract_x
_atom_site_fract_y
_atom_site_fract_z
Si Si1 0.505064 0.388456 0.790847
Si Si2 0.427762 0.301337 0.319720
Si Si3 0.781805 0.825582 0.082006
Si Si4 0.118030 0.969687 0.618586
Si Si5 0.789397 0.433262 0.548039
O O1 0.596467 0.367999 0.784924
O O2 0.464114 0.370574 0.710044
O O3 0.492435 0.479325 0.814022
O O4 0.466872 0.331643 0.851902
O O5 0.404287 0.387645 0.289529
O O6 0.394033 0.250000 0.250000
O O7 0.517410 0.284835 0.333536
O O8 0.750000 0.750000 0.130605
O O9 0.865624 0.813641 0.040592
O O10 0.092893 0.055304 0.590750
O O11 0.075884 0.949932 0.697742
#
# Coordination Sequence:
#
# PCOD8330920 Si02
#       5
#    24  24  24  24  24
#     4  11  23  43  65  94 130 181 225 278 344 409
#     4   9  20  35  55  85 132 179 218 272 333 408
#     4  11  24  41  64  98 136 173 233 287 337 419
#     4  10  22  42  72  96 129 167 218 284 355 417
#     4  11  23  43  67  93 134 180 226 281 340 415
#
# _framework density 23.178979000000002
#
# number of rings (size 3 to 8) (size 9 to 14) (size 15 to 20)
#    0.400    1.200    2.000    2.400    5.600    0.000 
#    1.200    1.000    0.000    0.000    0.000    0.000 
#    0.000    0.000    0.000    0.000    0.000    0.000 
#
# Total GULP energy -1486726.804679 kJ/mol
# GULP energy per Si atom -12389.390039 kJ/mol
# Density = 2.312622 g / cm^3
# Si number density = 23.178979 Si / 1000 Ang^3
#
#
#
# Elastic Constant Matrix: (Units=GPa)
#
#
# Indices 1 2 3 4 5 6 
#
# 1 70.0235 9.7251 9.7251 0.0000 0.0000 0.0000
# 2 9.7251 70.0235 9.7251 0.0000 0.0000 0.0000
# 3 9.7251 9.7251 70.0235 0.0000 0.0000 0.0000
# 4 0.0000 0.0000 0.0000 26.9697 0.0000 0.0000
# 5 0.0000 0.0000 0.0000 0.0000 26.9697 0.0000
# 6 0.0000 0.0000 0.0000 0.0000 0.0000 26.9697
#
#
#
# Elastic Compliance Matrix: (Units=1/GPa)
#
#
# Indices 1 2 3 4 5 6 
#
# 1 0.014782 -0.001803 -0.001803 0.000000 0.000000 0.000000
# 2 -0.001803 0.014782 -0.001803 0.000000 0.000000 0.000000
# 3 -0.001803 -0.001803 0.014782 0.000000 0.000000 0.000000
# 4 0.000000 0.000000 0.000000 0.037079 0.000000 0.000000
# 5 0.000000 0.000000 0.000000 0.000000 0.037079 0.000000
# 6 0.000000 0.000000 0.000000 0.000000 0.000000 0.037079
#
#
# Mechanical properties :
#
#
# Convention : Reuss Voigt Hill
#
# Bulk Modulus (GPa) = 29.82458 29.82458 29.82458
# Shear Modulus (GPa) = 28.15745 28.24147 28.19946
#
# Velocity S-wave (km/s) = 3.48916 3.49436 3.49176
# Velocity P-wave (km/s) = 5.39697 5.40146 5.39921
#
# Compressibility (1/GPa) = 0.03352939
#
# Stress axis : x y z
#
# Youngs Moduli (GPa) = 67.65160 67.65160 67.65160
#
# Poissons Ratio (x) = 0.12195 0.12195
# Poissons Ratio (y) = 0.12195 0.12195
# Poissons Ratio (z) = 0.12195 0.12195
#
# Static dielectric constant tensor:
#      x y z
#    x 4.190280 0.000000 0.000000 
#    y 0.000000 4.190280 0.000000 
#    z 0.000000 0.000000 4.190280 
# 
# 
# High freq. dielectric constant tensor:
#      x y z
#    x 1.911520 0.000000 0.000000 
#    y 0.000000 1.911520 0.000000 
#    z 0.000000 0.000000 1.911520 
# 
# From -- ./inp_files/638.got.cif
#   From: 2010.03.12/outbox.cif.g09.slc.cpg/sg201_cif.got.tgz:638.got - 2010.03.30 09:02:05.
