data_PCOD8330204
_publ_section_title
;
Structure prediction by ZEFSAII (Michael W. Deem and Ramdas Pophale) SiO2 
 PCOD8330204
Probable space group: P 63/M C M
;
_chemical_formula_sum "Si O2"
_cell_formula_units_Z 114
_cell_length_a 20.384525
_cell_length_b 20.384525
_cell_length_c 14.377993
_cell_angle_alpha 90.000000
_cell_angle_beta 90.000000
_cell_angle_gamma 120.000000
_cell_volume 5174.043689
_symmetry_space_group_name_H-M "P 63/M C M"
_symmetry_group_IT_number 193
_symmetry_cell_setting 'hexagonal'
loop_
_space_group_symop_operation_xyz
x,y,z
x-y,x,1/2+z
-y,x-y,z
-x,-y,1/2+z
-x+y,-x,z
y,-x+y,1/2+z
x-y,-y,1/2-z
-x,-x+y,1/2-z
y,x,1/2-z
-y,-x,-z
-x+y,y,-z
x,x-y,-z
-x,-y,-z
-x+y,-x,1/2-z
y,-x+y,-z
x,y,1/2-z
x-y,x,-z
-y,x-y,1/2-z
-x+y,y,1/2+z
x,x-y,1/2+z
-y,-x,1/2+z
y,x,z
x-y,-y,z
-x,-x+y,z
loop_
_atom_site_type_symbol
_atom_site_label
_atom_site_fract_x
_atom_site_fract_y
_atom_site_fract_z
Si Si1 0.000000 0.326050 0.066239
Si Si2 0.420117 0.588595 0.353866
Si Si3 0.759452 0.918226 0.250000
Si Si4 0.000000 0.765802 0.750000
Si Si5 0.748290 0.242380 0.139114
Si Si6 0.000000 0.525931 0.897525
Si Si7 0.880098 0.664623 0.430423
O O1 0.000000 0.276051 0.154327
O O2 0.000000 0.396332 0.114155
O O3 0.931123 0.287236 0.994350
O O4 0.405246 0.604843 0.250000
O O5 0.470489 0.671586 0.399811
O O6 0.337458 0.542754 0.400928
O O7 0.460457 0.537564 0.351819
O O8 0.775645 0.849155 0.250000
O O9 0.713262 0.919796 0.160148
O O10 0.837541 0.000000 0.250000
O O11 0.750312 0.237552 0.250000
O O12 0.785840 0.196381 0.098738
O O13 0.000000 0.500000 0.000000
O O14 0.855894 0.711788 0.500000
#
# Coordination Sequence:
#
# PCOD8330204 Si02
#       7
#    12  24  12   6  24  12  24
#     4  12  26  41  71 100 144 188 233 295 357 426
#     4  10  22  39  63  92 132 183 235 297 361 425
#     4  12  26  48  76 107 145 180 229 281 356 437
#     4  12  28  48  76 112 144 186 232 288 360 452
#     4  10  21  39  64  95 136 185 247 301 363 432
#     4  12  25  41  59  96 141 178 240 302 364 421
#     4  12  23  41  68 103 138 183 234 291 351 423
#
# _framework density 22.033055999999998
#
# number of rings (size 3 to 8) (size 9 to 14) (size 15 to 20)
#    0.000    0.842    4.211    3.263    1.474    1.684 
#    0.316    1.053    0.000    2.526    0.000    2.211 
#    0.000    0.000    0.000    0.000    0.000    0.000 
#
# Total GULP energy -1412527.173096 kJ/mol
# GULP energy per Si atom -12390.589238 kJ/mol
# Density = 2.198291 g / cm^3
# Si number density = 22.033056 Si / 1000 Ang^3
#
#
#
# Elastic Constant Matrix: (Units=GPa)
#
#
# Indices 1 2 3 4 5 6 
#
# 1 112.3117 34.8515 22.5079 0.0000 0.0000 0.0000
# 2 34.8515 112.3117 22.5079 0.0000 0.0000 0.0000
# 3 22.5079 22.5079 115.9290 0.0000 0.0000 0.0000
# 4 0.0000 0.0000 0.0000 13.3358 0.0000 0.0000
# 5 0.0000 0.0000 0.0000 0.0000 13.3358 0.0000
# 6 0.0000 0.0000 0.0000 0.0000 0.0000 38.7301
#
#
#
# Elastic Compliance Matrix: (Units=1/GPa)
#
#
# Indices 1 2 3 4 5 6 
#
# 1 0.010067 -0.002843 -0.001403 0.000000 0.000000 0.000000
# 2 -0.002843 0.010067 -0.001403 0.000000 0.000000 0.000000
# 3 -0.001403 -0.001403 0.009171 0.000000 0.000000 0.000000
# 4 0.000000 0.000000 0.000000 0.074986 0.000000 0.000000
# 5 0.000000 0.000000 0.000000 0.000000 0.074986 0.000000
# 6 0.000000 0.000000 0.000000 0.000000 0.000000 0.025820
#
#
# Mechanical properties :
#
#
# Convention : Reuss Voigt Hill
#
# Bulk Modulus (GPa) = 55.52888 55.58743 55.55815
# Shear Modulus (GPa) = 22.48243 30.45934 26.47088
#
# Velocity S-wave (km/s) = 3.19783 3.72215 3.46991
# Velocity P-wave (km/s) = 6.23635 6.61486 6.42839
#
# Compressibility (1/GPa) = 0.01800865
#
# Stress axis : x y z
#
# Youngs Moduli (GPa) = 99.33409 99.33409 109.04408
#
# Poissons Ratio (x) = 0.28239 0.15295
# Poissons Ratio (y) = 0.28239 0.15295
# Poissons Ratio (z) = 0.13933 0.13933
#
# Static dielectric constant tensor:
#      x y z
#    x 0.446990 0.000000 0.000000 
#    y 0.000000 0.446990 0.000000 
#    z 0.000000 0.000000 4.005350 
# 
# 
# High freq. dielectric constant tensor:
#      x y z
#    x 1.863250 0.000000 0.000000 
#    y 0.000000 1.863250 0.000000 
#    z 0.000000 0.000000 1.885780 
# 
# From -- ./inp_files/3859.got.cif
#   From: 2010.03.12/outbox.cif.g09.slc.cpg/sg193_2_cif.got.tgz:3859.got - 2010.04.01 12:20:39.
