data_PCOD8330540
_publ_section_title
;
Structure prediction by ZEFSAII (Michael W. Deem and Ramdas Pophale) SiO2 
 PCOD8330540
Probable space group: P 63/M M C
;
_chemical_formula_sum "Si O2"
_cell_formula_units_Z 168
_cell_length_a 21.133104
_cell_length_b 21.133104
_cell_length_c 24.982937
_cell_angle_alpha 90.000000
_cell_angle_beta 90.000000
_cell_angle_gamma 120.000000
_cell_volume 9662.749148
_symmetry_space_group_name_H-M "P 63/M M C"
_symmetry_group_IT_number 194
_symmetry_cell_setting 'hexagonal'
loop_
_space_group_symop_operation_xyz
x,y,z
x-y,x,1/2+z
-y,x-y,z
-x,-y,1/2+z
-x+y,-x,z
y,-x+y,1/2+z
x-y,-y,-z
-x,-x+y,-z
y,x,-z
-y,-x,1/2-z
-x+y,y,1/2-z
x,x-y,1/2-z
-x,-y,-z
-x+y,-x,1/2-z
y,-x+y,-z
x,y,1/2-z
x-y,x,-z
-y,x-y,1/2-z
-x+y,y,z
x,x-y,z
-y,-x,z
y,x,1/2+z
x-y,-y,1/2+z
-x,-x+y,1/2+z
loop_
_atom_site_type_symbol
_atom_site_label
_atom_site_fract_x
_atom_site_fract_y
_atom_site_fract_z
Si Si1 0.088299 0.615428 0.308339
Si Si2 0.998508 0.859356 0.813706
Si Si3 0.184366 0.520306 0.899926
Si Si4 0.667099 0.484153 0.594907
Si Si5 0.533456 0.917222 0.503577
Si Si6 0.435775 0.073188 0.312949
Si Si7 0.702079 0.781129 0.813511
O O1 0.094223 0.653275 0.250000
O O2 0.114857 0.557429 0.301450
O O3 0.142812 0.673445 0.351536
O O4 0.003939 0.570784 0.327690
O O5 0.995541 0.860199 0.750000
O O6 0.921768 0.843535 0.838742
O O7 0.015050 0.796292 0.833538
O O8 0.062180 0.937821 0.834038
O O9 0.255734 0.511467 0.897461
O O10 0.209375 0.604688 0.913498
O O11 0.141600 0.500852 0.843341
O O12 0.126736 0.465270 0.943831
O O13 0.738512 0.477023 0.588864
O O14 0.596821 0.403180 0.595475
O O15 0.662279 0.531850 0.546903
O O16 0.462054 0.924107 0.505148
O O17 0.603472 0.000000 0.500000
O O18 0.450174 0.090590 0.250000
O O19 0.359672 0.063456 0.334250
O O20 0.701939 0.783973 0.750000
O O21 0.686399 0.843200 0.836563
#
# Coordination Sequence:
#
# PCOD8330540 Si02
#       7
#    24  24  24  24  24  24  24
#     4   9  18  32  49  69  93 123 162 204 240 279
#     4   8  12  18  30  49  73 100 130 167 214 268
#     4  11  22  34  49  71  99 126 154 195 248 301
#     4  10  19  32  51  74 100 127 155 191 240 298
#     4   9  18  33  53  74  94 120 155 192 230 278
#     4  10  19  32  49  65  85 122 169 209 244 286
#     4   8  14  24  37  54  76 103 140 185 227 268
#
# _framework density 17.386354999999998
#
# number of rings (size 3 to 8) (size 9 to 14) (size 15 to 20)
#    0.000    2.714    0.000    3.429    0.000    4.857 
#    0.000    2.143    0.000    4.286    0.000    0.000 
#    0.000    0.000    0.000    0.000    0.000    0.000 
#
# Total GULP energy -2081643.722052 kJ/mol
# GULP energy per Si atom -12390.736441 kJ/mol
# Density = 1.734678 g / cm^3
# Si number density = 17.386355 Si / 1000 Ang^3
#
#
#
# Elastic Constant Matrix: (Units=GPa)
#
#
# Indices 1 2 3 4 5 6 
#
# 1 87.1851 29.0475 36.2204 0.0000 0.0000 0.0000
# 2 29.0475 87.1851 36.2204 0.0000 0.0000 0.0000
# 3 36.2204 36.2204 82.1525 0.0000 0.0000 0.0000
# 4 0.0000 0.0000 0.0000 17.9147 0.0000 0.0000
# 5 0.0000 0.0000 0.0000 0.0000 17.9147 0.0000
# 6 0.0000 0.0000 0.0000 0.0000 0.0000 29.0688
#
#
#
# Elastic Compliance Matrix: (Units=1/GPa)
#
#
# Indices 1 2 3 4 5 6 
#
# 1 0.014532 -0.002669 -0.005230 0.000000 0.000000 0.000000
# 2 -0.002669 0.014532 -0.005230 0.000000 0.000000 0.000000
# 3 -0.005230 -0.005230 0.016785 0.000000 0.000000 0.000000
# 4 0.000000 0.000000 0.000000 0.055820 0.000000 0.000000
# 5 0.000000 0.000000 0.000000 0.000000 0.055820 0.000000
# 6 0.000000 0.000000 0.000000 0.000000 0.000000 0.034401
#
#
# Mechanical properties :
#
#
# Convention : Reuss Voigt Hill
#
# Bulk Modulus (GPa) = 51.04797 51.05547 51.05172
# Shear Modulus (GPa) = 22.25404 23.31528 22.78466
#
# Velocity S-wave (km/s) = 3.58155 3.66595 3.62400
# Velocity P-wave (km/s) = 6.82114 6.88099 6.85113
#
# Compressibility (1/GPa) = 0.01958942
#
# Stress axis : x y z
#
# Youngs Moduli (GPa) = 68.81415 68.81415 59.57850
#
# Poissons Ratio (x) = 0.18364 0.31162
# Poissons Ratio (y) = 0.18364 0.31162
# Poissons Ratio (z) = 0.35993 0.35993
#
# Static dielectric constant tensor:
#      x y z
#    x 3.311130 0.000000 0.000000 
#    y 0.000000 3.311130 0.000000 
#    z 0.000000 0.000000 3.128390 
# 
# 
# High freq. dielectric constant tensor:
#      x y z
#    x 1.661920 0.000000 0.000000 
#    y 0.000000 1.661920 0.000000 
#    z 0.000000 0.000000 1.640070 
# 
# From -- ./inp_files/9800.got.cif
#   From: 2010.03.12/outbox.cif.g09.slc.cpg/sg194_5_cif.got.tgz:9800.got - 2010.04.01 12:26:19.
