data_PCOD8330171
_publ_section_title
;
Structure prediction by ZEFSAII (Michael W. Deem and Ramdas Pophale) SiO2 
 PCOD8330171
Probable space group: P 63/M C M
;
_chemical_formula_sum "Si O2"
_cell_formula_units_Z 132
_cell_length_a 17.231866
_cell_length_b 17.231866
_cell_length_c 25.674797
_cell_angle_alpha 90.000000
_cell_angle_beta 90.000000
_cell_angle_gamma 120.000000
_cell_volume 6602.406623
_symmetry_space_group_name_H-M "P 63/M C M"
_symmetry_group_IT_number 193
_symmetry_cell_setting 'hexagonal'
loop_
_space_group_symop_operation_xyz
x,y,z
x-y,x,1/2+z
-y,x-y,z
-x,-y,1/2+z
-x+y,-x,z
y,-x+y,1/2+z
x-y,-y,1/2-z
-x,-x+y,1/2-z
y,x,1/2-z
-y,-x,-z
-x+y,y,-z
x,x-y,-z
-x,-y,-z
-x+y,-x,1/2-z
y,-x+y,-z
x,y,1/2-z
x-y,x,-z
-y,x-y,1/2-z
-x+y,y,1/2+z
x,x-y,1/2+z
-y,-x,1/2+z
y,x,z
x-y,-y,z
-x,-x+y,z
loop_
_atom_site_type_symbol
_atom_site_label
_atom_site_fract_x
_atom_site_fract_y
_atom_site_fract_z
Si Si1 0.401437 0.780879 0.250000
Si Si2 0.414356 0.518693 0.658098
Si Si3 0.775015 0.162875 0.871621
Si Si4 0.265298 0.364913 0.515754
Si Si5 0.544675 0.647006 0.582875
Si Si6 0.103367 0.207010 0.309988
O O1 0.291845 0.726611 0.250000
O O2 0.441491 0.844271 0.300134
O O3 0.463152 0.463152 0.672200
O O4 0.307963 0.454018 0.664122
O O5 0.446774 0.567456 0.601197
O O6 0.722189 0.109758 0.923690
O O7 0.838052 0.266855 0.882141
O O8 0.832806 0.123594 0.846190
O O9 0.162270 0.324539 0.500000
O O10 0.286822 0.286822 0.503468
O O11 0.329053 0.451776 0.478903
O O12 0.617310 0.617310 0.595475
O O13 0.123075 0.239136 0.250000
O O14 0.164165 0.164165 0.327068
O O15 0.000000 0.131472 0.317241
#
# Coordination Sequence:
#
# PCOD8330171 Si02
#       6
#    12  24  24  24  24  24
#     4  10  23  40  58  76 108 150 189 224 292 348
#     4  11  22  37  58  85 113 147 192 245 291 343
#     4  11  21  36  59  86 116 151 196 246 295 349
#     4   9  18  34  56  83 113 150 193 237 293 351
#     4   9  20  38  58  81 115 155 193 236 289 354
#     4  10  21  37  58  85 119 159 201 246 297 354
#
# _framework density 19.992709000000001
#
# number of rings (size 3 to 8) (size 9 to 14) (size 15 to 20)
#    0.182    1.818    0.000    3.727    1.273    2.182 
#    2.727    2.727    0.000    0.182    0.000    0.000 
#    0.000    0.000    0.000    0.000    0.000    0.000 
#
# Total GULP energy -1635902.753277 kJ/mol
# GULP energy per Si atom -12393.202676 kJ/mol
# Density = 1.994720 g / cm^3
# Si number density = 19.992709 Si / 1000 Ang^3
#
#
#
# Elastic Constant Matrix: (Units=GPa)
#
#
# Indices 1 2 3 4 5 6 
#
# 1 97.9884 46.3925 40.9249 0.0000 0.0000 0.0000
# 2 46.3925 97.9884 40.9249 0.0000 0.0000 0.0000
# 3 40.9249 40.9249 99.6435 0.0000 0.0000 0.0000
# 4 0.0000 0.0000 0.0000 21.9563 0.0000 0.0000
# 5 0.0000 0.0000 0.0000 0.0000 21.9563 0.0000
# 6 0.0000 0.0000 0.0000 0.0000 0.0000 25.7980
#
#
#
# Elastic Compliance Matrix: (Units=1/GPa)
#
#
# Indices 1 2 3 4 5 6 
#
# 1 0.014205 -0.005177 -0.003708 0.000000 0.000000 0.000000
# 2 -0.005177 0.014205 -0.003708 0.000000 0.000000 0.000000
# 3 -0.003708 -0.003708 0.013082 0.000000 0.000000 0.000000
# 4 0.000000 0.000000 0.000000 0.045545 0.000000 0.000000
# 5 0.000000 0.000000 0.000000 0.000000 0.045545 0.000000
# 6 0.000000 0.000000 0.000000 0.000000 0.000000 0.038763
#
#
# Mechanical properties :
#
#
# Convention : Reuss Voigt Hill
#
# Bulk Modulus (GPa) = 61.32706 61.34501 61.33604
# Shear Modulus (GPa) = 24.75681 25.10064 24.92873
#
# Velocity S-wave (km/s) = 3.52275 3.54713 3.53496
# Velocity P-wave (km/s) = 6.87661 6.89395 6.88528
#
# Compressibility (1/GPa) = 0.01630601
#
# Stress axis : x y z
#
# Youngs Moduli (GPa) = 70.39882 70.39882 76.44311
#
# Poissons Ratio (x) = 0.36443 0.28345
# Poissons Ratio (y) = 0.36443 0.28345
# Poissons Ratio (z) = 0.26104 0.26104
#
# Static dielectric constant tensor:
#      x y z
#    x 3.564680 0.000000 0.000000 
#    y 0.000000 3.564680 0.000000 
#    z 0.000000 0.000000 3.733250 
# 
# 
# High freq. dielectric constant tensor:
#      x y z
#    x 1.778060 0.000000 0.000000 
#    y 0.000000 1.778060 0.000000 
#    z 0.000000 0.000000 1.779600 
# 
# From -- ./inp_files/8307.got.cif
#   From: 2010.03.12/outbox.cif.g09.slc.cpg/sg193_5_cif.got.tgz:8307.got - 2010.04.01 12:20:39.
