data_PCOD8330116
_publ_section_title
;
Structure prediction by ZEFSAII (Michael W. Deem and Ramdas Pophale) SiO2 
 PCOD8330116
Probable space group: P 63/M C M
;
_chemical_formula_sum "Si O2"
_cell_formula_units_Z 132
_cell_length_a 22.856958
_cell_length_b 22.856958
_cell_length_c 15.713529
_cell_angle_alpha 90.000000
_cell_angle_beta 90.000000
_cell_angle_gamma 120.000000
_cell_volume 7109.535443
_symmetry_space_group_name_H-M "P 63/M C M"
_symmetry_group_IT_number 193
_symmetry_cell_setting 'hexagonal'
loop_
_space_group_symop_operation_xyz
x,y,z
x-y,x,1/2+z
-y,x-y,z
-x,-y,1/2+z
-x+y,-x,z
y,-x+y,1/2+z
x-y,-y,1/2-z
-x,-x+y,1/2-z
y,x,1/2-z
-y,-x,-z
-x+y,y,-z
x,x-y,-z
-x,-y,-z
-x+y,-x,1/2-z
y,-x+y,-z
x,y,1/2-z
x-y,x,-z
-y,x-y,1/2-z
-x+y,y,1/2+z
x,x-y,1/2+z
-y,-x,1/2+z
y,x,z
x-y,-y,z
-x,-x+y,z
loop_
_atom_site_type_symbol
_atom_site_label
_atom_site_fract_x
_atom_site_fract_y
_atom_site_fract_z
Si Si1 0.614437 0.834019 0.908784
Si Si2 0.239913 0.162828 0.845309
Si Si3 0.636497 0.077120 0.847660
Si Si4 0.272183 0.749015 0.846319
Si Si5 0.078585 0.921416 0.500000
Si Si6 0.603911 0.421376 0.096029
O O1 0.681071 0.869309 0.851508
O O2 0.587099 0.887059 0.911902
O O3 0.556396 0.764055 0.868350
O O4 0.633070 0.816535 0.000000
O O5 0.216134 0.133271 0.750000
O O6 0.224065 0.224065 0.861176
O O7 0.201735 0.105030 0.914976
O O8 0.661232 0.082136 0.750000
O O9 0.594498 0.116161 0.855928
O O10 0.589419 0.000000 0.875880
O O11 0.254925 0.723245 0.750000
O O12 0.351472 0.795987 0.857578
O O13 0.243298 0.681804 0.903789
O O14 0.000000 0.889776 0.487530
O O15 0.581261 0.418740 0.000000
#
# Coordination Sequence:
#
# PCOD8330116 Si02
#       6
#    24  24  24  24  12  24
#     4  11  20  34  54  84 112 142 183 235 287 334
#     4  10  20  36  59  86 117 152 189 229 275 328
#     4  10  21  38  59  80 106 145 193 238 279 335
#     4  11  21  34  53  76 107 145 187 234 287 346
#     4  10  21  38  60  88 118 150 184 222 268 324
#     4  11  21  35  52  78 110 143 183 232 291 344
#
# _framework density 18.566614000000001
#
# number of rings (size 3 to 8) (size 9 to 14) (size 15 to 20)
#    0.000    1.455    0.909    8.091    0.000    2.182 
#    0.000    0.000    0.000    2.182    0.000    0.000 
#    0.000    0.000    0.000    0.000    0.000    0.000 
#
# Total GULP energy -1636808.611498 kJ/mol
# GULP energy per Si atom -12400.065239 kJ/mol
# Density = 1.852436 g / cm^3
# Si number density = 18.566614 Si / 1000 Ang^3
#
#
#
# Elastic Constant Matrix: (Units=GPa)
#
#
# Indices 1 2 3 4 5 6 
#
# 1 111.3276 58.3269 35.8681 0.0000 0.0000 0.0000
# 2 58.3269 111.3276 35.8681 0.0000 0.0000 0.0000
# 3 35.8681 35.8681 106.5446 0.0000 0.0000 0.0000
# 4 0.0000 0.0000 0.0000 29.8971 0.0000 0.0000
# 5 0.0000 0.0000 0.0000 0.0000 29.8971 0.0000
# 6 0.0000 0.0000 0.0000 0.0000 0.0000 26.5004
#
#
#
# Elastic Compliance Matrix: (Units=1/GPa)
#
#
# Indices 1 2 3 4 5 6 
#
# 1 0.012870 -0.005998 -0.002314 0.000000 0.000000 0.000000
# 2 -0.005998 0.012870 -0.002314 0.000000 0.000000 0.000000
# 3 -0.002314 -0.002314 0.010944 0.000000 0.000000 0.000000
# 4 0.000000 0.000000 0.000000 0.033448 0.000000 0.000000
# 5 0.000000 0.000000 0.000000 0.000000 0.033448 0.000000
# 6 0.000000 0.000000 0.000000 0.000000 0.000000 0.037735
#
#
# Mechanical properties :
#
#
# Convention : Reuss Voigt Hill
#
# Bulk Modulus (GPa) = 64.79142 65.48065 65.13604
# Shear Modulus (GPa) = 29.81344 30.53471 30.17408
#
# Velocity S-wave (km/s) = 4.01153 4.05977 4.03572
# Velocity P-wave (km/s) = 7.51193 7.57101 7.54153
#
# Compressibility (1/GPa) = 0.01543414
#
# Stress axis : x y z
#
# Youngs Moduli (GPa) = 77.69918 77.69918 91.37832
#
# Poissons Ratio (x) = 0.46600 0.21142
# Poissons Ratio (y) = 0.46600 0.21142
# Poissons Ratio (z) = 0.17977 0.17977
#
# Static dielectric constant tensor:
#      x y z
#    x 3.424010 0.000000 0.000000 
#    y 0.000000 3.424010 0.000000 
#    z 0.000000 0.000000 3.487680 
# 
# 
# High freq. dielectric constant tensor:
#      x y z
#    x 1.715700 0.000000 0.000000 
#    y 0.000000 1.715700 0.000000 
#    z 0.000000 0.000000 1.725880 
# 
# From -- ./inp_files/4144.got.cif
#   From: 2010.03.12/outbox.cif.g09.slc.cpg/sg193_3_cif.got.tgz:4144.got - 2010.04.01 12:20:39.
