data_PCOD8330726
_publ_section_title
;
Structure prediction by ZEFSAII (Michael W. Deem and Ramdas Pophale) SiO2 
 PCOD8330726
Probable space group: P 63/M M C
;
_chemical_formula_sum "Si O2"
_cell_formula_units_Z 144
_cell_length_a 31.484913
_cell_length_b 31.484913
_cell_length_c 8.821562
_cell_angle_alpha 90.000000
_cell_angle_beta 90.000000
_cell_angle_gamma 120.000000
_cell_volume 7573.229495
_symmetry_space_group_name_H-M "P 63/M M C"
_symmetry_group_IT_number 194
_symmetry_cell_setting 'hexagonal'
loop_
_space_group_symop_operation_xyz
x,y,z
x-y,x,1/2+z
-y,x-y,z
-x,-y,1/2+z
-x+y,-x,z
y,-x+y,1/2+z
x-y,-y,-z
-x,-x+y,-z
y,x,-z
-y,-x,1/2-z
-x+y,y,1/2-z
x,x-y,1/2-z
-x,-y,-z
-x+y,-x,1/2-z
y,-x+y,-z
x,y,1/2-z
x-y,x,-z
-y,x-y,1/2-z
-x+y,y,z
x,x-y,z
-y,-x,z
y,x,1/2+z
x-y,-y,1/2+z
-x,-x+y,1/2+z
loop_
_atom_site_type_symbol
_atom_site_label
_atom_site_fract_x
_atom_site_fract_y
_atom_site_fract_z
Si Si1 0.051286 0.764039 0.070815
Si Si2 0.950076 0.803052 0.426914
Si Si3 0.520892 0.852603 0.573409
Si Si4 0.860553 0.237595 0.074218
Si Si5 0.666729 0.237729 0.929722
Si Si6 0.426669 0.949968 0.928265
O O1 0.045782 0.764047 0.250000
O O2 0.065912 0.817294 0.005765
O O3 0.093346 0.752027 0.027489
O O4 0.000000 0.722736 0.000000
O O5 0.958129 0.797984 0.250000
O O6 0.908736 0.817472 0.455499
O O7 0.000000 0.845870 0.500000
O O8 0.507230 0.845402 0.750000
O O9 0.568115 0.847840 0.538511
O O10 0.476283 0.811299 0.481447
O O11 0.530213 0.905219 0.516267
O O12 0.874164 0.238012 0.250000
O O13 0.814057 0.185944 0.028155
O O14 0.667105 0.239231 0.750000
O O15 0.619378 0.238756 0.993900
O O16 0.715217 0.284784 0.995393
O O17 0.427271 0.956123 0.750000
O O18 0.470089 0.940178 0.982404
O O19 0.433722 0.000000 0.000000
#
# Coordination Sequence:
#
# PCOD8330726 Si02
#       6
#    24  24  24  24  24  24
#     4  11  22  36  56  80 107 140 179 223 268 316
#     4  10  20  34  54  80 109 141 178 222 271 321
#     4  10  21  37  57  81 109 141 178 221 268 317
#     4  10  21  37  55  76 107 144 178 217 268 322
#     4  10  21  37  57  81 110 143 179 221 269 320
#     4   9  18  33  53  77 105 136 172 216 263 311
#
# _framework density 19.014344999999999
#
# number of rings (size 3 to 8) (size 9 to 14) (size 15 to 20)
#    0.000    2.000    0.000    4.667    0.000    8.333 
#    0.000    3.333    0.000    1.167    0.000    0.000 
#    0.000    0.000    0.000    0.000    0.000    0.000 
#
# Total GULP energy -1786126.753208 kJ/mol
# GULP energy per Si atom -12403.658008 kJ/mol
# Density = 1.897107 g / cm^3
# Si number density = 19.014345 Si / 1000 Ang^3
#
#
#
# Elastic Constant Matrix: (Units=GPa)
#
#
# Indices 1 2 3 4 5 6 
#
# 1 122.9458 59.6488 41.2030 0.0000 0.0000 0.0000
# 2 59.6488 122.9458 41.2030 0.0000 0.0000 0.0000
# 3 41.2030 41.2030 75.7842 0.0000 0.0000 0.0000
# 4 0.0000 0.0000 0.0000 28.7918 0.0000 0.0000
# 5 0.0000 0.0000 0.0000 0.0000 28.7918 0.0000
# 6 0.0000 0.0000 0.0000 0.0000 0.0000 31.6485
#
#
#
# Elastic Compliance Matrix: (Units=1/GPa)
#
#
# Indices 1 2 3 4 5 6 
#
# 1 0.011528 -0.004271 -0.003946 0.000000 0.000000 0.000000
# 2 -0.004271 0.011528 -0.003946 0.000000 0.000000 0.000000
# 3 -0.003946 -0.003946 0.017486 0.000000 0.000000 0.000000
# 4 0.000000 0.000000 0.000000 0.034732 0.000000 0.000000
# 5 0.000000 0.000000 0.000000 0.000000 0.034732 0.000000
# 6 0.000000 0.000000 0.000000 0.000000 0.000000 0.031597
#
#
# Mechanical properties :
#
#
# Convention : Reuss Voigt Hill
#
# Bulk Modulus (GPa) = 61.66134 67.30949 64.48542
# Shear Modulus (GPa) = 29.18293 29.82116 29.50205
#
# Velocity S-wave (km/s) = 3.92188 3.96454 3.94327
# Velocity P-wave (km/s) = 7.28062 7.51218 7.39731
#
# Compressibility (1/GPa) = 0.01621762
#
# Stress axis : x y z
#
# Youngs Moduli (GPa) = 86.74579 86.74579 57.18903
#
# Poissons Ratio (x) = 0.37046 0.22565
# Poissons Ratio (y) = 0.37046 0.22565
# Poissons Ratio (z) = 0.34228 0.34228
#
# Static dielectric constant tensor:
#      x y z
#    x 3.561650 0.000000 0.000000 
#    y 0.000000 3.561650 0.000000 
#    z 0.000000 0.000000 3.423190 
# 
# 
# High freq. dielectric constant tensor:
#      x y z
#    x 1.744330 0.000000 0.000000 
#    y 0.000000 1.744330 0.000000 
#    z 0.000000 0.000000 1.733550 
# 
# From -- ./inp_files/2081.got.cif
#   From: 2010.03.12/outbox.cif.g09.slc.cpg/sg194_2_cif.got.tgz:2081.got - 2010.04.01 12:26:19.
