data_PCOD8330875
_publ_section_title
;
Structure prediction by ZEFSAII (Michael W. Deem and Ramdas Pophale) SiO2 
 PCOD8330875
Probable space group: I 2 3
;
_chemical_formula_sum "Si O2"
_cell_formula_units_Z 120
_cell_length_a 19.179313
_cell_length_b 19.179313
_cell_length_c 19.179313
_cell_angle_alpha 90.000000
_cell_angle_beta 90.000000
_cell_angle_gamma 90.000000
_cell_volume 7055.034474
_symmetry_space_group_name_H-M "I 2 3"
_symmetry_group_IT_number 197
_symmetry_cell_setting 'cubic'
loop_
_space_group_symop_operation_xyz
x,y,z
z,x,y
y,z,x
-y,-z,x
z,-x,-y
-y,z,-x
-z,-x,y
-z,x,-y
y,-z,-x
-x,-y,z
x,-y,-z
-x,y,-z
1/2+x,1/2+y,1/2+z
1/2+z,1/2+x,1/2+y
1/2+y,1/2+z,1/2+x
1/2-y,1/2-z,1/2+x
1/2+z,1/2-x,1/2-y
1/2-y,1/2+z,1/2-x
1/2-z,1/2-x,1/2+y
1/2-z,1/2+x,1/2-y
1/2+y,1/2-z,1/2-x
1/2-x,1/2-y,1/2+z
1/2+x,1/2-y,1/2-z
1/2-x,1/2+y,1/2-z
loop_
_atom_site_type_symbol
_atom_site_label
_atom_site_fract_x
_atom_site_fract_y
_atom_site_fract_z
Si Si1 0.216612 0.422194 0.253020
Si Si2 0.081832 0.582714 0.500000
Si Si3 0.656276 0.619040 0.169186
Si Si4 0.156276 0.880960 0.669186
Si Si5 0.077806 0.753020 0.716612
O O1 0.214178 0.394851 0.332205
O O2 0.295758 0.421408 0.224692
O O3 0.166456 0.378595 0.204266
O O4 0.187704 0.500000 0.252580
O O5 0.090373 0.500000 0.500000
O O6 0.119439 0.613204 0.567931
O O7 0.119439 0.613204 0.432069
O O8 0.000000 0.603784 0.500000
O O9 0.704266 0.666456 0.121405
O O10 0.105149 0.832205 0.714178
O O11 0.204241 0.921408 0.724692
#
# Coordination Sequence:
#
# PCOD8330875 Si02
#       5
#    24  24  24  24  24
#     4  10  19  34  54  77 105 136 182 226 271 316
#     4  11  22  36  52  78 118 150 181 214 276 348
#     4  10  20  34  54  78 105 141 180 229 271 322
#     4  10  20  34  54  78 105 141 180 229 271 322
#     4  10  19  34  54  77 105 136 182 226 271 316
#
# _framework density 17.009129999999999
#
# number of rings (size 3 to 8) (size 9 to 14) (size 15 to 20)
#    0.000    1.800    2.000    3.200    0.000    3.200 
#    0.000    0.000    0.000    0.000    0.000    0.000 
#    0.000    0.000    0.000    3.000    0.000    0.000 
#
# Total GULP energy -743926.678210 kJ/mol
# GULP energy per Si atom -12398.777970 kJ/mol
# Density = 1.697042 g / cm^3
# Si number density = 17.009130 Si / 1000 Ang^3
#
#
#
# Elastic Constant Matrix: (Units=GPa)
#
#
# Indices 1 2 3 4 5 6 
#
# 1 95.8917 41.2295 41.2295 0.0000 0.0000 0.0000
# 2 41.2295 95.8917 41.2295 0.0000 0.0000 0.0000
# 3 41.2295 41.2295 95.8917 0.0000 0.0000 0.0000
# 4 0.0000 0.0000 0.0000 22.4196 0.0000 0.0000
# 5 0.0000 0.0000 0.0000 0.0000 22.4196 0.0000
# 6 0.0000 0.0000 0.0000 0.0000 0.0000 22.4196
#
#
#
# Elastic Compliance Matrix: (Units=1/GPa)
#
#
# Indices 1 2 3 4 5 6 
#
# 1 0.014065 -0.004229 -0.004229 0.000000 0.000000 0.000000
# 2 -0.004229 0.014065 -0.004229 0.000000 0.000000 0.000000
# 3 -0.004229 -0.004229 0.014065 0.000000 0.000000 0.000000
# 4 0.000000 0.000000 0.000000 0.044604 0.000000 0.000000
# 5 0.000000 0.000000 0.000000 0.000000 0.044604 0.000000
# 6 0.000000 0.000000 0.000000 0.000000 0.000000 0.044604
#
#
# Mechanical properties :
#
#
# Convention : Reuss Voigt Hill
#
# Bulk Modulus (GPa) = 59.45025 59.45025 59.45025
# Shear Modulus (GPa) = 24.15597 24.38420 24.27008
#
# Velocity S-wave (km/s) = 3.77261 3.79039 3.78151
# Velocity P-wave (km/s) = 7.34878 7.36097 7.35488
#
# Compressibility (1/GPa) = 0.01682079
#
# Stress axis : x y z
#
# Youngs Moduli (GPa) = 71.09795 71.09795 71.09795
#
# Poissons Ratio (x) = 0.30068 0.30068
# Poissons Ratio (y) = 0.30068 0.30068
# Poissons Ratio (z) = 0.30068 0.30068
#
# Static dielectric constant tensor:
#      x y z
#    x 3.264550 0.000000 0.000000 
#    y 0.000000 3.264550 0.000000 
#    z 0.000000 0.000000 3.264550 
# 
# 
# High freq. dielectric constant tensor:
#      x y z
#    x 1.658190 0.000000 0.000000 
#    y 0.000000 1.658190 0.000000 
#    z 0.000000 0.000000 1.658190 
# 
# From -- ./inp_files/585.got.cif
#   From: 2010.03.12/outbox.cif.g09.slc.cpg/sg197_cif.got.tgz:585.got - 2010.04.01 12:33:32.
