data_PCOD8330080
_publ_section_title
;
Structure prediction by ZEFSAII (Michael W. Deem and Ramdas Pophale) SiO2 
 PCOD8330080
Probable space group: P 63/M C M
;
_chemical_formula_sum "Si O2"
_cell_formula_units_Z 192
_cell_length_a 29.481691
_cell_length_b 29.481691
_cell_length_c 15.164727
_cell_angle_alpha 90.000000
_cell_angle_beta 90.000000
_cell_angle_gamma 120.000000
_cell_volume 11414.844723
_symmetry_space_group_name_H-M "P 63/M C M"
_symmetry_group_IT_number 193
_symmetry_cell_setting 'hexagonal'
loop_
_space_group_symop_operation_xyz
x,y,z
x-y,x,1/2+z
-y,x-y,z
-x,-y,1/2+z
-x+y,-x,z
y,-x+y,1/2+z
x-y,-y,1/2-z
-x,-x+y,1/2-z
y,x,1/2-z
-y,-x,-z
-x+y,y,-z
x,x-y,-z
-x,-y,-z
-x+y,-x,1/2-z
y,-x+y,-z
x,y,1/2-z
x-y,x,-z
-y,x-y,1/2-z
-x+y,y,1/2+z
x,x-y,1/2+z
-y,-x,1/2+z
y,x,z
x-y,-y,z
-x,-x+y,z
loop_
_atom_site_type_symbol
_atom_site_label
_atom_site_fract_x
_atom_site_fract_y
_atom_site_fract_z
Si Si1 0.647723 0.129241 0.648693
Si Si2 0.666241 0.941700 0.498842
Si Si3 0.413226 0.772311 0.590997
Si Si4 0.139387 0.663580 0.349218
Si Si5 0.133180 0.365522 0.848267
Si Si6 0.057928 0.440509 0.509407
Si Si7 0.755400 0.619047 0.350939
Si Si8 0.309482 0.561618 0.348020
O O1 0.632688 0.111829 0.750000
O O2 0.633329 0.173028 0.623804
O O3 0.613512 0.079305 0.586478
O O4 0.709371 0.150037 0.631587
O O5 0.673724 0.910065 0.417839
O O6 0.615096 0.945782 0.482640
O O7 0.660676 0.911976 0.590452
O O8 0.716751 0.000000 0.503506
O O9 0.389176 0.778352 0.500000
O O10 0.432473 0.729942 0.586089
O O11 0.365319 0.750429 0.659995
O O12 0.132242 0.640477 0.250000
O O13 0.133610 0.714104 0.349277
O O14 0.096394 0.618827 0.413037
O O15 0.196765 0.680260 0.386921
O O16 0.118753 0.340647 0.750000
O O17 0.190335 0.377318 0.877292
O O18 0.000000 0.432861 0.521695
O O19 0.754904 0.635040 0.250000
O O20 0.284217 0.546029 0.250000
#
# Coordination Sequence:
#
# PCOD8330080 Si02
#       8
#    24  24  24  24  24  24  24  24
#     4  10  20  35  54  74  97 125 156 189 228 273
#     4   9  17  27  40  62  92 121 147 182 231 281
#     4  12  24  37  53  74  98 124 152 185 226 272
#     4   9  18  32  52  75  99 128 156 186 225 270
#     4   9  16  27  44  66  90 118 155 192 227 269
#     4   9  18  32  50  74  99 121 151 189 227 270
#     4   9  17  29  47  68  89 117 154 195 233 271
#     4  11  22  37  54  72  96 122 149 180 219 269
#
# _framework density 16.820201000000001
#
# number of rings (size 3 to 8) (size 9 to 14) (size 15 to 20)
#    0.000    2.250    0.000    3.625    0.000    3.000 
#    0.000    8.750    0.000    3.375    0.000    3.500 
#    0.000    0.000    0.000    0.000    0.000    0.000 
#
# Total GULP energy -2380182.796751 kJ/mol
# GULP energy per Si atom -12396.785400 kJ/mol
# Density = 1.678192 g / cm^3
# Si number density = 16.820201 Si / 1000 Ang^3
#
#
#
# Elastic Constant Matrix: (Units=GPa)
#
#
# Indices 1 2 3 4 5 6 
#
# 1 47.2043 28.7388 35.7959 0.0000 0.0000 0.0000
# 2 28.7388 47.2043 35.7959 0.0000 0.0000 0.0000
# 3 35.7959 35.7959 105.6398 0.0000 0.0000 0.0000
# 4 0.0000 0.0000 0.0000 19.4239 0.0000 0.0000
# 5 0.0000 0.0000 0.0000 0.0000 19.4239 0.0000
# 6 0.0000 0.0000 0.0000 0.0000 0.0000 9.2327
#
#
#
# Elastic Compliance Matrix: (Units=1/GPa)
#
#
# Indices 1 2 3 4 5 6 
#
# 1 0.036752 -0.017403 -0.006556 0.000000 0.000000 0.000000
# 2 -0.017403 0.036752 -0.006556 0.000000 0.000000 0.000000
# 3 -0.006556 -0.006556 0.013909 0.000000 0.000000 0.000000
# 4 0.000000 0.000000 0.000000 0.051483 0.000000 0.000000
# 5 0.000000 0.000000 0.000000 0.000000 0.051483 0.000000
# 6 0.000000 0.000000 0.000000 0.000000 0.000000 0.108310
#
#
# Mechanical properties :
#
#
# Convention : Reuss Voigt Hill
#
# Bulk Modulus (GPa) = 37.90579 44.52327 41.21453
# Shear Modulus (GPa) = 13.56802 16.26396 14.91599
#
# Velocity S-wave (km/s) = 2.84324 3.11292 2.98113
# Velocity P-wave (km/s) = 5.77611 6.28076 6.03372
#
# Compressibility (1/GPa) = 0.02638120
#
# Stress axis : x y z
#
# Youngs Moduli (GPa) = 27.20964 27.20964 71.89479
#
# Poissons Ratio (x) = 0.47354 0.47135
# Poissons Ratio (y) = 0.47354 0.47135
# Poissons Ratio (z) = 0.17839 0.17839
#
# Static dielectric constant tensor:
#      x y z
#    x 3.062020 0.000000 0.000000 
#    y 0.000000 3.062020 0.000000 
#    z 0.000000 0.000000 3.444090 
# 
# 
# High freq. dielectric constant tensor:
#      x y z
#    x 1.613450 0.000000 0.000000 
#    y 0.000000 1.613450 0.000000 
#    z 0.000000 0.000000 1.668790 
# 
# From -- ./inp_files/4501.got.cif
#   From: 2010.03.12/outbox.cif.g09.slc.cpg/sg193_3_cif.got.tgz:4501.got - 2010.04.01 12:20:39.
