data_PCOD8330913
_publ_section_title
;
Structure prediction by ZEFSAII (Michael W. Deem and Ramdas Pophale) SiO2 
 PCOD8330913
Probable space group: P N 3
;
_chemical_formula_sum "Si O2"
_cell_formula_units_Z 168
_cell_length_a 21.493489
_cell_length_b 21.493489
_cell_length_c 21.493489
_cell_angle_alpha 90.000000
_cell_angle_beta 90.000000
_cell_angle_gamma 90.000000
_cell_volume 9929.348605
_symmetry_space_group_name_H-M "P N 3"
_symmetry_group_IT_number 201
_space_group.IT_coordinate_system_code '2'
_symmetry_cell_setting 'cubic'
loop_
_space_group_symop_operation_xyz
x,y,z
z,x,y
y,z,x
1/2-y,1/2-z,x
z,1/2-x,1/2-y
1/2-y,z,1/2-x
1/2-z,1/2-x,y
1/2-z,x,1/2-y
y,1/2-z,1/2-x
1/2-x,1/2-y,z
x,1/2-y,1/2-z
1/2-x,y,1/2-z
-x,-y,-z
-z,-x,-y
-y,-z,-x
1/2+y,1/2+z,-x
-z,1/2+x,1/2+y
1/2+y,-z,1/2+x
1/2+z,1/2+x,-y
1/2+z,-x,1/2+y
-y,1/2+z,1/2+x
1/2+x,1/2+y,-z
-x,1/2+y,1/2+z
1/2+x,-y,1/2+z
loop_
_atom_site_type_symbol
_atom_site_label
_atom_site_fract_x
_atom_site_fract_y
_atom_site_fract_z
Si Si1 0.548477 0.748816 0.650575
Si Si2 0.957902 0.857962 0.058458
Si Si3 0.550356 0.278656 0.446982
Si Si4 0.941542 0.142038 0.042098
Si Si5 0.396636 0.896636 0.000000
Si Si6 0.721344 0.050356 0.946982
Si Si7 0.548477 0.650575 0.748816
O O1 0.487545 0.719130 0.617816
O O2 0.575785 0.696739 0.696739
O O3 0.600425 0.767069 0.600425
O O4 0.530305 0.810885 0.689115
O O5 0.891896 0.891896 0.050582
O O6 0.948382 0.788326 0.084332
O O7 0.000000 0.891869 0.108131
O O8 0.990857 0.857164 0.990857
O O9 0.584332 0.211674 0.448382
O O10 0.600670 0.334170 0.456710
O O11 0.503749 0.284582 0.503749
O O12 0.455803 0.899949 0.044197
O O13 0.334170 0.899330 0.043290
O O14 0.719130 0.012455 0.882184
#
# Coordination Sequence:
#
# PCOD8330913 Si02
#       7
#    24  24  24  24  24  24  24
#     4  10  19  30  44  63  90 124 161 198 237 285
#     4   9  16  27  45  69  96 123 150 181 222 278
#     4   9  18  30  44  64  88 114 147 191 239 282
#     4   9  16  27  45  69  96 123 150 181 222 278
#     4  10  19  32  49  66  86 114 154 202 247 288
#     4   9  18  30  44  64  88 114 147 191 239 282
#     4  10  19  30  44  63  90 124 161 198 237 285
#
# _framework density 16.919540000000001
#
# number of rings (size 3 to 8) (size 9 to 14) (size 15 to 20)
#    0.000    2.571    0.000    2.714    0.000    1.143 
#    0.000    6.429    0.000    2.286    0.000    0.000 
#    0.000    0.000    0.000   34.857    0.000    0.000 
#
# Total GULP energy -2081823.321533 kJ/mol
# GULP energy per Si atom -12391.805485 kJ/mol
# Density = 1.688103 g / cm^3
# Si number density = 16.919540 Si / 1000 Ang^3
#
#
#
# Elastic Constant Matrix: (Units=GPa)
#
#
# Indices 1 2 3 4 5 6 
#
# 1 90.2873 42.8903 42.8903 0.0000 0.0000 0.0000
# 2 42.8903 90.2873 42.8903 0.0000 0.0000 0.0000
# 3 42.8903 42.8903 90.2873 0.0000 0.0000 0.0000
# 4 0.0000 0.0000 0.0000 21.4017 0.0000 0.0000
# 5 0.0000 0.0000 0.0000 0.0000 21.4017 0.0000
# 6 0.0000 0.0000 0.0000 0.0000 0.0000 21.4017
#
#
#
# Elastic Compliance Matrix: (Units=1/GPa)
#
#
# Indices 1 2 3 4 5 6 
#
# 1 0.015959 -0.005140 -0.005140 0.000000 0.000000 0.000000
# 2 -0.005140 0.015959 -0.005140 0.000000 0.000000 0.000000
# 3 -0.005140 -0.005140 0.015959 0.000000 0.000000 0.000000
# 4 0.000000 0.000000 0.000000 0.046725 0.000000 0.000000
# 5 0.000000 0.000000 0.000000 0.000000 0.046725 0.000000
# 6 0.000000 0.000000 0.000000 0.000000 0.000000 0.046725
#
#
# Mechanical properties :
#
#
# Convention : Reuss Voigt Hill
#
# Bulk Modulus (GPa) = 58.68931 58.68931 58.68931
# Shear Modulus (GPa) = 22.26481 22.32039 22.29260
#
# Velocity S-wave (km/s) = 3.63150 3.63603 3.63377
# Velocity P-wave (km/s) = 7.23508 7.23811 7.23659
#
# Compressibility (1/GPa) = 0.01703888
#
# Stress axis : x y z
#
# Youngs Moduli (GPa) = 62.66135 62.66135 62.66135
#
# Poissons Ratio (x) = 0.32205 0.32205
# Poissons Ratio (y) = 0.32205 0.32205
# Poissons Ratio (z) = 0.32205 0.32205
#
# Static dielectric constant tensor:
#      x y z
#    x 3.250760 0.000000 0.000000 
#    y 0.000000 3.250760 0.000000 
#    z 0.000000 0.000000 3.250760 
# 
# 
# High freq. dielectric constant tensor:
#      x y z
#    x 1.642640 0.000000 0.000000 
#    y 0.000000 1.642640 0.000000 
#    z 0.000000 0.000000 1.642640 
# 
# From -- ./inp_files/746.got.cif
#   From: 2010.03.12/outbox.cif.g09.slc.cpg/sg201_cif.got.tgz:746.got - 2010.03.30 09:02:05.
