data_PCOD8330168
_publ_section_title
;
Structure prediction by ZEFSAII (Michael W. Deem and Ramdas Pophale) SiO2 
 PCOD8330168
Probable space group: P 63/M C M
;
_chemical_formula_sum "Si O2"
_cell_formula_units_Z 128
_cell_length_a 20.443124
_cell_length_b 20.443124
_cell_length_c 20.024375
_cell_angle_alpha 90.000000
_cell_angle_beta 90.000000
_cell_angle_gamma 120.000000
_cell_volume 7247.431634
_symmetry_space_group_name_H-M "P 63/M C M"
_symmetry_group_IT_number 193
_symmetry_cell_setting 'hexagonal'
loop_
_space_group_symop_operation_xyz
x,y,z
x-y,x,1/2+z
-y,x-y,z
-x,-y,1/2+z
-x+y,-x,z
y,-x+y,1/2+z
x-y,-y,1/2-z
-x,-x+y,1/2-z
y,x,1/2-z
-y,-x,-z
-x+y,y,-z
x,x-y,-z
-x,-y,-z
-x+y,-x,1/2-z
y,-x+y,-z
x,y,1/2-z
x-y,x,-z
-y,x-y,1/2-z
-x+y,y,1/2+z
x,x-y,1/2+z
-y,-x,1/2+z
y,x,z
x-y,-y,z
-x,-x+y,z
loop_
_atom_site_type_symbol
_atom_site_label
_atom_site_fract_x
_atom_site_fract_y
_atom_site_fract_z
Si Si1 0.086104 0.407303 0.951711
Si Si2 0.791822 0.702300 0.174539
Si Si3 0.088147 0.829356 0.067760
Si Si4 0.165027 0.593941 0.420912
Si Si5 0.573280 0.662344 0.101455
Si Si6 0.333334 0.666668 0.920820
O O1 0.096103 0.340391 0.922651
O O2 0.129907 0.482084 0.905992
O O3 0.000000 0.387415 0.952070
O O4 0.116540 0.420715 0.027481
O O5 0.815929 0.697947 0.250000
O O6 0.748382 0.748382 0.169401
O O7 0.867342 0.748502 0.130618
O O8 0.735554 0.616642 0.149005
O O9 0.000000 0.806362 0.068852
O O10 0.125619 0.874382 0.000000
O O11 0.157596 0.578798 0.500000
O O12 0.123912 0.514994 0.380340
O O13 0.249946 0.638644 0.394038
O O14 0.611079 0.611079 0.107229
O O15 0.333334 0.666667 0.000000
#
# Coordination Sequence:
#
# PCOD8330168 Si02
#       6
#    24  24  24  24  24   8
#     4   9  17  28  47  76 105 135 169 216 272 314
#     4  10  21  37  57  80 106 140 183 225 269 326
#     4  11  21  34  57  84 113 142 175 222 280 334
#     4   9  17  26  41  68 107 140 174 213 262 313
#     4   9  16  29  49  73 102 135 174 222 266 309
#     4   9  18  24  33  63 100 143 172 201 253 308
#
# _framework density 17.661428999999998
#
# number of rings (size 3 to 8) (size 9 to 14) (size 15 to 20)
#    0.000    2.438    1.875    1.125    2.625    3.375 
#    0.000    0.000    0.000    4.500    0.000    2.625 
#    0.000    0.000    0.000    0.000    0.000    0.000 
#
# Total GULP energy -1586734.992250 kJ/mol
# GULP energy per Si atom -12396.367127 kJ/mol
# Density = 1.762123 g / cm^3
# Si number density = 17.661429 Si / 1000 Ang^3
#
#
#
# Elastic Constant Matrix: (Units=GPa)
#
#
# Indices 1 2 3 4 5 6 
#
# 1 87.8421 34.9134 37.8092 0.0000 0.0000 0.0000
# 2 34.9134 87.8426 37.8093 0.0000 0.0000 0.0000
# 3 37.8092 37.8093 78.5524 0.0000 0.0000 0.0001
# 4 0.0000 0.0000 0.0000 16.0454 0.0000 0.0000
# 5 0.0000 0.0000 0.0000 0.0000 16.0455 0.0000
# 6 0.0000 0.0000 0.0001 0.0000 0.0000 26.4642
#
#
#
# Elastic Compliance Matrix: (Units=1/GPa)
#
#
# Indices 1 2 3 4 5 6 
#
# 1 0.015236 -0.003657 -0.005574 0.000000 0.000000 0.000000
# 2 -0.003657 0.015236 -0.005574 0.000000 0.000000 0.000000
# 3 -0.005574 -0.005574 0.018096 0.000000 0.000000 0.000000
# 4 0.000000 0.000000 0.000000 0.062323 0.000000 0.000000
# 5 0.000000 0.000000 0.000000 0.000000 0.062323 0.000000
# 6 0.000000 0.000000 0.000000 0.000000 0.000000 0.037787
#
#
# Mechanical properties :
#
#
# Convention : Reuss Voigt Hill
#
# Bulk Modulus (GPa) = 52.74058 52.81122 52.77590
# Shear Modulus (GPa) = 20.24868 21.29136 20.77002
#
# Velocity S-wave (km/s) = 3.38966 3.47584 3.43302
# Velocity P-wave (km/s) = 6.72656 6.78790 6.75730
#
# Compressibility (1/GPa) = 0.01896073
#
# Stress axis : x y z
#
# Youngs Moduli (GPa) = 65.63194 65.63232 55.26162
#
# Poissons Ratio (x) = 0.24001 0.30800
# Poissons Ratio (y) = 0.24000 0.30800
# Poissons Ratio (z) = 0.36580 0.36580
#
# Static dielectric constant tensor:
#      x y z
#    x 3.360270 0.000000 0.000000 
#    y 0.000000 3.360270 0.000000 
#    z 0.000000 0.000000 2.911590 
# 
# 
# High freq. dielectric constant tensor:
#      x y z
#    x 1.687600 0.000000 0.000000 
#    y 0.000000 1.687600 0.000000 
#    z 0.000000 0.000000 1.625340 
# 
# From -- ./inp_files/6490.got.cif
#   From: 2010.03.12/outbox.cif.g09.slc.cpg/sg193_4_cif.got.tgz:6490.got - 2010.04.01 12:20:39.
