data_PCOD8330896
_publ_section_title
;
Structure prediction by ZEFSAII (Michael W. Deem and Ramdas Pophale) SiO2 
 PCOD8330896
Probable space group: P 21 3
;
_chemical_formula_sum "Si O2"
_cell_formula_units_Z 64
_cell_length_a 14.468266
_cell_length_b 14.468266
_cell_length_c 14.468266
_cell_angle_alpha 90.000000
_cell_angle_beta 90.000000
_cell_angle_gamma 90.000000
_cell_volume 3028.652554
_symmetry_space_group_name_H-M "P 21 3"
_symmetry_group_IT_number 198
_symmetry_cell_setting 'cubic'
loop_
_space_group_symop_operation_xyz
x,y,z
z,x,y
y,z,x
1/2-y,-z,1/2+x
1/2+z,1/2-x,-y
-y,1/2+z,1/2-x
1/2-z,-x,1/2+y
-z,1/2+x,1/2-y
1/2+y,1/2-z,-x
1/2-x,-y,1/2+z
1/2+x,1/2-y,-z
-x,1/2+y,1/2-z
loop_
_atom_site_type_symbol
_atom_site_label
_atom_site_fract_x
_atom_site_fract_y
_atom_site_fract_z
Si Si1 0.377141 0.377142 0.377142
Si Si2 0.249582 0.749582 0.750420
Si Si3 0.664923 0.164923 0.335079
Si Si4 0.181198 0.609410 0.492950
Si Si5 0.481615 0.118650 0.816164
Si Si6 0.538231 0.038231 0.461771
Si Si7 0.770803 0.957006 0.686395
Si Si8 0.579686 0.653783 0.319027
O O1 0.313901 0.313901 0.313901
O O2 0.482021 0.369190 0.344375
O O3 0.310739 0.686125 0.684593
O O4 0.601707 0.101706 0.398295
O O5 0.625839 0.268920 0.329460
O O6 0.168991 0.719249 0.502228
O O7 0.086533 0.560967 0.525777
O O8 0.197659 0.582595 0.386505
O O9 0.264697 0.570710 0.556782
O O10 0.453870 0.193644 0.895907
O O11 0.571276 0.062120 0.853206
O O12 0.722173 0.011313 0.769643
#
# Coordination Sequence:
#
# PCOD8330896 Si02
#       8
#     4   4   4  12  12   4  12  12
#     4   9  21  42  60 100 137 178 222 285 357 412
#     4   9  18  36  73  91 123 178 238 276 336 400
#     4  12  24  42  66 106 143 175 231 300 352 422
#     4  12  25  44  76 102 145 186 235 296 362 415
#     4  10  26  49  64  95 148 182 236 292 337 426
#     4  12  24  48  70 115 132 184 247 297 349 437
#     4  11  25  40  71 102 143 179 228 295 363 416
#     4  11  21  45  72  99 133 190 233 287 350 426
#
# _framework density 21.131509000000001
#
# number of rings (size 3 to 8) (size 9 to 14) (size 15 to 20)
#    0.375    0.750    3.750    2.250    5.250    1.500 
#    3.375    0.000    0.000    0.000    0.000    0.000 
#    0.000    0.000    0.000    0.000    0.000    0.000 
#
# Total GULP energy -793455.091257 kJ/mol
# GULP energy per Si atom -12397.735801 kJ/mol
# Density = 2.108341 g / cm^3
# Si number density = 21.131509 Si / 1000 Ang^3
#
#
#
# Elastic Constant Matrix: (Units=GPa)
#
#
# Indices 1 2 3 4 5 6 
#
# 1 105.8100 25.5874 25.5867 0.0000 0.0000 0.0000
# 2 25.5874 105.8073 25.5864 0.0000 0.0000 0.0000
# 3 25.5867 25.5864 105.8069 0.0000 0.0000 0.0000
# 4 0.0000 0.0000 0.0000 31.1499 0.0000 0.0000
# 5 0.0000 0.0000 0.0000 0.0000 31.1505 0.0000
# 6 0.0000 0.0000 0.0000 0.0000 0.0000 31.1499
#
#
#
# Elastic Compliance Matrix: (Units=1/GPa)
#
#
# Indices 1 2 3 4 5 6 
#
# 1 0.010434 -0.002032 -0.002032 0.000000 0.000000 0.000000
# 2 -0.002032 0.010434 -0.002032 0.000000 0.000000 0.000000
# 3 -0.002032 -0.002032 0.010434 0.000000 0.000000 0.000000
# 4 0.000000 0.000000 0.000000 0.032103 0.000000 0.000000
# 5 0.000000 0.000000 0.000000 0.000000 0.032102 0.000000
# 6 0.000000 0.000000 0.000000 0.000000 0.000000 0.032103
#
#
# Mechanical properties :
#
#
# Convention : Reuss Voigt Hill
#
# Bulk Modulus (GPa) = 52.32723 52.32723 52.32723
# Shear Modulus (GPa) = 34.20675 34.73430 34.47053
#
# Velocity S-wave (km/s) = 4.02774 4.05868 4.04324
# Velocity P-wave (km/s) = 6.81518 6.83961 6.82741
#
# Compressibility (1/GPa) = 0.01911051
#
# Stress axis : x y z
#
# Youngs Moduli (GPa) = 95.84454 95.84209 95.84200
#
# Poissons Ratio (x) = 0.19473 0.19473
# Poissons Ratio (y) = 0.19474 0.19473
# Poissons Ratio (z) = 0.19473 0.19473
#
# Static dielectric constant tensor:
#      x y z
#    x 3.845170 0.000000 0.000000 
#    y 0.000000 3.845170 0.000000 
#    z 0.000000 0.000000 3.845170 
# 
# 
# High freq. dielectric constant tensor:
#      x y z
#    x 1.825490 0.000000 0.000000 
#    y 0.000000 1.825490 0.000000 
#    z 0.000000 0.000000 1.825490 
# 
# From -- ./inp_files/373.got.cif
#   From: 2010.03.12/outbox.cif.g09.slc.cpg/sg198_cif.got.tgz:373.got - 2010.04.01 12:33:50.
