data_PCOD8330196
_publ_section_title
;
Structure prediction by ZEFSAII (Michael W. Deem and Ramdas Pophale) SiO2 
 PCOD8330196
Probable space group: P 63/M C M
;
_chemical_formula_sum "Si O2"
_cell_formula_units_Z 72
_cell_length_a 22.110252
_cell_length_b 22.110252
_cell_length_c 9.212664
_cell_angle_alpha 90.000000
_cell_angle_beta 90.000000
_cell_angle_gamma 120.000000
_cell_volume 3900.347020
_symmetry_space_group_name_H-M "P 63/M C M"
_symmetry_group_IT_number 193
_symmetry_cell_setting 'hexagonal'
loop_
_space_group_symop_operation_xyz
x,y,z
x-y,x,1/2+z
-y,x-y,z
-x,-y,1/2+z
-x+y,-x,z
y,-x+y,1/2+z
x-y,-y,1/2-z
-x,-x+y,1/2-z
y,x,1/2-z
-y,-x,-z
-x+y,y,-z
x,x-y,-z
-x,-y,-z
-x+y,-x,1/2-z
y,-x+y,-z
x,y,1/2-z
x-y,x,-z
-y,x-y,1/2-z
-x+y,y,1/2+z
x,x-y,1/2+z
-y,-x,1/2+z
y,x,z
x-y,-y,z
-x,-x+y,z
loop_
_atom_site_type_symbol
_atom_site_label
_atom_site_fract_x
_atom_site_fract_y
_atom_site_fract_z
Si Si1 0.518964 0.601620 0.417221
Si Si2 0.765094 0.765094 0.516029
Si Si3 0.000000 0.149188 0.250000
Si Si4 0.136159 0.000000 0.750000
Si Si5 0.614448 0.870567 0.422936
O O1 0.446505 0.553496 0.500000
O O2 0.505304 0.614664 0.250000
O O3 0.567022 0.567022 0.419885
O O4 0.556755 0.671925 0.508496
O O5 0.798686 0.798686 0.366904
O O6 0.822964 0.822964 0.613054
O O7 0.690794 0.758212 0.540293
O O8 0.062785 0.133475 0.250000
O O9 0.603519 0.801760 0.500000
O O10 0.603992 0.860626 0.250000
#
# Coordination Sequence:
#
# PCOD8330196 Si02
#       5
#    24  12   6   6  24
#     4  10  21  38  62  92 126 161 198 243 298 357
#     4  12  26  40  60  86 122 158 207 268 335 384
#     4  12  27  40  68  78 117 152 218 268 340 398
#     4  12  23  48  56  90 105 164 206 278 328 404
#     4  12  24  40  62  91 126 165 211 258 314 377
#
# _framework density 18.459894999999999
#
# number of rings (size 3 to 8) (size 9 to 14) (size 15 to 20)
#    0.000    0.667    3.333    5.167    4.667    1.333 
#    0.000    1.667    0.000    0.667    0.000    4.667 
#    0.000    0.000    0.000    0.000    0.000    0.000 
#
# Total GULP energy -892351.603531 kJ/mol
# GULP energy per Si atom -12393.772271 kJ/mol
# Density = 1.841788 g / cm^3
# Si number density = 18.459895 Si / 1000 Ang^3
#
#
#
# Elastic Constant Matrix: (Units=GPa)
#
#
# Indices 1 2 3 4 5 6 
#
# 1 143.3703 55.5257 82.2060 0.0000 0.0000 0.0000
# 2 55.5257 143.3703 82.2060 0.0000 0.0000 0.0000
# 3 82.2060 82.2060 209.7510 0.0000 0.0000 0.0000
# 4 0.0000 0.0000 0.0000 39.3643 0.0000 0.0000
# 5 0.0000 0.0000 0.0000 0.0000 39.3643 0.0000
# 6 0.0000 0.0000 0.0000 0.0000 0.0000 43.9223
#
#
#
# Elastic Compliance Matrix: (Units=1/GPa)
#
#
# Indices 1 2 3 4 5 6 
#
# 1 0.009410 -0.001973 -0.002915 0.000000 0.000000 0.000000
# 2 -0.001973 0.009410 -0.002915 0.000000 0.000000 0.000000
# 3 -0.002915 -0.002915 0.007052 0.000000 0.000000 0.000000
# 4 0.000000 0.000000 0.000000 0.025404 0.000000 0.000000
# 5 0.000000 0.000000 0.000000 0.000000 0.025404 0.000000
# 6 0.000000 0.000000 0.000000 0.000000 0.000000 0.022767
#
#
# Mechanical properties :
#
#
# Convention : Reuss Voigt Hill
#
# Bulk Modulus (GPa) = 97.39475 104.04079 100.71777
# Shear Modulus (GPa) = 42.20249 42.96711 42.58480
#
# Velocity S-wave (km/s) = 4.78658 4.82975 4.80821
# Velocity P-wave (km/s) = 9.13363 9.35867 9.24684
#
# Compressibility (1/GPa) = 0.01026749
#
# Stress axis : x y z
#
# Youngs Moduli (GPa) = 106.26472 106.26472 141.79769
#
# Poissons Ratio (x) = 0.20969 0.41331
# Poissons Ratio (y) = 0.20969 0.41331
# Poissons Ratio (z) = 0.30974 0.30974
#
# Static dielectric constant tensor:
#      x y z
#    x 3.530020 0.000000 0.000000 
#    y 0.000000 3.530020 0.000000 
#    z 0.000000 0.000000 3.801390 
# 
# 
# High freq. dielectric constant tensor:
#      x y z
#    x 1.716990 0.000000 0.000000 
#    y 0.000000 1.716990 0.000000 
#    z 0.000000 0.000000 1.747420 
# 
# From -- ./inp_files/847.got.cif
#   From: 2010.03.12/outbox.cif.g09.slc.cpg/sg193_1_cif.got.tgz:847.got - 2010.04.01 12:20:39.
