data_PCOD8330800
_publ_section_title
;
Structure prediction by ZEFSAII (Michael W. Deem and Ramdas Pophale) SiO2 
 PCOD8330800
Probable space group: P 63/M M C
;
_chemical_formula_sum "Si O2"
_cell_formula_units_Z 120
_cell_length_a 20.852104
_cell_length_b 20.852104
_cell_length_c 16.279691
_cell_angle_alpha 90.000000
_cell_angle_beta 90.000000
_cell_angle_gamma 120.000000
_cell_volume 6130.226960
_symmetry_space_group_name_H-M "P 63/M M C"
_symmetry_group_IT_number 194
_symmetry_cell_setting 'hexagonal'
loop_
_space_group_symop_operation_xyz
x,y,z
x-y,x,1/2+z
-y,x-y,z
-x,-y,1/2+z
-x+y,-x,z
y,-x+y,1/2+z
x-y,-y,-z
-x,-x+y,-z
y,x,-z
-y,-x,1/2-z
-x+y,y,1/2-z
x,x-y,1/2-z
-x,-y,-z
-x+y,-x,1/2-z
y,-x+y,-z
x,y,1/2-z
x-y,x,-z
-y,x-y,1/2-z
-x+y,y,z
x,x-y,z
-y,-x,z
y,x,1/2+z
x-y,-y,1/2+z
-x,-x+y,1/2+z
loop_
_atom_site_type_symbol
_atom_site_label
_atom_site_fract_x
_atom_site_fract_y
_atom_site_fract_z
Si Si1 0.873079 0.273881 0.385526
Si Si2 0.085338 0.471306 0.477852
Si Si3 0.667765 0.481321 0.250000
Si Si4 0.275280 0.866684 0.155547
Si Si5 0.249442 0.005595 0.845034
Si Si6 0.152233 0.000000 0.000000
O O1 0.811805 0.188196 0.385471
O O2 0.876725 0.308949 0.473450
O O3 0.853473 0.323107 0.328092
O O4 0.947687 0.277999 0.356178
O O5 0.119442 0.559721 0.491949
O O6 0.100284 0.456398 0.385235
O O7 0.000000 0.431020 0.500000
O O8 0.586251 0.413750 0.250000
O O9 0.726281 0.452562 0.250000
O O10 0.293718 0.868005 0.250000
O O11 0.216841 0.783160 0.126276
O O12 0.235446 0.914898 0.138996
O O13 0.219404 0.999465 0.750000
O O14 0.189881 0.993065 0.915606
O O15 0.071882 0.928119 0.007024
#
# Coordination Sequence:
#
# PCOD8330800 Si02
#       6
#    24  24  12  24  24  12
#     4  11  21  36  58  87 122 157 197 248 302 362
#     4  11  22  37  57  85 119 156 198 247 305 361
#     4  10  21  36  56  84 121 164 202 240 292 362
#     4  10  21  39  63  90 122 157 197 248 308 369
#     4  11  22  41  66  96 127 158 204 261 321 375
#     4  12  27  44  64  90 125 170 214 260 314 378
#
# _framework density 19.575132
#
# number of rings (size 3 to 8) (size 9 to 14) (size 15 to 20)
#    0.000    1.200    3.000    3.800    0.000    2.800 
#    0.000    0.000    0.000    5.600    0.000    0.000 
#    0.000    0.000    0.000    0.000    0.000    0.000 
#
# Total GULP energy -1487456.451004 kJ/mol
# GULP energy per Si atom -12395.470425 kJ/mol
# Density = 1.953058 g / cm^3
# Si number density = 19.575132 Si / 1000 Ang^3
#
#
#
# Elastic Constant Matrix: (Units=GPa)
#
#
# Indices 1 2 3 4 5 6 
#
# 1 73.9269 57.5534 44.5377 0.0000 0.0000 0.0000
# 2 57.5534 73.9269 44.5377 0.0000 0.0000 0.0000
# 3 44.5377 44.5377 108.7330 0.0000 0.0000 0.0000
# 4 0.0000 0.0000 0.0000 142.9595 0.0000 0.0000
# 5 0.0000 0.0000 0.0000 0.0000 142.9595 0.0000
# 6 0.0000 0.0000 0.0000 0.0000 0.0000 8.1868
#
#
#
# Elastic Compliance Matrix: (Units=1/GPa)
#
#
# Indices 1 2 3 4 5 6 
#
# 1 0.035801 -0.025274 -0.004312 0.000000 0.000000 0.000000
# 2 -0.025274 0.035801 -0.004312 0.000000 0.000000 0.000000
# 3 -0.004312 -0.004312 0.012729 0.000000 0.000000 0.000000
# 4 0.000000 0.000000 0.000000 0.006995 0.000000 0.000000
# 5 0.000000 0.000000 0.000000 0.000000 0.006995 0.000000
# 6 0.000000 0.000000 0.000000 0.000000 0.000000 0.122148
#
#
# Mechanical properties :
#
#
# Convention : Reuss Voigt Hill
#
# Bulk Modulus (GPa) = 60.47604 61.09383 60.78494
# Shear Modulus (GPa) = 17.01980 66.15169 41.58575
#
# Velocity S-wave (km/s) = 2.95186 5.81954 4.61414
# Velocity P-wave (km/s) = 6.52529 8.74264 7.71405
#
# Compressibility (1/GPa) = 0.01653547
#
# Stress axis : x y z
#
# Youngs Moduli (GPa) = 27.93252 27.93252 78.55959
#
# Poissons Ratio (x) = 0.70596 0.33874
# Poissons Ratio (y) = 0.70596 0.33874
# Poissons Ratio (z) = 0.12044 0.12044
#
# Static dielectric constant tensor:
#      x y z
#    x 3.566960 0.000000 0.000000 
#    y 0.000000 3.566960 0.000000 
#    z 0.000000 0.000000 3.754070 
# 
# 
# High freq. dielectric constant tensor:
#      x y z
#    x 1.758230 0.000000 0.000000 
#    y 0.000000 1.758230 0.000000 
#    z 0.000000 0.000000 1.778500 
# 
# From -- ./inp_files/6735.got.cif
#   From: 2010.03.12/outbox.cif.g09.slc.cpg/sg194_4_cif.got.tgz:6735.got - 2010.04.01 12:26:19.
