data_PCOD8330253
_publ_section_title
;
Structure prediction by ZEFSAII (Michael W. Deem and Ramdas Pophale) SiO2 
 PCOD8330253
Probable space group: P 63/M C M
;
_chemical_formula_sum "Si O2"
_cell_formula_units_Z 144
_cell_length_a 31.057103
_cell_length_b 31.057103
_cell_length_c 8.699140
_cell_angle_alpha 90.000000
_cell_angle_beta 90.000000
_cell_angle_gamma 120.000000
_cell_volume 7266.559545
_symmetry_space_group_name_H-M "P 63/M C M"
_symmetry_group_IT_number 193
_symmetry_cell_setting 'hexagonal'
loop_
_space_group_symop_operation_xyz
x,y,z
x-y,x,1/2+z
-y,x-y,z
-x,-y,1/2+z
-x+y,-x,z
y,-x+y,1/2+z
x-y,-y,1/2-z
-x,-x+y,1/2-z
y,x,1/2-z
-y,-x,-z
-x+y,y,-z
x,x-y,-z
-x,-y,-z
-x+y,-x,1/2-z
y,-x+y,-z
x,y,1/2-z
x-y,x,-z
-y,x-y,1/2-z
-x+y,y,1/2+z
x,x-y,1/2+z
-y,-x,1/2+z
y,x,z
x-y,-y,z
-x,-x+y,z
loop_
_atom_site_type_symbol
_atom_site_label
_atom_site_fract_x
_atom_site_fract_y
_atom_site_fract_z
Si Si1 0.151423 0.481552 0.431597
Si Si2 0.700146 0.942875 0.570837
Si Si3 0.425668 0.758755 0.432773
Si Si4 0.148786 0.388108 0.568975
Si Si5 0.944827 0.427269 0.069741
Si Si6 0.798715 0.853751 0.431319
O O1 0.160799 0.487432 0.250000
O O2 0.186345 0.533852 0.513211
O O3 0.163780 0.440802 0.494960
O O4 0.094590 0.465254 0.475154
O O5 0.687952 0.930108 0.750000
O O6 0.651698 0.907977 0.471896
O O7 0.744091 0.932949 0.516397
O O8 0.715835 0.000000 0.539571
O O9 0.372295 0.744590 0.500000
O O10 0.441719 0.720860 0.500000
O O11 0.422976 0.755644 0.250000
O O12 0.184734 0.369468 0.500000
O O13 0.155677 0.394180 0.750000
O O14 0.945862 0.434397 0.250000
O O15 0.000000 0.441591 0.009308
O O16 0.927421 0.463711 0.000000
O O17 0.813131 0.906566 0.500000
O O18 0.799913 0.857287 0.250000
O O19 0.839204 0.839204 0.489344
#
# Coordination Sequence:
#
# PCOD8330253 Si02
#       6
#    24  24  24  24  24  24
#     4  11  23  40  61  86 117 154 195 238 287 341
#     4   9  19  37  59  83 113 147 183 229 284 338
#     4  12  25  43  65  91 121 152 189 234 287 343
#     4  12  25  40  58  82 114 152 194 237 283 338
#     4   9  19  36  59  86 115 148 186 229 278 331
#     4   9  18  32  51  77 107 139 178 224 275 330
#
# _framework density 19.816804999999999
#
# number of rings (size 3 to 8) (size 9 to 14) (size 15 to 20)
#    0.000    1.667    0.000    6.167    0.000    6.000 
#    0.000    3.333    0.000    0.167    0.000    0.000 
#    0.000    0.000    0.000    0.000    0.000    0.000 
#
# Total GULP energy -1786121.106619 kJ/mol
# GULP energy per Si atom -12403.618796 kJ/mol
# Density = 1.977170 g / cm^3
# Si number density = 19.816805 Si / 1000 Ang^3
#
#
#
# Elastic Constant Matrix: (Units=GPa)
#
#
# Indices 1 2 3 4 5 6 
#
# 1 -5.5220 135.6029 41.3483 0.0000 0.0000 -0.0001
# 2 135.6029 -5.5220 41.3483 0.0000 0.0000 0.0001
# 3 41.3483 41.3483 103.8758 0.0000 0.0000 0.0000
# 4 0.0000 0.0000 0.0000 32.8597 0.0000 0.0000
# 5 0.0000 0.0000 0.0000 0.0000 32.8597 0.0000
# 6 -0.0001 0.0001 0.0000 0.0000 0.0000 -70.5623
#
#
#
# Elastic Compliance Matrix: (Units=1/GPa)
#
#
# Indices 1 2 3 4 5 6 
#
# 1 0.001603 0.008689 -0.004097 0.000000 0.000000 0.000000
# 2 0.008689 0.001603 -0.004097 0.000000 0.000000 0.000000
# 3 -0.004097 -0.004097 0.012888 0.000000 0.000000 0.000000
# 4 0.000000 0.000000 0.000000 0.030432 0.000000 0.000000
# 5 0.000000 0.000000 0.000000 0.000000 0.030432 0.000000
# 6 0.000000 0.000000 0.000000 0.000000 0.000000 -0.014172
#
#
# Mechanical properties :
#
#
# Convention : Reuss Voigt Hill
#
# Bulk Modulus (GPa) = 58.53011 58.82563 58.67787
# Shear Modulus (GPa) = 74.08330 -9.33309 32.37511
#
# Velocity S-wave (km/s) = 6.12089 -2.17253 4.04631
# Velocity P-wave (km/s) = 8.91927 4.84313 7.17667
#
# Compressibility (1/GPa) = 0.01708522
#
# Stress axis : x y z
#
# Youngs Moduli (GPa) = 623.82137 623.82136 77.58938
#
# Poissons Ratio (x) = -5.42035 0.31787
# Poissons Ratio (y) = -5.42035 0.31787
# Poissons Ratio (z) = 2.55565 2.55565
#
# Static dielectric constant tensor:
#      x y z
#    x 3.404670 0.000000 0.000000 
#    y 0.000000 3.404670 0.000000 
#    z 0.000000 0.000000 3.527880 
# 
# 
# High freq. dielectric constant tensor:
#      x y z
#    x 1.776230 0.000000 0.000000 
#    y 0.000000 1.776230 0.000000 
#    z 0.000000 0.000000 1.771290 
# 
# From -- ./inp_files/1562.got.cif
#   From: 2010.03.12/outbox.cif.g09.slc.cpg/sg193_1_cif.got.tgz:1562.got - 2010.04.01 12:20:39.
