data_PCOD8330047
_publ_section_title
;
Structure prediction by ZEFSAII (Michael W. Deem and Ramdas Pophale) SiO2 
 PCOD8330047
Probable space group: P 63/M C M
;
_chemical_formula_sum "Si O2"
_cell_formula_units_Z 104
_cell_length_a 20.498126
_cell_length_b 20.498126
_cell_length_c 15.463004
_cell_angle_alpha 90.000000
_cell_angle_beta 90.000000
_cell_angle_gamma 120.000000
_cell_volume 5626.687773
_symmetry_space_group_name_H-M "P 63/M C M"
_symmetry_group_IT_number 193
_symmetry_cell_setting 'hexagonal'
loop_
_space_group_symop_operation_xyz
x,y,z
x-y,x,1/2+z
-y,x-y,z
-x,-y,1/2+z
-x+y,-x,z
y,-x+y,1/2+z
x-y,-y,1/2-z
-x,-x+y,1/2-z
y,x,1/2-z
-y,-x,-z
-x+y,y,-z
x,x-y,-z
-x,-y,-z
-x+y,-x,1/2-z
y,-x+y,-z
x,y,1/2-z
x-y,x,-z
-y,x-y,1/2-z
-x+y,y,1/2+z
x,x-y,1/2+z
-y,-x,1/2+z
y,x,z
x-y,-y,z
-x,-x+y,z
loop_
_atom_site_type_symbol
_atom_site_label
_atom_site_fract_x
_atom_site_fract_y
_atom_site_fract_z
Si Si1 0.916428 0.235806 0.250000
Si Si2 0.582963 0.162867 0.150653
Si Si3 0.430641 0.288908 0.904340
Si Si4 0.333333 0.666667 0.396983
Si Si5 0.230543 0.313901 0.250000
Si Si6 0.572736 0.861675 0.097596
O O1 0.908548 0.276827 0.165475
O O2 0.857528 0.146459 0.250000
O O3 0.000000 0.247083 0.250000
O O4 0.564492 0.141173 0.250000
O O5 0.504065 0.132875 0.101717
O O6 0.636503 0.251051 0.139638
O O7 0.626740 0.122424 0.112527
O O8 0.456363 0.227031 0.888219
O O9 0.395971 0.281474 0.000059
O O10 0.333334 0.666667 0.500000
O O11 0.240240 0.240240 0.250000
O O12 0.271388 0.361299 0.164611
#
# Coordination Sequence:
#
# PCOD8330047 Si02
#       6
#    12  24  24   8  12  24
#     4  10  22  41  63  86 109 137 173 215 266 330
#     4  12  20  30  46  74 110 152 202 250 291 315
#     4  10  20  34  52  77 111 150 192 236 277 316
#     4  12  22  26  40  72 109 152 205 262 296 319
#     4  10  22  41  63  86 109 137 173 215 266 330
#     4  10  20  34  52  77 111 150 192 236 277 316
#
# _framework density 18.483343000000001
#
# number of rings (size 3 to 8) (size 9 to 14) (size 15 to 20)
#    0.000    1.385    4.615    2.769    0.000    0.923 
#    0.000    2.308    0.000    3.000    0.000    0.000 
#    0.000    0.000    0.000   11.538    0.000    0.000 
#
# Total GULP energy -1289694.326402 kJ/mol
# GULP energy per Si atom -12400.906985 kJ/mol
# Density = 1.844127 g / cm^3
# Si number density = 18.483343 Si / 1000 Ang^3
#
#
#
# Elastic Constant Matrix: (Units=GPa)
#
#
# Indices 1 2 3 4 5 6 
#
# 1 80.6092 48.6148 29.2304 0.0000 0.0000 0.0000
# 2 48.6148 80.6089 29.2303 0.0000 0.0000 0.0000
# 3 29.2304 29.2303 139.6795 0.0000 -0.0001 0.0000
# 4 0.0000 0.0000 0.0000 7.6065 0.0000 0.0000
# 5 0.0000 0.0000 -0.0001 0.0000 7.6065 0.0000
# 6 0.0000 0.0000 0.0000 0.0000 0.0000 15.9971
#
#
#
# Elastic Compliance Matrix: (Units=1/GPa)
#
#
# Indices 1 2 3 4 5 6 
#
# 1 0.019902 -0.011354 -0.001789 0.000000 0.000000 0.000000
# 2 -0.011354 0.019902 -0.001789 0.000000 0.000000 0.000000
# 3 -0.001789 -0.001789 0.007908 0.000000 0.000000 0.000000
# 4 0.000000 0.000000 0.000000 0.131466 0.000000 0.000000
# 5 0.000000 0.000000 0.000000 0.000000 0.131467 0.000000
# 6 0.000000 0.000000 0.000000 0.000000 0.000000 0.062511
#
#
# Mechanical properties :
#
#
# Convention : Reuss Voigt Hill
#
# Bulk Modulus (GPa) = 56.02761 57.22761 56.62761
# Shear Modulus (GPa) = 12.22590 19.16350 15.69470
#
# Velocity S-wave (km/s) = 2.57467 3.22343 2.91714
# Velocity P-wave (km/s) = 6.26233 6.69947 6.48459
#
# Compressibility (1/GPa) = 0.01784834
#
# Stress axis : x y z
#
# Youngs Moduli (GPa) = 50.24714 50.24699 126.45572
#
# Poissons Ratio (x) = 0.57050 0.22620
# Poissons Ratio (y) = 0.57050 0.22620
# Poissons Ratio (z) = 0.08988 0.08988
#
# Static dielectric constant tensor:
#      x y z
#    x 3.065100 0.000000 0.000000 
#    y 0.000000 3.065100 0.000000 
#    z 0.000000 0.000000 3.658500 
# 
# 
# High freq. dielectric constant tensor:
#      x y z
#    x 1.679760 0.000000 0.000000 
#    y 0.000000 1.679760 0.000000 
#    z 0.000000 0.000000 1.742080 
# 
# From -- ./inp_files/3736.got.cif
#   From: 2010.03.12/outbox.cif.g09.slc.cpg/sg193_2_cif.got.tgz:3736.got - 2010.04.01 12:20:39.
