data_PCOD8330482
_publ_section_title
;
Structure prediction by ZEFSAII (Michael W. Deem and Ramdas Pophale) SiO2 
 PCOD8330482
Probable space group: P 63/M M C
;
_chemical_formula_sum "Si O2"
_cell_formula_units_Z 168
_cell_length_a 21.511321
_cell_length_b 21.511321
_cell_length_c 24.263674
_cell_angle_alpha 90.000000
_cell_angle_beta 90.000000
_cell_angle_gamma 120.000000
_cell_volume 9723.471733
_symmetry_space_group_name_H-M "P 63/M M C"
_symmetry_group_IT_number 194
_symmetry_cell_setting 'hexagonal'
loop_
_space_group_symop_operation_xyz
x,y,z
x-y,x,1/2+z
-y,x-y,z
-x,-y,1/2+z
-x+y,-x,z
y,-x+y,1/2+z
x-y,-y,-z
-x,-x+y,-z
y,x,-z
-y,-x,1/2-z
-x+y,y,1/2-z
x,x-y,1/2-z
-x,-y,-z
-x+y,-x,1/2-z
y,-x+y,-z
x,y,1/2-z
x-y,x,-z
-y,x-y,1/2-z
-x+y,y,z
x,x-y,z
-y,-x,z
y,x,1/2+z
x-y,-y,1/2+z
-x,-x+y,1/2+z
loop_
_atom_site_type_symbol
_atom_site_label
_atom_site_fract_x
_atom_site_fract_y
_atom_site_fract_z
Si Si1 0.141433 0.999682 0.564089
Si Si2 0.975120 0.710521 0.103328
Si Si3 0.403255 0.272920 0.022770
Si Si4 0.601476 0.874021 0.689277
Si Si5 0.333025 0.522097 0.187005
Si Si6 0.873437 0.601906 0.896518
Si Si7 0.667508 0.188637 0.390355
O O1 0.059179 0.940821 0.576438
O O2 0.193103 0.979686 0.597107
O O3 0.159115 0.000000 0.500000
O O4 0.154043 0.077022 0.582842
O O5 0.942893 0.660938 0.048706
O O6 0.926620 0.672342 0.155963
O O7 0.053292 0.725161 0.118378
O O8 0.378165 0.189083 0.030302
O O9 0.478715 0.321930 0.052805
O O10 0.418535 0.297157 0.959522
O O11 0.604547 0.905775 0.750000
O O12 0.597799 0.798900 0.693017
O O13 0.529411 0.861382 0.658993
O O14 0.331184 0.496279 0.250000
O O15 0.270521 0.541042 0.177343
O O16 0.407597 0.592404 0.173494
O O17 0.324666 0.460970 0.144615
O O18 0.809412 0.618824 0.888378
O O19 0.591634 0.183268 0.391283
O O20 0.728899 0.271102 0.382519
#
# Coordination Sequence:
#
# PCOD8330482 Si02
#       7
#    24  24  24  24  24  24  24
#     4  10  19  30  47  74 106 134 160 195 241 291
#     4  11  19  31  52  72  93 130 170 201 237 285
#     4   9  18  32  48  69  98 131 166 200 234 279
#     4   9  19  35  52  70  93 123 163 207 244 285
#     4   9  18  34  55  75  95 122 157 197 242 291
#     4  10  20  32  48  73 102 127 157 202 246 283
#     4   9  17  30  50  75 101 127 156 195 244 294
#
# _framework density 17.277778999999999
#
# number of rings (size 3 to 8) (size 9 to 14) (size 15 to 20)
#    0.000    2.429    0.000    4.286    0.000    4.857 
#    0.000    2.857    0.000    8.143    0.000    0.000 
#    0.000    1.143    0.000    0.000    0.000    0.000 
#
# Total GULP energy -2083100.623169 kJ/mol
# GULP energy per Si atom -12399.408471 kJ/mol
# Density = 1.723845 g / cm^3
# Si number density = 17.277779 Si / 1000 Ang^3
#
#
#
# Elastic Constant Matrix: (Units=GPa)
#
#
# Indices 1 2 3 4 5 6 
#
# 1 86.4744 30.0744 24.8749 0.0000 0.0000 0.0000
# 2 30.0744 86.4744 24.8749 0.0000 0.0000 0.0000
# 3 24.8749 24.8749 82.5156 0.0000 0.0000 0.0000
# 4 0.0000 0.0000 0.0000 19.9465 0.0000 0.0000
# 5 0.0000 0.0000 0.0000 0.0000 19.9465 0.0000
# 6 0.0000 0.0000 0.0000 0.0000 0.0000 28.2000
#
#
#
# Elastic Compliance Matrix: (Units=1/GPa)
#
#
# Indices 1 2 3 4 5 6 
#
# 1 0.013789 -0.003942 -0.002969 0.000000 0.000000 0.000000
# 2 -0.003942 0.013789 -0.002969 0.000000 0.000000 0.000000
# 3 -0.002969 -0.002969 0.013909 0.000000 0.000000 0.000000
# 4 0.000000 0.000000 0.000000 0.050134 0.000000 0.000000
# 5 0.000000 0.000000 0.000000 0.000000 0.050134 0.000000
# 6 0.000000 0.000000 0.000000 0.000000 0.000000 0.035461
#
#
# Mechanical properties :
#
#
# Convention : Reuss Voigt Hill
#
# Bulk Modulus (GPa) = 46.02127 46.12364 46.07246
# Shear Modulus (GPa) = 24.48390 25.32796 24.90593
#
# Velocity S-wave (km/s) = 3.76849 3.83290 3.80083
# Velocity P-wave (km/s) = 6.75494 6.80745 6.78125
#
# Compressibility (1/GPa) = 0.02172908
#
# Stress axis : x y z
#
# Youngs Moduli (GPa) = 72.52227 72.52227 71.89755
#
# Poissons Ratio (x) = 0.28586 0.21343
# Poissons Ratio (y) = 0.28586 0.21343
# Poissons Ratio (z) = 0.21528 0.21528
#
# Static dielectric constant tensor:
#      x y z
#    x 3.152320 0.000000 0.000000 
#    y 0.000000 3.152320 0.000000 
#    z 0.000000 0.000000 3.480420 
# 
# 
# High freq. dielectric constant tensor:
#      x y z
#    x 1.663780 0.000000 0.000000 
#    y 0.000000 1.663780 0.000000 
#    z 0.000000 0.000000 1.660570 
# 
# From -- ./inp_files/9818.got.cif
#   From: 2010.03.12/outbox.cif.g09.slc.cpg/sg194_5_cif.got.tgz:9818.got - 2010.04.01 12:26:19.
