data_PCOD8330915
_publ_section_title
;
Structure prediction by ZEFSAII (Michael W. Deem and Ramdas Pophale) SiO2 
 PCOD8330915
Probable space group: P N 3
;
_chemical_formula_sum "Si O2"
_cell_formula_units_Z 96
_cell_length_a 17.359446
_cell_length_b 17.359446
_cell_length_c 17.359446
_cell_angle_alpha 90.000000
_cell_angle_beta 90.000000
_cell_angle_gamma 90.000000
_cell_volume 5231.275396
_symmetry_space_group_name_H-M "P N 3"
_symmetry_group_IT_number 201
_space_group.IT_coordinate_system_code '2'
_symmetry_cell_setting 'cubic'
loop_
_space_group_symop_operation_xyz
x,y,z
z,x,y
y,z,x
1/2-y,1/2-z,x
z,1/2-x,1/2-y
1/2-y,z,1/2-x
1/2-z,1/2-x,y
1/2-z,x,1/2-y
y,1/2-z,1/2-x
1/2-x,1/2-y,z
x,1/2-y,1/2-z
1/2-x,y,1/2-z
-x,-y,-z
-z,-x,-y
-y,-z,-x
1/2+y,1/2+z,-x
-z,1/2+x,1/2+y
1/2+y,-z,1/2+x
1/2+z,1/2+x,-y
1/2+z,-x,1/2+y
-y,1/2+z,1/2+x
1/2+x,1/2+y,-z
-x,1/2+y,1/2+z
1/2+x,-y,1/2+z
loop_
_atom_site_type_symbol
_atom_site_label
_atom_site_fract_x
_atom_site_fract_y
_atom_site_fract_z
Si Si1 0.093425 0.148160 0.921248
Si Si2 0.810932 0.992136 0.048890
Si Si3 0.338599 0.277645 0.668627
Si Si4 0.352069 0.562838 0.577088
O O1 0.045392 0.110446 0.852902
O O2 0.117236 0.234133 0.899081
O O3 0.037255 0.156760 0.994020
O O4 0.170065 0.097808 0.937141
O O5 0.722083 0.010731 0.059613
O O6 0.250000 0.250000 0.663883
O O7 0.372449 0.250000 0.750000
O O8 0.360980 0.368560 0.661675
O O9 0.382404 0.588119 0.494123
#
# Coordination Sequence:
#
# PCOD8330915 Si02
#       4
#    24  24  24  24
#     4  10  19  36  54  86 111 147 194 235 296 342
#     4  10  20  34  59  81 117 150 187 249 291 353
#     4  11  22  37  57  85 118 153 195 242 288 355
#     4  12  24  40  58  84 120 161 200 243 304 367
#
# _framework density 18.351165999999999
#
# number of rings (size 3 to 8) (size 9 to 14) (size 15 to 20)
#    0.000    1.250    5.000    2.250    0.000    2.000 
#    4.500    0.000    0.000    0.000    0.000    0.000 
#    0.000    0.000    0.000    3.750    0.000    0.000 
#
# Total GULP energy -1189616.248162 kJ/mol
# GULP energy per Si atom -12391.835918 kJ/mol
# Density = 1.830940 g / cm^3
# Si number density = 18.351166 Si / 1000 Ang^3
#
#
#
# Elastic Constant Matrix: (Units=GPa)
#
#
# Indices 1 2 3 4 5 6 
#
# 1 75.4331 23.2536 23.2536 0.0000 0.0000 0.0000
# 2 23.2536 75.4331 23.2536 0.0000 0.0000 0.0000
# 3 23.2536 23.2536 75.4331 0.0000 0.0000 0.0000
# 4 0.0000 0.0000 0.0000 25.5351 0.0000 0.0000
# 5 0.0000 0.0000 0.0000 0.0000 25.5351 0.0000
# 6 0.0000 0.0000 0.0000 0.0000 0.0000 25.5351
#
#
#
# Elastic Compliance Matrix: (Units=1/GPa)
#
#
# Indices 1 2 3 4 5 6 
#
# 1 0.015510 -0.003655 -0.003655 0.000000 0.000000 0.000000
# 2 -0.003655 0.015510 -0.003655 0.000000 0.000000 0.000000
# 3 -0.003655 -0.003655 0.015510 0.000000 0.000000 0.000000
# 4 0.000000 0.000000 0.000000 0.039162 0.000000 0.000000
# 5 0.000000 0.000000 0.000000 0.000000 0.039162 0.000000
# 6 0.000000 0.000000 0.000000 0.000000 0.000000 0.039162
#
#
# Mechanical properties :
#
#
# Convention : Reuss Voigt Hill
#
# Bulk Modulus (GPa) = 40.64678 40.64678 40.64678
# Shear Modulus (GPa) = 25.75408 25.75693 25.75550
#
# Velocity S-wave (km/s) = 3.75027 3.75047 3.75037
# Velocity P-wave (km/s) = 6.39923 6.39939 6.39931
#
# Compressibility (1/GPa) = 0.02460219
#
# Stress axis : x y z
#
# Youngs Moduli (GPa) = 64.47453 64.47453 64.47453
#
# Poissons Ratio (x) = 0.23563 0.23563
# Poissons Ratio (y) = 0.23563 0.23563
# Poissons Ratio (z) = 0.23563 0.23563
#
# Static dielectric constant tensor:
#      x y z
#    x 3.382670 0.000000 0.000000 
#    y 0.000000 3.382670 0.000000 
#    z 0.000000 0.000000 3.382670 
# 
# 
# High freq. dielectric constant tensor:
#      x y z
#    x 1.706010 0.000000 0.000000 
#    y 0.000000 1.706010 0.000000 
#    z 0.000000 0.000000 1.706010 
# 
# From -- ./inp_files/462.got.cif
#   From: 2010.03.12/outbox.cif.g09.slc.cpg/sg201_cif.got.tgz:462.got - 2010.03.30 09:02:05.
