data_PCOD8330401
_publ_section_title
;
Structure prediction by ZEFSAII (Michael W. Deem and Ramdas Pophale) SiO2 
 PCOD8330401
Probable space group: P 63/M M C
;
_chemical_formula_sum "Si O2"
_cell_formula_units_Z 168
_cell_length_a 17.181454
_cell_length_b 17.181454
_cell_length_c 35.680963
_cell_angle_alpha 90.000000
_cell_angle_beta 90.000000
_cell_angle_gamma 120.000000
_cell_volume 9121.936112
_symmetry_space_group_name_H-M "P 63/M M C"
_symmetry_group_IT_number 194
_symmetry_cell_setting 'hexagonal'
loop_
_space_group_symop_operation_xyz
x,y,z
x-y,x,1/2+z
-y,x-y,z
-x,-y,1/2+z
-x+y,-x,z
y,-x+y,1/2+z
x-y,-y,-z
-x,-x+y,-z
y,x,-z
-y,-x,1/2-z
-x+y,y,1/2-z
x,x-y,1/2-z
-x,-y,-z
-x+y,-x,1/2-z
y,-x+y,-z
x,y,1/2-z
x-y,x,-z
-y,x-y,1/2-z
-x+y,y,z
x,x-y,z
-y,-x,z
y,x,1/2+z
x-y,-y,1/2+z
-x,-x+y,1/2+z
loop_
_atom_site_type_symbol
_atom_site_label
_atom_site_fract_x
_atom_site_fract_y
_atom_site_fract_z
Si Si1 0.086497 0.739917 0.167363
Si Si2 0.281901 0.230791 0.037054
Si Si3 0.818218 0.000364 0.886267
Si Si4 0.667757 0.158911 0.603917
Si Si5 0.973069 0.400283 0.069211
Si Si6 0.489786 0.333997 0.362807
Si Si7 0.609065 0.567815 0.292289
O O1 0.166805 0.833196 0.184183
O O2 0.017437 0.760331 0.144538
O O3 0.128318 0.695133 0.141261
O O4 0.036609 0.670240 0.200870
O O5 0.303807 0.151904 0.035043
O O6 0.221808 0.222157 0.072976
O O7 0.378638 0.321753 0.038942
O O8 0.228583 0.228583 0.000000
O O9 0.921569 0.078432 0.885834
O O10 0.812355 0.906178 0.876999
O O11 0.591388 0.182776 0.614626
O O12 0.753701 0.246300 0.586502
O O13 0.631635 0.080333 0.573269
O O14 0.944957 0.472479 0.055030
O O15 0.927293 0.359445 0.109415
O O16 0.471563 0.235782 0.373310
O O17 0.595466 0.404535 0.366858
O O18 0.457379 0.334052 0.320552
O O19 0.637524 0.560630 0.250000
O O20 0.502479 0.497522 0.298582
#
# Coordination Sequence:
#
# PCOD8330401 Si02
#       7
#    24  24  24  24  24  24  24
#     4  10  19  32  53  76 102 134 173 218 263 308
#     4  11  22  35  54  79 108 141 176 215 262 315
#     4  10  20  35  54  78 105 137 175 219 268 318
#     4  10  18  30  50  76 104 132 166 210 258 305
#     4  10  20  35  56  77 103 137 173 217 262 308
#     4  10  19  33  53  77 103 133 171 213 259 309
#     4  10  20  34  51  72 103 140 172 208 259 314
#
# _framework density 18.417142999999999
#
# number of rings (size 3 to 8) (size 9 to 14) (size 15 to 20)
#    0.000    1.857    2.857    1.714    0.000    3.143 
#    0.000    0.000    0.000    3.714    0.000    1.000 
#    0.000    1.143    0.000    0.000    0.000    0.000 
#
# Total GULP energy -2083184.945160 kJ/mol
# GULP energy per Si atom -12399.910388 kJ/mol
# Density = 1.837522 g / cm^3
# Si number density = 18.417143 Si / 1000 Ang^3
#
#
#
# Elastic Constant Matrix: (Units=GPa)
#
#
# Indices 1 2 3 4 5 6 
#
# 1 108.3872 47.8482 23.1884 0.0000 0.0000 0.0000
# 2 47.8482 108.3872 23.1884 0.0000 0.0000 0.0000
# 3 23.1884 23.1884 47.9282 0.0000 0.0000 0.0000
# 4 0.0000 0.0000 0.0000 22.2026 0.0000 0.0000
# 5 0.0000 0.0000 0.0000 0.0000 22.2026 0.0000
# 6 0.0000 0.0000 0.0000 0.0000 0.0000 30.2695
#
#
#
# Elastic Compliance Matrix: (Units=1/GPa)
#
#
# Indices 1 2 3 4 5 6 
#
# 1 0.011996 -0.004522 -0.003616 0.000000 0.000000 0.000000
# 2 -0.004522 0.011996 -0.003616 0.000000 0.000000 0.000000
# 3 -0.003616 -0.003616 0.024363 0.000000 0.000000 0.000000
# 4 0.000000 0.000000 0.000000 0.045040 0.000000 0.000000
# 5 0.000000 0.000000 0.000000 0.000000 0.045040 0.000000
# 6 0.000000 0.000000 0.000000 0.000000 0.000000 0.033037
#
#
# Mechanical properties :
#
#
# Convention : Reuss Voigt Hill
#
# Bulk Modulus (GPa) = 40.24572 50.35030 45.29801
# Shear Modulus (GPa) = 24.59870 26.30011 25.44941
#
# Velocity S-wave (km/s) = 3.65861 3.78302 3.72133
# Velocity P-wave (km/s) = 6.30452 6.81761 6.56608
#
# Compressibility (1/GPa) = 0.02484737
#
# Stress axis : x y z
#
# Youngs Moduli (GPa) = 83.36027 83.36027 41.04501
#
# Poissons Ratio (x) = 0.37697 0.14842
# Poissons Ratio (y) = 0.37697 0.14842
# Poissons Ratio (z) = 0.30143 0.30143
#
# Static dielectric constant tensor:
#      x y z
#    x 3.505940 0.000000 0.000000 
#    y 0.000000 3.505940 0.000000 
#    z 0.000000 0.000000 3.106800 
# 
# 
# High freq. dielectric constant tensor:
#      x y z
#    x 1.722210 0.000000 0.000000 
#    y 0.000000 1.722210 0.000000 
#    z 0.000000 0.000000 1.680320 
# 
# From -- ./inp_files/12247.got.cif
#   From: 2010.03.12/outbox.cif.g09.slc.cpg/sg194_7_cif.got.tgz:12247.got - 2010.04.01 12:26:19.
