data_PCOD8330290
_publ_section_title
;
Structure prediction by ZEFSAII (Michael W. Deem and Ramdas Pophale) SiO2 
 PCOD8330290
Probable space group: P 63/M M C
;
_chemical_formula_sum "Si O2"
_cell_formula_units_Z 144
_cell_length_a 21.012511
_cell_length_b 21.012511
_cell_length_c 29.999471
_cell_angle_alpha 90.000000
_cell_angle_beta 90.000000
_cell_angle_gamma 120.000000
_cell_volume 11470.969787
_symmetry_space_group_name_H-M "P 63/M M C"
_symmetry_group_IT_number 194
_symmetry_cell_setting 'hexagonal'
loop_
_space_group_symop_operation_xyz
x,y,z
x-y,x,1/2+z
-y,x-y,z
-x,-y,1/2+z
-x+y,-x,z
y,-x+y,1/2+z
x-y,-y,-z
-x,-x+y,-z
y,x,-z
-y,-x,1/2-z
-x+y,y,1/2-z
x,x-y,1/2-z
-x,-y,-z
-x+y,-x,1/2-z
y,-x+y,-z
x,y,1/2-z
x-y,x,-z
-y,x-y,1/2-z
-x+y,y,z
x,x-y,z
-y,-x,z
y,x,1/2+z
x-y,-y,1/2+z
-x,-x+y,1/2+z
loop_
_atom_site_type_symbol
_atom_site_label
_atom_site_fract_x
_atom_site_fract_y
_atom_site_fract_z
Si Si1 0.667203 0.186747 0.534122
Si Si2 0.577525 0.714795 0.118197
Si Si3 0.296412 0.021659 0.567525
Si Si4 0.145638 0.145675 0.447454
Si Si5 0.480458 0.813518 0.199445
Si Si6 0.375472 0.260263 0.016515
O O1 0.587871 0.175742 0.524448
O O2 0.727154 0.272847 0.533937
O O3 0.667307 0.151929 0.581808
O O4 0.684226 0.144820 0.494842
O O5 0.599426 0.799713 0.114836
O O6 0.650547 0.709101 0.109969
O O7 0.547004 0.681235 0.166857
O O8 0.326877 0.080275 0.527457
O O9 0.214525 0.004450 0.578771
O O10 0.295254 0.946069 0.555133
O O11 0.159658 0.159658 0.500000
O O12 0.147280 0.073640 0.432260
O O13 0.067417 0.134833 0.433526
O O14 0.506886 0.838753 0.250000
O O15 0.410130 0.820260 0.187466
O O16 0.458014 0.729007 0.191976
O O17 0.363303 0.181652 0.032294
#
# Coordination Sequence:
#
# PCOD8330290 Si02
#       6
#    24  24  24  24  24  24
#     4   9  16  25  36  48  64  86 115 150 183 208
#     4   9  17  26  35  50  70  90 116 144 169 205
#     4  10  16  24  37  47  66  97 122 143 176 209
#     4  10  17  23  33  49  69  91 118 151 184 214
#     4   9  16  26  40  56  73  92 114 142 177 215
#     4   9  16  25  35  48  65  88 121 153 174 202
#
# _framework density 12.553428
#
# number of rings (size 3 to 8) (size 9 to 14) (size 15 to 20)
#    0.000    2.667    1.667    4.000    0.000    1.333 
#    0.000    9.167    0.000    0.000    0.000    0.000 
#    0.000    2.667    0.000    0.333    0.000    4.167 
#
# Total GULP energy -1785408.500483 kJ/mol
# GULP energy per Si atom -12398.670142 kJ/mol
# Density = 1.252486 g / cm^3
# Si number density = 12.553428 Si / 1000 Ang^3
#
#
#
# Elastic Constant Matrix: (Units=GPa)
#
#
# Indices 1 2 3 4 5 6 
#
# 1 90.9054 46.7887 36.2374 0.0000 0.0000 0.0000
# 2 46.7887 90.9054 36.2374 0.0000 0.0000 0.0000
# 3 36.2374 36.2374 51.9210 0.0000 0.0000 0.0000
# 4 0.0000 0.0000 0.0000 14.7485 0.0000 0.0000
# 5 0.0000 0.0000 0.0000 0.0000 14.7485 0.0000
# 6 0.0000 0.0000 0.0000 0.0000 0.0000 22.0583
#
#
#
# Elastic Compliance Matrix: (Units=1/GPa)
#
#
# Indices 1 2 3 4 5 6 
#
# 1 0.017073 -0.005594 -0.008012 0.000000 0.000000 0.000000
# 2 -0.005594 0.017073 -0.008012 0.000000 0.000000 0.000000
# 3 -0.008012 -0.008012 0.030444 0.000000 0.000000 0.000000
# 4 0.000000 0.000000 0.000000 0.067804 0.000000 0.000000
# 5 0.000000 0.000000 0.000000 0.000000 0.067804 0.000000
# 6 0.000000 0.000000 0.000000 0.000000 0.000000 0.045334
#
#
# Mechanical properties :
#
#
# Convention : Reuss Voigt Hill
#
# Bulk Modulus (GPa) = 46.82765 52.47320 49.65042
# Shear Modulus (GPa) = 16.89841 17.94227 17.42034
#
# Velocity S-wave (km/s) = 3.67293 3.78467 3.72922
# Velocity P-wave (km/s) = 7.44116 7.80954 7.62758
#
# Compressibility (1/GPa) = 0.02135490
#
# Stress axis : x y z
#
# Youngs Moduli (GPa) = 58.57082 58.57082 32.84760
#
# Poissons Ratio (x) = 0.32763 0.26317
# Poissons Ratio (y) = 0.32763 0.26317
# Poissons Ratio (z) = 0.46927 0.46927
#
# Static dielectric constant tensor:
#      x y z
#    x 2.583190 0.000000 0.000000 
#    y 0.000000 2.583190 0.000000 
#    z 0.000000 0.000000 2.297750 
# 
# 
# High freq. dielectric constant tensor:
#      x y z
#    x 1.476200 0.000000 0.000000 
#    y 0.000000 1.476200 0.000000 
#    z 0.000000 0.000000 1.422940 
# 
# From -- ./inp_files/10984.got.cif
#   From: 2010.03.12/outbox.cif.g09.slc.cpg/sg194_6_cif.got.tgz:10984.got - 2010.04.01 12:26:19.
