data_PCOD8330655
_publ_section_title
;
Structure prediction by ZEFSAII (Michael W. Deem and Ramdas Pophale) SiO2 
 PCOD8330655
Probable space group: P 63/M M C
;
_chemical_formula_sum "Si O2"
_cell_formula_units_Z 144
_cell_length_a 32.111590
_cell_length_b 32.111590
_cell_length_c 9.233478
_cell_angle_alpha 90.000000
_cell_angle_beta 90.000000
_cell_angle_gamma 120.000000
_cell_volume 8245.548883
_symmetry_space_group_name_H-M "P 63/M M C"
_symmetry_group_IT_number 194
_symmetry_cell_setting 'hexagonal'
loop_
_space_group_symop_operation_xyz
x,y,z
x-y,x,1/2+z
-y,x-y,z
-x,-y,1/2+z
-x+y,-x,z
y,-x+y,1/2+z
x-y,-y,-z
-x,-x+y,-z
y,x,-z
-y,-x,1/2-z
-x+y,y,1/2-z
x,x-y,1/2-z
-x,-y,-z
-x+y,-x,1/2-z
y,-x+y,-z
x,y,1/2-z
x-y,x,-z
-y,x-y,1/2-z
-x+y,y,z
x,x-y,z
-y,-x,z
y,x,1/2+z
x-y,-y,1/2+z
-x,-x+y,1/2+z
loop_
_atom_site_type_symbol
_atom_site_label
_atom_site_fract_x
_atom_site_fract_y
_atom_site_fract_z
Si Si1 0.952097 0.565483 0.083673
Si Si2 0.277853 0.385682 0.581634
Si Si3 0.379665 0.525176 0.580365
Si Si4 0.472934 0.188489 0.582277
Si Si5 0.905378 0.190852 0.084111
Si Si6 0.046792 0.189967 0.418998
O O1 0.964565 0.565409 0.250000
O O2 0.936028 0.604812 0.050352
O O3 0.909146 0.513216 0.035745
O O4 0.000000 0.577394 0.000000
O O5 0.271574 0.394553 0.750000
O O6 0.267086 0.421367 0.489632
O O7 0.240851 0.331214 0.535791
O O8 0.366968 0.519677 0.750000
O O9 0.421800 0.578201 0.540272
O O10 0.332414 0.514871 0.492576
O O11 0.469568 0.174519 0.750000
O O12 0.486927 0.243464 0.561238
O O13 0.921788 0.192584 0.250000
O O14 0.850467 0.149534 0.062451
O O15 0.940532 0.182194 0.981894
O O16 0.036217 0.189286 0.250000
O O17 0.089563 0.179125 0.450678
O O18 0.000000 0.148721 0.500000
#
# Coordination Sequence:
#
# PCOD8330655 Si02
#       6
#    24  24  24  24  24  24
#     4   9  18  31  46  67  96 128 164 205 245 284
#     4   9  18  32  49  70  99 136 174 208 241 280
#     4   9  19  36  55  73  94 124 165 209 249 294
#     4  10  20  32  49  76 105 130 159 198 246 299
#     4   9  17  30  49  72  98 130 168 206 243 285
#     4  10  21  36  54  76 101 130 164 202 245 293
#
# _framework density 17.463968000000001
#
# number of rings (size 3 to 8) (size 9 to 14) (size 15 to 20)
#    0.000    2.667    0.000    2.500    0.000    7.667 
#    0.000    3.333    0.000    0.500    0.000    0.000 
#    0.000    0.000    0.000    0.000    0.000    0.000 
#
# Total GULP energy -1785838.294994 kJ/mol
# GULP energy per Si atom -12401.654826 kJ/mol
# Density = 1.742422 g / cm^3
# Si number density = 17.463968 Si / 1000 Ang^3
#
#
#
# Elastic Constant Matrix: (Units=GPa)
#
#
# Indices 1 2 3 4 5 6 
#
# 1 93.5219 54.5875 58.1109 0.0000 0.0000 0.0000
# 2 54.5875 93.5219 58.1109 0.0000 0.0000 0.0000
# 3 58.1109 58.1109 92.5589 0.0000 0.0000 0.0000
# 4 0.0000 0.0000 0.0000 26.2319 0.0000 0.0000
# 5 0.0000 0.0000 0.0000 0.0000 26.2319 0.0000
# 6 0.0000 0.0000 0.0000 0.0000 0.0000 19.4672
#
#
#
# Elastic Compliance Matrix: (Units=1/GPa)
#
#
# Indices 1 2 3 4 5 6 
#
# 1 0.019496 -0.006188 -0.008355 0.000000 0.000000 0.000000
# 2 -0.006188 0.019496 -0.008355 0.000000 0.000000 0.000000
# 3 -0.008355 -0.008355 0.021295 0.000000 0.000000 0.000000
# 4 0.000000 0.000000 0.000000 0.038121 0.000000 0.000000
# 5 0.000000 0.000000 0.000000 0.000000 0.038121 0.000000
# 6 0.000000 0.000000 0.000000 0.000000 0.000000 0.051369
#
#
# Mechanical properties :
#
#
# Convention : Reuss Voigt Hill
#
# Bulk Modulus (GPa) = 69.01016 69.02461 69.01739
# Shear Modulus (GPa) = 20.96206 21.63908 21.30057
#
# Velocity S-wave (km/s) = 3.46830 3.52386 3.49619
# Velocity P-wave (km/s) = 7.45924 7.49444 7.47686
#
# Compressibility (1/GPa) = 0.01449062
#
# Stress axis : x y z
#
# Youngs Moduli (GPa) = 51.29208 51.29208 46.95906
#
# Poissons Ratio (x) = 0.31740 0.39235
# Poissons Ratio (y) = 0.31740 0.39235
# Poissons Ratio (z) = 0.42855 0.42855
#
# Static dielectric constant tensor:
#      x y z
#    x 3.191570 0.000000 0.000000 
#    y 0.000000 3.191570 0.000000 
#    z 0.000000 0.000000 3.247410 
# 
# 
# High freq. dielectric constant tensor:
#      x y z
#    x 1.665620 0.000000 0.000000 
#    y 0.000000 1.665620 0.000000 
#    z 0.000000 0.000000 1.676540 
# 
# From -- ./inp_files/2126.got.cif
#   From: 2010.03.12/outbox.cif.g09.slc.cpg/sg194_2_cif.got.tgz:2126.got - 2010.04.01 12:26:19.
