data_PCOD8330660
_publ_section_title
;
Structure prediction by ZEFSAII (Michael W. Deem and Ramdas Pophale) SiO2 
 PCOD8330660
Probable space group: P 63/M M C
;
_chemical_formula_sum "Si O2"
_cell_formula_units_Z 96
_cell_length_a 13.044560
_cell_length_b 13.044560
_cell_length_c 40.057822
_cell_angle_alpha 90.000000
_cell_angle_beta 90.000000
_cell_angle_gamma 120.000000
_cell_volume 5903.055052
_symmetry_space_group_name_H-M "P 63/M M C"
_symmetry_group_IT_number 194
_symmetry_cell_setting 'hexagonal'
loop_
_space_group_symop_operation_xyz
x,y,z
x-y,x,1/2+z
-y,x-y,z
-x,-y,1/2+z
-x+y,-x,z
y,-x+y,1/2+z
x-y,-y,-z
-x,-x+y,-z
y,x,-z
-y,-x,1/2-z
-x+y,y,1/2-z
x,x-y,1/2-z
-x,-y,-z
-x+y,-x,1/2-z
y,-x+y,-z
x,y,1/2-z
x-y,x,-z
-y,x-y,1/2-z
-x+y,y,z
x,x-y,z
-y,-x,z
y,x,1/2+z
x-y,-y,1/2+z
-x,-x+y,1/2+z
loop_
_atom_site_type_symbol
_atom_site_label
_atom_site_fract_x
_atom_site_fract_y
_atom_site_fract_z
Si Si1 0.571138 0.667306 0.287582
Si Si2 0.333673 0.907288 0.970588
Si Si3 0.999621 0.235535 0.915385
Si Si4 0.236218 0.235856 0.839427
O O1 0.619472 0.674371 0.250000
O O2 0.541942 0.770971 0.294077
O O3 0.453396 0.546605 0.294089
O O4 0.665123 0.673030 0.314231
O O5 0.441477 0.882953 0.964772
O O6 0.216246 0.783755 0.979346
O O7 0.316655 0.966000 0.937385
O O8 0.360774 0.000000 0.000000
O O9 0.874644 0.125357 0.927178
O O10 0.097623 0.195245 0.918646
O O11 0.992030 0.271771 0.877444
O O12 0.121649 0.243297 0.831509
O O13 0.205791 0.102896 0.832092
#
# Coordination Sequence:
#
# PCOD8330660 Si02
#       4
#    24  24  24  24
#     4   9  17  29  45  64  86 114 148 185 222 259
#     4  10  20  33  49  68  91 119 150 185 224 266
#     4   9  17  30  48  69  92 118 148 182 220 262
#     4   9  17  29  46  68  93 119 146 179 221 267
#
# _framework density 16.262765000000002
#
# number of rings (size 3 to 8) (size 9 to 14) (size 15 to 20)
#    0.000    2.750    0.000    1.750    0.000    4.500 
#    0.000    0.000    0.000    6.500    0.000    0.000 
#    0.000    0.000    0.000    0.000    0.000    0.000 
#
# Total GULP energy -1190362.962571 kJ/mol
# GULP energy per Si atom -12399.614193 kJ/mol
# Density = 1.622575 g / cm^3
# Si number density = 16.262765 Si / 1000 Ang^3
#
#
#
# Elastic Constant Matrix: (Units=GPa)
#
#
# Indices 1 2 3 4 5 6 
#
# 1 101.1200 57.4111 64.9505 0.0000 0.0000 0.0000
# 2 57.4111 101.1200 64.9505 0.0000 0.0000 0.0000
# 3 64.9505 64.9505 104.8109 0.0000 0.0000 0.0000
# 4 0.0000 0.0000 0.0000 28.8421 0.0000 0.0000
# 5 0.0000 0.0000 0.0000 0.0000 28.8421 0.0000
# 6 0.0000 0.0000 0.0000 0.0000 0.0000 21.8544
#
#
#
# Elastic Compliance Matrix: (Units=1/GPa)
#
#
# Indices 1 2 3 4 5 6 
#
# 1 0.017847 -0.005032 -0.007941 0.000000 0.000000 0.000000
# 2 -0.005032 0.017847 -0.007941 0.000000 0.000000 0.000000
# 3 -0.007941 -0.007941 0.019383 0.000000 0.000000 0.000000
# 4 0.000000 0.000000 0.000000 0.034671 0.000000 0.000000
# 5 0.000000 0.000000 0.000000 0.000000 0.034671 0.000000
# 6 0.000000 0.000000 0.000000 0.000000 0.000000 0.045757
#
#
# Mechanical properties :
#
#
# Convention : Reuss Voigt Hill
#
# Bulk Modulus (GPa) = 75.48302 75.74168 75.61235
# Shear Modulus (GPa) = 23.10292 23.89034 23.49663
#
# Velocity S-wave (km/s) = 3.77318 3.83694 3.80519
# Velocity P-wave (km/s) = 8.09308 8.14274 8.11795
#
# Compressibility (1/GPa) = 0.01324801
#
# Stress axis : x y z
#
# Youngs Moduli (GPa) = 56.03215 56.03215 51.59032
#
# Poissons Ratio (x) = 0.28194 0.40970
# Poissons Ratio (y) = 0.28194 0.40970
# Poissons Ratio (z) = 0.44498 0.44498
#
# Static dielectric constant tensor:
#      x y z
#    x 3.012250 0.000000 0.000000 
#    y 0.000000 3.012250 0.000000 
#    z 0.000000 0.000000 3.222510 
# 
# 
# High freq. dielectric constant tensor:
#      x y z
#    x 1.619890 0.000000 0.000000 
#    y 0.000000 1.619890 0.000000 
#    z 0.000000 0.000000 1.633150 
# 
# From -- ./inp_files/11492.got.cif
#   From: 2010.03.12/outbox.cif.g09.slc.cpg/sg194_6_cif.got.tgz:11492.got - 2010.04.01 12:26:19.
