data_PCOD8330243
_publ_section_title
;
Structure prediction by ZEFSAII (Michael W. Deem and Ramdas Pophale) SiO2 
 PCOD8330243
Probable space group: P 63/M C M
;
_chemical_formula_sum "Si O2"
_cell_formula_units_Z 168
_cell_length_a 18.853058
_cell_length_b 18.853058
_cell_length_c 28.111527
_cell_angle_alpha 90.000000
_cell_angle_beta 90.000000
_cell_angle_gamma 120.000000
_cell_volume 8653.238537
_symmetry_space_group_name_H-M "P 63/M C M"
_symmetry_group_IT_number 193
_symmetry_cell_setting 'hexagonal'
loop_
_space_group_symop_operation_xyz
x,y,z
x-y,x,1/2+z
-y,x-y,z
-x,-y,1/2+z
-x+y,-x,z
y,-x+y,1/2+z
x-y,-y,1/2-z
-x,-x+y,1/2-z
y,x,1/2-z
-y,-x,-z
-x+y,y,-z
x,x-y,-z
-x,-y,-z
-x+y,-x,1/2-z
y,-x+y,-z
x,y,1/2-z
x-y,x,-z
-y,x-y,1/2-z
-x+y,y,1/2+z
x,x-y,1/2+z
-y,-x,1/2+z
y,x,z
x-y,-y,z
-x,-x+y,z
loop_
_atom_site_type_symbol
_atom_site_label
_atom_site_fract_x
_atom_site_fract_y
_atom_site_fract_z
Si Si1 0.781523 0.687057 0.881471
Si Si2 0.090485 0.461970 0.492255
Si Si3 0.509381 0.696058 0.917543
Si Si4 0.815913 0.907804 0.443985
Si Si5 0.268730 0.090975 0.196368
Si Si6 0.344731 0.907652 0.197119
Si Si7 0.474351 0.642048 0.397976
O O1 0.711107 0.711107 0.883762
O O2 0.738001 0.588657 0.883135
O O3 0.846047 0.725263 0.924780
O O4 0.835551 0.726680 0.834374
O O5 0.093705 0.546853 0.500000
O O6 0.155882 0.459246 0.528427
O O7 0.109703 0.456672 0.436614
O O8 0.000000 0.386006 0.503586
O O9 0.457460 0.742301 0.912343
O O10 0.447731 0.603877 0.901568
O O11 0.809765 0.904883 0.500000
O O12 0.848162 0.848162 0.425132
O O13 0.878900 0.000000 0.426277
O O14 0.250206 0.105670 0.250000
O O15 0.354636 0.094735 0.192829
O O16 0.198111 0.000000 0.179371
O O17 0.352174 0.876418 0.250000
O O18 0.348860 0.851013 0.156394
O O19 0.418917 0.000000 0.189742
#
# Coordination Sequence:
#
# PCOD8330243 Si02
#       7
#    24  24  24  24  24  24  24
#     4  11  22  36  54  83 122 155 185 238 303 356
#     4   9  19  35  56  81 110 144 184 236 295 352
#     4  11  23  38  56  83 116 152 201 245 294 357
#     4   9  18  33  54  80 113 154 197 237 282 343
#     4   9  18  36  61  86 113 147 191 237 280 344
#     4   9  18  35  60  86 107 135 187 246 287 334
#     4  11  21  38  59  80 110 154 197 242 297 354
#
# _framework density 19.414697
#
# number of rings (size 3 to 8) (size 9 to 14) (size 15 to 20)
#    0.000    2.143    1.429    3.000    0.000    3.714 
#    0.000    4.286    0.000    0.286    0.000    0.000 
#    0.000    0.000    0.000    0.000    0.000    0.000 
#
# Total GULP energy -2082317.997451 kJ/mol
# GULP energy per Si atom -12394.749985 kJ/mol
# Density = 1.937051 g / cm^3
# Si number density = 19.414697 Si / 1000 Ang^3
#
#
#
# Elastic Constant Matrix: (Units=GPa)
#
#
# Indices 1 2 3 4 5 6 
#
# 1 76.4372 32.1429 29.0037 0.0000 0.0000 0.0000
# 2 32.1429 76.4372 29.0037 0.0000 0.0000 0.0000
# 3 29.0037 29.0037 108.3681 0.0000 0.0000 0.0000
# 4 0.0000 0.0000 0.0000 27.9896 0.0000 0.0000
# 5 0.0000 0.0000 0.0000 0.0000 27.9896 0.0000
# 6 0.0000 0.0000 0.0000 0.0000 0.0000 22.1471
#
#
#
# Elastic Compliance Matrix: (Units=1/GPa)
#
#
# Indices 1 2 3 4 5 6 
#
# 1 0.016661 -0.005915 -0.002876 0.000000 0.000000 0.000000
# 2 -0.005915 0.016661 -0.002876 0.000000 0.000000 0.000000
# 3 -0.002876 -0.002876 0.010767 0.000000 0.000000 0.000000
# 4 0.000000 0.000000 0.000000 0.035728 0.000000 0.000000
# 5 0.000000 0.000000 0.000000 0.000000 0.035728 0.000000
# 6 0.000000 0.000000 0.000000 0.000000 0.000000 0.045153
#
#
# Mechanical properties :
#
#
# Convention : Reuss Voigt Hill
#
# Bulk Modulus (GPa) = 48.18019 49.06032 48.62025
# Shear Modulus (GPa) = 26.18476 27.03140 26.60808
#
# Velocity S-wave (km/s) = 3.67646 3.73542 3.70606
# Velocity P-wave (km/s) = 6.54920 6.62790 6.58867
#
# Compressibility (1/GPa) = 0.02075542
#
# Stress axis : x y z
#
# Youngs Moduli (GPa) = 60.01930 60.01930 92.87328
#
# Poissons Ratio (x) = 0.35501 0.26712
# Poissons Ratio (y) = 0.35501 0.26712
# Poissons Ratio (z) = 0.17262 0.17262
#
# Static dielectric constant tensor:
#      x y z
#    x 3.461970 0.000000 0.000000 
#    y 0.000000 3.461970 0.000000 
#    z 0.000000 0.000000 3.737890 
# 
# 
# High freq. dielectric constant tensor:
#      x y z
#    x 1.744860 0.000000 0.000000 
#    y 0.000000 1.744860 0.000000 
#    z 0.000000 0.000000 1.754200 
# 
# From -- ./inp_files/9303.got.cif
#   From: 2010.03.12/outbox.cif.g09.slc.cpg/sg193_5_cif.got.tgz:9303.got - 2010.04.01 12:20:39.
