data_PCOD8330677
_publ_section_title
;
Structure prediction by ZEFSAII (Michael W. Deem and Ramdas Pophale) SiO2 
 PCOD8330677
Probable space group: P 63/M M C
;
_chemical_formula_sum "Si O2"
_cell_formula_units_Z 144
_cell_length_a 30.333377
_cell_length_b 30.333377
_cell_length_c 9.480285
_cell_angle_alpha 90.000000
_cell_angle_beta 90.000000
_cell_angle_gamma 120.000000
_cell_volume 7554.288224
_symmetry_space_group_name_H-M "P 63/M M C"
_symmetry_group_IT_number 194
_symmetry_cell_setting 'hexagonal'
loop_
_space_group_symop_operation_xyz
x,y,z
x-y,x,1/2+z
-y,x-y,z
-x,-y,1/2+z
-x+y,-x,z
y,-x+y,1/2+z
x-y,-y,-z
-x,-x+y,-z
y,x,-z
-y,-x,1/2-z
-x+y,y,1/2-z
x,x-y,1/2-z
-x,-y,-z
-x+y,-x,1/2-z
y,-x+y,-z
x,y,1/2-z
x-y,x,-z
-y,x-y,1/2-z
-x+y,y,z
x,x-y,z
-y,-x,z
y,x,1/2+z
x-y,-y,1/2+z
-x,-x+y,1/2+z
loop_
_atom_site_type_symbol
_atom_site_label
_atom_site_fract_x
_atom_site_fract_y
_atom_site_fract_z
Si Si1 0.332975 0.566816 0.916518
Si Si2 0.472040 0.042696 0.903636
Si Si3 0.875913 0.519410 0.413886
Si Si4 0.904536 0.195097 0.411324
Si Si5 0.052173 0.688880 0.913022
Si Si6 0.191729 0.146565 0.908887
O O1 0.332800 0.572464 0.750000
O O2 0.283547 0.567094 0.980935
O O3 0.385108 0.614893 0.976987
O O4 0.328725 0.512577 0.954543
O O5 0.450573 0.047092 0.750000
O O6 0.511682 0.023363 0.877096
O O7 0.501664 0.096089 0.985923
O O8 0.425504 0.000000 0.000000
O O9 0.883132 0.510307 0.250000
O O10 0.904308 0.579220 0.451650
O O11 0.919259 0.191066 0.250000
O O12 0.844334 0.155667 0.435938
O O13 0.917973 0.251583 0.449254
O O14 0.937865 0.182887 0.516560
O O15 0.036741 0.678143 0.750000
O O16 0.000000 0.658184 0.000000
O O17 0.194291 0.166610 0.750000
O O18 0.177348 0.088674 0.908031
O O19 0.147963 0.147963 0.000000
#
# Coordination Sequence:
#
# PCOD8330677 Si02
#       6
#    24  24  24  24  24  24
#     4   9  17  30  51  79 108 136 169 216 275 335
#     4  10  20  33  50  72  98 129 165 205 248 296
#     4  10  20  33  50  74 104 137 173 213 258 311
#     4   9  18  33  52  73  99 133 173 218 266 312
#     4  10  21  34  49  72 103 141 181 218 258 308
#     4  10  20  33  51  76 103 131 167 211 257 306
#
# _framework density 19.062021999999999
#
# number of rings (size 3 to 8) (size 9 to 14) (size 15 to 20)
#    0.000    2.333    0.000    2.667    0.000    8.000 
#    0.000    3.333    0.000    0.667    0.000    2.333 
#    0.000    1.333    0.000    0.000    0.000    0.000 
#
# Total GULP energy -1784510.945174 kJ/mol
# GULP energy per Si atom -12392.437119 kJ/mol
# Density = 1.901864 g / cm^3
# Si number density = 19.062022 Si / 1000 Ang^3
#
#
#
# Elastic Constant Matrix: (Units=GPa)
#
#
# Indices 1 2 3 4 5 6 
#
# 1 117.4358 68.1039 49.7870 0.0000 0.0000 0.0000
# 2 68.1039 117.4358 49.7870 0.0000 0.0000 0.0000
# 3 49.7870 49.7870 105.5324 0.0000 0.0000 0.0000
# 4 0.0000 0.0000 0.0000 20.3539 0.0000 0.0000
# 5 0.0000 0.0000 0.0000 0.0000 20.3539 0.0000
# 6 0.0000 0.0000 0.0000 0.0000 0.0000 24.6659
#
#
#
# Elastic Compliance Matrix: (Units=1/GPa)
#
#
# Indices 1 2 3 4 5 6 
#
# 1 0.013744 -0.006527 -0.003405 0.000000 0.000000 0.000000
# 2 -0.006527 0.013744 -0.003405 0.000000 0.000000 0.000000
# 3 -0.003405 -0.003405 0.012688 0.000000 0.000000 0.000000
# 4 0.000000 0.000000 0.000000 0.049131 0.000000 0.000000
# 5 0.000000 0.000000 0.000000 0.000000 0.049131 0.000000
# 6 0.000000 0.000000 0.000000 0.000000 0.000000 0.040542
#
#
# Mechanical properties :
#
#
# Convention : Reuss Voigt Hill
#
# Bulk Modulus (GPa) = 74.05661 75.08442 74.57051
# Shear Modulus (GPa) = 23.79219 24.58981 24.19100
#
# Velocity S-wave (km/s) = 3.53674 3.59554 3.56626
# Velocity P-wave (km/s) = 7.45740 7.53075 7.49416
#
# Compressibility (1/GPa) = 0.01350318
#
# Stress axis : x y z
#
# Youngs Moduli (GPa) = 72.75964 72.75964 78.81307
#
# Poissons Ratio (x) = 0.47490 0.26834
# Poissons Ratio (y) = 0.47490 0.26834
# Poissons Ratio (z) = 0.24773 0.24773
#
# Static dielectric constant tensor:
#      x y z
#    x 3.591420 0.000000 0.000000 
#    y 0.000000 3.591420 0.000000 
#    z 0.000000 0.000000 3.601300 
# 
# 
# High freq. dielectric constant tensor:
#      x y z
#    x 1.737820 0.000000 0.000000 
#    y 0.000000 1.737820 0.000000 
#    z 0.000000 0.000000 1.726490 
# 
# From -- ./inp_files/2157.got.cif
#   From: 2010.03.12/outbox.cif.g09.slc.cpg/sg194_2_cif.got.tgz:2157.got - 2010.04.01 12:26:19.
