data_PCOD8330052
_publ_section_title
;
Structure prediction by ZEFSAII (Michael W. Deem and Ramdas Pophale) SiO2 
 PCOD8330052
Probable space group: P 63/M C M
;
_chemical_formula_sum "Si O2"
_cell_formula_units_Z 132
_cell_length_a 18.104086
_cell_length_b 18.104086
_cell_length_c 23.824210
_cell_angle_alpha 90.000000
_cell_angle_beta 90.000000
_cell_angle_gamma 120.000000
_cell_volume 6762.423236
_symmetry_space_group_name_H-M "P 63/M C M"
_symmetry_group_IT_number 193
_symmetry_cell_setting 'hexagonal'
loop_
_space_group_symop_operation_xyz
x,y,z
x-y,x,1/2+z
-y,x-y,z
-x,-y,1/2+z
-x+y,-x,z
y,-x+y,1/2+z
x-y,-y,1/2-z
-x,-x+y,1/2-z
y,x,1/2-z
-y,-x,-z
-x+y,y,-z
x,x-y,-z
-x,-y,-z
-x+y,-x,1/2-z
y,-x+y,-z
x,y,1/2-z
x-y,x,-z
-y,x-y,1/2-z
-x+y,y,1/2+z
x,x-y,1/2+z
-y,-x,1/2+z
y,x,z
x-y,-y,z
-x,-x+y,z
loop_
_atom_site_type_symbol
_atom_site_label
_atom_site_fract_x
_atom_site_fract_y
_atom_site_fract_z
Si Si1 0.343382 0.902426 0.127540
Si Si2 0.333228 0.097580 0.573854
Si Si3 0.899060 0.365667 0.002691
Si Si4 0.600804 0.825162 0.186858
Si Si5 0.415095 0.905037 0.811624
Si Si6 0.898625 0.797249 0.500000
O O1 0.269293 0.845966 0.170429
O O2 0.422229 0.887763 0.140189
O O3 0.369561 0.000000 0.138448
O O4 0.317257 0.875811 0.063008
O O5 0.427942 0.138695 0.544259
O O6 0.334992 0.110515 0.640608
O O7 0.268826 0.128853 0.552061
O O8 0.290747 0.000000 0.557715
O O9 0.000000 0.424196 0.996116
O O10 0.859981 0.429991 0.000000
O O11 0.640303 0.846804 0.250000
O O12 0.516556 0.833355 0.184399
O O13 0.450625 0.900523 0.750000
O O14 0.427746 0.000000 0.820556
O O15 0.857244 0.857244 0.491764
#
# Coordination Sequence:
#
# PCOD8330052 Si02
#       6
#    24  24  24  24  24  12
#     4  10  20  35  55  79 107 138 177 224 276 331
#     4  10  20  34  53  80 112 143 181 230 281 335
#     4   9  17  31  55  83 109 141 176 216 273 339
#     4  11  22  34  52  79 108 144 185 226 271 322
#     4   9  18  34  53  72 100 141 186 227 269 322
#     4  10  21  38  60  84 112 148 190 240 297 350
#
# _framework density 19.519629999999999
#
# number of rings (size 3 to 8) (size 9 to 14) (size 15 to 20)
#    0.000    2.182    0.000    3.364    0.000    7.273 
#    1.091    0.000    0.000    0.000    0.000    0.000 
#    0.000    1.455    0.000    0.000    0.000    0.000 
#
# Total GULP energy -1635527.836593 kJ/mol
# GULP energy per Si atom -12390.362398 kJ/mol
# Density = 1.947520 g / cm^3
# Si number density = 19.519630 Si / 1000 Ang^3
#
#
#
# Elastic Constant Matrix: (Units=GPa)
#
#
# Indices 1 2 3 4 5 6 
#
# 1 65.0467 45.2719 38.7955 0.0000 0.0000 0.0000
# 2 45.2719 65.0467 38.7955 0.0000 0.0000 0.0000
# 3 38.7955 38.7955 140.3206 0.0000 0.0000 0.0000
# 4 0.0000 0.0000 0.0000 29.1141 0.0000 0.0000
# 5 0.0000 0.0000 0.0000 0.0000 29.1141 0.0000
# 6 0.0000 0.0000 0.0000 0.0000 0.0000 9.8874
#
#
#
# Elastic Compliance Matrix: (Units=1/GPa)
#
#
# Indices 1 2 3 4 5 6 
#
# 1 0.030911 -0.019658 -0.003111 0.000000 0.000000 0.000000
# 2 -0.019658 0.030911 -0.003111 0.000000 0.000000 0.000000
# 3 -0.003111 -0.003111 0.008847 0.000000 0.000000 0.000000
# 4 0.000000 0.000000 0.000000 0.034348 0.000000 0.000000
# 5 0.000000 0.000000 0.000000 0.000000 0.034348 0.000000
# 6 0.000000 0.000000 0.000000 0.000000 0.000000 0.101139
#
#
# Mechanical properties :
#
#
# Convention : Reuss Voigt Hill
#
# Bulk Modulus (GPa) = 52.88789 57.34887 55.11838
# Shear Modulus (GPa) = 16.74664 23.45986 20.10325
#
# Velocity S-wave (km/s) = 2.93224 3.47055 3.21269
# Velocity P-wave (km/s) = 6.21430 6.74563 6.48541
#
# Compressibility (1/GPa) = 0.01890792
#
# Stress axis : x y z
#
# Youngs Moduli (GPa) = 32.35074 32.35074 113.03424
#
# Poissons Ratio (x) = 0.63596 0.35167
# Poissons Ratio (y) = 0.63596 0.35167
# Poissons Ratio (z) = 0.10065 0.10065
#
# Static dielectric constant tensor:
#      x y z
#    x 3.462420 0.000000 0.000000 
#    y 0.000000 3.462420 0.000000 
#    z 0.000000 0.000000 3.780940 
# 
# 
# High freq. dielectric constant tensor:
#      x y z
#    x 1.741270 0.000000 0.000000 
#    y 0.000000 1.741270 0.000000 
#    z 0.000000 0.000000 1.772850 
# 
# From -- ./inp_files/7479.got.cif
#   From: 2010.03.12/outbox.cif.g09.slc.cpg/sg193_4_cif.got.tgz:7479.got - 2010.04.01 12:20:39.
