data_PCOD8330436
_publ_section_title
;
Structure prediction by ZEFSAII (Michael W. Deem and Ramdas Pophale) SiO2 
 PCOD8330436
Probable space group: P 63/M M C
;
_chemical_formula_sum "Si O2"
_cell_formula_units_Z 88
_cell_length_a 25.898704
_cell_length_b 25.898704
_cell_length_c 8.910742
_cell_angle_alpha 90.000000
_cell_angle_beta 90.000000
_cell_angle_gamma 120.000000
_cell_volume 5176.075055
_symmetry_space_group_name_H-M "P 63/M M C"
_symmetry_group_IT_number 194
_symmetry_cell_setting 'hexagonal'
loop_
_space_group_symop_operation_xyz
x,y,z
x-y,x,1/2+z
-y,x-y,z
-x,-y,1/2+z
-x+y,-x,z
y,-x+y,1/2+z
x-y,-y,-z
-x,-x+y,-z
y,x,-z
-y,-x,1/2-z
-x+y,y,1/2-z
x,x-y,1/2-z
-x,-y,-z
-x+y,-x,1/2-z
y,-x+y,-z
x,y,1/2-z
x-y,x,-z
-y,x-y,1/2-z
-x+y,y,z
x,x-y,z
-y,-x,z
y,x,1/2+z
x-y,-y,1/2+z
-x,-x+y,1/2+z
loop_
_atom_site_type_symbol
_atom_site_label
_atom_site_fract_x
_atom_site_fract_y
_atom_site_fract_z
Si Si1 0.304997 0.488789 0.075559
Si Si2 0.628994 0.753403 0.915811
Si Si3 0.602725 0.205450 0.427525
Si Si4 0.239493 0.061501 0.072204
Si Si5 0.333334 0.666668 0.428224
O O1 0.321021 0.498747 0.250000
O O2 0.249360 0.498720 0.038402
O O3 0.290194 0.422413 0.030339
O O4 0.362754 0.533961 0.978986
O O5 0.616542 0.723666 0.750000
O O6 0.629503 0.814752 0.901558
O O7 0.694228 0.769367 0.976352
O O8 0.607363 0.214725 0.250000
O O9 0.633521 0.267042 0.514067
O O10 0.234107 0.056821 0.250000
O O11 0.227672 0.113836 0.014234
O O12 0.190098 0.000000 0.000000
O O13 0.333334 0.666667 0.250000
#
# Coordination Sequence:
#
# PCOD8330436 Si02
#       5
#    24  24  12  24   4
#     4  10  19  29  42  60  86 116 152 202 248 288
#     4   8  15  29  46  64  90 121 155 193 236 286
#     4  12  22  30  42  58  81 121 162 196 248 310
#     4   9  18  32  51  77 107 136 164 198 234 273
#     4  12  22  32  40  54  82 113 157 210 250 296
#
# _framework density 17.001298999999999
#
# number of rings (size 3 to 8) (size 9 to 14) (size 15 to 20)
#    0.000    2.455    1.364    4.091    0.000    2.727 
#    0.000    2.727    0.000    0.273    0.000    0.955 
#    0.000    0.000    0.000    0.000    0.000    0.000 
#
# Total GULP energy -1090833.845994 kJ/mol
# GULP energy per Si atom -12395.839159 kJ/mol
# Density = 1.696260 g / cm^3
# Si number density = 17.001299 Si / 1000 Ang^3
#
#
#
# Elastic Constant Matrix: (Units=GPa)
#
#
# Indices 1 2 3 4 5 6 
#
# 1 88.2092 42.4434 37.9151 -0.0001 0.0000 -0.0002
# 2 42.4434 88.2089 37.9141 0.0002 0.0000 -0.0002
# 3 37.9151 37.9141 88.8523 0.0002 0.0000 -0.0003
# 4 -0.0001 0.0002 0.0002 22.9036 0.0000 0.0000
# 5 0.0000 0.0000 0.0000 0.0000 22.9036 0.0002
# 6 -0.0002 -0.0002 -0.0003 0.0000 0.0002 22.8841
#
#
#
# Elastic Compliance Matrix: (Units=1/GPa)
#
#
# Indices 1 2 3 4 5 6 
#
# 1 0.016012 -0.005839 -0.004341 0.000000 0.000000 0.000000
# 2 -0.005839 0.016012 -0.004341 0.000000 0.000000 0.000000
# 3 -0.004341 -0.004341 0.014960 0.000000 0.000000 0.000000
# 4 0.000000 0.000000 0.000000 0.043661 0.000000 0.000000
# 5 0.000000 0.000000 0.000000 0.000000 0.043661 0.000000
# 6 0.000000 0.000000 0.000000 0.000000 0.000000 0.043698
#
#
# Mechanical properties :
#
#
# Convention : Reuss Voigt Hill
#
# Bulk Modulus (GPa) = 55.73586 55.75727 55.74657
# Shear Modulus (GPa) = 23.47126 23.53813 23.50470
#
# Velocity S-wave (km/s) = 3.71962 3.72491 3.72226
# Velocity P-wave (km/s) = 7.16253 7.16708 7.16481
#
# Compressibility (1/GPa) = 0.01794177
#
# Stress axis : x y z
#
# Youngs Moduli (GPa) = 62.45307 62.45362 66.84714
#
# Poissons Ratio (x) = 0.36464 0.29020
# Poissons Ratio (y) = 0.36463 0.29018
# Poissons Ratio (z) = 0.27113 0.27111
#
# Static dielectric constant tensor:
#      x y z
#    x 3.152430 0.000000 0.000000 
#    y 0.000000 3.152490 0.000010 
#    z 0.000000 0.000010 3.134970 
# 
# 
# High freq. dielectric constant tensor:
#      x y z
#    x 1.628490 0.000000 0.000000 
#    y 0.000000 1.628490 0.000000 
#    z 0.000000 0.000000 1.659190 
# 
# From -- ./inp_files/1467.got.cif
#   From: 2010.03.12/outbox.cif.g09.slc.cpg/sg194_1_cif.got.tgz:1467.got - 2010.04.01 12:26:19.
