data_PCOD8330177
_publ_section_title
;
Structure prediction by ZEFSAII (Michael W. Deem and Ramdas Pophale) SiO2 
 PCOD8330177
Probable space group: P 63/M C M
;
_chemical_formula_sum "Si O2"
_cell_formula_units_Z 144
_cell_length_a 22.560055
_cell_length_b 22.560055
_cell_length_c 17.606111
_cell_angle_alpha 90.000000
_cell_angle_beta 90.000000
_cell_angle_gamma 120.000000
_cell_volume 7760.226110
_symmetry_space_group_name_H-M "P 63/M C M"
_symmetry_group_IT_number 193
_symmetry_cell_setting 'hexagonal'
loop_
_space_group_symop_operation_xyz
x,y,z
x-y,x,1/2+z
-y,x-y,z
-x,-y,1/2+z
-x+y,-x,z
y,-x+y,1/2+z
x-y,-y,1/2-z
-x,-x+y,1/2-z
y,x,1/2-z
-y,-x,-z
-x+y,y,-z
x,x-y,-z
-x,-y,-z
-x+y,-x,1/2-z
y,-x+y,-z
x,y,1/2-z
x-y,x,-z
-y,x-y,1/2-z
-x+y,y,1/2+z
x,x-y,1/2+z
-y,-x,1/2+z
y,x,z
x-y,-y,z
-x,-x+y,z
loop_
_atom_site_type_symbol
_atom_site_label
_atom_site_fract_x
_atom_site_fract_y
_atom_site_fract_z
Si Si1 0.281979 0.204838 0.984428
Si Si2 0.191962 0.666202 0.005693
Si Si3 0.326699 0.922326 0.750000
Si Si4 0.081379 0.534917 0.750000
Si Si5 0.239976 0.882625 0.164154
Si Si6 0.921770 0.539827 0.619791
Si Si7 0.260332 0.403579 0.102772
O O1 0.230493 0.230493 0.011369
O O2 0.294427 0.217271 0.894007
O O3 0.247184 0.123592 0.000000
O O4 0.353159 0.244896 0.031288
O O5 0.160486 0.679538 0.082574
O O6 0.265079 0.734922 0.000000
O O7 0.203814 0.601907 0.000000
O O8 0.133298 0.652987 0.946067
O O9 0.371345 0.884200 0.750000
O O10 0.282010 0.906807 0.825391
O O11 0.382800 0.000000 0.750000
O O12 0.105903 0.579548 0.826546
O O13 0.000000 0.496459 0.750000
O O14 0.212397 0.880953 0.250000
O O15 0.321800 0.921894 0.168169
O O16 0.212171 0.806864 0.129592
O O17 0.000000 0.567429 0.589603
#
# Coordination Sequence:
#
# PCOD8330177 Si02
#       7
#    24  24  12  12  24  24  24
#     4  10  21  37  60  89 121 156 193 239 293 344
#     4  12  24  40  58  80 111 149 193 238 290 350
#     4  11  22  35  54  80 111 152 192 229 284 350
#     4   9  20  35  50  80 112 140 183 245 295 334
#     4  11  20  35  59  85 114 149 194 239 293 346
#     4  11  21  35  57  81 106 141 189 240 291 339
#     4  11  21  38  57  81 116 153 194 238 286 351
#
# _framework density 18.556159999999998
#
# number of rings (size 3 to 8) (size 9 to 14) (size 15 to 20)
#    0.000    1.167    5.000    2.667    0.000    2.000 
#    0.000    0.000    0.000    0.167    0.000    0.000 
#    0.000    0.000    0.000    0.500    0.000    0.000 
#
# Total GULP energy -1783982.361113 kJ/mol
# GULP energy per Si atom -12388.766397 kJ/mol
# Density = 1.851393 g / cm^3
# Si number density = 18.556160 Si / 1000 Ang^3
#
#
#
# Elastic Constant Matrix: (Units=GPa)
#
#
# Indices 1 2 3 4 5 6 
#
# 1 89.8188 40.8468 36.0255 0.0000 0.0000 0.0000
# 2 40.8468 89.8188 36.0255 0.0000 0.0000 0.0000
# 3 36.0255 36.0255 117.8944 0.0000 0.0000 0.0000
# 4 0.0000 0.0000 0.0000 42.5437 0.0000 0.0000
# 5 0.0000 0.0000 0.0000 0.0000 42.5437 0.0000
# 6 0.0000 0.0000 0.0000 0.0000 0.0000 24.4860
#
#
#
# Elastic Compliance Matrix: (Units=1/GPa)
#
#
# Indices 1 2 3 4 5 6 
#
# 1 0.014812 -0.005608 -0.002812 0.000000 0.000000 0.000000
# 2 -0.005608 0.014812 -0.002812 0.000000 0.000000 0.000000
# 3 -0.002812 -0.002812 0.010201 0.000000 0.000000 0.000000
# 4 0.000000 0.000000 0.000000 0.023505 0.000000 0.000000
# 5 0.000000 0.000000 0.000000 0.000000 0.023505 0.000000
# 6 0.000000 0.000000 0.000000 0.000000 0.000000 0.040840
#
#
# Mechanical properties :
#
#
# Convention : Reuss Voigt Hill
#
# Bulk Modulus (GPa) = 57.60705 58.14750 57.87728
# Shear Modulus (GPa) = 32.06623 34.22362 33.14493
#
# Velocity S-wave (km/s) = 4.16151 4.29922 4.23093
# Velocity P-wave (km/s) = 7.36227 7.48655 7.42467
#
# Compressibility (1/GPa) = 0.01735899
#
# Stress axis : x y z
#
# Youngs Moduli (GPa) = 67.51320 67.51320 98.02943
#
# Poissons Ratio (x) = 0.37861 0.27571
# Poissons Ratio (y) = 0.37861 0.27571
# Poissons Ratio (z) = 0.18988 0.18988
#
# Static dielectric constant tensor:
#      x y z
#    x 3.370160 0.000000 0.000000 
#    y 0.000000 3.370160 0.000000 
#    z 0.000000 0.000000 3.785900 
# 
# 
# High freq. dielectric constant tensor:
#      x y z
#    x 1.704160 0.000000 0.000000 
#    y 0.000000 1.704160 0.000000 
#    z 0.000000 0.000000 1.728260 
# 
# From -- ./inp_files/6635.got.cif
#   From: 2010.03.12/outbox.cif.g09.slc.cpg/sg193_4_cif.got.tgz:6635.got - 2010.04.01 12:20:39.
