data_PCOD8330676
_publ_section_title
;
Structure prediction by ZEFSAII (Michael W. Deem and Ramdas Pophale) SiO2 
 PCOD8330676
Probable space group: P 63/M M C
;
_chemical_formula_sum "Si O2"
_cell_formula_units_Z 144
_cell_length_a 32.001657
_cell_length_b 32.001657
_cell_length_c 8.965441
_cell_angle_alpha 90.000000
_cell_angle_beta 90.000000
_cell_angle_gamma 120.000000
_cell_volume 7951.466264
_symmetry_space_group_name_H-M "P 63/M M C"
_symmetry_group_IT_number 194
_symmetry_cell_setting 'hexagonal'
loop_
_space_group_symop_operation_xyz
x,y,z
x-y,x,1/2+z
-y,x-y,z
-x,-y,1/2+z
-x+y,-x,z
y,-x+y,1/2+z
x-y,-y,-z
-x,-x+y,-z
y,x,-z
-y,-x,1/2-z
-x+y,y,1/2-z
x,x-y,1/2-z
-x,-y,-z
-x+y,-x,1/2-z
y,-x+y,-z
x,y,1/2-z
x-y,x,-z
-y,x-y,1/2-z
-x+y,y,z
x,x-y,z
-y,-x,z
y,x,1/2+z
x-y,-y,1/2+z
-x,-x+y,1/2+z
loop_
_atom_site_type_symbol
_atom_site_label
_atom_site_fract_x
_atom_site_fract_y
_atom_site_fract_z
Si Si1 0.563795 0.950275 0.076139
Si Si2 0.140395 0.520731 0.918067
Si Si3 0.048159 0.192273 0.423507
Si Si4 0.293001 0.098541 0.423203
Si Si5 0.660673 0.710113 0.423923
Si Si6 0.666898 0.237326 0.575031
O O1 0.556357 0.954932 0.250000
O O2 0.607320 0.940412 0.043618
O O3 0.516405 0.905675 0.010913
O O4 0.573832 0.000000 0.000000
O O5 0.137017 0.501445 0.750000
O O6 0.141022 0.570511 0.919488
O O7 0.189934 0.529030 0.992138
O O8 0.039439 0.196287 0.250000
O O9 0.089141 0.178281 0.450938
O O10 0.062062 0.242715 0.499680
O O11 0.000000 0.150446 0.500000
O O12 0.288933 0.085387 0.250000
O O13 0.307038 0.153519 0.449246
O O14 0.335112 0.092723 0.500558
O O15 0.700058 0.700058 0.500000
O O16 0.672021 0.718565 0.250000
O O17 0.667520 0.228394 0.750000
O O18 0.623686 0.247371 0.533724
O O19 0.716721 0.283280 0.521697
#
# Coordination Sequence:
#
# PCOD8330676 Si02
#       6
#    24  24  24  24  24  24
#     4  10  21  37  57  79 102 133 172 214 260 308
#     4  10  21  36  54  78 108 140 174 215 262 309
#     4  10  20  33  50  72  98 128 161 200 246 293
#     4  10  20  33  50  73 101 132 165 201 242 289
#     4  10  20  34  53  75  99 128 163 203 246 294
#     4   9  17  31  53  80 109 141 177 216 258 306
#
# _framework density 18.109867000000001
#
# number of rings (size 3 to 8) (size 9 to 14) (size 15 to 20)
#    0.000    2.167    0.000    3.167    0.000    6.333 
#    0.000    0.833    0.000    2.167    0.000    0.000 
#    0.000    0.000    0.000    0.000    0.000    0.000 
#
# Total GULP energy -1786099.373163 kJ/mol
# GULP energy per Si atom -12403.467869 kJ/mol
# Density = 1.806865 g / cm^3
# Si number density = 18.109867 Si / 1000 Ang^3
#
#
#
# Elastic Constant Matrix: (Units=GPa)
#
#
# Indices 1 2 3 4 5 6 
#
# 1 81.8066 33.5821 43.2821 0.0000 0.0000 0.0000
# 2 33.5821 81.8066 43.2821 0.0000 0.0000 0.0000
# 3 43.2821 43.2821 105.5632 0.0000 0.0000 0.0000
# 4 0.0000 0.0000 0.0000 32.6565 0.0000 0.0000
# 5 0.0000 0.0000 0.0000 0.0000 32.6565 0.0000
# 6 0.0000 0.0000 0.0000 0.0000 0.0000 24.1123
#
#
#
# Elastic Compliance Matrix: (Units=1/GPa)
#
#
# Indices 1 2 3 4 5 6 
#
# 1 0.016626 -0.004110 -0.005132 0.000000 0.000000 0.000000
# 2 -0.004110 0.016626 -0.005132 0.000000 0.000000 0.000000
# 3 -0.005132 -0.005132 0.013681 0.000000 0.000000 0.000000
# 4 0.000000 0.000000 0.000000 0.030622 0.000000 0.000000
# 5 0.000000 0.000000 0.000000 0.000000 0.030622 0.000000
# 6 0.000000 0.000000 0.000000 0.000000 0.000000 0.041473
#
#
# Mechanical properties :
#
#
# Convention : Reuss Voigt Hill
#
# Bulk Modulus (GPa) = 54.98603 56.60769 55.79686
# Shear Modulus (GPa) = 27.10622 27.82037 27.46329
#
# Velocity S-wave (km/s) = 3.87300 3.92369 3.89843
# Velocity P-wave (km/s) = 7.10131 7.20090 7.15128
#
# Compressibility (1/GPa) = 0.01818644
#
# Stress axis : x y z
#
# Youngs Moduli (GPa) = 60.14575 60.14575 73.09304
#
# Poissons Ratio (x) = 0.24720 0.37510
# Poissons Ratio (y) = 0.24720 0.37510
# Poissons Ratio (z) = 0.30866 0.30866
#
# Static dielectric constant tensor:
#      x y z
#    x 3.285240 0.000000 0.000000 
#    y 0.000000 3.285240 0.000000 
#    z 0.000000 0.000000 3.519960 
# 
# 
# High freq. dielectric constant tensor:
#      x y z
#    x 1.693950 0.000000 0.000000 
#    y 0.000000 1.693950 0.000000 
#    z 0.000000 0.000000 1.717940 
# 
# From -- ./inp_files/2101.got.cif
#   From: 2010.03.12/outbox.cif.g09.slc.cpg/sg194_2_cif.got.tgz:2101.got - 2010.04.01 12:26:19.
