data_PCOD8330128
_publ_section_title
;
Structure prediction by ZEFSAII (Michael W. Deem and Ramdas Pophale) SiO2 
 PCOD8330128
Probable space group: P 63/M C M
;
_chemical_formula_sum "Si O2"
_cell_formula_units_Z 108
_cell_length_a 17.592072
_cell_length_b 17.592072
_cell_length_c 20.326374
_cell_angle_alpha 90.000000
_cell_angle_beta 90.000000
_cell_angle_gamma 120.000000
_cell_volume 5447.842351
_symmetry_space_group_name_H-M "P 63/M C M"
_symmetry_group_IT_number 193
_symmetry_cell_setting 'hexagonal'
loop_
_space_group_symop_operation_xyz
x,y,z
x-y,x,1/2+z
-y,x-y,z
-x,-y,1/2+z
-x+y,-x,z
y,-x+y,1/2+z
x-y,-y,1/2-z
-x,-x+y,1/2-z
y,x,1/2-z
-y,-x,-z
-x+y,y,-z
x,x-y,-z
-x,-y,-z
-x+y,-x,1/2-z
y,-x+y,-z
x,y,1/2-z
x-y,x,-z
-y,x-y,1/2-z
-x+y,y,1/2+z
x,x-y,1/2+z
-y,-x,1/2+z
y,x,z
x-y,-y,z
-x,-x+y,z
loop_
_atom_site_type_symbol
_atom_site_label
_atom_site_fract_x
_atom_site_fract_y
_atom_site_fract_z
Si Si1 0.679949 0.780437 0.057364
Si Si2 0.223301 0.635054 0.250000
Si Si3 0.836034 0.331128 0.505695
Si Si4 0.287250 0.098116 0.677642
Si Si5 0.642401 0.543749 0.851136
O O1 0.746653 0.746653 0.045002
O O2 0.701818 0.826588 0.128123
O O3 0.696518 0.848259 0.000000
O O4 0.579409 0.699175 0.051074
O O5 0.263983 0.569821 0.250000
O O6 0.164176 0.615974 0.315383
O O7 0.730715 0.269285 0.500000
O O8 0.864787 0.432394 0.500000
O O9 0.869192 0.319380 0.576168
O O10 0.261214 0.116965 0.750000
O O11 0.378673 0.099986 0.688026
O O12 0.213866 0.000000 0.653296
O O13 0.558252 0.558252 0.852361
#
# Coordination Sequence:
#
# PCOD8330128 Si02
#       5
#    24  12  24  24  24
#     4  11  22  39  63  92 124 162 209 258 305 366
#     4  10  25  38  60  88 124 160 209 260 308 358
#     4  11  24  38  61  90 124 159 204 251 310 367
#     4  10  20  38  66  94 122 160 204 249 308 378
#     4  11  21  39  63  87 119 164 207 249 306 372
#
# _framework density 19.824362000000001
#
# number of rings (size 3 to 8) (size 9 to 14) (size 15 to 20)
#    0.222    1.111    5.556    1.889    3.111    2.222 
#    0.000    0.000    0.000    5.333    0.000    0.000 
#    0.000    0.000    0.000    0.000    0.000    0.000 
#
# Total GULP energy -1338705.929908 kJ/mol
# GULP energy per Si atom -12395.425277 kJ/mol
# Density = 1.977924 g / cm^3
# Si number density = 19.824362 Si / 1000 Ang^3
#
#
#
# Elastic Constant Matrix: (Units=GPa)
#
#
# Indices 1 2 3 4 5 6 
#
# 1 94.6808 71.6766 44.4508 0.0000 0.0000 0.0000
# 2 71.6766 94.6808 44.4508 0.0000 0.0000 0.0000
# 3 44.4508 44.4508 104.4190 0.0000 0.0000 0.0000
# 4 0.0000 0.0000 0.0000 23.7843 0.0000 0.0000
# 5 0.0000 0.0000 0.0000 0.0000 23.7843 0.0000
# 6 0.0000 0.0000 0.0000 0.0000 0.0000 11.5021
#
#
#
# Elastic Compliance Matrix: (Units=1/GPa)
#
#
# Indices 1 2 3 4 5 6 
#
# 1 0.025626 -0.017844 -0.003312 0.000000 0.000000 0.000000
# 2 -0.017844 0.025626 -0.003312 0.000000 0.000000 0.000000
# 3 -0.003312 -0.003312 0.012397 0.000000 0.000000 0.000000
# 4 0.000000 0.000000 0.000000 0.042044 0.000000 0.000000
# 5 0.000000 0.000000 0.000000 0.000000 0.042044 0.000000
# 6 0.000000 0.000000 0.000000 0.000000 0.000000 0.086941
#
#
# Mechanical properties :
#
#
# Convention : Reuss Voigt Hill
#
# Bulk Modulus (GPa) = 67.98204 68.32633 68.15419
# Shear Modulus (GPa) = 17.32978 20.69431 19.01205
#
# Velocity S-wave (km/s) = 2.95984 3.23442 3.10017
# Velocity P-wave (km/s) = 6.78583 6.96343 6.87520
#
# Compressibility (1/GPa) = 0.01470977
#
# Stress axis : x y z
#
# Youngs Moduli (GPa) = 39.02309 39.02309 80.66447
#
# Poissons Ratio (x) = 0.69635 0.26720
# Poissons Ratio (y) = 0.69635 0.26720
# Poissons Ratio (z) = 0.12926 0.12926
#
# Static dielectric constant tensor:
#      x y z
#    x 3.510090 0.000000 0.000000 
#    y 0.000000 3.510090 0.000000 
#    z 0.000000 0.000000 3.587620 
# 
# 
# High freq. dielectric constant tensor:
#      x y z
#    x 1.758170 0.000000 0.000000 
#    y 0.000000 1.758170 0.000000 
#    z 0.000000 0.000000 1.780490 
# 
# From -- ./inp_files/6269.got.cif
#   From: 2010.03.12/outbox.cif.g09.slc.cpg/sg193_4_cif.got.tgz:6269.got - 2010.04.01 12:20:39.
