data_PCOD8330256
_publ_section_title
;
Structure prediction by ZEFSAII (Michael W. Deem and Ramdas Pophale) SiO2 
 PCOD8330256
Probable space group: P 63/M C M
;
_chemical_formula_sum "Si O2"
_cell_formula_units_Z 64
_cell_length_a 14.199724
_cell_length_b 14.199724
_cell_length_c 17.203895
_cell_angle_alpha 90.000000
_cell_angle_beta 90.000000
_cell_angle_gamma 120.000000
_cell_volume 3004.119616
_symmetry_space_group_name_H-M "P 63/M C M"
_symmetry_group_IT_number 193
_symmetry_cell_setting 'hexagonal'
loop_
_space_group_symop_operation_xyz
x,y,z
x-y,x,1/2+z
-y,x-y,z
-x,-y,1/2+z
-x+y,-x,z
y,-x+y,1/2+z
x-y,-y,1/2-z
-x,-x+y,1/2-z
y,x,1/2-z
-y,-x,-z
-x+y,y,-z
x,x-y,-z
-x,-y,-z
-x+y,-x,1/2-z
y,-x+y,-z
x,y,1/2-z
x-y,x,-z
-y,x-y,1/2-z
-x+y,y,1/2+z
x,x-y,1/2+z
-y,-x,1/2+z
y,x,z
x-y,-y,z
-x,-x+y,z
loop_
_atom_site_type_symbol
_atom_site_label
_atom_site_fract_x
_atom_site_fract_y
_atom_site_fract_z
Si Si1 0.202509 0.427695 0.909174
Si Si2 0.000000 0.785527 0.157758
Si Si3 0.000000 0.000000 0.157841
Si Si4 0.874991 0.426458 0.337830
O O1 0.188941 0.531660 0.891506
O O2 0.316015 0.452292 0.871679
O O3 0.107415 0.318789 0.872441
O O4 0.205185 0.410370 0.000000
O O5 0.000000 0.780414 0.250000
O O6 0.000000 0.892864 0.126946
O O7 0.000000 0.000000 0.250000
O O8 0.829286 0.407938 0.250000
O O9 0.000000 0.518317 0.339023
#
# Coordination Sequence:
#
# PCOD8330256 Si02
#       4
#    24  12   4  24
#     4  12  26  42  70 103 142 177 222 290 350 408
#     4  11  24  47  71  99 138 189 238 286 343 415
#     4   9  24  45  70  95 130 177 241 290 328 399
#     4  11  24  44  70  98 134 182 231 277 337 417
#
# _framework density 21.304079000000002
#
# number of rings (size 3 to 8) (size 9 to 14) (size 15 to 20)
#    0.000    0.750    1.875    5.250    5.250    1.500 
#    0.000    0.938    0.000    0.000    0.000    0.000 
#    0.000    0.000    0.000    0.000    0.000    0.000 
#
# Total GULP energy -794022.860458 kJ/mol
# GULP energy per Si atom -12406.607195 kJ/mol
# Density = 2.125559 g / cm^3
# Si number density = 21.304079 Si / 1000 Ang^3
#
#
#
# Elastic Constant Matrix: (Units=GPa)
#
#
# Indices 1 2 3 4 5 6 
#
# 1 121.2945 39.3490 49.0812 0.0000 0.0000 0.0000
# 2 39.3490 121.2945 49.0812 0.0000 0.0000 0.0000
# 3 49.0812 49.0812 149.1346 0.0000 0.0000 0.0000
# 4 0.0000 0.0000 0.0000 20.0088 0.0000 0.0000
# 5 0.0000 0.0000 0.0000 0.0000 20.0088 0.0000
# 6 0.0000 0.0000 0.0000 0.0000 0.0000 40.9728
#
#
#
# Elastic Compliance Matrix: (Units=1/GPa)
#
#
# Indices 1 2 3 4 5 6 
#
# 1 0.009998 -0.002206 -0.002564 0.000000 0.000000 0.000000
# 2 -0.002206 0.009998 -0.002564 0.000000 0.000000 0.000000
# 3 -0.002564 -0.002564 0.008393 0.000000 0.000000 0.000000
# 4 0.000000 0.000000 0.000000 0.049978 0.000000 0.000000
# 5 0.000000 0.000000 0.000000 0.000000 0.049978 0.000000
# 6 0.000000 0.000000 0.000000 0.000000 0.000000 0.024406
#
#
# Mechanical properties :
#
#
# Convention : Reuss Voigt Hill
#
# Bulk Modulus (GPa) = 72.88827 74.08295 73.48561
# Shear Modulus (GPa) = 29.07099 33.14557 31.10828
#
# Velocity S-wave (km/s) = 3.69802 3.94868 3.82541
# Velocity P-wave (km/s) = 7.24716 7.45916 7.35392
#
# Compressibility (1/GPa) = 0.01371963
#
# Stress axis : x y z
#
# Youngs Moduli (GPa) = 100.02411 100.02411 119.14313
#
# Poissons Ratio (x) = 0.22062 0.30553
# Poissons Ratio (y) = 0.22062 0.30553
# Poissons Ratio (z) = 0.25650 0.25650
#
# Static dielectric constant tensor:
#      x y z
#    x 3.954140 0.000000 0.000000 
#    y 0.000000 3.954140 0.000000 
#    z 0.000000 0.000000 3.852030 
# 
# 
# High freq. dielectric constant tensor:
#      x y z
#    x 1.847160 0.000000 0.000000 
#    y 0.000000 1.847160 0.000000 
#    z 0.000000 0.000000 1.839140 
# 
# From -- ./inp_files/4740.got.cif
#   From: 2010.03.12/outbox.cif.g09.slc.cpg/sg193_3_cif.got.tgz:4740.got - 2010.04.01 12:20:39.
