data_PCOD8330296
_publ_section_title
;
Structure prediction by ZEFSAII (Michael W. Deem and Ramdas Pophale) SiO2 
 PCOD8330296
Probable space group: P 63/M M C
;
_chemical_formula_sum "Si O2"
_cell_formula_units_Z 120
_cell_length_a 20.342183
_cell_length_b 20.342183
_cell_length_c 28.189600
_cell_angle_alpha 90.000000
_cell_angle_beta 90.000000
_cell_angle_gamma 120.000000
_cell_volume 10102.169685
_symmetry_space_group_name_H-M "P 63/M M C"
_symmetry_group_IT_number 194
_symmetry_cell_setting 'hexagonal'
loop_
_space_group_symop_operation_xyz
x,y,z
x-y,x,1/2+z
-y,x-y,z
-x,-y,1/2+z
-x+y,-x,z
y,-x+y,1/2+z
x-y,-y,-z
-x,-x+y,-z
y,x,-z
-y,-x,1/2-z
-x+y,y,1/2-z
x,x-y,1/2-z
-x,-y,-z
-x+y,-x,1/2-z
y,-x+y,-z
x,y,1/2-z
x-y,x,-z
-y,x-y,1/2-z
-x+y,y,z
x,x-y,z
-y,-x,z
y,x,1/2+z
x-y,-y,1/2+z
-x,-x+y,1/2+z
loop_
_atom_site_type_symbol
_atom_site_label
_atom_site_fract_x
_atom_site_fract_y
_atom_site_fract_z
Si Si1 0.667956 0.488386 0.539589
Si Si2 0.520424 0.631636 0.557595
Si Si3 0.590322 0.024422 0.301916
Si Si4 0.442315 0.040902 0.602363
Si Si5 0.332527 0.515698 0.843396
O O1 0.740794 0.481588 0.551739
O O2 0.595797 0.404204 0.537815
O O3 0.680320 0.533526 0.490063
O O4 0.660301 0.538953 0.581068
O O5 0.450859 0.549142 0.546595
O O6 0.592530 0.621252 0.570594
O O7 0.501632 0.671103 0.600627
O O8 0.607093 0.001230 0.250000
O O9 0.510885 0.021769 0.301011
O O10 0.655130 0.110095 0.314071
O O11 0.587791 0.967415 0.343152
O O12 0.516132 0.032263 0.602562
O O13 0.253855 0.507710 0.826533
O O14 0.399317 0.600684 0.832773
#
# Coordination Sequence:
#
# PCOD8330296 Si02
#       5
#    24  24  24  24  24
#     4  10  17  23  32  47  66  82  96 120 158 199
#     4   8  14  23  33  44  59  82 108 125 138 168
#     4   8  14  24  35  44  53  70 101 134 157 180
#     4   8  14  24  36  46  56  75 102 127 149 177
#     4   9  15  21  29  43  64  86 104 123 151 186
#
# _framework density 11.878636999999999
#
# number of rings (size 3 to 8) (size 9 to 14) (size 15 to 20)
#    0.000    3.400    0.000    4.000    0.000    2.800 
#    0.000    2.000    0.000    1.800    0.000    0.000 
#    0.000    1.600    0.000    0.000    0.000    0.000 
#
# Total GULP energy -1486768.173008 kJ/mol
# GULP energy per Si atom -12389.734775 kJ/mol
# Density = 1.185160 g / cm^3
# Si number density = 11.878637 Si / 1000 Ang^3
#
#
#
# Elastic Constant Matrix: (Units=GPa)
#
#
# Indices 1 2 3 4 5 6 
#
# 1 37.5957 15.7380 24.8497 0.0000 0.0000 0.0000
# 2 15.7380 37.5957 24.8497 0.0000 0.0000 0.0000
# 3 24.8497 24.8497 89.5825 0.0000 0.0000 0.0000
# 4 0.0000 0.0000 0.0000 7.7132 0.0000 0.0000
# 5 0.0000 0.0000 0.0000 0.0000 7.7132 0.0000
# 6 0.0000 0.0000 0.0000 0.0000 0.0000 10.9289
#
#
#
# Elastic Compliance Matrix: (Units=1/GPa)
#
#
# Indices 1 2 3 4 5 6 
#
# 1 0.035518 -0.010232 -0.007014 0.000000 0.000000 0.000000
# 2 -0.010232 0.035518 -0.007014 0.000000 0.000000 0.000000
# 3 -0.007014 -0.007014 0.015054 0.000000 0.000000 0.000000
# 4 0.000000 0.000000 0.000000 0.129648 0.000000 0.000000
# 5 0.000000 0.000000 0.000000 0.000000 0.129648 0.000000
# 6 0.000000 0.000000 0.000000 0.000000 0.000000 0.091501
#
#
# Mechanical properties :
#
#
# Convention : Reuss Voigt Hill
#
# Bulk Modulus (GPa) = 26.61722 32.84986 29.73354
# Shear Modulus (GPa) = 10.04155 11.89350 10.96753
#
# Velocity S-wave (km/s) = 2.91064 3.16769 3.04188
# Velocity P-wave (km/s) = 5.80965 6.41043 6.11742
#
# Compressibility (1/GPa) = 0.03756966
#
# Stress axis : x y z
#
# Youngs Moduli (GPa) = 28.15455 28.15455 66.42611
#
# Poissons Ratio (x) = 0.28808 0.46593
# Poissons Ratio (y) = 0.28808 0.46593
# Poissons Ratio (z) = 0.19748 0.19748
#
# Static dielectric constant tensor:
#      x y z
#    x 2.189920 0.000000 0.000000 
#    y 0.000000 2.189920 0.000000 
#    z 0.000000 0.000000 2.811840 
# 
# 
# High freq. dielectric constant tensor:
#      x y z
#    x 1.407480 0.000000 0.000000 
#    y 0.000000 1.407480 0.000000 
#    z 0.000000 0.000000 1.462380 
# 
# From -- ./inp_files/11874.got.cif
#   From: 2010.03.12/outbox.cif.g09.slc.cpg/sg194_6_cif.got.tgz:11874.got - 2010.04.01 12:26:19.
