data_PCOD8330110
_publ_section_title
;
Structure prediction by ZEFSAII (Michael W. Deem and Ramdas Pophale) SiO2 
 PCOD8330110
Probable space group: P 63/M C M
;
_chemical_formula_sum "Si O2"
_cell_formula_units_Z 120
_cell_length_a 23.026114
_cell_length_b 23.026114
_cell_length_c 14.292907
_cell_angle_alpha 90.000000
_cell_angle_beta 90.000000
_cell_angle_gamma 120.000000
_cell_volume 6562.850338
_symmetry_space_group_name_H-M "P 63/M C M"
_symmetry_group_IT_number 193
_symmetry_cell_setting 'hexagonal'
loop_
_space_group_symop_operation_xyz
x,y,z
x-y,x,1/2+z
-y,x-y,z
-x,-y,1/2+z
-x+y,-x,z
y,-x+y,1/2+z
x-y,-y,1/2-z
-x,-x+y,1/2-z
y,x,1/2-z
-y,-x,-z
-x+y,y,-z
x,x-y,-z
-x,-y,-z
-x+y,-x,1/2-z
y,-x+y,-z
x,y,1/2-z
x-y,x,-z
-y,x-y,1/2-z
-x+y,y,1/2+z
x,x-y,1/2+z
-y,-x,1/2+z
y,x,z
x-y,-y,z
-x,-x+y,z
loop_
_atom_site_type_symbol
_atom_site_label
_atom_site_fract_x
_atom_site_fract_y
_atom_site_fract_z
Si Si1 0.758875 0.268970 0.899794
Si Si2 0.806033 0.412492 0.854985
Si Si3 0.548396 0.925482 0.644357
Si Si4 0.203289 0.361675 0.354879
Si Si5 0.663047 0.740349 0.035805
O O1 0.792442 0.348828 0.916681
O O2 0.685228 0.246831 0.861900
O O3 0.797672 0.240249 0.839293
O O4 0.760580 0.239421 0.000000
O O5 0.804280 0.387276 0.750000
O O6 0.878918 0.471628 0.883818
O O7 0.562262 0.907636 0.750000
O O8 0.593163 0.915214 0.568632
O O9 0.560788 0.000000 0.641809
O O10 0.199683 0.332365 0.250000
O O11 0.127857 0.326409 0.397445
O O12 0.246173 0.342940 0.425932
O O13 0.723124 0.723124 0.048789
#
# Coordination Sequence:
#
# PCOD8330110 Si02
#       5
#    24  24  24  24  24
#     4  12  22  36  51  71 101 140 179 229 291 353
#     4  11  21  33  50  73  99 129 174 227 284 343
#     4   9  17  32  55  79 104 138 183 230 275 334
#     4  11  21  37  58  82 112 146 184 231 280 332
#     4  10  20  36  58  84 111 144 186 230 277 330
#
# _framework density 18.284738000000001
#
# number of rings (size 3 to 8) (size 9 to 14) (size 15 to 20)
#    0.000    1.400    4.000    3.400    0.000    1.600 
#    0.000    1.000    0.000    6.000    0.000    0.000 
#    0.000    0.000    0.000   19.200    0.000   41.600 
#
# Total GULP energy -1487262.910922 kJ/mol
# GULP energy per Si atom -12393.857591 kJ/mol
# Density = 1.824312 g / cm^3
# Si number density = 18.284738 Si / 1000 Ang^3
#
#
#
# Elastic Constant Matrix: (Units=GPa)
#
#
# Indices 1 2 3 4 5 6 
#
# 1 83.1337 50.9449 30.6505 0.0000 0.0000 0.0000
# 2 50.9449 83.1337 30.6505 0.0000 0.0000 0.0000
# 3 30.6505 30.6505 105.2897 0.0000 0.0000 0.0000
# 4 0.0000 0.0000 0.0000 17.7902 0.0000 0.0000
# 5 0.0000 0.0000 0.0000 0.0000 17.7902 0.0000
# 6 0.0000 0.0000 0.0000 0.0000 0.0000 16.0944
#
#
#
# Elastic Compliance Matrix: (Units=1/GPa)
#
#
# Indices 1 2 3 4 5 6 
#
# 1 0.019835 -0.011232 -0.002504 0.000000 0.000000 0.000000
# 2 -0.011232 0.019835 -0.002504 0.000000 0.000000 0.000000
# 3 -0.002504 -0.002504 0.010956 0.000000 0.000000 0.000000
# 4 0.000000 0.000000 0.000000 0.056211 0.000000 0.000000
# 5 0.000000 0.000000 0.000000 0.000000 0.056211 0.000000
# 6 0.000000 0.000000 0.000000 0.000000 0.000000 0.062133
#
#
# Mechanical properties :
#
#
# Convention : Reuss Voigt Hill
#
# Bulk Modulus (GPa) = 55.11307 55.11654 55.11481
# Shear Modulus (GPa) = 18.96020 20.95570 19.95795
#
# Velocity S-wave (km/s) = 3.22365 3.38905 3.30738
# Velocity P-wave (km/s) = 6.63799 6.74708 6.69276
#
# Compressibility (1/GPa) = 0.01814452
#
# Stress axis : x y z
#
# Youngs Moduli (GPa) = 50.41582 50.41582 91.27621
#
# Poissons Ratio (x) = 0.56625 0.22860
# Poissons Ratio (y) = 0.56625 0.22860
# Poissons Ratio (z) = 0.12627 0.12627
#
# Static dielectric constant tensor:
#      x y z
#    x 3.266610 0.000000 0.000000 
#    y 0.000000 3.266610 0.000000 
#    z 0.000000 0.000000 3.538700 
# 
# 
# High freq. dielectric constant tensor:
#      x y z
#    x 1.681430 0.000000 0.000000 
#    y 0.000000 1.681430 0.000000 
#    z 0.000000 0.000000 1.726950 
# 
# From -- ./inp_files/3999.got.cif
#   From: 2010.03.12/outbox.cif.g09.slc.cpg/sg193_2_cif.got.tgz:3999.got - 2010.04.01 12:20:39.
