data_PCOD8330673
_publ_section_title
;
Structure prediction by ZEFSAII (Michael W. Deem and Ramdas Pophale) SiO2 
 PCOD8330673
Probable space group: P 63/M M C
;
_chemical_formula_sum "Si O2"
_cell_formula_units_Z 168
_cell_length_a 17.650935
_cell_length_b 17.650935
_cell_length_c 30.937902
_cell_angle_alpha 90.000000
_cell_angle_beta 90.000000
_cell_angle_gamma 120.000000
_cell_volume 8347.509509
_symmetry_space_group_name_H-M "P 63/M M C"
_symmetry_group_IT_number 194
_symmetry_cell_setting 'hexagonal'
loop_
_space_group_symop_operation_xyz
x,y,z
x-y,x,1/2+z
-y,x-y,z
-x,-y,1/2+z
-x+y,-x,z
y,-x+y,1/2+z
x-y,-y,-z
-x,-x+y,-z
y,x,-z
-y,-x,1/2-z
-x+y,y,1/2-z
x,x-y,1/2-z
-x,-y,-z
-x+y,-x,1/2-z
y,-x+y,-z
x,y,1/2-z
x-y,x,-z
-y,x-y,1/2-z
-x+y,y,z
x,x-y,z
-y,-x,z
y,x,1/2+z
x-y,-y,1/2+z
-x,-x+y,1/2+z
loop_
_atom_site_type_symbol
_atom_site_label
_atom_site_fract_x
_atom_site_fract_y
_atom_site_fract_z
Si Si1 0.329156 0.494278 0.750000
Si Si2 0.637814 0.101318 0.839661
Si Si3 0.375035 0.271960 0.575416
Si Si4 0.500282 0.669256 0.250000
Si Si5 0.068682 0.371479 0.828360
Si Si6 0.825828 0.999973 0.801200
Si Si7 0.510506 0.842904 0.505436
Si Si8 0.094968 0.740739 0.578986
O O1 0.431739 0.568262 0.750000
O O2 0.270626 0.541252 0.750000
O O3 0.298344 0.429857 0.709333
O O4 0.565779 0.131557 0.844677
O O5 0.701235 0.134304 0.880948
O O6 0.691648 0.135929 0.794342
O O7 0.592326 0.997354 0.836944
O O8 0.340628 0.170314 0.565988
O O9 0.434905 0.331299 0.536346
O O10 0.288918 0.281430 0.578418
O O11 0.433354 0.566647 0.250000
O O12 0.451837 0.725919 0.250000
O O13 0.123436 0.389638 0.872288
O O14 0.016311 0.267062 0.818817
O O15 0.822955 0.002434 0.750000
O O16 0.907346 0.092655 0.818352
O O17 0.840069 0.920035 0.816454
O O18 0.425012 0.850024 0.508308
O O19 0.483934 0.741967 0.501589
O O20 0.565817 0.887413 0.548297
O O21 0.157467 0.842534 0.564281
#
# Coordination Sequence:
#
# PCOD8330673 Si02
#       8
#    12  24  24  12  24  24  24  24
#     4  12  24  39  56  75 102 140 189 240 286 333
#     4  10  21  36  54  80 111 147 190 239 288 339
#     4  10  21  37  60  88 116 148 189 239 294 350
#     4  10  20  33  49  71 105 146 187 226 271 331
#     4  11  22  38  57  79 110 149 190 234 285 340
#     4  10  20  35  57  86 117 150 188 236 293 352
#     4  10  21  38  61  90 120 151 186 231 288 348
#     4  10  22  38  57  82 114 151 188 230 284 344
#
# _framework density 20.125762999999999
#
# number of rings (size 3 to 8) (size 9 to 14) (size 15 to 20)
#    0.000    1.714    0.714    3.857    0.000    8.000 
#    0.000    0.000    0.000    6.571    0.000    0.000 
#    0.000    3.429    0.000    0.000    0.000    0.000 
#
# Total GULP energy -2082124.050321 kJ/mol
# GULP energy per Si atom -12393.595538 kJ/mol
# Density = 2.007996 g / cm^3
# Si number density = 20.125763 Si / 1000 Ang^3
#
#
#
# Elastic Constant Matrix: (Units=GPa)
#
#
# Indices 1 2 3 4 5 6 
#
# 1 103.3931 52.2802 45.5382 0.0000 0.0000 0.0000
# 2 52.2802 103.3931 45.5382 0.0000 0.0000 0.0000
# 3 45.5382 45.5382 132.9862 0.0000 0.0000 0.0000
# 4 0.0000 0.0000 0.0000 -7.6567 0.0000 0.0000
# 5 0.0000 0.0000 0.0000 0.0000 -7.6567 0.0000
# 6 0.0000 0.0000 0.0000 0.0000 0.0000 25.5564
#
#
#
# Elastic Compliance Matrix: (Units=1/GPa)
#
#
# Indices 1 2 3 4 5 6 
#
# 1 0.013799 -0.005766 -0.002751 0.000000 0.000000 0.000000
# 2 -0.005766 0.013799 -0.002751 0.000000 0.000000 0.000000
# 3 -0.002751 -0.002751 0.009403 0.000000 0.000000 0.000000
# 4 0.000000 0.000000 0.000000 -0.130605 0.000000 0.000000
# 5 0.000000 0.000000 0.000000 0.000000 -0.130605 0.000000
# 6 0.000000 0.000000 0.000000 0.000000 0.000000 0.039129
#
#
# Mechanical properties :
#
#
# Convention : Reuss Voigt Hill
#
# Bulk Modulus (GPa) = 69.12498 69.60950 69.36724
# Shear Modulus (GPa) = -31.70107 15.14300 -8.27904
#
# Velocity S-wave (km/s) = -3.97312 2.74600 -2.03041
# Velocity P-wave (km/s) = 3.65698 6.68703 5.38934
#
# Compressibility (1/GPa) = 0.01446655
#
# Stress axis : x y z
#
# Youngs Moduli (GPa) = 72.47016 72.47016 106.34416
#
# Poissons Ratio (x) = 0.41785 0.29252
# Poissons Ratio (y) = 0.41785 0.29252
# Poissons Ratio (z) = 0.19935 0.19935
#
# Static dielectric constant tensor:
#      x y z
#    x 3.551250 0.000000 0.000000 
#    y 0.000000 3.551250 0.000000 
#    z 0.000000 0.000000 3.924650 
# 
# 
# High freq. dielectric constant tensor:
#      x y z
#    x 1.778150 0.000000 0.000000 
#    y 0.000000 1.778150 0.000000 
#    z 0.000000 0.000000 1.796770 
# 
# From -- ./inp_files/12320.got.cif
#   From: 2010.03.12/outbox.cif.g09.slc.cpg/sg194_7_cif.got.tgz:12320.got - 2010.04.01 12:26:19.
