data_PCOD8330733
_publ_section_title
;
Structure prediction by ZEFSAII (Michael W. Deem and Ramdas Pophale) SiO2 
 PCOD8330733
Probable space group: P 63/M M C
;
_chemical_formula_sum "Si O2"
_cell_formula_units_Z 144
_cell_length_a 31.251756
_cell_length_b 31.251756
_cell_length_c 8.702781
_cell_angle_alpha 90.000000
_cell_angle_beta 90.000000
_cell_angle_gamma 120.000000
_cell_volume 7361.012180
_symmetry_space_group_name_H-M "P 63/M M C"
_symmetry_group_IT_number 194
_symmetry_cell_setting 'hexagonal'
loop_
_space_group_symop_operation_xyz
x,y,z
x-y,x,1/2+z
-y,x-y,z
-x,-y,1/2+z
-x+y,-x,z
y,-x+y,1/2+z
x-y,-y,-z
-x,-x+y,-z
y,x,-z
-y,-x,1/2-z
-x+y,y,1/2-z
x,x-y,1/2-z
-x,-y,-z
-x+y,-x,1/2-z
y,-x+y,-z
x,y,1/2-z
x-y,x,-z
-y,x-y,1/2-z
-x+y,y,z
x,x-y,z
-y,-x,z
y,x,1/2+z
x-y,-y,1/2+z
-x,-x+y,1/2+z
loop_
_atom_site_type_symbol
_atom_site_label
_atom_site_fract_x
_atom_site_fract_y
_atom_site_fract_z
Si Si1 0.567769 0.234481 0.927226
Si Si2 0.148513 0.948887 0.070066
Si Si3 0.949193 0.426223 0.068494
Si Si4 0.328267 0.852813 0.569918
Si Si5 0.759413 0.617397 0.929165
Si Si6 0.239213 0.948003 0.931033
O O1 0.552605 0.220312 0.750000
O O2 0.622560 0.245120 0.959220
O O3 0.566142 0.283071 0.973974
O O4 0.530664 0.190008 0.035280
O O5 0.159525 0.955494 0.250000
O O6 0.092696 0.907305 0.033429
O O7 0.185450 0.933155 0.995677
O O8 0.156662 0.000000 0.000000
O O9 0.953001 0.427799 0.250000
O O10 0.940320 0.470160 0.007745
O O11 0.904474 0.374118 0.012335
O O12 0.000000 0.432868 0.000000
O O13 0.318577 0.854039 0.750000
O O14 0.279923 0.841773 0.475560
O O15 0.755113 0.625606 0.750000
O O16 0.813698 0.627396 0.970742
O O17 0.747827 0.654064 0.024997
O O18 0.238965 0.953263 0.750000
O O19 0.280869 0.000000 0.000000
#
# Coordination Sequence:
#
# PCOD8330733 Si02
#       6
#    24  24  24  24  24  24
#     4  10  21  38  60  85 113 146 185 229 278 333
#     4  10  20  34  54  81 112 146 185 230 280 333
#     4   9  19  36  57  81 109 141 178 222 272 323
#     4  11  23  38  57  83 115 148 184 229 279 334
#     4  11  24  41  59  80 111 150 190 232 278 331
#     4  11  22  37  59  85 113 146 185 230 279 331
#
# _framework density 19.562525999999998
#
# number of rings (size 3 to 8) (size 9 to 14) (size 15 to 20)
#    0.000    1.667    0.000    5.667    0.000   10.667 
#    0.000    3.333    0.000    1.167    0.000    0.000 
#    0.000    0.000    0.000    0.000    0.000    0.000 
#
# Total GULP energy -1786420.497992 kJ/mol
# GULP energy per Si atom -12405.697903 kJ/mol
# Density = 1.951800 g / cm^3
# Si number density = 19.562526 Si / 1000 Ang^3
#
#
#
# Elastic Constant Matrix: (Units=GPa)
#
#
# Indices 1 2 3 4 5 6 
#
# 1 109.0474 42.0702 38.0781 0.0000 0.0000 0.0000
# 2 42.0702 109.0474 38.0781 0.0000 0.0000 0.0000
# 3 38.0781 38.0781 79.1601 0.0000 0.0000 0.0000
# 4 0.0000 0.0000 0.0000 31.1948 0.0000 0.0000
# 5 0.0000 0.0000 0.0000 0.0000 31.1948 0.0000
# 6 0.0000 0.0000 0.0000 0.0000 0.0000 33.4886
#
#
#
# Elastic Compliance Matrix: (Units=1/GPa)
#
#
# Indices 1 2 3 4 5 6 
#
# 1 0.011833 -0.003098 -0.004202 0.000000 0.000000 0.000000
# 2 -0.003098 0.011833 -0.004202 0.000000 0.000000 0.000000
# 3 -0.004202 -0.004202 0.016675 0.000000 0.000000 0.000000
# 4 0.000000 0.000000 0.000000 0.032057 0.000000 0.000000
# 5 0.000000 0.000000 0.000000 0.000000 0.032057 0.000000
# 6 0.000000 0.000000 0.000000 0.000000 0.000000 0.029861
#
#
# Mechanical properties :
#
#
# Convention : Reuss Voigt Hill
#
# Bulk Modulus (GPa) = 57.67751 59.30086 58.48919
# Shear Modulus (GPa) = 30.65683 31.11089 30.88386
#
# Velocity S-wave (km/s) = 3.96298 3.99222 3.97763
# Velocity P-wave (km/s) = 7.10549 7.18538 7.14555
#
# Compressibility (1/GPa) = 0.01733778
#
# Stress axis : x y z
#
# Youngs Moduli (GPa) = 84.51211 84.51211 59.97050
#
# Poissons Ratio (x) = 0.26180 0.25198
# Poissons Ratio (y) = 0.26180 0.25198
# Poissons Ratio (z) = 0.35509 0.35509
#
# Static dielectric constant tensor:
#      x y z
#    x 3.596560 0.000000 0.000000 
#    y 0.000000 3.596560 0.000000 
#    z 0.000000 0.000000 3.552190 
# 
# 
# High freq. dielectric constant tensor:
#      x y z
#    x 1.765470 0.000000 0.000000 
#    y 0.000000 1.765470 0.000000 
#    z 0.000000 0.000000 1.766980 
# 
# From -- ./inp_files/2164.got.cif
#   From: 2010.03.12/outbox.cif.g09.slc.cpg/sg194_2_cif.got.tgz:2164.got - 2010.04.01 12:26:19.
