data_PCOD8330519
_publ_section_title
;
Structure prediction by ZEFSAII (Michael W. Deem and Ramdas Pophale) SiO2 
 PCOD8330519
Probable space group: P 63/M M C
;
_chemical_formula_sum "Si O2"
_cell_formula_units_Z 132
_cell_length_a 17.534559
_cell_length_b 17.534559
_cell_length_c 26.666193
_cell_angle_alpha 90.000000
_cell_angle_beta 90.000000
_cell_angle_gamma 120.000000
_cell_volume 7100.375964
_symmetry_space_group_name_H-M "P 63/M M C"
_symmetry_group_IT_number 194
_symmetry_cell_setting 'hexagonal'
loop_
_space_group_symop_operation_xyz
x,y,z
x-y,x,1/2+z
-y,x-y,z
-x,-y,1/2+z
-x+y,-x,z
y,-x+y,1/2+z
x-y,-y,-z
-x,-x+y,-z
y,x,-z
-y,-x,1/2-z
-x+y,y,1/2-z
x,x-y,1/2-z
-x,-y,-z
-x+y,-x,1/2-z
y,-x+y,-z
x,y,1/2-z
x-y,x,-z
-y,x-y,1/2-z
-x+y,y,z
x,x-y,z
-y,-x,z
y,x,1/2+z
x-y,-y,1/2+z
-x,-x+y,1/2+z
loop_
_atom_site_type_symbol
_atom_site_label
_atom_site_fract_x
_atom_site_fract_y
_atom_site_fract_z
Si Si1 0.330138 0.833155 0.143257
Si Si2 0.642131 0.116886 0.750000
Si Si3 0.625170 0.726212 0.649446
Si Si4 0.671190 0.000000 0.000000
Si Si5 0.630012 0.088945 0.250000
Si Si6 0.666626 0.513514 0.446784
Si Si7 0.245176 0.930413 0.398990
O O1 0.433321 0.866642 0.138098
O O2 0.271614 0.728387 0.133697
O O3 0.303103 0.852551 0.198432
O O4 0.304319 0.883475 0.102737
O O5 0.580857 0.161714 0.750000
O O6 0.582487 0.013859 0.750000
O O7 0.656149 0.828075 0.643067
O O8 0.574972 0.691997 0.701726
O O9 0.554368 0.667454 0.607358
O O10 0.715414 0.722135 0.643658
O O11 0.739580 0.025033 0.953743
O O12 0.576347 0.916154 0.988271
O O13 0.565986 0.131971 0.250000
O O14 0.753689 0.507377 0.456419
O O15 0.583300 0.416701 0.450852
O O16 0.141538 0.858463 0.389866
#
# Coordination Sequence:
#
# PCOD8330519 Si02
#       7
#    24  12  24  12  12  24  24
#     4  10  19  31  48  74 109 147 184 217 254 303
#     4   9  17  28  46  71 103 142 178 212 246 289
#     4  10  21  36  55  80 108 140 181 225 272 322
#     4  10  21  36  54  76 101 136 178 222 271 332
#     4  11  19  32  54  81 112 148 184 216 249 297
#     4  10  20  34  52  75 103 138 179 225 273 323
#     4  10  21  37  57  79 105 137 175 223 277 334
#
# _framework density 18.590565000000002
#
# number of rings (size 3 to 8) (size 9 to 14) (size 15 to 20)
#    0.000    2.000    1.818    2.273    0.000    4.364 
#    0.000    1.364    0.000    5.091    0.000    0.636 
#    0.000    0.000    0.000    0.000    0.000    0.000 
#
# Total GULP energy -1636036.051348 kJ/mol
# GULP energy per Si atom -12394.212510 kJ/mol
# Density = 1.854825 g / cm^3
# Si number density = 18.590565 Si / 1000 Ang^3
#
#
#
# Elastic Constant Matrix: (Units=GPa)
#
#
# Indices 1 2 3 4 5 6 
#
# 1 86.9565 42.1817 14.6377 0.0000 0.0000 0.0000
# 2 42.1817 86.9565 14.6377 0.0000 0.0000 0.0000
# 3 14.6377 14.6377 74.9020 0.0000 0.0000 0.0000
# 4 0.0000 0.0000 0.0000 15.2194 0.0000 0.0000
# 5 0.0000 0.0000 0.0000 0.0000 15.2194 0.0000
# 6 0.0000 0.0000 0.0000 0.0000 0.0000 22.3874
#
#
#
# Elastic Compliance Matrix: (Units=1/GPa)
#
#
# Indices 1 2 3 4 5 6 
#
# 1 0.015218 -0.007116 -0.001583 0.000000 0.000000 0.000000
# 2 -0.007116 0.015218 -0.001583 0.000000 0.000000 0.000000
# 3 -0.001583 -0.001583 0.013970 0.000000 0.000000 0.000000
# 4 0.000000 0.000000 0.000000 0.065705 0.000000 0.000000
# 5 0.000000 0.000000 0.000000 0.000000 0.065705 0.000000
# 6 0.000000 0.000000 0.000000 0.000000 0.000000 0.044668
#
#
# Mechanical properties :
#
#
# Convention : Reuss Voigt Hill
#
# Bulk Modulus (GPa) = 41.94441 43.52547 42.73494
# Shear Modulus (GPa) = 20.08053 22.38912 21.23482
#
# Velocity S-wave (km/s) = 3.29012 3.47411 3.38337
# Velocity P-wave (km/s) = 6.08641 6.28936 6.18872
#
# Compressibility (1/GPa) = 0.02384108
#
# Stress axis : x y z
#
# Youngs Moduli (GPa) = 65.71039 65.71039 71.58369
#
# Poissons Ratio (x) = 0.46757 0.11335
# Poissons Ratio (y) = 0.46757 0.11335
# Poissons Ratio (z) = 0.10405 0.10405
#
# Static dielectric constant tensor:
#      x y z
#    x 3.343980 0.000000 0.000000 
#    y 0.000000 3.343980 0.000000 
#    z 0.000000 0.000000 3.640670 
# 
# 
# High freq. dielectric constant tensor:
#      x y z
#    x 1.705520 0.000000 0.000000 
#    y 0.000000 1.705520 0.000000 
#    z 0.000000 0.000000 1.728610 
# 
# From -- ./inp_files/9566.got.cif
#   From: 2010.03.12/outbox.cif.g09.slc.cpg/sg194_5_cif.got.tgz:9566.got - 2010.04.01 12:26:19.
