data_PCOD8330610
_publ_section_title
;
Structure prediction by ZEFSAII (Michael W. Deem and Ramdas Pophale) SiO2 
 PCOD8330610
Probable space group: P 63/M M C
;
_chemical_formula_sum "Si O2"
_cell_formula_units_Z 168
_cell_length_a 17.512367
_cell_length_b 17.512367
_cell_length_c 33.714230
_cell_angle_alpha 90.000000
_cell_angle_beta 90.000000
_cell_angle_gamma 120.000000
_cell_volume 8954.339923
_symmetry_space_group_name_H-M "P 63/M M C"
_symmetry_group_IT_number 194
_symmetry_cell_setting 'hexagonal'
loop_
_space_group_symop_operation_xyz
x,y,z
x-y,x,1/2+z
-y,x-y,z
-x,-y,1/2+z
-x+y,-x,z
y,-x+y,1/2+z
x-y,-y,-z
-x,-x+y,-z
y,x,-z
-y,-x,1/2-z
-x+y,y,1/2-z
x,x-y,1/2-z
-x,-y,-z
-x+y,-x,1/2-z
y,-x+y,-z
x,y,1/2-z
x-y,x,-z
-y,x-y,1/2-z
-x+y,y,z
x,x-y,z
-y,-x,z
y,x,1/2+z
x-y,-y,1/2+z
-x,-x+y,1/2+z
loop_
_atom_site_type_symbol
_atom_site_label
_atom_site_fract_x
_atom_site_fract_y
_atom_site_fract_z
Si Si1 0.600684 0.580113 0.294105
Si Si2 0.162842 0.492222 0.502430
Si Si3 0.670182 0.160491 0.359449
Si Si4 0.838813 0.510179 0.831071
Si Si5 0.692582 0.630300 0.428340
Si Si6 0.353988 0.884498 0.083071
Si Si7 0.175394 0.999325 0.546225
O O1 0.642395 0.604284 0.250000
O O2 0.508030 0.491971 0.292932
O O3 0.665648 0.566642 0.322943
O O4 0.584879 0.658155 0.309753
O O5 0.263415 0.526829 0.516013
O O6 0.140321 0.570161 0.506996
O O7 0.095442 0.408572 0.527993
O O8 0.153525 0.454249 0.457761
O O9 0.574915 0.149829 0.369538
O O10 0.738269 0.261732 0.347675
O O11 0.714042 0.139131 0.396887
O O12 0.753638 0.507276 0.811039
O O13 0.830200 0.415100 0.827028
O O14 0.839174 0.537878 0.876987
O O15 0.597615 0.610083 0.414061
O O16 0.762161 0.735163 0.428723
O O17 0.432973 0.865946 0.080711
O O18 0.073743 0.926258 0.554411
O O19 0.197282 0.000000 0.500000
O O20 0.190496 0.095248 0.559520
#
# Coordination Sequence:
#
# PCOD8330610 Si02
#       7
#    24  24  24  24  24  24  24
#     4   9  19  37  58  79 108 142 173 217 276 329
#     4  11  22  34  50  73 107 148 191 232 271 315
#     4  11  22  38  59  83 112 145 184 226 273 330
#     4  10  19  33  54  80 111 146 186 227 271 323
#     4  12  22  35  54  77 108 142 184 229 279 329
#     4  10  20  34  50  71 103 145 187 229 272 315
#     4  10  21  37  56  77 103 137 181 235 291 340
#
# _framework density 18.761852000000001
#
# number of rings (size 3 to 8) (size 9 to 14) (size 15 to 20)
#    0.000    1.571    1.429    4.857    0.000    4.571 
#    0.000    2.857    0.000    1.714    0.000    0.000 
#    0.000    0.000    0.000    0.000    0.000    1.857 
#
# Total GULP energy -2082404.985611 kJ/mol
# GULP energy per Si atom -12395.267771 kJ/mol
# Density = 1.871915 g / cm^3
# Si number density = 18.761852 Si / 1000 Ang^3
#
#
#
# Elastic Constant Matrix: (Units=GPa)
#
#
# Indices 1 2 3 4 5 6 
#
# 1 69.0017 47.9500 40.2128 0.0000 0.0000 0.0000
# 2 47.9500 69.0017 40.2128 0.0000 0.0000 0.0000
# 3 40.2128 40.2128 74.1993 0.0000 0.0000 0.0000
# 4 0.0000 0.0000 0.0000 41.9060 0.0000 0.0000
# 5 0.0000 0.0000 0.0000 0.0000 41.9060 0.0000
# 6 0.0000 0.0000 0.0000 0.0000 0.0000 10.5258
#
#
#
# Elastic Compliance Matrix: (Units=1/GPa)
#
#
# Indices 1 2 3 4 5 6 
#
# 1 0.030566 -0.016936 -0.007387 0.000000 0.000000 0.000000
# 2 -0.016936 0.030566 -0.007387 0.000000 0.000000 0.000000
# 3 -0.007387 -0.007387 0.021484 0.000000 0.000000 0.000000
# 4 0.000000 0.000000 0.000000 0.023863 0.000000 0.000000
# 5 0.000000 0.000000 0.000000 0.000000 0.023863 0.000000
# 6 0.000000 0.000000 0.000000 0.000000 0.000000 0.095004
#
#
# Mechanical properties :
#
#
# Convention : Reuss Voigt Hill
#
# Bulk Modulus (GPa) = 52.09226 52.10598 52.09912
# Shear Modulus (GPa) = 16.93961 24.45604 20.69783
#
# Velocity S-wave (km/s) = 3.00805 3.61432 3.32503
# Velocity P-wave (km/s) = 6.31583 6.72683 6.52457
#
# Compressibility (1/GPa) = 0.01919671
#
# Stress axis : x y z
#
# Youngs Moduli (GPa) = 32.71573 32.71573 46.54569
#
# Poissons Ratio (x) = 0.55407 0.34384
# Poissons Ratio (y) = 0.55407 0.34384
# Poissons Ratio (z) = 0.24168 0.24168
#
# Static dielectric constant tensor:
#      x y z
#    x 3.338320 0.000000 0.000000 
#    y 0.000000 3.338320 0.000000 
#    z 0.000000 0.000000 3.581800 
# 
# 
# High freq. dielectric constant tensor:
#      x y z
#    x 1.721620 0.000000 0.000000 
#    y 0.000000 1.721620 0.000000 
#    z 0.000000 0.000000 1.711990 
# 
# From -- ./inp_files/12253.got.cif
#   From: 2010.03.12/outbox.cif.g09.slc.cpg/sg194_7_cif.got.tgz:12253.got - 2010.04.01 12:26:19.
