data_PCOD8330865
_publ_section_title
;
Structure prediction by ZEFSAII (Michael W. Deem and Ramdas Pophale) SiO2 
 PCOD8330865
Probable space group: P 63/M M C
;
_chemical_formula_sum "Si O2"
_cell_formula_units_Z 64
_cell_length_a 12.875025
_cell_length_b 12.875025
_cell_length_c 28.569197
_cell_angle_alpha 90.000000
_cell_angle_beta 90.000000
_cell_angle_gamma 120.000000
_cell_volume 4101.331064
_symmetry_space_group_name_H-M "P 63/M M C"
_symmetry_group_IT_number 194
_symmetry_cell_setting 'hexagonal'
loop_
_space_group_symop_operation_xyz
x,y,z
x-y,x,1/2+z
-y,x-y,z
-x,-y,1/2+z
-x+y,-x,z
y,-x+y,1/2+z
x-y,-y,-z
-x,-x+y,-z
y,x,-z
-y,-x,1/2-z
-x+y,y,1/2-z
x,x-y,1/2-z
-x,-y,-z
-x+y,-x,1/2-z
y,-x+y,-z
x,y,1/2-z
x-y,x,-z
-y,x-y,1/2-z
-x+y,y,z
x,x-y,z
-y,-x,z
y,x,1/2+z
x-y,-y,1/2+z
-x,-x+y,1/2+z
loop_
_atom_site_type_symbol
_atom_site_label
_atom_site_fract_x
_atom_site_fract_y
_atom_site_fract_z
Si Si1 0.434107 0.097927 0.870585
Si Si2 0.000000 0.237764 0.053219
Si Si3 0.333334 0.666668 0.805303
Si Si4 0.470127 0.529874 0.694518
O O1 0.570811 0.141622 0.886665
O O2 0.421994 0.210997 0.854528
O O3 0.348949 0.028464 0.913879
O O4 0.400594 0.006456 0.826533
O O5 0.872463 0.127538 0.068033
O O6 0.098125 0.196249 0.059055
O O7 0.000000 0.278861 0.000000
O O8 0.333334 0.666667 0.750000
O O9 0.401619 0.598382 0.823240
O O10 0.475980 0.524021 0.750000
#
# Coordination Sequence:
#
# PCOD8330865 Si02
#       4
#    24  24   4  12
#     4   9  19  31  47  71  98 131 165 204 247 292
#     4   9  17  30  49  72  97 127 163 205 250 300
#     4   9  18  36  54  75  99 123 165 210 264 300
#     4   9  20  34  53  73  97 133 163 210 256 298
#
# _framework density 15.604689
#
# number of rings (size 3 to 8) (size 9 to 14) (size 15 to 20)
#    1.125    1.875    0.000    0.750    2.625    3.000 
#    0.000    0.000    0.000    0.000    0.000    0.000 
#    0.000    0.000    0.000    0.000    0.000    0.000 
#
# Total GULP energy -793101.028223 kJ/mol
# GULP energy per Si atom -12392.203566 kJ/mol
# Density = 1.556917 g / cm^3
# Si number density = 15.604689 Si / 1000 Ang^3
#
#
#
# Elastic Constant Matrix: (Units=GPa)
#
#
# Indices 1 2 3 4 5 6 
#
# 1 102.5685 55.4380 54.2015 0.0000 0.0000 0.0000
# 2 55.4380 102.5689 54.2015 0.0000 0.0000 0.0000
# 3 54.2015 54.2015 93.1682 0.0000 0.0000 0.0000
# 4 0.0000 0.0000 0.0000 27.2368 0.0000 0.0000
# 5 0.0000 0.0000 0.0000 0.0000 27.2368 0.0000
# 6 0.0000 0.0000 0.0000 0.0000 0.0000 23.5651
#
#
#
# Elastic Compliance Matrix: (Units=1/GPa)
#
#
# Indices 1 2 3 4 5 6 
#
# 1 0.015875 -0.005342 -0.006128 0.000000 0.000000 0.000000
# 2 -0.005342 0.015875 -0.006127 0.000000 0.000000 0.000000
# 3 -0.006128 -0.006127 0.017863 0.000000 0.000000 0.000000
# 4 0.000000 0.000000 0.000000 0.036715 0.000000 0.000000
# 5 0.000000 0.000000 0.000000 0.000000 0.036715 0.000000
# 6 0.000000 0.000000 0.000000 0.000000 0.000000 0.042436
#
#
# Mechanical properties :
#
#
# Convention : Reuss Voigt Hill
#
# Bulk Modulus (GPa) = 69.35702 69.55417 69.45559
# Shear Modulus (GPa) = 24.33331 24.57206 24.45269
#
# Velocity S-wave (km/s) = 3.95316 3.97250 3.96284
# Velocity P-wave (km/s) = 8.08575 8.10619 8.09598
#
# Compressibility (1/GPa) = 0.01441815
#
# Stress axis : x y z
#
# Youngs Moduli (GPa) = 62.99136 62.99168 55.98238
#
# Poissons Ratio (x) = 0.33653 0.34303
# Poissons Ratio (y) = 0.33653 0.34303
# Poissons Ratio (z) = 0.38598 0.38598
#
# Static dielectric constant tensor:
#      x y z
#    x 2.937890 0.000000 0.000000 
#    y 0.000000 2.937890 0.000000 
#    z 0.000000 0.000000 2.810090 
# 
# 
# High freq. dielectric constant tensor:
#      x y z
#    x 1.597510 0.000000 0.000000 
#    y 0.000000 1.597510 0.000000 
#    z 0.000000 0.000000 1.586140 
# 
# From -- ./inp_files/10334.got.cif
#   From: 2010.03.12/outbox.cif.g09.slc.cpg/sg194_6_cif.got.tgz:10334.got - 2010.04.01 12:26:19.
