data_PCOD8330232
_publ_section_title
;
Structure prediction by ZEFSAII (Michael W. Deem and Ramdas Pophale) SiO2 
 PCOD8330232
Probable space group: P 63/M C M
;
_chemical_formula_sum "Si O2"
_cell_formula_units_Z 96
_cell_length_a 14.457305
_cell_length_b 14.457305
_cell_length_c 29.450113
_cell_angle_alpha 90.000000
_cell_angle_beta 90.000000
_cell_angle_gamma 120.000000
_cell_volume 5330.798707
_symmetry_space_group_name_H-M "P 63/M C M"
_symmetry_group_IT_number 193
_symmetry_cell_setting 'hexagonal'
loop_
_space_group_symop_operation_xyz
x,y,z
x-y,x,1/2+z
-y,x-y,z
-x,-y,1/2+z
-x+y,-x,z
y,-x+y,1/2+z
x-y,-y,1/2-z
-x,-x+y,1/2-z
y,x,1/2-z
-y,-x,-z
-x+y,y,-z
x,x-y,-z
-x,-y,-z
-x+y,-x,1/2-z
y,-x+y,-z
x,y,1/2-z
x-y,x,-z
-y,x-y,1/2-z
-x+y,y,1/2+z
x,x-y,1/2+z
-y,-x,1/2+z
y,x,z
x-y,-y,z
-x,-x+y,z
loop_
_atom_site_type_symbol
_atom_site_label
_atom_site_fract_x
_atom_site_fract_y
_atom_site_fract_z
Si Si1 0.878324 0.214897 0.950869
Si Si2 0.582464 0.704678 0.384101
Si Si3 0.752715 0.284539 0.199643
Si Si4 0.428286 0.549600 0.049042
O O1 0.804317 0.129842 0.912812
O O2 0.874473 0.320220 0.936292
O O3 0.000000 0.238221 0.949447
O O4 0.828641 0.171360 0.000000
O O5 0.625118 0.625118 0.370984
O O6 0.559626 0.748143 0.337729
O O7 0.471613 0.644347 0.413664
O O8 0.786430 0.410025 0.194275
O O9 0.785612 0.265703 0.250000
O O10 0.525229 0.525229 0.043606
O O11 0.410528 0.589473 0.000000
#
# Coordination Sequence:
#
# PCOD8330232 Si02
#       4
#    24  24  24  24
#     4  11  21  34  50  71 105 142 176 216 259 305
#     4  11  20  32  52  77 104 137 177 217 258 304
#     4   8  17  34  53  75 106 137 166 202 252 313
#     4   9  17  30  45  68 100 129 165 209 253 305
#
# _framework density 18.008559999999999
#
# number of rings (size 3 to 8) (size 9 to 14) (size 15 to 20)
#    0.500    1.750    2.500    2.250    0.000    0.500 
#    1.500    1.250    0.000    6.750    0.000    0.000 
#    0.000    0.000    0.000    0.000    0.000    0.000 
#
# Total GULP energy -1189608.035019 kJ/mol
# GULP energy per Si atom -12391.750365 kJ/mol
# Density = 1.796757 g / cm^3
# Si number density = 18.008560 Si / 1000 Ang^3
#
#
#
# Elastic Constant Matrix: (Units=GPa)
#
#
# Indices 1 2 3 4 5 6 
#
# 1 48.1851 11.6531 26.3705 0.0000 0.0000 0.0000
# 2 11.6531 48.1851 26.3705 0.0000 0.0000 0.0000
# 3 26.3705 26.3705 135.4688 0.0000 0.0000 0.0000
# 4 0.0000 0.0000 0.0000 15.4191 0.0000 0.0000
# 5 0.0000 0.0000 0.0000 0.0000 15.4191 0.0000
# 6 0.0000 0.0000 0.0000 0.0000 0.0000 18.2660
#
#
#
# Elastic Compliance Matrix: (Units=1/GPa)
#
#
# Indices 1 2 3 4 5 6 
#
# 1 0.023773 -0.003600 -0.003927 0.000000 0.000000 0.000000
# 2 -0.003600 0.023773 -0.003927 0.000000 0.000000 0.000000
# 3 -0.003927 -0.003927 0.008911 0.000000 0.000000 0.000000
# 4 0.000000 0.000000 0.000000 0.064855 0.000000 0.000000
# 5 0.000000 0.000000 0.000000 0.000000 0.064855 0.000000
# 6 0.000000 0.000000 0.000000 0.000000 0.000000 0.054747
#
#
# Mechanical properties :
#
#
# Convention : Reuss Voigt Hill
#
# Bulk Modulus (GPa) = 29.80732 40.06970 34.93851
# Shear Modulus (GPa) = 18.18161 20.98383 19.58272
#
# Velocity S-wave (km/s) = 3.18088 3.41723 3.30117
# Velocity P-wave (km/s) = 5.48437 6.15375 5.82868
#
# Compressibility (1/GPa) = 0.03354881
#
# Stress axis : x y z
#
# Youngs Moduli (GPa) = 42.06441 42.06441 112.22591
#
# Poissons Ratio (x) = 0.15144 0.44070
# Poissons Ratio (y) = 0.15144 0.44070
# Poissons Ratio (z) = 0.16518 0.16518
#
# Static dielectric constant tensor:
#      x y z
#    x 3.098280 0.000000 0.000000 
#    y 0.000000 3.098280 0.000000 
#    z 0.000000 0.000000 3.270800 
# 
# 
# High freq. dielectric constant tensor:
#      x y z
#    x 1.663570 0.000000 0.000000 
#    y 0.000000 1.663570 0.000000 
#    z 0.000000 0.000000 1.695310 
# 
# From -- ./inp_files/8109.got.cif
#   From: 2010.03.12/outbox.cif.g09.slc.cpg/sg193_5_cif.got.tgz:8109.got - 2010.04.01 12:20:39.
