data_PCOD8330716
_publ_section_title
;
Structure prediction by ZEFSAII (Michael W. Deem and Ramdas Pophale) SiO2 
 PCOD8330716
Probable space group: P 63/M M C
;
_chemical_formula_sum "Si O2"
_cell_formula_units_Z 144
_cell_length_a 31.387009
_cell_length_b 31.387009
_cell_length_c 9.065298
_cell_angle_alpha 90.000000
_cell_angle_beta 90.000000
_cell_angle_gamma 120.000000
_cell_volume 7734.149819
_symmetry_space_group_name_H-M "P 63/M M C"
_symmetry_group_IT_number 194
_symmetry_cell_setting 'hexagonal'
loop_
_space_group_symop_operation_xyz
x,y,z
x-y,x,1/2+z
-y,x-y,z
-x,-y,1/2+z
-x+y,-x,z
y,-x+y,1/2+z
x-y,-y,-z
-x,-x+y,-z
y,x,-z
-y,-x,1/2-z
-x+y,y,1/2-z
x,x-y,1/2-z
-x,-y,-z
-x+y,-x,1/2-z
y,-x+y,-z
x,y,1/2-z
x-y,x,-z
-y,x-y,1/2-z
-x+y,y,z
x,x-y,z
-y,-x,z
y,x,1/2+z
x-y,-y,1/2+z
-x,-x+y,1/2+z
loop_
_atom_site_type_symbol
_atom_site_label
_atom_site_fract_x
_atom_site_fract_y
_atom_site_fract_z
Si Si1 0.050567 0.476305 0.577094
Si Si2 0.237970 0.860157 0.081058
Si Si3 0.950945 0.145254 0.423251
Si Si4 0.662501 0.139218 0.920193
Si Si5 0.707683 0.950507 0.576767
Si Si6 0.570798 0.333148 0.574336
O O1 0.044461 0.465715 0.750000
O O2 0.063685 0.531843 0.540073
O O3 0.092846 0.467022 0.516589
O O4 0.000000 0.437446 0.500000
O O5 0.234186 0.873750 0.250000
O O6 0.188328 0.811673 0.031180
O O7 0.282336 0.849652 0.060209
O O8 0.247483 0.904863 0.977039
O O9 0.957716 0.143862 0.250000
O O10 0.905207 0.094794 0.481556
O O11 0.941116 0.189152 0.467985
O O12 0.000000 0.152115 0.500000
O O13 0.645518 0.128693 0.750000
O O14 0.661636 0.186800 0.981834
O O15 0.704900 0.956687 0.750000
O O16 0.715299 0.000000 0.500000
O O17 0.570641 0.331466 0.750000
O O18 0.566780 0.283390 0.510023
O O19 0.620747 0.379254 0.514210
#
# Coordination Sequence:
#
# PCOD8330716 Si02
#       6
#    24  24  24  24  24  24
#     4  10  21  37  57  80 105 134 171 216 264 313
#     4  10  21  36  53  75 106 143 180 217 259 309
#     4   9  18  32  50  74 102 130 164 207 252 299
#     4  10  20  34  53  77 106 140 176 214 257 306
#     4  10  20  35  55  78 104 135 173 217 265 314
#     4   9  16  27  47  76 107 136 168 209 256 304
#
# _framework density 18.618725000000001
#
# number of rings (size 3 to 8) (size 9 to 14) (size 15 to 20)
#    0.000    2.333    0.000    2.667    0.000    7.667 
#    0.000    0.000    0.000    1.667    0.000    0.000 
#    0.000    1.333    0.000    0.000    0.000    0.000 
#
# Total GULP energy -1786130.590360 kJ/mol
# GULP energy per Si atom -12403.684655 kJ/mol
# Density = 1.857635 g / cm^3
# Si number density = 18.618725 Si / 1000 Ang^3
#
#
#
# Elastic Constant Matrix: (Units=GPa)
#
#
# Indices 1 2 3 4 5 6 
#
# 1 121.4437 54.6319 39.7986 0.0000 0.0000 0.0000
# 2 54.6319 121.4437 39.7986 0.0000 0.0000 0.0000
# 3 39.7986 39.7986 58.5219 0.0000 0.0000 0.0000
# 4 0.0000 0.0000 0.0000 25.5299 0.0000 0.0000
# 5 0.0000 0.0000 0.0000 0.0000 25.5299 0.0000
# 6 0.0000 0.0000 0.0000 0.0000 0.0000 33.4059
#
#
#
# Elastic Compliance Matrix: (Units=1/GPa)
#
#
# Indices 1 2 3 4 5 6 
#
# 1 0.011584 -0.003383 -0.005577 0.000000 0.000000 0.000000
# 2 -0.003383 0.011584 -0.005577 0.000000 0.000000 0.000000
# 3 -0.005577 -0.005577 0.024673 0.000000 0.000000 0.000000
# 4 0.000000 0.000000 0.000000 0.039170 0.000000 0.000000
# 5 0.000000 0.000000 0.000000 0.000000 0.039170 0.000000
# 6 0.000000 0.000000 0.000000 0.000000 0.000000 0.029935
#
#
# Mechanical properties :
#
#
# Convention : Reuss Voigt Hill
#
# Bulk Modulus (GPa) = 53.28670 63.31860 58.30265
# Shear Modulus (GPa) = 26.11718 28.03848 27.07783
#
# Velocity S-wave (km/s) = 3.74938 3.88484 3.81771
# Velocity P-wave (km/s) = 6.88664 7.36237 7.12848
#
# Compressibility (1/GPa) = 0.01876641
#
# Stress axis : x y z
#
# Youngs Moduli (GPa) = 86.32644 86.32644 40.53045
#
# Poissons Ratio (x) = 0.29208 0.22603
# Poissons Ratio (y) = 0.29208 0.22603
# Poissons Ratio (z) = 0.48143 0.48143
#
# Static dielectric constant tensor:
#      x y z
#    x 3.477280 0.000000 0.000000 
#    y 0.000000 3.477280 0.000000 
#    z 0.000000 0.000000 3.210410 
# 
# 
# High freq. dielectric constant tensor:
#      x y z
#    x 1.727730 0.000000 0.000000 
#    y 0.000000 1.727730 0.000000 
#    z 0.000000 0.000000 1.701500 
# 
# From -- ./inp_files/2106.got.cif
#   From: 2010.03.12/outbox.cif.g09.slc.cpg/sg194_2_cif.got.tgz:2106.got - 2010.04.01 12:26:19.
