data_PCOD8330185
_publ_section_title
;
Structure prediction by ZEFSAII (Michael W. Deem and Ramdas Pophale) SiO2 
 PCOD8330185
Probable space group: P 63/M C M
;
_chemical_formula_sum "Si O2"
_cell_formula_units_Z 152
_cell_length_a 18.298007
_cell_length_b 18.298007
_cell_length_c 27.217862
_cell_angle_alpha 90.000000
_cell_angle_beta 90.000000
_cell_angle_gamma 120.000000
_cell_volume 7892.093436
_symmetry_space_group_name_H-M "P 63/M C M"
_symmetry_group_IT_number 193
_symmetry_cell_setting 'hexagonal'
loop_
_space_group_symop_operation_xyz
x,y,z
x-y,x,1/2+z
-y,x-y,z
-x,-y,1/2+z
-x+y,-x,z
y,-x+y,1/2+z
x-y,-y,1/2-z
-x,-x+y,1/2-z
y,x,1/2-z
-y,-x,-z
-x+y,y,-z
x,x-y,-z
-x,-y,-z
-x+y,-x,1/2-z
y,-x+y,-z
x,y,1/2-z
x-y,x,-z
-y,x-y,1/2-z
-x+y,y,1/2+z
x,x-y,1/2+z
-y,-x,1/2+z
y,x,z
x-y,-y,z
-x,-x+y,z
loop_
_atom_site_type_symbol
_atom_site_label
_atom_site_fract_x
_atom_site_fract_y
_atom_site_fract_z
Si Si1 0.907737 0.232687 0.306664
Si Si2 0.253957 0.351027 0.981137
Si Si3 0.540715 0.176393 0.864788
Si Si4 0.482100 0.816486 0.473870
Si Si5 0.096073 0.724735 0.306445
Si Si6 0.345953 0.906014 0.112586
Si Si7 0.333334 0.666667 0.691990
O O1 0.904154 0.251925 0.250000
O O2 0.824401 0.145224 0.321422
O O3 0.902982 0.306234 0.334931
O O4 0.000000 0.240282 0.318567
O O5 0.274886 0.274886 0.978502
O O6 0.271844 0.402510 0.929078
O O7 0.157161 0.314322 0.000000
O O8 0.314540 0.421844 0.020087
O O9 0.530896 0.209401 0.917139
O O10 0.450005 0.113590 0.841029
O O11 0.600239 0.138636 0.877895
O O12 0.582062 0.253242 0.827086
O O13 0.424269 0.848538 0.500000
O O14 0.463304 0.731652 0.500000
O O15 0.115814 0.712645 0.250000
O O16 0.000000 0.699091 0.313642
O O17 0.411425 0.000000 0.094826
O O18 0.333334 0.666668 0.750000
#
# Coordination Sequence:
#
# PCOD8330185 Si02
#       7
#    24  24  24  24  24  24   8
#     4   9  19  37  61  83 108 147 193 238 287 350
#     4  10  23  40  60  86 119 156 197 249 304 357
#     4  12  23  38  57  80 116 158 201 244 293 347
#     4  11  22  37  56  82 113 155 200 247 289 337
#     4  10  22  38  58  87 119 148 187 241 297 355
#     4  10  21  38  58  84 115 151 195 242 293 349
#     4  12  27  39  55  80 115 162 207 252 292 344
#
# _framework density 19.259782999999999
#
# number of rings (size 3 to 8) (size 9 to 14) (size 15 to 20)
#    0.000    1.579    1.579    3.000    6.632    4.105 
#    0.000    1.579    0.000    0.474    0.000    2.211 
#    0.000    0.000    0.000    0.000    0.000    0.158 
#
# Total GULP energy -1883222.853237 kJ/mol
# GULP energy per Si atom -12389.624034 kJ/mol
# Density = 1.921595 g / cm^3
# Si number density = 19.259783 Si / 1000 Ang^3
#
#
#
# Elastic Constant Matrix: (Units=GPa)
#
#
# Indices 1 2 3 4 5 6 
#
# 1 100.1700 65.1571 42.4800 0.0000 -0.0001 0.0000
# 2 65.1571 100.1691 42.4801 0.0000 0.0000 -0.0003
# 3 42.4800 42.4801 116.5721 0.0000 0.0000 0.0001
# 4 0.0000 0.0000 0.0000 26.0104 0.0000 0.0000
# 5 -0.0001 0.0000 0.0000 0.0000 26.0105 0.0000
# 6 0.0000 -0.0003 0.0001 0.0000 0.0000 17.5060
#
#
#
# Elastic Compliance Matrix: (Units=1/GPa)
#
#
# Indices 1 2 3 4 5 6 
#
# 1 0.018002 -0.010559 -0.002712 0.000000 0.000000 0.000000
# 2 -0.010559 0.018002 -0.002712 0.000000 0.000000 0.000000
# 3 -0.002712 -0.002712 0.010555 0.000000 0.000000 0.000000
# 4 0.000000 0.000000 0.000000 0.038446 0.000000 0.000000
# 5 0.000000 0.000000 0.000000 0.000000 0.038446 0.000000
# 6 0.000000 0.000000 0.000000 0.000000 0.000000 0.057123
#
#
# Mechanical properties :
#
#
# Convention : Reuss Voigt Hill
#
# Bulk Modulus (GPa) = 68.53347 68.57175 68.55261
# Shear Modulus (GPa) = 22.99854 25.02498 24.01176
#
# Velocity S-wave (km/s) = 3.45936 3.60854 3.53474
# Velocity P-wave (km/s) = 7.18451 7.28306 7.23395
#
# Compressibility (1/GPa) = 0.01459141
#
# Stress axis : x y z
#
# Youngs Moduli (GPa) = 55.55030 55.54961 94.74189
#
# Poissons Ratio (x) = 0.58657 0.25694
# Poissons Ratio (y) = 0.58658 0.25695
# Poissons Ratio (z) = 0.15065 0.15066
#
# Static dielectric constant tensor:
#      x y z
#    x 3.576740 0.000000 0.000000 
#    y 0.000000 3.576750 0.000000 
#    z 0.000000 0.000000 3.859070 
# 
# 
# High freq. dielectric constant tensor:
#      x y z
#    x 1.736580 0.000000 0.000000 
#    y 0.000000 1.736580 0.000000 
#    z 0.000000 0.000000 1.765210 
# 
# From -- ./inp_files/9223.got.cif
#   From: 2010.03.12/outbox.cif.g09.slc.cpg/sg193_5_cif.got.tgz:9223.got - 2010.04.01 12:20:39.
