data_PCOD8330310
_publ_section_title
;
Structure prediction by ZEFSAII (Michael W. Deem and Ramdas Pophale) SiO2 
 PCOD8330310
Probable space group: P 63/M M C
;
_chemical_formula_sum "Si O2"
_cell_formula_units_Z 96
_cell_length_a 26.925309
_cell_length_b 26.925309
_cell_length_c 10.303133
_cell_angle_alpha 90.000000
_cell_angle_beta 90.000000
_cell_angle_gamma 120.000000
_cell_volume 6468.764339
_symmetry_space_group_name_H-M "P 63/M M C"
_symmetry_group_IT_number 194
_symmetry_cell_setting 'hexagonal'
loop_
_space_group_symop_operation_xyz
x,y,z
x-y,x,1/2+z
-y,x-y,z
-x,-y,1/2+z
-x+y,-x,z
y,-x+y,1/2+z
x-y,-y,-z
-x,-x+y,-z
y,x,-z
-y,-x,1/2-z
-x+y,y,1/2-z
x,x-y,1/2-z
-x,-y,-z
-x+y,-x,1/2-z
y,-x+y,-z
x,y,1/2-z
x-y,x,-z
-y,x-y,1/2-z
-x+y,y,z
x,x-y,z
-y,-x,z
y,x,1/2+z
x-y,-y,1/2+z
-x,-x+y,1/2+z
loop_
_atom_site_type_symbol
_atom_site_label
_atom_site_fract_x
_atom_site_fract_y
_atom_site_fract_z
Si Si1 0.211196 0.162965 0.896970
Si Si2 0.478738 0.069426 0.250000
Si Si3 0.771204 0.115094 0.600502
Si Si4 0.521910 0.588595 0.250000
Si Si5 0.931858 0.581260 0.998909
O O1 0.199462 0.176156 0.750000
O O2 0.194170 0.097085 0.907072
O O3 0.277521 0.203698 0.933001
O O4 0.172663 0.172663 0.000000
O O5 0.547584 0.095167 0.250000
O O6 0.459157 0.090560 0.375362
O O7 0.448383 0.001446 0.250000
O O8 0.750788 0.106134 0.750000
O O9 0.819101 0.180900 0.575273
O O10 0.718044 0.098564 0.505650
O O11 0.453590 0.546411 0.250000
O O12 0.538970 0.627817 0.376648
O O13 0.000000 0.623254 0.000000
#
# Coordination Sequence:
#
# PCOD8330310 Si02
#       5
#    24  12  24  12  24
#     4   9  18  32  49  68  92 119 149 188 230 274
#     4   9  18  28  39  60  88 114 140 178 213 240
#     4   9  17  30  45  62  86 118 153 185 220 259
#     4   9  16  26  41  60  82 112 150 176 199 242
#     4  10  17  27  43  61  84 117 151 179 212 252
#
# _framework density 14.840547000000001
#
# number of rings (size 3 to 8) (size 9 to 14) (size 15 to 20)
#    0.000    2.750    1.250    3.000    0.000    3.500 
#    2.250    0.625    0.000    0.250    0.000    0.000 
#    0.000    0.000    0.000   15.000    0.000    0.000 
#
# Total GULP energy -1190277.871048 kJ/mol
# GULP energy per Si atom -12398.727823 kJ/mol
# Density = 1.480677 g / cm^3
# Si number density = 14.840547 Si / 1000 Ang^3
#
#
#
# Elastic Constant Matrix: (Units=GPa)
#
#
# Indices 1 2 3 4 5 6 
#
# 1 71.2082 26.9402 44.7602 0.0000 0.0000 0.0000
# 2 26.9402 71.2082 44.7602 0.0000 0.0000 0.0000
# 3 44.7602 44.7602 116.0778 0.0000 0.0000 0.0000
# 4 0.0000 0.0000 0.0000 24.0855 0.0000 0.0000
# 5 0.0000 0.0000 0.0000 0.0000 24.0855 0.0000
# 6 0.0000 0.0000 0.0000 0.0000 0.0000 22.1340
#
#
#
# Elastic Compliance Matrix: (Units=1/GPa)
#
#
# Indices 1 2 3 4 5 6 
#
# 1 0.019153 -0.003437 -0.006060 0.000000 0.000000 0.000000
# 2 -0.003437 0.019153 -0.006060 0.000000 0.000000 0.000000
# 3 -0.006060 -0.006060 0.013289 0.000000 0.000000 0.000000
# 4 0.000000 0.000000 0.000000 0.041519 0.000000 0.000000
# 5 0.000000 0.000000 0.000000 0.000000 0.041519 0.000000
# 6 0.000000 0.000000 0.000000 0.000000 0.000000 0.045179
#
#
# Mechanical properties :
#
#
# Convention : Reuss Voigt Hill
#
# Bulk Modulus (GPa) = 48.82812 54.60171 51.71491
# Shear Modulus (GPa) = 22.96183 23.52988 23.24586
#
# Velocity S-wave (km/s) = 3.93776 3.98617 3.96204
# Velocity P-wave (km/s) = 7.32447 7.61959 7.47349
#
# Compressibility (1/GPa) = 0.02048000
#
# Stress axis : x y z
#
# Youngs Moduli (GPa) = 52.21134 52.21134 75.25239
#
# Poissons Ratio (x) = 0.17944 0.45605
# Poissons Ratio (y) = 0.17944 0.45605
# Poissons Ratio (z) = 0.31641 0.31641
#
# Static dielectric constant tensor:
#      x y z
#    x 2.676090 0.000000 0.000000 
#    y 0.000000 2.676090 0.000000 
#    z 0.000000 0.000000 2.931050 
# 
# 
# High freq. dielectric constant tensor:
#      x y z
#    x 1.543790 0.000000 0.000000 
#    y 0.000000 1.543790 0.000000 
#    z 0.000000 0.000000 1.574120 
# 
# From -- ./inp_files/1781.got.cif
#   From: 2010.03.12/outbox.cif.g09.slc.cpg/sg194_1_cif.got.tgz:1781.got - 2010.04.01 12:26:19.
