data_PCOD8330478
_publ_section_title
;
Structure prediction by ZEFSAII (Michael W. Deem and Ramdas Pophale) SiO2 
 PCOD8330478
Probable space group: P 63/M M C
;
_chemical_formula_sum "Si O2"
_cell_formula_units_Z 120
_cell_length_a 22.627775
_cell_length_b 22.627775
_cell_length_c 14.521876
_cell_angle_alpha 90.000000
_cell_angle_beta 90.000000
_cell_angle_gamma 120.000000
_cell_volume 6439.276280
_symmetry_space_group_name_H-M "P 63/M M C"
_symmetry_group_IT_number 194
_symmetry_cell_setting 'hexagonal'
loop_
_space_group_symop_operation_xyz
x,y,z
x-y,x,1/2+z
-y,x-y,z
-x,-y,1/2+z
-x+y,-x,z
y,-x+y,1/2+z
x-y,-y,-z
-x,-x+y,-z
y,x,-z
-y,-x,1/2-z
-x+y,y,1/2-z
x,x-y,1/2-z
-x,-y,-z
-x+y,-x,1/2-z
y,-x+y,-z
x,y,1/2-z
x-y,x,-z
-y,x-y,1/2-z
-x+y,y,z
x,x-y,z
-y,-x,z
y,x,1/2+z
x-y,-y,1/2+z
-x,-x+y,1/2+z
loop_
_atom_site_type_symbol
_atom_site_label
_atom_site_fract_x
_atom_site_fract_y
_atom_site_fract_z
Si Si1 0.870455 0.869442 0.857942
Si Si2 0.383435 0.310733 0.650591
Si Si3 0.234892 0.957989 0.856638
Si Si4 0.272191 0.411280 0.959545
Si Si5 0.547589 0.584143 0.597518
O O1 0.865835 0.854744 0.750000
O O2 0.896409 0.948205 0.878809
O O3 0.794692 0.823416 0.897914
O O4 0.926134 0.852268 0.902169
O O5 0.399679 0.288820 0.750000
O O6 0.303131 0.273048 0.632570
O O7 0.415936 0.288613 0.568816
O O8 0.409161 0.391439 0.660672
O O9 0.222053 0.932637 0.750000
O O10 0.235564 0.900984 0.921247
O O11 0.220444 0.440888 0.943818
O O12 0.344871 0.454442 0.906902
O O13 0.563982 0.563982 0.500000
O O14 0.474512 0.525489 0.635502
#
# Coordination Sequence:
#
# PCOD8330478 Si02
#       5
#    24  24  24  24  24
#     4   9  16  25  38  57  82 114 153 196 240 285
#     4   9  18  31  47  70  97 123 155 195 238 285
#     4   9  17  30  46  64  90 123 158 197 242 290
#     4  10  19  30  47  72 100 129 158 190 235 290
#     4   8  15  30  50  70  95 126 160 199 237 274
#
# _framework density 18.635635000000001
#
# number of rings (size 3 to 8) (size 9 to 14) (size 15 to 20)
#    0.000    3.000    0.000    2.600    0.000    3.600 
#    0.000    2.000    0.000    0.400    0.000    0.000 
#    0.000    8.000    0.000   12.200    0.000    1.200 
#
# Total GULP energy -1486677.606741 kJ/mol
# GULP energy per Si atom -12388.980056 kJ/mol
# Density = 1.859322 g / cm^3
# Si number density = 18.635635 Si / 1000 Ang^3
#
#
#
# Elastic Constant Matrix: (Units=GPa)
#
#
# Indices 1 2 3 4 5 6 
#
# 1 91.2715 53.1905 5.3639 0.0000 0.0000 0.0000
# 2 53.1905 91.2715 5.3639 0.0000 0.0000 0.0000
# 3 5.3639 5.3639 52.0032 0.0000 0.0000 0.0000
# 4 0.0000 0.0000 0.0000 8.1151 0.0000 0.0000
# 5 0.0000 0.0000 0.0000 0.0000 8.1151 0.0000
# 6 0.0000 0.0000 0.0000 0.0000 0.0000 19.0405
#
#
#
# Elastic Compliance Matrix: (Units=1/GPa)
#
#
# Indices 1 2 3 4 5 6 
#
# 1 0.016618 -0.009642 -0.000720 0.000000 0.000000 0.000000
# 2 -0.009642 0.016618 -0.000720 0.000000 0.000000 0.000000
# 3 -0.000720 -0.000720 0.019378 0.000000 0.000000 0.000000
# 4 0.000000 0.000000 0.000000 0.123227 0.000000 0.000000
# 5 0.000000 0.000000 0.000000 0.000000 0.123227 0.000000
# 6 0.000000 0.000000 0.000000 0.000000 0.000000 0.052520
#
#
# Mechanical properties :
#
#
# Convention : Reuss Voigt Hill
#
# Bulk Modulus (GPa) = 32.83930 40.26476 36.55203
# Shear Modulus (GPa) = 13.02426 18.42936 15.72681
#
# Velocity S-wave (km/s) = 2.64652 3.14814 2.90817
# Velocity P-wave (km/s) = 5.19604 5.90488 5.56176
#
# Compressibility (1/GPa) = 0.03045132
#
# Stress axis : x y z
#
# Youngs Moduli (GPa) = 60.17666 60.17666 51.60490
#
# Poissons Ratio (x) = 0.58023 0.03713
# Poissons Ratio (y) = 0.58023 0.03713
# Poissons Ratio (z) = 0.04330 0.04330
#
# Static dielectric constant tensor:
#      x y z
#    x 3.442170 0.000000 0.000000 
#    y 0.000000 3.442170 0.000000 
#    z 0.000000 0.000000 3.466110 
# 
# 
# High freq. dielectric constant tensor:
#      x y z
#    x 1.695170 0.000000 0.000000 
#    y 0.000000 1.695170 0.000000 
#    z 0.000000 0.000000 1.723050 
# 
# From -- ./inp_files/5061.got.cif
#   From: 2010.03.12/outbox.cif.g09.slc.cpg/sg194_3_cif.got.tgz:5061.got - 2010.04.01 12:26:19.
