data_PCOD8330711
_publ_section_title
;
Structure prediction by ZEFSAII (Michael W. Deem and Ramdas Pophale) SiO2 
 PCOD8330711
Probable space group: P 63/M M C
;
_chemical_formula_sum "Si O2"
_cell_formula_units_Z 144
_cell_length_a 31.719538
_cell_length_b 31.719538
_cell_length_c 9.153928
_cell_angle_alpha 90.000000
_cell_angle_beta 90.000000
_cell_angle_gamma 120.000000
_cell_volume 7976.122770
_symmetry_space_group_name_H-M "P 63/M M C"
_symmetry_group_IT_number 194
_symmetry_cell_setting 'hexagonal'
loop_
_space_group_symop_operation_xyz
x,y,z
x-y,x,1/2+z
-y,x-y,z
-x,-y,1/2+z
-x+y,-x,z
y,-x+y,1/2+z
x-y,-y,-z
-x,-x+y,-z
y,x,-z
-y,-x,1/2-z
-x+y,y,1/2-z
x,x-y,1/2-z
-x,-y,-z
-x+y,-x,1/2-z
y,-x+y,-z
x,y,1/2-z
x-y,x,-z
-y,x-y,1/2-z
-x+y,y,z
x,x-y,z
-y,-x,z
y,x,1/2+z
x-y,-y,1/2+z
-x,-x+y,1/2+z
loop_
_atom_site_type_symbol
_atom_site_label
_atom_site_fract_x
_atom_site_fract_y
_atom_site_fract_z
Si Si1 0.854472 0.806983 0.921113
Si Si2 0.572442 0.524844 0.920394
Si Si3 0.142126 0.383547 0.417311
Si Si4 0.518570 0.853603 0.077165
Si Si5 0.333163 0.763719 0.921321
Si Si6 0.094867 0.805061 0.914240
O O1 0.844235 0.806198 0.750000
O O2 0.908429 0.816857 0.952345
O O3 0.850057 0.850057 0.000000
O O4 0.813573 0.756058 0.989741
O O5 0.575385 0.535722 0.750000
O O6 0.527463 0.472538 0.961615
O O7 0.620362 0.525062 0.976350
O O8 0.567265 0.567265 0.000000
O O9 0.124493 0.373359 0.250000
O O10 0.194321 0.388641 0.435933
O O11 0.147029 0.433445 0.474634
O O12 0.101615 0.339007 0.512765
O O13 0.510947 0.846995 0.250000
O O14 0.471774 0.810160 0.003509
O O15 0.331943 0.772315 0.750000
O O16 0.378293 0.756585 0.963608
O O17 0.284189 0.715812 0.972947
O O18 0.074369 0.789611 0.750000
O O19 0.146195 0.853806 0.912329
#
# Coordination Sequence:
#
# PCOD8330711 Si02
#       6
#    24  24  24  24  24  24
#     4  10  20  34  54  80 109 141 178 221 267 314
#     4   9  18  33  52  72  94 121 155 198 247 299
#     4   9  17  30  48  70  99 134 167 201 247 302
#     4  10  20  34  53  77 103 132 169 213 260 310
#     4  10  21  36  53  74 103 139 177 218 266 320
#     4   9  17  30  49  72  98 130 168 207 246 293
#
# _framework density 18.053884
#
# number of rings (size 3 to 8) (size 9 to 14) (size 15 to 20)
#    0.000    2.500    0.000    2.167    0.000    7.000 
#    0.000    4.167    0.000    3.167    0.000    0.000 
#    0.000    0.000    0.000    0.000    0.000    0.000 
#
# Total GULP energy -1785804.580476 kJ/mol
# GULP energy per Si atom -12401.420698 kJ/mol
# Density = 1.801279 g / cm^3
# Si number density = 18.053884 Si / 1000 Ang^3
#
#
#
# Elastic Constant Matrix: (Units=GPa)
#
#
# Indices 1 2 3 4 5 6 
#
# 1 105.6841 58.7188 52.7388 0.0000 0.0000 0.0000
# 2 58.7188 105.6841 52.7388 0.0000 0.0000 0.0000
# 3 52.7388 52.7388 81.9385 0.0000 0.0000 0.0000
# 4 0.0000 0.0000 0.0000 29.9514 0.0000 0.0000
# 5 0.0000 0.0000 0.0000 0.0000 29.9514 0.0000
# 6 0.0000 0.0000 0.0000 0.0000 0.0000 23.4827
#
#
#
# Elastic Compliance Matrix: (Units=1/GPa)
#
#
# Indices 1 2 3 4 5 6 
#
# 1 0.015827 -0.005466 -0.006669 0.000000 0.000000 0.000000
# 2 -0.005466 0.015827 -0.006669 0.000000 0.000000 0.000000
# 3 -0.006669 -0.006669 0.020789 0.000000 0.000000 0.000000
# 4 0.000000 0.000000 0.000000 0.033387 0.000000 0.000000
# 5 0.000000 0.000000 0.000000 0.000000 0.033387 0.000000
# 6 0.000000 0.000000 0.000000 0.000000 0.000000 0.042585
#
#
# Mechanical properties :
#
#
# Convention : Reuss Voigt Hill
#
# Bulk Modulus (GPa) = 67.40408 69.07771 68.24090
# Shear Modulus (GPa) = 24.46735 25.28445 24.87590
#
# Velocity S-wave (km/s) = 3.68535 3.74638 3.71599
# Velocity P-wave (km/s) = 7.45152 7.55373 7.50280
#
# Compressibility (1/GPa) = 0.01483590
#
# Stress axis : x y z
#
# Youngs Moduli (GPa) = 63.18406 63.18406 48.10235
#
# Poissons Ratio (x) = 0.34533 0.32079
# Poissons Ratio (y) = 0.34533 0.32079
# Poissons Ratio (z) = 0.42137 0.42137
#
# Static dielectric constant tensor:
#      x y z
#    x 3.361370 0.000000 0.000000 
#    y 0.000000 3.361370 0.000000 
#    z 0.000000 0.000000 3.354970 
# 
# 
# High freq. dielectric constant tensor:
#      x y z
#    x 1.694230 0.000000 0.000000 
#    y 0.000000 1.694230 0.000000 
#    z 0.000000 0.000000 1.698600 
# 
# From -- ./inp_files/2148.got.cif
#   From: 2010.03.12/outbox.cif.g09.slc.cpg/sg194_2_cif.got.tgz:2148.got - 2010.04.01 12:26:19.
