data_PCOD8330276
_publ_section_title
;
Structure prediction by ZEFSAII (Michael W. Deem and Ramdas Pophale) SiO2 
 PCOD8330276
Probable space group: P 63/M C M
;
_chemical_formula_sum "Si O2"
_cell_formula_units_Z 144
_cell_length_a 23.635725
_cell_length_b 23.635725
_cell_length_c 19.346636
_cell_angle_alpha 90.000000
_cell_angle_beta 90.000000
_cell_angle_gamma 120.000000
_cell_volume 9359.959057
_symmetry_space_group_name_H-M "P 63/M C M"
_symmetry_group_IT_number 193
_symmetry_cell_setting 'hexagonal'
loop_
_space_group_symop_operation_xyz
x,y,z
x-y,x,1/2+z
-y,x-y,z
-x,-y,1/2+z
-x+y,-x,z
y,-x+y,1/2+z
x-y,-y,1/2-z
-x,-x+y,1/2-z
y,x,1/2-z
-y,-x,-z
-x+y,y,-z
x,x-y,-z
-x,-y,-z
-x+y,-x,1/2-z
y,-x+y,-z
x,y,1/2-z
x-y,x,-z
-y,x-y,1/2-z
-x+y,y,1/2+z
x,x-y,1/2+z
-y,-x,1/2+z
y,x,z
x-y,-y,z
-x,-x+y,z
loop_
_atom_site_type_symbol
_atom_site_label
_atom_site_fract_x
_atom_site_fract_y
_atom_site_fract_z
Si Si1 0.927707 0.743290 0.329152
Si Si2 0.603763 0.077752 0.172798
Si Si3 0.924170 0.630503 0.414459
Si Si4 0.490812 0.568245 0.069565
Si Si5 0.925351 0.210115 0.329509
Si Si6 0.382432 0.304655 0.932567
O O1 0.928233 0.723240 0.250000
O O2 0.911133 0.681543 0.375239
O O3 0.868377 0.757091 0.342608
O O4 0.000000 0.804988 0.347934
O O5 0.619329 0.107411 0.250000
O O6 0.670909 0.107743 0.128858
O O7 0.556253 0.098964 0.135924
O O8 0.570060 0.000000 0.176446
O O9 0.895328 0.621344 0.491687
O O10 0.000000 0.654223 0.422160
O O11 0.532380 0.532380 0.061935
O O12 0.540769 0.645332 0.081673
O O13 0.447099 0.552901 0.000000
O O14 0.917854 0.225704 0.250000
O O15 0.895615 0.245935 0.376449
O O16 0.000000 0.234803 0.349052
O O17 0.342458 0.342458 0.928104
#
# Coordination Sequence:
#
# PCOD8330276 Si02
#       6
#    24  24  24  24  24  24
#     4   9  17  29  45  62  80 105 138 180 233 287
#     4   9  15  21  32  52  77 105 137 170 197 224
#     4   9  15  24  38  57  79 102 132 171 211 254
#     4   9  14  22  34  50  76 110 141 164 188 222
#     4   9  18  31  44  59  81 109 143 183 226 280
#     4   9  16  25  39  56  78 109 140 169 203 245
#
# _framework density 15.384683000000001
#
# number of rings (size 3 to 8) (size 9 to 14) (size 15 to 20)
#    0.000    3.000    1.667    0.500    0.000    3.333 
#    0.000    3.333    0.000    0.333    0.000    2.333 
#    0.000    0.000    0.000    9.333    3.667   17.333 
#
# Total GULP energy -1784243.946621 kJ/mol
# GULP energy per Si atom -12390.582963 kJ/mol
# Density = 1.534967 g / cm^3
# Si number density = 15.384683 Si / 1000 Ang^3
#
#
#
# Elastic Constant Matrix: (Units=GPa)
#
#
# Indices 1 2 3 4 5 6 
#
# 1 65.7166 36.0375 41.0443 0.0000 0.0000 0.0000
# 2 36.0375 65.7166 41.0443 0.0000 0.0000 0.0000
# 3 41.0443 41.0443 107.0131 0.0000 0.0000 0.0000
# 4 0.0000 0.0000 0.0000 16.5884 0.0000 0.0000
# 5 0.0000 0.0000 0.0000 0.0000 16.5884 0.0000
# 6 0.0000 0.0000 0.0000 0.0000 0.0000 14.8395
#
#
#
# Elastic Compliance Matrix: (Units=1/GPa)
#
#
# Indices 1 2 3 4 5 6 
#
# 1 0.023962 -0.009731 -0.005458 0.000000 0.000000 0.000000
# 2 -0.009731 0.023962 -0.005458 0.000000 0.000000 0.000000
# 3 -0.005458 -0.005458 0.013532 0.000000 0.000000 0.000000
# 4 0.000000 0.000000 0.000000 0.060283 0.000000 0.000000
# 5 0.000000 0.000000 0.000000 0.000000 0.060283 0.000000
# 6 0.000000 0.000000 0.000000 0.000000 0.000000 0.067388
#
#
# Mechanical properties :
#
#
# Convention : Reuss Voigt Hill
#
# Bulk Modulus (GPa) = 49.60156 52.74428 51.17292
# Shear Modulus (GPa) = 16.81089 17.62459 17.21774
#
# Velocity S-wave (km/s) = 3.30919 3.38833 3.34900
# Velocity P-wave (km/s) = 6.84922 7.04740 6.94902
#
# Compressibility (1/GPa) = 0.02016065
#
# Stress axis : x y z
#
# Youngs Moduli (GPa) = 41.73209 41.73209 73.90119
#
# Poissons Ratio (x) = 0.40611 0.40337
# Poissons Ratio (y) = 0.40611 0.40337
# Poissons Ratio (z) = 0.22778 0.22778
#
# Static dielectric constant tensor:
#      x y z
#    x 2.718520 0.000000 0.000000 
#    y 0.000000 2.718520 0.000000 
#    z 0.000000 0.000000 3.199160 
# 
# 
# High freq. dielectric constant tensor:
#      x y z
#    x 1.548680 0.000000 0.000000 
#    y 0.000000 1.548680 0.000000 
#    z 0.000000 0.000000 1.605540 
# 
# From -- ./inp_files/5543.got.cif
#   From: 2010.03.12/outbox.cif.g09.slc.cpg/sg193_3_cif.got.tgz:5543.got - 2010.04.01 12:20:39.
