data_PCOD8330221
_publ_section_title
;
Structure prediction by ZEFSAII (Michael W. Deem and Ramdas Pophale) SiO2 
 PCOD8330221
Probable space group: P 63/M C M
;
_chemical_formula_sum "Si O2"
_cell_formula_units_Z 144
_cell_length_a 20.917490
_cell_length_b 20.917490
_cell_length_c 18.551887
_cell_angle_alpha 90.000000
_cell_angle_beta 90.000000
_cell_angle_gamma 120.000000
_cell_volume 7029.717330
_symmetry_space_group_name_H-M "P 63/M C M"
_symmetry_group_IT_number 193
_symmetry_cell_setting 'hexagonal'
loop_
_space_group_symop_operation_xyz
x,y,z
x-y,x,1/2+z
-y,x-y,z
-x,-y,1/2+z
-x+y,-x,z
y,-x+y,1/2+z
x-y,-y,1/2-z
-x,-x+y,1/2-z
y,x,1/2-z
-y,-x,-z
-x+y,y,-z
x,x-y,-z
-x,-y,-z
-x+y,-x,1/2-z
y,-x+y,-z
x,y,1/2-z
x-y,x,-z
-y,x-y,1/2-z
-x+y,y,1/2+z
x,x-y,1/2+z
-y,-x,1/2+z
y,x,z
x-y,-y,z
-x,-x+y,z
loop_
_atom_site_type_symbol
_atom_site_label
_atom_site_fract_x
_atom_site_fract_y
_atom_site_fract_z
Si Si1 0.833050 0.916090 0.336036
Si Si2 0.713426 0.285467 0.080382
Si Si3 0.173695 0.330832 0.166649
Si Si4 0.534150 0.839046 0.667206
Si Si5 0.546490 0.458878 0.418119
Si Si6 0.575635 0.912459 0.167620
O O1 0.832119 0.913326 0.250000
O O2 0.875889 0.875889 0.366737
O O3 0.749823 0.873762 0.368345
O O4 0.874267 0.000000 0.363881
O O5 0.750771 0.375858 0.089905
O O6 0.752957 0.262165 0.140839
O O7 0.731260 0.268741 0.000000
O O8 0.184568 0.319020 0.250000
O O9 0.132950 0.378959 0.157615
O O10 0.255777 0.374028 0.132616
O O11 0.514491 0.843459 0.750000
O O12 0.512751 0.887938 0.618434
O O13 0.557885 0.442116 0.500000
O O14 0.501278 0.501278 0.413649
O O15 0.500368 0.380113 0.377697
O O16 0.553898 0.885582 0.250000
O O17 0.621201 0.000000 0.162759
#
# Coordination Sequence:
#
# PCOD8330221 Si02
#       6
#    24  24  24  24  24  24
#     4   9  16  28  49  78 113 152 191 231 280 346
#     4   8  19  35  53  76 105 145 184 229 293 348
#     4   9  19  32  47  76 112 147 186 230 286 340
#     4  11  23  34  53  81 109 148 193 241 292 350
#     4  10  23  39  56  76 102 142 191 242 296 353
#     4   9  17  32  55  78 103 140 187 236 283 338
#
# _framework density 20.484466000000001
#
# number of rings (size 3 to 8) (size 9 to 14) (size 15 to 20)
#    0.333    2.333    0.000    1.167    4.667    5.000 
#    0.000    1.667    0.000    0.000    0.000    0.000 
#    0.000    0.000    0.000    2.667    0.000   36.333 
#
# Total GULP energy -1785085.691569 kJ/mol
# GULP energy per Si atom -12396.428414 kJ/mol
# Density = 2.043784 g / cm^3
# Si number density = 20.484466 Si / 1000 Ang^3
#
#
#
# Elastic Constant Matrix: (Units=GPa)
#
#
# Indices 1 2 3 4 5 6 
#
# 1 104.2834 67.3070 38.1381 0.0000 0.0000 0.0000
# 2 67.3070 104.2834 38.1381 0.0000 0.0000 0.0000
# 3 38.1381 38.1381 83.6305 0.0000 0.0000 0.0000
# 4 0.0000 0.0000 0.0000 14.1099 0.0000 0.0000
# 5 0.0000 0.0000 0.0000 0.0000 14.1099 0.0000
# 6 0.0000 0.0000 0.0000 0.0000 0.0000 18.4882
#
#
#
# Elastic Compliance Matrix: (Units=1/GPa)
#
#
# Indices 1 2 3 4 5 6 
#
# 1 0.017177 -0.009867 -0.003333 0.000000 0.000000 0.000000
# 2 -0.009867 0.017177 -0.003333 0.000000 0.000000 0.000000
# 3 -0.003333 -0.003333 0.014998 0.000000 0.000000 0.000000
# 4 0.000000 0.000000 0.000000 0.070872 0.000000 0.000000
# 5 0.000000 0.000000 0.000000 0.000000 0.070872 0.000000
# 6 0.000000 0.000000 0.000000 0.000000 0.000000 0.054088
#
#
# Mechanical properties :
#
#
# Convention : Reuss Voigt Hill
#
# Bulk Modulus (GPa) = 61.41290 64.37374 62.89332
# Shear Modulus (GPa) = 17.62548 19.24922 18.43735
#
# Velocity S-wave (km/s) = 2.93649 3.06878 3.00336
# Velocity P-wave (km/s) = 6.44536 6.63705 6.54190
#
# Compressibility (1/GPa) = 0.01628322
#
# Stress axis : x y z
#
# Youngs Moduli (GPa) = 58.21761 58.21761 66.67715
#
# Poissons Ratio (x) = 0.57445 0.22226
# Poissons Ratio (y) = 0.57445 0.22226
# Poissons Ratio (z) = 0.19406 0.19406
#
# Static dielectric constant tensor:
#      x y z
#    x 3.787620 0.000000 0.000000 
#    y 0.000000 3.787620 0.000000 
#    z 0.000000 0.000000 3.348530 
# 
# 
# High freq. dielectric constant tensor:
#      x y z
#    x 1.808280 0.000000 0.000000 
#    y 0.000000 1.808280 0.000000 
#    z 0.000000 0.000000 1.752160 
# 
# From -- ./inp_files/6625.got.cif
#   From: 2010.03.12/outbox.cif.g09.slc.cpg/sg193_4_cif.got.tgz:6625.got - 2010.04.01 12:20:39.
