data_PCOD8330330
_publ_section_title
;
Structure prediction by ZEFSAII (Michael W. Deem and Ramdas Pophale) SiO2 
 PCOD8330330
Probable space group: P 63/M M C
;
_chemical_formula_sum "Si O2"
_cell_formula_units_Z 168
_cell_length_a 25.481683
_cell_length_b 25.481683
_cell_length_c 18.922021
_cell_angle_alpha 90.000000
_cell_angle_beta 90.000000
_cell_angle_gamma 120.000000
_cell_volume 10640.312157
_symmetry_space_group_name_H-M "P 63/M M C"
_symmetry_group_IT_number 194
_symmetry_cell_setting 'hexagonal'
loop_
_space_group_symop_operation_xyz
x,y,z
x-y,x,1/2+z
-y,x-y,z
-x,-y,1/2+z
-x+y,-x,z
y,-x+y,1/2+z
x-y,-y,-z
-x,-x+y,-z
y,x,-z
-y,-x,1/2-z
-x+y,y,1/2-z
x,x-y,1/2-z
-x,-y,-z
-x+y,-x,1/2-z
y,-x+y,-z
x,y,1/2-z
x-y,x,-z
-y,x-y,1/2-z
-x+y,y,z
x,x-y,z
-y,-x,z
y,x,1/2+z
x-y,-y,1/2+z
-x,-x+y,1/2+z
loop_
_atom_site_type_symbol
_atom_site_label
_atom_site_fract_x
_atom_site_fract_y
_atom_site_fract_z
Si Si1 0.210100 0.544893 0.465438
Si Si2 0.118414 0.000235 0.165907
Si Si3 0.698795 0.521930 0.827495
Si Si4 0.575356 0.725739 0.962564
Si Si5 0.761340 0.115947 0.328761
Si Si6 0.241628 0.232952 0.668490
Si Si7 0.356281 0.116283 0.600165
O O1 0.277200 0.554399 0.470107
O O2 0.212605 0.606303 0.488635
O O3 0.183503 0.527115 0.385703
O O4 0.163083 0.491756 0.517961
O O5 0.117972 0.002131 0.250000
O O6 0.122431 0.061216 0.135094
O O7 0.175831 0.995532 0.139644
O O8 0.057406 0.942595 0.137051
O O9 0.667326 0.505229 0.750000
O O10 0.760914 0.521828 0.825716
O O11 0.714404 0.589511 0.848276
O O12 0.570204 0.785102 0.964468
O O13 0.596074 0.715684 0.885419
O O14 0.625164 0.733876 0.020710
O O15 0.737284 0.117293 0.250000
O O16 0.828852 0.171149 0.340110
O O17 0.764848 0.056249 0.341075
O O18 0.253559 0.223316 0.750000
O O19 0.296118 0.240473 0.620420
O O20 0.344217 0.172109 0.606602
#
# Coordination Sequence:
#
# PCOD8330330 Si02
#       7
#    24  24  24  24  24  24  24
#     4   9  16  26  42  65  92 119 145 172 199 232
#     4   9  16  25  36  52  79 115 151 183 216 258
#     4   8  14  24  37  55  84 122 156 181 207 238
#     4   8  16  30  45  62  84 111 141 168 202 253
#     4   9  17  30  46  62  82 105 131 173 225 268
#     4  10  18  25  38  62  85 108 142 182 222 258
#     4   9  16  26  40  59  86 115 141 174 213 253
#
# _framework density 15.789009999999999
#
# number of rings (size 3 to 8) (size 9 to 14) (size 15 to 20)
#    0.000    3.143    0.000    3.286    0.000    4.571 
#    0.000    0.000    0.000    1.286    0.000    8.000 
#    0.000    5.714    0.000   10.857    0.000   12.286 
#
# Total GULP energy -2082170.026184 kJ/mol
# GULP energy per Si atom -12393.869203 kJ/mol
# Density = 1.575307 g / cm^3
# Si number density = 15.789010 Si / 1000 Ang^3
#
#
#
# Elastic Constant Matrix: (Units=GPa)
#
#
# Indices 1 2 3 4 5 6 
#
# 1 81.5295 45.4590 42.9807 0.0000 0.0000 0.0000
# 2 45.4590 81.5295 42.9807 0.0000 0.0000 0.0000
# 3 42.9807 42.9807 90.5457 0.0000 0.0000 0.0000
# 4 0.0000 0.0000 0.0000 15.8478 0.0000 0.0000
# 5 0.0000 0.0000 0.0000 0.0000 15.8478 0.0000
# 6 0.0000 0.0000 0.0000 0.0000 0.0000 18.0352
#
#
#
# Elastic Compliance Matrix: (Units=1/GPa)
#
#
# Indices 1 2 3 4 5 6 
#
# 1 0.019663 -0.008060 -0.005508 0.000000 0.000000 0.000000
# 2 -0.008060 0.019663 -0.005508 0.000000 0.000000 0.000000
# 3 -0.005508 -0.005508 0.016273 0.000000 0.000000 0.000000
# 4 0.000000 0.000000 0.000000 0.063100 0.000000 0.000000
# 5 0.000000 0.000000 0.000000 0.000000 0.063100 0.000000
# 6 0.000000 0.000000 0.000000 0.000000 0.000000 0.055447
#
#
# Mechanical properties :
#
#
# Convention : Reuss Voigt Hill
#
# Bulk Modulus (GPa) = 57.31307 57.38284 57.34796
# Shear Modulus (GPa) = 17.78000 18.09179 17.93589
#
# Velocity S-wave (km/s) = 3.35938 3.38871 3.37408
# Velocity P-wave (km/s) = 7.17115 7.19260 7.18189
#
# Compressibility (1/GPa) = 0.01744803
#
# Stress axis : x y z
#
# Youngs Moduli (GPa) = 50.85614 50.85614 61.45110
#
# Poissons Ratio (x) = 0.40991 0.33846
# Poissons Ratio (y) = 0.40991 0.33846
# Poissons Ratio (z) = 0.28011 0.28011
#
# Static dielectric constant tensor:
#      x y z
#    x 2.849850 0.000000 0.000000 
#    y 0.000000 2.849850 0.000000 
#    z 0.000000 0.000000 3.246480 
# 
# 
# High freq. dielectric constant tensor:
#      x y z
#    x 1.586500 0.000000 0.000000 
#    y 0.000000 1.586500 0.000000 
#    z 0.000000 0.000000 1.592400 
# 
# From -- ./inp_files/8550.got.cif
#   From: 2010.03.12/outbox.cif.g09.slc.cpg/sg194_5_cif.got.tgz:8550.got - 2010.04.01 12:26:19.
