data_PCOD8330390
_publ_section_title
;
Structure prediction by ZEFSAII (Michael W. Deem and Ramdas Pophale) SiO2 
 PCOD8330390
Probable space group: P 63/M M C
;
_chemical_formula_sum "Si O2"
_cell_formula_units_Z 144
_cell_length_a 21.824475
_cell_length_b 21.824475
_cell_length_c 21.997566
_cell_angle_alpha 90.000000
_cell_angle_beta 90.000000
_cell_angle_gamma 120.000000
_cell_volume 9073.876661
_symmetry_space_group_name_H-M "P 63/M M C"
_symmetry_group_IT_number 194
_symmetry_cell_setting 'hexagonal'
loop_
_space_group_symop_operation_xyz
x,y,z
x-y,x,1/2+z
-y,x-y,z
-x,-y,1/2+z
-x+y,-x,z
y,-x+y,1/2+z
x-y,-y,-z
-x,-x+y,-z
y,x,-z
-y,-x,1/2-z
-x+y,y,1/2-z
x,x-y,1/2-z
-x,-y,-z
-x+y,-x,1/2-z
y,-x+y,-z
x,y,1/2-z
x-y,x,-z
-y,x-y,1/2-z
-x+y,y,z
x,x-y,z
-y,-x,z
y,x,1/2+z
x-y,-y,1/2+z
-x,-x+y,1/2+z
loop_
_atom_site_type_symbol
_atom_site_label
_atom_site_fract_x
_atom_site_fract_y
_atom_site_fract_z
Si Si1 0.929083 0.205753 0.474633
Si Si2 0.488582 0.176744 0.250000
Si Si3 0.488169 0.376860 0.371961
Si Si4 0.810889 0.333258 0.495797
Si Si5 0.679336 0.909576 0.750000
Si Si6 0.327113 0.016390 0.364463
Si Si7 0.607513 0.736275 0.422014
O O1 0.874078 0.125923 0.453193
O O2 0.948351 0.260730 0.421176
O O3 0.894211 0.229368 0.525686
O O4 0.000000 0.208411 0.500000
O O5 0.521361 0.260681 0.250000
O O6 0.515890 0.158367 0.188841
O O7 0.404252 0.137940 0.250000
O O8 0.539912 0.460089 0.384969
O O9 0.490711 0.332269 0.429275
O O10 0.410524 0.363915 0.359963
O O11 0.811768 0.405884 0.509129
O O12 0.731047 0.268954 0.498432
O O13 0.858366 0.324047 0.547783
O O14 0.711278 0.855639 0.750000
O O15 0.704884 0.962342 0.807565
O O16 0.294058 0.931770 0.370280
O O17 0.596117 0.798059 0.392666
#
# Coordination Sequence:
#
# PCOD8330390 Si02
#       7
#    24  12  24  24  12  24  24
#     4   9  16  27  45  66  88 115 147 181 217 264
#     4   9  17  29  43  58  82 121 160 190 228 281
#     4  10  19  28  42  63  89 120 158 203 247 289
#     4  10  19  30  44  63  88 120 159 205 252 295
#     4   9  18  29  46  70  93 115 143 180 220 273
#     4  10  18  30  46  67  91 121 152 186 232 279
#     4   9  18  31  46  64  89 120 155 191 232 280
#
# _framework density 15.869733999999999
#
# number of rings (size 3 to 8) (size 9 to 14) (size 15 to 20)
#    0.000    2.500    1.667    1.417    0.000    2.000 
#    0.000    2.083    0.000    2.500    0.000    0.000 
#    0.000    0.000    0.000    3.833    0.000    1.333 
#
# Total GULP energy -1784628.402299 kJ/mol
# GULP energy per Si atom -12393.252794 kJ/mol
# Density = 1.583361 g / cm^3
# Si number density = 15.869734 Si / 1000 Ang^3
#
#
#
# Elastic Constant Matrix: (Units=GPa)
#
#
# Indices 1 2 3 4 5 6 
#
# 1 81.0718 47.3548 31.4282 0.0000 0.0000 0.0000
# 2 47.3548 81.0718 31.4282 0.0000 0.0000 0.0000
# 3 31.4282 31.4282 59.3640 0.0000 0.0000 0.0000
# 4 0.0000 0.0000 0.0000 19.5857 0.0000 0.0000
# 5 0.0000 0.0000 0.0000 0.0000 19.5857 0.0000
# 6 0.0000 0.0000 0.0000 0.0000 0.0000 16.8585
#
#
#
# Elastic Compliance Matrix: (Units=1/GPa)
#
#
# Indices 1 2 3 4 5 6 
#
# 1 0.020084 -0.009574 -0.005564 0.000000 0.000000 0.000000
# 2 -0.009574 0.020084 -0.005564 0.000000 0.000000 0.000000
# 3 -0.005564 -0.005564 0.022737 0.000000 0.000000 0.000000
# 4 0.000000 0.000000 0.000000 0.051058 0.000000 0.000000
# 5 0.000000 0.000000 0.000000 0.000000 0.051058 0.000000
# 6 0.000000 0.000000 0.000000 0.000000 0.000000 0.059317
#
#
# Mechanical properties :
#
#
# Convention : Reuss Voigt Hill
#
# Bulk Modulus (GPa) = 46.51163 49.10335 47.80749
# Shear Modulus (GPa) = 18.32110 18.62573 18.47342
#
# Velocity S-wave (km/s) = 3.40143 3.42959 3.41554
# Velocity P-wave (km/s) = 6.69316 6.83312 6.76350
#
# Compressibility (1/GPa) = 0.02150000
#
# Stress axis : x y z
#
# Youngs Moduli (GPa) = 49.79041 49.79041 43.98196
#
# Poissons Ratio (x) = 0.47671 0.24472
# Poissons Ratio (y) = 0.47671 0.24472
# Poissons Ratio (z) = 0.27704 0.27704
#
# Static dielectric constant tensor:
#      x y z
#    x 3.118560 0.000000 0.000000 
#    y 0.000000 3.118560 0.000000 
#    z 0.000000 0.000000 3.012270 
# 
# 
# High freq. dielectric constant tensor:
#      x y z
#    x 1.599010 0.000000 0.000000 
#    y 0.000000 1.599010 0.000000 
#    z 0.000000 0.000000 1.593730 
# 
# From -- ./inp_files/8522.got.cif
#   From: 2010.03.12/outbox.cif.g09.slc.cpg/sg194_5_cif.got.tgz:8522.got - 2010.04.01 12:26:19.
