data_PCOD8330454
_publ_section_title
;
Structure prediction by ZEFSAII (Michael W. Deem and Ramdas Pophale) SiO2 
 PCOD8330454
Probable space group: P 63/M M C
;
_chemical_formula_sum "Si O2"
_cell_formula_units_Z 108
_cell_length_a 31.328951
_cell_length_b 31.328951
_cell_length_c 7.850398
_cell_angle_alpha 90.000000
_cell_angle_beta 90.000000
_cell_angle_gamma 120.000000
_cell_volume 6672.890739
_symmetry_space_group_name_H-M "P 63/M M C"
_symmetry_group_IT_number 194
_symmetry_cell_setting 'hexagonal'
loop_
_space_group_symop_operation_xyz
x,y,z
x-y,x,1/2+z
-y,x-y,z
-x,-y,1/2+z
-x+y,-x,z
y,-x+y,1/2+z
x-y,-y,-z
-x,-x+y,-z
y,x,-z
-y,-x,1/2-z
-x+y,y,1/2-z
x,x-y,1/2-z
-x,-y,-z
-x+y,-x,1/2-z
y,-x+y,-z
x,y,1/2-z
x-y,x,-z
-y,x-y,1/2-z
-x+y,y,z
x,x-y,z
-y,-x,z
y,x,1/2+z
x-y,-y,1/2+z
-x,-x+y,1/2+z
loop_
_atom_site_type_symbol
_atom_site_label
_atom_site_fract_x
_atom_site_fract_y
_atom_site_fract_z
Si Si1 0.052972 0.296784 0.950587
Si Si2 0.201017 0.053094 0.049344
Si Si3 0.242856 0.852023 0.951717
Si Si4 0.801005 0.500334 0.440373
Si Si5 0.232264 0.566180 0.250000
O O1 0.058533 0.297708 0.750000
O O2 0.057892 0.251343 0.027124
O O3 0.095984 0.348347 0.028033
O O4 0.000000 0.290028 0.000000
O O5 0.205484 0.058409 0.250000
O O6 0.193171 0.096586 0.971898
O O7 0.154756 0.000000 0.000000
O O8 0.237392 0.851251 0.750000
O O9 0.191950 0.808051 0.029901
O O10 0.288658 0.843735 0.996947
O O11 0.811259 0.486565 0.250000
O O12 0.750435 0.500870 0.435545
O O13 0.798420 0.461588 0.580252
O O14 0.284658 0.569315 0.250000
O O15 0.241436 0.620718 0.250000
#
# Coordination Sequence:
#
# PCOD8330454 Si02
#       5
#    24  24  24  24  12
#     4   9  16  26  39  58  85 112 135 166 203 249
#     4   9  17  28  42  59  79 105 136 167 205 251
#     4   8  13  24  43  60  77 110 147 173 203 247
#     4   8  15  28  44  62  84 113 149 185 217 252
#     4  10  19  30  44  64  92 122 150 180 217 256
#
# _framework density 16.184889999999999
#
# number of rings (size 3 to 8) (size 9 to 14) (size 15 to 20)
#    0.000    3.333    0.000    2.111    0.000    3.556 
#    2.000    0.000    0.000    2.889    0.000    0.000 
#    0.000    0.889    0.444    0.000    0.000    0.000 
#
# Total GULP energy -1338287.489750 kJ/mol
# GULP energy per Si atom -12391.550831 kJ/mol
# Density = 1.614805 g / cm^3
# Si number density = 16.184890 Si / 1000 Ang^3
#
#
#
# Elastic Constant Matrix: (Units=GPa)
#
#
# Indices 1 2 3 4 5 6 
#
# 1 86.9287 40.3811 27.9090 0.0000 0.0000 0.0000
# 2 40.3811 86.9287 27.9090 0.0000 0.0000 0.0000
# 3 27.9090 27.9090 47.8612 0.0000 0.0000 0.0000
# 4 0.0000 0.0000 0.0000 17.2391 0.0000 0.0000
# 5 0.0000 0.0000 0.0000 0.0000 17.2391 0.0000
# 6 0.0000 0.0000 0.0000 0.0000 0.0000 23.2738
#
#
#
# Elastic Compliance Matrix: (Units=1/GPa)
#
#
# Indices 1 2 3 4 5 6 
#
# 1 0.016018 -0.005465 -0.006154 0.000000 0.000000 0.000000
# 2 -0.005465 0.016018 -0.006154 0.000000 0.000000 0.000000
# 3 -0.006154 -0.006154 0.028070 0.000000 0.000000 0.000000
# 4 0.000000 0.000000 0.000000 0.058008 0.000000 0.000000
# 5 0.000000 0.000000 0.000000 0.000000 0.058008 0.000000
# 6 0.000000 0.000000 0.000000 0.000000 0.000000 0.042967
#
#
# Mechanical properties :
#
#
# Convention : Reuss Voigt Hill
#
# Bulk Modulus (GPa) = 40.71392 46.01297 43.36344
# Shear Modulus (GPa) = 19.02436 19.91837 19.47137
#
# Velocity S-wave (km/s) = 3.43219 3.51191 3.47228
# Velocity P-wave (km/s) = 6.39661 6.70343 6.55182
#
# Compressibility (1/GPa) = 0.02456162
#
# Stress axis : x y z
#
# Youngs Moduli (GPa) = 62.42928 62.42928 35.62475
#
# Poissons Ratio (x) = 0.34119 0.21922
# Poissons Ratio (y) = 0.34119 0.21922
# Poissons Ratio (z) = 0.38417 0.38417
#
# Static dielectric constant tensor:
#      x y z
#    x 3.102240 0.000000 0.000000 
#    y 0.000000 3.102240 0.000000 
#    z 0.000000 0.000000 3.007970 
# 
# 
# High freq. dielectric constant tensor:
#      x y z
#    x 1.595140 0.000000 0.000000 
#    y 0.000000 1.595140 0.000000 
#    z 0.000000 0.000000 1.614290 
# 
# From -- ./inp_files/1836.got.cif
#   From: 2010.03.12/outbox.cif.g09.slc.cpg/sg194_1_cif.got.tgz:1836.got - 2010.04.01 12:26:19.
