data_PCOD8330246
_publ_section_title
;
Structure prediction by ZEFSAII (Michael W. Deem and Ramdas Pophale) SiO2 
 PCOD8330246
Probable space group: P 63/M C M
;
_chemical_formula_sum "Si O2"
_cell_formula_units_Z 72
_cell_length_a 22.847868
_cell_length_b 22.847868
_cell_length_c 8.942788
_cell_angle_alpha 90.000000
_cell_angle_beta 90.000000
_cell_angle_gamma 120.000000
_cell_volume 4042.917965
_symmetry_space_group_name_H-M "P 63/M C M"
_symmetry_group_IT_number 193
_symmetry_cell_setting 'hexagonal'
loop_
_space_group_symop_operation_xyz
x,y,z
x-y,x,1/2+z
-y,x-y,z
-x,-y,1/2+z
-x+y,-x,z
y,-x+y,1/2+z
x-y,-y,1/2-z
-x,-x+y,1/2-z
y,x,1/2-z
-y,-x,-z
-x+y,y,-z
x,x-y,-z
-x,-y,-z
-x+y,-x,1/2-z
y,-x+y,-z
x,y,1/2-z
x-y,x,-z
-y,x-y,1/2-z
-x+y,y,1/2+z
x,x-y,1/2+z
-y,-x,1/2+z
y,x,z
x-y,-y,z
-x,-x+y,z
loop_
_atom_site_type_symbol
_atom_site_label
_atom_site_fract_x
_atom_site_fract_y
_atom_site_fract_z
Si Si1 0.877606 0.877606 0.080045
Si Si2 0.128525 0.746813 0.426872
Si Si3 0.739242 0.000000 0.578805
Si Si4 0.076498 0.596165 0.424491
O O1 0.900013 0.900013 0.250000
O O2 0.808422 0.808422 0.071578
O O3 0.933834 0.867668 0.000000
O O4 0.197579 0.802422 0.500000
O O5 0.129567 0.758594 0.250000
O O6 0.066107 0.750414 0.494623
O O7 0.121573 0.674734 0.465914
O O8 0.716906 0.000000 0.750000
O O9 0.107911 0.553956 0.500000
O O10 0.076086 0.584717 0.250000
O O11 0.000000 0.569046 0.482790
#
# Coordination Sequence:
#
# PCOD8330246 Si02
#       4
#    12  24  12  24
#     4  11  24  40  57  76  99 132 177 227 278 329
#     4  11  22  37  56  83 118 152 187 231 280 332
#     4  11  23  38  57  82 109 146 188 229 284 339
#     4   9  18  34  55  81 111 143 179 225 275 323
#
# _framework density 17.808920000000001
#
# number of rings (size 3 to 8) (size 9 to 14) (size 15 to 20)
#    0.000    1.667    1.667    3.167    0.000    8.000 
#    0.000    0.000    0.000    0.667    0.000    0.000 
#    0.000    0.000    0.000    0.000    0.000    0.000 
#
# Total GULP energy -892964.614452 kJ/mol
# GULP energy per Si atom -12402.286312 kJ/mol
# Density = 1.776839 g / cm^3
# Si number density = 17.808920 Si / 1000 Ang^3
#
#
#
# Elastic Constant Matrix: (Units=GPa)
#
#
# Indices 1 2 3 4 5 6 
#
# 1 126.2725 68.0559 67.2302 0.0000 0.0000 0.0000
# 2 68.0559 126.2725 67.2302 0.0000 0.0000 0.0000
# 3 67.2302 67.2302 113.8978 0.0000 0.0000 0.0000
# 4 0.0000 0.0000 0.0000 34.6961 0.0000 0.0000
# 5 0.0000 0.0000 0.0000 0.0000 34.6961 0.0000
# 6 0.0000 0.0000 0.0000 0.0000 0.0000 29.1083
#
#
#
# Elastic Compliance Matrix: (Units=1/GPa)
#
#
# Indices 1 2 3 4 5 6 
#
# 1 0.012938 -0.004239 -0.005135 0.000000 0.000000 0.000000
# 2 -0.004239 0.012938 -0.005135 0.000000 0.000000 0.000000
# 3 -0.005135 -0.005135 0.014841 0.000000 0.000000 0.000000
# 4 0.000000 0.000000 0.000000 0.028822 0.000000 0.000000
# 5 0.000000 0.000000 0.000000 0.000000 0.028822 0.000000
# 6 0.000000 0.000000 0.000000 0.000000 0.000000 0.034354
#
#
# Mechanical properties :
#
#
# Convention : Reuss Voigt Hill
#
# Bulk Modulus (GPa) = 85.46675 85.71949 85.59312
# Shear Modulus (GPa) = 30.18742 30.62852 30.40797
#
# Velocity S-wave (km/s) = 4.12159 4.15160 4.13662
# Velocity P-wave (km/s) = 8.41102 8.43910 8.42507
#
# Compressibility (1/GPa) = 0.01170046
#
# Stress axis : x y z
#
# Youngs Moduli (GPa) = 77.29210 77.29210 67.37954
#
# Poissons Ratio (x) = 0.32766 0.34596
# Poissons Ratio (y) = 0.32766 0.34596
# Poissons Ratio (z) = 0.39686 0.39686
#
# Static dielectric constant tensor:
#      x y z
#    x 3.241860 0.000000 0.000000 
#    y 0.000000 3.241860 0.000000 
#    z 0.000000 0.000000 3.526040 
# 
# 
# High freq. dielectric constant tensor:
#      x y z
#    x 1.686330 0.000000 0.000000 
#    y 0.000000 1.686330 0.000000 
#    z 0.000000 0.000000 1.703540 
# 
# From -- ./inp_files/790.got.cif
#   From: 2010.03.12/outbox.cif.g09.slc.cpg/sg193_1_cif.got.tgz:790.got - 2010.04.01 12:20:39.
