data_PCOD8330960
_publ_section_title
;
Structure prediction by ZEFSAII (Michael W. Deem and Ramdas Pophale) SiO2 
 PCOD8330960
Probable space group: P A 3
;
_chemical_formula_sum "Si O2"
_cell_formula_units_Z 120
_cell_length_a 18.046439
_cell_length_b 18.046439
_cell_length_c 18.046439
_cell_angle_alpha 90.000000
_cell_angle_beta 90.000000
_cell_angle_gamma 90.000000
_cell_volume 5877.255264
_symmetry_space_group_name_H-M "P A 3"
_symmetry_group_IT_number 205
_symmetry_cell_setting 'cubic'
loop_
_space_group_symop_operation_xyz
x,y,z
z,x,y
y,z,x
1/2-y,-z,1/2+x
1/2+z,1/2-x,-y
-y,1/2+z,1/2-x
1/2-z,-x,1/2+y
-z,1/2+x,1/2-y
1/2+y,1/2-z,-x
1/2-x,-y,1/2+z
1/2+x,1/2-y,-z
-x,1/2+y,1/2-z
-x,-y,-z
-z,-x,-y
-y,-z,-x
1/2+y,z,1/2-x
1/2-z,1/2+x,y
y,1/2-z,1/2+x
1/2+z,x,1/2-y
z,1/2-x,1/2+y
1/2-y,1/2+z,x
1/2+x,y,1/2-z
1/2-x,1/2+y,z
x,1/2-y,1/2+z
loop_
_atom_site_type_symbol
_atom_site_label
_atom_site_fract_x
_atom_site_fract_y
_atom_site_fract_z
Si Si1 0.109082 0.773940 0.507919
Si Si2 0.966569 0.114398 0.391098
Si Si3 0.226060 0.507919 0.609082
Si Si4 0.750000 0.377985 1.000000
Si Si5 0.533431 0.385602 0.108902
O O1 0.048095 0.812207 0.560826
O O2 0.179511 0.825938 0.505909
O O3 0.133612 0.695435 0.542088
O O4 0.073315 0.761095 0.427438
O O5 0.957912 0.133612 0.304565
O O6 0.049681 0.086399 0.409155
O O7 0.174062 0.505909 0.679511
O O8 0.238905 0.427438 0.573315
O O9 0.187793 0.560826 0.548095
O O10 0.450319 0.413601 0.090845
#
# Coordination Sequence:
#
# PCOD8330960 Si02
#       5
#    24  24  24  24  24
#     4  12  25  43  68 100 135 178 223 286 337 420
#     4  12  23  43  71 101 135 177 231 283 345 413
#     4  12  25  43  68 100 135 178 223 286 337 420
#     4  12  26  44  68  98 140 176 232 282 356 408
#     4  12  23  43  71 101 135 177 231 283 345 413
#
# _framework density 20.417693
#
# number of rings (size 3 to 8) (size 9 to 14) (size 15 to 20)
#    0.000    0.000    8.000    1.200    5.600    0.000 
#    0.000    0.000    0.000    3.200    0.000    0.000 
#    0.000    0.000    0.000    0.000    0.000    0.000 
#
# Total GULP energy -1488702.820572 kJ/mol
# GULP energy per Si atom -12405.856838 kJ/mol
# Density = 2.037122 g / cm^3
# Si number density = 20.417693 Si / 1000 Ang^3
#
#
#
# Elastic Constant Matrix: (Units=GPa)
#
#
# Indices 1 2 3 4 5 6 
#
# 1 129.6756 50.8609 50.8609 0.0000 0.0000 0.0000
# 2 50.8609 129.6756 50.8609 0.0000 0.0000 0.0000
# 3 50.8609 50.8609 129.6756 0.0000 0.0000 0.0000
# 4 0.0000 0.0000 0.0000 34.7765 0.0000 0.0000
# 5 0.0000 0.0000 0.0000 0.0000 34.7765 0.0000
# 6 0.0000 0.0000 0.0000 0.0000 0.0000 34.7765
#
#
#
# Elastic Compliance Matrix: (Units=1/GPa)
#
#
# Indices 1 2 3 4 5 6 
#
# 1 0.009899 -0.002789 -0.002789 0.000000 0.000000 0.000000
# 2 -0.002789 0.009899 -0.002789 0.000000 0.000000 0.000000
# 3 -0.002789 -0.002789 0.009899 0.000000 0.000000 0.000000
# 4 0.000000 0.000000 0.000000 0.028755 0.000000 0.000000
# 5 0.000000 0.000000 0.000000 0.000000 0.028755 0.000000
# 6 0.000000 0.000000 0.000000 0.000000 0.000000 0.028755
#
#
# Mechanical properties :
#
#
# Convention : Reuss Voigt Hill
#
# Bulk Modulus (GPa) = 77.13245 77.13245 77.13245
# Shear Modulus (GPa) = 36.49177 36.62882 36.56029
#
# Velocity S-wave (km/s) = 4.23219 4.24013 4.23616
# Velocity P-wave (km/s) = 7.85755 7.86326 7.86041
#
# Compressibility (1/GPa) = 0.01296471
#
# Stress axis : x y z
#
# Youngs Moduli (GPa) = 101.01844 101.01844 101.01844
#
# Poissons Ratio (x) = 0.28172 0.28172
# Poissons Ratio (y) = 0.28172 0.28172
# Poissons Ratio (z) = 0.28172 0.28172
#
# Static dielectric constant tensor:
#      x y z
#    x 3.738220 0.000000 0.000000 
#    y 0.000000 3.738220 0.000000 
#    z 0.000000 0.000000 3.738220 
# 
# 
# High freq. dielectric constant tensor:
#      x y z
#    x 1.804750 0.000000 0.000000 
#    y 0.000000 1.804750 0.000000 
#    z 0.000000 0.000000 1.804750 
# 
# From -- ./inp_files/463.got.cif
#   From: 2010.03.12/outbox.cif.g09.slc.cpg/sg205_cif.got.tgz:463.got - 2010.03.30 09:02:58.
