data_PCOD8330019
_publ_section_title
;
Structure prediction by ZEFSAII (Michael W. Deem and Ramdas Pophale) SiO2 
 PCOD8330019
Probable space group: P 63/M C M
;
_chemical_formula_sum "Si O2"
_cell_formula_units_Z 144
_cell_length_a 32.357463
_cell_length_b 32.357463
_cell_length_c 8.503248
_cell_angle_alpha 90.000000
_cell_angle_beta 90.000000
_cell_angle_gamma 120.000000
_cell_volume 7710.177988
_symmetry_space_group_name_H-M "P 63/M C M"
_symmetry_group_IT_number 193
_symmetry_cell_setting 'hexagonal'
loop_
_space_group_symop_operation_xyz
x,y,z
x-y,x,1/2+z
-y,x-y,z
-x,-y,1/2+z
-x+y,-x,z
y,-x+y,1/2+z
x-y,-y,1/2-z
-x,-x+y,1/2-z
y,x,1/2-z
-y,-x,-z
-x+y,y,-z
x,x-y,-z
-x,-y,-z
-x+y,-x,1/2-z
y,-x+y,-z
x,y,1/2-z
x-y,x,-z
-y,x-y,1/2-z
-x+y,y,1/2+z
x,x-y,1/2+z
-y,-x,1/2+z
y,x,z
x-y,-y,z
-x,-x+y,z
loop_
_atom_site_type_symbol
_atom_site_label
_atom_site_fract_x
_atom_site_fract_y
_atom_site_fract_z
Si Si1 0.141163 0.615188 0.933561
Si Si2 0.653035 0.706535 0.428294
Si Si3 0.575054 0.332973 0.435814
Si Si4 0.054204 0.193614 0.068486
Si Si5 0.946007 0.380180 0.931408
Si Si6 0.192098 0.897393 0.934554
O O1 0.151492 0.617683 0.750000
O O2 0.129025 0.564513 0.000000
O O3 0.189490 0.657022 0.013735
O O4 0.094315 0.618781 0.963869
O O5 0.633388 0.697757 0.250000
O O6 0.697868 0.697868 0.441712
O O7 0.611772 0.671345 0.545022
O O8 0.669320 0.759643 0.478742
O O9 0.625697 0.374303 0.500000
O O10 0.563393 0.281697 0.500000
O O11 0.577992 0.332530 0.250000
O O12 0.067333 0.208256 0.250000
O O13 0.000000 0.152484 0.046527
O O14 0.086418 0.172835 0.000000
O O15 0.063569 0.240326 0.973866
O O16 0.937249 0.386870 0.750000
O O17 0.000000 0.420895 0.982315
O O18 0.198737 0.895660 0.750000
O O19 0.153626 0.846375 0.000000
#
# Coordination Sequence:
#
# PCOD8330019 Si02
#       6
#    24  24  24  24  24  24
#     4  11  22  38  59  84 114 148 185 228 278 325
#     4  10  20  35  55  78 105 137 173 214 259 309
#     4  11  21  36  57  84 116 150 188 228 273 323
#     4  10  20  33  50  73 100 130 165 207 255 307
#     4  10  21  38  59  83 110 142 182 225 270 322
#     4  11  21  33  51  75 104 137 172 211 256 306
#
# _framework density 18.676611999999999
#
# number of rings (size 3 to 8) (size 9 to 14) (size 15 to 20)
#    0.000    1.500    0.000    8.667    0.000    5.667 
#    0.000    0.833    0.000    0.167    0.000    0.000 
#    0.000    0.000    0.000    0.000    0.000    0.000 
#
# Total GULP energy -1785882.848977 kJ/mol
# GULP energy per Si atom -12401.964229 kJ/mol
# Density = 1.863410 g / cm^3
# Si number density = 18.676612 Si / 1000 Ang^3
#
#
#
# Elastic Constant Matrix: (Units=GPa)
#
#
# Indices 1 2 3 4 5 6 
#
# 1 100.0052 50.8353 31.3322 0.0000 0.0000 0.0000
# 2 50.8353 100.0052 31.3322 0.0000 0.0000 0.0000
# 3 31.3322 31.3322 115.1046 0.0000 0.0000 0.0000
# 4 0.0000 0.0000 0.0000 30.3671 0.0000 0.0000
# 5 0.0000 0.0000 0.0000 0.0000 30.3671 0.0000
# 6 0.0000 0.0000 0.0000 0.0000 0.0000 24.5849
#
#
#
# Elastic Compliance Matrix: (Units=1/GPa)
#
#
# Indices 1 2 3 4 5 6 
#
# 1 0.013906 -0.006431 -0.002035 0.000000 0.000000 0.000000
# 2 -0.006431 0.013906 -0.002035 0.000000 0.000000 0.000000
# 3 -0.002035 -0.002035 0.009795 0.000000 0.000000 0.000000
# 4 0.000000 0.000000 0.000000 0.032930 0.000000 0.000000
# 5 0.000000 0.000000 0.000000 0.000000 0.032930 0.000000
# 6 0.000000 0.000000 0.000000 0.000000 0.000000 0.040675
#
#
# Mechanical properties :
#
#
# Convention : Reuss Voigt Hill
#
# Bulk Modulus (GPa) = 60.21806 60.23491 60.22648
# Shear Modulus (GPa) = 29.29440 30.50484 29.89962
#
# Velocity S-wave (km/s) = 3.96474 4.04582 4.00548
# Velocity P-wave (km/s) = 7.29872 7.35842 7.32863
#
# Compressibility (1/GPa) = 0.01660631
#
# Stress axis : x y z
#
# Youngs Moduli (GPa) = 71.91024 71.91024 102.08812
#
# Poissons Ratio (x) = 0.46249 0.20772
# Poissons Ratio (y) = 0.46249 0.20772
# Poissons Ratio (z) = 0.14631 0.14631
#
# Static dielectric constant tensor:
#      x y z
#    x 3.350870 0.000000 0.000000 
#    y 0.000000 3.350870 0.000000 
#    z 0.000000 0.000000 3.655260 
# 
# 
# High freq. dielectric constant tensor:
#      x y z
#    x 1.717860 0.000000 0.000000 
#    y 0.000000 1.717860 0.000000 
#    z 0.000000 0.000000 1.746840 
# 
# From -- ./inp_files/1560.got.cif
#   From: 2010.03.12/outbox.cif.g09.slc.cpg/sg193_1_cif.got.tgz:1560.got - 2010.04.01 12:20:39.
