data_PCOD8330703
_publ_section_title
;
Structure prediction by ZEFSAII (Michael W. Deem and Ramdas Pophale) SiO2 
 PCOD8330703
Probable space group: P 63/M M C
;
_chemical_formula_sum "Si O2"
_cell_formula_units_Z 144
_cell_length_a 21.891907
_cell_length_b 21.891907
_cell_length_c 18.404648
_cell_angle_alpha 90.000000
_cell_angle_beta 90.000000
_cell_angle_gamma 120.000000
_cell_volume 7638.803466
_symmetry_space_group_name_H-M "P 63/M M C"
_symmetry_group_IT_number 194
_symmetry_cell_setting 'hexagonal'
loop_
_space_group_symop_operation_xyz
x,y,z
x-y,x,1/2+z
-y,x-y,z
-x,-y,1/2+z
-x+y,-x,z
y,-x+y,1/2+z
x-y,-y,-z
-x,-x+y,-z
y,x,-z
-y,-x,1/2-z
-x+y,y,1/2-z
x,x-y,1/2-z
-x,-y,-z
-x+y,-x,1/2-z
y,-x+y,-z
x,y,1/2-z
x-y,x,-z
-y,x-y,1/2-z
-x+y,y,z
x,x-y,z
-y,-x,z
y,x,1/2+z
x-y,-y,1/2+z
-x,-x+y,1/2+z
loop_
_atom_site_type_symbol
_atom_site_label
_atom_site_fract_x
_atom_site_fract_y
_atom_site_fract_z
Si Si1 0.135774 0.000349 0.336930
Si Si2 0.000591 0.269000 0.166577
Si Si3 0.465201 0.068227 0.046730
Si Si4 0.334251 0.805548 0.063350
Si Si5 0.271244 0.403477 0.167077
Si Si6 0.866090 0.275711 0.166156
O O1 0.139168 0.002849 0.250000
O O2 0.062816 0.937184 0.365565
O O3 0.143494 0.071747 0.368623
O O4 0.198287 0.990732 0.370477
O O5 0.024366 0.276100 0.250000
O O6 0.918645 0.244925 0.159990
O O7 0.057322 0.344683 0.131481
O O8 0.524498 0.048995 0.072173
O O9 0.440116 0.093927 0.117207
O O10 0.500264 0.138319 0.000043
O O11 0.405630 0.000000 0.000000
O O12 0.392395 0.784789 0.086052
O O13 0.264128 0.735873 0.036488
O O14 0.319952 0.841046 0.131791
O O15 0.294288 0.416703 0.250000
O O16 0.188521 0.377042 0.155927
O O17 0.862125 0.297134 0.250000
O O18 0.787040 0.212961 0.141641
#
# Coordination Sequence:
#
# PCOD8330703 Si02
#       6
#    24  24  24  24  24  24
#     4   9  15  22  34  55  86 124 163 199 234 275
#     4   9  16  27  43  64  93 128 164 204 251 300
#     4  10  21  37  56  78 104 135 173 217 268 328
#     4  10  20  34  52  73  99 132 169 210 258 315
#     4   9  17  29  46  70 100 135 175 216 258 305
#     4  10  20  34  54  80 108 138 174 218 270 327
#
# _framework density 18.851120000000002
#
# number of rings (size 3 to 8) (size 9 to 14) (size 15 to 20)
#    0.000    2.500    0.000    2.833    0.000    5.333 
#    0.000    0.000    0.000    7.333    0.000    0.000 
#    0.000    0.000    0.000    0.000    0.000   30.667 
#
# Total GULP energy -1783905.338781 kJ/mol
# GULP energy per Si atom -12388.231519 kJ/mol
# Density = 1.880821 g / cm^3
# Si number density = 18.851120 Si / 1000 Ang^3
#
#
#
# Elastic Constant Matrix: (Units=GPa)
#
#
# Indices 1 2 3 4 5 6 
#
# 1 115.7124 47.8780 35.6842 0.0000 0.0000 0.0000
# 2 47.8780 115.7124 35.6842 0.0000 0.0000 0.0000
# 3 35.6842 35.6842 53.6080 0.0000 0.0000 0.0000
# 4 0.0000 0.0000 0.0000 21.4814 0.0000 0.0000
# 5 0.0000 0.0000 0.0000 0.0000 21.4814 0.0000
# 6 0.0000 0.0000 0.0000 0.0000 0.0000 33.9172
#
#
#
# Elastic Compliance Matrix: (Units=1/GPa)
#
#
# Indices 1 2 3 4 5 6 
#
# 1 0.011678 -0.003064 -0.005734 0.000000 0.000000 0.000000
# 2 -0.003064 0.011678 -0.005734 0.000000 0.000000 0.000000
# 3 -0.005734 -0.005734 0.026288 0.000000 0.000000 0.000000
# 4 0.000000 0.000000 0.000000 0.046552 0.000000 0.000000
# 5 0.000000 0.000000 0.000000 0.000000 0.046552 0.000000
# 6 0.000000 0.000000 0.000000 0.000000 0.000000 0.029484
#
#
# Mechanical properties :
#
#
# Convention : Reuss Voigt Hill
#
# Bulk Modulus (GPa) = 48.59100 58.16951 53.38025
# Shear Modulus (GPa) = 24.02048 26.42842 25.22445
#
# Velocity S-wave (km/s) = 3.57349 3.74833 3.66196
# Velocity P-wave (km/s) = 6.54665 7.04682 6.80133
#
# Compressibility (1/GPa) = 0.02057994
#
# Stress axis : x y z
#
# Youngs Moduli (GPa) = 85.63029 85.63029 38.04037
#
# Poissons Ratio (x) = 0.26234 0.21813
# Poissons Ratio (y) = 0.26234 0.21813
# Poissons Ratio (z) = 0.49102 0.49102
#
# Static dielectric constant tensor:
#      x y z
#    x 3.661180 0.000000 0.000000 
#    y 0.000000 3.661180 0.000000 
#    z 0.000000 0.000000 3.095230 
# 
# 
# High freq. dielectric constant tensor:
#      x y z
#    x 1.742020 0.000000 0.000000 
#    y 0.000000 1.742020 0.000000 
#    z 0.000000 0.000000 1.683430 
# 
# From -- ./inp_files/8219.got.cif
#   From: 2010.03.12/outbox.cif.g09.slc.cpg/sg194_5_cif.got.tgz:8219.got - 2010.04.01 12:26:19.
