data_PCOD8330606
_publ_section_title
;
Structure prediction by ZEFSAII (Michael W. Deem and Ramdas Pophale) SiO2 
 PCOD8330606
Probable space group: P 63/M M C
;
_chemical_formula_sum "Si O2"
_cell_formula_units_Z 168
_cell_length_a 16.979782
_cell_length_b 16.979782
_cell_length_c 31.638760
_cell_angle_alpha 90.000000
_cell_angle_beta 90.000000
_cell_angle_gamma 120.000000
_cell_volume 7899.767434
_symmetry_space_group_name_H-M "P 63/M M C"
_symmetry_group_IT_number 194
_symmetry_cell_setting 'hexagonal'
loop_
_space_group_symop_operation_xyz
x,y,z
x-y,x,1/2+z
-y,x-y,z
-x,-y,1/2+z
-x+y,-x,z
y,-x+y,1/2+z
x-y,-y,-z
-x,-x+y,-z
y,x,-z
-y,-x,1/2-z
-x+y,y,1/2-z
x,x-y,1/2-z
-x,-y,-z
-x+y,-x,1/2-z
y,-x+y,-z
x,y,1/2-z
x-y,x,-z
-y,x-y,1/2-z
-x+y,y,z
x,x-y,z
-y,-x,z
y,x,1/2+z
x-y,-y,1/2+z
-x,-x+y,1/2+z
loop_
_atom_site_type_symbol
_atom_site_label
_atom_site_fract_x
_atom_site_fract_y
_atom_site_fract_z
Si Si1 0.998842 0.825354 0.336004
Si Si2 0.519697 0.667170 0.616245
Si Si3 0.819774 0.001482 0.434224
Si Si4 0.897977 0.273284 0.814216
Si Si5 0.639406 0.642105 0.047439
Si Si6 0.332094 0.843189 0.396182
Si Si7 0.934724 0.375722 0.295307
O O1 0.901267 0.802533 0.317201
O O2 0.989264 0.797959 0.384705
O O3 0.036623 0.769746 0.310977
O O4 0.067126 0.932875 0.331257
O O5 0.515282 0.757641 0.606884
O O6 0.418115 0.581886 0.618799
O O7 0.572361 0.651255 0.577930
O O8 0.572814 0.681834 0.661604
O O9 0.825294 0.912647 0.445910
O O10 0.732596 0.995653 0.456209
O O11 0.910790 0.089211 0.451430
O O12 0.798993 0.201008 0.793672
O O13 0.881463 0.290409 0.862051
O O14 0.956132 0.369718 0.791459
O O15 0.555613 0.653267 0.062638
O O16 0.606682 0.606682 0.000000
O O17 0.426178 0.852355 0.379926
O O18 0.261924 0.738077 0.406469
O O19 0.890993 0.325258 0.250000
O O20 0.920929 0.460465 0.299040
#
# Coordination Sequence:
#
# PCOD8330606 Si02
#       7
#    24  24  24  24  24  24  24
#     4   9  16  28  49  79 114 154 197 243 292 345
#     4  11  24  44  68  95 126 164 210 265 327 390
#     4  10  19  33  53  81 117 158 203 251 303 360
#     4  10  19  33  57  88 122 159 200 248 300 361
#     4  12  25  41  63  88 120 164 210 257 314 382
#     4  11  22  39  61  86 117 153 199 253 309 368
#     4  10  21  39  64  93 126 164 205 254 318 388
#
# _framework density 21.266448
#
# number of rings (size 3 to 8) (size 9 to 14) (size 15 to 20)
#    0.000    1.571    2.857    2.286    0.000    6.857 
#    0.000    0.000    0.000    3.714    0.000    0.000 
#    0.000    1.143    0.000    0.571    0.000    0.857 
#
# Total GULP energy -2081648.053186 kJ/mol
# GULP energy per Si atom -12390.762221 kJ/mol
# Density = 2.121804 g / cm^3
# Si number density = 21.266448 Si / 1000 Ang^3
#
#
#
# Elastic Constant Matrix: (Units=GPa)
#
#
# Indices 1 2 3 4 5 6 
#
# 1 95.3614 26.1012 30.9724 0.0000 0.0000 0.0000
# 2 26.1012 95.3614 30.9724 0.0000 0.0000 0.0000
# 3 30.9724 30.9724 120.9849 0.0000 0.0000 0.0000
# 4 0.0000 0.0000 0.0000 3.5954 0.0000 0.0000
# 5 0.0000 0.0000 0.0000 0.0000 3.5954 0.0000
# 6 0.0000 0.0000 0.0000 0.0000 0.0000 34.6301
#
#
#
# Elastic Compliance Matrix: (Units=1/GPa)
#
#
# Indices 1 2 3 4 5 6 
#
# 1 0.011954 -0.002485 -0.002424 0.000000 0.000000 0.000000
# 2 -0.002485 0.011954 -0.002424 0.000000 0.000000 0.000000
# 3 -0.002424 -0.002424 0.009507 0.000000 0.000000 0.000000
# 4 0.000000 0.000000 0.000000 0.278134 0.000000 0.000000
# 5 0.000000 0.000000 0.000000 0.000000 0.278134 0.000000
# 6 0.000000 0.000000 0.000000 0.000000 0.000000 0.028877
#
#
# Mechanical properties :
#
#
# Convention : Reuss Voigt Hill
#
# Bulk Modulus (GPa) = 53.33728 54.19997 53.76862
# Shear Modulus (GPa) = 7.81892 23.27496 15.54694
#
# Velocity S-wave (km/s) = 1.91954 3.31183 2.70674
# Velocity P-wave (km/s) = 5.48158 6.33765 5.92510
#
# Compressibility (1/GPa) = 0.01874861
#
# Stress axis : x y z
#
# Youngs Moduli (GPa) = 83.65545 83.65545 105.18930
#
# Poissons Ratio (x) = 0.20784 0.25500
# Poissons Ratio (y) = 0.20784 0.25500
# Poissons Ratio (z) = 0.20279 0.20279
#
# Static dielectric constant tensor:
#      x y z
#    x 3.920380 0.000000 0.000000 
#    y 0.000000 3.920380 0.000000 
#    z 0.000000 0.000000 3.749120 
# 
# 
# High freq. dielectric constant tensor:
#      x y z
#    x 1.835260 0.000000 0.000000 
#    y 0.000000 1.835260 0.000000 
#    z 0.000000 0.000000 1.817950 
# 
# From -- ./inp_files/12243.got.cif
#   From: 2010.03.12/outbox.cif.g09.slc.cpg/sg194_7_cif.got.tgz:12243.got - 2010.04.01 12:26:19.
