data_PCOD8330690
_publ_section_title
;
Structure prediction by ZEFSAII (Michael W. Deem and Ramdas Pophale) SiO2 
 PCOD8330690
Probable space group: P 63/M M C
;
_chemical_formula_sum "Si O2"
_cell_formula_units_Z 168
_cell_length_a 21.320295
_cell_length_b 21.320295
_cell_length_c 22.861949
_cell_angle_alpha 90.000000
_cell_angle_beta 90.000000
_cell_angle_gamma 120.000000
_cell_volume 8999.747034
_symmetry_space_group_name_H-M "P 63/M M C"
_symmetry_group_IT_number 194
_symmetry_cell_setting 'hexagonal'
loop_
_space_group_symop_operation_xyz
x,y,z
x-y,x,1/2+z
-y,x-y,z
-x,-y,1/2+z
-x+y,-x,z
y,-x+y,1/2+z
x-y,-y,-z
-x,-x+y,-z
y,x,-z
-y,-x,1/2-z
-x+y,y,1/2-z
x,x-y,1/2-z
-x,-y,-z
-x+y,-x,1/2-z
y,-x+y,-z
x,y,1/2-z
x-y,x,-z
-y,x-y,1/2-z
-x+y,y,z
x,x-y,z
-y,-x,z
y,x,1/2+z
x-y,-y,1/2+z
-x,-x+y,1/2+z
loop_
_atom_site_type_symbol
_atom_site_label
_atom_site_fract_x
_atom_site_fract_y
_atom_site_fract_z
Si Si1 0.710256 0.143456 0.686962
Si Si2 0.374528 0.259242 0.520735
Si Si3 0.478909 0.665437 0.078853
Si Si4 0.189070 0.666826 0.683091
Si Si5 0.288720 0.031680 0.626988
Si Si6 0.261916 0.380073 0.615915
Si Si7 0.143809 0.143191 0.682829
O O1 0.671689 0.116349 0.750000
O O2 0.777620 0.222381 0.693019
O O3 0.654914 0.149211 0.642531
O O4 0.740820 0.092474 0.665724
O O5 0.364918 0.182459 0.539126
O O6 0.456602 0.321145 0.535025
O O7 0.313256 0.265062 0.558474
O O8 0.366530 0.266359 0.452405
O O9 0.462070 0.731035 0.077300
O O10 0.407289 0.592712 0.060022
O O11 0.164990 0.668141 0.750000
O O12 0.180825 0.590413 0.666760
O O13 0.272405 0.727596 0.674117
O O14 0.138246 0.678777 0.637927
O O15 0.212329 0.027182 0.639505
O O16 0.277988 0.954812 0.647853
O O17 0.182547 0.365093 0.633559
O O18 0.166711 0.168915 0.750000
O O19 0.116172 0.058086 0.677141
O O20 0.078001 0.156001 0.663524
#
# Coordination Sequence:
#
# PCOD8330690 Si02
#       7
#    24  24  24  24  24  24  24
#     4   9  18  32  49  70  97 130 169 209 244 285
#     4   9  19  35  52  71  97 130 170 213 253 297
#     4   9  17  30  50  75 101 128 160 202 251 299
#     4   9  18  34  56  79 103 132 165 202 249 309
#     4  11  19  32  53  74  96 133 178 214 249 296
#     4  10  21  35  51  75 104 129 160 209 260 302
#     4  10  20  33  51  78 111 142 172 211 261 314
#
# _framework density 18.667192
#
# number of rings (size 3 to 8) (size 9 to 14) (size 15 to 20)
#    0.000    2.429    0.000    3.857    0.000    4.286 
#    0.000    4.286    0.000    6.857    0.000    0.000 
#    0.000    6.857    0.000    0.000    0.000    0.000 
#
# Total GULP energy -2082359.899480 kJ/mol
# GULP energy per Si atom -12394.999402 kJ/mol
# Density = 1.862470 g / cm^3
# Si number density = 18.667192 Si / 1000 Ang^3
#
#
#
# Elastic Constant Matrix: (Units=GPa)
#
#
# Indices 1 2 3 4 5 6 
#
# 1 86.2404 32.8980 10.9413 0.0000 0.0000 0.0000
# 2 32.8980 86.2404 10.9413 0.0000 0.0000 0.0000
# 3 10.9413 10.9413 31.0229 0.0000 0.0000 0.0000
# 4 0.0000 0.0000 0.0000 20.2200 0.0000 0.0000
# 5 0.0000 0.0000 0.0000 0.0000 20.2200 0.0000
# 6 0.0000 0.0000 0.0000 0.0000 0.0000 26.6712
#
#
#
# Elastic Compliance Matrix: (Units=1/GPa)
#
#
# Indices 1 2 3 4 5 6 
#
# 1 0.013861 -0.004886 -0.003165 0.000000 0.000000 0.000000
# 2 -0.004886 0.013861 -0.003165 0.000000 0.000000 0.000000
# 3 -0.003165 -0.003165 0.034467 0.000000 0.000000 0.000000
# 4 0.000000 0.000000 0.000000 0.049456 0.000000 0.000000
# 5 0.000000 0.000000 0.000000 0.000000 0.049456 0.000000
# 6 0.000000 0.000000 0.000000 0.000000 0.000000 0.037494
#
#
# Mechanical properties :
#
#
# Convention : Reuss Voigt Hill
#
# Bulk Modulus (GPa) = 25.15369 34.78497 29.96933
# Shear Modulus (GPa) = 21.34205 23.33712 22.33959
#
# Velocity S-wave (km/s) = 3.38493 3.53961 3.46313
# Velocity P-wave (km/s) = 5.36480 5.94809 5.66396
#
# Compressibility (1/GPa) = 0.03975559
#
# Stress axis : x y z
#
# Youngs Moduli (GPa) = 72.14544 72.14544 29.01332
#
# Poissons Ratio (x) = 0.35250 0.09184
# Poissons Ratio (y) = 0.35250 0.09184
# Poissons Ratio (z) = 0.22836 0.22836
#
# Static dielectric constant tensor:
#      x y z
#    x 3.344530 0.000000 0.000000 
#    y 0.000000 3.344530 0.000000 
#    z 0.000000 0.000000 3.755000 
# 
# 
# High freq. dielectric constant tensor:
#      x y z
#    x 1.718000 0.000000 0.000000 
#    y 0.000000 1.718000 0.000000 
#    z 0.000000 0.000000 1.719720 
# 
# From -- ./inp_files/9846.got.cif
#   From: 2010.03.12/outbox.cif.g09.slc.cpg/sg194_5_cif.got.tgz:9846.got - 2010.04.01 12:26:19.
