data_PCOD8330466
_publ_section_title
;
Structure prediction by ZEFSAII (Michael W. Deem and Ramdas Pophale) SiO2 
 PCOD8330466
Probable space group: P 63/M M C
;
_chemical_formula_sum "Si O2"
_cell_formula_units_Z 108
_cell_length_a 26.529975
_cell_length_b 26.529975
_cell_length_c 10.877496
_cell_angle_alpha 90.000000
_cell_angle_beta 90.000000
_cell_angle_gamma 120.000000
_cell_volume 6630.301010
_symmetry_space_group_name_H-M "P 63/M M C"
_symmetry_group_IT_number 194
_symmetry_cell_setting 'hexagonal'
loop_
_space_group_symop_operation_xyz
x,y,z
x-y,x,1/2+z
-y,x-y,z
-x,-y,1/2+z
-x+y,-x,z
y,-x+y,1/2+z
x-y,-y,-z
-x,-x+y,-z
y,x,-z
-y,-x,1/2-z
-x+y,y,1/2-z
x,x-y,1/2-z
-x,-y,-z
-x+y,-x,1/2-z
y,-x+y,-z
x,y,1/2-z
x-y,x,-z
-y,x-y,1/2-z
-x+y,y,z
x,x-y,z
-y,-x,z
y,x,1/2+z
x-y,-y,1/2+z
-x,-x+y,1/2+z
loop_
_atom_site_type_symbol
_atom_site_label
_atom_site_fract_x
_atom_site_fract_y
_atom_site_fract_z
Si Si1 0.824038 0.769061 0.250000
Si Si2 0.243663 0.876853 0.750000
Si Si3 0.550329 0.215912 0.892538
Si Si4 0.777500 0.000000 0.000000
Si Si5 0.322900 0.219349 0.615318
Si Si6 0.275724 0.840509 0.983891
O O1 0.888488 0.776976 0.250000
O O2 0.772988 0.700802 0.250000
O O3 0.816711 0.800723 0.374149
O O4 0.183179 0.816822 0.750000
O O5 0.284054 0.880836 0.865736
O O6 0.536429 0.198231 0.750000
O O7 0.608207 0.216414 0.935966
O O8 0.559672 0.279836 0.913776
O O9 0.497402 0.167374 0.976134
O O10 0.713721 0.945268 0.017046
O O11 0.305866 0.229952 0.750000
O O12 0.305819 0.152910 0.595658
O O13 0.391638 0.261257 0.598123
O O14 0.223196 0.776805 0.955033
#
# Coordination Sequence:
#
# PCOD8330466 Si02
#       6
#    12  12  24  12  24  24
#     4  11  22  36  51  76 112 146 175 205 243 292
#     4   9  16  28  45  62  90 128 161 193 236 290
#     4   9  16  26  41  62  88 119 157 204 256 309
#     4  12  20  32  50  74 101 140 175 200 240 292
#     4  10  19  30  45  68  97 126 158 197 237 287
#     4   9  16  27  43  62  87 121 158 199 247 299
#
# _framework density 16.288853
#
# number of rings (size 3 to 8) (size 9 to 14) (size 15 to 20)
#    0.000    2.222    3.333    1.556    0.000    3.556 
#    0.000    0.556    0.000    0.000    0.000    2.333 
#    0.000    0.000    0.000   57.333    0.000    0.000 
#
# Total GULP energy -1337916.357555 kJ/mol
# GULP energy per Si atom -12388.114422 kJ/mol
# Density = 1.625178 g / cm^3
# Si number density = 16.288853 Si / 1000 Ang^3
#
#
#
# Elastic Constant Matrix: (Units=GPa)
#
#
# Indices 1 2 3 4 5 6 
#
# 1 46.1342 13.2682 35.2876 0.0000 0.0000 0.0000
# 2 13.2682 46.1342 35.2876 0.0000 0.0000 0.0000
# 3 35.2876 35.2876 99.3854 0.0000 0.0000 0.0000
# 4 0.0000 0.0000 0.0000 22.2908 0.0000 0.0000
# 5 0.0000 0.0000 0.0000 0.0000 22.2908 0.0000
# 6 0.0000 0.0000 0.0000 0.0000 0.0000 16.4330
#
#
#
# Elastic Compliance Matrix: (Units=1/GPa)
#
#
# Indices 1 2 3 4 5 6 
#
# 1 0.029772 -0.000655 -0.010338 0.000000 0.000000 0.000000
# 2 -0.000655 0.029772 -0.010338 0.000000 0.000000 0.000000
# 3 -0.010338 -0.010338 0.017403 0.000000 0.000000 0.000000
# 4 0.000000 0.000000 0.000000 0.044861 0.000000 0.000000
# 5 0.000000 0.000000 0.000000 0.000000 0.044861 0.000000
# 6 0.000000 0.000000 0.000000 0.000000 0.000000 0.060853
#
#
# Mechanical properties :
#
#
# Convention : Reuss Voigt Hill
#
# Bulk Modulus (GPa) = 29.16786 39.92675 34.54730
# Shear Modulus (GPa) = 17.75483 19.39030 18.57257
#
# Velocity S-wave (km/s) = 3.30509 3.45397 3.38035
# Velocity P-wave (km/s) = 5.70179 6.36171 6.04077
#
# Compressibility (1/GPa) = 0.03428432
#
# Stress axis : x y z
#
# Youngs Moduli (GPa) = 33.58883 33.58883 57.46071
#
# Poissons Ratio (x) = 0.02199 0.59404
# Poissons Ratio (y) = 0.02199 0.59404
# Poissons Ratio (z) = 0.34725 0.34725
#
# Static dielectric constant tensor:
#      x y z
#    x 2.882180 0.000000 0.000000 
#    y 0.000000 2.882180 0.000000 
#    z 0.000000 0.000000 3.528610 
# 
# 
# High freq. dielectric constant tensor:
#      x y z
#    x 1.593430 0.000000 0.000000 
#    y 0.000000 1.593430 0.000000 
#    z 0.000000 0.000000 1.642430 
# 
# From -- ./inp_files/3374.got.cif
#   From: 2010.03.12/outbox.cif.g09.slc.cpg/sg194_2_cif.got.tgz:3374.got - 2010.04.01 12:26:19.
