data_PCOD8330780
_publ_section_title
;
Structure prediction by ZEFSAII (Michael W. Deem and Ramdas Pophale) SiO2 
 PCOD8330780
Probable space group: P 63/M M C
;
_chemical_formula_sum "Si O2"
_cell_formula_units_Z 168
_cell_length_a 17.360953
_cell_length_b 17.360953
_cell_length_c 29.377286
_cell_angle_alpha 90.000000
_cell_angle_beta 90.000000
_cell_angle_gamma 120.000000
_cell_volume 7668.129271
_symmetry_space_group_name_H-M "P 63/M M C"
_symmetry_group_IT_number 194
_symmetry_cell_setting 'hexagonal'
loop_
_space_group_symop_operation_xyz
x,y,z
x-y,x,1/2+z
-y,x-y,z
-x,-y,1/2+z
-x+y,-x,z
y,-x+y,1/2+z
x-y,-y,-z
-x,-x+y,-z
y,x,-z
-y,-x,1/2-z
-x+y,y,1/2-z
x,x-y,1/2-z
-x,-y,-z
-x+y,-x,1/2-z
y,-x+y,-z
x,y,1/2-z
x-y,x,-z
-y,x-y,1/2-z
-x+y,y,z
x,x-y,z
-y,-x,z
y,x,1/2+z
x-y,-y,1/2+z
-x,-x+y,1/2+z
loop_
_atom_site_type_symbol
_atom_site_label
_atom_site_fract_x
_atom_site_fract_y
_atom_site_fract_z
Si Si1 0.659908 0.987607 0.053311
Si Si2 0.574024 0.967353 0.199399
Si Si3 0.998423 0.822566 0.201881
Si Si4 0.163851 0.666711 0.579348
Si Si5 0.836519 0.503406 0.184784
Si Si6 0.999370 0.179601 0.103123
Si Si7 0.332726 0.483664 0.384116
O O1 0.570681 0.900995 0.070822
O O2 0.668434 0.073793 0.076516
O O3 0.745059 0.978854 0.065985
O O4 0.656098 0.000000 0.000000
O O5 0.573767 0.929507 0.250000
O O6 0.487621 0.975241 0.190689
O O7 0.573476 0.900606 0.161006
O O8 0.657812 0.067269 0.194486
O O9 0.983343 0.767053 0.250000
O O10 0.928960 0.857919 0.199854
O O11 0.990085 0.773662 0.153459
O O12 0.095542 0.904459 0.204772
O O13 0.156082 0.578041 0.556383
O O14 0.245673 0.754328 0.556192
O O15 0.182550 0.666392 0.632014
O O16 0.760355 0.520710 0.206029
O O17 0.831463 0.415732 0.207513
O O18 0.908509 0.091492 0.089276
O O19 0.078303 0.156606 0.103657
O O20 0.248941 0.497881 0.383783
O O21 0.420741 0.579260 0.384869
#
# Coordination Sequence:
#
# PCOD8330780 Si02
#       7
#    24  24  24  24  24  24  24
#     4  12  26  44  65  90 124 166 210 259 324 396
#     4   9  18  35  60  91 130 173 214 261 318 376
#     4   8  13  24  47  80 116 152 192 242 300 361
#     4  10  20  37  63  94 125 159 201 252 309 375
#     4   9  16  29  53  88 130 174 219 264 312 372
#     4  10  21  38  61  89 123 165 214 266 318 379
#     4  11  24  45  71  99 129 164 211 267 326 390
#
# _framework density 21.908863
#
# number of rings (size 3 to 8) (size 9 to 14) (size 15 to 20)
#    0.000    2.143    1.429    2.000    0.000    6.857 
#    0.000    0.714    0.000    6.000    0.000    0.000 
#    0.000    0.000    0.000    0.000    0.000    1.857 
#
# Total GULP energy -2081538.552662 kJ/mol
# GULP energy per Si atom -12390.110433 kJ/mol
# Density = 2.185900 g / cm^3
# Si number density = 21.908863 Si / 1000 Ang^3
#
#
#
# Elastic Constant Matrix: (Units=GPa)
#
#
# Indices 1 2 3 4 5 6 
#
# 1 113.8893 45.0381 35.5882 0.0000 0.0000 0.0000
# 2 45.0381 113.8893 35.5882 0.0000 0.0000 0.0000
# 3 35.5882 35.5882 118.6323 0.0000 0.0000 0.0000
# 4 0.0000 0.0000 0.0000 64.2456 0.0000 0.0000
# 5 0.0000 0.0000 0.0000 0.0000 64.2456 0.0000
# 6 0.0000 0.0000 0.0000 0.0000 0.0000 34.4256
#
#
#
# Elastic Compliance Matrix: (Units=1/GPa)
#
#
# Indices 1 2 3 4 5 6 
#
# 1 0.010896 -0.003628 -0.002181 0.000000 0.000000 0.000000
# 2 -0.003628 0.010896 -0.002181 0.000000 0.000000 0.000000
# 3 -0.002181 -0.002181 0.009738 0.000000 0.000000 0.000000
# 4 0.000000 0.000000 0.000000 0.015565 0.000000 0.000000
# 5 0.000000 0.000000 0.000000 0.000000 0.015565 0.000000
# 6 0.000000 0.000000 0.000000 0.000000 0.000000 0.029048
#
#
# Mechanical properties :
#
#
# Convention : Reuss Voigt Hill
#
# Bulk Modulus (GPa) = 64.29616 64.31555 64.30586
# Shear Modulus (GPa) = 44.29836 47.92978 46.11407
#
# Velocity S-wave (km/s) = 4.50147 4.68235 4.59280
# Velocity P-wave (km/s) = 7.51189 7.65847 7.58554
#
# Compressibility (1/GPa) = 0.01555303
#
# Stress axis : x y z
#
# Youngs Moduli (GPa) = 91.77335 91.77335 102.69390
#
# Poissons Ratio (x) = 0.33292 0.22393
# Poissons Ratio (y) = 0.33292 0.22393
# Poissons Ratio (z) = 0.20012 0.20012
#
# Static dielectric constant tensor:
#      x y z
#    x 3.888370 0.000000 0.000000 
#    y 0.000000 3.888370 0.000000 
#    z 0.000000 0.000000 4.424050 
# 
# 
# High freq. dielectric constant tensor:
#      x y z
#    x 1.854720 0.000000 0.000000 
#    y 0.000000 1.854720 0.000000 
#    z 0.000000 0.000000 1.854790 
# 
# From -- ./inp_files/12239.got.cif
#   From: 2010.03.12/outbox.cif.g09.slc.cpg/sg194_7_cif.got.tgz:12239.got - 2010.04.01 12:26:19.
