data_PCOD8330719
_publ_section_title
;
Structure prediction by ZEFSAII (Michael W. Deem and Ramdas Pophale) SiO2 
 PCOD8330719
Probable space group: P 63/M M C
;
_chemical_formula_sum "Si O2"
_cell_formula_units_Z 108
_cell_length_a 17.928440
_cell_length_b 17.928440
_cell_length_c 21.827679
_cell_angle_alpha 90.000000
_cell_angle_beta 90.000000
_cell_angle_gamma 120.000000
_cell_volume 6076.075957
_symmetry_space_group_name_H-M "P 63/M M C"
_symmetry_group_IT_number 194
_symmetry_cell_setting 'hexagonal'
loop_
_space_group_symop_operation_xyz
x,y,z
x-y,x,1/2+z
-y,x-y,z
-x,-y,1/2+z
-x+y,-x,z
y,-x+y,1/2+z
x-y,-y,-z
-x,-x+y,-z
y,x,-z
-y,-x,1/2-z
-x+y,y,1/2-z
x,x-y,1/2-z
-x,-y,-z
-x+y,-x,1/2-z
y,-x+y,-z
x,y,1/2-z
x-y,x,-z
-y,x-y,1/2-z
-x+y,y,z
x,x-y,z
-y,-x,z
y,x,1/2+z
x-y,-y,1/2+z
-x,-x+y,1/2+z
loop_
_atom_site_type_symbol
_atom_site_label
_atom_site_fract_x
_atom_site_fract_y
_atom_site_fract_z
Si Si1 0.490501 0.332833 0.569953
Si Si2 0.040037 0.604070 0.317010
Si Si3 0.825319 0.827969 0.750000
Si Si4 0.752404 0.669402 0.335660
Si Si5 0.657154 0.747140 0.520165
O O1 0.508189 0.254095 0.575593
O O2 0.580843 0.419158 0.562506
O O3 0.439583 0.334037 0.630983
O O4 0.433248 0.324677 0.510141
O O5 0.085778 0.630643 0.250000
O O6 0.011507 0.505754 0.332654
O O7 0.952504 0.608385 0.312399
O O8 0.860951 0.930476 0.750000
O O9 0.766560 0.784903 0.689070
O O10 0.905354 0.810707 0.750000
O O11 0.820750 0.641500 0.310703
O O12 0.746342 0.656947 0.407612
O O13 0.735589 0.735589 0.500000
O O14 0.677571 0.838786 0.493878
#
# Coordination Sequence:
#
# PCOD8330719 Si02
#       5
#    24  24  12  24  24
#     4  10  21  36  55  79 110 147 185 225 271 325
#     4  10  20  34  53  80 109 140 180 223 271 328
#     4  10  21  36  57  82 110 144 180 222 271 328
#     4  10  20  35  54  80 108 139 180 224 273 319
#     4  10  20  34  53  79 107 139 180 222 264 316
#
# _framework density 17.774629999999998
#
# number of rings (size 3 to 8) (size 9 to 14) (size 15 to 20)
#    0.000    2.000    3.333    0.333    0.000    3.556 
#    0.000    0.000    0.000    2.000    0.000    0.000 
#    0.000    0.000    0.000    0.000    0.000    0.000 
#
# Total GULP energy -1337998.353765 kJ/mol
# GULP energy per Si atom -12388.873646 kJ/mol
# Density = 1.773417 g / cm^3
# Si number density = 17.774630 Si / 1000 Ang^3
#
#
#
# Elastic Constant Matrix: (Units=GPa)
#
#
# Indices 1 2 3 4 5 6 
#
# 1 106.0851 60.7835 48.4371 0.0000 0.0000 0.0000
# 2 60.7835 106.0851 48.4371 0.0000 0.0000 0.0000
# 3 48.4371 48.4371 129.4095 0.0000 0.0000 0.0000
# 4 0.0000 0.0000 0.0000 -26.4305 0.0000 0.0000
# 5 0.0000 0.0000 0.0000 0.0000 -26.4305 0.0000
# 6 0.0000 0.0000 0.0000 0.0000 0.0000 22.6508
#
#
#
# Elastic Compliance Matrix: (Units=1/GPa)
#
#
# Indices 1 2 3 4 5 6 
#
# 1 0.014865 -0.007209 -0.002866 0.000000 0.000000 0.000000
# 2 -0.007209 0.014865 -0.002866 0.000000 0.000000 0.000000
# 3 -0.002866 -0.002866 0.009873 0.000000 0.000000 0.000000
# 4 0.000000 0.000000 0.000000 -0.037835 0.000000 0.000000
# 5 0.000000 0.000000 0.000000 0.000000 -0.037835 0.000000
# 6 0.000000 0.000000 0.000000 0.000000 0.000000 0.044149
#
#
# Mechanical properties :
#
#
# Convention : Reuss Voigt Hill
#
# Bulk Modulus (GPa) = 72.87288 72.98835 72.93061
# Shear Modulus (GPa) = 129.74539 6.21940 67.98240
#
# Velocity S-wave (km/s) = 8.55296 1.87260 6.19111
# Velocity P-wave (km/s) = 11.77390 6.76963 9.60345
#
# Compressibility (1/GPa) = 0.01372253
#
# Stress axis : x y z
#
# Youngs Moduli (GPa) = 67.27046 67.27046 101.28972
#
# Poissons Ratio (x) = 0.48495 0.29027
# Poissons Ratio (y) = 0.48495 0.29027
# Poissons Ratio (z) = 0.19278 0.19278
#
# Static dielectric constant tensor:
#      x y z
#    x 3.454000 0.000000 0.000000 
#    y 0.000000 3.454000 0.000000 
#    z 0.000000 0.000000 3.864910 
# 
# 
# High freq. dielectric constant tensor:
#      x y z
#    x 1.680990 0.000000 0.000000 
#    y 0.000000 1.680990 0.000000 
#    z 0.000000 0.000000 1.704980 
# 
# From -- ./inp_files/7897.got.cif
#   From: 2010.03.12/outbox.cif.g09.slc.cpg/sg194_4_cif.got.tgz:7897.got - 2010.04.01 12:26:19.
