data_PCOD8330202
_publ_section_title
;
Structure prediction by ZEFSAII (Michael W. Deem and Ramdas Pophale) SiO2 
 PCOD8330202
Probable space group: P 63/M C M
;
_chemical_formula_sum "Si O2"
_cell_formula_units_Z 144
_cell_length_a 30.893883
_cell_length_b 30.893883
_cell_length_c 8.620085
_cell_angle_alpha 90.000000
_cell_angle_beta 90.000000
_cell_angle_gamma 120.000000
_cell_volume 7125.037836
_symmetry_space_group_name_H-M "P 63/M C M"
_symmetry_group_IT_number 193
_symmetry_cell_setting 'hexagonal'
loop_
_space_group_symop_operation_xyz
x,y,z
x-y,x,1/2+z
-y,x-y,z
-x,-y,1/2+z
-x+y,-x,z
y,-x+y,1/2+z
x-y,-y,1/2-z
-x,-x+y,1/2-z
y,x,1/2-z
-y,-x,-z
-x+y,y,-z
x,x-y,-z
-x,-y,-z
-x+y,-x,1/2-z
y,-x+y,-z
x,y,1/2-z
x-y,x,-z
-y,x-y,1/2-z
-x+y,y,1/2+z
x,x-y,1/2+z
-y,-x,1/2+z
y,x,z
x-y,-y,z
-x,-x+y,z
loop_
_atom_site_type_symbol
_atom_site_label
_atom_site_fract_x
_atom_site_fract_y
_atom_site_fract_z
Si Si1 0.243938 0.301352 0.930795
Si Si2 0.057218 0.482016 0.932187
Si Si3 0.851573 0.333889 0.433024
Si Si4 0.609402 0.759101 0.932208
Si Si5 0.666816 0.425856 0.933759
Si Si6 0.202365 0.147226 0.566957
O O1 0.242994 0.313468 0.750000
O O2 0.285596 0.285596 0.962263
O O3 0.189843 0.257258 0.986667
O O4 0.257446 0.349885 0.031497
O O5 0.067327 0.487537 0.750000
O O6 0.000000 0.441277 0.971064
O O7 0.071135 0.535568 0.000000
O O8 0.091907 0.463590 0.012785
O O9 0.847012 0.335747 0.250000
O O10 0.835913 0.278359 0.485688
O O11 0.814977 0.350170 0.512260
O O12 0.600694 0.758084 0.750000
O O13 0.628613 0.814307 0.000000
O O14 0.667548 0.423636 0.750000
O O15 0.628497 0.371504 0.000000
O O16 0.721653 0.443305 0.000000
O O17 0.187688 0.093844 0.500000
O O18 0.201372 0.144672 0.750000
O O19 0.161640 0.161640 0.506983
#
# Coordination Sequence:
#
# PCOD8330202 Si02
#       6
#    24  24  24  24  24  24
#     4   9  19  37  59  84 115 149 186 232 285 339
#     4  10  21  39  63  91 122 156 196 242 292 345
#     4  12  25  42  63  88 119 157 199 242 291 345
#     4  12  25  41  60  84 116 154 196 239 286 342
#     4  12  25  44  67  94 125 157 195 239 291 346
#     4   9  18  32  51  77 108 141 180 227 278 332
#
# _framework density 20.210419000000002
#
# number of rings (size 3 to 8) (size 9 to 14) (size 15 to 20)
#    0.000    1.333    0.000    7.667    0.000    4.333 
#    0.000    1.667    0.000    0.167    0.000    0.000 
#    0.000    0.000    0.000    0.000    0.000    0.000 
#
# Total GULP energy -1786525.738812 kJ/mol
# GULP energy per Si atom -12406.428742 kJ/mol
# Density = 2.016442 g / cm^3
# Si number density = 20.210419 Si / 1000 Ang^3
#
#
#
# Elastic Constant Matrix: (Units=GPa)
#
#
# Indices 1 2 3 4 5 6 
#
# 1 104.4118 24.6444 42.5312 0.0000 0.0000 0.0000
# 2 24.6444 104.4118 42.5312 0.0000 0.0000 0.0000
# 3 42.5312 42.5312 132.7170 0.0000 0.0000 0.0000
# 4 0.0000 0.0000 0.0000 36.3050 0.0000 0.0000
# 5 0.0000 0.0000 0.0000 0.0000 36.3050 0.0000
# 6 0.0000 0.0000 0.0000 0.0000 0.0000 39.8837
#
#
#
# Elastic Compliance Matrix: (Units=1/GPa)
#
#
# Indices 1 2 3 4 5 6 
#
# 1 0.011180 -0.001356 -0.003148 0.000000 0.000000 0.000000
# 2 -0.001356 0.011180 -0.003148 0.000000 0.000000 0.000000
# 3 -0.003148 -0.003148 0.009553 0.000000 0.000000 0.000000
# 4 0.000000 0.000000 0.000000 0.027544 0.000000 0.000000
# 5 0.000000 0.000000 0.000000 0.000000 0.027544 0.000000
# 6 0.000000 0.000000 0.000000 0.000000 0.000000 0.025073
#
#
# Mechanical properties :
#
#
# Convention : Reuss Voigt Hill
#
# Bulk Modulus (GPa) = 60.21494 62.32825 61.27159
# Shear Modulus (GPa) = 37.61798 37.95435 37.78617
#
# Velocity S-wave (km/s) = 4.31898 4.33824 4.32862
# Velocity P-wave (km/s) = 7.39798 7.48334 7.44078
#
# Compressibility (1/GPa) = 0.01660718
#
# Stress axis : x y z
#
# Youngs Moduli (GPa) = 89.44566 89.44566 104.68427
#
# Poissons Ratio (x) = 0.12133 0.32956
# Poissons Ratio (y) = 0.12133 0.32956
# Poissons Ratio (z) = 0.28158 0.28158
#
# Static dielectric constant tensor:
#      x y z
#    x 3.360510 0.000000 0.000000 
#    y 0.000000 3.360510 0.000000 
#    z 0.000000 0.000000 3.621060 
# 
# 
# High freq. dielectric constant tensor:
#      x y z
#    x 1.792150 0.000000 0.000000 
#    y 0.000000 1.792150 0.000000 
#    z 0.000000 0.000000 1.795450 
# 
# From -- ./inp_files/1507.got.cif
#   From: 2010.03.12/outbox.cif.g09.slc.cpg/sg193_1_cif.got.tgz:1507.got - 2010.04.01 12:20:39.
