data_PCOD8330775
_publ_section_title
;
Structure prediction by ZEFSAII (Michael W. Deem and Ramdas Pophale) SiO2 
 PCOD8330775
Probable space group: P 63/M M C
;
_chemical_formula_sum "Si O2"
_cell_formula_units_Z 160
_cell_length_a 21.779305
_cell_length_b 21.779305
_cell_length_c 19.705438
_cell_angle_alpha 90.000000
_cell_angle_beta 90.000000
_cell_angle_gamma 120.000000
_cell_volume 8094.774557
_symmetry_space_group_name_H-M "P 63/M M C"
_symmetry_group_IT_number 194
_symmetry_cell_setting 'hexagonal'
loop_
_space_group_symop_operation_xyz
x,y,z
x-y,x,1/2+z
-y,x-y,z
-x,-y,1/2+z
-x+y,-x,z
y,-x+y,1/2+z
x-y,-y,-z
-x,-x+y,-z
y,x,-z
-y,-x,1/2-z
-x+y,y,1/2-z
x,x-y,1/2-z
-x,-y,-z
-x+y,-x,1/2-z
y,-x+y,-z
x,y,1/2-z
x-y,x,-z
-y,x-y,1/2-z
-x+y,y,z
x,x-y,z
-y,-x,z
y,x,1/2+z
x-y,-y,1/2+z
-x,-x+y,1/2+z
loop_
_atom_site_type_symbol
_atom_site_label
_atom_site_fract_x
_atom_site_fract_y
_atom_site_fract_z
Si Si1 0.194085 0.248348 0.672261
Si Si2 0.666667 0.333334 0.331455
Si Si3 0.581898 0.719320 0.056710
Si Si4 0.906593 0.314616 0.328115
Si Si5 0.746123 0.492245 0.170163
Si Si6 0.054923 0.254591 0.060082
Si Si7 0.397498 0.465153 0.952678
Si Si8 0.333449 0.524643 0.327496
O O1 0.194432 0.227690 0.750000
O O2 0.116453 0.232905 0.650121
O O3 0.248041 0.330969 0.659796
O O4 0.216298 0.200024 0.629604
O O5 0.666667 0.333334 0.250000
O O6 0.586728 0.293364 0.361042
O O7 0.576852 0.788426 0.044278
O O8 0.663399 0.739427 0.063827
O O9 0.541046 0.679491 0.125438
O O10 0.544925 0.671909 0.990922
O O11 0.923164 0.341011 0.250000
O O12 0.827692 0.293246 0.351584
O O13 0.954523 0.377839 0.380366
O O14 0.743285 0.486569 0.250000
O O15 0.122606 0.245211 0.049184
O O16 0.000000 0.216231 0.000000
O O17 0.451902 0.548099 0.939793
O O18 0.432393 0.432393 0.000000
O O19 0.334850 0.501777 0.250000
O O20 0.272290 0.544580 0.337733
O O21 0.407282 0.592719 0.348269
#
# Coordination Sequence:
#
# PCOD8330775 Si02
#       8
#    24   4  24  24  12  24  24  24
#     4  10  20  37  62  91 120 150 185 226 276 337
#     4   9  18  30  48  78 123 165 195 255 316 350
#     4  10  21  36  56  82 111 147 192 242 300 354
#     4  10  20  36  60  87 113 150 201 246 288 344
#     4   9  18  32  52  82 118 155 199 249 301 344
#     4  11  23  39  63  91 117 148 187 233 283 340
#     4  11  24  39  54  75 110 153 194 240 299 361
#     4   9  17  31  53  80 111 151 201 254 305 357
#
# _framework density 19.765837999999999
#
# number of rings (size 3 to 8) (size 9 to 14) (size 15 to 20)
#    0.000    1.950    0.750    3.300    2.100    3.000 
#    0.000    2.250    0.000    3.900    0.000    0.000 
#    0.000    0.000    0.000    0.000    0.000    0.000 
#
# Total GULP energy -1984126.499536 kJ/mol
# GULP energy per Si atom -12400.790622 kJ/mol
# Density = 1.972085 g / cm^3
# Si number density = 19.765838 Si / 1000 Ang^3
#
#
#
# Elastic Constant Matrix: (Units=GPa)
#
#
# Indices 1 2 3 4 5 6 
#
# 1 93.2540 40.7435 52.2042 0.0000 0.0000 -0.0001
# 2 40.7435 93.2542 52.2042 0.0000 0.0000 0.0001
# 3 52.2042 52.2042 121.3186 0.0000 0.0000 0.0000
# 4 0.0000 0.0000 0.0000 33.5235 0.0000 0.0000
# 5 0.0000 0.0000 0.0000 0.0000 33.5236 0.0000
# 6 -0.0001 0.0001 0.0000 0.0000 0.0000 26.2553
#
#
#
# Elastic Compliance Matrix: (Units=1/GPa)
#
#
# Indices 1 2 3 4 5 6 
#
# 1 0.015135 -0.003908 -0.004831 0.000000 0.000000 0.000000
# 2 -0.003908 0.015135 -0.004831 0.000000 0.000000 0.000000
# 3 -0.004831 -0.004831 0.012400 0.000000 0.000000 0.000000
# 4 0.000000 0.000000 0.000000 0.029830 0.000000 0.000000
# 5 0.000000 0.000000 0.000000 0.000000 0.029830 0.000000
# 6 0.000000 0.000000 0.000000 0.000000 0.000000 0.038087
#
#
# Mechanical properties :
#
#
# Convention : Reuss Voigt Hill
#
# Bulk Modulus (GPa) = 64.39027 66.45896 65.42461
# Shear Modulus (GPa) = 28.94587 29.50549 29.22568
#
# Velocity S-wave (km/s) = 3.83095 3.86781 3.84942
# Velocity P-wave (km/s) = 7.22603 7.32412 7.27524
#
# Compressibility (1/GPa) = 0.01553030
#
# Stress axis : x y z
#
# Youngs Moduli (GPa) = 66.06994 66.07015 80.64211
#
# Poissons Ratio (x) = 0.25822 0.38959
# Poissons Ratio (y) = 0.25822 0.38959
# Poissons Ratio (z) = 0.31919 0.31919
#
# Static dielectric constant tensor:
#      x y z
#    x 3.726720 0.000020 0.000000 
#    y 0.000020 3.726750 0.000000 
#    z 0.000000 0.000000 3.707650 
# 
# 
# High freq. dielectric constant tensor:
#      x y z
#    x 1.764200 0.000000 0.000000 
#    y 0.000000 1.764200 0.000000 
#    z 0.000000 0.000000 1.776510 
# 
# From -- ./inp_files/8429.got.cif
#   From: 2010.03.12/outbox.cif.g09.slc.cpg/sg194_5_cif.got.tgz:8429.got - 2010.04.01 12:26:19.
