data_PCOD8330749
_publ_section_title
;
Structure prediction by ZEFSAII (Michael W. Deem and Ramdas Pophale) SiO2 
 PCOD8330749
Probable space group: P 63/M M C
;
_chemical_formula_sum "Si O2"
_cell_formula_units_Z 72
_cell_length_a 17.258201
_cell_length_b 17.258201
_cell_length_c 14.962515
_cell_angle_alpha 90.000000
_cell_angle_beta 90.000000
_cell_angle_gamma 120.000000
_cell_volume 3859.457617
_symmetry_space_group_name_H-M "P 63/M M C"
_symmetry_group_IT_number 194
_symmetry_cell_setting 'hexagonal'
loop_
_space_group_symop_operation_xyz
x,y,z
x-y,x,1/2+z
-y,x-y,z
-x,-y,1/2+z
-x+y,-x,z
y,-x+y,1/2+z
x-y,-y,-z
-x,-x+y,-z
y,x,-z
-y,-x,1/2-z
-x+y,y,1/2-z
x,x-y,1/2-z
-x,-y,-z
-x+y,-x,1/2-z
y,-x+y,-z
x,y,1/2-z
x-y,x,-z
-y,x-y,1/2-z
-x+y,y,z
x,x-y,z
-y,-x,z
y,x,1/2+z
x-y,-y,1/2+z
-x,-x+y,1/2+z
loop_
_atom_site_type_symbol
_atom_site_label
_atom_site_fract_x
_atom_site_fract_y
_atom_site_fract_z
Si Si1 0.665283 0.504726 0.750000
Si Si2 0.692301 0.692301 0.000000
Si Si3 0.151555 0.664425 0.444514
Si Si4 0.179718 0.179772 0.646840
O O1 0.603430 0.396571 0.750000
O O2 0.768303 0.536606 0.750000
O O3 0.647040 0.539510 0.843901
O O4 0.594753 0.682759 0.991425
O O5 0.740309 0.746328 0.088717
O O6 0.154066 0.577033 0.478632
O O7 0.252178 0.747823 0.445398
O O8 0.205153 0.205368 0.750000
O O9 0.088399 0.176797 0.620944
O O10 0.166395 0.083197 0.624751
#
# Coordination Sequence:
#
# PCOD8330749 Si02
#       4
#    12  12  24  24
#     4   8  15  28  50  76 101 132 172 218 264 312
#     4  12  23  34  53  84 116 142 176 228 281 328
#     4  10  20  35  55  79 110 146 185 225 271 326
#     4  10  21  37  57  80 109 146 187 228 273 327
#
# _framework density 18.655470999999999
#
# number of rings (size 3 to 8) (size 9 to 14) (size 15 to 20)
#    0.000    2.000    0.000    4.333    2.333    4.000 
#    0.000    1.667    0.000    0.000    0.000    0.000 
#    0.000    2.667    0.000    0.000    0.000    0.000 
#
# Total GULP energy -892365.266910 kJ/mol
# GULP energy per Si atom -12393.962040 kJ/mol
# Density = 1.861301 g / cm^3
# Si number density = 18.655471 Si / 1000 Ang^3
#
#
#
# Elastic Constant Matrix: (Units=GPa)
#
#
# Indices 1 2 3 4 5 6 
#
# 1 119.2235 50.9098 32.2808 0.0000 0.0000 0.0000
# 2 50.9098 119.2235 32.2808 0.0000 0.0000 0.0000
# 3 32.2808 32.2808 43.8299 0.0000 0.0000 0.0000
# 4 0.0000 0.0000 0.0000 26.3384 0.0000 0.0000
# 5 0.0000 0.0000 0.0000 0.0000 26.3384 0.0000
# 6 0.0000 0.0000 0.0000 0.0000 0.0000 34.1568
#
#
#
# Elastic Compliance Matrix: (Units=1/GPa)
#
#
# Indices 1 2 3 4 5 6 
#
# 1 0.011398 -0.003240 -0.006008 0.000000 0.000000 0.000000
# 2 -0.003240 0.011398 -0.006008 0.000000 0.000000 0.000000
# 3 -0.006008 -0.006008 0.031666 0.000000 0.000000 0.000000
# 4 0.000000 0.000000 0.000000 0.037967 0.000000 0.000000
# 5 0.000000 0.000000 0.000000 0.000000 0.037967 0.000000
# 6 0.000000 0.000000 0.000000 0.000000 0.000000 0.029277
#
#
# Mechanical properties :
#
#
# Convention : Reuss Voigt Hill
#
# Bulk Modulus (GPa) = 41.75666 57.02441 49.39053
# Shear Modulus (GPa) = 25.23098 28.48710 26.85904
#
# Velocity S-wave (km/s) = 3.68159 3.91194 3.79851
# Velocity P-wave (km/s) = 6.36426 7.14408 6.76541
#
# Compressibility (1/GPa) = 0.02394828
#
# Stress axis : x y z
#
# Youngs Moduli (GPa) = 87.73443 87.73443 31.58005
#
# Poissons Ratio (x) = 0.28429 0.18974
# Poissons Ratio (y) = 0.28429 0.18974
# Poissons Ratio (z) = 0.52712 0.52712
#
# Static dielectric constant tensor:
#      x y z
#    x 3.368170 0.000000 0.000000 
#    y 0.000000 3.368170 0.000000 
#    z 0.000000 0.000000 3.533180 
# 
# 
# High freq. dielectric constant tensor:
#      x y z
#    x 1.721330 0.000000 0.000000 
#    y 0.000000 1.721330 0.000000 
#    z 0.000000 0.000000 1.714200 
# 
# From -- ./inp_files/4229.got.cif
#   From: 2010.03.12/outbox.cif.g09.slc.cpg/sg194_3_cif.got.tgz:4229.got - 2010.04.01 12:26:19.
