data_PCOD8330910
_publ_section_title
;
Structure prediction by ZEFSAII (Michael W. Deem and Ramdas Pophale) SiO2 
 PCOD8330910
Probable space group: P M 3
;
_chemical_formula_sum "Si O2"
_cell_formula_units_Z 148
_cell_length_a 21.916502
_cell_length_b 21.916502
_cell_length_c 21.916502
_cell_angle_alpha 90.000000
_cell_angle_beta 90.000000
_cell_angle_gamma 90.000000
_cell_volume 10527.220468
_symmetry_space_group_name_H-M "P M 3"
_symmetry_group_IT_number 200
_symmetry_cell_setting 'cubic'
loop_
_space_group_symop_operation_xyz
x,y,z
z,x,y
y,z,x
-y,-z,x
z,-x,-y
-y,z,-x
-z,-x,y
-z,x,-y
y,-z,-x
-x,-y,z
x,-y,-z
-x,y,-z
-x,-y,-z
-z,-x,-y
-y,-z,-x
y,z,-x
-z,x,y
y,-z,x
z,x,-y
z,-x,y
-y,z,x
x,y,-z
-x,y,z
x,-y,z
loop_
_atom_site_type_symbol
_atom_site_label
_atom_site_fract_x
_atom_site_fract_y
_atom_site_fract_z
Si Si1 0.266229 0.928432 0.567752
Si Si2 0.927571 0.225757 0.428957
Si Si3 0.151747 0.848254 0.848254
Si Si4 0.258495 0.201845 0.071924
Si Si5 0.669722 0.929744 0.316432
Si Si6 0.142596 0.889877 0.381779
Si Si7 0.071883 0.000000 0.431623
Si Si8 0.069251 0.930750 0.930751
O O1 0.292135 0.917057 0.500000
O O2 0.315130 0.901393 0.616587
O O3 0.201787 0.894907 0.575185
O O4 0.253574 0.000000 0.580768
O O5 0.910236 0.231719 0.500000
O O6 0.905127 0.286848 0.393158
O O7 0.890136 0.173268 0.395723
O O8 0.000000 0.214098 0.420813
O O9 0.107556 0.803434 0.811352
O O10 0.110387 0.889615 0.889615
O O11 0.271602 0.273351 0.081481
O O12 0.311465 0.161606 0.102928
O O13 0.252785 0.186001 0.000000
O O14 0.658917 0.000000 0.328162
O O15 0.093299 0.940861 0.396256
O O16 0.099170 0.000000 0.500000
O O17 0.000000 0.000000 0.433703
O O18 0.000000 0.925589 0.907730
#
# Coordination Sequence:
#
# PCOD8330910 Si02
#       8
#    24  24   8  24  24  24  12   8
#     4   9  15  25  44  63  76  97 132 173 206 230
#     4  10  19  29  42  60  84 113 139 159 192 248
#     4  12  21  31  52  66  78 102 141 171 216 273
#     4  10  20  34  47  63  85 108 135 175 213 256
#     4   8  16  30  43  58  82 108 129 158 198 237
#     4  11  18  30  43  59  85 109 137 167 201 243
#     4  11  20  28  40  60  86 110 130 160 200 239
#     4   9  19  37  54  63  72  87 120 183 246 282
#
# _framework density 14.058792
#
# number of rings (size 3 to 8) (size 9 to 14) (size 15 to 20)
#    0.000    2.189    1.622    4.541    0.000    1.297 
#    0.000    2.432    0.000    0.486    0.000    3.405 
#    0.000    0.000    0.000    0.000    0.000    0.000 
#
# Total GULP energy -1834287.264596 kJ/mol
# GULP energy per Si atom -12393.832869 kJ/mol
# Density = 1.402679 g / cm^3
# Si number density = 14.058792 Si / 1000 Ang^3
#
#
#
# Elastic Constant Matrix: (Units=GPa)
#
#
# Indices 1 2 3 4 5 6 
#
# 1 58.2875 33.2111 33.2304 0.0000 0.0000 0.0000
# 2 33.2111 58.2906 33.2251 0.0000 0.0000 0.0000
# 3 33.2304 33.2251 58.2784 0.0000 0.0000 0.0000
# 4 0.0000 0.0000 0.0000 16.5705 0.0000 0.0000
# 5 0.0000 0.0000 0.0000 0.0000 16.5736 0.0000
# 6 0.0000 0.0000 0.0000 0.0000 0.0000 16.5787
#
#
#
# Elastic Compliance Matrix: (Units=1/GPa)
#
#
# Indices 1 2 3 4 5 6 
#
# 1 0.029268 -0.010611 -0.010639 0.000000 0.000000 0.000000
# 2 -0.010611 0.029261 -0.010631 0.000000 0.000000 0.000000
# 3 -0.010639 -0.010631 0.029286 0.000000 0.000000 0.000000
# 4 0.000000 0.000000 0.000000 0.060348 0.000000 0.000000
# 5 0.000000 0.000000 0.000000 0.000000 0.060337 0.000000
# 6 0.000000 0.000000 0.000000 0.000000 0.000000 0.060318
#
#
# Mechanical properties :
#
#
# Convention : Reuss Voigt Hill
#
# Bulk Modulus (GPa) = 41.57663 41.57663 41.57663
# Shear Modulus (GPa) = 14.67999 14.95721 14.81860
#
# Velocity S-wave (km/s) = 3.23489 3.26529 3.25013
# Velocity P-wave (km/s) = 6.60230 6.62222 6.61227
#
# Compressibility (1/GPa) = 0.02405197
#
# Stress axis : x y z
#
# Youngs Moduli (GPa) = 34.16722 34.17522 34.14545
#
# Poissons Ratio (x) = 0.36264 0.36327
# Poissons Ratio (y) = 0.36256 0.36301
# Poissons Ratio (z) = 0.36351 0.36333
#
# Static dielectric constant tensor:
#      x y z
#    x 2.777040 0.000000 0.000000 
#    y 0.000000 2.777010 0.000000 
#    z 0.000000 0.000000 2.776960 
# 
# 
# High freq. dielectric constant tensor:
#      x y z
#    x 1.523920 0.000000 0.000000 
#    y 0.000000 1.523920 0.000000 
#    z 0.000000 0.000000 1.523920 
# 
# From -- ./inp_files/589.got.cif
#   From: 2010.03.12/outbox.cif.g09.slc.cpg/sg200_cif.got.tgz:589.got - 2010.03.30 09:01:43.
