data_PCOD8330602
_publ_section_title
;
Structure prediction by ZEFSAII (Michael W. Deem and Ramdas Pophale) SiO2 
 PCOD8330602
Probable space group: P 63/M M C
;
_chemical_formula_sum "Si O2"
_cell_formula_units_Z 168
_cell_length_a 21.187720
_cell_length_b 21.187720
_cell_length_c 22.954035
_cell_angle_alpha 90.000000
_cell_angle_beta 90.000000
_cell_angle_gamma 120.000000
_cell_volume 8923.970403
_symmetry_space_group_name_H-M "P 63/M M C"
_symmetry_group_IT_number 194
_symmetry_cell_setting 'hexagonal'
loop_
_space_group_symop_operation_xyz
x,y,z
x-y,x,1/2+z
-y,x-y,z
-x,-y,1/2+z
-x+y,-x,z
y,-x+y,1/2+z
x-y,-y,-z
-x,-x+y,-z
y,x,-z
-y,-x,1/2-z
-x+y,y,1/2-z
x,x-y,1/2-z
-x,-y,-z
-x+y,-x,1/2-z
y,-x+y,-z
x,y,1/2-z
x-y,x,-z
-y,x-y,1/2-z
-x+y,y,z
x,x-y,z
-y,-x,z
y,x,1/2+z
x-y,-y,1/2+z
-x,-x+y,1/2+z
loop_
_atom_site_type_symbol
_atom_site_label
_atom_site_fract_x
_atom_site_fract_y
_atom_site_fract_z
Si Si1 0.856883 0.000658 0.316631
Si Si2 0.665119 0.480436 0.421476
Si Si3 0.740464 0.118246 0.885115
Si Si4 0.290344 0.434232 0.687434
Si Si5 0.252829 0.290540 0.627209
Si Si6 0.301010 0.920815 0.987070
Si Si7 0.666901 0.187994 0.816747
O O1 0.829602 0.997116 0.250000
O O2 0.942989 0.057011 0.320647
O O3 0.817470 0.029813 0.360490
O O4 0.842523 0.921262 0.336397
O O5 0.737613 0.475225 0.422718
O O6 0.597996 0.402004 0.435671
O O7 0.653215 0.510233 0.359834
O O8 0.669561 0.537146 0.469066
O O9 0.820269 0.179732 0.862687
O O10 0.680587 0.137659 0.861575
O O11 0.718291 0.040391 0.858969
O O12 0.745034 0.114839 0.954953
O O13 0.330319 0.449474 0.750000
O O14 0.225536 0.451072 0.691620
O O15 0.256415 0.349818 0.671762
O O16 0.251254 0.319694 0.561748
O O17 0.370724 0.000000 0.000000
O O18 0.667438 0.163377 0.750000
O O19 0.589573 0.179146 0.833329
O O20 0.727838 0.272163 0.824987
#
# Coordination Sequence:
#
# PCOD8330602 Si02
#       7
#    24  24  24  24  24  24  24
#     4  10  20  33  51  78 112 146 178 215 262 317
#     4  10  20  34  53  77 105 135 168 210 260 313
#     4  10  20  34  52  76 105 133 166 213 264 311
#     4   9  18  33  52  73  98 130 170 213 252 296
#     4  10  19  33  53  76 100 134 177 218 261 309
#     4   9  20  37  55  75 100 134 176 222 265 308
#     4   9  18  33  53  76 103 136 171 206 249 307
#
# _framework density 18.825702
#
# number of rings (size 3 to 8) (size 9 to 14) (size 15 to 20)
#    0.000    2.429    0.000    2.143    0.000    6.286 
#    0.000    7.143    0.000    2.571    0.000    0.000 
#    0.000   11.429    0.000    0.000    0.000    0.000 
#
# Total GULP energy -2082429.033824 kJ/mol
# GULP energy per Si atom -12395.410916 kJ/mol
# Density = 1.878285 g / cm^3
# Si number density = 18.825702 Si / 1000 Ang^3
#
#
#
# Elastic Constant Matrix: (Units=GPa)
#
#
# Indices 1 2 3 4 5 6 
#
# 1 84.4504 27.5340 21.0763 0.0000 0.0000 0.0000
# 2 27.5340 84.4504 21.0763 0.0000 0.0000 0.0000
# 3 21.0763 21.0763 62.7481 0.0000 0.0000 0.0000
# 4 0.0000 0.0000 0.0000 23.0791 0.0000 0.0000
# 5 0.0000 0.0000 0.0000 0.0000 23.0791 0.0000
# 6 0.0000 0.0000 0.0000 0.0000 0.0000 28.4582
#
#
#
# Elastic Compliance Matrix: (Units=1/GPa)
#
#
# Indices 1 2 3 4 5 6 
#
# 1 0.013896 -0.003674 -0.003434 0.000000 0.000000 0.000000
# 2 -0.003674 0.013896 -0.003434 0.000000 0.000000 0.000000
# 3 -0.003434 -0.003434 0.018243 0.000000 0.000000 0.000000
# 4 0.000000 0.000000 0.000000 0.043329 0.000000 0.000000
# 5 0.000000 0.000000 0.000000 0.000000 0.043329 0.000000
# 6 0.000000 0.000000 0.000000 0.000000 0.000000 0.035139
#
#
# Mechanical properties :
#
#
# Convention : Reuss Voigt Hill
#
# Bulk Modulus (GPa) = 40.07422 41.22467 40.64944
# Shear Modulus (GPa) = 25.35082 25.72077 25.53579
#
# Velocity S-wave (km/s) = 3.67360 3.70030 3.68697
# Velocity P-wave (km/s) = 6.27112 6.34050 6.30590
#
# Compressibility (1/GPa) = 0.02495370
#
# Stress axis : x y z
#
# Youngs Moduli (GPa) = 71.96346 71.96346 54.81462
#
# Poissons Ratio (x) = 0.26437 0.18821
# Poissons Ratio (y) = 0.26437 0.18821
# Poissons Ratio (z) = 0.24709 0.24709
#
# Static dielectric constant tensor:
#      x y z
#    x 3.372130 0.000000 0.000000 
#    y 0.000000 3.372130 0.000000 
#    z 0.000000 0.000000 3.657550 
# 
# 
# High freq. dielectric constant tensor:
#      x y z
#    x 1.725550 0.000000 0.000000 
#    y 0.000000 1.725550 0.000000 
#    z 0.000000 0.000000 1.729880 
# 
# From -- ./inp_files/9832.got.cif
#   From: 2010.03.12/outbox.cif.g09.slc.cpg/sg194_5_cif.got.tgz:9832.got - 2010.04.01 12:26:19.
