data_PCOD8330358
_publ_section_title
;
Structure prediction by ZEFSAII (Michael W. Deem and Ramdas Pophale) SiO2 
 PCOD8330358
Probable space group: P 63/M M C
;
_chemical_formula_sum "Si O2"
_cell_formula_units_Z 144
_cell_length_a 18.895700
_cell_length_b 18.895700
_cell_length_c 27.905824
_cell_angle_alpha 90.000000
_cell_angle_beta 90.000000
_cell_angle_gamma 120.000000
_cell_volume 8628.820862
_symmetry_space_group_name_H-M "P 63/M M C"
_symmetry_group_IT_number 194
_symmetry_cell_setting 'hexagonal'
loop_
_space_group_symop_operation_xyz
x,y,z
x-y,x,1/2+z
-y,x-y,z
-x,-y,1/2+z
-x+y,-x,z
y,-x+y,1/2+z
x-y,-y,-z
-x,-x+y,-z
y,x,-z
-y,-x,1/2-z
-x+y,y,1/2-z
x,x-y,1/2-z
-x,-y,-z
-x+y,-x,1/2-z
y,-x+y,-z
x,y,1/2-z
x-y,x,-z
-y,x-y,1/2-z
-x+y,y,z
x,x-y,z
-y,-x,z
y,x,1/2+z
x-y,-y,1/2+z
-x,-x+y,1/2+z
loop_
_atom_site_type_symbol
_atom_site_label
_atom_site_fract_x
_atom_site_fract_y
_atom_site_fract_z
Si Si1 0.459872 0.376247 0.382705
Si Si2 0.744261 0.093104 0.193951
Si Si3 0.504231 0.333069 0.021109
Si Si4 0.911856 0.668411 0.694253
Si Si5 0.542821 0.926484 0.434258
Si Si6 0.334129 0.506276 0.344114
O O1 0.535828 0.464173 0.366702
O O2 0.428565 0.317965 0.336413
O O3 0.487471 0.334288 0.422843
O O4 0.384253 0.382287 0.406689
O O5 0.722954 0.093092 0.250000
O O6 0.837504 0.162496 0.183082
O O7 0.732339 0.004818 0.178104
O O8 0.499549 0.249775 0.007703
O O9 0.593473 0.406528 0.007123
O O10 0.438191 0.340774 0.986691
O O11 0.905743 0.677398 0.750000
O O12 0.843069 0.686138 0.669744
O O13 0.891223 0.576248 0.683327
O O14 0.479274 0.958548 0.442041
O O15 0.506726 0.846280 0.400809
O O16 0.264816 0.529633 0.334515
O O17 0.420199 0.579802 0.324634
#
# Coordination Sequence:
#
# PCOD8330358 Si02
#       6
#    24  24  24  24  24  24
#     4  10  19  32  48  69  96 127 164 205 249 293
#     4  10  20  34  53  75  96 121 159 205 249 295
#     4  10  19  30  45  64  91 126 165 207 248 289
#     4   9  18  32  49  68  92 123 156 192 240 297
#     4   9  17  29  44  63  88 122 160 196 235 280
#     4  10  18  28  43  66  96 128 162 196 230 273
#
# _framework density 16.68826
#
# number of rings (size 3 to 8) (size 9 to 14) (size 15 to 20)
#    0.000    2.333    1.667    1.833    0.000    2.667 
#    0.000    3.333    0.000    1.667    0.000    2.333 
#    0.000    0.000    0.000    0.000    0.000    6.167 
#
# Total GULP energy -1784310.980179 kJ/mol
# GULP energy per Si atom -12391.048473 kJ/mol
# Density = 1.665028 g / cm^3
# Si number density = 16.688260 Si / 1000 Ang^3
#
#
#
# Elastic Constant Matrix: (Units=GPa)
#
#
# Indices 1 2 3 4 5 6 
#
# 1 90.6803 50.5537 28.2967 0.0000 0.0000 0.0000
# 2 50.5537 90.6803 28.2967 0.0000 0.0000 0.0000
# 3 28.2967 28.2967 46.1017 0.0000 0.0000 0.0000
# 4 0.0000 0.0000 0.0000 20.8162 0.0000 0.0000
# 5 0.0000 0.0000 0.0000 0.0000 20.8162 0.0000
# 6 0.0000 0.0000 0.0000 0.0000 0.0000 20.0633
#
#
#
# Elastic Compliance Matrix: (Units=1/GPa)
#
#
# Indices 1 2 3 4 5 6 
#
# 1 0.017156 -0.007766 -0.005763 0.000000 0.000000 0.000000
# 2 -0.007766 0.017156 -0.005763 0.000000 0.000000 0.000000
# 3 -0.005763 -0.005763 0.028766 0.000000 0.000000 0.000000
# 4 0.000000 0.000000 0.000000 0.048039 0.000000 0.000000
# 5 0.000000 0.000000 0.000000 0.000000 0.048039 0.000000
# 6 0.000000 0.000000 0.000000 0.000000 0.000000 0.049842
#
#
# Mechanical properties :
#
#
# Convention : Reuss Voigt Hill
#
# Bulk Modulus (GPa) = 40.82904 49.08403 44.95654
# Shear Modulus (GPa) = 19.55055 20.36017 19.95536
#
# Velocity S-wave (km/s) = 3.42645 3.49668 3.46175
# Velocity P-wave (km/s) = 6.33821 6.76598 6.55559
#
# Compressibility (1/GPa) = 0.02449237
#
# Stress axis : x y z
#
# Youngs Moduli (GPa) = 58.29031 58.29031 34.76302
#
# Poissons Ratio (x) = 0.45266 0.20035
# Poissons Ratio (y) = 0.45266 0.20035
# Poissons Ratio (z) = 0.33595 0.33595
#
# Static dielectric constant tensor:
#      x y z
#    x 3.123030 0.000000 0.000000 
#    y 0.000000 3.123030 0.000000 
#    z 0.000000 0.000000 3.166680 
# 
# 
# High freq. dielectric constant tensor:
#      x y z
#    x 1.623430 0.000000 0.000000 
#    y 0.000000 1.623430 0.000000 
#    z 0.000000 0.000000 1.643050 
# 
# From -- ./inp_files/10951.got.cif
#   From: 2010.03.12/outbox.cif.g09.slc.cpg/sg194_6_cif.got.tgz:10951.got - 2010.04.01 12:26:19.
