data_PCOD8330756
_publ_section_title
;
Structure prediction by ZEFSAII (Michael W. Deem and Ramdas Pophale) SiO2 
 PCOD8330756
Probable space group: P 63/M M C
;
_chemical_formula_sum "Si O2"
_cell_formula_units_Z 144
_cell_length_a 21.365500
_cell_length_b 21.365500
_cell_length_c 19.877149
_cell_angle_alpha 90.000000
_cell_angle_beta 90.000000
_cell_angle_gamma 120.000000
_cell_volume 7857.978684
_symmetry_space_group_name_H-M "P 63/M M C"
_symmetry_group_IT_number 194
_symmetry_cell_setting 'hexagonal'
loop_
_space_group_symop_operation_xyz
x,y,z
x-y,x,1/2+z
-y,x-y,z
-x,-y,1/2+z
-x+y,-x,z
y,-x+y,1/2+z
x-y,-y,-z
-x,-x+y,-z
y,x,-z
-y,-x,1/2-z
-x+y,y,1/2-z
x,x-y,1/2-z
-x,-y,-z
-x+y,-x,1/2-z
y,-x+y,-z
x,y,1/2-z
x-y,x,-z
-y,x-y,1/2-z
-x+y,y,z
x,x-y,z
-y,-x,z
y,x,1/2+z
x-y,-y,1/2+z
-x,-x+y,1/2+z
loop_
_atom_site_type_symbol
_atom_site_label
_atom_site_fract_x
_atom_site_fract_y
_atom_site_fract_z
Si Si1 0.051154 0.802823 0.438944
Si Si2 0.542543 0.940514 0.172848
Si Si3 0.427376 0.330435 0.327996
Si Si4 0.206641 0.269293 0.827629
Si Si5 0.584305 0.719954 0.063339
Si Si6 0.332860 0.811766 0.944458
O O1 0.115537 0.884463 0.433644
O O2 0.079964 0.747544 0.452434
O O3 0.000000 0.797301 0.500000
O O4 0.007681 0.784434 0.369377
O O5 0.554633 0.926560 0.250000
O O6 0.461702 0.923403 0.159843
O O7 0.556969 0.887364 0.128290
O O8 0.597316 0.023167 0.153662
O O9 0.445501 0.328163 0.250000
O O10 0.351843 0.260778 0.348263
O O11 0.490937 0.329966 0.369906
O O12 0.217697 0.257014 0.750000
O O13 0.125710 0.251419 0.843012
O O14 0.571696 0.785848 0.080560
O O15 0.539621 0.676726 0.997942
O O16 0.408570 0.817139 0.958869
O O17 0.270905 0.729096 0.952099
#
# Coordination Sequence:
#
# PCOD8330756 Si02
#       6
#    24  24  24  24  24  24
#     4  11  22  37  58  84 114 145 182 230 278 328
#     4  10  20  35  56  83 116 149 180 222 278 335
#     4  10  20  36  57  83 112 143 182 229 280 331
#     4  10  20  36  60  87 115 147 182 224 275 331
#     4  10  22  37  56  83 111 144 187 235 282 326
#     4  11  23  38  55  76 107 148 192 233 275 327
#
# _framework density 18.325323000000001
#
# number of rings (size 3 to 8) (size 9 to 14) (size 15 to 20)
#    0.000    1.667    1.667    3.167    0.000    4.000 
#    0.000    3.333    0.000    4.333    0.000    0.000 
#    0.000    0.000    0.000    0.000    0.000    0.000 
#
# Total GULP energy -1786463.255805 kJ/mol
# GULP energy per Si atom -12405.994832 kJ/mol
# Density = 1.828361 g / cm^3
# Si number density = 18.325323 Si / 1000 Ang^3
#
#
#
# Elastic Constant Matrix: (Units=GPa)
#
#
# Indices 1 2 3 4 5 6 
#
# 1 101.3607 49.1563 51.1198 0.0000 0.0000 0.0000
# 2 49.1563 101.3607 51.1198 0.0000 0.0000 0.0000
# 3 51.1198 51.1198 89.6145 0.0000 0.0000 0.0000
# 4 0.0000 0.0000 0.0000 30.6751 0.0000 0.0000
# 5 0.0000 0.0000 0.0000 0.0000 30.6751 0.0000
# 6 0.0000 0.0000 0.0000 0.0000 0.0000 26.1022
#
#
#
# Elastic Compliance Matrix: (Units=1/GPa)
#
#
# Indices 1 2 3 4 5 6 
#
# 1 0.015001 -0.004154 -0.006187 0.000000 0.000000 0.000000
# 2 -0.004154 0.015001 -0.006187 0.000000 0.000000 0.000000
# 3 -0.006187 -0.006187 0.018218 0.000000 0.000000 0.000000
# 4 0.000000 0.000000 0.000000 0.032600 0.000000 0.000000
# 5 0.000000 0.000000 0.000000 0.000000 0.032600 0.000000
# 6 0.000000 0.000000 0.000000 0.000000 0.000000 0.038311
#
#
# Mechanical properties :
#
#
# Convention : Reuss Voigt Hill
#
# Bulk Modulus (GPa) = 65.95553 66.12531 66.04042
# Shear Modulus (GPa) = 26.33762 26.88646 26.61204
#
# Velocity S-wave (km/s) = 3.79519 3.83453 3.81491
# Velocity P-wave (km/s) = 7.43466 7.46775 7.45122
#
# Compressibility (1/GPa) = 0.01516173
#
# Stress axis : x y z
#
# Youngs Moduli (GPa) = 66.66221 66.66221 54.89108
#
# Poissons Ratio (x) = 0.27695 0.33963
# Poissons Ratio (y) = 0.27695 0.33963
# Poissons Ratio (z) = 0.41246 0.41246
#
# Static dielectric constant tensor:
#      x y z
#    x 3.355820 0.000000 0.000000 
#    y 0.000000 3.355820 0.000000 
#    z 0.000000 0.000000 3.401940 
# 
# 
# High freq. dielectric constant tensor:
#      x y z
#    x 1.708380 0.000000 0.000000 
#    y 0.000000 1.708380 0.000000 
#    z 0.000000 0.000000 1.719050 
# 
# From -- ./inp_files/8191.got.cif
#   From: 2010.03.12/outbox.cif.g09.slc.cpg/sg194_5_cif.got.tgz:8191.got - 2010.04.01 12:26:19.
