data_PCOD8330214
_publ_section_title
;
Structure prediction by ZEFSAII (Michael W. Deem and Ramdas Pophale) SiO2 
 PCOD8330214
Probable space group: P 63/M C M
;
_chemical_formula_sum "Si O2"
_cell_formula_units_Z 104
_cell_length_a 19.190019
_cell_length_b 19.190019
_cell_length_c 17.590408
_cell_angle_alpha 90.000000
_cell_angle_beta 90.000000
_cell_angle_gamma 120.000000
_cell_volume 5609.928860
_symmetry_space_group_name_H-M "P 63/M C M"
_symmetry_group_IT_number 193
_symmetry_cell_setting 'hexagonal'
loop_
_space_group_symop_operation_xyz
x,y,z
x-y,x,1/2+z
-y,x-y,z
-x,-y,1/2+z
-x+y,-x,z
y,-x+y,1/2+z
x-y,-y,1/2-z
-x,-x+y,1/2-z
y,x,1/2-z
-y,-x,-z
-x+y,y,-z
x,x-y,-z
-x,-y,-z
-x+y,-x,1/2-z
y,-x+y,-z
x,y,1/2-z
x-y,x,-z
-y,x-y,1/2-z
-x+y,y,1/2+z
x,x-y,1/2+z
-y,-x,1/2+z
y,x,z
x-y,-y,z
-x,-x+y,z
loop_
_atom_site_type_symbol
_atom_site_label
_atom_site_fract_x
_atom_site_fract_y
_atom_site_fract_z
Si Si1 0.666668 0.333334 0.838339
Si Si2 0.234385 0.910193 0.467221
Si Si3 0.402886 0.820989 0.087757
Si Si4 0.431397 0.248506 0.661771
Si Si5 0.667719 0.090183 0.105765
O O1 0.666667 0.333334 0.750000
O O2 0.591826 0.250518 0.868441
O O3 0.145357 0.854643 0.500000
O O4 0.239794 0.886606 0.380549
O O5 0.298814 0.900948 0.519748
O O6 0.249891 0.000000 0.468186
O O7 0.325053 0.820834 0.120158
O O8 0.488706 0.901206 0.103711
O O9 0.399520 0.799039 0.000000
O O10 0.431525 0.269846 0.750000
O O11 0.426742 0.162011 0.656323
O O12 0.639822 0.000000 0.137636
#
# Coordination Sequence:
#
# PCOD8330214 Si02
#       5
#     8  24  24  24  24
#     4  12  25  35  52  81 109 143 193 246 286 338
#     4   9  19  38  61  85 112 149 190 230 277 341
#     4  12  22  36  58  80 105 151 196 240 288 343
#     4  11  23  37  55  83 116 149 190 243 294 339
#     4  10  22  39  59  81 110 151 196 239 284 344
#
# _framework density 18.538558999999999
#
# number of rings (size 3 to 8) (size 9 to 14) (size 15 to 20)
#    0.000    1.385    4.615    1.385    0.000    3.231 
#    0.000    0.000    0.000    0.231    0.000    0.000 
#    0.000    0.000    0.000    0.692    0.000    0.000 
#
# Total GULP energy -1288417.798935 kJ/mol
# GULP energy per Si atom -12388.632682 kJ/mol
# Density = 1.849636 g / cm^3
# Si number density = 18.538559 Si / 1000 Ang^3
#
#
#
# Elastic Constant Matrix: (Units=GPa)
#
#
# Indices 1 2 3 4 5 6 
#
# 1 115.6174 63.3980 41.5551 0.0000 0.0000 0.0001
# 2 63.3980 115.6171 41.5550 0.0000 0.0000 -0.0003
# 3 41.5551 41.5550 139.8791 0.0001 0.0000 0.0000
# 4 0.0000 0.0000 0.0001 16.6460 0.0000 0.0000
# 5 0.0000 0.0000 0.0000 0.0000 16.6460 0.0000
# 6 0.0001 -0.0003 0.0000 0.0000 0.0000 26.1094
#
#
#
# Elastic Compliance Matrix: (Units=1/GPa)
#
#
# Indices 1 2 3 4 5 6 
#
# 1 0.012815 -0.006335 -0.001925 0.000000 0.000000 0.000000
# 2 -0.006335 0.012815 -0.001925 0.000000 0.000000 0.000000
# 3 -0.001925 -0.001925 0.008293 0.000000 0.000000 0.000000
# 4 0.000000 0.000000 0.000000 0.060075 0.000000 0.000000
# 5 0.000000 0.000000 0.000000 0.000000 0.060074 0.000000
# 6 0.000000 0.000000 0.000000 0.000000 0.000000 0.038300
#
#
# Mechanical properties :
#
#
# Convention : Reuss Voigt Hill
#
# Bulk Modulus (GPa) = 73.78774 73.79219 73.78997
# Shear Modulus (GPa) = 23.01394 26.85398 24.93396
#
# Velocity S-wave (km/s) = 3.52719 3.81011 3.67137
# Velocity P-wave (km/s) = 7.51510 7.69721 7.60670
#
# Compressibility (1/GPa) = 0.01355239
#
# Stress axis : x y z
#
# Youngs Moduli (GPa) = 78.03412 78.03398 120.58662
#
# Poissons Ratio (x) = 0.49435 0.23213
# Poissons Ratio (y) = 0.49435 0.23213
# Poissons Ratio (z) = 0.15022 0.15022
#
# Static dielectric constant tensor:
#      x y z
#    x 3.386610 0.000000 0.000000 
#    y 0.000000 3.386610 0.000000 
#    z 0.000000 0.000000 3.353450 
# 
# 
# High freq. dielectric constant tensor:
#      x y z
#    x 1.704350 0.000000 0.000000 
#    y 0.000000 1.704350 0.000000 
#    z 0.000000 0.000000 1.714590 
# 
# From -- ./inp_files/3696.got.cif
#   From: 2010.03.12/outbox.cif.g09.slc.cpg/sg193_2_cif.got.tgz:3696.got - 2010.04.01 12:20:39.
