data_PCOD8330969
_publ_section_title
;
Structure prediction by ZEFSAII (Michael W. Deem and Ramdas Pophale) SiO2 
 PCOD8330969
Probable space group: I A 3
;
_chemical_formula_sum "Si O2"
_cell_formula_units_Z 248
_cell_length_a 22.941052
_cell_length_b 22.941052
_cell_length_c 22.941052
_cell_angle_alpha 90.000000
_cell_angle_beta 90.000000
_cell_angle_gamma 90.000000
_cell_volume 12073.689085
_symmetry_space_group_name_H-M "I A 3"
_symmetry_group_IT_number 206
_symmetry_cell_setting 'cubic'
loop_
_space_group_symop_operation_xyz
x,y,z
z,x,y
y,z,x
-y,1/2-z,x
z,-x,1/2-y
1/2-y,z,-x
-z,1/2-x,y
1/2-z,x,-y
y,-z,1/2-x
-x,1/2-y,z
x,-y,1/2-z
1/2-x,y,-z
-x,-y,-z
-z,-x,-y
-y,-z,-x
y,1/2+z,-x
-z,x,1/2+y
1/2+y,-z,x
z,1/2+x,-y
1/2+z,-x,y
-y,z,1/2+x
x,1/2+y,-z
-x,y,1/2+z
1/2+x,-y,z
1/2+x,1/2+y,1/2+z
1/2+z,1/2+x,1/2+y
1/2+y,1/2+z,1/2+x
1/2-y,-z,1/2+x
1/2+z,1/2-x,-y
-y,1/2+z,1/2-x
1/2-z,-x,1/2+y
-z,1/2+x,1/2-y
1/2+y,1/2-z,-x
1/2-x,-y,1/2+z
1/2+x,1/2-y,-z
-x,1/2+y,1/2-z
1/2-x,1/2-y,1/2-z
1/2-z,1/2-x,1/2-y
1/2-y,1/2-z,1/2-x
1/2+y,z,1/2-x
1/2-z,1/2+x,y
y,1/2-z,1/2+x
1/2+z,x,1/2-y
z,1/2-x,1/2+y
1/2-y,1/2+z,x
1/2+x,y,1/2-z
1/2-x,1/2+y,z
x,1/2-y,1/2+z
loop_
_atom_site_type_symbol
_atom_site_label
_atom_site_fract_x
_atom_site_fract_y
_atom_site_fract_z
Si Si1 0.180066 0.680065 0.819936
Si Si2 0.000000 0.250000 0.938334
Si Si3 0.071616 0.186280 0.740198
Si Si4 0.155758 0.411217 0.276368
Si Si5 0.600864 0.399137 0.899138
Si Si6 0.378464 0.724136 0.624072
Si Si7 0.701843 0.518868 0.592503
O O1 0.140314 0.640314 0.859688
O O2 0.151719 0.678782 0.756422
O O3 0.043571 0.284315 0.896647
O O4 0.035268 0.204670 0.978671
O O5 0.064755 0.234548 0.791696
O O6 0.129839 0.148451 0.750371
O O7 0.076874 0.214441 0.676434
O O8 0.013380 0.147602 0.732222
O O9 0.169743 0.403935 0.345163
O O10 0.597414 0.366593 0.962426
O O11 0.415751 0.760086 0.577236
#
# Coordination Sequence:
#
# PCOD8330969 Si02
#       7
#    16  24  48  48  16  48  48
#     4   9  18  33  52  97 129 154 199 249 307 383
#     4  10  24  42  58  84 124 164 218 264 328 376
#     4  11  22  36  62  93 130 173 203 255 327 391
#     4  11  21  38  60  90 131 167 205 256 318 408
#     4   9  21  42  60  85 113 151 219 282 313 377
#     4  11  20  36  61  90 131 168 207 251 321 391
#     4  10  24  40  60  88 119 166 217 270 319 377
#
# _framework density 20.540531999999999
#
# number of rings (size 3 to 8) (size 9 to 14) (size 15 to 20)
#    0.000    1.548    3.871    1.161    2.710    0.000 
#    0.000    1.935    0.000    0.000    0.000    1.355 
#    0.000    0.000    0.000    0.000    0.000    0.000 
#
# Total GULP energy -1536171.087613 kJ/mol
# GULP energy per Si atom -12388.476513 kJ/mol
# Density = 2.049378 g / cm^3
# Si number density = 20.540532 Si / 1000 Ang^3
#
#
#
# Elastic Constant Matrix: (Units=GPa)
#
#
# Indices 1 2 3 4 5 6 
#
# 1 88.4732 33.8117 33.8115 0.0000 0.0000 0.0000
# 2 33.8117 88.4739 33.8123 0.0000 0.0000 0.0000
# 3 33.8115 33.8123 88.4734 0.0000 0.0000 0.0000
# 4 0.0000 0.0000 0.0000 27.6699 0.0000 0.0000
# 5 0.0000 0.0000 0.0000 0.0000 27.6683 0.0000
# 6 0.0000 0.0000 0.0000 0.0000 0.0000 27.6697
#
#
#
# Elastic Compliance Matrix: (Units=1/GPa)
#
#
# Indices 1 2 3 4 5 6 
#
# 1 0.014332 -0.003963 -0.003963 0.000000 0.000000 0.000000
# 2 -0.003963 0.014332 -0.003963 0.000000 0.000000 0.000000
# 3 -0.003963 -0.003963 0.014332 0.000000 0.000000 0.000000
# 4 0.000000 0.000000 0.000000 0.036140 0.000000 0.000000
# 5 0.000000 0.000000 0.000000 0.000000 0.036142 0.000000
# 6 0.000000 0.000000 0.000000 0.000000 0.000000 0.036141
#
#
# Mechanical properties :
#
#
# Convention : Reuss Voigt Hill
#
# Bulk Modulus (GPa) = 52.03240 52.03240 52.03240
# Shear Modulus (GPa) = 27.53292 27.53392 27.53342
#
# Velocity S-wave (km/s) = 3.66515 3.66521 3.66518
# Velocity P-wave (km/s) = 6.58009 6.58014 6.58012
#
# Compressibility (1/GPa) = 0.01921880
#
# Stress axis : x y z
#
# Youngs Moduli (GPa) = 69.77562 69.77571 69.77540
#
# Poissons Ratio (x) = 0.27650 0.27649
# Poissons Ratio (y) = 0.27650 0.27651
# Poissons Ratio (z) = 0.27650 0.27651
#
# Static dielectric constant tensor:
#      x y z
#    x 3.904670 0.000000 0.000000 
#    y 0.000000 3.904660 0.000000 
#    z 0.000000 0.000000 3.904650 
# 
# 
# High freq. dielectric constant tensor:
#      x y z
#    x 1.797920 0.000000 0.000000 
#    y 0.000000 1.797920 0.000000 
#    z 0.000000 0.000000 1.797920 
# 
# From -- ./inp_files/587.got.cif
#   From: 2010.03.12/outbox.cif.g09.slc.cpg/sg206_cif.got.tgz:587.got - 2010.03.30 09:03:11.
