data_PCOD8330273
_publ_section_title
;
Structure prediction by ZEFSAII (Michael W. Deem and Ramdas Pophale) SiO2 
 PCOD8330273
Probable space group: P 63/M C M
;
_chemical_formula_sum "Si O2"
_cell_formula_units_Z 128
_cell_length_a 21.436206
_cell_length_b 21.436206
_cell_length_c 19.584747
_cell_angle_alpha 90.000000
_cell_angle_beta 90.000000
_cell_angle_gamma 120.000000
_cell_volume 7793.713576
_symmetry_space_group_name_H-M "P 63/M C M"
_symmetry_group_IT_number 193
_symmetry_cell_setting 'hexagonal'
loop_
_space_group_symop_operation_xyz
x,y,z
x-y,x,1/2+z
-y,x-y,z
-x,-y,1/2+z
-x+y,-x,z
y,-x+y,1/2+z
x-y,-y,1/2-z
-x,-x+y,1/2-z
y,x,1/2-z
-y,-x,-z
-x+y,y,-z
x,x-y,-z
-x,-y,-z
-x+y,-x,1/2-z
y,-x+y,-z
x,y,1/2-z
x-y,x,-z
-y,x-y,1/2-z
-x+y,y,1/2+z
x,x-y,1/2+z
-y,-x,1/2+z
y,x,z
x-y,-y,z
-x,-x+y,z
loop_
_atom_site_type_symbol
_atom_site_label
_atom_site_fract_x
_atom_site_fract_y
_atom_site_fract_z
Si Si1 0.328675 0.801703 0.669008
Si Si2 0.167727 0.442490 0.168855
Si Si3 0.279294 0.084277 0.328137
Si Si4 0.333334 0.666667 0.330961
Si Si5 0.520419 0.438852 0.668590
Si Si6 0.916689 0.082799 0.078383
O O1 0.323548 0.801299 0.750000
O O2 0.248949 0.776432 0.639298
O O3 0.350720 0.744263 0.642500
O O4 0.394923 0.879476 0.645169
O O5 0.170631 0.449388 0.250000
O O6 0.122534 0.360424 0.144827
O O7 0.127822 0.484593 0.140362
O O8 0.274791 0.104978 0.250000
O O9 0.235881 0.111360 0.374267
O O10 0.248508 0.000000 0.336623
O O11 0.333334 0.666668 0.250000
O O12 0.515337 0.436481 0.750000
O O13 0.478613 0.478613 0.638982
O O14 0.000000 0.109122 0.092201
O O15 0.871638 0.000000 0.099214
O O16 0.904301 0.095700 0.000000
#
# Coordination Sequence:
#
# PCOD8330273 Si02
#       6
#    24  24  24   8  24  24
#     4   9  14  20  31  47  67  96 135 172 207 247
#     4   9  15  23  35  50  73 107 140 168 203 247
#     4   9  17  28  41  60  87 116 143 169 201 247
#     4   9  12  18  30  45  63  90 130 170 205 246
#     4   9  15  21  30  45  66  94 130 170 207 242
#     4   9  17  30  48  67  85 106 136 175 214 248
#
# _framework density 16.423493000000001
#
# number of rings (size 3 to 8) (size 9 to 14) (size 15 to 20)
#    0.000    3.000    1.875    0.750    0.000    3.375 
#    0.000    0.938    0.000    4.500    0.000    0.000 
#    0.000    1.500    0.000    8.625    0.000    8.250 
#
# Total GULP energy -1585972.955798 kJ/mol
# GULP energy per Si atom -12390.413717 kJ/mol
# Density = 1.638611 g / cm^3
# Si number density = 16.423493 Si / 1000 Ang^3
#
#
#
# Elastic Constant Matrix: (Units=GPa)
#
#
# Indices 1 2 3 4 5 6 
#
# 1 124.3595 65.9057 21.5225 0.0000 0.0000 -0.0001
# 2 65.9057 124.3599 21.5224 0.0000 0.0000 0.0002
# 3 21.5225 21.5224 18.3404 0.0000 0.0000 -0.0001
# 4 0.0000 0.0000 0.0000 7.3346 0.0000 0.0000
# 5 0.0000 0.0000 0.0000 0.0000 7.3347 0.0000
# 6 -0.0001 0.0002 -0.0001 0.0000 0.0000 29.2272
#
#
#
# Elastic Compliance Matrix: (Units=1/GPa)
#
#
# Indices 1 2 3 4 5 6 
#
# 1 0.012132 -0.004976 -0.008397 0.000000 0.000000 0.000000
# 2 -0.004976 0.012131 -0.008397 0.000000 0.000000 0.000000
# 3 -0.008397 -0.008397 0.074232 0.000000 0.000000 0.000000
# 4 0.000000 0.000000 0.000000 0.136340 0.000000 0.000000
# 5 0.000000 0.000000 0.000000 0.000000 0.136338 0.000000
# 6 0.000000 0.000000 0.000000 0.000000 0.000000 0.034215
#
#
# Mechanical properties :
#
#
# Convention : Reuss Voigt Hill
#
# Bulk Modulus (GPa) = 18.19658 53.88455 36.04056
# Shear Modulus (GPa) = 10.70100 19.31993 15.01046
#
# Velocity S-wave (km/s) = 2.55535 3.43353 3.02646
# Velocity P-wave (km/s) = 4.45085 6.97133 5.84849
#
# Compressibility (1/GPa) = 0.05495538
#
# Stress axis : x y z
#
# Youngs Moduli (GPa) = 82.42979 82.43032 13.47121
#
# Poissons Ratio (x) = 0.41017 0.11312
# Poissons Ratio (y) = 0.41017 0.11312
# Poissons Ratio (z) = 0.69217 0.69216
#
# Static dielectric constant tensor:
#      x y z
#    x 3.299560 0.000000 0.000000 
#    y 0.000000 3.299550 0.000000 
#    z 0.000000 0.000000 2.466680 
# 
# 
# High freq. dielectric constant tensor:
#      x y z
#    x 1.638660 0.000000 0.000000 
#    y 0.000000 1.638660 0.000000 
#    z 0.000000 0.000000 1.549930 
# 
# From -- ./inp_files/6481.got.cif
#   From: 2010.03.12/outbox.cif.g09.slc.cpg/sg193_4_cif.got.tgz:6481.got - 2010.04.01 12:20:39.
