data_PCOD8330553
_publ_section_title
;
Structure prediction by ZEFSAII (Michael W. Deem and Ramdas Pophale) SiO2 
 PCOD8330553
Probable space group: P 63/M M C
;
_chemical_formula_sum "Si O2"
_cell_formula_units_Z 120
_cell_length_a 22.970729
_cell_length_b 22.970729
_cell_length_c 14.819138
_cell_angle_alpha 90.000000
_cell_angle_beta 90.000000
_cell_angle_gamma 120.000000
_cell_volume 6771.784522
_symmetry_space_group_name_H-M "P 63/M M C"
_symmetry_group_IT_number 194
_symmetry_cell_setting 'hexagonal'
loop_
_space_group_symop_operation_xyz
x,y,z
x-y,x,1/2+z
-y,x-y,z
-x,-y,1/2+z
-x+y,-x,z
y,-x+y,1/2+z
x-y,-y,-z
-x,-x+y,-z
y,x,-z
-y,-x,1/2-z
-x+y,y,1/2-z
x,x-y,1/2-z
-x,-y,-z
-x+y,-x,1/2-z
y,-x+y,-z
x,y,1/2-z
x-y,x,-z
-y,x-y,1/2-z
-x+y,y,z
x,x-y,z
-y,-x,z
y,x,1/2+z
x-y,-y,1/2+z
-x,-x+y,1/2+z
loop_
_atom_site_type_symbol
_atom_site_label
_atom_site_fract_x
_atom_site_fract_y
_atom_site_fract_z
Si Si1 0.570639 0.853204 0.584740
Si Si2 0.717959 0.923130 0.855612
Si Si3 0.582214 0.031757 0.750000
Si Si4 0.602035 0.663967 0.067503
Si Si5 0.277548 0.072339 0.644636
Si Si6 0.502419 0.629569 0.750000
O O1 0.569079 0.784540 0.570949
O O2 0.647491 0.913053 0.606386
O O3 0.548719 0.873938 0.491779
O O4 0.518790 0.843518 0.662378
O O5 0.705813 0.912729 0.750000
O O6 0.734660 0.867330 0.895319
O O7 0.780921 0.997092 0.877671
O O8 0.528656 0.057311 0.750000
O O9 0.625998 0.058164 0.659485
O O10 0.546270 0.952428 0.750000
O O11 0.660414 0.739483 0.088671
O O12 0.622839 0.622839 0.000000
O O13 0.295388 0.079086 0.750000
O O14 0.259702 0.129851 0.615146
O O15 0.423605 0.576396 0.750000
#
# Coordination Sequence:
#
# PCOD8330553 Si02
#       6
#    24  24  12  24  24  12
#     4  11  21  35  57  84 110 149 192 227 273 331
#     4   9  16  28  49  75 107 143 186 235 278 325
#     4  11  24  39  56  80 113 147 177 212 274 341
#     4  12  21  35  56  78 115 146 182 229 275 331
#     4  10  19  32  50  74 109 149 186 230 286 336
#     4  11  21  35  55  84 118 145 174 224 278 333
#
# _framework density 17.720586999999998
#
# number of rings (size 3 to 8) (size 9 to 14) (size 15 to 20)
#    0.000    1.400    6.000    0.900    0.000    1.200 
#    0.000    0.000    0.000    2.000    0.000    2.800 
#    0.000    0.800    0.000    0.400    0.000    0.400 
#
# Total GULP energy -1487127.137582 kJ/mol
# GULP energy per Si atom -12392.726147 kJ/mol
# Density = 1.768025 g / cm^3
# Si number density = 17.720587 Si / 1000 Ang^3
#
#
#
# Elastic Constant Matrix: (Units=GPa)
#
#
# Indices 1 2 3 4 5 6 
#
# 1 86.1906 38.3900 42.6703 0.0000 0.0000 0.0000
# 2 38.3900 86.1906 42.6703 0.0000 0.0000 0.0000
# 3 42.6703 42.6703 119.0331 0.0000 0.0000 0.0000
# 4 0.0000 0.0000 0.0000 8.9029 0.0000 0.0000
# 5 0.0000 0.0000 0.0000 0.0000 8.9029 0.0000
# 6 0.0000 0.0000 0.0000 0.0000 0.0000 23.9003
#
#
#
# Elastic Compliance Matrix: (Units=1/GPa)
#
#
# Indices 1 2 3 4 5 6 
#
# 1 0.015780 -0.005140 -0.003814 0.000000 0.000000 0.000000
# 2 -0.005140 0.015780 -0.003814 0.000000 0.000000 0.000000
# 3 -0.003814 -0.003814 0.011135 0.000000 0.000000 0.000000
# 4 0.000000 0.000000 0.000000 0.112323 0.000000 0.000000
# 5 0.000000 0.000000 0.000000 0.000000 0.112323 0.000000
# 6 0.000000 0.000000 0.000000 0.000000 0.000000 0.041840
#
#
# Mechanical properties :
#
#
# Convention : Reuss Voigt Hill
#
# Bulk Modulus (GPa) = 58.27975 59.87505 59.07740
# Shear Modulus (GPa) = 14.68693 19.52013 17.10353
#
# Velocity S-wave (km/s) = 2.88202 3.32256 3.11010
# Velocity P-wave (km/s) = 6.63583 6.97001 6.80497
#
# Compressibility (1/GPa) = 0.01715862
#
# Stress axis : x y z
#
# Youngs Moduli (GPa) = 63.37164 63.37164 89.80301
#
# Poissons Ratio (x) = 0.32575 0.34251
# Poissons Ratio (y) = 0.32575 0.34251
# Poissons Ratio (z) = 0.24170 0.24170
#
# Static dielectric constant tensor:
#      x y z
#    x 3.300220 0.000000 0.000000 
#    y 0.000000 3.300220 0.000000 
#    z 0.000000 0.000000 3.566570 
# 
# 
# High freq. dielectric constant tensor:
#      x y z
#    x 1.660280 0.000000 0.000000 
#    y 0.000000 1.660280 0.000000 
#    z 0.000000 0.000000 1.708190 
# 
# From -- ./inp_files/5167.got.cif
#   From: 2010.03.12/outbox.cif.g09.slc.cpg/sg194_3_cif.got.tgz:5167.got - 2010.04.01 12:26:19.
