data_PCOD8330976
_publ_section_title
;
Structure prediction by ZEFSAII (Michael W. Deem and Ramdas Pophale) SiO2 
 PCOD8330976
Probable space group: P 4 3 2 
;
_chemical_formula_sum "Si O2"
_cell_formula_units_Z 96
_cell_length_a 17.224686
_cell_length_b 17.224686
_cell_length_c 17.224686
_cell_angle_alpha 90.000000
_cell_angle_beta 90.000000
_cell_angle_gamma 90.000000
_cell_volume 5110.388779
_symmetry_space_group_name_H-M "P 4 3 2 "
_symmetry_group_IT_number 207
_symmetry_cell_setting 'cubic'
loop_
_space_group_symop_operation_xyz
x,y,z
-y,x,z
-x,-y,z
y,-x,z
x,-z,y
x,-y,-z
x,z,-y
z,y,-x
-x,y,-z
-z,y,x
z,x,y
y,z,x
-y,-z,x
z,-x,-y
-y,z,-x
-z,-x,y
-z,x,-y
y,-z,-x
y,x,-z
-y,-x,-z
-x,z,y
-x,-z,-y
z,-y,x
-z,-y,-x
loop_
_atom_site_type_symbol
_atom_site_label
_atom_site_fract_x
_atom_site_fract_y
_atom_site_fract_z
Si Si1 0.712129 0.162907 0.587715
Si Si2 0.287871 0.587715 0.837093
Si Si3 0.000000 0.256018 0.873653
Si Si4 0.588124 1.000000 0.213351
O O1 0.788182 0.211818 0.609897
O O2 0.641629 0.188942 0.641629
O O3 0.685718 0.179240 0.500000
O O4 0.731804 0.073450 0.600793
O O5 0.268196 0.600793 0.926550
O O6 0.000001 0.347749 0.854231
O O7 0.076571 0.236515 0.923430
O O8 0.000000 0.204134 0.795867
O O9 0.500000 0.000000 0.177671
#
# Coordination Sequence:
#
# PCOD8330976 Si02
#       4
#    24  24  24  24
#     4  10  20  34  53  76 104 137 172 212 256 304
#     4  10  20  34  53  76 104 137 172 212 256 304
#     4  11  23  38  57  79 105 138 176 218 260 304
#     4  10  21  36  53  78 108 135 169 212 257 307
#
# _framework density 18.785264000000002
#
# number of rings (size 3 to 8) (size 9 to 14) (size 15 to 20)
#    0.000    1.750    0.000    4.750    0.000    3.500 
#    0.000    6.250    0.000    6.500    0.000    0.000 
#    0.000    0.000    0.000   15.500    0.000    0.000 
#
# Total GULP energy -1190626.299939 kJ/mol
# GULP energy per Si atom -12402.357291 kJ/mol
# Density = 1.874251 g / cm^3
# Si number density = 18.785264 Si / 1000 Ang^3
#
#
#
# Elastic Constant Matrix: (Units=GPa)
#
#
# Indices 1 2 3 4 5 6 
#
# 1 105.4990 57.2686 57.2686 0.0000 0.0000 0.0000
# 2 57.2686 105.4990 57.2686 0.0000 0.0000 0.0000
# 3 57.2686 57.2686 105.4990 0.0000 0.0000 0.0000
# 4 0.0000 0.0000 0.0000 27.6318 0.0000 0.0000
# 5 0.0000 0.0000 0.0000 0.0000 27.6318 0.0000
# 6 0.0000 0.0000 0.0000 0.0000 0.0000 27.6318
#
#
#
# Elastic Compliance Matrix: (Units=1/GPa)
#
#
# Indices 1 2 3 4 5 6 
#
# 1 0.015337 -0.005396 -0.005396 0.000000 0.000000 0.000000
# 2 -0.005396 0.015337 -0.005396 0.000000 0.000000 0.000000
# 3 -0.005396 -0.005396 0.015337 0.000000 0.000000 0.000000
# 4 0.000000 0.000000 0.000000 0.036190 0.000000 0.000000
# 5 0.000000 0.000000 0.000000 0.000000 0.036190 0.000000
# 6 0.000000 0.000000 0.000000 0.000000 0.000000 0.036190
#
#
# Mechanical properties :
#
#
# Convention : Reuss Voigt Hill
#
# Bulk Modulus (GPa) = 73.34541 73.34541 73.34541
# Shear Modulus (GPa) = 26.10889 26.22518 26.16704
#
# Velocity S-wave (km/s) = 3.73213 3.74043 3.73628
# Velocity P-wave (km/s) = 7.59609 7.60153 7.59881
#
# Compressibility (1/GPa) = 0.01363412
#
# Stress axis : x y z
#
# Youngs Moduli (GPa) = 65.19991 65.19991 65.19991
#
# Poissons Ratio (x) = 0.35184 0.35184
# Poissons Ratio (y) = 0.35184 0.35184
# Poissons Ratio (z) = 0.35184 0.35184
#
# Static dielectric constant tensor:
#      x y z
#    x 3.404440 0.000000 0.000000 
#    y 0.000000 3.404440 0.000000 
#    z 0.000000 0.000000 3.404440 
# 
# 
# High freq. dielectric constant tensor:
#      x y z
#    x 1.729470 0.000000 0.000000 
#    y 0.000000 1.729470 0.000000 
#    z 0.000000 0.000000 1.729470 
# 
# From -- ./inp_files/286.got.cif
#   From: 2010.03.12/outbox.cif.g09.slc.cpg/sg207_cif.got.tgz:286.got - 2010.03.30 09:03:22.
