data_PCOD8330902
_publ_section_title
;
Structure prediction by ZEFSAII (Michael W. Deem and Ramdas Pophale) SiO2 
 PCOD8330902
Probable space group: I 21 3
;
_chemical_formula_sum "Si O2"
_cell_formula_units_Z 148
_cell_length_a 19.536768
_cell_length_b 19.536768
_cell_length_c 19.536768
_cell_angle_alpha 90.000000
_cell_angle_beta 90.000000
_cell_angle_gamma 90.000000
_cell_volume 7456.897231
_symmetry_space_group_name_H-M "I 21 3"
_symmetry_group_IT_number 199
_symmetry_cell_setting 'cubic'
loop_
_space_group_symop_operation_xyz
x,y,z
z,x,y
y,z,x
-y,1/2-z,x
z,-x,1/2-y
1/2-y,z,-x
-z,1/2-x,y
1/2-z,x,-y
y,-z,1/2-x
-x,1/2-y,z
x,-y,1/2-z
1/2-x,y,-z
1/2+x,1/2+y,1/2+z
1/2+z,1/2+x,1/2+y
1/2+y,1/2+z,1/2+x
1/2-y,-z,1/2+x
1/2+z,1/2-x,-y
-y,1/2+z,1/2-x
1/2-z,-x,1/2+y
-z,1/2+x,1/2-y
1/2+y,1/2-z,-x
1/2-x,-y,1/2+z
1/2+x,1/2-y,-z
-x,1/2+y,1/2-z
loop_
_atom_site_type_symbol
_atom_site_label
_atom_site_fract_x
_atom_site_fract_y
_atom_site_fract_z
Si Si1 0.474544 0.974544 0.525458
Si Si2 0.017517 0.000000 0.750000
Si Si3 0.729542 0.924084 0.253187
Si Si4 0.163115 0.835876 0.158956
Si Si5 0.417424 0.125811 0.533676
Si Si6 0.081258 0.606991 0.726090
Si Si7 0.226609 0.924476 0.272632
Si Si8 0.120798 0.879203 0.379204
O O1 0.477995 0.946981 0.448830
O O2 0.426719 0.926719 0.573283
O O3 0.967642 0.938115 0.775558
O O4 0.059190 0.974743 0.682638
O O5 0.769944 0.872172 0.300788
O O6 0.734937 0.897363 0.175919
O O7 0.653697 0.930478 0.285126
O O8 0.762470 0.000000 0.250000
O O9 0.136743 0.881346 0.095333
O O10 0.215821 0.878721 0.204887
O O11 0.101122 0.812118 0.206697
O O12 0.384775 0.153972 0.461614
O O13 0.160015 0.924170 0.321905
O O14 0.242830 0.000000 0.250000
#
# Coordination Sequence:
#
# PCOD8330902 Si02
#       8
#     8  12  24  24  24  24  24   8
#     4  12  24  42  72  90 133 179 202 273 333 414
#     4   8  20  40  52  88 130 162 220 260 306 376
#     4  12  20  39  63  86 132 169 213 274 311 379
#     4  11  23  41  64  97 127 161 218 270 325 391
#     4  10  23  41  61  93 132 166 222 263 321 387
#     4  10  22  38  59  91 123 179 212 264 320 376
#     4  10  22  42  69  94 126 169 207 271 338 393
#     4   9  21  42  66  96 133 158 223 261 324 423
#
# _framework density 19.847397999999998
#
# number of rings (size 3 to 8) (size 9 to 14) (size 15 to 20)
#    0.973    0.649    2.432    2.595    1.135    3.892 
#    2.919    0.000    7.135    0.000    0.000    0.000 
#    0.000    0.000    0.000    0.000    0.000    0.000 
#
# Total GULP energy -916762.668498 kJ/mol
# GULP energy per Si atom -12388.684709 kJ/mol
# Density = 1.980222 g / cm^3
# Si number density = 19.847398 Si / 1000 Ang^3
#
#
#
# Elastic Constant Matrix: (Units=GPa)
#
#
# Indices 1 2 3 4 5 6 
#
# 1 97.0108 29.2970 29.2972 0.0000 0.0000 0.0000
# 2 29.2970 97.0100 29.2967 0.0000 0.0000 0.0000
# 3 29.2972 29.2967 97.0098 0.0000 0.0000 0.0000
# 4 0.0000 0.0000 0.0000 21.4041 0.0000 0.0000
# 5 0.0000 0.0000 0.0000 0.0000 21.4025 0.0000
# 6 0.0000 0.0000 0.0000 0.0000 0.0000 21.4032
#
#
#
# Elastic Compliance Matrix: (Units=1/GPa)
#
#
# Indices 1 2 3 4 5 6 
#
# 1 0.011988 -0.002781 -0.002781 0.000000 0.000000 0.000000
# 2 -0.002781 0.011988 -0.002781 0.000000 0.000000 0.000000
# 3 -0.002781 -0.002781 0.011988 0.000000 0.000000 0.000000
# 4 0.000000 0.000000 0.000000 0.046720 0.000000 0.000000
# 5 0.000000 0.000000 0.000000 0.000000 0.046723 0.000000
# 6 0.000000 0.000000 0.000000 0.000000 0.000000 0.046722
#
#
# Mechanical properties :
#
#
# Convention : Reuss Voigt Hill
#
# Bulk Modulus (GPa) = 51.86803 51.86803 51.86803
# Shear Modulus (GPa) = 25.09558 26.38460 25.74009
#
# Velocity S-wave (km/s) = 3.55974 3.65001 3.60516
# Velocity P-wave (km/s) = 6.56398 6.62975 6.59695
#
# Compressibility (1/GPa) = 0.01927970
#
# Stress axis : x y z
#
# Youngs Moduli (GPa) = 83.41972 83.41927 83.41897
#
# Poissons Ratio (x) = 0.23195 0.23195
# Poissons Ratio (y) = 0.23195 0.23195
# Poissons Ratio (z) = 0.23195 0.23195
#
# Static dielectric constant tensor:
#      x y z
#    x 3.561570 0.000000 0.000000 
#    y 0.000000 3.561590 0.000000 
#    z 0.000000 0.000000 3.561600 
# 
# 
# High freq. dielectric constant tensor:
#      x y z
#    x 1.769300 0.000000 0.000000 
#    y 0.000000 1.769300 0.000000 
#    z 0.000000 0.000000 1.769300 
# 
# From -- ./inp_files/709.got.cif
#   From: 2010.03.12/outbox.cif.g09.slc.cpg/sg199_cif.got.tgz:709.got - 2010.04.01 12:34:00.
