data_PCOD8330869
_publ_section_title
;
Structure prediction by ZEFSAII (Michael W. Deem and Ramdas Pophale) SiO2 
 PCOD8330869
Probable space group: P 2 3
;
_chemical_formula_sum "Si O2"
_cell_formula_units_Z 61
_cell_length_a 14.332729
_cell_length_b 14.332729
_cell_length_c 14.332729
_cell_angle_alpha 90.000000
_cell_angle_beta 90.000000
_cell_angle_gamma 90.000000
_cell_volume 2944.331249
_symmetry_space_group_name_H-M "P 2 3"
_symmetry_group_IT_number 195
_symmetry_cell_setting 'cubic'
loop_
_space_group_symop_operation_xyz
x,y,z
z,x,y
y,z,x
-y,-z,x
z,-x,-y
-y,z,-x
-z,-x,y
-z,x,-y
y,-z,-x
-x,-y,z
x,-y,-z
-x,y,-z
loop_
_atom_site_type_symbol
_atom_site_label
_atom_site_fract_x
_atom_site_fract_y
_atom_site_fract_z
Si Si1 0.948090 0.778775 0.842788
Si Si2 0.253163 0.260831 0.491411
Si Si3 0.625038 0.374962 0.374963
Si Si4 0.850997 0.149003 0.850998
Si Si5 0.279896 0.720105 0.720106
Si Si6 0.075931 0.419281 0.750384
Si Si7 0.500000 0.500000 0.500000
Si Si8 0.535168 0.904168 0.603863
O O1 0.921904 0.866429 0.774136
O O2 0.953405 0.677061 0.797465
O O3 0.052697 0.798951 0.878610
O O4 0.337493 0.291395 0.559837
O O5 0.285489 0.239685 0.385455
O O6 0.205655 0.169582 0.536917
O O7 0.177944 0.341308 0.486191
O O8 0.562515 0.437487 0.437487
O O9 0.785457 0.214545 0.785456
O O10 0.098969 0.392888 0.645334
O O11 0.000000 0.500000 0.759978
O O12 0.500000 0.894935 0.500000
O O13 0.500000 0.000000 0.649845
#
# Coordination Sequence:
#
# PCOD8330869 Si02
#       8
#    12  12   4   4   4  12   1  12
#     4  10  25  44  77 104 135 176 233 292 348 428
#     4  12  25  42  67  98 136 186 233 287 338 416
#     4  12  24  40  67  84 136 172 240 279 340 404
#     4  12  24  49  73 108 139 172 228 300 373 410
#     4  12  28  40  66 108 150 181 229 291 367 410
#     4  12  23  44  67 101 141 182 232 286 347 412
#     4  12  28  40  48  96 126 172 196 300 352 392
#     4  11  23  40  67  95 130 186 237 273 327 416
#
# _framework density 20.717777000000002
#
# number of rings (size 3 to 8) (size 9 to 14) (size 15 to 20)
#    0.393    0.197    3.934    5.311    4.131    0.000 
#    1.180    0.000    0.000    0.000    0.000    0.000 
#    0.000    0.000    0.000    0.000    0.000    0.000 
#
# Total GULP energy -756060.175388 kJ/mol
# GULP energy per Si atom -12394.429105 kJ/mol
# Density = 2.067062 g / cm^3
# Si number density = 20.717777 Si / 1000 Ang^3
#
#
#
# Elastic Constant Matrix: (Units=GPa)
#
#
# Indices 1 2 3 4 5 6 
#
# 1 103.4457 32.0485 32.0483 0.0000 0.0000 0.0000
# 2 32.0485 103.4455 32.0484 0.0000 0.0000 0.0000
# 3 32.0483 32.0484 103.4452 0.0000 0.0000 0.0000
# 4 0.0000 0.0000 0.0000 33.9097 0.0000 0.0000
# 5 0.0000 0.0000 0.0000 0.0000 33.9103 0.0000
# 6 0.0000 0.0000 0.0000 0.0000 0.0000 33.9094
#
#
#
# Elastic Compliance Matrix: (Units=1/GPa)
#
#
# Indices 1 2 3 4 5 6 
#
# 1 0.011327 -0.002679 -0.002679 0.000000 0.000000 0.000000
# 2 -0.002679 0.011327 -0.002679 0.000000 0.000000 0.000000
# 3 -0.002679 -0.002679 0.011327 0.000000 0.000000 0.000000
# 4 0.000000 0.000000 0.000000 0.029490 0.000000 0.000000
# 5 0.000000 0.000000 0.000000 0.000000 0.029490 0.000000
# 6 0.000000 0.000000 0.000000 0.000000 0.000000 0.029490
#
#
# Mechanical properties :
#
#
# Convention : Reuss Voigt Hill
#
# Bulk Modulus (GPa) = 55.84740 55.84740 55.84740
# Shear Modulus (GPa) = 34.60336 34.62531 34.61433
#
# Velocity S-wave (km/s) = 4.09127 4.09257 4.09192
# Velocity P-wave (km/s) = 7.02373 7.02474 7.02424
#
# Compressibility (1/GPa) = 0.01790594
#
# Stress axis : x y z
#
# Youngs Moduli (GPa) = 88.28491 88.28461 88.28451
#
# Poissons Ratio (x) = 0.23653 0.23653
# Poissons Ratio (y) = 0.23653 0.23653
# Poissons Ratio (z) = 0.23653 0.23653
#
# Static dielectric constant tensor:
#      x y z
#    x 3.817940 0.000000 0.000000 
#    y 0.000000 3.817960 0.000000 
#    z 0.000000 0.000000 3.817960 
# 
# 
# High freq. dielectric constant tensor:
#      x y z
#    x 1.813880 0.000000 0.000000 
#    y 0.000000 1.813880 0.000000 
#    z 0.000000 0.000000 1.813880 
# 
# From -- ./inp_files/438.got.cif
#   From: 2010.03.12/outbox.cif.g09.slc.cpg/sg195_cif.got.tgz:438.got - 2010.04.01 12:33:13.
