data_PCOD8330815
_publ_section_title
;
Structure prediction by ZEFSAII (Michael W. Deem and Ramdas Pophale) SiO2 
 PCOD8330815
Probable space group: P 63/M M C
;
_chemical_formula_sum "Si O2"
_cell_formula_units_Z 144
_cell_length_a 31.439303
_cell_length_b 31.439303
_cell_length_c 9.004462
_cell_angle_alpha 90.000000
_cell_angle_beta 90.000000
_cell_angle_gamma 120.000000
_cell_volume 7707.867136
_symmetry_space_group_name_H-M "P 63/M M C"
_symmetry_group_IT_number 194
_symmetry_cell_setting 'hexagonal'
loop_
_space_group_symop_operation_xyz
x,y,z
x-y,x,1/2+z
-y,x-y,z
-x,-y,1/2+z
-x+y,-x,z
y,-x+y,1/2+z
x-y,-y,-z
-x,-x+y,-z
y,x,-z
-y,-x,1/2-z
-x+y,y,1/2-z
x,x-y,1/2-z
-x,-y,-z
-x+y,-x,1/2-z
y,-x+y,-z
x,y,1/2-z
x-y,x,-z
-y,x-y,1/2-z
-x+y,y,z
x,x-y,z
-y,-x,z
y,x,1/2+z
x-y,-y,1/2+z
-x,-x+y,1/2+z
loop_
_atom_site_type_symbol
_atom_site_label
_atom_site_fract_x
_atom_site_fract_y
_atom_site_fract_z
Si Si1 0.707516 0.757011 0.075069
Si Si2 0.235327 0.568596 0.921318
Si Si3 0.146039 0.386874 0.426007
Si Si4 0.660968 0.143691 0.574612
Si Si5 0.574740 0.050037 0.077515
Si Si6 0.854585 0.805228 0.924673
O O1 0.704996 0.748710 0.250000
O O2 0.657441 0.752417 0.011831
O O3 0.751687 0.810538 0.029913
O O4 0.714710 0.714710 0.000000
O O5 0.221478 0.553406 0.750000
O O6 0.282115 0.564230 0.969933
O O7 0.248657 0.624329 0.947813
O O8 0.189387 0.533607 0.022581
O O9 0.146057 0.382342 0.250000
O O10 0.191427 0.382853 0.493637
O O11 0.152836 0.438869 0.474332
O O12 0.652771 0.137410 0.750000
O O13 0.621522 0.094387 0.496687
O O14 0.584878 0.046979 0.250000
O O15 0.529441 0.058881 0.051973
O O16 0.564888 0.000000 0.000000
O O17 0.856182 0.812795 0.750000
O O18 0.905017 0.810034 0.983812
O O19 0.847550 0.847550 0.000000
#
# Coordination Sequence:
#
# PCOD8330815 Si02
#       6
#    24  24  24  24  24  24
#     4   9  17  31  51  73  98 129 165 206 249 294
#     4  10  21  38  59  81 106 138 177 221 270 323
#     4   9  18  33  52  73 100 137 177 211 247 298
#     4  11  22  35  54  81 111 142 176 216 263 316
#     4  10  21  38  59  81 106 138 177 220 265 313
#     4   9  17  29  47  71  96 124 160 200 243 290
#
# _framework density 18.682210999999999
#
# number of rings (size 3 to 8) (size 9 to 14) (size 15 to 20)
#    0.000    2.333    0.000    2.667    0.000    8.000 
#    0.000    3.333    0.000    4.667    0.000    0.000 
#    0.000    0.000    0.000    0.000    0.000    0.000 
#
# Total GULP energy -1785988.631236 kJ/mol
# GULP energy per Si atom -12402.698828 kJ/mol
# Density = 1.863969 g / cm^3
# Si number density = 18.682211 Si / 1000 Ang^3
#
#
#
# Elastic Constant Matrix: (Units=GPa)
#
#
# Indices 1 2 3 4 5 6 
#
# 1 117.6546 52.7737 40.4791 0.0000 0.0000 0.0000
# 2 52.7737 117.6546 40.4791 0.0000 0.0000 0.0000
# 3 40.4791 40.4791 56.2406 0.0000 0.0000 0.0000
# 4 0.0000 0.0000 0.0000 29.0944 0.0000 0.0000
# 5 0.0000 0.0000 0.0000 0.0000 29.0944 0.0000
# 6 0.0000 0.0000 0.0000 0.0000 0.0000 32.4404
#
#
#
# Elastic Compliance Matrix: (Units=1/GPa)
#
#
# Indices 1 2 3 4 5 6 
#
# 1 0.012164 -0.003248 -0.006417 0.000000 0.000000 0.000000
# 2 -0.003248 0.012164 -0.006417 0.000000 0.000000 0.000000
# 3 -0.006417 -0.006417 0.027018 0.000000 0.000000 0.000000
# 4 0.000000 0.000000 0.000000 0.034371 0.000000 0.000000
# 5 0.000000 0.000000 0.000000 0.000000 0.034371 0.000000
# 6 0.000000 0.000000 0.000000 0.000000 0.000000 0.030826
#
#
# Mechanical properties :
#
#
# Convention : Reuss Voigt Hill
#
# Bulk Modulus (GPa) = 52.13420 62.11264 57.12342
# Shear Modulus (GPa) = 26.38882 28.64705 27.51794
#
# Velocity S-wave (km/s) = 3.76242 3.92010 3.84206
# Velocity P-wave (km/s) = 6.84403 7.33544 7.09399
#
# Compressibility (1/GPa) = 0.01918127
#
# Stress axis : x y z
#
# Youngs Moduli (GPa) = 82.20710 82.20710 37.01190
#
# Poissons Ratio (x) = 0.26705 0.23751
# Poissons Ratio (y) = 0.26705 0.23751
# Poissons Ratio (z) = 0.52754 0.52754
#
# Static dielectric constant tensor:
#      x y z
#    x 3.575800 0.000000 0.000000 
#    y 0.000000 3.575800 0.000000 
#    z 0.000000 0.000000 3.259770 
# 
# 
# High freq. dielectric constant tensor:
#      x y z
#    x 1.731590 0.000000 0.000000 
#    y 0.000000 1.731590 0.000000 
#    z 0.000000 0.000000 1.707520 
# 
# From -- ./inp_files/2127.got.cif
#   From: 2010.03.12/outbox.cif.g09.slc.cpg/sg194_2_cif.got.tgz:2127.got - 2010.04.01 12:26:19.
