data_PCOD8330774
_publ_section_title
;
Structure prediction by ZEFSAII (Michael W. Deem and Ramdas Pophale) SiO2 
 PCOD8330774
Probable space group: P 63/M M C
;
_chemical_formula_sum "Si O2"
_cell_formula_units_Z 100
_cell_length_a 26.079334
_cell_length_b 26.079334
_cell_length_c 9.503816
_cell_angle_alpha 90.000000
_cell_angle_beta 90.000000
_cell_angle_gamma 120.000000
_cell_volume 5597.854990
_symmetry_space_group_name_H-M "P 63/M M C"
_symmetry_group_IT_number 194
_symmetry_cell_setting 'hexagonal'
loop_
_space_group_symop_operation_xyz
x,y,z
x-y,x,1/2+z
-y,x-y,z
-x,-y,1/2+z
-x+y,-x,z
y,-x+y,1/2+z
x-y,-y,-z
-x,-x+y,-z
y,x,-z
-y,-x,1/2-z
-x+y,y,1/2-z
x,x-y,1/2-z
-x,-y,-z
-x+y,-x,1/2-z
y,-x+y,-z
x,y,1/2-z
x-y,x,-z
-y,x-y,1/2-z
-x+y,y,z
x,x-y,z
-y,-x,z
y,x,1/2+z
x-y,-y,1/2+z
-x,-x+y,1/2+z
loop_
_atom_site_type_symbol
_atom_site_label
_atom_site_fract_x
_atom_site_fract_y
_atom_site_fract_z
Si Si1 0.333334 0.666667 0.419961
Si Si2 0.333043 0.864763 0.912636
Si Si3 0.469701 0.939401 0.585183
Si Si4 0.174030 0.230903 0.413148
Si Si5 0.453250 0.726625 0.913374
Si Si6 0.241492 0.875912 0.413624
O O1 0.333334 0.666667 0.250000
O O2 0.300276 0.600551 0.478956
O O3 0.324771 0.873864 0.750000
O O4 0.401259 0.900295 0.957515
O O5 0.305342 0.795871 0.947679
O O6 0.299935 0.892263 0.999207
O O7 0.477226 0.954451 0.750000
O O8 0.500000 0.000000 0.500000
O O9 0.185851 0.185851 0.500000
O O10 0.176888 0.218496 0.250000
O O11 0.109391 0.218783 0.454732
O O12 0.222633 0.298308 0.449925
O O13 0.431899 0.715950 0.750000
O O14 0.255976 0.877286 0.250000
O O15 0.188900 0.811101 0.457147
#
# Coordination Sequence:
#
# PCOD8330774 Si02
#       6
#     4  24  12  24  12  24
#     4  12  25  35  49  78 109 137 178 222 271 347
#     4  10  20  36  59  80 100 134 182 225 267 322
#     4  10  23  40  54  74 105 142 182 220 260 318
#     4   9  19  35  54  80 113 147 179 216 264 310
#     4  10  20  37  59  80 105 137 173 228 287 325
#     4   9  18  33  53  78 110 139 166 212 271 321
#
# _framework density 17.863985
#
# number of rings (size 3 to 8) (size 9 to 14) (size 15 to 20)
#    0.000    2.400    1.200    2.520    0.000    6.240 
#    0.000    8.400    0.000    0.240    0.000    0.000 
#    0.000    0.000    0.000    0.000    0.000    0.000 
#
# Total GULP energy -1240176.453936 kJ/mol
# GULP energy per Si atom -12401.764539 kJ/mol
# Density = 1.782333 g / cm^3
# Si number density = 17.863985 Si / 1000 Ang^3
#
#
#
# Elastic Constant Matrix: (Units=GPa)
#
#
# Indices 1 2 3 4 5 6 
#
# 1 120.3105 72.0659 59.8257 0.0000 0.0000 0.0000
# 2 72.0659 120.3104 59.8257 0.0000 0.0000 0.0000
# 3 59.8257 59.8257 69.9539 0.0000 0.0000 0.0000
# 4 0.0000 0.0000 0.0000 35.4254 0.0000 0.0000
# 5 0.0000 0.0000 0.0000 0.0000 35.4255 0.0000
# 6 0.0000 0.0000 0.0000 0.0000 0.0000 24.1223
#
#
#
# Elastic Compliance Matrix: (Units=1/GPa)
#
#
# Indices 1 2 3 4 5 6 
#
# 1 0.015916 -0.004811 -0.009497 0.000000 0.000000 0.000000
# 2 -0.004811 0.015916 -0.009497 0.000000 0.000000 0.000000
# 3 -0.009497 -0.009497 0.030540 0.000000 0.000000 0.000000
# 4 0.000000 0.000000 0.000000 0.028228 0.000000 0.000000
# 5 0.000000 0.000000 0.000000 0.000000 0.028228 0.000000
# 6 0.000000 0.000000 0.000000 0.000000 0.000000 0.041455
#
#
# Mechanical properties :
#
#
# Convention : Reuss Voigt Hill
#
# Bulk Modulus (GPa) = 67.74744 77.11216 72.42980
# Shear Modulus (GPa) = 23.49445 26.91848 25.20647
#
# Velocity S-wave (km/s) = 3.63048 3.88604 3.76043
# Velocity P-wave (km/s) = 7.45522 7.96210 7.71282
#
# Compressibility (1/GPa) = 0.01476070
#
# Stress axis : x y z
#
# Youngs Moduli (GPa) = 62.82825 62.82821 32.74445
#
# Poissons Ratio (x) = 0.30229 0.31098
# Poissons Ratio (y) = 0.30229 0.31098
# Poissons Ratio (z) = 0.59670 0.59670
#
# Static dielectric constant tensor:
#      x y z
#    x 3.265820 0.000000 0.000000 
#    y 0.000000 3.265830 0.000000 
#    z 0.000000 0.000000 3.179350 
# 
# 
# High freq. dielectric constant tensor:
#      x y z
#    x 1.690690 0.000000 0.000000 
#    y 0.000000 1.690690 0.000000 
#    z 0.000000 0.000000 1.685630 
# 
# From -- ./inp_files/1673.got.cif
#   From: 2010.03.12/outbox.cif.g09.slc.cpg/sg194_1_cif.got.tgz:1673.got - 2010.04.01 12:26:19.
