data_PCOD8330930
_publ_section_title
;
Structure prediction by ZEFSAII (Michael W. Deem and Ramdas Pophale) SiO2 
 PCOD8330930
Probable space group: F M 3
;
_chemical_formula_sum "Si O2"
_cell_formula_units_Z 352
_cell_length_a 27.475815
_cell_length_b 27.475815
_cell_length_c 27.475815
_cell_angle_alpha 90.000000
_cell_angle_beta 90.000000
_cell_angle_gamma 90.000000
_cell_volume 20742.053523
_symmetry_space_group_name_H-M "F M 3"
_symmetry_group_IT_number 202
_symmetry_cell_setting 'cubic'
loop_
_space_group_symop_operation_xyz
x,y,z
z,x,y
y,z,x
-y,-z,x
z,-x,-y
-y,z,-x
-z,-x,y
-z,x,-y
y,-z,-x
-x,-y,z
x,-y,-z
-x,y,-z
-x,-y,-z
-z,-x,-y
-y,-z,-x
y,z,-x
-z,x,y
y,-z,x
z,x,-y
z,-x,y
-y,z,x
x,y,-z
-x,y,z
x,-y,z
x,1/2+y,1/2+z
z,1/2+x,1/2+y
y,1/2+z,1/2+x
-y,1/2-z,1/2+x
z,1/2-x,1/2-y
-y,1/2+z,1/2-x
-z,1/2-x,1/2+y
-z,1/2+x,1/2-y
y,1/2-z,1/2-x
-x,1/2-y,1/2+z
x,1/2-y,1/2-z
-x,1/2+y,1/2-z
-x,1/2-y,1/2-z
-z,1/2-x,1/2-y
-y,1/2-z,1/2-x
y,1/2+z,1/2-x
-z,1/2+x,1/2+y
y,1/2-z,1/2+x
z,1/2+x,1/2-y
z,1/2-x,1/2+y
-y,1/2+z,1/2+x
x,1/2+y,1/2-z
-x,1/2+y,1/2+z
x,1/2-y,1/2+z
1/2+x,y,1/2+z
1/2+z,x,1/2+y
1/2+y,z,1/2+x
1/2-y,-z,1/2+x
1/2+z,-x,1/2-y
1/2-y,z,1/2-x
1/2-z,-x,1/2+y
1/2-z,x,1/2-y
1/2+y,-z,1/2-x
1/2-x,-y,1/2+z
1/2+x,-y,1/2-z
1/2-x,y,1/2-z
1/2-x,-y,1/2-z
1/2-z,-x,1/2-y
1/2-y,-z,1/2-x
1/2+y,z,1/2-x
1/2-z,x,1/2+y
1/2+y,-z,1/2+x
1/2+z,x,1/2-y
1/2+z,-x,1/2+y
1/2-y,z,1/2+x
1/2+x,y,1/2-z
1/2-x,y,1/2+z
1/2+x,-y,1/2+z
1/2+x,1/2+y,z
1/2+z,1/2+x,y
1/2+y,1/2+z,x
1/2-y,1/2-z,x
1/2+z,1/2-x,-y
1/2-y,1/2+z,-x
1/2-z,1/2-x,y
1/2-z,1/2+x,-y
1/2+y,1/2-z,-x
1/2-x,1/2-y,z
1/2+x,1/2-y,-z
1/2-x,1/2+y,-z
1/2-x,1/2-y,-z
1/2-z,1/2-x,-y
1/2-y,1/2-z,-x
1/2+y,1/2+z,-x
1/2-z,1/2+x,y
1/2+y,1/2-z,x
1/2+z,1/2+x,-y
1/2+z,1/2-x,y
1/2-y,1/2+z,x
1/2+x,1/2+y,-z
1/2-x,1/2+y,z
1/2+x,1/2-y,z
loop_
_atom_site_type_symbol
_atom_site_label
_atom_site_fract_x
_atom_site_fract_y
_atom_site_fract_z
Si Si1 0.786277 0.555581 0.863676
Si Si2 0.286692 0.286692 0.786692
Si Si3 0.854202 0.145800 0.854201
Si Si4 0.312005 0.312020 0.054709
Si Si5 0.944425 0.786297 0.363670
O O1 0.784609 0.500000 0.882519
O O2 0.744448 0.564801 0.823523
O O3 0.779295 0.590254 0.909754
O O4 0.837538 0.566579 0.837553
O O5 0.250000 0.317562 0.750000
O O6 0.320007 0.320007 0.820007
O O7 0.910512 0.155161 0.844908
O O8 0.255524 0.323501 0.064765
O O9 0.326528 0.326522 0.000000
O O10 0.000000 0.784644 0.382528
#
# Coordination Sequence:
#
# PCOD8330930 Si02
#       5
#    96  32  32  96  96
#     4  10  20  35  52  74 104 135 171 211 252 301
#     4   6  18  36  42  75 111 129 174 223 229 288
#     4  12  18  36  60  72 102 150 160 220 273 288
#     4  10  21  35  51  78 103 133 174 208 253 311
#     4  10  20  35  52  74 104 135 171 211 252 301
#
# _framework density 16.970354
#
# number of rings (size 3 to 8) (size 9 to 14) (size 15 to 20)
#    0.545    1.636    2.727    1.364    0.000    6.000 
#    0.000    0.000    0.000    0.818    0.000    0.000 
#    0.000    0.000    0.000   17.727    0.000    0.000 
#
# Total GULP energy -1090441.066413 kJ/mol
# GULP energy per Si atom -12391.375755 kJ/mol
# Density = 1.693173 g / cm^3
# Si number density = 16.970354 Si / 1000 Ang^3
#
#
#
# Elastic Constant Matrix: (Units=GPa)
#
#
# Indices 1 2 3 4 5 6 
#
# 1 97.6578 52.2809 52.2809 0.0000 0.0000 0.0000
# 2 52.2809 97.6576 52.2809 0.0000 0.0000 0.0000
# 3 52.2809 52.2809 97.6577 0.0000 0.0000 0.0000
# 4 0.0000 0.0000 0.0000 24.9121 0.0000 0.0000
# 5 0.0000 0.0000 0.0000 0.0000 24.9118 0.0000
# 6 0.0000 0.0000 0.0000 0.0000 0.0000 24.9120
#
#
#
# Elastic Compliance Matrix: (Units=1/GPa)
#
#
# Indices 1 2 3 4 5 6 
#
# 1 0.016340 -0.005698 -0.005697 0.000000 0.000000 0.000000
# 2 -0.005698 0.016340 -0.005698 0.000000 0.000000 0.000000
# 3 -0.005697 -0.005698 0.016340 0.000000 0.000000 0.000000
# 4 0.000000 0.000000 0.000000 0.040141 0.000000 0.000000
# 5 0.000000 0.000000 0.000000 0.000000 0.040142 0.000000
# 6 0.000000 0.000000 0.000000 0.000000 0.000000 0.040141
#
#
# Mechanical properties :
#
#
# Convention : Reuss Voigt Hill
#
# Bulk Modulus (GPa) = 67.40650 67.40650 67.40650
# Shear Modulus (GPa) = 23.97221 24.02254 23.99737
#
# Velocity S-wave (km/s) = 3.76253 3.76647 3.76450
# Velocity P-wave (km/s) = 7.66041 7.66299 7.66170
#
# Compressibility (1/GPa) = 0.01483536
#
# Stress axis : x y z
#
# Youngs Moduli (GPa) = 61.19900 61.19881 61.19893
#
# Poissons Ratio (x) = 0.34868 0.34868
# Poissons Ratio (y) = 0.34868 0.34868
# Poissons Ratio (z) = 0.34868 0.34868
#
# Static dielectric constant tensor:
#      x y z
#    x 3.107350 0.000000 0.000000 
#    y 0.000000 3.107390 0.000000 
#    z 0.000000 0.000000 3.107360 
# 
# 
# High freq. dielectric constant tensor:
#      x y z
#    x 1.646540 0.000000 0.000000 
#    y 0.000000 1.646540 0.000000 
#    z 0.000000 0.000000 1.646540 
# 
# From -- ./inp_files/442.got.cif
#   From: 2010.03.12/outbox.cif.g09.slc.cpg/sg202_cif.got.tgz:442.got - 2010.03.30 09:02:26.
