data_PCOD8330184
_publ_section_title
;
Structure prediction by ZEFSAII (Michael W. Deem and Ramdas Pophale) SiO2 
 PCOD8330184
Probable space group: P 63/M C M
;
_chemical_formula_sum "Si O2"
_cell_formula_units_Z 60
_cell_length_a 15.601229
_cell_length_b 15.601229
_cell_length_c 15.534654
_cell_angle_alpha 90.000000
_cell_angle_beta 90.000000
_cell_angle_gamma 120.000000
_cell_volume 3274.536530
_symmetry_space_group_name_H-M "P 63/M C M"
_symmetry_group_IT_number 193
_symmetry_cell_setting 'hexagonal'
loop_
_space_group_symop_operation_xyz
x,y,z
x-y,x,1/2+z
-y,x-y,z
-x,-y,1/2+z
-x+y,-x,z
y,-x+y,1/2+z
x-y,-y,1/2-z
-x,-x+y,1/2-z
y,x,1/2-z
-y,-x,-z
-x+y,y,-z
x,x-y,-z
-x,-y,-z
-x+y,-x,1/2-z
y,-x+y,-z
x,y,1/2-z
x-y,x,-z
-y,x-y,1/2-z
-x+y,y,1/2+z
x,x-y,1/2+z
-y,-x,1/2+z
y,x,z
x-y,-y,z
-x,-x+y,z
loop_
_atom_site_type_symbol
_atom_site_label
_atom_site_fract_x
_atom_site_fract_y
_atom_site_fract_z
Si Si1 0.115455 0.775092 0.918110
Si Si2 0.306976 0.760043 0.347801
Si Si3 0.230655 0.114150 0.250000
O O1 0.171620 0.712117 0.912546
O O2 0.140352 0.842151 0.833962
O O3 0.000000 0.698396 0.927737
O O4 0.153066 0.846935 0.000000
O O5 0.226493 0.642949 0.363120
O O6 0.299322 0.790204 0.250000
O O7 0.180619 0.180619 0.250000
O O8 0.145649 0.000000 0.250000
#
# Coordination Sequence:
#
# PCOD8330184 Si02
#       3
#    24  24  12
#     4  11  22  37  59  87 119 153 194 243 290 346
#     4   8  17  36  62  81 112 156 189 233 290 344
#     4  10  21  38  58  80 112 152 193 240 292 342
#
# _framework density 18.323205000000002
#
# number of rings (size 3 to 8) (size 9 to 14) (size 15 to 20)
#    0.800    1.600    2.000    1.400    0.000    1.600 
#    0.000    6.000    0.000    6.400    0.000    0.000 
#    0.000    0.000    0.000    0.000    0.000    0.000 
#
# Total GULP energy -743675.813858 kJ/mol
# GULP energy per Si atom -12394.596898 kJ/mol
# Density = 1.828150 g / cm^3
# Si number density = 18.323205 Si / 1000 Ang^3
#
#
#
# Elastic Constant Matrix: (Units=GPa)
#
#
# Indices 1 2 3 4 5 6 
#
# 1 104.6839 63.6940 52.4111 0.0000 0.0000 0.0000
# 2 63.6940 104.6839 52.4111 0.0000 0.0000 0.0000
# 3 52.4111 52.4111 119.6239 0.0000 0.0000 0.0000
# 4 0.0000 0.0000 0.0000 21.5299 0.0000 0.0000
# 5 0.0000 0.0000 0.0000 0.0000 21.5299 0.0000
# 6 0.0000 0.0000 0.0000 0.0000 0.0000 20.4950
#
#
#
# Elastic Compliance Matrix: (Units=1/GPa)
#
#
# Indices 1 2 3 4 5 6 
#
# 1 0.016281 -0.008115 -0.003578 0.000000 0.000000 0.000000
# 2 -0.008115 0.016281 -0.003578 0.000000 0.000000 0.000000
# 3 -0.003578 -0.003578 0.011495 0.000000 0.000000 0.000000
# 4 0.000000 0.000000 0.000000 0.046447 0.000000 0.000000
# 5 0.000000 0.000000 0.000000 0.000000 0.046447 0.000000
# 6 0.000000 0.000000 0.000000 0.000000 0.000000 0.048792
#
#
# Mechanical properties :
#
#
# Convention : Reuss Voigt Hill
#
# Bulk Modulus (GPa) = 73.98766 74.00267 73.99516
# Shear Modulus (GPa) = 22.64583 23.40932 23.02758
#
# Velocity S-wave (km/s) = 3.51937 3.57820 3.54890
# Velocity P-wave (km/s) = 7.54861 7.58594 7.56729
#
# Compressibility (1/GPa) = 0.01351577
#
# Stress axis : x y z
#
# Youngs Moduli (GPa) = 61.41994 61.41994 86.99590
#
# Poissons Ratio (x) = 0.49842 0.31127
# Poissons Ratio (y) = 0.49842 0.31127
# Poissons Ratio (z) = 0.21976 0.21976
#
# Static dielectric constant tensor:
#      x y z
#    x 3.183120 0.000000 0.000000 
#    y 0.000000 3.183120 0.000000 
#    z 0.000000 0.000000 3.397090 
# 
# 
# High freq. dielectric constant tensor:
#      x y z
#    x 1.698870 0.000000 0.000000 
#    y 0.000000 1.698870 0.000000 
#    z 0.000000 0.000000 1.717260 
# 
# From -- ./inp_files/2946.got.cif
#   From: 2010.03.12/outbox.cif.g09.slc.cpg/sg193_2_cif.got.tgz:2946.got - 2010.04.01 12:20:39.
