data_PCOD8330149
_publ_section_title
;
Structure prediction by ZEFSAII (Michael W. Deem and Ramdas Pophale) SiO2 
 PCOD8330149
Probable space group: P 63/M C M
;
_chemical_formula_sum "Si O2"
_cell_formula_units_Z 104
_cell_length_a 21.146899
_cell_length_b 21.146899
_cell_length_c 13.601112
_cell_angle_alpha 90.000000
_cell_angle_beta 90.000000
_cell_angle_gamma 120.000000
_cell_volume 5267.425849
_symmetry_space_group_name_H-M "P 63/M C M"
_symmetry_group_IT_number 193
_symmetry_cell_setting 'hexagonal'
loop_
_space_group_symop_operation_xyz
x,y,z
x-y,x,1/2+z
-y,x-y,z
-x,-y,1/2+z
-x+y,-x,z
y,-x+y,1/2+z
x-y,-y,1/2-z
-x,-x+y,1/2-z
y,x,1/2-z
-y,-x,-z
-x+y,y,-z
x,x-y,-z
-x,-y,-z
-x+y,-x,1/2-z
y,-x+y,-z
x,y,1/2-z
x-y,x,-z
-y,x-y,1/2-z
-x+y,y,1/2+z
x,x-y,1/2+z
-y,-x,1/2+z
y,x,z
x-y,-y,z
-x,-x+y,z
loop_
_atom_site_type_symbol
_atom_site_label
_atom_site_fract_x
_atom_site_fract_y
_atom_site_fract_z
Si Si1 0.411669 0.494762 0.135747
Si Si2 0.469934 0.654037 0.142529
Si Si3 0.333334 0.666667 0.385665
Si Si4 0.081579 0.724613 0.058497
Si Si5 0.625628 0.850954 0.863141
O O1 0.386367 0.488676 0.250000
O O2 0.476900 0.476900 0.125890
O O3 0.440982 0.575763 0.089193
O O4 0.342623 0.439355 0.070399
O O5 0.492551 0.640870 0.250000
O O6 0.408455 0.676230 0.152412
O O7 0.541329 0.724767 0.101005
O O8 0.333334 0.666667 0.500000
O O9 0.140231 0.791498 0.124173
O O10 0.000000 0.699578 0.097203
O O11 0.084973 0.749642 0.944083
O O12 0.641221 0.879376 0.750000
#
# Coordination Sequence:
#
# PCOD8330149 Si02
#       5
#    24  24   8  24  24
#     4   9  18  33  54  77 101 134 178 227 273 319
#     4  10  21  36  51  69  97 131 169 218 276 331
#     4  12  25  29  46  69  91 125 163 213 271 326
#     4  10  21  36  57  80 105 140 184 224 267 323
#     4  10  22  37  55  78 107 138 174 223 274 319
#
# _framework density 19.743988999999999
#
# number of rings (size 3 to 8) (size 9 to 14) (size 15 to 20)
#    0.000    2.077    0.000    2.769    6.462    6.462 
#    0.000    4.615    0.000    0.000    0.000    0.000 
#    0.000    0.000    0.000   22.154    0.000   48.000 
#
# Total GULP energy -1288581.263671 kJ/mol
# GULP energy per Si atom -12390.204458 kJ/mol
# Density = 1.969905 g / cm^3
# Si number density = 19.743989 Si / 1000 Ang^3
#
#
#
# Elastic Constant Matrix: (Units=GPa)
#
#
# Indices 1 2 3 4 5 6 
#
# 1 67.5844 25.6786 10.4494 0.0000 0.0000 0.0001
# 2 25.6786 67.5830 10.4496 -0.0001 0.0000 0.0001
# 3 10.4494 10.4496 94.0221 -0.0001 0.0001 0.0001
# 4 0.0000 -0.0001 -0.0001 19.0260 0.0000 0.0000
# 5 0.0000 0.0000 0.0001 0.0000 19.0262 0.0000
# 6 0.0001 0.0001 0.0001 0.0000 0.0000 20.9524
#
#
#
# Elastic Compliance Matrix: (Units=1/GPa)
#
#
# Indices 1 2 3 4 5 6 
#
# 1 0.017430 -0.006434 -0.001222 0.000000 0.000000 0.000000
# 2 -0.006434 0.017430 -0.001222 0.000000 0.000000 0.000000
# 3 -0.001222 -0.001222 0.010907 0.000000 0.000000 0.000000
# 4 0.000000 0.000000 0.000000 0.052560 0.000000 0.000000
# 5 0.000000 0.000000 0.000000 0.000000 0.052559 0.000000
# 6 0.000000 0.000000 0.000000 0.000000 0.000000 0.047727
#
#
# Mechanical properties :
#
#
# Convention : Reuss Voigt Hill
#
# Bulk Modulus (GPa) = 35.69951 35.81609 35.75780
# Shear Modulus (GPa) = 22.15271 23.97504 23.06387
#
# Velocity S-wave (km/s) = 3.35326 3.48846 3.42152
# Velocity P-wave (km/s) = 5.75438 5.86561 5.81026
#
# Compressibility (1/GPa) = 0.02801159
#
# Stress axis : x y z
#
# Youngs Moduli (GPa) = 57.37337 57.37217 91.68052
#
# Poissons Ratio (x) = 0.36911 0.11204
# Poissons Ratio (y) = 0.36911 0.11205
# Poissons Ratio (z) = 0.07011 0.07012
#
# Static dielectric constant tensor:
#      x y z
#    x 3.334440 0.000000 0.000000 
#    y 0.000000 3.334440 0.000010 
#    z 0.000000 0.000010 3.776430 
# 
# 
# High freq. dielectric constant tensor:
#      x y z
#    x 1.737400 0.000000 0.000000 
#    y 0.000000 1.737400 0.000000 
#    z 0.000000 0.000000 1.787550 
# 
# From -- ./inp_files/3649.got.cif
#   From: 2010.03.12/outbox.cif.g09.slc.cpg/sg193_2_cif.got.tgz:3649.got - 2010.04.01 12:20:39.
