data_PCOD8330339
_publ_section_title
;
Structure prediction by ZEFSAII (Michael W. Deem and Ramdas Pophale) SiO2 
 PCOD8330339
Probable space group: P 63/M M C
;
_chemical_formula_sum "Si O2"
_cell_formula_units_Z 96
_cell_length_a 28.977493
_cell_length_b 28.977493
_cell_length_c 9.086754
_cell_angle_alpha 90.000000
_cell_angle_beta 90.000000
_cell_angle_gamma 120.000000
_cell_volume 6607.862870
_symmetry_space_group_name_H-M "P 63/M M C"
_symmetry_group_IT_number 194
_symmetry_cell_setting 'hexagonal'
loop_
_space_group_symop_operation_xyz
x,y,z
x-y,x,1/2+z
-y,x-y,z
-x,-y,1/2+z
-x+y,-x,z
y,-x+y,1/2+z
x-y,-y,-z
-x,-x+y,-z
y,x,-z
-y,-x,1/2-z
-x+y,y,1/2-z
x,x-y,1/2-z
-x,-y,-z
-x+y,-x,1/2-z
y,-x+y,-z
x,y,1/2-z
x-y,x,-z
-y,x-y,1/2-z
-x+y,y,z
x,x-y,z
-y,-x,z
y,x,1/2+z
x-y,-y,1/2+z
-x,-x+y,1/2+z
loop_
_atom_site_type_symbol
_atom_site_label
_atom_site_fract_x
_atom_site_fract_y
_atom_site_fract_z
Si Si1 0.298894 0.149447 0.582285
Si Si2 0.122056 0.423679 0.921167
Si Si3 0.054681 0.475649 0.578188
Si Si4 0.425448 0.212724 0.914097
Si Si5 0.700049 0.757001 0.575805
O O1 0.276771 0.138386 0.750000
O O2 0.362148 0.181074 0.583269
O O3 0.278909 0.094232 0.494965
O O4 0.135477 0.429859 0.750000
O O5 0.098373 0.460680 0.974210
O O6 0.080679 0.362278 0.959760
O O7 0.177780 0.446560 0.005087
O O8 0.043806 0.464932 0.750000
O O9 0.074354 0.537177 0.537776
O O10 0.000000 0.436089 0.500000
O O11 0.448389 0.224195 0.750000
O O12 0.732144 0.732144 0.500000
O O13 0.710934 0.763126 0.750000
#
# Coordination Sequence:
#
# PCOD8330339 Si02
#       5
#    12  24  24  12  24
#     4   9  17  29  41  55  77 103 132 168 203 233
#     4   9  17  28  41  57  80 107 134 165 202 241
#     4   9  17  28  41  58  81 109 138 166 198 237
#     4   9  17  27  41  59  77  99 129 166 202 237
#     4  10  18  27  40  58  79 106 138 168 200 238
#
# _framework density 14.528147000000001
#
# number of rings (size 3 to 8) (size 9 to 14) (size 15 to 20)
#    0.000    2.750    0.000    2.250    0.000    5.000 
#    0.000    0.000    0.000    0.000    0.000    0.000 
#    1.250    0.000    2.250    0.375    0.750    5.250 
#
# Total GULP energy -1190265.244623 kJ/mol
# GULP energy per Si atom -12398.596298 kJ/mol
# Density = 1.449508 g / cm^3
# Si number density = 14.528147 Si / 1000 Ang^3
#
#
#
# Elastic Constant Matrix: (Units=GPa)
#
#
# Indices 1 2 3 4 5 6 
#
# 1 102.2950 59.4433 50.9417 0.0000 0.0000 0.0000
# 2 59.4433 102.2950 50.9417 0.0000 0.0000 0.0000
# 3 50.9417 50.9417 76.9080 0.0000 0.0000 0.0000
# 4 0.0000 0.0000 0.0000 21.5029 0.0000 0.0000
# 5 0.0000 0.0000 0.0000 0.0000 21.5029 0.0000
# 6 0.0000 0.0000 0.0000 0.0000 0.0000 21.4259
#
#
#
# Elastic Compliance Matrix: (Units=1/GPa)
#
#
# Indices 1 2 3 4 5 6 
#
# 1 0.016973 -0.006363 -0.007028 0.000000 0.000000 0.000000
# 2 -0.006363 0.016973 -0.007028 0.000000 0.000000 0.000000
# 3 -0.007028 -0.007028 0.022312 0.000000 0.000000 0.000000
# 4 0.000000 0.000000 0.000000 0.046505 0.000000 0.000000
# 5 0.000000 0.000000 0.000000 0.000000 0.046505 0.000000
# 6 0.000000 0.000000 0.000000 0.000000 0.000000 0.046673
#
#
# Mechanical properties :
#
#
# Convention : Reuss Voigt Hill
#
# Bulk Modulus (GPa) = 64.84496 67.12794 65.98645
# Shear Modulus (GPa) = 20.66810 20.89776 20.78293
#
# Velocity S-wave (km/s) = 3.77586 3.79678 3.78634
# Velocity P-wave (km/s) = 7.98376 8.09484 8.03949
#
# Compressibility (1/GPa) = 0.01542140
#
# Stress axis : x y z
#
# Youngs Moduli (GPa) = 58.91720 58.91720 44.81845
#
# Poissons Ratio (x) = 0.37491 0.31496
# Poissons Ratio (y) = 0.37491 0.31496
# Poissons Ratio (z) = 0.41404 0.41404
#
# Static dielectric constant tensor:
#      x y z
#    x 2.797020 0.000000 0.000000 
#    y 0.000000 2.797020 0.000000 
#    z 0.000000 0.000000 2.959830 
# 
# 
# High freq. dielectric constant tensor:
#      x y z
#    x 1.533050 0.000000 0.000000 
#    y 0.000000 1.533050 0.000000 
#    z 0.000000 0.000000 1.568010 
# 
# From -- ./inp_files/1775.got.cif
#   From: 2010.03.12/outbox.cif.g09.slc.cpg/sg194_1_cif.got.tgz:1775.got - 2010.04.01 12:26:19.
