data_PCOD8330235
_publ_section_title
;
Structure prediction by ZEFSAII (Michael W. Deem and Ramdas Pophale) SiO2 
 PCOD8330235
Probable space group: P 63/M C M
;
_chemical_formula_sum "Si O2"
_cell_formula_units_Z 168
_cell_length_a 18.953058
_cell_length_b 18.953058
_cell_length_c 28.127242
_cell_angle_alpha 90.000000
_cell_angle_beta 90.000000
_cell_angle_gamma 120.000000
_cell_volume 8750.167463
_symmetry_space_group_name_H-M "P 63/M C M"
_symmetry_group_IT_number 193
_symmetry_cell_setting 'hexagonal'
loop_
_space_group_symop_operation_xyz
x,y,z
x-y,x,1/2+z
-y,x-y,z
-x,-y,1/2+z
-x+y,-x,z
y,-x+y,1/2+z
x-y,-y,1/2-z
-x,-x+y,1/2-z
y,x,1/2-z
-y,-x,-z
-x+y,y,-z
x,x-y,-z
-x,-y,-z
-x+y,-x,1/2-z
y,-x+y,-z
x,y,1/2-z
x-y,x,-z
-y,x-y,1/2-z
-x+y,y,1/2+z
x,x-y,1/2+z
-y,-x,1/2+z
y,x,z
x-y,-y,z
-x,-x+y,z
loop_
_atom_site_type_symbol
_atom_site_label
_atom_site_fract_x
_atom_site_fract_y
_atom_site_fract_z
Si Si1 0.809662 0.088978 0.696594
Si Si2 0.163734 0.636888 0.599075
Si Si3 0.746897 0.838743 0.046137
Si Si4 0.314113 0.221137 0.376523
Si Si5 0.447583 0.355651 0.697042
Si Si6 0.186711 0.698789 0.078213
Si Si7 0.091358 0.412073 0.483379
O O1 0.840415 0.094756 0.750000
O O2 0.879789 0.167461 0.670767
O O3 0.728298 0.093146 0.693960
O O4 0.788411 0.000000 0.675283
O O5 0.147797 0.643804 0.654608
O O6 0.166285 0.554699 0.596492
O O7 0.245561 0.715924 0.580769
O O8 0.094563 0.629704 0.562575
O O9 0.802108 0.802108 0.065243
O O10 0.740622 0.898171 0.083354
O O11 0.655715 0.767314 0.034892
O O12 0.788049 0.894025 0.000000
O O13 0.291610 0.291610 0.371882
O O14 0.409989 0.264387 0.387113
O O15 0.486896 0.363373 0.750000
O O16 0.429936 0.429936 0.689971
O O17 0.155335 0.690957 0.024202
O O18 0.000000 0.369800 0.504830
#
# Coordination Sequence:
#
# PCOD8330235 Si02
#       7
#    24  24  24  24  24  24  24
#     4   9  18  37  66  95 121 155 204 252 299 370
#     4  12  23  40  60  81 120 164 203 252 307 367
#     4  11  20  36  61  86 115 158 204 247 295 360
#     4  12  23  38  60  90 128 163 201 258 317 367
#     4   9  18  36  64  91 111 142 195 253 300 350
#     4  12  25  40  57  86 122 164 212 249 307 377
#     4  11  22  38  62  87 118 157 202 252 310 369
#
# _framework density 19.199632999999999
#
# number of rings (size 3 to 8) (size 9 to 14) (size 15 to 20)
#    0.000    1.143    4.286    3.714    0.000    5.429 
#    0.000    2.857    0.000    5.429    0.000    0.000 
#    0.000    0.000    0.000    0.000    0.000    0.000 
#
# Total GULP energy -2082542.478942 kJ/mol
# GULP energy per Si atom -12396.086184 kJ/mol
# Density = 1.915593 g / cm^3
# Si number density = 19.199633 Si / 1000 Ang^3
#
#
#
# Elastic Constant Matrix: (Units=GPa)
#
#
# Indices 1 2 3 4 5 6 
#
# 1 60.6094 44.3366 30.2288 0.0000 0.0000 0.0000
# 2 44.3366 60.6094 30.2288 0.0000 0.0000 0.0000
# 3 30.2288 30.2288 116.7246 0.0000 0.0000 0.0000
# 4 0.0000 0.0000 0.0000 21.3358 0.0000 0.0000
# 5 0.0000 0.0000 0.0000 0.0000 21.3358 0.0000
# 6 0.0000 0.0000 0.0000 0.0000 0.0000 8.1364
#
#
#
# Elastic Compliance Matrix: (Units=1/GPa)
#
#
# Indices 1 2 3 4 5 6 
#
# 1 0.036326 -0.025126 -0.002900 0.000000 0.000000 0.000000
# 2 -0.025126 0.036326 -0.002900 0.000000 0.000000 0.000000
# 3 -0.002900 -0.002900 0.010069 0.000000 0.000000 0.000000
# 4 0.000000 0.000000 0.000000 0.046870 0.000000 0.000000
# 5 0.000000 0.000000 0.000000 0.000000 0.046870 0.000000
# 6 0.000000 0.000000 0.000000 0.000000 0.000000 0.122905
#
#
# Mechanical properties :
#
#
# Convention : Reuss Voigt Hill
#
# Bulk Modulus (GPa) = 47.92264 49.72575 48.82420
# Shear Modulus (GPa) = 13.58050 19.03821 16.30935
#
# Velocity S-wave (km/s) = 2.66245 3.15237 2.91771
# Velocity P-wave (km/s) = 5.87077 6.26143 6.06924
#
# Compressibility (1/GPa) = 0.02086696
#
# Stress axis : x y z
#
# Youngs Moduli (GPa) = 27.52853 27.52853 99.31028
#
# Poissons Ratio (x) = 0.69169 0.28804
# Poissons Ratio (y) = 0.69169 0.28804
# Poissons Ratio (z) = 0.07984 0.07984
#
# Static dielectric constant tensor:
#      x y z
#    x 3.486510 0.000000 0.000000 
#    y 0.000000 3.486510 0.000000 
#    z 0.000000 0.000000 3.891190 
# 
# 
# High freq. dielectric constant tensor:
#      x y z
#    x 1.735930 0.000000 0.000000 
#    y 0.000000 1.735930 0.000000 
#    z 0.000000 0.000000 1.750470 
# 
# From -- ./inp_files/9345.got.cif
#   From: 2010.03.12/outbox.cif.g09.slc.cpg/sg193_5_cif.got.tgz:9345.got - 2010.04.01 12:20:39.
