data_PCOD8330973
_publ_section_title
;
Structure prediction by ZEFSAII (Michael W. Deem and Ramdas Pophale) SiO2 
 PCOD8330973
Probable space group: I A 3
;
_chemical_formula_sum "Si O2"
_cell_formula_units_Z 280
_cell_length_a 22.608898
_cell_length_b 22.608898
_cell_length_c 22.608898
_cell_angle_alpha 90.000000
_cell_angle_beta 90.000000
_cell_angle_gamma 90.000000
_cell_volume 11556.815596
_symmetry_space_group_name_H-M "I A 3"
_symmetry_group_IT_number 206
_symmetry_cell_setting 'cubic'
loop_
_space_group_symop_operation_xyz
x,y,z
z,x,y
y,z,x
-y,1/2-z,x
z,-x,1/2-y
1/2-y,z,-x
-z,1/2-x,y
1/2-z,x,-y
y,-z,1/2-x
-x,1/2-y,z
x,-y,1/2-z
1/2-x,y,-z
-x,-y,-z
-z,-x,-y
-y,-z,-x
y,1/2+z,-x
-z,x,1/2+y
1/2+y,-z,x
z,1/2+x,-y
1/2+z,-x,y
-y,z,1/2+x
x,1/2+y,-z
-x,y,1/2+z
1/2+x,-y,z
1/2+x,1/2+y,1/2+z
1/2+z,1/2+x,1/2+y
1/2+y,1/2+z,1/2+x
1/2-y,-z,1/2+x
1/2+z,1/2-x,-y
-y,1/2+z,1/2-x
1/2-z,-x,1/2+y
-z,1/2+x,1/2-y
1/2+y,1/2-z,-x
1/2-x,-y,1/2+z
1/2+x,1/2-y,-z
-x,1/2+y,1/2-z
1/2-x,1/2-y,1/2-z
1/2-z,1/2-x,1/2-y
1/2-y,1/2-z,1/2-x
1/2+y,z,1/2-x
1/2-z,1/2+x,y
y,1/2-z,1/2+x
1/2+z,x,1/2-y
z,1/2-x,1/2+y
1/2-y,1/2+z,x
1/2+x,y,1/2-z
1/2-x,1/2+y,z
x,1/2-y,1/2+z
loop_
_atom_site_type_symbol
_atom_site_label
_atom_site_fract_x
_atom_site_fract_y
_atom_site_fract_z
Si Si1 0.250000 0.694213 0.500000
Si Si2 0.407062 0.192850 0.623320
Si Si3 0.791434 0.791434 0.791434
Si Si4 0.022759 0.447518 0.705625
Si Si5 0.552057 0.662946 0.227097
Si Si6 0.771437 0.371765 0.883140
Si Si7 0.970027 0.970085 0.118409
O O1 0.245835 0.653500 0.442994
O O2 0.308357 0.735019 0.500640
O O3 0.346308 0.226793 0.606605
O O4 0.401445 0.136440 0.666646
O O5 0.438410 0.173347 0.562370
O O6 0.750000 0.750000 0.750000
O O7 0.842837 0.823663 0.754445
O O8 0.008670 0.500000 0.750000
O O9 0.084539 0.414946 0.723639
O O10 0.970415 0.399424 0.702012
O O11 0.018738 0.481314 0.641814
O O12 0.568930 0.710202 0.177113
O O13 0.000901 0.920473 0.080494
#
# Coordination Sequence:
#
# PCOD8330973 Si02
#       7
#    24  48  16  48  48  48  48
#     4  12  24  42  72 106 144 184 262 304 382 466
#     4  12  22  46  71 107 139 203 251 314 387 459
#     4  12  27  51  72 117 166 203 259 324 405 501
#     4  12  26  50  74 113 153 202 265 329 391 474
#     4  12  25  46  74 108 150 197 252 324 384 475
#     4  12  27  44  78 108 153 204 252 321 405 475
#     4  12  26  47  74 107 150 200 262 324 386 463
#
# _framework density 24.228127000000001
#
# number of rings (size 3 to 8) (size 9 to 14) (size 15 to 20)
#    0.000    0.000    3.429    7.371    1.200    1.371 
#    0.000    0.000    0.000    0.686    0.000    0.000 
#    0.000    0.000    0.000    0.000    0.000    0.000 
#
# Total GULP energy -1735161.629360 kJ/mol
# GULP energy per Si atom -12394.011638 kJ/mol
# Density = 2.417298 g / cm^3
# Si number density = 24.228127 Si / 1000 Ang^3
#
#
#
# Elastic Constant Matrix: (Units=GPa)
#
#
# Indices 1 2 3 4 5 6 
#
# 1 106.8019 37.7811 37.7811 0.0000 0.0000 0.0000
# 2 37.7811 106.8019 37.7811 0.0000 0.0000 0.0000
# 3 37.7811 37.7811 106.8019 0.0000 0.0000 0.0000
# 4 0.0000 0.0000 0.0000 57.3073 0.0000 0.0000
# 5 0.0000 0.0000 0.0000 0.0000 57.3073 0.0000
# 6 0.0000 0.0000 0.0000 0.0000 0.0000 57.3073
#
#
#
# Elastic Compliance Matrix: (Units=1/GPa)
#
#
# Indices 1 2 3 4 5 6 
#
# 1 0.011487 -0.003002 -0.003002 0.000000 0.000000 0.000000
# 2 -0.003002 0.011487 -0.003002 0.000000 0.000000 0.000000
# 3 -0.003002 -0.003002 0.011487 0.000000 0.000000 0.000000
# 4 0.000000 0.000000 0.000000 0.017450 0.000000 0.000000
# 5 0.000000 0.000000 0.000000 0.000000 0.017450 0.000000
# 6 0.000000 0.000000 0.000000 0.000000 0.000000 0.017450
#
#
# Mechanical properties :
#
#
# Convention : Reuss Voigt Hill
#
# Bulk Modulus (GPa) = 60.78806 60.78806 60.78806
# Shear Modulus (GPa) = 45.32970 48.18851 46.75910
#
# Velocity S-wave (km/s) = 4.33014 4.46460 4.39789
# Velocity P-wave (km/s) = 7.08128 7.19175 7.13673
#
# Compressibility (1/GPa) = 0.01645060
#
# Stress axis : x y z
#
# Youngs Moduli (GPa) = 87.05664 87.05664 87.05664
#
# Poissons Ratio (x) = 0.26131 0.26131
# Poissons Ratio (y) = 0.26131 0.26131
# Poissons Ratio (z) = 0.26131 0.26131
#
# Static dielectric constant tensor:
#      x y z
#    x 4.464400 0.000000 0.000000 
#    y 0.000000 4.464400 0.000000 
#    z 0.000000 0.000000 4.464400 
# 
# 
# High freq. dielectric constant tensor:
#      x y z
#    x 1.966020 0.000000 0.000000 
#    y 0.000000 1.966020 0.000000 
#    z 0.000000 0.000000 1.966020 
# 
# From -- ./inp_files/603.got.cif
#   From: 2010.03.12/outbox.cif.g09.slc.cpg/sg206_cif.got.tgz:603.got - 2010.03.30 09:03:11.
