data_PCOD8330430
_publ_section_title
;
Structure prediction by ZEFSAII (Michael W. Deem and Ramdas Pophale) SiO2 
 PCOD8330430
Probable space group: P 63/M M C
;
_chemical_formula_sum "Si O2"
_cell_formula_units_Z 100
_cell_length_a 17.069126
_cell_length_b 17.069126
_cell_length_c 25.391048
_cell_angle_alpha 90.000000
_cell_angle_beta 90.000000
_cell_angle_gamma 120.000000
_cell_volume 6406.691717
_symmetry_space_group_name_H-M "P 63/M M C"
_symmetry_group_IT_number 194
_symmetry_cell_setting 'hexagonal'
loop_
_space_group_symop_operation_xyz
x,y,z
x-y,x,1/2+z
-y,x-y,z
-x,-y,1/2+z
-x+y,-x,z
y,-x+y,1/2+z
x-y,-y,-z
-x,-x+y,-z
y,x,-z
-y,-x,1/2-z
-x+y,y,1/2-z
x,x-y,1/2-z
-x,-y,-z
-x+y,-x,1/2-z
y,-x+y,-z
x,y,1/2-z
x-y,x,-z
-y,x-y,1/2-z
-x+y,y,z
x,x-y,z
-y,-x,z
y,x,1/2+z
x-y,-y,1/2+z
-x,-x+y,1/2+z
loop_
_atom_site_type_symbol
_atom_site_label
_atom_site_fract_x
_atom_site_fract_y
_atom_site_fract_z
Si Si1 0.756053 0.066791 0.152584
Si Si2 0.666667 0.333334 0.813040
Si Si3 0.177569 0.179637 0.750000
Si Si4 0.533621 0.766811 0.312353
Si Si5 0.611249 0.043076 0.687446
Si Si6 0.178763 0.178934 0.559816
O O1 0.825065 0.174936 0.155100
O O2 0.778467 0.016599 0.198327
O O3 0.653210 0.045252 0.161432
O O4 0.762118 0.026875 0.096548
O O5 0.666667 0.333334 0.750000
O O6 0.716737 0.433473 0.836065
O O7 0.069839 0.139678 0.750000
O O8 0.200378 0.100189 0.750000
O O9 0.528451 0.764226 0.250000
O O10 0.579107 0.871129 0.330981
O O11 0.606554 0.033881 0.750000
O O12 0.525823 0.051646 0.667286
O O13 0.210101 0.210101 0.500000
O O14 0.193857 0.096929 0.576758
O O15 0.072518 0.145036 0.566205
#
# Coordination Sequence:
#
# PCOD8330430 Si02
#       6
#    24   4  12  12  24  24
#     4  10  20  31  44  64  91 119 149 191 232 268
#     4   9  12  24  36  54  90 114 141 174 204 249
#     4  10  19  28  39  60  92 128 154 174 211 268
#     4   9  16  24  38  60  86 116 145 174 210 256
#     4  10  19  29  44  64  88 121 151 179 220 274
#     4   9  17  29  45  65  90 123 161 194 221 253
#
# _framework density 15.60868
#
# number of rings (size 3 to 8) (size 9 to 14) (size 15 to 20)
#    0.000    2.400    2.400    1.080    3.360    0.960 
#    0.000    2.400    0.000    1.200    0.000    0.000 
#    0.000    0.000    0.000    0.000    0.000    0.000 
#
# Total GULP energy -1239435.934852 kJ/mol
# GULP energy per Si atom -12394.359349 kJ/mol
# Density = 1.557315 g / cm^3
# Si number density = 15.608680 Si / 1000 Ang^3
#
#
#
# Elastic Constant Matrix: (Units=GPa)
#
#
# Indices 1 2 3 4 5 6 
#
# 1 83.3099 49.4269 21.5034 0.0000 0.0000 0.0000
# 2 49.4269 83.3099 21.5034 0.0000 0.0000 0.0000
# 3 21.5034 21.5034 55.0330 0.0000 0.0000 0.0000
# 4 0.0000 0.0000 0.0000 14.1084 0.0000 0.0000
# 5 0.0000 0.0000 0.0000 0.0000 14.1084 0.0000
# 6 0.0000 0.0000 0.0000 0.0000 0.0000 16.9415
#
#
#
# Elastic Compliance Matrix: (Units=1/GPa)
#
#
# Indices 1 2 3 4 5 6 
#
# 1 0.019070 -0.010444 -0.003370 0.000000 0.000000 0.000000
# 2 -0.010444 0.019070 -0.003370 0.000000 0.000000 0.000000
# 3 -0.003370 -0.003370 0.020805 0.000000 0.000000 0.000000
# 4 0.000000 0.000000 0.000000 0.070880 0.000000 0.000000
# 5 0.000000 0.000000 0.000000 0.000000 0.070880 0.000000
# 6 0.000000 0.000000 0.000000 0.000000 0.000000 0.059027
#
#
# Mechanical properties :
#
#
# Convention : Reuss Voigt Hill
#
# Bulk Modulus (GPa) = 40.69231 45.16893 42.93062
# Shear Modulus (GPa) = 16.54038 17.64628 17.09333
#
# Velocity S-wave (km/s) = 3.25882 3.36600 3.31285
# Velocity P-wave (km/s) = 6.34719 6.64137 6.49594
#
# Compressibility (1/GPa) = 0.02457467
#
# Stress axis : x y z
#
# Youngs Moduli (GPa) = 52.43968 52.43969 48.06589
#
# Poissons Ratio (x) = 0.54767 0.16200
# Poissons Ratio (y) = 0.54767 0.16200
# Poissons Ratio (z) = 0.17674 0.17674
#
# Static dielectric constant tensor:
#      x y z
#    x 2.984360 0.000000 0.000000 
#    y 0.000000 2.984360 0.000000 
#    z 0.000000 0.000000 2.843790 
# 
# 
# High freq. dielectric constant tensor:
#      x y z
#    x 1.585630 0.000000 0.000000 
#    y 0.000000 1.585630 0.000000 
#    z 0.000000 0.000000 1.565720 
# 
# From -- ./inp_files/11824.got.cif
#   From: 2010.03.12/outbox.cif.g09.slc.cpg/sg194_6_cif.got.tgz:11824.got - 2010.04.01 12:26:19.
