data_PCOD8330961
_publ_section_title
;
Structure prediction by ZEFSAII (Michael W. Deem and Ramdas Pophale) SiO2 
 PCOD8330961
Probable space group: P A 3
;
_chemical_formula_sum "Si O2"
_cell_formula_units_Z 64
_cell_length_a 14.242023
_cell_length_b 14.242023
_cell_length_c 14.242023
_cell_angle_alpha 90.000000
_cell_angle_beta 90.000000
_cell_angle_gamma 90.000000
_cell_volume 2888.783856
_symmetry_space_group_name_H-M "P A 3"
_symmetry_group_IT_number 205
_symmetry_cell_setting 'cubic'
loop_
_space_group_symop_operation_xyz
x,y,z
z,x,y
y,z,x
1/2-y,-z,1/2+x
1/2+z,1/2-x,-y
-y,1/2+z,1/2-x
1/2-z,-x,1/2+y
-z,1/2+x,1/2-y
1/2+y,1/2-z,-x
1/2-x,-y,1/2+z
1/2+x,1/2-y,-z
-x,1/2+y,1/2-z
-x,-y,-z
-z,-x,-y
-y,-z,-x
1/2+y,z,1/2-x
1/2-z,1/2+x,y
y,1/2-z,1/2+x
1/2+z,x,1/2-y
z,1/2-x,1/2+y
1/2-y,1/2+z,x
1/2+x,y,1/2-z
1/2-x,1/2+y,z
x,1/2-y,1/2+z
loop_
_atom_site_type_symbol
_atom_site_label
_atom_site_fract_x
_atom_site_fract_y
_atom_site_fract_z
Si Si1 0.813056 0.813056 0.813057
Si Si2 0.801874 0.274697 0.977806
Si Si3 0.314937 0.314937 0.314936
Si Si4 0.900204 0.499867 0.821092
O O1 0.841961 0.904563 0.753219
O O2 0.748590 0.748590 0.748590
O O3 0.912906 0.279059 0.958964
O O4 0.776209 0.312008 0.080000
O O5 0.760773 0.169741 0.964537
O O6 0.971590 0.416028 0.845024
#
# Coordination Sequence:
#
# PCOD8330961 Si02
#       4
#     8  24   8  24
#     4  12  24  48  66 100 140 187 234 294 349 434
#     4  12  24  44  71 102 145 188 236 296 364 424
#     4  12  24  45  70 103 144 187 235 300 361 437
#     4  12  25  45  72 108 147 190 241 295 362 439
#
# _framework density 22.154648999999999
#
# number of rings (size 3 to 8) (size 9 to 14) (size 15 to 20)
#    0.000    0.000    7.500    2.625    0.000    0.000 
#    0.000    0.000    0.000    0.750    0.000    0.000 
#    0.000    0.000    0.000    0.000    0.000    0.000 
#
# Total GULP energy -793832.879629 kJ/mol
# GULP energy per Si atom -12403.638744 kJ/mol
# Density = 2.210422 g / cm^3
# Si number density = 22.154649 Si / 1000 Ang^3
#
#
#
# Elastic Constant Matrix: (Units=GPa)
#
#
# Indices 1 2 3 4 5 6 
#
# 1 96.7687 41.1523 41.1524 0.0000 0.0000 0.0000
# 2 41.1523 96.7676 41.1507 0.0000 0.0000 0.0000
# 3 41.1524 41.1507 96.7718 0.0000 0.0000 0.0000
# 4 0.0000 0.0000 0.0000 15.9723 0.0000 0.0000
# 5 0.0000 0.0000 0.0000 0.0000 15.9779 0.0000
# 6 0.0000 0.0000 0.0000 0.0000 0.0000 15.9716
#
#
#
# Elastic Compliance Matrix: (Units=1/GPa)
#
#
# Indices 1 2 3 4 5 6 
#
# 1 0.013848 -0.004132 -0.004132 0.000000 0.000000 0.000000
# 2 -0.004132 0.013848 -0.004132 0.000000 0.000000 0.000000
# 3 -0.004132 -0.004132 0.013848 0.000000 0.000000 0.000000
# 4 0.000000 0.000000 0.000000 0.062608 0.000000 0.000000
# 5 0.000000 0.000000 0.000000 0.000000 0.062586 0.000000
# 6 0.000000 0.000000 0.000000 0.000000 0.000000 0.062611
#
#
# Mechanical properties :
#
#
# Convention : Reuss Voigt Hill
#
# Bulk Modulus (GPa) = 59.69101 59.69101 59.69101
# Shear Modulus (GPa) = 19.25109 20.70788 19.97948
#
# Velocity S-wave (km/s) = 2.95098 3.06060 3.00629
# Velocity P-wave (km/s) = 6.21389 6.28419 6.24914
#
# Compressibility (1/GPa) = 0.01675294
#
# Stress axis : x y z
#
# Youngs Moduli (GPa) = 72.21080 72.21114 72.21489
#
# Poissons Ratio (x) = 0.29839 0.29838
# Poissons Ratio (y) = 0.29839 0.29836
# Poissons Ratio (z) = 0.29837 0.29834
#
# Static dielectric constant tensor:
#      x y z
#    x 4.188170 0.000000 0.000000 
#    y 0.000000 4.188170 0.000000 
#    z 0.000000 0.000000 4.188160 
# 
# 
# High freq. dielectric constant tensor:
#      x y z
#    x 1.876710 0.000000 0.000000 
#    y 0.000000 1.876710 0.000000 
#    z 0.000000 0.000000 1.876710 
# 
# From -- ./inp_files/276.got.cif
#   From: 2010.03.12/outbox.cif.g09.slc.cpg/sg205_cif.got.tgz:276.got - 2010.03.30 09:02:58.
