data_PCOD8330413
_publ_section_title
;
Structure prediction by ZEFSAII (Michael W. Deem and Ramdas Pophale) SiO2 
 PCOD8330413
Probable space group: P 63/M M C
;
_chemical_formula_sum "Si O2"
_cell_formula_units_Z 72
_cell_length_a 21.806335
_cell_length_b 21.806335
_cell_length_c 10.295338
_cell_angle_alpha 90.000000
_cell_angle_beta 90.000000
_cell_angle_gamma 120.000000
_cell_volume 4239.714381
_symmetry_space_group_name_H-M "P 63/M M C"
_symmetry_group_IT_number 194
_symmetry_cell_setting 'hexagonal'
loop_
_space_group_symop_operation_xyz
x,y,z
x-y,x,1/2+z
-y,x-y,z
-x,-y,1/2+z
-x+y,-x,z
y,-x+y,1/2+z
x-y,-y,-z
-x,-x+y,-z
y,x,-z
-y,-x,1/2-z
-x+y,y,1/2-z
x,x-y,1/2-z
-x,-y,-z
-x+y,-x,1/2-z
y,-x+y,-z
x,y,1/2-z
x-y,x,-z
-y,x-y,1/2-z
-x+y,y,z
x,x-y,z
-y,-x,z
y,x,1/2+z
x-y,-y,1/2+z
-x,-x+y,1/2+z
loop_
_atom_site_type_symbol
_atom_site_label
_atom_site_fract_x
_atom_site_fract_y
_atom_site_fract_z
Si Si1 0.917563 0.698474 0.750000
Si Si2 0.621075 0.919397 0.503363
Si Si3 0.921444 0.215384 0.250000
Si Si4 0.666016 0.191151 0.401079
O O1 0.865225 0.730449 0.750000
O O2 0.901665 0.648988 0.626069
O O3 0.997022 0.765734 0.750000
O O4 0.657512 0.904369 0.624310
O O5 0.537066 0.869222 0.512857
O O6 0.637721 0.000000 0.500000
O O7 0.869709 0.130292 0.250000
O O8 0.662950 0.171558 0.250000
O O9 0.597444 0.194887 0.443552
O O10 0.733666 0.266335 0.432166
#
# Coordination Sequence:
#
# PCOD8330413 Si02
#       4
#    12  24  12  24
#     4  10  20  32  49  76 105 129 161 205 252 298
#     4  10  20  33  52  75 100 130 164 206 253 296
#     4  10  18  32  53  74  97 131 169 203 244 296
#     4  10  19  32  52  75 100 131 170 211 247 290
#
# _framework density 16.982277
#
# number of rings (size 3 to 8) (size 9 to 14) (size 15 to 20)
#    0.000    2.000    1.667    3.333    0.000    2.000 
#    0.000    0.833    0.000    0.333    0.000    2.333 
#    0.000    8.000    0.000    0.000    0.000    1.333 
#
# Total GULP energy -892967.774385 kJ/mol
# GULP energy per Si atom -12402.330200 kJ/mol
# Density = 1.694362 g / cm^3
# Si number density = 16.982277 Si / 1000 Ang^3
#
#
#
# Elastic Constant Matrix: (Units=GPa)
#
#
# Indices 1 2 3 4 5 6 
#
# 1 128.4582 94.6124 42.4991 0.0000 0.0000 0.0000
# 2 94.6124 128.4582 42.4991 0.0000 0.0000 0.0000
# 3 42.4991 42.4991 106.1758 0.0000 0.0000 0.0000
# 4 0.0000 0.0000 0.0000 26.0681 0.0000 0.0000
# 5 0.0000 0.0000 0.0000 0.0000 26.0681 0.0000
# 6 0.0000 0.0000 0.0000 0.0000 0.0000 16.9229
#
#
#
# Elastic Compliance Matrix: (Units=1/GPa)
#
#
# Indices 1 2 3 4 5 6 
#
# 1 0.017418 -0.012128 -0.002117 0.000000 0.000000 0.000000
# 2 -0.012128 0.017418 -0.002117 0.000000 0.000000 0.000000
# 3 -0.002117 -0.002117 0.011113 0.000000 0.000000 0.000000
# 4 0.000000 0.000000 0.000000 0.038361 0.000000 0.000000
# 5 0.000000 0.000000 0.000000 0.000000 0.038361 0.000000
# 6 0.000000 0.000000 0.000000 0.000000 0.000000 0.059092
#
#
# Mechanical properties :
#
#
# Convention : Reuss Voigt Hill
#
# Bulk Modulus (GPa) = 75.62319 80.25701 77.94010
# Shear Modulus (GPa) = 22.84196 26.04394 24.44295
#
# Velocity S-wave (km/s) = 3.67147 3.92036 3.79795
# Velocity P-wave (km/s) = 7.91203 8.23737 8.07634
#
# Compressibility (1/GPa) = 0.01322346
#
# Stress axis : x y z
#
# Youngs Moduli (GPa) = 57.41283 57.41283 89.98203
#
# Poissons Ratio (x) = 0.69631 0.19052
# Poissons Ratio (y) = 0.69631 0.19052
# Poissons Ratio (z) = 0.12156 0.12156
#
# Static dielectric constant tensor:
#      x y z
#    x 3.173530 0.000000 0.000000 
#    y 0.000000 3.173530 0.000000 
#    z 0.000000 0.000000 3.137550 
# 
# 
# High freq. dielectric constant tensor:
#      x y z
#    x 1.650930 0.000000 0.000000 
#    y 0.000000 1.650930 0.000000 
#    z 0.000000 0.000000 1.655230 
# 
# From -- ./inp_files/1150.got.cif
#   From: 2010.03.12/outbox.cif.g09.slc.cpg/sg194_1_cif.got.tgz:1150.got - 2010.04.01 12:26:19.
