data_PCOD8330850
_publ_section_title
;
Structure prediction by ZEFSAII (Michael W. Deem and Ramdas Pophale) SiO2 
 PCOD8330850
Probable space group: P 63/M M C
;
_chemical_formula_sum "Si O2"
_cell_formula_units_Z 64
_cell_length_a 21.364312
_cell_length_b 21.364312
_cell_length_c 8.946920
_cell_angle_alpha 90.000000
_cell_angle_beta 90.000000
_cell_angle_gamma 120.000000
_cell_volume 3536.567969
_symmetry_space_group_name_H-M "P 63/M M C"
_symmetry_group_IT_number 194
_symmetry_cell_setting 'hexagonal'
loop_
_space_group_symop_operation_xyz
x,y,z
x-y,x,1/2+z
-y,x-y,z
-x,-y,1/2+z
-x+y,-x,z
y,-x+y,1/2+z
x-y,-y,-z
-x,-x+y,-z
y,x,-z
-y,-x,1/2-z
-x+y,y,1/2-z
x,x-y,1/2-z
-x,-y,-z
-x+y,-x,1/2-z
y,-x+y,-z
x,y,1/2-z
x-y,x,-z
-y,x-y,1/2-z
-x+y,y,z
x,x-y,z
-y,-x,z
y,x,1/2+z
x-y,-y,1/2+z
-x,-x+y,1/2+z
loop_
_atom_site_type_symbol
_atom_site_label
_atom_site_fract_x
_atom_site_fract_y
_atom_site_fract_z
Si Si1 0.074997 0.784594 0.573856
Si Si2 0.299921 0.454078 0.576700
Si Si3 0.333335 0.666668 0.927668
Si Si4 0.178434 0.589217 0.073888
O O1 0.066769 0.784129 0.750000
O O2 0.135960 0.864041 0.519241
O O3 0.098672 0.726478 0.526895
O O4 0.000000 0.766172 0.500000
O O5 0.322311 0.466053 0.750000
O O6 0.236088 0.472176 0.548215
O O7 0.369620 0.505320 0.475653
O O8 0.333334 0.666667 0.750000
O O9 0.252594 0.626297 0.985141
O O10 0.191199 0.595600 0.250000
#
# Coordination Sequence:
#
# PCOD8330850 Si02
#       4
#    24  24   4  12
#     4   9  19  36  58  84 109 137 174 210 253 312
#     4   9  18  33  51  69  98 142 180 213 267 326
#     4  12  22  32  46  63  97 146 184 222 280 329
#     4  12  22  30  45  75 104 130 181 240 276 307
#
# _framework density 18.096641000000002
#
# number of rings (size 3 to 8) (size 9 to 14) (size 15 to 20)
#    0.000    2.250    1.875    4.500    0.000    2.250 
#    0.000    4.688    0.000    0.375    0.000    0.000 
#    0.000    0.000    0.000    0.000    0.000    0.000 
#
# Total GULP energy -793566.637198 kJ/mol
# GULP energy per Si atom -12399.478706 kJ/mol
# Density = 1.805545 g / cm^3
# Si number density = 18.096641 Si / 1000 Ang^3
#
#
#
# Elastic Constant Matrix: (Units=GPa)
#
#
# Indices 1 2 3 4 5 6 
#
# 1 111.4397 67.2859 47.5962 0.0000 0.0000 -0.0001
# 2 67.2859 111.4400 47.5960 0.0000 0.0000 0.0000
# 3 47.5962 47.5960 85.9357 -0.0002 0.0000 -0.0001
# 4 0.0000 0.0000 -0.0002 26.0375 0.0000 0.0000
# 5 0.0000 0.0000 0.0000 0.0000 26.0377 0.0000
# 6 -0.0001 0.0000 -0.0001 0.0000 0.0000 22.0769
#
#
#
# Elastic Compliance Matrix: (Units=1/GPa)
#
#
# Indices 1 2 3 4 5 6 
#
# 1 0.015292 -0.007356 -0.004396 0.000000 0.000000 0.000000
# 2 -0.007356 0.015292 -0.004396 0.000000 0.000000 0.000000
# 3 -0.004396 -0.004396 0.016506 0.000000 0.000000 0.000000
# 4 0.000000 0.000000 0.000000 0.038406 0.000000 0.000000
# 5 0.000000 0.000000 0.000000 0.000000 0.038406 0.000000
# 6 0.000000 0.000000 0.000000 0.000000 0.000000 0.045296
#
#
# Mechanical properties :
#
#
# Convention : Reuss Voigt Hill
#
# Bulk Modulus (GPa) = 67.58604 70.41907 69.00255
# Shear Modulus (GPa) = 24.22194 24.58623 24.40408
#
# Velocity S-wave (km/s) = 3.66249 3.68993 3.67623
# Velocity P-wave (km/s) = 7.43730 7.55985 7.49883
#
# Compressibility (1/GPa) = 0.01479596
#
# Stress axis : x y z
#
# Youngs Moduli (GPa) = 65.39275 65.39311 60.58521
#
# Poissons Ratio (x) = 0.48102 0.26631
# Poissons Ratio (y) = 0.48102 0.26631
# Poissons Ratio (z) = 0.28744 0.28744
#
# Static dielectric constant tensor:
#      x y z
#    x 3.415870 0.000000 0.000000 
#    y 0.000000 3.415870 -0.000010 
#    z 0.000000 -0.000010 3.140460 
# 
# 
# High freq. dielectric constant tensor:
#      x y z
#    x 1.686500 0.000000 0.000000 
#    y 0.000000 1.686500 0.000000 
#    z 0.000000 0.000000 1.693480 
# 
# From -- ./inp_files/927.got.cif
#   From: 2010.03.12/outbox.cif.g09.slc.cpg/sg194_1_cif.got.tgz:927.got - 2010.04.01 12:26:19.
