data_PCOD8330506
_publ_section_title
;
Structure prediction by ZEFSAII (Michael W. Deem and Ramdas Pophale) SiO2 
 PCOD8330506
Probable space group: P 63/M M C
;
_chemical_formula_sum "Si O2"
_cell_formula_units_Z 168
_cell_length_a 18.470689
_cell_length_b 18.470689
_cell_length_c 32.873323
_cell_angle_alpha 90.000000
_cell_angle_beta 90.000000
_cell_angle_gamma 120.000000
_cell_volume 9712.710194
_symmetry_space_group_name_H-M "P 63/M M C"
_symmetry_group_IT_number 194
_symmetry_cell_setting 'hexagonal'
loop_
_space_group_symop_operation_xyz
x,y,z
x-y,x,1/2+z
-y,x-y,z
-x,-y,1/2+z
-x+y,-x,z
y,-x+y,1/2+z
x-y,-y,-z
-x,-x+y,-z
y,x,-z
-y,-x,1/2-z
-x+y,y,1/2-z
x,x-y,1/2-z
-x,-y,-z
-x+y,-x,1/2-z
y,-x+y,-z
x,y,1/2-z
x-y,x,-z
-y,x-y,1/2-z
-x+y,y,z
x,x-y,z
-y,-x,z
y,x,1/2+z
x-y,-y,1/2+z
-x,-x+y,1/2+z
loop_
_atom_site_type_symbol
_atom_site_label
_atom_site_fract_x
_atom_site_fract_y
_atom_site_fract_z
Si Si1 0.621459 0.542857 0.918543
Si Si2 0.169817 0.665614 0.159801
Si Si3 0.918519 0.541089 0.366693
Si Si4 0.736256 0.642749 0.506776
Si Si5 0.751499 0.662089 0.796749
Si Si6 0.905911 0.258336 0.296583
Si Si7 0.504154 0.333104 0.446501
O O1 0.531749 0.468252 0.935699
O O2 0.661684 0.502818 0.888947
O O3 0.607904 0.608007 0.891551
O O4 0.688481 0.591555 0.953314
O O5 0.157728 0.578864 0.177007
O O6 0.261466 0.738535 0.171639
O O7 0.099626 0.680496 0.180382
O O8 0.932418 0.466209 0.351486
O O9 0.896460 0.576085 0.327014
O O10 0.841368 0.508439 0.398042
O O11 0.723284 0.723284 0.500000
O O12 0.835218 0.670435 0.509142
O O13 0.691010 0.582223 0.468766
O O14 0.744968 0.637345 0.750000
O O15 0.844565 0.689129 0.813420
O O16 0.731915 0.736909 0.803687
O O17 0.898577 0.283133 0.250000
O O18 0.836251 0.163750 0.306257
O O19 0.532660 0.266330 0.457245
O O20 0.576104 0.423897 0.461795
#
# Coordination Sequence:
#
# PCOD8330506 Si02
#       7
#    24  24  24  24  24  24  24
#     4  10  19  32  51  75 103 135 171 208 252 302
#     4  10  19  31  47  70 100 135 172 207 245 293
#     4  10  19  32  51  76 104 136 173 213 253 298
#     4  11  22  36  54  77 104 135 172 217 261 307
#     4   9  18  32  49  69  95 127 163 203 252 307
#     4  10  20  34  53  77 103 131 169 217 263 307
#     4  10  20  33  52  76 105 138 172 210 253 301
#
# _framework density 17.296921999999999
#
# number of rings (size 3 to 8) (size 9 to 14) (size 15 to 20)
#    0.000    2.000    2.857    1.571    0.000    1.143 
#    0.000    1.429    0.000    6.143    0.000    2.000 
#    0.000    1.143    0.000    0.000    0.000    0.000 
#
# Total GULP energy -2082337.209627 kJ/mol
# GULP energy per Si atom -12394.864343 kJ/mol
# Density = 1.725755 g / cm^3
# Si number density = 17.296922 Si / 1000 Ang^3
#
#
#
# Elastic Constant Matrix: (Units=GPa)
#
#
# Indices 1 2 3 4 5 6 
#
# 1 102.6683 61.5445 38.4843 0.0000 0.0000 0.0000
# 2 61.5445 102.6683 38.4843 0.0000 0.0000 0.0000
# 3 38.4843 38.4843 67.8667 0.0000 0.0000 0.0000
# 4 0.0000 0.0000 0.0000 23.9451 0.0000 0.0000
# 5 0.0000 0.0000 0.0000 0.0000 23.9451 0.0000
# 6 0.0000 0.0000 0.0000 0.0000 0.0000 20.5619
#
#
#
# Elastic Compliance Matrix: (Units=1/GPa)
#
#
# Indices 1 2 3 4 5 6 
#
# 1 0.016305 -0.008011 -0.004703 0.000000 0.000000 0.000000
# 2 -0.008011 0.016305 -0.004703 0.000000 0.000000 0.000000
# 3 -0.004703 -0.004703 0.020069 0.000000 0.000000 0.000000
# 4 0.000000 0.000000 0.000000 0.041762 0.000000 0.000000
# 5 0.000000 0.000000 0.000000 0.000000 0.041762 0.000000
# 6 0.000000 0.000000 0.000000 0.000000 0.000000 0.048634
#
#
# Mechanical properties :
#
#
# Convention : Reuss Voigt Hill
#
# Bulk Modulus (GPa) = 56.04108 61.13664 58.58886
# Shear Modulus (GPa) = 22.16100 22.66975 22.41538
#
# Velocity S-wave (km/s) = 3.58328 3.62418 3.60379
# Velocity P-wave (km/s) = 7.04199 7.27565 7.15977
#
# Compressibility (1/GPa) = 0.01784405
#
# Stress axis : x y z
#
# Youngs Moduli (GPa) = 61.32914 61.32914 49.82861
#
# Poissons Ratio (x) = 0.49133 0.23436
# Poissons Ratio (y) = 0.49133 0.23436
# Poissons Ratio (z) = 0.28845 0.28845
#
# Static dielectric constant tensor:
#      x y z
#    x 3.223130 0.000000 0.000000 
#    y 0.000000 3.223130 0.000000 
#    z 0.000000 0.000000 3.257380 
# 
# 
# High freq. dielectric constant tensor:
#      x y z
#    x 1.655660 0.000000 0.000000 
#    y 0.000000 1.655660 0.000000 
#    z 0.000000 0.000000 1.668900 
# 
# From -- ./inp_files/12298.got.cif
#   From: 2010.03.12/outbox.cif.g09.slc.cpg/sg194_7_cif.got.tgz:12298.got - 2010.04.01 12:26:19.
