data_PCOD8330794
_publ_section_title
;
Structure prediction by ZEFSAII (Michael W. Deem and Ramdas Pophale) SiO2 
 PCOD8330794
Probable space group: P 63/M M C
;
_chemical_formula_sum "Si O2"
_cell_formula_units_Z 136
_cell_length_a 29.429836
_cell_length_b 29.429836
_cell_length_c 9.150678
_cell_angle_alpha 90.000000
_cell_angle_beta 90.000000
_cell_angle_gamma 120.000000
_cell_volume 6863.720482
_symmetry_space_group_name_H-M "P 63/M M C"
_symmetry_group_IT_number 194
_symmetry_cell_setting 'hexagonal'
loop_
_space_group_symop_operation_xyz
x,y,z
x-y,x,1/2+z
-y,x-y,z
-x,-y,1/2+z
-x+y,-x,z
y,-x+y,1/2+z
x-y,-y,-z
-x,-x+y,-z
y,x,-z
-y,-x,1/2-z
-x+y,y,1/2-z
x,x-y,1/2-z
-x,-y,-z
-x+y,-x,1/2-z
y,-x+y,-z
x,y,1/2-z
x-y,x,-z
-y,x-y,1/2-z
-x+y,y,z
x,x-y,z
-y,-x,z
y,x,1/2+z
x-y,-y,1/2+z
-x,-x+y,1/2+z
loop_
_atom_site_type_symbol
_atom_site_label
_atom_site_fract_x
_atom_site_fract_y
_atom_site_fract_z
Si Si1 0.477155 0.054791 0.579860
Si Si2 0.210705 0.052749 0.578211
Si Si3 0.318169 0.211154 0.421222
Si Si4 0.333334 0.666667 0.422662
Si Si5 0.421094 0.107017 0.085903
Si Si6 0.606889 0.213778 0.921338
Si Si7 0.790351 0.309864 0.086111
O O1 0.463808 0.045793 0.750000
O O2 0.541041 0.082082 0.556276
O O3 0.449994 0.086084 0.518229
O O4 0.450926 0.000000 0.500000
O O5 0.211037 0.042874 0.750000
O O6 0.197451 0.098726 0.545060
O O7 0.267245 0.067655 0.513181
O O8 0.166416 0.000000 0.500000
O O9 0.305931 0.210984 0.250000
O O10 0.334254 0.167127 0.455388
O O11 0.364474 0.268725 0.471023
O O12 0.333334 0.666667 0.250000
O O13 0.363102 0.636899 0.478845
O O14 0.416137 0.084227 0.250000
O O15 0.457601 0.169715 0.087475
O O16 0.603235 0.206469 0.750000
O O17 0.548308 0.186816 0.984978
O O18 0.782504 0.324726 0.250000
O O19 0.735636 0.264365 0.020468
#
# Coordination Sequence:
#
# PCOD8330794 Si02
#       7
#    24  24  24   4  24  12  24
#     4  10  22  40  59  78 101 132 171 218 273 334
#     4  10  21  37  60  92 128 167 210 253 294 340
#     4   9  18  35  58  83 114 153 193 236 289 344
#     4   9  18  33  49  65  91 126 166 215 271 327
#     4  10  21  36  57  82 108 140 178 225 280 340
#     4  11  21  35  51  69  96 132 173 219 273 333
#     4  10  21  36  53  76 104 135 174 219 268 327
#
# _framework density 19.814326999999999
#
# number of rings (size 3 to 8) (size 9 to 14) (size 15 to 20)
#    0.000    2.118    0.882    1.853    1.235    6.353 
#    0.000    0.000    0.000    3.353    0.000    0.000 
#    0.000    0.000    0.000    0.000    0.000    0.000 
#
# Total GULP energy -1685917.469379 kJ/mol
# GULP energy per Si atom -12396.451981 kJ/mol
# Density = 1.976923 g / cm^3
# Si number density = 19.814327 Si / 1000 Ang^3
#
#
#
# Elastic Constant Matrix: (Units=GPa)
#
#
# Indices 1 2 3 4 5 6 
#
# 1 99.3575 57.2535 55.5161 0.0000 0.0000 0.0000
# 2 57.2535 99.3577 55.5161 0.0000 0.0000 0.0000
# 3 55.5161 55.5161 109.4374 0.0000 0.0000 0.0000
# 4 0.0000 0.0000 0.0000 29.0528 0.0000 0.0000
# 5 0.0000 0.0000 0.0000 0.0000 29.0528 0.0000
# 6 0.0000 0.0000 0.0000 0.0000 0.0000 21.0520
#
#
#
# Elastic Compliance Matrix: (Units=1/GPa)
#
#
# Indices 1 2 3 4 5 6 
#
# 1 0.016861 -0.006890 -0.005058 0.000000 0.000000 0.000000
# 2 -0.006890 0.016861 -0.005058 0.000000 0.000000 0.000000
# 3 -0.005058 -0.005058 0.014270 0.000000 0.000000 0.000000
# 4 0.000000 0.000000 0.000000 0.034420 0.000000 0.000000
# 5 0.000000 0.000000 0.000000 0.000000 0.034420 0.000000
# 6 0.000000 0.000000 0.000000 0.000000 0.000000 0.047501
#
#
# Mechanical properties :
#
#
# Convention : Reuss Voigt Hill
#
# Bulk Modulus (GPa) = 71.53520 71.63601 71.58561
# Shear Modulus (GPa) = 24.62982 25.15598 24.89290
#
# Velocity S-wave (km/s) = 3.52949 3.56699 3.54829
# Velocity P-wave (km/s) = 7.26573 7.29361 7.27968
#
# Compressibility (1/GPa) = 0.01397913
#
# Stress axis : x y z
#
# Youngs Moduli (GPa) = 59.30813 59.30830 70.07834
#
# Poissons Ratio (x) = 0.40861 0.35448
# Poissons Ratio (y) = 0.40861 0.35448
# Poissons Ratio (z) = 0.30000 0.30000
#
# Static dielectric constant tensor:
#      x y z
#    x 3.603220 0.000000 0.000000 
#    y 0.000000 3.603210 0.000000 
#    z 0.000000 0.000000 3.812140 
# 
# 
# High freq. dielectric constant tensor:
#      x y z
#    x 1.768270 0.000000 0.000000 
#    y 0.000000 1.768270 0.000000 
#    z 0.000000 0.000000 1.768650 
# 
# From -- ./inp_files/2174.got.cif
#   From: 2010.03.12/outbox.cif.g09.slc.cpg/sg194_2_cif.got.tgz:2174.got - 2010.04.01 12:26:19.
