data_PCOD8330021
_publ_section_title
;
Structure prediction by ZEFSAII (Michael W. Deem and Ramdas Pophale) SiO2 
 PCOD8330021
Probable space group: P 63/M C M
;
_chemical_formula_sum "Si O2"
_cell_formula_units_Z 192
_cell_length_a 26.517408
_cell_length_b 26.517408
_cell_length_c 18.474657
_cell_angle_alpha 90.000000
_cell_angle_beta 90.000000
_cell_angle_gamma 120.000000
_cell_volume 11250.430919
_symmetry_space_group_name_H-M "P 63/M C M"
_symmetry_group_IT_number 193
_symmetry_cell_setting 'hexagonal'
loop_
_space_group_symop_operation_xyz
x,y,z
x-y,x,1/2+z
-y,x-y,z
-x,-y,1/2+z
-x+y,-x,z
y,-x+y,1/2+z
x-y,-y,1/2-z
-x,-x+y,1/2-z
y,x,1/2-z
-y,-x,-z
-x+y,y,-z
x,x-y,-z
-x,-y,-z
-x+y,-x,1/2-z
y,-x+y,-z
x,y,1/2-z
x-y,x,-z
-y,x-y,1/2-z
-x+y,y,1/2+z
x,x-y,1/2+z
-y,-x,1/2+z
y,x,z
x-y,-y,z
-x,-x+y,z
loop_
_atom_site_type_symbol
_atom_site_label
_atom_site_fract_x
_atom_site_fract_y
_atom_site_fract_z
Si Si1 0.738178 0.670543 0.665567
Si Si2 0.256121 0.324072 0.834648
Si Si3 0.871786 0.123279 0.334629
Si Si4 0.277375 0.436156 0.415881
Si Si5 0.725385 0.565761 0.085892
Si Si6 0.933842 0.066281 0.415692
Si Si7 0.332724 0.782399 0.333573
Si Si8 0.334122 0.782716 0.833797
O O1 0.731994 0.654720 0.750000
O O2 0.705228 0.705228 0.644897
O O3 0.805129 0.708555 0.642733
O O4 0.710192 0.611545 0.619788
O O5 0.257803 0.338436 0.750000
O O6 0.293694 0.293694 0.852910
O O7 0.190066 0.281345 0.860181
O O8 0.282989 0.383780 0.878894
O O9 0.878797 0.117695 0.250000
O O10 0.894080 0.085148 0.373679
O O11 0.286042 0.436257 0.501093
O O12 0.212579 0.422813 0.395719
O O13 0.324874 0.498072 0.383604
O O14 0.677246 0.504492 0.119098
O O15 0.926405 0.073596 0.500000
O O16 0.000000 0.105710 0.389955
O O17 0.914115 0.000000 0.396734
O O18 0.332820 0.798681 0.250000
O O19 0.393712 0.788735 0.356921
O O20 0.283256 0.716143 0.348640
O O21 0.334069 0.799289 0.750000
#
# Coordination Sequence:
#
# PCOD8330021 Si02
#       8
#    24  24  24  24  24  24  24  24
#     4  10  20  34  54  77 100 130 167 209 258 309
#     4  10  20  34  54  77 100 130 167 209 258 309
#     4  10  20  35  55  77 102 126 160 212 266 314
#     4  10  20  33  50  74 105 139 173 209 252 301
#     4  10  20  33  50  74 105 139 173 209 252 301
#     4  10  21  36  52  70  96 132 170 206 250 310
#     4   9  17  30  51  78 108 141 176 212 250 294
#     4   9  17  30  51  78 108 141 176 212 250 294
#
# _framework density 17.066013000000002
#
# number of rings (size 3 to 8) (size 9 to 14) (size 15 to 20)
#    0.000    2.250    1.250    1.875    0.000    6.000 
#    0.000    0.000    0.000    3.000    0.000    5.250 
#    0.000    0.000    0.000    0.000    0.000    0.000 
#
# Total GULP energy -2381554.138568 kJ/mol
# GULP energy per Si atom -12403.927805 kJ/mol
# Density = 1.702717 g / cm^3
# Si number density = 17.066013 Si / 1000 Ang^3
#
#
#
# Elastic Constant Matrix: (Units=GPa)
#
#
# Indices 1 2 3 4 5 6 
#
# 1 109.8327 52.0919 50.8088 0.0000 0.0000 0.0000
# 2 52.0919 109.8327 50.8088 0.0000 0.0000 0.0000
# 3 50.8088 50.8088 61.4158 0.0000 0.0000 0.0000
# 4 0.0000 0.0000 0.0000 21.4963 0.0000 0.0000
# 5 0.0000 0.0000 0.0000 0.0000 21.4963 0.0000
# 6 0.0000 0.0000 0.0000 0.0000 0.0000 28.8704
#
#
#
# Elastic Compliance Matrix: (Units=1/GPa)
#
#
# Indices 1 2 3 4 5 6 
#
# 1 0.015081 -0.002237 -0.010626 0.000000 0.000000 0.000000
# 2 -0.002237 0.015081 -0.010626 0.000000 0.000000 0.000000
# 3 -0.010626 -0.010626 0.033864 0.000000 0.000000 0.000000
# 4 0.000000 0.000000 0.000000 0.046520 0.000000 0.000000
# 5 0.000000 0.000000 0.000000 0.000000 0.046520 0.000000
# 6 0.000000 0.000000 0.000000 0.000000 0.000000 0.034638
#
#
# Mechanical properties :
#
#
# Convention : Reuss Voigt Hill
#
# Bulk Modulus (GPa) = 58.65559 65.38893 62.02226
# Shear Modulus (GPa) = 20.46127 22.86404 21.66265
#
# Velocity S-wave (km/s) = 3.46634 3.66422 3.56665
# Velocity P-wave (km/s) = 7.10388 7.50336 7.30635
#
# Compressibility (1/GPa) = 0.01704867
#
# Stress axis : x y z
#
# Youngs Moduli (GPa) = 66.30683 66.30683 29.53016
#
# Poissons Ratio (x) = 0.14835 0.31378
# Poissons Ratio (y) = 0.14835 0.31378
# Poissons Ratio (z) = 0.70456 0.70456
#
# Static dielectric constant tensor:
#      x y z
#    x 3.135260 0.000000 0.000000 
#    y 0.000000 3.135260 0.000000 
#    z 0.000000 0.000000 3.117990 
# 
# 
# High freq. dielectric constant tensor:
#      x y z
#    x 1.653100 0.000000 0.000000 
#    y 0.000000 1.653100 0.000000 
#    z 0.000000 0.000000 1.656800 
# 
# From -- ./inp_files/6895.got.cif
#   From: 2010.03.12/outbox.cif.g09.slc.cpg/sg193_4_cif.got.tgz:6895.got - 2010.04.01 12:20:39.
