data_PCOD8330280
_publ_section_title
;
Structure prediction by ZEFSAII (Michael W. Deem and Ramdas Pophale) SiO2 
 PCOD8330280
Probable space group: P 63/M C M
;
_chemical_formula_sum "Si O2"
_cell_formula_units_Z 120
_cell_length_a 21.540576
_cell_length_b 21.540576
_cell_length_c 18.368801
_cell_angle_alpha 90.000000
_cell_angle_beta 90.000000
_cell_angle_gamma 120.000000
_cell_volume 7381.184574
_symmetry_space_group_name_H-M "P 63/M C M"
_symmetry_group_IT_number 193
_symmetry_cell_setting 'hexagonal'
loop_
_space_group_symop_operation_xyz
x,y,z
x-y,x,1/2+z
-y,x-y,z
-x,-y,1/2+z
-x+y,-x,z
y,-x+y,1/2+z
x-y,-y,1/2-z
-x,-x+y,1/2-z
y,x,1/2-z
-y,-x,-z
-x+y,y,-z
x,x-y,-z
-x,-y,-z
-x+y,-x,1/2-z
y,-x+y,-z
x,y,1/2-z
x-y,x,-z
-y,x-y,1/2-z
-x+y,y,1/2+z
x,x-y,1/2+z
-y,-x,1/2+z
y,x,z
x-y,-y,z
-x,-x+y,z
loop_
_atom_site_type_symbol
_atom_site_label
_atom_site_fract_x
_atom_site_fract_y
_atom_site_fract_z
Si Si1 0.919490 0.700787 0.915883
Si Si2 0.457199 0.542802 0.417687
Si Si3 0.576514 0.661606 0.668206
Si Si4 0.914908 0.338393 0.168206
Si Si5 0.781296 0.700787 0.584117
O O1 0.891161 0.628207 0.870173
O O2 0.865837 0.731674 0.901405
O O3 0.000000 0.761345 0.892488
O O4 0.918553 0.680196 0.000000
O O5 0.442510 0.557491 0.500000
O O6 0.500002 0.500002 0.417543
O O7 0.381384 0.497328 0.376502
O O8 0.502673 0.618617 0.376502
O O9 0.559383 0.675676 0.750000
O O10 0.614959 0.614959 0.669671
O O11 0.628206 0.737045 0.629826
O O12 0.883707 0.324323 0.250000
O O13 0.000000 0.385041 0.169671
O O14 0.761344 0.761344 0.607512
#
# Coordination Sequence:
#
# PCOD8330280 Si02
#       5
#    24  24  24  24  24
#     4   9  17  29  44  61  83 113 149 189 235 287
#     4   9  15  23  37  57  83 113 139 161 191 237
#     4   9  16  25  38  58  84 111 138 170 209 253
#     4   9  16  25  38  58  84 111 138 170 209 253
#     4   9  17  29  44  61  83 113 149 189 235 287
#
# _framework density 16.257553000000001
#
# number of rings (size 3 to 8) (size 9 to 14) (size 15 to 20)
#    0.000    3.000    0.000    1.800    0.000    8.000 
#    0.000    0.000    0.000    0.400    0.000    2.800 
#    2.000    0.000    3.600   10.000    3.600   10.400 
#
# Total GULP energy -1487529.224852 kJ/mol
# GULP energy per Si atom -12396.076874 kJ/mol
# Density = 1.622055 g / cm^3
# Si number density = 16.257553 Si / 1000 Ang^3
#
#
#
# Elastic Constant Matrix: (Units=GPa)
#
#
# Indices 1 2 3 4 5 6 
#
# 1 79.4304 45.2590 42.6134 0.0000 0.0000 0.0000
# 2 45.2590 79.4304 42.6134 0.0000 0.0000 0.0000
# 3 42.6134 42.6134 109.6861 0.0000 0.0000 0.0000
# 4 0.0000 0.0000 0.0000 15.0687 0.0000 0.0000
# 5 0.0000 0.0000 0.0000 0.0000 15.0687 0.0000
# 6 0.0000 0.0000 0.0000 0.0000 0.0000 17.0857
#
#
#
# Elastic Compliance Matrix: (Units=1/GPa)
#
#
# Indices 1 2 3 4 5 6 
#
# 1 0.020092 -0.009172 -0.004242 0.000000 0.000000 0.000000
# 2 -0.009172 0.020092 -0.004242 0.000000 0.000000 0.000000
# 3 -0.004242 -0.004242 0.012413 0.000000 0.000000 0.000000
# 4 0.000000 0.000000 0.000000 0.066363 0.000000 0.000000
# 5 0.000000 0.000000 0.000000 0.000000 0.066363 0.000000
# 6 0.000000 0.000000 0.000000 0.000000 0.000000 0.058528
#
#
# Mechanical properties :
#
#
# Convention : Reuss Voigt Hill
#
# Bulk Modulus (GPa) = 57.85958 58.83536 58.34747
# Shear Modulus (GPa) = 17.54843 18.64870 18.09856
#
# Velocity S-wave (km/s) = 3.28899 3.39053 3.34015
# Velocity P-wave (km/s) = 7.07742 7.18302 7.13041
#
# Compressibility (1/GPa) = 0.01728322
#
# Stress axis : x y z
#
# Youngs Moduli (GPa) = 49.77130 49.77130 80.55934
#
# Poissons Ratio (x) = 0.45652 0.34176
# Poissons Ratio (y) = 0.45652 0.34176
# Poissons Ratio (z) = 0.21114 0.21114
#
# Static dielectric constant tensor:
#      x y z
#    x 2.841290 0.000000 0.000000 
#    y 0.000000 2.841290 0.000000 
#    z 0.000000 0.000000 3.308700 
# 
# 
# High freq. dielectric constant tensor:
#      x y z
#    x 1.588830 0.000000 0.000000 
#    y 0.000000 1.588830 0.000000 
#    z 0.000000 0.000000 1.639570 
# 
# From -- ./inp_files/4040.got.cif
#   From: 2010.03.12/outbox.cif.g09.slc.cpg/sg193_3_cif.got.tgz:4040.got - 2010.04.01 12:20:39.
