data_PCOD8330525
_publ_section_title
;
Structure prediction by ZEFSAII (Michael W. Deem and Ramdas Pophale) SiO2 
 PCOD8330525
Probable space group: P 63/M M C
;
_chemical_formula_sum "Si O2"
_cell_formula_units_Z 144
_cell_length_a 31.813745
_cell_length_b 31.813745
_cell_length_c 9.338160
_cell_angle_alpha 90.000000
_cell_angle_beta 90.000000
_cell_angle_gamma 120.000000
_cell_volume 8185.053717
_symmetry_space_group_name_H-M "P 63/M M C"
_symmetry_group_IT_number 194
_symmetry_cell_setting 'hexagonal'
loop_
_space_group_symop_operation_xyz
x,y,z
x-y,x,1/2+z
-y,x-y,z
-x,-y,1/2+z
-x+y,-x,z
y,-x+y,1/2+z
x-y,-y,-z
-x,-x+y,-z
y,x,-z
-y,-x,1/2-z
-x+y,y,1/2-z
x,x-y,1/2-z
-x,-y,-z
-x+y,-x,1/2-z
y,-x+y,-z
x,y,1/2-z
x-y,x,-z
-y,x-y,1/2-z
-x+y,y,z
x,x-y,z
-y,-x,z
y,x,1/2+z
x-y,-y,1/2+z
-x,-x+y,1/2+z
loop_
_atom_site_type_symbol
_atom_site_label
_atom_site_fract_x
_atom_site_fract_y
_atom_site_fract_z
Si Si1 0.343263 0.862169 0.081026
Si Si2 0.199109 0.900788 0.591804
Si Si3 0.952445 0.525960 0.415216
Si Si4 0.853553 0.611498 0.916451
Si Si5 0.761321 0.333223 0.579786
Si Si6 0.143376 0.952406 0.581066
O O1 0.355177 0.871169 0.250000
O O2 0.292493 0.857955 0.041355
O O3 0.340220 0.812559 0.028496
O O4 0.383994 0.905720 0.990946
O O5 0.222107 0.915245 0.750000
O O6 0.150048 0.849953 0.597969
O O7 0.237911 0.897031 0.490976
O O8 0.185391 0.940293 0.534341
O O9 0.955636 0.542419 0.250000
O O10 0.948088 0.474044 0.425165
O O11 0.000000 0.565683 0.500000
O O12 0.860533 0.622204 0.750000
O O13 0.800686 0.601371 0.966546
O O14 0.759262 0.331620 0.750000
O O15 0.756001 0.378001 0.521432
O O16 0.716979 0.283022 0.518063
O O17 0.145458 0.960714 0.750000
O O18 0.090846 0.909155 0.534513
O O19 0.151546 0.000000 0.500000
#
# Coordination Sequence:
#
# PCOD8330525 Si02
#       6
#    24  24  24  24  24  24
#     4  10  19  31  49  74 103 133 165 203 248 297
#     4   8  15  29  47  66  91 124 160 198 240 284
#     4  10  21  37  56  75  94 118 152 196 244 295
#     4   9  17  29  46  70 100 132 166 203 242 287
#     4   9  16  26  43  69 101 136 174 216 259 300
#     4   9  18  32  50  74 102 130 164 206 248 292
#
# _framework density 17.593042000000001
#
# number of rings (size 3 to 8) (size 9 to 14) (size 15 to 20)
#    0.000    2.833    0.000    2.667    0.000    6.000 
#    0.000    2.500    0.000    3.667    0.000    0.000 
#    0.000    1.333    0.000    0.000    0.000    0.000 
#
# Total GULP energy -1785206.354373 kJ/mol
# GULP energy per Si atom -12397.266350 kJ/mol
# Density = 1.755300 g / cm^3
# Si number density = 17.593042 Si / 1000 Ang^3
#
#
#
# Elastic Constant Matrix: (Units=GPa)
#
#
# Indices 1 2 3 4 5 6 
#
# 1 118.6594 66.8048 48.5702 0.0000 0.0000 0.0000
# 2 66.8048 118.6594 48.5702 0.0000 0.0000 0.0000
# 3 48.5702 48.5702 55.3264 0.0000 0.0000 0.0000
# 4 0.0000 0.0000 0.0000 27.1393 0.0000 0.0000
# 5 0.0000 0.0000 0.0000 0.0000 27.1393 0.0000
# 6 0.0000 0.0000 0.0000 0.0000 0.0000 25.9273
#
#
#
# Elastic Compliance Matrix: (Units=1/GPa)
#
#
# Indices 1 2 3 4 5 6 
#
# 1 0.014633 -0.004652 -0.008763 0.000000 0.000000 0.000000
# 2 -0.004652 0.014633 -0.008763 0.000000 0.000000 0.000000
# 3 -0.008763 -0.008763 0.033460 0.000000 0.000000 0.000000
# 4 0.000000 0.000000 0.000000 0.036847 0.000000 0.000000
# 5 0.000000 0.000000 0.000000 0.000000 0.036847 0.000000
# 6 0.000000 0.000000 0.000000 0.000000 0.000000 0.038569
#
#
# Mechanical properties :
#
#
# Convention : Reuss Voigt Hill
#
# Bulk Modulus (GPa) = 54.42990 68.94836 61.68913
# Shear Modulus (GPa) = 22.17625 24.62117 23.39871
#
# Velocity S-wave (km/s) = 3.55422 3.74503 3.65087
# Velocity P-wave (km/s) = 6.91728 7.61420 7.27409
#
# Compressibility (1/GPa) = 0.01837226
#
# Stress axis : x y z
#
# Youngs Moduli (GPa) = 68.33842 68.33842 29.88683
#
# Poissons Ratio (x) = 0.31789 0.26188
# Poissons Ratio (y) = 0.31789 0.26188
# Poissons Ratio (z) = 0.59882 0.59882
#
# Static dielectric constant tensor:
#      x y z
#    x 3.326660 0.000000 0.000000 
#    y 0.000000 3.326660 0.000000 
#    z 0.000000 0.000000 3.160420 
# 
# 
# High freq. dielectric constant tensor:
#      x y z
#    x 1.676340 0.000000 0.000000 
#    y 0.000000 1.676340 0.000000 
#    z 0.000000 0.000000 1.658120 
# 
# From -- ./inp_files/2146.got.cif
#   From: 2010.03.12/outbox.cif.g09.slc.cpg/sg194_2_cif.got.tgz:2146.got - 2010.04.01 12:26:19.
