data_PCOD8330624
_publ_section_title
;
Structure prediction by ZEFSAII (Michael W. Deem and Ramdas Pophale) SiO2 
 PCOD8330624
Probable space group: P 63/M M C
;
_chemical_formula_sum "Si O2"
_cell_formula_units_Z 156
_cell_length_a 21.724652
_cell_length_b 21.724652
_cell_length_c 20.993117
_cell_angle_alpha 90.000000
_cell_angle_beta 90.000000
_cell_angle_gamma 120.000000
_cell_volume 8580.512229
_symmetry_space_group_name_H-M "P 63/M M C"
_symmetry_group_IT_number 194
_symmetry_cell_setting 'hexagonal'
loop_
_space_group_symop_operation_xyz
x,y,z
x-y,x,1/2+z
-y,x-y,z
-x,-y,1/2+z
-x+y,-x,z
y,-x+y,1/2+z
x-y,-y,-z
-x,-x+y,-z
y,x,-z
-y,-x,1/2-z
-x+y,y,1/2-z
x,x-y,1/2-z
-x,-y,-z
-x+y,-x,1/2-z
y,-x+y,-z
x,y,1/2-z
x-y,x,-z
-y,x-y,1/2-z
-x+y,y,z
x,x-y,z
-y,-x,z
y,x,1/2+z
x-y,-y,1/2+z
-x,-x+y,1/2+z
loop_
_atom_site_type_symbol
_atom_site_label
_atom_site_fract_x
_atom_site_fract_y
_atom_site_fract_z
Si Si1 0.221671 0.918864 0.819464
Si Si2 0.719735 0.140702 0.514181
Si Si3 0.205566 0.269871 0.956791
Si Si4 0.524220 0.614824 0.371024
Si Si5 0.375025 0.936854 0.678949
Si Si6 0.804833 0.333954 0.403168
Si Si7 0.334650 0.521673 0.250000
O O1 0.210094 0.946611 0.750000
O O2 0.165086 0.834915 0.826879
O O3 0.212999 0.958194 0.881584
O O4 0.298886 0.929853 0.821619
O O5 0.792978 0.207023 0.538966
O O6 0.735612 0.086161 0.475069
O O7 0.670492 0.102613 0.574131
O O8 0.678130 0.166315 0.469110
O O9 0.127409 0.254817 0.971582
O O10 0.214803 0.214803 0.000000
O O11 0.445042 0.554959 0.392914
O O12 0.567726 0.575245 0.356068
O O13 0.518864 0.658188 0.311164
O O14 0.403084 0.940852 0.750000
O O15 0.369540 0.867719 0.647434
O O16 0.776210 0.388105 0.416503
O O17 0.740183 0.259818 0.376944
O O18 0.395824 0.604177 0.250000
O O19 0.258369 0.516737 0.250000
#
# Coordination Sequence:
#
# PCOD8330624 Si02
#       7
#    24  24  24  24  24  24  12
#     4   9  17  31  54  81 105 137 182 226 269 319
#     4  10  21  36  55  80 105 134 173 220 271 325
#     4  10  19  34  56  83 114 145 182 223 270 329
#     4  11  22  36  54  77 106 138 174 217 269 326
#     4  11  21  35  54  77 105 135 174 222 271 318
#     4  11  23  38  54  74 102 138 180 225 274 323
#     4  10  21  38  58  78 101 134 176 218 264 320
#
# _framework density 18.180731999999999
#
# number of rings (size 3 to 8) (size 9 to 14) (size 15 to 20)
#    0.000    1.692    2.308    3.000    0.000    1.846 
#    0.000    1.538    0.000    6.462    0.000    0.000 
#    0.000    0.000    0.000    0.000    0.000    0.000 
#
# Total GULP energy -1933945.054180 kJ/mol
# GULP energy per Si atom -12397.083681 kJ/mol
# Density = 1.813935 g / cm^3
# Si number density = 18.180732 Si / 1000 Ang^3
#
#
#
# Elastic Constant Matrix: (Units=GPa)
#
#
# Indices 1 2 3 4 5 6 
#
# 1 75.7301 39.7709 50.3730 0.0000 0.0000 0.0000
# 2 39.7709 75.7301 50.3730 0.0000 0.0000 0.0000
# 3 50.3730 50.3730 138.2087 0.0000 0.0000 0.0000
# 4 0.0000 0.0000 0.0000 22.7557 0.0000 0.0000
# 5 0.0000 0.0000 0.0000 0.0000 22.7557 0.0000
# 6 0.0000 0.0000 0.0000 0.0000 0.0000 17.9796
#
#
#
# Elastic Compliance Matrix: (Units=1/GPa)
#
#
# Indices 1 2 3 4 5 6 
#
# 1 0.020251 -0.007558 -0.004626 0.000000 0.000000 0.000000
# 2 -0.007558 0.020251 -0.004626 0.000000 0.000000 0.000000
# 3 -0.004626 -0.004626 0.010608 0.000000 0.000000 0.000000
# 4 0.000000 0.000000 0.000000 0.043945 0.000000 0.000000
# 5 0.000000 0.000000 0.000000 0.000000 0.043945 0.000000
# 6 0.000000 0.000000 0.000000 0.000000 0.000000 0.055619
#
#
# Mechanical properties :
#
#
# Convention : Reuss Voigt Hill
#
# Bulk Modulus (GPa) = 57.17885 63.41139 60.29512
# Shear Modulus (GPa) = 21.36114 22.64167 22.00140
#
# Velocity S-wave (km/s) = 3.43145 3.53280 3.48249
# Velocity P-wave (km/s) = 6.87156 7.18297 7.02899
#
# Compressibility (1/GPa) = 0.01748899
#
# Stress axis : x y z
#
# Youngs Moduli (GPa) = 49.37966 49.37966 94.27083
#
# Poissons Ratio (x) = 0.37321 0.43613
# Poissons Ratio (y) = 0.37321 0.43613
# Poissons Ratio (z) = 0.22845 0.22845
#
# Static dielectric constant tensor:
#      x y z
#    x 3.253480 0.000000 0.000000 
#    y 0.000000 3.253480 0.000000 
#    z 0.000000 0.000000 3.635470 
# 
# 
# High freq. dielectric constant tensor:
#      x y z
#    x 1.691010 0.000000 0.000000 
#    y 0.000000 1.691010 0.000000 
#    z 0.000000 0.000000 1.716480 
# 
# From -- ./inp_files/8362.got.cif
#   From: 2010.03.12/outbox.cif.g09.slc.cpg/sg194_5_cif.got.tgz:8362.got - 2010.04.01 12:26:19.
