data_PCOD8330836
_publ_section_title
;
Structure prediction by ZEFSAII (Michael W. Deem and Ramdas Pophale) SiO2 
 PCOD8330836
Probable space group: P 63/M M C
;
_chemical_formula_sum "Si O2"
_cell_formula_units_Z 192
_cell_length_a 28.302211
_cell_length_b 28.302211
_cell_length_c 17.876873
_cell_angle_alpha 90.000000
_cell_angle_beta 90.000000
_cell_angle_gamma 120.000000
_cell_volume 12401.177264
_symmetry_space_group_name_H-M "P 63/M M C"
_symmetry_group_IT_number 194
_symmetry_cell_setting 'hexagonal'
loop_
_space_group_symop_operation_xyz
x,y,z
x-y,x,1/2+z
-y,x-y,z
-x,-y,1/2+z
-x+y,-x,z
y,-x+y,1/2+z
x-y,-y,-z
-x,-x+y,-z
y,x,-z
-y,-x,1/2-z
-x+y,y,1/2-z
x,x-y,1/2-z
-x,-y,-z
-x+y,-x,1/2-z
y,-x+y,-z
x,y,1/2-z
x-y,x,-z
-y,x-y,1/2-z
-x+y,y,z
x,x-y,z
-y,-x,z
y,x,1/2+z
x-y,-y,1/2+z
-x,-x+y,1/2+z
loop_
_atom_site_type_symbol
_atom_site_label
_atom_site_fract_x
_atom_site_fract_y
_atom_site_fract_z
Si Si1 0.664995 0.883589 0.088862
Si Si2 0.607887 0.501218 0.163737
Si Si3 0.716631 0.176325 0.086846
Si Si4 0.716631 0.176325 0.586840
Si Si5 0.392112 0.498783 0.336263
Si Si6 0.405831 0.999999 0.088712
Si Si7 0.781406 0.664995 0.088866
Si Si8 0.000000 0.701839 0.410848
O O1 0.685988 0.842994 0.120010
O O2 0.602762 0.860726 0.113538
O O3 0.701482 0.945599 0.119461
O O4 0.667127 0.883264 0.999998
O O5 0.613954 0.518335 0.250000
O O6 0.560255 0.439746 0.151059
O O7 0.662946 0.503624 0.135094
O O8 0.594371 0.541163 0.117617
O O9 0.760106 0.239895 0.101154
O O10 0.742038 0.139276 0.113544
O O11 0.700494 0.165513 0.000003
O O12 0.760106 0.239895 0.601148
O O13 0.662946 0.159323 0.635089
O O14 0.386043 0.481668 0.250000
O O15 0.439745 0.560256 0.348943
O O16 0.405629 0.458838 0.382382
O O17 0.351935 0.999999 0.117895
O O18 0.407694 0.000000 0.000000
O O19 0.842995 0.685990 0.120014
O O20 0.755882 0.701482 0.119464
O O21 0.000000 0.701876 0.500000
#
# Coordination Sequence:
#
# PCOD8330836 Si02
#       8
#    24  24  24  24  24  24  24  24
#     4   8  13  22  38  61  86 109 138 178 217 254
#     4  11  23  35  46  65  95 125 150 181 228 283
#     4   9  17  31  51  71  87 107 142 185 224 267
#     4   9  17  31  51  71  87 107 142 185 224 267
#     4  11  23  35  46  65  95 125 150 181 228 283
#     4  11  20  32  49  68  88 118 158 193 226 269
#     4   8  13  22  38  61  86 109 138 178 217 254
#     4   9  14  22  40  63  86 112 143 178 221 264
#
# _framework density 15.482400999999999
#
# number of rings (size 3 to 8) (size 9 to 14) (size 15 to 20)
#    0.000    2.500    2.500    3.000    0.000    4.000 
#    0.000    0.000    0.000    0.500    0.000    0.000 
#    0.000    0.000    0.000    0.375    0.000   12.000 
#
# Total GULP energy -2379684.338883 kJ/mol
# GULP energy per Si atom -12394.189265 kJ/mol
# Density = 1.544716 g / cm^3
# Si number density = 15.482401 Si / 1000 Ang^3
#
#
#
# Elastic Constant Matrix: (Units=GPa)
#
#
# Indices 1 2 3 4 5 6 
#
# 1 109.7993 59.8427 32.0873 0.0000 0.0000 0.0000
# 2 59.8427 109.7993 32.0873 0.0000 0.0000 0.0000
# 3 32.0873 32.0873 43.0795 0.0000 0.0000 0.0000
# 4 0.0000 0.0000 0.0000 12.4664 0.0000 0.0000
# 5 0.0000 0.0000 0.0000 0.0000 12.4664 0.0000
# 6 0.0000 0.0000 0.0000 0.0000 0.0000 24.9783
#
#
#
# Elastic Compliance Matrix: (Units=1/GPa)
#
#
# Indices 1 2 3 4 5 6 
#
# 1 0.014112 -0.005905 -0.006113 0.000000 0.000000 0.000000
# 2 -0.005905 0.014112 -0.006113 0.000000 0.000000 0.000000
# 3 -0.006113 -0.006113 0.032319 0.000000 0.000000 0.000000
# 4 0.000000 0.000000 0.000000 0.080215 0.000000 0.000000
# 5 0.000000 0.000000 0.000000 0.000000 0.080215 0.000000
# 6 0.000000 0.000000 0.000000 0.000000 0.000000 0.040035
#
#
# Mechanical properties :
#
#
# Convention : Reuss Voigt Hill
#
# Bulk Modulus (GPa) = 41.18347 56.74584 48.96465
# Shear Modulus (GPa) = 16.37379 19.22630 17.80005
#
# Velocity S-wave (km/s) = 3.25557 3.52776 3.39439
# Velocity P-wave (km/s) = 6.38667 7.30239 6.85983
#
# Compressibility (1/GPa) = 0.02428159
#
# Stress axis : x y z
#
# Youngs Moduli (GPa) = 70.85993 70.85993 30.94111
#
# Poissons Ratio (x) = 0.41843 0.18915
# Poissons Ratio (y) = 0.41843 0.18915
# Poissons Ratio (z) = 0.43318 0.43318
#
# Static dielectric constant tensor:
#      x y z
#    x 3.133360 0.000000 0.000000 
#    y 0.000000 3.133360 0.000000 
#    z 0.000000 0.000000 2.704840 
# 
# 
# High freq. dielectric constant tensor:
#      x y z
#    x 1.580700 0.000000 0.000000 
#    y 0.000000 1.580700 0.000000 
#    z 0.000000 0.000000 1.567650 
# 
# From -- ./inp_files/5736.got.cif
#   From: 2010.03.12/outbox.cif.g09.slc.cpg/sg194_3_cif.got.tgz:5736.got - 2010.04.01 12:26:19.
