data_PCOD8330933
_publ_section_title
;
Structure prediction by ZEFSAII (Michael W. Deem and Ramdas Pophale) SiO2 
 PCOD8330933
Probable space group: F D 3
;
_chemical_formula_sum "Si O2"
_cell_formula_units_Z 520
_cell_length_a 29.324731
_cell_length_b 29.324731
_cell_length_c 29.324731
_cell_angle_alpha 90.000000
_cell_angle_beta 90.000000
_cell_angle_gamma 90.000000
_cell_volume 25217.504725
_symmetry_space_group_name_H-M "F D 3"
_symmetry_group_IT_number 203
_space_group.IT_coordinate_system_code '2'
_symmetry_cell_setting 'cubic'
loop_
_space_group_symop_operation_xyz
x,y,z
z,x,y
y,z,x
1/4-y,1/4-z,x
z,1/4-x,1/4-y
1/4-y,z,1/4-x
1/4-z,1/4-x,y
1/4-z,x,1/4-y
y,1/4-z,1/4-x
1/4-x,1/4-y,z
x,1/4-y,1/4-z
1/4-x,y,1/4-z
-x,-y,-z
-z,-x,-y
-y,-z,-x
3/4+y,3/4+z,-x
-z,3/4+x,3/4+y
3/4+y,-z,3/4+x
3/4+z,3/4+x,-y
3/4+z,-x,3/4+y
-y,3/4+z,3/4+x
3/4+x,3/4+y,-z
-x,3/4+y,3/4+z
3/4+x,-y,3/4+z
x,1/2+y,1/2+z
z,1/2+x,1/2+y
y,1/2+z,1/2+x
1/4-y,3/4-z,1/2+x
z,3/4-x,3/4-y
1/4-y,1/2+z,3/4-x
1/4-z,3/4-x,1/2+y
1/4-z,1/2+x,3/4-y
y,3/4-z,3/4-x
1/4-x,3/4-y,1/2+z
x,3/4-y,3/4-z
1/4-x,1/2+y,3/4-z
-x,1/2-y,1/2-z
-z,1/2-x,1/2-y
-y,1/2-z,1/2-x
3/4+y,1/4+z,1/2-x
-z,1/4+x,1/4+y
3/4+y,1/2-z,1/4+x
3/4+z,1/4+x,1/2-y
3/4+z,1/2-x,1/4+y
-y,1/4+z,1/4+x
3/4+x,1/4+y,1/2-z
-x,1/4+y,1/4+z
3/4+x,1/2-y,1/4+z
1/2+x,y,1/2+z
1/2+z,x,1/2+y
1/2+y,z,1/2+x
3/4-y,1/4-z,1/2+x
1/2+z,1/4-x,3/4-y
3/4-y,z,3/4-x
3/4-z,1/4-x,1/2+y
3/4-z,x,3/4-y
1/2+y,1/4-z,3/4-x
3/4-x,1/4-y,1/2+z
1/2+x,1/4-y,3/4-z
3/4-x,y,3/4-z
1/2-x,-y,1/2-z
1/2-z,-x,1/2-y
1/2-y,-z,1/2-x
1/4+y,3/4+z,1/2-x
1/2-z,3/4+x,1/4+y
1/4+y,-z,1/4+x
1/4+z,3/4+x,1/2-y
1/4+z,-x,1/4+y
1/2-y,3/4+z,1/4+x
1/4+x,3/4+y,1/2-z
1/2-x,3/4+y,1/4+z
1/4+x,-y,1/4+z
1/2+x,1/2+y,z
1/2+z,1/2+x,y
1/2+y,1/2+z,x
3/4-y,3/4-z,x
1/2+z,3/4-x,1/4-y
3/4-y,1/2+z,1/4-x
3/4-z,3/4-x,y
3/4-z,1/2+x,1/4-y
1/2+y,3/4-z,1/4-x
3/4-x,3/4-y,z
1/2+x,3/4-y,1/4-z
3/4-x,1/2+y,1/4-z
1/2-x,1/2-y,-z
1/2-z,1/2-x,-y
1/2-y,1/2-z,-x
1/4+y,1/4+z,-x
1/2-z,1/4+x,3/4+y
1/4+y,1/2-z,3/4+x
1/4+z,1/4+x,-y
1/4+z,1/2-x,3/4+y
1/2-y,1/4+z,3/4+x
1/4+x,1/4+y,-z
1/2-x,1/4+y,3/4+z
1/4+x,1/2-y,3/4+z
loop_
_atom_site_type_symbol
_atom_site_label
_atom_site_fract_x
_atom_site_fract_y
_atom_site_fract_z
Si Si1 0.941225 0.167771 0.278028
Si Si2 0.936531 0.313471 0.313471
Si Si3 0.735731 0.558007 0.929031
Si Si4 0.279703 0.421382 0.566957
Si Si5 0.875000 0.375000 0.375000
Si Si6 0.880756 0.522585 0.427591
Si Si7 0.024631 0.180871 0.824865
O O1 0.923854 0.206873 0.243087
O O2 0.928161 0.117975 0.259316
O O3 0.910903 0.180945 0.322281
O O4 0.905730 0.344271 0.344272
O O5 0.908423 0.268718 0.298615
O O6 0.790954 0.562316 0.930652
O O7 0.721072 0.506278 0.936024
O O8 0.707613 0.585504 0.967846
O O9 0.723165 0.574809 0.878914
O O10 0.293761 0.368432 0.557117
O O11 0.875000 0.508819 0.375000
O O12 0.056494 0.223122 0.809582
#
# Coordination Sequence:
#
# PCOD8330933 Si02
#       7
#    96  32  96  96   8  96  96
#     4  12  22  39  57  83 115 158 215 276 332 393
#     4  12  27  45  58  85 123 174 249 300 342 399
#     4  11  24  40  61  92 123 169 209 271 330 392
#     4  11  22  42  61  90 126 161 211 257 327 389
#     4  12  24  48  60  76 124 180 228 312 348 384
#     4  12  25  39  60  86 118 169 227 293 349 387
#     4  10  22  43  69  99 131 162 204 249 318 403
#
# _framework density 20.620595999999999
#
# number of rings (size 3 to 8) (size 9 to 14) (size 15 to 20)
#    0.000    0.738    4.615    2.954    2.585    2.215 
#    0.000    0.000    0.000    0.000    0.000    0.000 
#    0.000    0.000    0.000   22.892    0.000    0.000 
#
# Total GULP energy -1610676.910035 kJ/mol
# GULP energy per Si atom -12389.822385 kJ/mol
# Density = 2.057366 g / cm^3
# Si number density = 20.620596 Si / 1000 Ang^3
#
#
#
# Elastic Constant Matrix: (Units=GPa)
#
#
# Indices 1 2 3 4 5 6 
#
# 1 67.0187 19.7921 19.7922 0.0000 0.0000 0.0000
# 2 19.7921 67.0185 19.7924 0.0000 0.0000 0.0000
# 3 19.7922 19.7924 67.0189 0.0000 0.0000 0.0000
# 4 0.0000 0.0000 0.0000 32.4451 0.0000 0.0000
# 5 0.0000 0.0000 0.0000 0.0000 32.4453 0.0000
# 6 0.0000 0.0000 0.0000 0.0000 0.0000 32.4447
#
#
#
# Elastic Compliance Matrix: (Units=1/GPa)
#
#
# Indices 1 2 3 4 5 6 
#
# 1 0.017243 -0.003931 -0.003931 0.000000 0.000000 0.000000
# 2 -0.003931 0.017243 -0.003931 0.000000 0.000000 0.000000
# 3 -0.003931 -0.003931 0.017243 0.000000 0.000000 0.000000
# 4 0.000000 0.000000 0.000000 0.030821 0.000000 0.000000
# 5 0.000000 0.000000 0.000000 0.000000 0.030821 0.000000
# 6 0.000000 0.000000 0.000000 0.000000 0.000000 0.030822
#
#
# Mechanical properties :
#
#
# Convention : Reuss Voigt Hill
#
# Bulk Modulus (GPa) = 35.53438 35.53438 35.53438
# Shear Modulus (GPa) = 28.22269 28.91230 28.56750
#
# Velocity S-wave (km/s) = 3.70356 3.74854 3.72612
# Velocity P-wave (km/s) = 5.96308 6.00044 5.98179
#
# Compressibility (1/GPa) = 0.02814176
#
# Stress axis : x y z
#
# Youngs Moduli (GPa) = 57.99380 57.99357 57.99383
#
# Poissons Ratio (x) = 0.22799 0.22799
# Poissons Ratio (y) = 0.22799 0.22800
# Poissons Ratio (z) = 0.22799 0.22799
#
# Static dielectric constant tensor:
#      x y z
#    x 3.831880 0.000000 0.000000 
#    y 0.000000 3.831870 0.000000 
#    z 0.000000 0.000000 3.831860 
# 
# 
# High freq. dielectric constant tensor:
#      x y z
#    x 1.802850 0.000000 0.000000 
#    y 0.000000 1.802850 0.000000 
#    z 0.000000 0.000000 1.802850 
# 
# From -- ./inp_files/668.got.cif
#   From: 2010.03.12/outbox.cif.g09.slc.cpg/sg203_cif.got.tgz:668.got - 2010.03.30 09:02:32.
