data_PCOD8330959
_publ_section_title
;
Structure prediction by ZEFSAII (Michael W. Deem and Ramdas Pophale) SiO2 
 PCOD8330959
Probable space group: P A 3
;
_chemical_formula_sum "Si O2"
_cell_formula_units_Z 168
_cell_length_a 19.638731
_cell_length_b 19.638731
_cell_length_c 19.638731
_cell_angle_alpha 90.000000
_cell_angle_beta 90.000000
_cell_angle_gamma 90.000000
_cell_volume 7574.260966
_symmetry_space_group_name_H-M "P A 3"
_symmetry_group_IT_number 205
_symmetry_cell_setting 'cubic'
loop_
_space_group_symop_operation_xyz
x,y,z
z,x,y
y,z,x
1/2-y,-z,1/2+x
1/2+z,1/2-x,-y
-y,1/2+z,1/2-x
1/2-z,-x,1/2+y
-z,1/2+x,1/2-y
1/2+y,1/2-z,-x
1/2-x,-y,1/2+z
1/2+x,1/2-y,-z
-x,1/2+y,1/2-z
-x,-y,-z
-z,-x,-y
-y,-z,-x
1/2+y,z,1/2-x
1/2-z,1/2+x,y
y,1/2-z,1/2+x
1/2+z,x,1/2-y
z,1/2-x,1/2+y
1/2-y,1/2+z,x
1/2+x,y,1/2-z
1/2-x,1/2+y,z
x,1/2-y,1/2+z
loop_
_atom_site_type_symbol
_atom_site_label
_atom_site_fract_x
_atom_site_fract_y
_atom_site_fract_z
Si Si1 0.113074 0.687013 0.040235
Si Si2 0.427441 0.883422 0.946491
Si Si3 0.928475 0.764992 0.023282
Si Si4 0.274229 0.089503 0.979362
Si Si5 0.786846 0.407823 0.296212
Si Si6 0.084685 0.482315 0.375340
Si Si7 0.206791 0.845444 0.872864
O O1 0.071948 0.650132 0.100686
O O2 0.139141 0.753002 0.082507
O O3 0.065497 0.701857 0.975239
O O4 0.170627 0.636505 0.015279
O O5 0.473585 0.934017 0.901578
O O6 0.449098 0.805267 0.939171
O O7 0.958248 0.768715 0.945749
O O8 0.846589 0.769343 0.028903
O O9 0.955933 0.824874 0.070268
O O10 0.237899 0.141766 0.928829
O O11 0.803216 0.335429 0.332646
O O12 0.722393 0.393844 0.248120
O O13 0.113040 0.512790 0.445109
O O14 0.143246 0.434383 0.345877
#
# Coordination Sequence:
#
# PCOD8330959 Si02
#       7
#    24  24  24  24  24  24  24
#     4  12  24  45  77 106 147 191 251 317 393 461
#     4  12  21  41  68 104 144 177 229 295 377 456
#     4  12  25  43  69 103 146 188 242 307 381 452
#     4  12  26  46  71 112 142 191 253 322 381 454
#     4  12  28  47  73 105 151 204 260 319 388 469
#     4  12  26  47  77 110 147 199 263 326 392 464
#     4  12  26  49  76 108 152 207 260 319 394 490
#
# _framework density 22.18038
#
# number of rings (size 3 to 8) (size 9 to 14) (size 15 to 20)
#    0.000    0.000    7.143    2.571    2.000    0.000 
#    3.429    0.000    0.000    0.000    0.000    0.000 
#    0.000    0.000    0.000    0.000    0.000    0.000 
#
# Total GULP energy -2081389.290907 kJ/mol
# GULP energy per Si atom -12389.221970 kJ/mol
# Density = 2.212990 g / cm^3
# Si number density = 22.180380 Si / 1000 Ang^3
#
#
#
# Elastic Constant Matrix: (Units=GPa)
#
#
# Indices 1 2 3 4 5 6 
#
# 1 99.6040 42.3008 42.3008 0.0000 0.0000 0.0000
# 2 42.3008 99.6040 42.3008 0.0000 0.0000 0.0000
# 3 42.3008 42.3008 99.6040 0.0000 0.0000 0.0000
# 4 0.0000 0.0000 0.0000 39.8561 0.0000 0.0000
# 5 0.0000 0.0000 0.0000 0.0000 39.8561 0.0000
# 6 0.0000 0.0000 0.0000 0.0000 0.0000 39.8561
#
#
#
# Elastic Compliance Matrix: (Units=1/GPa)
#
#
# Indices 1 2 3 4 5 6 
#
# 1 0.013444 -0.004007 -0.004007 0.000000 0.000000 0.000000
# 2 -0.004007 0.013444 -0.004007 0.000000 0.000000 0.000000
# 3 -0.004007 -0.004007 0.013444 0.000000 0.000000 0.000000
# 4 0.000000 0.000000 0.000000 0.025090 0.000000 0.000000
# 5 0.000000 0.000000 0.000000 0.000000 0.025090 0.000000
# 6 0.000000 0.000000 0.000000 0.000000 0.000000 0.025090
#
#
# Mechanical properties :
#
#
# Convention : Reuss Voigt Hill
#
# Bulk Modulus (GPa) = 61.40190 61.40190 61.40190
# Shear Modulus (GPa) = 34.46496 35.37431 34.91964
#
# Velocity S-wave (km/s) = 3.94617 3.99789 3.97211
# Velocity P-wave (km/s) = 6.96463 7.00385 6.98426
#
# Compressibility (1/GPa) = 0.01628614
#
# Stress axis : x y z
#
# Youngs Moduli (GPa) = 74.38489 74.38489 74.38489
#
# Poissons Ratio (x) = 0.29809 0.29809
# Poissons Ratio (y) = 0.29809 0.29809
# Poissons Ratio (z) = 0.29809 0.29809
#
# Static dielectric constant tensor:
#      x y z
#    x 4.136270 0.000000 0.000000 
#    y 0.000000 4.136270 0.000000 
#    z 0.000000 0.000000 4.136270 
# 
# 
# High freq. dielectric constant tensor:
#      x y z
#    x 1.878040 0.000000 0.000000 
#    y 0.000000 1.878040 0.000000 
#    z 0.000000 0.000000 1.878040 
# 
# From -- ./inp_files/576.got.cif
#   From: 2010.03.12/outbox.cif.g09.slc.cpg/sg205_cif.got.tgz:576.got - 2010.03.30 09:02:58.
