data_PCOD8330286
_publ_section_title
;
Structure prediction by ZEFSAII (Michael W. Deem and Ramdas Pophale) SiO2 
 PCOD8330286
Probable space group: P 63/M M C
;
_chemical_formula_sum "Si O2"
_cell_formula_units_Z 108
_cell_length_a 31.751002
_cell_length_b 31.751002
_cell_length_c 8.961351
_cell_angle_alpha 90.000000
_cell_angle_beta 90.000000
_cell_angle_gamma 120.000000
_cell_volume 7823.822528
_symmetry_space_group_name_H-M "P 63/M M C"
_symmetry_group_IT_number 194
_symmetry_cell_setting 'hexagonal'
loop_
_space_group_symop_operation_xyz
x,y,z
x-y,x,1/2+z
-y,x-y,z
-x,-y,1/2+z
-x+y,-x,z
y,-x+y,1/2+z
x-y,-y,-z
-x,-x+y,-z
y,x,-z
-y,-x,1/2-z
-x+y,y,1/2-z
x,x-y,1/2-z
-x,-y,-z
-x+y,-x,1/2-z
y,-x+y,-z
x,y,1/2-z
x-y,x,-z
-y,x-y,1/2-z
-x+y,y,z
x,x-y,z
-y,-x,z
y,x,1/2+z
x-y,-y,1/2+z
-x,-x+y,1/2+z
loop_
_atom_site_type_symbol
_atom_site_label
_atom_site_fract_x
_atom_site_fract_y
_atom_site_fract_z
Si Si1 0.445538 0.051707 0.923276
Si Si2 0.144711 0.195037 0.925594
Si Si3 0.104576 0.305307 0.575447
Si Si4 0.948035 0.300511 0.577591
Si Si5 0.473018 0.526983 0.571983
O O1 0.454946 0.046206 0.750000
O O2 0.410996 0.075204 0.943302
O O3 0.497814 0.080611 0.009369
O O4 0.415703 0.000000 0.000000
O O5 0.146655 0.190500 0.750000
O O6 0.090695 0.181390 0.976885
O O7 0.182697 0.250081 0.975060
O O8 0.157284 0.157284 0.000000
O O9 0.099355 0.311494 0.750000
O O10 0.159506 0.319012 0.536170
O O11 0.092168 0.341278 0.487048
O O12 0.956931 0.295010 0.750000
O O13 0.000000 0.320504 0.500000
O O14 0.500000 0.500000 0.500000
O O15 0.473426 0.526574 0.750000
#
# Coordination Sequence:
#
# PCOD8330286 Si02
#       5
#    24  24  24  24  12
#     4   9  16  25  35  49  70  95 122 153 188 219
#     4   9  18  31  45  62  81  98 118 144 177 220
#     4   9  18  31  44  58  78 101 123 153 192 229
#     4  10  19  28  40  57  76  99 127 159 192 227
#     4  10  16  22  34  50  68  92 122 154 186 218
#
# _framework density 13.803993999999999
#
# number of rings (size 3 to 8) (size 9 to 14) (size 15 to 20)
#    0.000    2.667    0.000    5.667    0.000    6.222 
#    0.000    2.222    0.000    0.222    0.000    0.000 
#    0.000    0.000    0.000    0.000    0.000    0.000 
#
# Total GULP energy -1338287.768573 kJ/mol
# GULP energy per Si atom -12391.553413 kJ/mol
# Density = 1.377258 g / cm^3
# Si number density = 13.803994 Si / 1000 Ang^3
#
#
#
# Elastic Constant Matrix: (Units=GPa)
#
#
# Indices 1 2 3 4 5 6 
#
# 1 86.1085 46.7187 45.3501 0.0000 0.0000 0.0000
# 2 46.7187 86.1085 45.3501 0.0000 0.0000 0.0000
# 3 45.3501 45.3501 87.5107 0.0000 0.0000 0.0000
# 4 0.0000 0.0000 0.0000 22.2805 0.0000 0.0000
# 5 0.0000 0.0000 0.0000 0.0000 22.2805 0.0000
# 6 0.0000 0.0000 0.0000 0.0000 0.0000 19.6949
#
#
#
# Elastic Compliance Matrix: (Units=1/GPa)
#
#
# Indices 1 2 3 4 5 6 
#
# 1 0.018520 -0.006868 -0.006038 0.000000 0.000000 0.000000
# 2 -0.006868 0.018520 -0.006038 0.000000 0.000000 0.000000
# 3 -0.006038 -0.006038 0.017685 0.000000 0.000000 0.000000
# 4 0.000000 0.000000 0.000000 0.044882 0.000000 0.000000
# 5 0.000000 0.000000 0.000000 0.000000 0.044882 0.000000
# 6 0.000000 0.000000 0.000000 0.000000 0.000000 0.050775
#
#
# Mechanical properties :
#
#
# Convention : Reuss Voigt Hill
#
# Bulk Modulus (GPa) = 59.39616 59.39616 59.39616
# Shear Modulus (GPa) = 20.94119 21.00511 20.97315
#
# Velocity S-wave (km/s) = 3.89914 3.90509 3.90212
# Velocity P-wave (km/s) = 7.96196 7.96584 7.96390
#
# Compressibility (1/GPa) = 0.01683611
#
# Stress axis : x y z
#
# Youngs Moduli (GPa) = 53.99712 53.99712 56.54364
#
# Poissons Ratio (x) = 0.37084 0.34142
# Poissons Ratio (y) = 0.37084 0.34142
# Poissons Ratio (z) = 0.32605 0.32605
#
# Static dielectric constant tensor:
#      x y z
#    x 3.190170 0.000000 0.000000 
#    y 0.000000 3.190170 0.000000 
#    z 0.000000 0.000000 2.779390 
# 
# 
# High freq. dielectric constant tensor:
#      x y z
#    x 1.500590 0.000000 0.000000 
#    y 0.000000 1.500590 0.000000 
#    z 0.000000 0.000000 1.540250 
# 
# From -- ./inp_files/1878.got.cif
#   From: 2010.03.12/outbox.cif.g09.slc.cpg/sg194_1_cif.got.tgz:1878.got - 2010.04.01 12:26:19.
