data_PCOD8330620
_publ_section_title
;
Structure prediction by ZEFSAII (Michael W. Deem and Ramdas Pophale) SiO2 
 PCOD8330620
Probable space group: P 63/M M C
;
_chemical_formula_sum "Si O2"
_cell_formula_units_Z 60
_cell_length_a 21.003432
_cell_length_b 21.003432
_cell_length_c 8.541021
_cell_angle_alpha 90.000000
_cell_angle_beta 90.000000
_cell_angle_gamma 120.000000
_cell_volume 3263.029135
_symmetry_space_group_name_H-M "P 63/M M C"
_symmetry_group_IT_number 194
_symmetry_cell_setting 'hexagonal'
loop_
_space_group_symop_operation_xyz
x,y,z
x-y,x,1/2+z
-y,x-y,z
-x,-y,1/2+z
-x+y,-x,z
y,-x+y,1/2+z
x-y,-y,-z
-x,-x+y,-z
y,x,-z
-y,-x,1/2-z
-x+y,y,1/2-z
x,x-y,1/2-z
-x,-y,-z
-x+y,-x,1/2-z
y,-x+y,-z
x,y,1/2-z
x-y,x,-z
-y,x-y,1/2-z
-x+y,y,z
x,x-y,z
-y,-x,z
y,x,1/2+z
x-y,-y,1/2+z
-x,-x+y,1/2+z
loop_
_atom_site_type_symbol
_atom_site_label
_atom_site_fract_x
_atom_site_fract_y
_atom_site_fract_z
Si Si1 0.162246 0.837755 0.068260
Si Si2 0.918092 0.596448 0.064711
Si Si3 0.081653 0.918348 0.933628
Si Si4 0.920415 0.460208 0.068663
O O1 0.151784 0.848217 0.250000
O O2 0.127294 0.753046 0.027471
O O3 0.124696 0.875305 0.971403
O O4 0.916859 0.610049 0.250000
O O5 0.881533 0.508220 0.024450
O O6 0.000000 0.640010 0.000000
O O7 0.076100 0.923901 0.750000
O O8 0.000000 0.874395 0.000000
O O9 0.934275 0.467138 0.250000
O O10 0.000000 0.500000 0.000000
#
# Coordination Sequence:
#
# PCOD8330620 Si02
#       4
#    12  24  12  12
#     4  12  24  37  53  79 111 146 183 227 276 324
#     4  10  19  34  54  79 107 138 173 215 263 318
#     4  12  25  43  62  82 108 145 190 239 289 344
#     4   8  16  30  52  77 102 129 162 200 246 300
#
# _framework density 18.387820999999999
#
# number of rings (size 3 to 8) (size 9 to 14) (size 15 to 20)
#    0.000    1.600    0.000    6.200    0.000    1.600 
#    0.000    0.000    0.000    0.800    0.000    2.800 
#    0.000    0.000    0.000    0.000    0.000    0.000 
#
# Total GULP energy -743399.805987 kJ/mol
# GULP energy per Si atom -12389.996766 kJ/mol
# Density = 1.834597 g / cm^3
# Si number density = 18.387821 Si / 1000 Ang^3
#
#
#
# Elastic Constant Matrix: (Units=GPa)
#
#
# Indices 1 2 3 4 5 6 
#
# 1 83.6295 97.5652 32.4557 0.0000 0.0000 0.0000
# 2 97.5652 83.6295 32.4557 0.0000 0.0000 0.0000
# 3 32.4557 32.4557 93.4739 0.0000 0.0000 0.0000
# 4 0.0000 0.0000 0.0000 42.0168 0.0000 0.0000
# 5 0.0000 0.0000 0.0000 0.0000 42.0168 0.0000
# 6 0.0000 0.0000 0.0000 0.0000 0.0000 -6.9679
#
#
#
# Elastic Compliance Matrix: (Units=1/GPa)
#
#
# Indices 1 2 3 4 5 6 
#
# 1 -0.032727 0.039030 -0.002188 0.000000 0.000000 0.000000
# 2 0.039030 -0.032727 -0.002188 0.000000 0.000000 0.000000
# 3 -0.002188 -0.002188 0.012218 0.000000 0.000000 0.000000
# 4 0.000000 0.000000 0.000000 0.023800 0.000000 0.000000
# 5 0.000000 0.000000 0.000000 0.000000 0.023800 0.000000
# 6 0.000000 0.000000 0.000000 0.000000 0.000000 -0.143515
#
#
# Mechanical properties :
#
#
# Convention : Reuss Voigt Hill
#
# Bulk Modulus (GPa) = 62.22830 65.07623 63.65227
# Shear Modulus (GPa) = -23.46290 21.96355 -0.74967
#
# Velocity S-wave (km/s) = -3.57599 3.45985 -0.63921
# Velocity P-wave (km/s) = 4.10674 7.17137 5.84354
#
# Compressibility (1/GPa) = 0.01606986
#
# Stress axis : x y z
#
# Youngs Moduli (GPa) = -30.55544 -30.55544 81.84687
#
# Poissons Ratio (x) = 1.19259 0.17912
# Poissons Ratio (y) = 1.19259 0.17912
# Poissons Ratio (z) = -0.06687 -0.06687
#
# Static dielectric constant tensor:
#      x y z
#    x 3.708610 0.000000 0.000000 
#    y 0.000000 3.708610 0.000000 
#    z 0.000000 0.000000 3.701670 
# 
# 
# High freq. dielectric constant tensor:
#      x y z
#    x 1.710080 0.000000 0.000000 
#    y 0.000000 1.710080 0.000000 
#    z 0.000000 0.000000 1.730830 
# 
# From -- ./inp_files/809.got.cif
#   From: 2010.03.12/outbox.cif.g09.slc.cpg/sg194_1_cif.got.tgz:809.got - 2010.04.01 12:26:19.
