data_PCOD8330006
_publ_section_title
;
Structure prediction by ZEFSAII (Michael W. Deem and Ramdas Pophale) SiO2 
 PCOD8330006
Probable space group: P 63/M C M
;
_chemical_formula_sum "Si O2"
_cell_formula_units_Z 132
_cell_length_a 18.553076
_cell_length_b 18.553076
_cell_length_c 23.271010
_cell_angle_alpha 90.000000
_cell_angle_beta 90.000000
_cell_angle_gamma 120.000000
_cell_volume 6937.096114
_symmetry_space_group_name_H-M "P 63/M C M"
_symmetry_group_IT_number 193
_symmetry_cell_setting 'hexagonal'
loop_
_space_group_symop_operation_xyz
x,y,z
x-y,x,1/2+z
-y,x-y,z
-x,-y,1/2+z
-x+y,-x,z
y,-x+y,1/2+z
x-y,-y,1/2-z
-x,-x+y,1/2-z
y,x,1/2-z
-y,-x,-z
-x+y,y,-z
x,x-y,-z
-x,-y,-z
-x+y,-x,1/2-z
y,-x+y,-z
x,y,1/2-z
x-y,x,-z
-y,x-y,1/2-z
-x+y,y,1/2+z
x,x-y,1/2+z
-y,-x,1/2+z
y,x,z
x-y,-y,z
-x,-x+y,z
loop_
_atom_site_type_symbol
_atom_site_label
_atom_site_fract_x
_atom_site_fract_y
_atom_site_fract_z
Si Si1 0.443524 0.809981 0.439874
Si Si2 0.092373 0.903706 0.622344
Si Si3 0.700873 0.189515 0.894700
Si Si4 0.393139 0.090796 0.498938
Si Si5 0.096300 0.337576 0.317389
Si Si6 0.127057 0.872944 0.500000
O O1 0.389552 0.779103 0.500000
O O2 0.450806 0.739440 0.403910
O O3 0.398786 0.846577 0.398709
O O4 0.537371 0.882610 0.451944
O O5 0.125270 0.847505 0.653031
O O6 0.082010 0.885742 0.554280
O O7 0.000000 0.876430 0.645823
O O8 0.154698 0.000000 0.637299
O O9 0.732492 0.156393 0.947187
O O10 0.724477 0.157838 0.837211
O O11 0.309486 0.086850 0.520931
O O12 0.371738 0.000000 0.476927
O O13 0.107735 0.334928 0.250000
O O14 0.000000 0.307086 0.333731
#
# Coordination Sequence:
#
# PCOD8330006 Si02
#       6
#    24  24  24  24  24  12
#     4  10  20  32  51  82 116 149 184 228 291 352
#     4  11  22  36  57  86 121 159 201 250 306 362
#     4  11  20  36  56  80 114 151 191 243 295 354
#     4  11  19  30  50  78 112 153 194 230 283 352
#     4  10  22  41  64  86 113 157 211 258 300 353
#     4  12  20  34  53  82 124 166 198 242 297 368
#
# _framework density 19.028136
#
# number of rings (size 3 to 8) (size 9 to 14) (size 15 to 20)
#    0.000    1.273    3.636    4.364    0.000    5.818 
#    0.000    1.818    0.000    1.091    0.000    0.000 
#    0.000    0.000    0.000    0.000    0.000    0.000 
#
# Total GULP energy -1636014.957621 kJ/mol
# GULP energy per Si atom -12394.052709 kJ/mol
# Density = 1.898483 g / cm^3
# Si number density = 19.028136 Si / 1000 Ang^3
#
#
#
# Elastic Constant Matrix: (Units=GPa)
#
#
# Indices 1 2 3 4 5 6 
#
# 1 101.1539 41.6871 30.4742 0.0000 0.0000 0.0000
# 2 41.6871 101.1539 30.4742 0.0000 0.0000 0.0000
# 3 30.4742 30.4742 77.5423 0.0000 0.0000 0.0000
# 4 0.0000 0.0000 0.0000 20.5800 0.0000 0.0000
# 5 0.0000 0.0000 0.0000 0.0000 20.5800 0.0000
# 6 0.0000 0.0000 0.0000 0.0000 0.0000 29.7334
#
#
#
# Elastic Compliance Matrix: (Units=1/GPa)
#
#
# Indices 1 2 3 4 5 6 
#
# 1 0.012614 -0.004202 -0.003306 0.000000 0.000000 0.000000
# 2 -0.004202 0.012614 -0.003306 0.000000 0.000000 0.000000
# 3 -0.003306 -0.003306 0.015494 0.000000 0.000000 0.000000
# 4 0.000000 0.000000 0.000000 0.048591 0.000000 0.000000
# 5 0.000000 0.000000 0.000000 0.000000 0.048591 0.000000
# 6 0.000000 0.000000 0.000000 0.000000 0.000000 0.033632
#
#
# Mechanical properties :
#
#
# Convention : Reuss Voigt Hill
#
# Bulk Modulus (GPa) = 52.37135 53.90233 53.13684
# Shear Modulus (GPa) = 25.05915 25.99299 25.52607
#
# Velocity S-wave (km/s) = 3.63292 3.69999 3.66661
# Velocity P-wave (km/s) = 6.72163 6.82953 6.77580
#
# Compressibility (1/GPa) = 0.01909441
#
# Stress axis : x y z
#
# Youngs Moduli (GPa) = 79.27901 79.27901 64.53940
#
# Poissons Ratio (x) = 0.33316 0.21334
# Poissons Ratio (y) = 0.33316 0.21334
# Poissons Ratio (z) = 0.26207 0.26207
#
# Static dielectric constant tensor:
#      x y z
#    x 3.613460 0.000000 0.000000 
#    y 0.000000 3.613460 0.000000 
#    z 0.000000 0.000000 3.094740 
# 
# 
# High freq. dielectric constant tensor:
#      x y z
#    x 1.746540 0.000000 0.000000 
#    y 0.000000 1.746540 0.000000 
#    z 0.000000 0.000000 1.686080 
# 
# From -- ./inp_files/7475.got.cif
#   From: 2010.03.12/outbox.cif.g09.slc.cpg/sg193_4_cif.got.tgz:7475.got - 2010.04.01 12:20:39.
