data_PCOD8330223
_publ_section_title
;
Structure prediction by ZEFSAII (Michael W. Deem and Ramdas Pophale) SiO2 
 PCOD8330223
Probable space group: P 63/M C M
;
_chemical_formula_sum "Si O2"
_cell_formula_units_Z 84
_cell_length_a 14.252271
_cell_length_b 14.252271
_cell_length_c 24.119277
_cell_angle_alpha 90.000000
_cell_angle_beta 90.000000
_cell_angle_gamma 120.000000
_cell_volume 4242.902581
_symmetry_space_group_name_H-M "P 63/M C M"
_symmetry_group_IT_number 193
_symmetry_cell_setting 'hexagonal'
loop_
_space_group_symop_operation_xyz
x,y,z
x-y,x,1/2+z
-y,x-y,z
-x,-y,1/2+z
-x+y,-x,z
y,-x+y,1/2+z
x-y,-y,1/2-z
-x,-x+y,1/2-z
y,x,1/2-z
-y,-x,-z
-x+y,y,-z
x,x-y,-z
-x,-y,-z
-x+y,-x,1/2-z
y,-x+y,-z
x,y,1/2-z
x-y,x,-z
-y,x-y,1/2-z
-x+y,y,1/2+z
x,x-y,1/2+z
-y,-x,1/2+z
y,x,z
x-y,-y,z
-x,-x+y,z
loop_
_atom_site_type_symbol
_atom_site_label
_atom_site_fract_x
_atom_site_fract_y
_atom_site_fract_z
Si Si1 0.422836 0.123499 0.857086
Si Si2 0.529031 0.283638 0.250000
Si Si3 0.669316 0.791694 0.438778
Si Si4 0.452429 0.575038 0.440567
O O1 0.451661 0.197828 0.803067
O O2 0.325898 0.124551 0.892458
O O3 0.533617 0.174961 0.894138
O O4 0.381339 0.000000 0.838889
O O5 0.588325 0.211219 0.250000
O O6 0.668162 0.834081 0.500000
O O7 0.770179 0.770179 0.433554
O O8 0.558538 0.683670 0.423238
O O9 0.409018 0.590983 0.500000
O O10 0.475432 0.475432 0.446968
#
# Coordination Sequence:
#
# PCOD8330223 Si02
#       4
#    24  12  24  24
#     4  11  21  38  60  84 118 159 199 240 292 354
#     4  10  23  40  58  86 119 148 192 238 296 350
#     4  11  21  35  56  87 122 156 196 243 293 351
#     4   9  17  31  51  80 113 147 189 235 288 344
#
# _framework density 19.797767
#
# number of rings (size 3 to 8) (size 9 to 14) (size 15 to 20)
#    0.286    1.429    2.857    3.000    0.000    0.000 
#    1.714    3.571    0.000    5.143    0.000    0.000 
#    0.000    0.000    0.000    0.000    0.000    0.000 
#
# Total GULP energy -1041252.948133 kJ/mol
# GULP energy per Si atom -12395.868430 kJ/mol
# Density = 1.975271 g / cm^3
# Si number density = 19.797767 Si / 1000 Ang^3
#
#
#
# Elastic Constant Matrix: (Units=GPa)
#
#
# Indices 1 2 3 4 5 6 
#
# 1 60.5015 14.7629 23.8194 0.0000 0.0000 0.0000
# 2 14.7629 60.5015 23.8194 0.0000 0.0000 0.0000
# 3 23.8194 23.8194 134.8336 0.0000 0.0000 0.0000
# 4 0.0000 0.0000 0.0000 17.8924 0.0000 0.0000
# 5 0.0000 0.0000 0.0000 0.0000 17.8924 0.0000
# 6 0.0000 0.0000 0.0000 0.0000 0.0000 22.8693
#
#
#
# Elastic Compliance Matrix: (Units=1/GPa)
#
#
# Indices 1 2 3 4 5 6 
#
# 1 0.018411 -0.003452 -0.002643 0.000000 0.000000 0.000000
# 2 -0.003452 0.018411 -0.002643 0.000000 0.000000 0.000000
# 3 -0.002643 -0.002643 0.008350 0.000000 0.000000 0.000000
# 4 0.000000 0.000000 0.000000 0.055890 0.000000 0.000000
# 5 0.000000 0.000000 0.000000 0.000000 0.055890 0.000000
# 6 0.000000 0.000000 0.000000 0.000000 0.000000 0.043727
#
#
# Mechanical properties :
#
#
# Convention : Reuss Voigt Hill
#
# Bulk Modulus (GPa) = 36.10377 42.29336 39.19856
# Shear Modulus (GPa) = 21.98900 24.62647 23.30773
#
# Velocity S-wave (km/s) = 3.33630 3.53072 3.43489
# Velocity P-wave (km/s) = 5.75475 6.16688 5.96437
#
# Compressibility (1/GPa) = 0.02769794
#
# Stress axis : x y z
#
# Youngs Moduli (GPa) = 54.31460 54.31460 119.75707
#
# Poissons Ratio (x) = 0.18750 0.31648
# Poissons Ratio (y) = 0.18750 0.31648
# Poissons Ratio (z) = 0.14353 0.14353
#
# Static dielectric constant tensor:
#      x y z
#    x 3.487230 0.000000 0.000000 
#    y 0.000000 3.487230 0.000000 
#    z 0.000000 0.000000 3.549350 
# 
# 
# High freq. dielectric constant tensor:
#      x y z
#    x 1.748540 0.000000 0.000000 
#    y 0.000000 1.748540 0.000000 
#    z 0.000000 0.000000 1.768500 
# 
# From -- ./inp_files/7116.got.cif
#   From: 2010.03.12/outbox.cif.g09.slc.cpg/sg193_4_cif.got.tgz:7116.got - 2010.04.01 12:20:39.
