data_PCOD8330295
_publ_section_title
;
Structure prediction by ZEFSAII (Michael W. Deem and Ramdas Pophale) SiO2 
 PCOD8330295
Probable space group: P 63/M M C
;
_chemical_formula_sum "Si O2"
_cell_formula_units_Z 120
_cell_length_a 17.936433
_cell_length_b 17.936433
_cell_length_c 24.050630
_cell_angle_alpha 90.000000
_cell_angle_beta 90.000000
_cell_angle_gamma 120.000000
_cell_volume 6700.839997
_symmetry_space_group_name_H-M "P 63/M M C"
_symmetry_group_IT_number 194
_symmetry_cell_setting 'hexagonal'
loop_
_space_group_symop_operation_xyz
x,y,z
x-y,x,1/2+z
-y,x-y,z
-x,-y,1/2+z
-x+y,-x,z
y,-x+y,1/2+z
x-y,-y,-z
-x,-x+y,-z
y,x,-z
-y,-x,1/2-z
-x+y,y,1/2-z
x,x-y,1/2-z
-x,-y,-z
-x+y,-x,1/2-z
y,-x+y,-z
x,y,1/2-z
x-y,x,-z
-y,x-y,1/2-z
-x+y,y,z
x,x-y,z
-y,-x,z
y,x,1/2+z
x-y,-y,1/2+z
-x,-x+y,1/2+z
loop_
_atom_site_type_symbol
_atom_site_label
_atom_site_fract_x
_atom_site_fract_y
_atom_site_fract_z
Si Si1 0.195258 0.390515 0.562516
Si Si2 0.093072 0.462971 0.368575
Si Si3 0.806732 0.903366 0.433150
Si Si4 0.806048 0.612095 0.930750
Si Si5 0.615276 0.558581 0.750000
Si Si6 0.471287 0.361202 0.132089
Si Si7 0.194873 0.097437 0.434410
Si Si8 0.873966 0.581388 0.250000
O O1 0.195906 0.391811 0.496597
O O2 0.147827 0.439588 0.583812
O O3 0.146566 0.293132 0.586368
O O4 0.118133 0.559067 0.386803
O O5 0.143963 0.434539 0.408996
O O6 0.117313 0.460374 0.303807
O O7 0.991489 0.399504 0.371037
O O8 0.710205 0.855103 0.409616
O O9 0.854511 0.853776 0.410343
O O10 0.807628 0.903814 0.499378
O O11 0.509560 0.490441 0.750000
O O12 0.638168 0.659408 0.750000
O O13 0.567905 0.432095 0.116993
O O14 0.473373 0.323932 0.193013
O O15 0.813781 0.627561 0.250000
#
# Coordination Sequence:
#
# PCOD8330295 Si02
#       8
#    12  24  12  12  12  24  12  12
#     4  11  22  34  49  74 109 149 183 219 254 310
#     4   9  19  36  57  77 102 137 174 222 276 320
#     4   9  17  30  48  75 101 130 175 221 265 317
#     4  11  22  34  51  78 107 139 189 225 254 312
#     4   8  16  33  57  79 101 130 170 217 272 328
#     4  10  20  36  55  76 106 142 179 215 265 324
#     4   9  17  30  50  71 101 136 169 221 275 303
#     4  10  16  30  55  81 103 127 166 218 270 317
#
# _framework density 17.908204000000001
#
# number of rings (size 3 to 8) (size 9 to 14) (size 15 to 20)
#    0.000    2.400    1.000    3.500    0.000    4.400 
#    1.200    2.000    0.000    0.200    0.000    0.000 
#    0.000    0.000    0.000   11.600    0.000    4.000 
#
# Total GULP energy -1487029.812720 kJ/mol
# GULP energy per Si atom -12391.915106 kJ/mol
# Density = 1.786744 g / cm^3
# Si number density = 17.908204 Si / 1000 Ang^3
#
#
#
# Elastic Constant Matrix: (Units=GPa)
#
#
# Indices 1 2 3 4 5 6 
#
# 1 106.0712 65.9825 46.6302 0.0000 0.0000 0.0000
# 2 65.9825 106.0712 46.6302 0.0000 0.0000 0.0000
# 3 46.6302 46.6302 83.2502 0.0000 0.0000 0.0000
# 4 0.0000 0.0000 0.0000 25.7134 0.0000 0.0000
# 5 0.0000 0.0000 0.0000 0.0000 25.7134 0.0000
# 6 0.0000 0.0000 0.0000 0.0000 0.0000 20.0443
#
#
#
# Elastic Compliance Matrix: (Units=1/GPa)
#
#
# Indices 1 2 3 4 5 6 
#
# 1 0.016645 -0.008299 -0.004675 0.000000 0.000000 0.000000
# 2 -0.008299 0.016645 -0.004675 0.000000 0.000000 0.000000
# 3 -0.004675 -0.004675 0.017249 0.000000 0.000000 0.000000
# 4 0.000000 0.000000 0.000000 0.038890 0.000000 0.000000
# 5 0.000000 0.000000 0.000000 0.000000 0.038890 0.000000
# 6 0.000000 0.000000 0.000000 0.000000 0.000000 0.049889
#
#
# Mechanical properties :
#
#
# Convention : Reuss Voigt Hill
#
# Bulk Modulus (GPa) = 65.60899 68.20870 66.90885
# Shear Modulus (GPa) = 22.87408 23.37088 23.12248
#
# Velocity S-wave (km/s) = 3.57781 3.61645 3.59718
# Velocity P-wave (km/s) = 7.33372 7.45714 7.39569
#
# Compressibility (1/GPa) = 0.01524181
#
# Stress axis : x y z
#
# Youngs Moduli (GPa) = 60.07670 60.07670 57.97466
#
# Poissons Ratio (x) = 0.49859 0.27102
# Poissons Ratio (y) = 0.49859 0.27102
# Poissons Ratio (z) = 0.28085 0.28085
#
# Static dielectric constant tensor:
#      x y z
#    x 3.302820 0.000000 0.000000 
#    y 0.000000 3.302820 0.000000 
#    z 0.000000 0.000000 3.273100 
# 
# 
# High freq. dielectric constant tensor:
#      x y z
#    x 1.684960 0.000000 0.000000 
#    y 0.000000 1.684960 0.000000 
#    z 0.000000 0.000000 1.680210 
# 
# From -- ./inp_files/9478.got.cif
#   From: 2010.03.12/outbox.cif.g09.slc.cpg/sg194_5_cif.got.tgz:9478.got - 2010.04.01 12:26:19.
