data_PCOD8330014
_publ_section_title
;
Structure prediction by ZEFSAII (Michael W. Deem and Ramdas Pophale) SiO2 
 PCOD8330014
Probable space group: P 63/M C M
;
_chemical_formula_sum "Si O2"
_cell_formula_units_Z 120
_cell_length_a 17.757736
_cell_length_b 17.757736
_cell_length_c 23.990218
_cell_angle_alpha 90.000000
_cell_angle_beta 90.000000
_cell_angle_gamma 120.000000
_cell_volume 6551.489004
_symmetry_space_group_name_H-M "P 63/M C M"
_symmetry_group_IT_number 193
_symmetry_cell_setting 'hexagonal'
loop_
_space_group_symop_operation_xyz
x,y,z
x-y,x,1/2+z
-y,x-y,z
-x,-y,1/2+z
-x+y,-x,z
y,-x+y,1/2+z
x-y,-y,1/2-z
-x,-x+y,1/2-z
y,x,1/2-z
-y,-x,-z
-x+y,y,-z
x,x-y,-z
-x,-y,-z
-x+y,-x,1/2-z
y,-x+y,-z
x,y,1/2-z
x-y,x,-z
-y,x-y,1/2-z
-x+y,y,1/2+z
x,x-y,1/2+z
-y,-x,1/2+z
y,x,z
x-y,-y,z
-x,-x+y,z
loop_
_atom_site_type_symbol
_atom_site_label
_atom_site_fract_x
_atom_site_fract_y
_atom_site_fract_z
Si Si1 0.325139 0.225640 0.336708
Si Si2 0.224318 0.901254 0.961670
Si Si3 0.515812 0.178519 0.971072
Si Si4 0.494222 0.392765 0.351911
Si Si5 0.103325 0.332707 0.250000
Si Si6 0.403661 0.506189 0.750000
O O1 0.246697 0.246697 0.328234
O O2 0.333970 0.200023 0.399400
O O3 0.415586 0.310980 0.320282
O O4 0.308492 0.141809 0.302757
O O5 0.297198 0.882069 0.986741
O O6 0.255252 0.000000 0.962467
O O7 0.140374 0.859627 0.000000
O O8 0.527027 0.169427 0.904202
O O9 0.569629 0.139257 0.000000
O O10 0.547270 0.273635 0.000000
O O11 0.457450 0.457450 0.371353
O O12 0.572868 0.437427 0.307097
O O13 0.132923 0.434787 0.250000
O O14 0.000000 0.273201 0.250000
O O15 0.462357 0.462357 0.750000
#
# Coordination Sequence:
#
# PCOD8330014 Si02
#       6
#    24  24  24  24  12  12
#     4   9  18  35  56  74  99 141 182 206 243 316
#     4   9  19  34  54  80 105 134 174 216 256 303
#     4  10  20  33  49  73 107 143 179 220 261 305
#     4   9  18  34  55  75  98 137 184 220 256 313
#     4  11  22  33  51  83 110 126 160 222 281 309
#     4   9  19  33  49  75 106 132 168 222 274 317
#
# _framework density 18.316447
#
# number of rings (size 3 to 8) (size 9 to 14) (size 15 to 20)
#    0.000    2.600    0.000    2.900    0.000    8.800 
#    0.000    2.000    0.000    5.000    0.000    0.000 
#    0.000    0.000    0.000    0.000    0.000    0.000 
#
# Total GULP energy -1486644.832661 kJ/mol
# GULP energy per Si atom -12388.706939 kJ/mol
# Density = 1.827476 g / cm^3
# Si number density = 18.316447 Si / 1000 Ang^3
#
#
#
# Elastic Constant Matrix: (Units=GPa)
#
#
# Indices 1 2 3 4 5 6 
#
# 1 43.8989 45.0137 60.2861 0.0000 0.0000 0.0000
# 2 45.0137 43.8989 60.2861 0.0000 0.0000 0.0000
# 3 60.2861 60.2861 117.4802 0.0000 0.0000 0.0000
# 4 0.0000 0.0000 0.0000 32.4952 0.0000 0.0000
# 5 0.0000 0.0000 0.0000 0.0000 32.4952 0.0000
# 6 0.0000 0.0000 0.0000 0.0000 0.0000 -0.5574
#
#
#
# Elastic Compliance Matrix: (Units=1/GPa)
#
#
# Indices 1 2 3 4 5 6 
#
# 1 -0.430034 0.467016 -0.018978 0.000000 0.000000 0.000000
# 2 0.467016 -0.430034 -0.018978 0.000000 0.000000 -0.000001
# 3 -0.018978 -0.018978 0.027990 0.000000 0.000000 0.000000
# 4 0.000000 0.000000 0.000000 0.030774 0.000000 0.000000
# 5 0.000000 0.000000 0.000000 0.000000 0.030774 0.000000
# 6 0.000000 -0.000001 0.000000 0.000000 0.000000 -1.794101
#
#
# Mechanical properties :
#
#
# Convention : Reuss Voigt Hill
#
# Bulk Modulus (GPa) = 38.39829 59.60554 49.00191
# Shear Modulus (GPa) = -1.46453 15.53274 7.03410
#
# Velocity S-wave (km/s) = -0.89516 2.91524 1.96180
# Velocity P-wave (km/s) = 4.46553 6.62904 5.65178
#
# Compressibility (1/GPa) = 0.02604283
#
# Stress axis : x y z
#
# Youngs Moduli (GPa) = -2.32540 -2.32540 35.72752
#
# Poissons Ratio (x) = 1.08600 0.67804
# Poissons Ratio (y) = 1.08600 0.67804
# Poissons Ratio (z) = -0.04413 -0.04413
#
# Static dielectric constant tensor:
#      x y z
#    x 3.278290 0.000000 0.000000 
#    y 0.000000 3.278290 0.000000 
#    z 0.000000 0.000000 2.830590 
# 
# 
# High freq. dielectric constant tensor:
#      x y z
#    x 1.691980 0.000000 0.000000 
#    y 0.000000 1.691980 0.000000 
#    z 0.000000 0.000000 1.717320 
# 
# From -- ./inp_files/7399.got.cif
#   From: 2010.03.12/outbox.cif.g09.slc.cpg/sg193_4_cif.got.tgz:7399.got - 2010.04.01 12:20:39.
