data_PCOD8330889
_publ_section_title
;
Structure prediction by ZEFSAII (Michael W. Deem and Ramdas Pophale) SiO2 
 PCOD8330889
Probable space group: P 21 3
;
_chemical_formula_sum "Si O2"
_cell_formula_units_Z 48
_cell_length_a 13.701975
_cell_length_b 13.701975
_cell_length_c 13.701975
_cell_angle_alpha 90.000000
_cell_angle_beta 90.000000
_cell_angle_gamma 90.000000
_cell_volume 2572.465224
_symmetry_space_group_name_H-M "P 21 3"
_symmetry_group_IT_number 198
_symmetry_cell_setting 'cubic'
loop_
_space_group_symop_operation_xyz
x,y,z
z,x,y
y,z,x
1/2-y,-z,1/2+x
1/2+z,1/2-x,-y
-y,1/2+z,1/2-x
1/2-z,-x,1/2+y
-z,1/2+x,1/2-y
1/2+y,1/2-z,-x
1/2-x,-y,1/2+z
1/2+x,1/2-y,-z
-x,1/2+y,1/2-z
loop_
_atom_site_type_symbol
_atom_site_label
_atom_site_fract_x
_atom_site_fract_y
_atom_site_fract_z
Si Si1 0.838334 0.618399 0.041454
Si Si2 0.452724 0.316164 0.287697
Si Si3 0.541454 0.838334 0.881601
Si Si4 0.452724 0.183836 0.787697
O O1 0.757399 0.700472 0.029920
O O2 0.816943 0.556398 0.138430
O O3 0.945648 0.665354 0.050844
O O4 0.834646 0.550844 0.945648
O O5 0.379409 0.404931 0.257924
O O6 0.556398 0.361570 0.316943
O O7 0.529920 0.757399 0.799528
O O8 0.404931 0.242076 0.879409
#
# Coordination Sequence:
#
# PCOD8330889 Si02
#       4
#    12  12  12  12
#     4  12  21  41  67  90 128 168 211 263 321 379
#     4  10  22  40  60  95 121 165 212 258 318 379
#     4  12  21  41  67  90 128 168 211 263 321 379
#     4  10  22  40  60  95 121 165 212 258 318 379
#
# _framework density 18.659146
#
# number of rings (size 3 to 8) (size 9 to 14) (size 15 to 20)
#    1.000    0.000    5.000    3.500    0.000    0.000 
#    3.000    0.000    0.000    4.000    0.000    0.000 
#    0.000    0.000    0.000    0.000    0.000    0.000 
#
# Total GULP energy -595098.751886 kJ/mol
# GULP energy per Si atom -12397.890664 kJ/mol
# Density = 1.861668 g / cm^3
# Si number density = 18.659146 Si / 1000 Ang^3
#
#
#
# Elastic Constant Matrix: (Units=GPa)
#
#
# Indices 1 2 3 4 5 6 
#
# 1 93.2361 40.0405 40.0405 0.0000 0.0000 0.0000
# 2 40.0405 93.2361 40.0405 0.0000 0.0000 0.0000
# 3 40.0405 40.0405 93.2361 0.0000 0.0000 0.0000
# 4 0.0000 0.0000 0.0000 38.0684 0.0000 0.0000
# 5 0.0000 0.0000 0.0000 0.0000 38.0684 0.0000
# 6 0.0000 0.0000 0.0000 0.0000 0.0000 38.0684
#
#
#
# Elastic Compliance Matrix: (Units=1/GPa)
#
#
# Indices 1 2 3 4 5 6 
#
# 1 0.014456 -0.004343 -0.004343 0.000000 0.000000 0.000000
# 2 -0.004343 0.014456 -0.004343 0.000000 0.000000 0.000000
# 3 -0.004343 -0.004343 0.014456 0.000000 0.000000 0.000000
# 4 0.000000 0.000000 0.000000 0.026269 0.000000 0.000000
# 5 0.000000 0.000000 0.000000 0.000000 0.026269 0.000000
# 6 0.000000 0.000000 0.000000 0.000000 0.000000 0.026269
#
#
# Mechanical properties :
#
#
# Convention : Reuss Voigt Hill
#
# Bulk Modulus (GPa) = 57.77239 57.77239 57.77239
# Shear Modulus (GPa) = 32.46759 33.48014 32.97387
#
# Velocity S-wave (km/s) = 4.17590 4.24052 4.20833
# Velocity P-wave (km/s) = 7.36750 7.41655 7.39206
#
# Compressibility (1/GPa) = 0.01730931
#
# Stress axis : x y z
#
# Youngs Moduli (GPa) = 69.17728 69.17728 69.17728
#
# Poissons Ratio (x) = 0.30043 0.30043
# Poissons Ratio (y) = 0.30043 0.30043
# Poissons Ratio (z) = 0.30043 0.30043
#
# Static dielectric constant tensor:
#      x y z
#    x 3.307480 0.000000 0.000000 
#    y 0.000000 3.307480 0.000000 
#    z 0.000000 0.000000 3.307480 
# 
# 
# High freq. dielectric constant tensor:
#      x y z
#    x 1.721640 0.000000 0.000000 
#    y 0.000000 1.721640 0.000000 
#    z 0.000000 0.000000 1.721640 
# 
# From -- ./inp_files/242.got.cif
#   From: 2010.03.12/outbox.cif.g09.slc.cpg/sg198_cif.got.tgz:242.got - 2010.04.01 12:33:50.
