data_PCOD8330424
_publ_section_title
;
Structure prediction by ZEFSAII (Michael W. Deem and Ramdas Pophale) SiO2 
 PCOD8330424
Probable space group: P 63/M M C
;
_chemical_formula_sum "Si O2"
_cell_formula_units_Z 96
_cell_length_a 27.008626
_cell_length_b 27.008626
_cell_length_c 9.291114
_cell_angle_alpha 90.000000
_cell_angle_beta 90.000000
_cell_angle_gamma 120.000000
_cell_volume 5869.531026
_symmetry_space_group_name_H-M "P 63/M M C"
_symmetry_group_IT_number 194
_symmetry_cell_setting 'hexagonal'
loop_
_space_group_symop_operation_xyz
x,y,z
x-y,x,1/2+z
-y,x-y,z
-x,-y,1/2+z
-x+y,-x,z
y,-x+y,1/2+z
x-y,-y,-z
-x,-x+y,-z
y,x,-z
-y,-x,1/2-z
-x+y,y,1/2-z
x,x-y,1/2-z
-x,-y,-z
-x+y,-x,1/2-z
y,-x+y,-z
x,y,1/2-z
x-y,x,-z
-y,x-y,1/2-z
-x+y,y,z
x,x-y,z
-y,-x,z
y,x,1/2+z
x-y,-y,1/2+z
-x,-x+y,1/2+z
loop_
_atom_site_type_symbol
_atom_site_label
_atom_site_fract_x
_atom_site_fract_y
_atom_site_fract_z
Si Si1 0.468211 0.823676 0.585159
Si Si2 0.179921 0.359842 0.918463
Si Si3 0.381287 0.434888 0.584664
Si Si4 0.678043 0.945381 0.583425
Si Si5 0.479940 0.239970 0.578318
O O1 0.480627 0.812884 0.750000
O O2 0.401728 0.803455 0.564861
O O3 0.505209 0.890772 0.549100
O O4 0.484474 0.789449 0.473910
O O5 0.188956 0.377911 0.750000
O O6 0.112674 0.321464 0.955575
O O7 0.208477 0.416954 0.012045
O O8 0.430840 0.430840 0.500000
O O9 0.392499 0.429435 0.750000
O O10 0.318809 0.384087 0.537398
O O11 0.690183 0.959966 0.750000
O O12 0.727927 0.000000 0.500000
O O13 0.475535 0.237768 0.750000
#
# Coordination Sequence:
#
# PCOD8330424 Si02
#       5
#    24  12  24  24  12
#     4  10  21  39  59  73  91 125 165 196 234 298
#     4  10  18  34  56  74  98 140 177 201 236 295
#     4   9  17  30  49  74 101 127 156 195 235 282
#     4   9  17  29  48  72 102 132 166 208 244 283
#     4  12  24  36  54  78 100 120 152 205 258 297
#
# _framework density 16.355651999999999
#
# number of rings (size 3 to 8) (size 9 to 14) (size 15 to 20)
#    0.000    2.250    2.500    1.125    0.000    3.000 
#    0.750    0.000    0.000    0.000    0.000    0.000 
#    0.000    0.000    0.000    0.375    0.000    4.500 
#
# Total GULP energy -1190390.387719 kJ/mol
# GULP energy per Si atom -12399.899872 kJ/mol
# Density = 1.631843 g / cm^3
# Si number density = 16.355652 Si / 1000 Ang^3
#
#
#
# Elastic Constant Matrix: (Units=GPa)
#
#
# Indices 1 2 3 4 5 6 
#
# 1 90.0277 44.0728 51.7284 0.0000 0.0000 0.0000
# 2 44.0728 90.0277 51.7284 0.0000 0.0000 0.0000
# 3 51.7284 51.7284 81.9305 0.0000 0.0000 0.0000
# 4 0.0000 0.0000 0.0000 24.3527 0.0000 0.0000
# 5 0.0000 0.0000 0.0000 0.0000 24.3527 0.0000
# 6 0.0000 0.0000 0.0000 0.0000 0.0000 22.9775
#
#
#
# Elastic Compliance Matrix: (Units=1/GPa)
#
#
# Indices 1 2 3 4 5 6 
#
# 1 0.018150 -0.003611 -0.009179 0.000000 0.000000 0.000000
# 2 -0.003611 0.018150 -0.009179 0.000000 0.000000 0.000000
# 3 -0.009179 -0.009179 0.023797 0.000000 0.000000 0.000000
# 4 0.000000 0.000000 0.000000 0.041063 0.000000 0.000000
# 5 0.000000 0.000000 0.000000 0.000000 0.041063 0.000000
# 6 0.000000 0.000000 0.000000 0.000000 0.000000 0.043521
#
#
# Mechanical properties :
#
#
# Convention : Reuss Voigt Hill
#
# Bulk Modulus (GPa) = 61.89343 61.89391 61.89367
# Shear Modulus (GPa) = 21.27041 21.96698 21.61870
#
# Velocity S-wave (km/s) = 3.61015 3.66878 3.63958
# Velocity P-wave (km/s) = 7.43653 7.47471 7.45564
#
# Compressibility (1/GPa) = 0.01615680
#
# Stress axis : x y z
#
# Youngs Moduli (GPa) = 55.09741 55.09741 42.02263
#
# Poissons Ratio (x) = 0.19894 0.38574
# Poissons Ratio (y) = 0.19894 0.38574
# Poissons Ratio (z) = 0.50576 0.50576
#
# Static dielectric constant tensor:
#      x y z
#    x 3.036460 0.000000 0.000000 
#    y 0.000000 3.036460 0.000000 
#    z 0.000000 0.000000 3.052950 
# 
# 
# High freq. dielectric constant tensor:
#      x y z
#    x 1.612820 0.000000 0.000000 
#    y 0.000000 1.612820 0.000000 
#    z 0.000000 0.000000 1.624290 
# 
# From -- ./inp_files/1750.got.cif
#   From: 2010.03.12/outbox.cif.g09.slc.cpg/sg194_1_cif.got.tgz:1750.got - 2010.04.01 12:26:19.
