data_PCOD8330335
_publ_section_title
;
Structure prediction by ZEFSAII (Michael W. Deem and Ramdas Pophale) SiO2 
 PCOD8330335
Probable space group: P 63/M M C
;
_chemical_formula_sum "Si O2"
_cell_formula_units_Z 136
_cell_length_a 20.816318
_cell_length_b 20.816318
_cell_length_c 28.526100
_cell_angle_alpha 90.000000
_cell_angle_beta 90.000000
_cell_angle_gamma 120.000000
_cell_volume 10704.856738
_symmetry_space_group_name_H-M "P 63/M M C"
_symmetry_group_IT_number 194
_symmetry_cell_setting 'hexagonal'
loop_
_space_group_symop_operation_xyz
x,y,z
x-y,x,1/2+z
-y,x-y,z
-x,-y,1/2+z
-x+y,-x,z
y,-x+y,1/2+z
x-y,-y,-z
-x,-x+y,-z
y,x,-z
-y,-x,1/2-z
-x+y,y,1/2-z
x,x-y,1/2-z
-x,-y,-z
-x+y,-x,1/2-z
y,-x+y,-z
x,y,1/2-z
x-y,x,-z
-y,x-y,1/2-z
-x+y,y,z
x,x-y,z
-y,-x,z
y,x,1/2+z
x-y,-y,1/2+z
-x,-x+y,1/2+z
loop_
_atom_site_type_symbol
_atom_site_label
_atom_site_fract_x
_atom_site_fract_y
_atom_site_fract_z
Si Si1 0.483153 0.113369 0.855771
Si Si2 0.930634 0.389006 0.471732
Si Si3 0.479557 0.665683 0.454158
Si Si4 0.550543 0.602135 0.867645
Si Si5 0.666667 0.333334 0.694503
Si Si6 0.814292 0.481516 0.304512
Si Si7 0.750616 0.249385 0.805764
O O1 0.561360 0.122719 0.837411
O O2 0.487899 0.129536 0.910970
O O3 0.461804 0.166237 0.826153
O O4 0.415894 0.029180 0.849134
O O5 0.938230 0.469115 0.470333
O O6 0.855386 0.331887 0.498730
O O7 0.929961 0.360309 0.419133
O O8 0.000000 0.394196 0.500000
O O9 0.491692 0.745846 0.443819
O O10 0.392391 0.607610 0.460285
O O11 0.474427 0.525574 0.870045
O O12 0.544051 0.658455 0.832121
O O13 0.666667 0.333334 0.750000
O O14 0.708357 0.291644 0.675288
O O15 0.830601 0.499520 0.250000
O O16 0.742629 0.485257 0.320946
O O17 0.799040 0.399520 0.316255
O O18 0.753965 0.246036 0.750000
#
# Coordination Sequence:
#
# PCOD8330335 Si02
#       7
#    24  24  24  24   4  24  12
#     4  10  18  27  39  53  71  99 132 163 196 231
#     4   9  15  26  40  52  68  92 119 147 184 226
#     4  10  18  26  38  55  74  96 124 157 192 231
#     4   9  17  28  42  58  74  95 124 157 193 234
#     4   9  18  30  36  48  72  99 129 171 213 231
#     4   9  17  29  44  60  77  96 119 153 200 248
#     4  11  20  28  38  52  74 102 133 169 204 231
#
# _framework density 12.704514
#
# number of rings (size 3 to 8) (size 9 to 14) (size 15 to 20)
#    0.000    2.471    3.529    0.353    0.000    2.118 
#    0.000    1.765    0.000    2.118    0.000    0.000 
#    0.000    0.000    0.000    0.000    0.000    0.000 
#
# Total GULP energy -1686106.383581 kJ/mol
# GULP energy per Si atom -12397.841056 kJ/mol
# Density = 1.267560 g / cm^3
# Si number density = 12.704514 Si / 1000 Ang^3
#
#
#
# Elastic Constant Matrix: (Units=GPa)
#
#
# Indices 1 2 3 4 5 6 
#
# 1 61.5907 35.5688 32.6683 0.0000 0.0000 0.0000
# 2 35.5688 61.5907 32.6683 0.0000 0.0000 0.0000
# 3 32.6683 32.6683 67.5977 0.0000 0.0000 0.0000
# 4 0.0000 0.0000 0.0000 17.1993 0.0000 0.0000
# 5 0.0000 0.0000 0.0000 0.0000 17.1993 0.0000
# 6 0.0000 0.0000 0.0000 0.0000 0.0000 13.0110
#
#
#
# Elastic Compliance Matrix: (Units=1/GPa)
#
#
# Indices 1 2 3 4 5 6 
#
# 1 0.026838 -0.011591 -0.007369 0.000000 0.000000 0.000000
# 2 -0.011591 0.026838 -0.007369 0.000000 0.000000 0.000000
# 3 -0.007369 -0.007369 0.021916 0.000000 0.000000 0.000000
# 4 0.000000 0.000000 0.000000 0.058142 0.000000 0.000000
# 5 0.000000 0.000000 0.000000 0.000000 0.058142 0.000000
# 6 0.000000 0.000000 0.000000 0.000000 0.000000 0.076858
#
#
# Mechanical properties :
#
#
# Convention : Reuss Voigt Hill
#
# Bulk Modulus (GPa) = 43.60002 43.62111 43.61057
# Shear Modulus (GPa) = 15.19588 15.47350 15.33469
#
# Velocity S-wave (km/s) = 3.46222 3.49370 3.47800
# Velocity P-wave (km/s) = 7.09758 7.11929 7.10844
#
# Compressibility (1/GPa) = 0.02293577
#
# Stress axis : x y z
#
# Youngs Moduli (GPa) = 37.26005 37.26006 45.62936
#
# Poissons Ratio (x) = 0.43187 0.33623
# Poissons Ratio (y) = 0.43187 0.33623
# Poissons Ratio (z) = 0.27456 0.27456
#
# Static dielectric constant tensor:
#      x y z
#    x 2.398890 0.000000 0.000000 
#    y 0.000000 2.398890 0.000000 
#    z 0.000000 0.000000 2.694360 
# 
# 
# High freq. dielectric constant tensor:
#      x y z
#    x 1.448120 0.000000 0.000000 
#    y 0.000000 1.448120 0.000000 
#    z 0.000000 0.000000 1.494000 
# 
# From -- ./inp_files/12338.got.cif
#   From: 2010.03.12/outbox.cif.g09.slc.cpg/sg194_7_cif.got.tgz:12338.got - 2010.04.01 12:26:19.
