data_PCOD8330590
_publ_section_title
;
Structure prediction by ZEFSAII (Michael W. Deem and Ramdas Pophale) SiO2 
 PCOD8330590
Probable space group: P 63/M M C
;
_chemical_formula_sum "Si O2"
_cell_formula_units_Z 168
_cell_length_a 21.395899
_cell_length_b 21.395899
_cell_length_c 23.416121
_cell_angle_alpha 90.000000
_cell_angle_beta 90.000000
_cell_angle_gamma 120.000000
_cell_volume 9283.391449
_symmetry_space_group_name_H-M "P 63/M M C"
_symmetry_group_IT_number 194
_symmetry_cell_setting 'hexagonal'
loop_
_space_group_symop_operation_xyz
x,y,z
x-y,x,1/2+z
-y,x-y,z
-x,-y,1/2+z
-x+y,-x,z
y,-x+y,1/2+z
x-y,-y,-z
-x,-x+y,-z
y,x,-z
-y,-x,1/2-z
-x+y,y,1/2-z
x,x-y,1/2-z
-x,-y,-z
-x+y,-x,1/2-z
y,-x+y,-z
x,y,1/2-z
x-y,x,-z
-y,x-y,1/2-z
-x+y,y,z
x,x-y,z
-y,-x,z
y,x,1/2+z
x-y,-y,1/2+z
-x,-x+y,1/2+z
loop_
_atom_site_type_symbol
_atom_site_label
_atom_site_fract_x
_atom_site_fract_y
_atom_site_fract_z
Si Si1 0.811224 0.331958 0.924106
Si Si2 0.625847 0.521019 0.812727
Si Si3 0.885168 0.626458 0.520614
Si Si4 0.608649 0.655927 0.815896
Si Si5 0.999746 0.859637 0.067233
Si Si6 0.732772 0.708212 0.413651
Si Si7 0.806111 0.333514 0.317885
O O1 0.822826 0.411413 0.935525
O O2 0.726427 0.273574 0.926835
O O3 0.840330 0.324429 0.861871
O O4 0.855426 0.314841 0.972043
O O5 0.664689 0.538252 0.750000
O O6 0.554110 0.445891 0.809027
O O7 0.602776 0.579655 0.828181
O O8 0.821785 0.643569 0.534057
O O9 0.914255 0.652962 0.457034
O O10 0.947128 0.669356 0.566599
O O11 0.623175 0.678702 0.750000
O O12 0.674588 0.717487 0.851034
O O13 0.535690 0.651928 0.838209
O O14 0.077892 0.922109 0.088725
O O15 0.941590 0.883180 0.083966
O O16 0.977132 0.783226 0.094996
O O17 0.000000 0.848043 0.000000
O O18 0.802961 0.333624 0.250000
O O19 0.794443 0.397222 0.342627
O O20 0.742746 0.257255 0.342230
#
# Coordination Sequence:
#
# PCOD8330590 Si02
#       7
#    24  24  24  24  24  24  24
#     4  10  20  35  54  76 105 143 186 232 277 326
#     4   9  17  31  51  75 105 142 182 225 274 324
#     4  10  20  35  54  77 107 139 176 221 272 323
#     4  10  20  34  52  79 112 144 180 224 275 326
#     4  10  19  32  53  81 111 139 170 211 262 315
#     4  11  20  33  56  82 107 142 179 219 265 324
#     4   9  17  30  49  72  99 134 177 224 272 321
#
# _framework density 18.096834000000001
#
# number of rings (size 3 to 8) (size 9 to 14) (size 15 to 20)
#    0.000    2.143    2.857    1.714    0.000    4.286 
#    0.000    2.857    0.000    2.571    0.000    2.000 
#    0.000    1.143    0.000    0.000    0.000    0.000 
#
# Total GULP energy -2082799.765756 kJ/mol
# GULP energy per Si atom -12397.617653 kJ/mol
# Density = 1.805565 g / cm^3
# Si number density = 18.096834 Si / 1000 Ang^3
#
#
#
# Elastic Constant Matrix: (Units=GPa)
#
#
# Indices 1 2 3 4 5 6 
#
# 1 85.3573 33.5734 22.9688 0.0000 0.0000 0.0000
# 2 33.5734 85.3573 22.9688 0.0000 0.0000 0.0000
# 3 22.9688 22.9688 46.8993 0.0000 0.0000 0.0000
# 4 0.0000 0.0000 0.0000 18.4318 0.0000 0.0000
# 5 0.0000 0.0000 0.0000 0.0000 18.4318 0.0000
# 6 0.0000 0.0000 0.0000 0.0000 0.0000 25.8920
#
#
#
# Elastic Compliance Matrix: (Units=1/GPa)
#
#
# Indices 1 2 3 4 5 6 
#
# 1 0.014840 -0.004471 -0.005079 0.000000 0.000000 0.000000
# 2 -0.004471 0.014840 -0.005079 0.000000 0.000000 0.000000
# 3 -0.005079 -0.005079 0.026297 0.000000 0.000000 0.000000
# 4 0.000000 0.000000 0.000000 0.054254 0.000000 0.000000
# 5 0.000000 0.000000 0.000000 0.000000 0.054254 0.000000
# 6 0.000000 0.000000 0.000000 0.000000 0.000000 0.038622
#
#
# Mechanical properties :
#
#
# Convention : Reuss Voigt Hill
#
# Bulk Modulus (GPa) = 37.42227 41.84843 39.63535
# Shear Modulus (GPa) = 20.72361 21.75799 21.24080
#
# Velocity S-wave (km/s) = 3.38768 3.47119 3.42969
# Velocity P-wave (km/s) = 6.00213 6.26422 6.13458
#
# Compressibility (1/GPa) = 0.02672206
#
# Stress axis : x y z
#
# Youngs Moduli (GPa) = 67.38339 67.38339 38.02750
#
# Poissons Ratio (x) = 0.30124 0.19313
# Poissons Ratio (y) = 0.30124 0.19313
# Poissons Ratio (z) = 0.34222 0.34222
#
# Static dielectric constant tensor:
#      x y z
#    x 3.439550 0.000000 0.000000 
#    y 0.000000 3.439550 0.000000 
#    z 0.000000 0.000000 3.229680 
# 
# 
# High freq. dielectric constant tensor:
#      x y z
#    x 1.707560 0.000000 0.000000 
#    y 0.000000 1.707560 0.000000 
#    z 0.000000 0.000000 1.663450 
# 
# From -- ./inp_files/9785.got.cif
#   From: 2010.03.12/outbox.cif.g09.slc.cpg/sg194_5_cif.got.tgz:9785.got - 2010.04.01 12:26:19.
