data_PCOD8330166
_publ_section_title
;
Structure prediction by ZEFSAII (Michael W. Deem and Ramdas Pophale) SiO2 
 PCOD8330166
Probable space group: P 63/M C M
;
_chemical_formula_sum "Si O2"
_cell_formula_units_Z 104
_cell_length_a 17.926430
_cell_length_b 17.926430
_cell_length_c 20.660785
_cell_angle_alpha 90.000000
_cell_angle_beta 90.000000
_cell_angle_gamma 120.000000
_cell_volume 5749.963254
_symmetry_space_group_name_H-M "P 63/M C M"
_symmetry_group_IT_number 193
_symmetry_cell_setting 'hexagonal'
loop_
_space_group_symop_operation_xyz
x,y,z
x-y,x,1/2+z
-y,x-y,z
-x,-y,1/2+z
-x+y,-x,z
y,-x+y,1/2+z
x-y,-y,1/2-z
-x,-x+y,1/2-z
y,x,1/2-z
-y,-x,-z
-x+y,y,-z
x,x-y,-z
-x,-y,-z
-x+y,-x,1/2-z
y,-x+y,-z
x,y,1/2-z
x-y,x,-z
-y,x-y,1/2-z
-x+y,y,1/2+z
x,x-y,1/2+z
-y,-x,1/2+z
y,x,z
x-y,-y,z
-x,-x+y,z
loop_
_atom_site_type_symbol
_atom_site_label
_atom_site_fract_x
_atom_site_fract_y
_atom_site_fract_z
Si Si1 0.904963 0.540506 0.005531
Si Si2 0.898746 0.366007 0.365891
Si Si3 0.900039 0.642623 0.750000
Si Si4 0.666668 0.333334 0.326340
Si Si5 0.334792 0.507724 0.361896
Si Si6 0.100895 0.370189 0.750000
O O1 0.843393 0.530355 0.065432
O O2 0.000000 0.622634 0.018474
O O3 0.913291 0.456646 0.000000
O O4 0.866268 0.547947 0.936109
O O5 0.875228 0.293401 0.312541
O O6 0.862250 0.427840 0.346511
O O7 0.000000 0.428811 0.370944
O O8 0.835795 0.681511 0.750000
O O9 0.000000 0.718247 0.750000
O O10 0.666667 0.333334 0.250000
O O11 0.567383 0.290836 0.351736
O O12 0.302334 0.428910 0.313297
O O13 0.000000 0.300753 0.750000
#
# Coordination Sequence:
#
# PCOD8330166 Si02
#       6
#    24  24  12   8  24  12
#     4   8  15  30  50  72  97 131 175 221 260 298
#     4   9  17  32  55  76 101 139 176 208 255 311
#     4  10  21  37  55  76 101 131 164 200 251 321
#     4  12  24  36  43  62 103 151 188 220 261 297
#     4  11  20  33  49  70 104 139 178 220 254 288
#     4  12  23  35  55  78  97 123 164 216 259 299
#
# _framework density 18.087071999999999
#
# number of rings (size 3 to 8) (size 9 to 14) (size 15 to 20)
#    0.000    2.077    1.154    5.538    0.000    0.923 
#    0.000   18.462    0.000    0.231    0.000    0.000 
#    0.000    0.000    0.000    0.000    0.000   18.231 
#
# Total GULP energy -1288989.069220 kJ/mol
# GULP energy per Si atom -12394.125666 kJ/mol
# Density = 1.804590 g / cm^3
# Si number density = 18.087072 Si / 1000 Ang^3
#
#
#
# Elastic Constant Matrix: (Units=GPa)
#
#
# Indices 1 2 3 4 5 6 
#
# 1 73.4744 36.7409 36.5304 -0.0001 0.0000 0.0000
# 2 36.7409 73.4754 36.5307 0.0001 -0.0001 0.0001
# 3 36.5304 36.5307 160.2679 0.0000 0.0001 0.0000
# 4 -0.0001 0.0001 0.0000 4.9648 0.0000 0.0001
# 5 0.0000 -0.0001 0.0001 0.0000 4.9646 0.0001
# 6 0.0000 0.0001 0.0000 0.0001 0.0001 18.3675
#
#
#
# Elastic Compliance Matrix: (Units=1/GPa)
#
#
# Indices 1 2 3 4 5 6 
#
# 1 0.018956 -0.008267 -0.002436 0.000000 0.000000 0.000000
# 2 -0.008267 0.018955 -0.002436 0.000000 0.000000 0.000000
# 3 -0.002436 -0.002436 0.007350 0.000000 0.000000 0.000000
# 4 0.000000 0.000000 0.000000 0.201416 0.000000 -0.000001
# 5 0.000000 0.000000 0.000000 0.000000 0.201424 -0.000001
# 6 0.000000 0.000000 0.000000 -0.000001 -0.000001 0.054444
#
#
# Mechanical properties :
#
#
# Convention : Reuss Voigt Hill
#
# Bulk Modulus (GPa) = 52.68286 58.53575 55.60930
# Shear Modulus (GPa) = 9.34315 18.82045 14.08180
#
# Velocity S-wave (km/s) = 2.27527 3.22925 2.79329
# Velocity P-wave (km/s) = 6.00775 6.80718 6.41992
#
# Compressibility (1/GPa) = 0.01898151
#
# Stress axis : x y z
#
# Youngs Moduli (GPa) = 52.75513 52.75579 136.05206
#
# Poissons Ratio (x) = 0.43615 0.33145
# Poissons Ratio (y) = 0.43615 0.33145
# Poissons Ratio (z) = 0.12852 0.12852
#
# Static dielectric constant tensor:
#      x y z
#    x 3.202250 0.000000 0.000000 
#    y 0.000000 3.202240 0.000000 
#    z 0.000000 0.000000 4.508940 
# 
# 
# High freq. dielectric constant tensor:
#      x y z
#    x 1.668780 0.000000 0.000000 
#    y 0.000000 1.668780 0.000000 
#    z 0.000000 0.000000 1.725770 
# 
# From -- ./inp_files/6344.got.cif
#   From: 2010.03.12/outbox.cif.g09.slc.cpg/sg193_4_cif.got.tgz:6344.got - 2010.04.01 12:20:39.
