data_PCOD8330419
_publ_section_title
;
Structure prediction by ZEFSAII (Michael W. Deem and Ramdas Pophale) SiO2 
 PCOD8330419
Probable space group: P 63/M M C
;
_chemical_formula_sum "Si O2"
_cell_formula_units_Z 144
_cell_length_a 22.655155
_cell_length_b 22.655155
_cell_length_c 17.296723
_cell_angle_alpha 90.000000
_cell_angle_beta 90.000000
_cell_angle_gamma 120.000000
_cell_volume 7688.268427
_symmetry_space_group_name_H-M "P 63/M M C"
_symmetry_group_IT_number 194
_symmetry_cell_setting 'hexagonal'
loop_
_space_group_symop_operation_xyz
x,y,z
x-y,x,1/2+z
-y,x-y,z
-x,-y,1/2+z
-x+y,-x,z
y,-x+y,1/2+z
x-y,-y,-z
-x,-x+y,-z
y,x,-z
-y,-x,1/2-z
-x+y,y,1/2-z
x,x-y,1/2-z
-x,-y,-z
-x+y,-x,1/2-z
y,-x+y,-z
x,y,1/2-z
x-y,x,-z
-y,x-y,1/2-z
-x+y,y,z
x,x-y,z
-y,-x,z
y,x,1/2+z
x-y,-y,1/2+z
-x,-x+y,1/2+z
loop_
_atom_site_type_symbol
_atom_site_label
_atom_site_fract_x
_atom_site_fract_y
_atom_site_fract_z
Si Si1 0.885640 0.442820 0.839798
Si Si2 0.702322 0.669565 0.581649
Si Si3 0.157282 0.705656 0.159858
Si Si4 0.480877 0.519124 0.842834
Si Si5 0.775951 0.887976 0.838259
Si Si6 0.418413 0.085233 0.160042
Si Si7 0.188000 0.375999 0.842906
Si Si8 0.973237 0.810244 0.582995
O O1 0.900249 0.450125 0.750000
O O2 0.842601 0.479121 0.862429
O O3 0.961433 0.480717 0.877364
O O4 0.665297 0.665297 0.500000
O O5 0.710511 0.604928 0.600408
O O6 0.655316 0.674257 0.647839
O O7 0.778235 0.732340 0.582856
O O8 0.136012 0.705197 0.250000
O O9 0.232437 0.767564 0.144155
O O10 0.481058 0.518943 0.750000
O O11 0.520344 0.596732 0.875749
O O12 0.758333 0.879167 0.750000
O O13 0.701093 0.850547 0.879403
O O14 0.819795 0.852320 0.856376
O O15 0.431534 0.096262 0.250000
O O16 0.416174 0.150534 0.125185
O O17 0.186578 0.373155 0.750000
O O18 0.907350 0.814699 0.607494
O O19 0.000000 0.844521 0.500000
#
# Coordination Sequence:
#
# PCOD8330419 Si02
#       8
#    12  24  24  12  12  24  12  24
#     4   9  16  30  54  80 109 148 189 235 280 328
#     4  11  22  34  54  86 112 144 180 231 286 341
#     4  10  20  36  56  81 117 156 194 238 288 343
#     4   9  16  28  54  79 106 139 178 224 270 327
#     4  11  22  38  59  85 109 137 187 245 281 321
#     4  10  18  33  55  79 105 142 182 221 276 334
#     4   9  18  32  54  78 107 138 175 228 279 324
#     4  11  23  40  59  77 106 147 184 225 283 347
#
# _framework density 18.729835999999999
#
# number of rings (size 3 to 8) (size 9 to 14) (size 15 to 20)
#    0.000    1.833    4.167    1.000    0.000    1.000 
#    2.500    2.083    0.000    0.333    0.000    2.333 
#    0.000    0.000    0.000    0.000    0.000    0.000 
#
# Total GULP energy -1784935.617074 kJ/mol
# GULP energy per Si atom -12395.386230 kJ/mol
# Density = 1.868721 g / cm^3
# Si number density = 18.729836 Si / 1000 Ang^3
#
#
#
# Elastic Constant Matrix: (Units=GPa)
#
#
# Indices 1 2 3 4 5 6 
#
# 1 157.2121 90.3990 28.3552 0.0000 0.0000 0.0000
# 2 90.3990 157.2121 28.3552 0.0000 0.0000 0.0000
# 3 28.3552 28.3552 31.7303 0.0000 0.0000 0.0000
# 4 0.0000 0.0000 0.0000 20.7860 0.0000 0.0000
# 5 0.0000 0.0000 0.0000 0.0000 20.7860 0.0000
# 6 0.0000 0.0000 0.0000 0.0000 0.0000 33.4066
#
#
#
# Elastic Compliance Matrix: (Units=1/GPa)
#
#
# Indices 1 2 3 4 5 6 
#
# 1 0.010022 -0.004945 -0.004538 0.000000 0.000000 0.000000
# 2 -0.004945 0.010022 -0.004538 0.000000 0.000000 0.000000
# 3 -0.004538 -0.004538 0.039626 0.000000 0.000000 0.000000
# 4 0.000000 0.000000 0.000000 0.048109 0.000000 0.000000
# 5 0.000000 0.000000 0.000000 0.000000 0.048109 0.000000
# 6 0.000000 0.000000 0.000000 0.000000 0.000000 0.029934
#
#
# Mechanical properties :
#
#
# Convention : Reuss Voigt Hill
#
# Bulk Modulus (GPa) = 31.61501 71.15255 51.38378
# Shear Modulus (GPa) = 22.28090 28.26538 25.27314
#
# Velocity S-wave (km/s) = 3.45279 3.88894 3.67734
# Velocity P-wave (km/s) = 5.72816 7.63128 6.74716
#
# Compressibility (1/GPa) = 0.03163055
#
# Stress axis : x y z
#
# Youngs Moduli (GPa) = 99.77555 99.77555 25.23610
#
# Poissons Ratio (x) = 0.49335 0.11451
# Poissons Ratio (y) = 0.49335 0.11451
# Poissons Ratio (z) = 0.45276 0.45276
#
# Static dielectric constant tensor:
#      x y z
#    x 3.596700 0.000000 0.000000 
#    y 0.000000 3.596700 0.000000 
#    z 0.000000 0.000000 3.157800 
# 
# 
# High freq. dielectric constant tensor:
#      x y z
#    x 1.727460 0.000000 0.000000 
#    y 0.000000 1.727460 0.000000 
#    z 0.000000 0.000000 1.693920 
# 
# From -- ./inp_files/8336.got.cif
#   From: 2010.03.12/outbox.cif.g09.slc.cpg/sg194_5_cif.got.tgz:8336.got - 2010.04.01 12:26:19.
