data_PCOD8330200
_publ_section_title
;
Structure prediction by ZEFSAII (Michael W. Deem and Ramdas Pophale) SiO2 
 PCOD8330200
Probable space group: P 63/M C M
;
_chemical_formula_sum "Si O2"
_cell_formula_units_Z 156
_cell_length_a 22.108443
_cell_length_b 22.108443
_cell_length_c 19.651274
_cell_angle_alpha 90.000000
_cell_angle_beta 90.000000
_cell_angle_gamma 120.000000
_cell_volume 8318.358995
_symmetry_space_group_name_H-M "P 63/M C M"
_symmetry_group_IT_number 193
_symmetry_cell_setting 'hexagonal'
loop_
_space_group_symop_operation_xyz
x,y,z
x-y,x,1/2+z
-y,x-y,z
-x,-y,1/2+z
-x+y,-x,z
y,-x+y,1/2+z
x-y,-y,1/2-z
-x,-x+y,1/2-z
y,x,1/2-z
-y,-x,-z
-x+y,y,-z
x,x-y,-z
-x,-y,-z
-x+y,-x,1/2-z
y,-x+y,-z
x,y,1/2-z
x-y,x,-z
-y,x-y,1/2-z
-x+y,y,1/2+z
x,x-y,1/2+z
-y,-x,1/2+z
y,x,z
x-y,-y,z
-x,-x+y,z
loop_
_atom_site_type_symbol
_atom_site_label
_atom_site_fract_x
_atom_site_fract_y
_atom_site_fract_z
Si Si1 0.412935 0.000000 0.327637
Si Si2 0.921466 0.244241 0.673353
Si Si3 0.430203 0.000000 0.975753
Si Si4 0.145392 0.805425 0.570589
Si Si5 0.764882 0.500150 0.574352
Si Si6 0.878635 0.349993 0.631065
Si Si7 0.316053 0.316053 0.581638
Si Si8 0.612786 0.145297 0.672361
O O1 0.473629 0.071869 0.359888
O O2 0.431176 0.000000 0.250000
O O3 0.341368 0.000000 0.341176
O O4 0.913154 0.216276 0.750000
O O5 0.863563 0.181671 0.628651
O O6 0.910723 0.311136 0.673861
O O7 0.000000 0.269513 0.646158
O O8 0.457631 0.071003 0.933001
O O9 0.500000 0.000000 0.000000
O O10 0.376335 0.000000 0.032567
O O11 0.156163 0.843838 0.500000
O O12 0.170604 0.748739 0.566982
O O13 0.063142 0.761610 0.576868
O O14 0.733051 0.466102 0.500000
O O15 0.703640 0.504041 0.610820
O O16 0.792516 0.457407 0.620624
O O17 0.866211 0.401803 0.677742
O O18 0.644137 0.159567 0.750000
#
# Coordination Sequence:
#
# PCOD8330200 Si02
#       8
#    12  24  12  24  24  24  12  24
#     4  10  22  36  54  82 117 148 188 245 295 355
#     4  10  21  39  61  89 125 162 200 248 305 365
#     4  12  24  34  65  91 120 152 205 261 320 368
#     4  10  22  35  59  86 123 153 193 236 290 359
#     4  10  22  39  56  80 113 146 191 244 297 356
#     4  11  23  38  60  85 112 151 201 250 303 376
#     4  12  20  38  58  87 119 157 197 241 296 360
#     4  11  23  40  59  82 113 151 197 250 306 360
#
# _framework density 18.753699999999998
#
# number of rings (size 3 to 8) (size 9 to 14) (size 15 to 20)
#    0.000    1.385    2.308    4.615    3.231    3.692 
#    0.923    0.000    0.000    0.000    0.000    0.000 
#    0.769    0.615    0.000    0.000    0.000    0.000 
#
# Total GULP energy -1932601.280757 kJ/mol
# GULP energy per Si atom -12388.469748 kJ/mol
# Density = 1.871102 g / cm^3
# Si number density = 18.753700 Si / 1000 Ang^3
#
#
#
# Elastic Constant Matrix: (Units=GPa)
#
#
# Indices 1 2 3 4 5 6 
#
# 1 106.5585 51.0898 40.1256 0.0000 0.0000 0.0000
# 2 51.0898 106.5585 40.1256 0.0000 0.0000 0.0000
# 3 40.1256 40.1256 88.1919 0.0000 0.0000 0.0000
# 4 0.0000 0.0000 0.0000 3.8226 0.0000 0.0000
# 5 0.0000 0.0000 0.0000 0.0000 3.8226 0.0000
# 6 0.0000 0.0000 0.0000 0.0000 0.0000 27.7344
#
#
#
# Elastic Compliance Matrix: (Units=1/GPa)
#
#
# Indices 1 2 3 4 5 6 
#
# 1 0.013142 -0.004886 -0.003756 0.000000 0.000000 0.000000
# 2 -0.004886 0.013142 -0.003756 0.000000 0.000000 0.000000
# 3 -0.003756 -0.003756 0.014757 0.000000 0.000000 0.000000
# 4 0.000000 0.000000 0.000000 0.261605 0.000000 0.000000
# 5 0.000000 0.000000 0.000000 0.000000 0.261605 0.000000
# 6 0.000000 0.000000 0.000000 0.000000 0.000000 0.036056
#
#
# Mechanical properties :
#
#
# Convention : Reuss Voigt Hill
#
# Bulk Modulus (GPa) = 61.56399 62.66568 62.11483
# Shear Modulus (GPa) = 7.93000 18.40710 13.16855
#
# Velocity S-wave (km/s) = 2.05856 3.13632 2.65275
# Velocity P-wave (km/s) = 6.20880 6.82664 6.52503
#
# Compressibility (1/GPa) = 0.01624326
#
# Stress axis : x y z
#
# Youngs Moduli (GPa) = 76.09371 76.09371 67.76586
#
# Poissons Ratio (x) = 0.37183 0.25453
# Poissons Ratio (y) = 0.37183 0.25453
# Poissons Ratio (z) = 0.28581 0.28581
#
# Static dielectric constant tensor:
#      x y z
#    x 3.467840 0.000000 0.000000 
#    y 0.000000 3.467840 0.000000 
#    z 0.000000 0.000000 3.559240 
# 
# 
# High freq. dielectric constant tensor:
#      x y z
#    x 1.712300 0.000000 0.000000 
#    y 0.000000 1.712300 0.000000 
#    z 0.000000 0.000000 1.737030 
# 
# From -- ./inp_files/6748.got.cif
#   From: 2010.03.12/outbox.cif.g09.slc.cpg/sg193_4_cif.got.tgz:6748.got - 2010.04.01 12:20:39.
