data_PCOD8330210
_publ_section_title
;
Structure prediction by ZEFSAII (Michael W. Deem and Ramdas Pophale) SiO2 
 PCOD8330210
Probable space group: P 63/M C M
;
_chemical_formula_sum "Si O2"
_cell_formula_units_Z 104
_cell_length_a 20.919390
_cell_length_b 20.919390
_cell_length_c 14.837747
_cell_angle_alpha 90.000000
_cell_angle_beta 90.000000
_cell_angle_gamma 120.000000
_cell_volume 5623.369569
_symmetry_space_group_name_H-M "P 63/M C M"
_symmetry_group_IT_number 193
_symmetry_cell_setting 'hexagonal'
loop_
_space_group_symop_operation_xyz
x,y,z
x-y,x,1/2+z
-y,x-y,z
-x,-y,1/2+z
-x+y,-x,z
y,-x+y,1/2+z
x-y,-y,1/2-z
-x,-x+y,1/2-z
y,x,1/2-z
-y,-x,-z
-x+y,y,-z
x,x-y,-z
-x,-y,-z
-x+y,-x,1/2-z
y,-x+y,-z
x,y,1/2-z
x-y,x,-z
-y,x-y,1/2-z
-x+y,y,1/2+z
x,x-y,1/2+z
-y,-x,1/2+z
y,x,z
x-y,-y,z
-x,-x+y,z
loop_
_atom_site_type_symbol
_atom_site_label
_atom_site_fract_x
_atom_site_fract_y
_atom_site_fract_z
Si Si1 0.416126 0.832255 0.642894
Si Si2 0.666668 0.333334 0.142721
Si Si3 0.914715 0.582157 0.852443
Si Si4 0.914715 0.582158 0.352442
Si Si5 0.771251 0.686352 0.000001
O O1 0.418257 0.836518 0.750000
O O2 0.374722 0.749449 0.605298
O O3 0.499759 0.871249 0.606931
O O4 0.371490 0.871251 0.606930
O O5 0.666667 0.333334 0.250000
O O6 0.890204 0.585403 0.750000
O O7 0.000000 0.605994 0.857289
O O8 0.898125 0.636053 0.911630
O O9 0.890202 0.585403 0.250000
O O10 0.898126 0.636055 0.411630
O O11 0.000000 0.605995 0.357285
O O12 0.753451 0.753451 0.000002
O O13 0.859686 0.719372 0.000000
#
# Coordination Sequence:
#
# PCOD8330210 Si02
#       5
#    24   8  24  24  24
#     4   9  17  29  47  70 101 137 178 219 255 298
#     4   9  18  27  39  67  98 139 181 212 253 292
#     4   9  18  33  54  77 100 132 172 213 257 300
#     4   9  18  33  54  77 100 132 172 213 257 300
#     4  10  22  37  55  80 105 129 161 203 251 303
#
# _framework density 18.494249
#
# number of rings (size 3 to 8) (size 9 to 14) (size 15 to 20)
#    0.000    2.769    0.000    0.692    3.231    4.615 
#    0.000    3.462    0.000    0.231    0.000    0.000 
#    0.000    0.000    0.000   11.538    0.000    0.000 
#
# Total GULP energy -1289485.528101 kJ/mol
# GULP energy per Si atom -12398.899309 kJ/mol
# Density = 1.845215 g / cm^3
# Si number density = 18.494249 Si / 1000 Ang^3
#
#
#
# Elastic Constant Matrix: (Units=GPa)
#
#
# Indices 1 2 3 4 5 6 
#
# 1 125.6512 66.2190 28.7008 0.0000 0.0000 0.0000
# 2 66.2190 125.6507 28.7007 -0.0001 0.0000 0.0000
# 3 28.7008 28.7007 73.2519 0.0000 0.0000 0.0000
# 4 0.0000 -0.0001 0.0000 9.3099 0.0000 0.0000
# 5 0.0000 0.0000 0.0000 0.0000 9.3098 -0.0001
# 6 0.0000 0.0000 0.0000 0.0000 -0.0001 29.7163
#
#
#
# Elastic Compliance Matrix: (Units=1/GPa)
#
#
# Indices 1 2 3 4 5 6 
#
# 1 0.011365 -0.005461 -0.002313 0.000000 0.000000 0.000000
# 2 -0.005461 0.011365 -0.002313 0.000000 0.000000 0.000000
# 3 -0.002313 -0.002313 0.015464 0.000000 0.000000 0.000000
# 4 0.000000 0.000000 0.000000 0.107412 0.000000 0.000000
# 5 0.000000 0.000000 0.000000 0.000000 0.107414 0.000000
# 6 0.000000 0.000000 0.000000 0.000000 0.000000 0.033652
#
#
# Mechanical properties :
#
#
# Convention : Reuss Voigt Hill
#
# Bulk Modulus (GPa) = 55.49638 63.53274 59.51456
# Shear Modulus (GPa) = 15.98194 23.06275 19.52234
#
# Velocity S-wave (km/s) = 2.94284 3.53515 3.25251
# Velocity P-wave (km/s) = 6.45133 7.14775 6.80845
#
# Compressibility (1/GPa) = 0.01801919
#
# Stress axis : x y z
#
# Youngs Moduli (GPa) = 87.99020 87.98976 64.66548
#
# Poissons Ratio (x) = 0.48051 0.14958
# Poissons Ratio (y) = 0.48052 0.14958
# Poissons Ratio (z) = 0.20354 0.20354
#
# Static dielectric constant tensor:
#      x y z
#    x 3.278010 0.000000 0.000000 
#    y 0.000000 3.278010 0.000000 
#    z 0.000000 0.000000 3.456670 
# 
# 
# High freq. dielectric constant tensor:
#      x y z
#    x 1.699630 0.000000 0.000000 
#    y 0.000000 1.699630 0.000000 
#    z 0.000000 0.000000 1.718450 
# 
# From -- ./inp_files/3657.got.cif
#   From: 2010.03.12/outbox.cif.g09.slc.cpg/sg193_2_cif.got.tgz:3657.got - 2010.04.01 12:20:39.
