data_PCOD8330636
_publ_section_title
;
Structure prediction by ZEFSAII (Michael W. Deem and Ramdas Pophale) SiO2 
 PCOD8330636
Probable space group: P 63/M M C
;
_chemical_formula_sum "Si O2"
_cell_formula_units_Z 144
_cell_length_a 32.288711
_cell_length_b 32.288711
_cell_length_c 9.245820
_cell_angle_alpha 90.000000
_cell_angle_beta 90.000000
_cell_angle_gamma 120.000000
_cell_volume 8347.904684
_symmetry_space_group_name_H-M "P 63/M M C"
_symmetry_group_IT_number 194
_symmetry_cell_setting 'hexagonal'
loop_
_space_group_symop_operation_xyz
x,y,z
x-y,x,1/2+z
-y,x-y,z
-x,-y,1/2+z
-x+y,-x,z
y,-x+y,1/2+z
x-y,-y,-z
-x,-x+y,-z
y,x,-z
-y,-x,1/2-z
-x+y,y,1/2-z
x,x-y,1/2-z
-x,-y,-z
-x+y,-x,1/2-z
y,-x+y,-z
x,y,1/2-z
x-y,x,-z
-y,x-y,1/2-z
-x+y,y,z
x,x-y,z
-y,-x,z
y,x,1/2+z
x-y,-y,1/2+z
-x,-x+y,1/2+z
loop_
_atom_site_type_symbol
_atom_site_label
_atom_site_fract_x
_atom_site_fract_y
_atom_site_fract_z
Si Si1 0.950703 0.564220 0.581373
Si Si2 0.723842 0.616181 0.582139
Si Si3 0.809950 0.858099 0.580607
Si Si4 0.811580 0.280453 0.416307
Si Si5 0.612528 0.480602 0.416553
Si Si6 0.701039 0.802703 0.582615
O O1 0.957570 0.558168 0.750000
O O2 0.932496 0.601661 0.554209
O O3 0.913050 0.512781 0.517565
O O4 0.000000 0.582284 0.500000
O O5 0.735789 0.618479 0.750000
O O6 0.735525 0.578049 0.510858
O O7 0.756550 0.667986 0.512940
O O8 0.846273 0.846273 0.500000
O O9 0.816451 0.855087 0.750000
O O10 0.822802 0.911401 0.536016
O O11 0.755445 0.820921 0.536022
O O12 0.823650 0.276573 0.250000
O O13 0.755513 0.244488 0.449421
O O14 0.824265 0.334480 0.453581
O O15 0.609790 0.493885 0.250000
O O16 0.574928 0.425073 0.447948
O O17 0.693118 0.787855 0.750000
O O18 0.688079 0.844040 0.553534
#
# Coordination Sequence:
#
# PCOD8330636 Si02
#       6
#    24  24  24  24  24  24
#     4  10  21  35  49  67  93 125 161 200 241 282
#     4  10  20  31  45  69  98 126 160 201 237 271
#     4   9  19  35  53  74  99 126 158 195 234 278
#     4   9  17  30  49  71  95 125 158 191 233 285
#     4   9  18  33  52  72  94 122 157 196 237 283
#     4   9  18  32  48  67  95 130 162 191 228 276
#
# _framework density 17.249836999999999
#
# number of rings (size 3 to 8) (size 9 to 14) (size 15 to 20)
#    0.000    2.667    0.000    2.500    0.000    7.000 
#    0.000    5.000    0.000    0.500    0.000    2.333 
#    0.000    0.000    0.000    8.333    0.000    8.667 
#
# Total GULP energy -1785677.057059 kJ/mol
# GULP energy per Si atom -12400.535118 kJ/mol
# Density = 1.721058 g / cm^3
# Si number density = 17.249837 Si / 1000 Ang^3
#
#
#
# Elastic Constant Matrix: (Units=GPa)
#
#
# Indices 1 2 3 4 5 6 
#
# 1 108.8485 69.3909 51.5680 0.0000 0.0000 0.0000
# 2 69.3909 108.8485 51.5680 0.0000 0.0000 0.0000
# 3 51.5680 51.5680 75.5396 0.0000 0.0000 0.0000
# 4 0.0000 0.0000 0.0000 23.5076 0.0000 0.0000
# 5 0.0000 0.0000 0.0000 0.0000 23.5076 0.0000
# 6 0.0000 0.0000 0.0000 0.0000 0.0000 19.7288
#
#
#
# Elastic Compliance Matrix: (Units=1/GPa)
#
#
# Indices 1 2 3 4 5 6 
#
# 1 0.017309 -0.008035 -0.006331 0.000000 0.000000 0.000000
# 2 -0.008035 0.017309 -0.006331 0.000000 0.000000 0.000000
# 3 -0.006331 -0.006331 0.021882 0.000000 0.000000 0.000000
# 4 0.000000 0.000000 0.000000 0.042539 0.000000 0.000000
# 5 0.000000 0.000000 0.000000 0.000000 0.042539 0.000000
# 6 0.000000 0.000000 0.000000 0.000000 0.000000 0.050687
#
#
# Mechanical properties :
#
#
# Convention : Reuss Voigt Hill
#
# Bulk Modulus (GPa) = 66.19943 70.92115 68.56029
# Shear Modulus (GPa) = 20.94737 21.39613 21.17175
#
# Velocity S-wave (km/s) = 3.48854 3.52570 3.50717
# Velocity P-wave (km/s) = 7.39504 7.60115 7.49880
#
# Compressibility (1/GPa) = 0.01510587
#
# Stress axis : x y z
#
# Youngs Moduli (GPa) = 57.77457 57.77457 45.70042
#
# Poissons Ratio (x) = 0.46422 0.28932
# Poissons Ratio (y) = 0.46422 0.28932
# Poissons Ratio (z) = 0.36576 0.36576
#
# Static dielectric constant tensor:
#      x y z
#    x 3.163190 0.000000 0.000000 
#    y 0.000000 3.163190 0.000000 
#    z 0.000000 0.000000 3.228960 
# 
# 
# High freq. dielectric constant tensor:
#      x y z
#    x 1.656360 0.000000 0.000000 
#    y 0.000000 1.656360 0.000000 
#    z 0.000000 0.000000 1.668390 
# 
# From -- ./inp_files/2154.got.cif
#   From: 2010.03.12/outbox.cif.g09.slc.cpg/sg194_2_cif.got.tgz:2154.got - 2010.04.01 12:26:19.
