data_PCOD8330438
_publ_section_title
;
Structure prediction by ZEFSAII (Michael W. Deem and Ramdas Pophale) SiO2 
 PCOD8330438
Probable space group: P 63/M M C
;
_chemical_formula_sum "Si O2"
_cell_formula_units_Z 132
_cell_length_a 17.467829
_cell_length_b 17.467829
_cell_length_c 31.684450
_cell_angle_alpha 90.000000
_cell_angle_beta 90.000000
_cell_angle_gamma 120.000000
_cell_volume 8372.490588
_symmetry_space_group_name_H-M "P 63/M M C"
_symmetry_group_IT_number 194
_symmetry_cell_setting 'hexagonal'
loop_
_space_group_symop_operation_xyz
x,y,z
x-y,x,1/2+z
-y,x-y,z
-x,-y,1/2+z
-x+y,-x,z
y,-x+y,1/2+z
x-y,-y,-z
-x,-x+y,-z
y,x,-z
-y,-x,1/2-z
-x+y,y,1/2-z
x,x-y,1/2-z
-x,-y,-z
-x+y,-x,1/2-z
y,-x+y,-z
x,y,1/2-z
x-y,x,-z
-y,x-y,1/2-z
-x+y,y,z
x,x-y,z
-y,-x,z
y,x,1/2+z
x-y,-y,1/2+z
-x,-x+y,1/2+z
loop_
_atom_site_type_symbol
_atom_site_label
_atom_site_fract_x
_atom_site_fract_y
_atom_site_fract_z
Si Si1 0.837306 0.504161 0.110664
Si Si2 0.666624 0.159015 0.013687
Si Si3 0.000000 0.820126 0.000000
Si Si4 0.653112 0.738690 0.052929
Si Si5 0.490489 0.333079 0.797752
Si Si6 0.602057 0.573522 0.871710
O O1 0.763243 0.526486 0.126238
O O2 0.798207 0.399104 0.114735
O O3 0.865699 0.533283 0.062354
O O4 0.924567 0.558128 0.138853
O O5 0.572163 0.144325 0.999406
O O6 0.738824 0.261177 0.005639
O O7 0.687307 0.093198 0.987597
O O8 0.020600 0.776530 0.040579
O O9 0.915309 0.830618 0.011059
O O10 0.637878 0.818939 0.065486
O O11 0.621625 0.673859 0.092295
O O12 0.456929 0.329808 0.750000
O O13 0.482949 0.241475 0.811103
O O14 0.592355 0.407645 0.802285
O O15 0.428963 0.351108 0.828742
O O16 0.525180 0.474821 0.885805
#
# Coordination Sequence:
#
# PCOD8330438 Si02
#       6
#    24  24  12  24  24  24
#     4   9  17  28  42  59  80 110 147 182 212 244
#     4   9  16  26  40  59  86 120 153 178 200 234
#     4  10  21  36  51  64  80 108 148 192 233 270
#     4  10  19  29  42  61  86 114 143 178 220 261
#     4   9  17  30  48  68  90 117 148 179 210 249
#     4  10  19  29  43  65  91 117 144 176 216 259
#
# _framework density 15.765919
#
# number of rings (size 3 to 8) (size 9 to 14) (size 15 to 20)
#    0.000    2.545    0.000    2.818    0.000    4.364 
#    0.000    3.636    0.000    6.364    0.000    0.000 
#    0.000    1.455    0.000    0.000    0.000    2.182 
#
# Total GULP energy -1636519.172574 kJ/mol
# GULP energy per Si atom -12397.872519 kJ/mol
# Density = 1.573003 g / cm^3
# Si number density = 15.765919 Si / 1000 Ang^3
#
#
#
# Elastic Constant Matrix: (Units=GPa)
#
#
# Indices 1 2 3 4 5 6 
#
# 1 101.1432 52.7542 48.4983 0.0000 0.0000 0.0000
# 2 52.7542 101.1432 48.4983 0.0000 0.0000 0.0000
# 3 48.4983 48.4983 66.2306 0.0000 0.0000 0.0000
# 4 0.0000 0.0000 0.0000 19.3171 0.0000 0.0000
# 5 0.0000 0.0000 0.0000 0.0000 19.3171 0.0000
# 6 0.0000 0.0000 0.0000 0.0000 0.0000 24.1945
#
#
#
# Elastic Compliance Matrix: (Units=1/GPa)
#
#
# Indices 1 2 3 4 5 6 
#
# 1 0.016366 -0.004299 -0.008836 0.000000 0.000000 0.000000
# 2 -0.004299 0.016366 -0.008836 0.000000 0.000000 0.000000
# 3 -0.008836 -0.008836 0.028040 0.000000 0.000000 0.000000
# 4 0.000000 0.000000 0.000000 0.051768 0.000000 0.000000
# 5 0.000000 0.000000 0.000000 0.000000 0.051768 0.000000
# 6 0.000000 0.000000 0.000000 0.000000 0.000000 0.041332
#
#
# Mechanical properties :
#
#
# Convention : Reuss Voigt Hill
#
# Bulk Modulus (GPa) = 59.42211 63.11319 61.26765
# Shear Modulus (GPa) = 19.59302 20.48351 20.03826
#
# Velocity S-wave (km/s) = 3.52908 3.60839 3.56896
# Velocity P-wave (km/s) = 7.37414 7.58149 7.47853
#
# Compressibility (1/GPa) = 0.01682875
#
# Stress axis : x y z
#
# Youngs Moduli (GPa) = 61.10060 61.10060 35.66362
#
# Poissons Ratio (x) = 0.26269 0.31513
# Poissons Ratio (y) = 0.26269 0.31513
# Poissons Ratio (z) = 0.53990 0.53990
#
# Static dielectric constant tensor:
#      x y z
#    x 3.050460 0.000000 0.000000 
#    y 0.000000 3.050460 0.000000 
#    z 0.000000 0.000000 2.798390 
# 
# 
# High freq. dielectric constant tensor:
#      x y z
#    x 1.608350 0.000000 0.000000 
#    y 0.000000 1.608350 0.000000 
#    z 0.000000 0.000000 1.566880 
# 
# From -- ./inp_files/12003.got.cif
#   From: 2010.03.12/outbox.cif.g09.slc.cpg/sg194_7_cif.got.tgz:12003.got - 2010.04.01 12:26:19.
