data_PCOD8330730
_publ_section_title
;
Structure prediction by ZEFSAII (Michael W. Deem and Ramdas Pophale) SiO2 
 PCOD8330730
Probable space group: P 63/M M C
;
_chemical_formula_sum "Si O2"
_cell_formula_units_Z 132
_cell_length_a 17.502396
_cell_length_b 17.502396
_cell_length_c 22.964884
_cell_angle_alpha 90.000000
_cell_angle_beta 90.000000
_cell_angle_gamma 120.000000
_cell_volume 6092.420899
_symmetry_space_group_name_H-M "P 63/M M C"
_symmetry_group_IT_number 194
_symmetry_cell_setting 'hexagonal'
loop_
_space_group_symop_operation_xyz
x,y,z
x-y,x,1/2+z
-y,x-y,z
-x,-y,1/2+z
-x+y,-x,z
y,-x+y,1/2+z
x-y,-y,-z
-x,-x+y,-z
y,x,-z
-y,-x,1/2-z
-x+y,y,1/2-z
x,x-y,1/2-z
-x,-y,-z
-x+y,-x,1/2-z
y,-x+y,-z
x,y,1/2-z
x-y,x,-z
-y,x-y,1/2-z
-x+y,y,z
x,x-y,z
-y,-x,z
y,x,1/2+z
x-y,-y,1/2+z
-x,-x+y,1/2+z
loop_
_atom_site_type_symbol
_atom_site_label
_atom_site_fract_x
_atom_site_fract_y
_atom_site_fract_z
Si Si1 0.830621 0.831129 0.680698
Si Si2 0.665387 0.506513 0.250000
Si Si3 0.361608 0.089268 0.685218
Si Si4 0.665344 0.513120 0.376753
Si Si5 0.331630 0.491261 0.087708
Si Si6 0.637448 0.733035 0.519474
O O1 0.836955 0.836133 0.750000
O O2 0.923565 0.847130 0.655193
O O3 0.749920 0.735394 0.662648
O O4 0.811292 0.905646 0.655103
O O5 0.598578 0.401423 0.250000
O O6 0.763685 0.527370 0.250000
O O7 0.652993 0.545218 0.311618
O O8 0.382002 0.067362 0.750000
O O9 0.359878 0.179939 0.686575
O O10 0.434673 0.095560 0.640651
O O11 0.747439 0.494877 0.378117
O O12 0.577318 0.422683 0.394521
O O13 0.681946 0.591202 0.420873
O O14 0.260415 0.520829 0.103436
O O15 0.425584 0.574417 0.078315
O O16 0.305684 0.437805 0.028607
O O17 0.716365 0.716365 0.500000
O O18 0.676659 0.838330 0.525640
#
# Coordination Sequence:
#
# PCOD8330730 Si02
#       6
#    24  12  24  24  24  24
#     4   8  12  19  35  62  97 139 185 234 289 352
#     4   8  13  22  40  72 115 160 200 240 284 334
#     4   8  15  28  45  68 103 145 190 242 297 343
#     4   9  16  27  48  81 122 164 204 243 287 339
#     4  10  20  34  54  80 110 146 190 238 284 332
#     4  10  22  40  62  87 114 150 192 237 291 348
#
# _framework density 21.666264000000002
#
# number of rings (size 3 to 8) (size 9 to 14) (size 15 to 20)
#    0.000    3.091    0.000    2.273    0.000    4.000 
#    0.000    2.727    2.000    1.273    0.000    0.000 
#    0.000    0.000    0.000    0.545    0.000    8.000 
#
# Total GULP energy -1635920.643352 kJ/mol
# GULP energy per Si atom -12393.338207 kJ/mol
# Density = 2.161695 g / cm^3
# Si number density = 21.666264 Si / 1000 Ang^3
#
#
#
# Elastic Constant Matrix: (Units=GPa)
#
#
# Indices 1 2 3 4 5 6 
#
# 1 66.2218 39.1708 30.1373 0.0000 0.0000 0.0000
# 2 39.1708 66.2218 30.1373 0.0000 0.0000 0.0000
# 3 30.1373 30.1373 108.6462 0.0000 0.0000 0.0000
# 4 0.0000 0.0000 0.0000 20.2228 0.0000 0.0000
# 5 0.0000 0.0000 0.0000 0.0000 20.2228 0.0000
# 6 0.0000 0.0000 0.0000 0.0000 0.0000 13.5255
#
#
#
# Elastic Compliance Matrix: (Units=1/GPa)
#
#
# Indices 1 2 3 4 5 6 
#
# 1 0.024122 -0.012845 -0.003128 0.000000 0.000000 0.000000
# 2 -0.012845 0.024122 -0.003128 0.000000 0.000000 0.000000
# 3 -0.003128 -0.003128 0.010940 0.000000 0.000000 0.000000
# 4 0.000000 0.000000 0.000000 0.049449 0.000000 0.000000
# 5 0.000000 0.000000 0.000000 0.000000 0.049449 0.000000
# 6 0.000000 0.000000 0.000000 0.000000 0.000000 0.073934
#
#
# Mechanical properties :
#
#
# Convention : Reuss Voigt Hill
#
# Bulk Modulus (GPa) = 47.66098 48.88673 48.27386
# Shear Modulus (GPa) = 18.03665 20.23718 19.13692
#
# Velocity S-wave (km/s) = 2.88840 3.05952 2.97519
# Velocity P-wave (km/s) = 5.75928 5.92397 5.84221
#
# Compressibility (1/GPa) = 0.02098152
#
# Stress axis : x y z
#
# Youngs Moduli (GPa) = 41.45543 41.45543 91.41045
#
# Poissons Ratio (x) = 0.53249 0.28595
# Poissons Ratio (y) = 0.53249 0.28595
# Poissons Ratio (z) = 0.12968 0.12968
#
# Static dielectric constant tensor:
#      x y z
#    x 3.854160 0.000000 0.000000 
#    y 0.000000 3.854160 0.000000 
#    z 0.000000 0.000000 4.211800 
# 
# 
# High freq. dielectric constant tensor:
#      x y z
#    x 1.836570 0.000000 0.000000 
#    y 0.000000 1.836570 0.000000 
#    z 0.000000 0.000000 1.846380 
# 
# From -- ./inp_files/9499.got.cif
#   From: 2010.03.12/outbox.cif.g09.slc.cpg/sg194_5_cif.got.tgz:9499.got - 2010.04.01 12:26:19.
