data_PCOD8330145
_publ_section_title
;
Structure prediction by ZEFSAII (Michael W. Deem and Ramdas Pophale) SiO2 
 PCOD8330145
Probable space group: P 63/M C M
;
_chemical_formula_sum "Si O2"
_cell_formula_units_Z 120
_cell_length_a 16.803340
_cell_length_b 16.803340
_cell_length_c 27.007131
_cell_angle_alpha 90.000000
_cell_angle_beta 90.000000
_cell_angle_gamma 120.000000
_cell_volume 6603.897331
_symmetry_space_group_name_H-M "P 63/M C M"
_symmetry_group_IT_number 193
_symmetry_cell_setting 'hexagonal'
loop_
_space_group_symop_operation_xyz
x,y,z
x-y,x,1/2+z
-y,x-y,z
-x,-y,1/2+z
-x+y,-x,z
y,-x+y,1/2+z
x-y,-y,1/2-z
-x,-x+y,1/2-z
y,x,1/2-z
-y,-x,-z
-x+y,y,-z
x,x-y,-z
-x,-y,-z
-x+y,-x,1/2-z
y,-x+y,-z
x,y,1/2-z
x-y,x,-z
-y,x-y,1/2-z
-x+y,y,1/2+z
x,x-y,1/2+z
-y,-x,1/2+z
y,x,z
x-y,-y,z
-x,-x+y,z
loop_
_atom_site_type_symbol
_atom_site_label
_atom_site_fract_x
_atom_site_fract_y
_atom_site_fract_z
Si Si1 0.898220 0.397834 0.955578
Si Si2 0.488910 0.387934 0.636181
Si Si3 0.213834 0.106800 0.556939
Si Si4 0.820677 0.225775 0.892280
Si Si5 0.637581 0.108249 0.195447
O O1 0.912683 0.463132 0.910674
O O2 0.834912 0.291867 0.939248
O O3 0.000000 0.416652 0.971971
O O4 0.852271 0.426136 0.000000
O O5 0.404868 0.404868 0.651742
O O6 0.452954 0.284503 0.622162
O O7 0.568773 0.423489 0.678303
O O8 0.247574 0.123787 0.500000
O O9 0.163152 0.163152 0.570568
O O10 0.299851 0.140226 0.593364
O O11 0.142682 0.000000 0.566190
O O12 0.870356 0.281488 0.842957
O O13 0.677900 0.148835 0.250000
O O14 0.575606 0.000000 0.197779
#
# Coordination Sequence:
#
# PCOD8330145 Si02
#       5
#    24  24  24  24  24
#     4   9  19  34  51  69 101 144 179 216 265 316
#     4   9  19  34  51  75 106 138 173 215 266 316
#     4  10  21  35  54  81 116 154 191 232 279 332
#     4  11  20  33  56  84 106 137 186 233 267 330
#     4   9  19  38  59  75 100 139 177 218 271 327
#
# _framework density 18.171088000000001
#
# number of rings (size 3 to 8) (size 9 to 14) (size 15 to 20)
#    0.000    2.400    0.000    3.800    2.800    1.600 
#    9.600    0.000    0.000    1.800    0.000    0.000 
#    0.000    1.600    0.000    0.000    0.000    0.000 
#
# Total GULP energy -1487140.528229 kJ/mol
# GULP energy per Si atom -12392.837735 kJ/mol
# Density = 1.812973 g / cm^3
# Si number density = 18.171088 Si / 1000 Ang^3
#
#
#
# Elastic Constant Matrix: (Units=GPa)
#
#
# Indices 1 2 3 4 5 6 
#
# 1 103.2521 51.4091 67.3266 0.0000 0.0000 0.0000
# 2 51.4091 103.2521 67.3266 0.0000 0.0000 0.0000
# 3 67.3266 67.3266 73.0486 0.0000 0.0000 0.0000
# 4 0.0000 0.0000 0.0000 18.9239 0.0000 0.0000
# 5 0.0000 0.0000 0.0000 0.0000 18.9239 0.0000
# 6 0.0000 0.0000 0.0000 0.0000 0.0000 25.9215
#
#
#
# Elastic Compliance Matrix: (Units=1/GPa)
#
#
# Indices 1 2 3 4 5 6 
#
# 1 0.026008 0.006719 -0.030164 0.000000 0.000000 0.000000
# 2 0.006719 0.026008 -0.030164 0.000000 0.000000 0.000000
# 3 -0.030164 -0.030164 0.069291 0.000000 0.000000 0.000000
# 4 0.000000 0.000000 0.000000 0.052843 0.000000 0.000000
# 5 0.000000 0.000000 0.000000 0.000000 0.052843 0.000000
# 6 0.000000 0.000000 0.000000 0.000000 0.000000 0.038578
#
#
# Mechanical properties :
#
#
# Convention : Reuss Voigt Hill
#
# Bulk Modulus (GPa) = 70.96660 72.40859 71.68760
# Shear Modulus (GPa) = 13.24552 18.98653 16.11602
#
# Velocity S-wave (km/s) = 2.70281 3.23596 2.98133
# Velocity P-wave (km/s) = 6.99140 7.34144 7.16855
#
# Compressibility (1/GPa) = 0.01409114
#
# Stress axis : x y z
#
# Youngs Moduli (GPa) = 38.44947 38.44947 14.43180
#
# Poissons Ratio (x) = -0.25835 0.43532
# Poissons Ratio (y) = -0.25835 0.43532
# Poissons Ratio (z) = 1.15978 1.15978
#
# Static dielectric constant tensor:
#      x y z
#    x 3.527830 0.000000 0.000000 
#    y 0.000000 3.527830 0.000000 
#    z 0.000000 0.000000 3.558110 
# 
# 
# High freq. dielectric constant tensor:
#      x y z
#    x 1.698780 0.000000 0.000000 
#    y 0.000000 1.698780 0.000000 
#    z 0.000000 0.000000 1.696540 
# 
# From -- ./inp_files/8944.got.cif
#   From: 2010.03.12/outbox.cif.g09.slc.cpg/sg193_5_cif.got.tgz:8944.got - 2010.04.01 12:20:39.
