data_PCOD8330279
_publ_section_title
;
Structure prediction by ZEFSAII (Michael W. Deem and Ramdas Pophale) SiO2 
 PCOD8330279
Probable space group: P 63/M C M
;
_chemical_formula_sum "Si O2"
_cell_formula_units_Z 168
_cell_length_a 28.685959
_cell_length_b 28.685959
_cell_length_c 15.997173
_cell_angle_alpha 90.000000
_cell_angle_beta 90.000000
_cell_angle_gamma 120.000000
_cell_volume 11400.203922
_symmetry_space_group_name_H-M "P 63/M C M"
_symmetry_group_IT_number 193
_symmetry_cell_setting 'hexagonal'
loop_
_space_group_symop_operation_xyz
x,y,z
x-y,x,1/2+z
-y,x-y,z
-x,-y,1/2+z
-x+y,-x,z
y,-x+y,1/2+z
x-y,-y,1/2-z
-x,-x+y,1/2-z
y,x,1/2-z
-y,-x,-z
-x+y,y,-z
x,x-y,-z
-x,-y,-z
-x+y,-x,1/2-z
y,-x+y,-z
x,y,1/2-z
x-y,x,-z
-y,x-y,1/2-z
-x+y,y,1/2+z
x,x-y,1/2+z
-y,-x,1/2+z
y,x,z
x-y,-y,z
-x,-x+y,z
loop_
_atom_site_type_symbol
_atom_site_label
_atom_site_fract_x
_atom_site_fract_y
_atom_site_fract_z
Si Si1 0.779031 0.838521 0.152254
Si Si2 0.520623 0.584822 0.500000
Si Si3 0.420812 0.064084 0.842407
Si Si4 0.063794 0.740593 0.906804
Si Si5 0.940510 0.161479 0.652254
Si Si6 0.935916 0.356728 0.342407
Si Si7 0.740593 0.063794 0.093196
O O1 0.789448 0.844326 0.250000
O O2 0.816685 0.816685 0.111223
O O3 0.715935 0.797293 0.137026
O O4 0.793711 0.896855 0.114231
O O5 0.457075 0.542926 0.500000
O O6 0.554125 0.554125 0.500000
O O7 0.534601 0.621129 0.583947
O O8 0.534601 0.621129 0.416053
O O9 0.447343 0.083585 0.750000
O O10 0.379018 0.085809 0.856575
O O11 0.389315 0.000000 0.845945
O O12 0.085809 0.706791 0.856574
O O13 0.000000 0.705874 0.909817
O O14 0.087863 0.751365 1.000000
O O15 0.945122 0.155674 0.750000
O O16 0.918642 0.202707 0.637026
O O17 0.000000 0.183315 0.611223
O O18 0.916415 0.363757 0.250000
O O19 0.000000 0.389315 0.345945
O O20 0.705874 0.000000 0.090182
#
# Coordination Sequence:
#
# PCOD8330279 Si02
#       7
#    24  24  24  24  24  24  24
#     4   9  17  28  41  57  76  97 121 152 195 250
#     4   9  16  24  32  46  69  94 123 156 186 217
#     4   9  15  23  35  49  67  93 123 154 188 222
#     4   9  15  24  38  54  71  90 116 150 187 229
#     4   9  17  28  41  57  76  97 121 152 195 250
#     4   9  15  23  35  49  67  93 123 154 188 222
#     4   9  15  24  38  54  71  90 116 150 187 229
#
# _framework density 14.736579000000001
#
# number of rings (size 3 to 8) (size 9 to 14) (size 15 to 20)
#    0.000    3.000    1.429    0.857    0.000    4.571 
#    0.000    2.857    0.000    0.286    0.000    2.000 
#    0.000    0.000    0.000    7.143    0.000    7.429 
#
# Total GULP energy -2081295.204826 kJ/mol
# GULP energy per Si atom -12388.661933 kJ/mol
# Density = 1.470304 g / cm^3
# Si number density = 14.736579 Si / 1000 Ang^3
#
#
#
# Elastic Constant Matrix: (Units=GPa)
#
#
# Indices 1 2 3 4 5 6 
#
# 1 63.2992 39.7948 30.2264 0.0000 0.0000 0.0000
# 2 39.7948 63.2992 30.2264 0.0000 0.0000 0.0000
# 3 30.2264 30.2264 88.9439 0.0000 0.0000 0.0000
# 4 0.0000 0.0000 0.0000 11.5605 0.0000 0.0000
# 5 0.0000 0.0000 0.0000 0.0000 11.5605 0.0000
# 6 0.0000 0.0000 0.0000 0.0000 0.0000 11.7522
#
#
#
# Elastic Compliance Matrix: (Units=1/GPa)
#
#
# Indices 1 2 3 4 5 6 
#
# 1 0.027330 -0.015216 -0.004117 0.000000 0.000000 0.000000
# 2 -0.015216 0.027330 -0.004117 0.000000 0.000000 0.000000
# 3 -0.004117 -0.004117 0.014041 0.000000 0.000000 0.000000
# 4 0.000000 0.000000 0.000000 0.086501 0.000000 0.000000
# 5 0.000000 0.000000 0.000000 0.000000 0.086501 0.000000
# 6 0.000000 0.000000 0.000000 0.000000 0.000000 0.085090
#
#
# Mechanical properties :
#
#
# Convention : Reuss Voigt Hill
#
# Bulk Modulus (GPa) = 45.86761 46.22640 46.04700
# Shear Modulus (GPa) = 13.12478 14.66097 13.89287
#
# Velocity S-wave (km/s) = 2.98757 3.15758 3.07375
# Velocity P-wave (km/s) = 6.56455 6.68807 6.62660
#
# Compressibility (1/GPa) = 0.02180188
#
# Stress axis : x y z
#
# Youngs Moduli (GPa) = 36.59049 36.59049 71.21958
#
# Poissons Ratio (x) = 0.55675 0.29319
# Poissons Ratio (y) = 0.55675 0.29319
# Poissons Ratio (z) = 0.15063 0.15063
#
# Static dielectric constant tensor:
#      x y z
#    x 2.735950 0.000000 0.000000 
#    y 0.000000 2.735950 0.000000 
#    z 0.000000 0.000000 3.057320 
# 
# 
# High freq. dielectric constant tensor:
#      x y z
#    x 1.514810 0.000000 0.000000 
#    y 0.000000 1.514810 0.000000 
#    z 0.000000 0.000000 1.577710 
# 
# From -- ./inp_files/4422.got.cif
#   From: 2010.03.12/outbox.cif.g09.slc.cpg/sg193_3_cif.got.tgz:4422.got - 2010.04.01 12:20:39.
