data_PCOD8330033
_publ_section_title
;
Structure prediction by ZEFSAII (Michael W. Deem and Ramdas Pophale) SiO2 
 PCOD8330033
Probable space group: P 63/M C M
;
_chemical_formula_sum "Si O2"
_cell_formula_units_Z 72
_cell_length_a 22.329521
_cell_length_b 22.329521
_cell_length_c 8.991473
_cell_angle_alpha 90.000000
_cell_angle_beta 90.000000
_cell_angle_gamma 120.000000
_cell_volume 3882.578900
_symmetry_space_group_name_H-M "P 63/M C M"
_symmetry_group_IT_number 193
_symmetry_cell_setting 'hexagonal'
loop_
_space_group_symop_operation_xyz
x,y,z
x-y,x,1/2+z
-y,x-y,z
-x,-y,1/2+z
-x+y,-x,z
y,-x+y,1/2+z
x-y,-y,1/2-z
-x,-x+y,1/2-z
y,x,1/2-z
-y,-x,-z
-x+y,y,-z
x,x-y,-z
-x,-y,-z
-x+y,-x,1/2-z
y,-x+y,-z
x,y,1/2-z
x-y,x,-z
-y,x-y,1/2-z
-x+y,y,1/2+z
x,x-y,1/2+z
-y,-x,1/2+z
y,x,z
x-y,-y,z
-x,-x+y,z
loop_
_atom_site_type_symbol
_atom_site_label
_atom_site_fract_x
_atom_site_fract_y
_atom_site_fract_z
Si Si1 0.278498 0.078927 0.076123
Si Si2 0.540764 0.332301 0.075470
Si Si3 0.077945 0.400171 0.579114
O O1 0.283402 0.092013 0.250000
O O2 0.224349 0.000000 0.033922
O O3 0.251468 0.125734 0.000000
O O4 0.354586 0.099763 0.019458
O O5 0.553641 0.328951 0.250000
O O6 0.480527 0.350678 0.045122
O O7 0.610295 0.389706 0.000000
O O8 0.518133 0.259067 0.000000
O O9 0.083634 0.382684 0.750000
O O10 0.000000 0.382785 0.540443
#
# Coordination Sequence:
#
# PCOD8330033 Si02
#       3
#    24  24  24
#     4  10  20  33  52  79 108 139 175 214 258 308
#     4  11  23  38  56  77 104 138 177 218 260 308
#     4   9  19  36  57  81 108 137 169 210 262 315
#
# _framework density 18.544374000000001
#
# number of rings (size 3 to 8) (size 9 to 14) (size 15 to 20)
#    0.000    2.000    0.000    3.333    0.000    8.000 
#    0.000    0.000    0.000    0.333    0.000    0.000 
#    0.000    0.000    0.000    0.000    0.000    0.000 
#
# Total GULP energy -893078.178055 kJ/mol
# GULP energy per Si atom -12403.863584 kJ/mol
# Density = 1.850217 g / cm^3
# Si number density = 18.544374 Si / 1000 Ang^3
#
#
#
# Elastic Constant Matrix: (Units=GPa)
#
#
# Indices 1 2 3 4 5 6 
#
# 1 99.7904 46.3942 46.8841 0.0000 0.0000 0.0000
# 2 46.3942 99.7904 46.8841 0.0000 0.0000 0.0000
# 3 46.8841 46.8841 92.4963 0.0000 0.0000 0.0000
# 4 0.0000 0.0000 0.0000 27.5706 0.0000 0.0000
# 5 0.0000 0.0000 0.0000 0.0000 27.5706 0.0000
# 6 0.0000 0.0000 0.0000 0.0000 0.0000 26.6981
#
#
#
# Elastic Compliance Matrix: (Units=1/GPa)
#
#
# Indices 1 2 3 4 5 6 
#
# 1 0.014432 -0.004296 -0.005138 0.000000 0.000000 0.000000
# 2 -0.004296 0.014432 -0.005138 0.000000 0.000000 0.000000
# 3 -0.005138 -0.005138 0.016020 0.000000 0.000000 0.000000
# 4 0.000000 0.000000 0.000000 0.036271 0.000000 0.000000
# 5 0.000000 0.000000 0.000000 0.000000 0.036271 0.000000
# 6 0.000000 0.000000 0.000000 0.000000 0.000000 0.037456
#
#
# Mechanical properties :
#
#
# Convention : Reuss Voigt Hill
#
# Bulk Modulus (GPa) = 63.52860 63.60022 63.56441
# Shear Modulus (GPa) = 26.41718 26.49550 26.45634
#
# Velocity S-wave (km/s) = 3.77840 3.78400 3.78120
# Velocity P-wave (km/s) = 7.30528 7.31179 7.30853
#
# Compressibility (1/GPa) = 0.01574094
#
# Stress axis : x y z
#
# Youngs Moduli (GPa) = 69.29007 69.29007 62.42302
#
# Poissons Ratio (x) = 0.29766 0.32072
# Poissons Ratio (y) = 0.29766 0.32072
# Poissons Ratio (z) = 0.35600 0.35600
#
# Static dielectric constant tensor:
#      x y z
#    x 3.425340 0.000000 0.000000 
#    y 0.000000 3.425340 0.000000 
#    z 0.000000 0.000000 3.543050 
# 
# 
# High freq. dielectric constant tensor:
#      x y z
#    x 1.716530 0.000000 0.000000 
#    y 0.000000 1.716530 0.000000 
#    z 0.000000 0.000000 1.731270 
# 
# From -- ./inp_files/633.got.cif
#   From: 2010.03.12/outbox.cif.g09.slc.cpg/sg193_1_cif.got.tgz:633.got - 2010.04.01 12:20:39.
