data_PCOD8330873
_publ_section_title
;
Structure prediction by ZEFSAII (Michael W. Deem and Ramdas Pophale) SiO2 
 PCOD8330873
Probable space group: F 2 3
;
_chemical_formula_sum "Si O2"
_cell_formula_units_Z 164
_cell_length_a 21.532794
_cell_length_b 21.532794
_cell_length_c 21.532794
_cell_angle_alpha 90.000000
_cell_angle_beta 90.000000
_cell_angle_gamma 90.000000
_cell_volume 9983.921481
_symmetry_space_group_name_H-M "F 2 3"
_symmetry_group_IT_number 196
_symmetry_cell_setting 'cubic'
loop_
_space_group_symop_operation_xyz
x,y,z
z,x,y
y,z,x
-y,-z,x
z,-x,-y
-y,z,-x
-z,-x,y
-z,x,-y
y,-z,-x
-x,-y,z
x,-y,-z
-x,y,-z
x,1/2+y,1/2+z
z,1/2+x,1/2+y
y,1/2+z,1/2+x
-y,1/2-z,1/2+x
z,1/2-x,1/2-y
-y,1/2+z,1/2-x
-z,1/2-x,1/2+y
-z,1/2+x,1/2-y
y,1/2-z,1/2-x
-x,1/2-y,1/2+z
x,1/2-y,1/2-z
-x,1/2+y,1/2-z
1/2+x,y,1/2+z
1/2+z,x,1/2+y
1/2+y,z,1/2+x
1/2-y,-z,1/2+x
1/2+z,-x,1/2-y
1/2-y,z,1/2-x
1/2-z,-x,1/2+y
1/2-z,x,1/2-y
1/2+y,-z,1/2-x
1/2-x,-y,1/2+z
1/2+x,-y,1/2-z
1/2-x,y,1/2-z
1/2+x,1/2+y,z
1/2+z,1/2+x,y
1/2+y,1/2+z,x
1/2-y,1/2-z,x
1/2+z,1/2-x,-y
1/2-y,1/2+z,-x
1/2-z,1/2-x,y
1/2-z,1/2+x,-y
1/2+y,1/2-z,-x
1/2-x,1/2-y,z
1/2+x,1/2-y,-z
1/2-x,1/2+y,-z
loop_
_atom_site_type_symbol
_atom_site_label
_atom_site_fract_x
_atom_site_fract_y
_atom_site_fract_z
Si Si1 0.794120 0.500273 0.897642
Si Si2 0.250000 0.250000 0.750000
Si Si3 0.835711 0.664291 0.664291
Si Si4 0.498048 0.294909 0.397176
Si Si5 0.801473 0.970042 0.799378
O O1 0.854761 0.507324 0.855294
O O2 0.801740 0.437622 0.936443
O O3 0.730826 0.494748 0.857177
O O4 0.788890 0.560337 0.941135
O O5 0.292831 0.292831 0.792831
O O6 0.818007 0.666895 0.593252
O O7 0.488452 0.233311 0.354840
O O8 0.750000 0.951486 0.750000
#
# Coordination Sequence:
#
# PCOD8330873 Si02
#       5
#    48   4  16  48  48
#     4  10  20  34  52  74 100 131 166 205 249 296
#     4  12  24  24  48  84 120 144 156 192 270 312
#     4  12  18  30  45  78 111 138 162 195 243 309
#     4  10  20  34  52  74 100 131 166 205 249 296
#     4  10  20  32  50  73 103 132 163 201 247 300
#
# _framework density 16.426410000000001
#
# number of rings (size 3 to 8) (size 9 to 14) (size 15 to 20)
#    0.000    1.756    4.390    1.171    0.000    0.000 
#    1.756    0.000    0.000    4.683    0.000    0.000 
#    0.000    0.000    0.000    0.000    0.000    0.000 
#
# Total GULP energy -508292.970909 kJ/mol
# GULP energy per Si atom -12397.389534 kJ/mol
# Density = 1.638902 g / cm^3
# Si number density = 16.426410 Si / 1000 Ang^3
#
#
#
# Elastic Constant Matrix: (Units=GPa)
#
#
# Indices 1 2 3 4 5 6 
#
# 1 83.8279 35.3808 35.3810 0.0000 0.0000 0.0000
# 2 35.3808 83.8274 35.3811 0.0000 0.0000 0.0000
# 3 35.3810 35.3811 83.8268 0.0000 0.0000 0.0000
# 4 0.0000 0.0000 0.0000 21.9440 0.0000 0.0000
# 5 0.0000 0.0000 0.0000 0.0000 21.9408 0.0000
# 6 0.0000 0.0000 0.0000 0.0000 0.0000 21.9415
#
#
#
# Elastic Compliance Matrix: (Units=1/GPa)
#
#
# Indices 1 2 3 4 5 6 
#
# 1 0.015917 -0.004724 -0.004724 0.000000 0.000000 0.000000
# 2 -0.004724 0.015917 -0.004724 0.000000 0.000000 0.000000
# 3 -0.004724 -0.004724 0.015917 0.000000 0.000000 0.000000
# 4 0.000000 0.000000 0.000000 0.045570 0.000000 0.000000
# 5 0.000000 0.000000 0.000000 0.000000 0.045577 0.000000
# 6 0.000000 0.000000 0.000000 0.000000 0.000000 0.045576
#
#
# Mechanical properties :
#
#
# Convention : Reuss Voigt Hill
#
# Bulk Modulus (GPa) = 51.52975 51.52975 51.52975
# Shear Modulus (GPa) = 22.80097 22.85454 22.82776
#
# Velocity S-wave (km/s) = 3.72972 3.73410 3.73191
# Velocity P-wave (km/s) = 7.07007 7.07315 7.07161
#
# Compressibility (1/GPa) = 0.01940626
#
# Stress axis : x y z
#
# Youngs Moduli (GPa) = 62.82583 62.82527 62.82462
#
# Poissons Ratio (x) = 0.29679 0.29680
# Poissons Ratio (y) = 0.29680 0.29680
# Poissons Ratio (z) = 0.29680 0.29681
#
# Static dielectric constant tensor:
#      x y z
#    x 3.120680 0.000000 0.000000 
#    y 0.000000 3.120690 0.000000 
#    z 0.000000 0.000000 3.120720 
# 
# 
# High freq. dielectric constant tensor:
#      x y z
#    x 1.631590 0.000000 0.000000 
#    y 0.000000 1.631600 0.000000 
#    z 0.000000 0.000000 1.631600 
# 
# From -- ./inp_files/448.got.cif
#   From: 2010.03.12/outbox.cif.g09.slc.cpg/sg196_cif.got.tgz:448.got - 2010.04.01 12:33:27.
