data_PCOD8330648
_publ_section_title
;
Structure prediction by ZEFSAII (Michael W. Deem and Ramdas Pophale) SiO2 
 PCOD8330648
Probable space group: P 63/M M C
;
_chemical_formula_sum "Si O2"
_cell_formula_units_Z 160
_cell_length_a 21.360904
_cell_length_b 21.360904
_cell_length_c 21.905542
_cell_angle_alpha 90.000000
_cell_angle_beta 90.000000
_cell_angle_gamma 120.000000
_cell_volume 8656.132416
_symmetry_space_group_name_H-M "P 63/M M C"
_symmetry_group_IT_number 194
_symmetry_cell_setting 'hexagonal'
loop_
_space_group_symop_operation_xyz
x,y,z
x-y,x,1/2+z
-y,x-y,z
-x,-y,1/2+z
-x+y,-x,z
y,-x+y,1/2+z
x-y,-y,-z
-x,-x+y,-z
y,x,-z
-y,-x,1/2-z
-x+y,y,1/2-z
x,x-y,1/2-z
-x,-y,-z
-x+y,-x,1/2-z
y,-x+y,-z
x,y,1/2-z
x-y,x,-z
-y,x-y,1/2-z
-x+y,y,z
x,x-y,z
-y,-x,z
y,x,1/2+z
x-y,-y,1/2+z
-x,-x+y,1/2+z
loop_
_atom_site_type_symbol
_atom_site_label
_atom_site_fract_x
_atom_site_fract_y
_atom_site_fract_z
Si Si1 0.066159 0.271473 0.962184
Si Si2 0.980715 0.319591 0.625552
Si Si3 0.138199 0.413387 0.035117
Si Si4 0.813263 0.334164 0.429498
Si Si5 0.772925 0.955614 0.179408
Si Si6 0.918202 0.081799 0.176983
Si Si7 0.612965 0.529499 0.180624
Si Si8 0.000000 0.000000 0.178052
O O1 0.124116 0.248231 0.936695
O O2 0.038444 0.308001 0.912800
O O3 0.108495 0.333173 0.011456
O O4 0.000000 0.205957 0.000000
O O5 0.917536 0.323695 0.587993
O O6 0.943772 0.250459 0.670332
O O7 0.018254 0.391738 0.665073
O O8 0.220867 0.441733 0.058394
O O9 0.137901 0.466079 0.982624
O O10 0.805093 0.402547 0.444991
O O11 0.735310 0.264691 0.426919
O O12 0.849503 0.340466 0.363907
O O13 0.790335 0.957030 0.250000
O O14 0.777140 0.888570 0.149069
O O15 0.835644 0.033174 0.150687
O O16 0.913794 0.086207 0.250000
O O17 0.959306 0.040695 0.154384
O O18 0.638199 0.528759 0.250000
O O19 0.527907 0.472094 0.172522
O O20 0.000000 0.000000 0.250000
#
# Coordination Sequence:
#
# PCOD8330648 Si02
#       8
#    24  24  24  24  24  12  24   4
#     4   9  18  32  50  71  97 130 168 210 258 305
#     4  11  20  32  54  77 103 137 176 222 262 315
#     4   9  18  34  53  78 106 134 169 213 266 318
#     4  10  20  36  58  82 108 135 169 210 256 312
#     4  10  20  32  47  70 100 135 178 226 274 321
#     4   9  16  28  44  64  94 135 181 229 278 325
#     4  10  22  38  54  76 109 145 177 212 256 311
#     4   9  12  24  48  60  84 135 181 227 283 327
#
# _framework density 18.484005
#
# number of rings (size 3 to 8) (size 9 to 14) (size 15 to 20)
#    0.000    2.250    2.250    1.050    1.050    1.500 
#    0.000    1.500    0.000    1.050    0.000    0.000 
#    0.000    0.000    0.000    0.000    0.000    7.950 
#
# Total GULP energy -1982619.122748 kJ/mol
# GULP energy per Si atom -12391.369517 kJ/mol
# Density = 1.844193 g / cm^3
# Si number density = 18.484005 Si / 1000 Ang^3
#
#
#
# Elastic Constant Matrix: (Units=GPa)
#
#
# Indices 1 2 3 4 5 6 
#
# 1 102.0985 57.9370 43.6756 0.0000 0.0000 0.0000
# 2 57.9370 102.0985 43.6756 0.0000 0.0000 0.0000
# 3 43.6756 43.6756 55.2761 0.0000 0.0000 0.0000
# 4 0.0000 0.0000 0.0000 21.9706 0.0000 0.0000
# 5 0.0000 0.0000 0.0000 0.0000 21.9706 0.0000
# 6 0.0000 0.0000 0.0000 0.0000 0.0000 22.0808
#
#
#
# Elastic Compliance Matrix: (Units=1/GPa)
#
#
# Indices 1 2 3 4 5 6 
#
# 1 0.016816 -0.005829 -0.008681 0.000000 0.000000 0.000000
# 2 -0.005829 0.016816 -0.008681 0.000000 0.000000 0.000000
# 3 -0.008681 -0.008681 0.031810 0.000000 0.000000 0.000000
# 4 0.000000 0.000000 0.000000 0.045515 0.000000 0.000000
# 5 0.000000 0.000000 0.000000 0.000000 0.045515 0.000000
# 6 0.000000 0.000000 0.000000 0.000000 0.000000 0.045288
#
#
# Mechanical properties :
#
#
# Convention : Reuss Voigt Hill
#
# Bulk Modulus (GPa) = 52.46916 61.11660 56.79288
# Shear Modulus (GPa) = 19.64676 20.81672 20.23174
#
# Velocity S-wave (km/s) = 3.26376 3.35953 3.31199
# Velocity P-wave (km/s) = 6.53075 6.94154 6.73928
#
# Compressibility (1/GPa) = 0.01905881
#
# Stress axis : x y z
#
# Youngs Moduli (GPa) = 59.46864 59.46864 31.43699
#
# Poissons Ratio (x) = 0.34662 0.27291
# Poissons Ratio (y) = 0.34662 0.27291
# Poissons Ratio (z) = 0.51626 0.51626
#
# Static dielectric constant tensor:
#      x y z
#    x 3.545960 0.000000 0.000000 
#    y 0.000000 3.545960 0.000000 
#    z 0.000000 0.000000 3.358000 
# 
# 
# High freq. dielectric constant tensor:
#      x y z
#    x 1.711390 0.000000 0.000000 
#    y 0.000000 1.711390 0.000000 
#    z 0.000000 0.000000 1.703330 
# 
# From -- ./inp_files/9885.got.cif
#   From: 2010.03.12/outbox.cif.g09.slc.cpg/sg194_5_cif.got.tgz:9885.got - 2010.04.01 12:26:19.
