data_PCOD8330808
_publ_section_title
;
Structure prediction by ZEFSAII (Michael W. Deem and Ramdas Pophale) SiO2 
 PCOD8330808
Probable space group: P 63/M M C
;
_chemical_formula_sum "Si O2"
_cell_formula_units_Z 168
_cell_length_a 17.608403
_cell_length_b 17.608403
_cell_length_c 31.965697
_cell_angle_alpha 90.000000
_cell_angle_beta 90.000000
_cell_angle_gamma 120.000000
_cell_volume 8583.309025
_symmetry_space_group_name_H-M "P 63/M M C"
_symmetry_group_IT_number 194
_symmetry_cell_setting 'hexagonal'
loop_
_space_group_symop_operation_xyz
x,y,z
x-y,x,1/2+z
-y,x-y,z
-x,-y,1/2+z
-x+y,-x,z
y,-x+y,1/2+z
x-y,-y,-z
-x,-x+y,-z
y,x,-z
-y,-x,1/2-z
-x+y,y,1/2-z
x,x-y,1/2-z
-x,-y,-z
-x+y,-x,1/2-z
y,-x+y,-z
x,y,1/2-z
x-y,x,-z
-y,x-y,1/2-z
-x+y,y,z
x,x-y,z
-y,-x,z
y,x,1/2+z
x-y,-y,1/2+z
-x,-x+y,1/2+z
loop_
_atom_site_type_symbol
_atom_site_label
_atom_site_fract_x
_atom_site_fract_y
_atom_site_fract_z
Si Si1 0.000814 0.166212 0.057359
Si Si2 0.170605 0.000055 0.655897
Si Si3 0.843103 0.333587 0.514050
Si Si4 0.336619 0.984265 0.644826
Si Si5 0.666938 0.159993 0.298650
Si Si6 0.155301 0.488720 0.109218
Si Si7 0.731148 0.088691 0.443790
O O1 0.925945 0.074056 0.038623
O O2 0.000696 0.158362 0.106766
O O3 0.985917 0.245325 0.043653
O O4 0.094385 0.188769 0.038426
O O5 0.085298 0.914703 0.675275
O O6 0.178884 0.089442 0.675197
O O7 0.257276 0.993946 0.664322
O O8 0.842303 0.421152 0.503888
O O9 0.745378 0.254623 0.507446
O O10 0.875071 0.332771 0.561315
O O11 0.909084 0.329130 0.480763
O O12 0.420860 0.080723 0.640189
O O13 0.358186 0.928993 0.677240
O O14 0.317501 0.934537 0.600574
O O15 0.671707 0.141848 0.250000
O O16 0.592986 0.185972 0.307372
O O17 0.759673 0.240327 0.314372
O O18 0.244824 0.489647 0.119503
O O19 0.171865 0.585933 0.116447
O O20 0.819580 0.180421 0.437788
#
# Coordination Sequence:
#
# PCOD8330808 Si02
#       7
#    24  24  24  24  24  24  24
#     4   8  13  22  39  63  91 126 168 212 255 302
#     4   9  16  27  46  73 106 142 178 214 254 305
#     4   9  18  33  52  73  99 135 177 218 262 317
#     4  11  20  33  54  83 111 138 175 226 280 326
#     4  10  21  38  60  85 114 148 184 221 264 319
#     4  10  21  37  57  79 104 137 179 225 272 325
#     4   9  18  31  47  71 105 139 171 216 272 321
#
# _framework density 19.572872
#
# number of rings (size 3 to 8) (size 9 to 14) (size 15 to 20)
#    0.000    2.571    0.000    3.714    0.000    5.143 
#    0.000    1.429    0.000    6.000    0.000    0.000 
#    0.000    4.571    0.000   70.000    0.000    0.000 
#
# Total GULP energy -2082938.078352 kJ/mol
# GULP energy per Si atom -12398.440943 kJ/mol
# Density = 1.952832 g / cm^3
# Si number density = 19.572872 Si / 1000 Ang^3
#
#
#
# Elastic Constant Matrix: (Units=GPa)
#
#
# Indices 1 2 3 4 5 6 
#
# 1 136.6987 38.5127 42.9854 0.0000 0.0000 0.0000
# 2 38.5127 136.6987 42.9854 0.0000 0.0000 0.0000
# 3 42.9854 42.9854 46.0340 0.0000 0.0000 0.0000
# 4 0.0000 0.0000 0.0000 -44.5819 0.0000 0.0000
# 5 0.0000 0.0000 0.0000 0.0000 -44.5819 0.0000
# 6 0.0000 0.0000 0.0000 0.0000 0.0000 49.0930
#
#
#
# Elastic Compliance Matrix: (Units=1/GPa)
#
#
# Indices 1 2 3 4 5 6 
#
# 1 0.010359 0.000174 -0.009836 0.000000 0.000000 0.000000
# 2 0.000174 0.010359 -0.009836 0.000000 0.000000 0.000000
# 3 -0.009836 -0.009836 0.040092 0.000000 0.000000 0.000000
# 4 0.000000 0.000000 0.000000 -0.022431 0.000000 0.000000
# 5 0.000000 0.000000 0.000000 0.000000 -0.022431 0.000000
# 6 0.000000 0.000000 0.000000 0.000000 0.000000 0.020370
#
#
# Mechanical properties :
#
#
# Convention : Reuss Voigt Hill
#
# Bulk Modulus (GPa) = 45.83907 63.15538 54.49723
# Shear Modulus (GPa) = 60.54298 4.98236 32.76267
#
# Velocity S-wave (km/s) = 5.56770 1.59721 4.09575
# Velocity P-wave (km/s) = 8.05002 5.97815 7.09017
#
# Compressibility (1/GPa) = 0.02181545
#
# Stress axis : x y z
#
# Youngs Moduli (GPa) = 96.53265 96.53265 24.94245
#
# Poissons Ratio (x) = -0.01684 0.24533
# Poissons Ratio (y) = -0.01684 0.24533
# Poissons Ratio (z) = 0.94950 0.94950
#
# Static dielectric constant tensor:
#      x y z
#    x 3.798470 0.000000 0.000000 
#    y 0.000000 3.798470 0.000000 
#    z 0.000000 0.000000 3.157680 
# 
# 
# High freq. dielectric constant tensor:
#      x y z
#    x 1.771440 0.000000 0.000000 
#    y 0.000000 1.771440 0.000000 
#    z 0.000000 0.000000 1.717990 
# 
# From -- ./inp_files/12277.got.cif
#   From: 2010.03.12/outbox.cif.g09.slc.cpg/sg194_7_cif.got.tgz:12277.got - 2010.04.01 12:26:19.
