data_PCOD8330376
_publ_section_title
;
Structure prediction by ZEFSAII (Michael W. Deem and Ramdas Pophale) SiO2 
 PCOD8330376
Probable space group: P 63/M M C
;
_chemical_formula_sum "Si O2"
_cell_formula_units_Z 168
_cell_length_a 37.658114
_cell_length_b 37.658114
_cell_length_c 9.664138
_cell_angle_alpha 90.000000
_cell_angle_beta 90.000000
_cell_angle_gamma 120.000000
_cell_volume 11868.911354
_symmetry_space_group_name_H-M "P 63/M M C"
_symmetry_group_IT_number 194
_symmetry_cell_setting 'hexagonal'
loop_
_space_group_symop_operation_xyz
x,y,z
x-y,x,1/2+z
-y,x-y,z
-x,-y,1/2+z
-x+y,-x,z
y,-x+y,1/2+z
x-y,-y,-z
-x,-x+y,-z
y,x,-z
-y,-x,1/2-z
-x+y,y,1/2-z
x,x-y,1/2-z
-x,-y,-z
-x+y,-x,1/2-z
y,-x+y,-z
x,y,1/2-z
x-y,x,-z
-y,x-y,1/2-z
-x+y,y,z
x,x-y,z
-y,-x,z
y,x,1/2+z
x-y,-y,1/2+z
-x,-x+y,1/2+z
loop_
_atom_site_type_symbol
_atom_site_label
_atom_site_fract_x
_atom_site_fract_y
_atom_site_fract_z
Si Si1 0.384295 0.037561 0.091835
Si Si2 0.877382 0.340566 0.087383
Si Si3 0.736351 0.698244 0.410162
Si Si4 0.171620 0.421119 0.913559
Si Si5 0.539850 0.162926 0.590838
Si Si6 0.666801 0.412284 0.585424
Si Si7 0.203384 0.873908 0.914249
O O1 0.384118 0.025070 0.250000
O O2 0.426807 0.077317 0.052311
O O3 0.347567 0.046740 0.063807
O O4 0.379402 0.000000 0.000000
O O5 0.872107 0.345186 0.250000
O O6 0.844682 0.295171 0.030221
O O7 0.869618 0.372781 0.004307
O O8 0.731221 0.731221 0.500000
O O9 0.739129 0.710832 0.250000
O O10 0.777808 0.698896 0.462244
O O11 0.165519 0.417873 0.750000
O O12 0.219498 0.438996 0.953540
O O13 0.144773 0.375317 0.975844
O O14 0.525467 0.156649 0.750000
O O15 0.577448 0.154896 0.572345
O O16 0.553062 0.208999 0.539414
O O17 0.666347 0.410437 0.750000
O O18 0.711181 0.422361 0.526519
O O19 0.632039 0.367962 0.528528
O O20 0.206675 0.873819 0.750000
O O21 0.155641 0.844360 0.960507
#
# Coordination Sequence:
#
# PCOD8330376 Si02
#       7
#    24  24  24  24  24  24  24
#     4   9  17  28  42  62  84 102 123 155 191 228
#     4  10  18  29  46  65  82 101 129 159 185 218
#     4   9  15  24  38  57  80 104 133 167 201 233
#     4   8  13  22  37  58  83 107 129 153 181 214
#     4   9  19  33  45  60  83 107 127 149 182 223
#     4   8  13  23  41  63  84 106 133 161 184 208
#     4   8  12  20  36  55  76 105 138 166 191 225
#
# _framework density 14.154626
#
# number of rings (size 3 to 8) (size 9 to 14) (size 15 to 20)
#    0.000    3.286    1.429    1.857    0.000    2.000 
#    0.000    0.000    0.000    0.857    0.000    2.000 
#    0.000    1.143    0.000    0.000    0.000    0.000 
#
# Total GULP energy -2081789.551222 kJ/mol
# GULP energy per Si atom -12391.604472 kJ/mol
# Density = 1.412241 g / cm^3
# Si number density = 14.154626 Si / 1000 Ang^3
#
#
#
# Elastic Constant Matrix: (Units=GPa)
#
#
# Indices 1 2 3 4 5 6 
#
# 1 84.5766 47.1233 34.6981 0.0000 0.0000 0.0000
# 2 47.1233 84.5766 34.6981 0.0000 0.0000 0.0000
# 3 34.6981 34.6981 34.5571 0.0000 0.0000 0.0000
# 4 0.0000 0.0000 0.0000 15.2368 0.0000 0.0000
# 5 0.0000 0.0000 0.0000 0.0000 15.2368 0.0000
# 6 0.0000 0.0000 0.0000 0.0000 0.0000 18.7267
#
#
#
# Elastic Compliance Matrix: (Units=1/GPa)
#
#
# Indices 1 2 3 4 5 6 
#
# 1 0.021412 -0.005288 -0.016189 0.000000 0.000000 0.000000
# 2 -0.005288 0.021412 -0.016189 0.000000 0.000000 0.000000
# 3 -0.016189 -0.016189 0.061449 0.000000 0.000000 0.000000
# 4 0.000000 0.000000 0.000000 0.065631 0.000000 0.000000
# 5 0.000000 0.000000 0.000000 0.000000 0.065631 0.000000
# 6 0.000000 0.000000 0.000000 0.000000 0.000000 0.053400
#
#
# Mechanical properties :
#
#
# Convention : Reuss Voigt Hill
#
# Bulk Modulus (GPa) = 34.55649 48.52771 41.54210
# Shear Modulus (GPa) = 13.37207 15.65277 14.51242
#
# Velocity S-wave (km/s) = 3.07695 3.32903 3.20547
# Velocity P-wave (km/s) = 6.09016 7.00963 6.56601
#
# Compressibility (1/GPa) = 0.02893812
#
# Stress axis : x y z
#
# Youngs Moduli (GPa) = 46.70325 46.70325 16.27375
#
# Poissons Ratio (x) = 0.24697 0.26346
# Poissons Ratio (y) = 0.24697 0.26346
# Poissons Ratio (z) = 0.75610 0.75610
#
# Static dielectric constant tensor:
#      x y z
#    x 2.788200 0.000000 0.000000 
#    y 0.000000 2.788200 0.000000 
#    z 0.000000 0.000000 2.438290 
# 
# 
# High freq. dielectric constant tensor:
#      x y z
#    x 1.523640 0.000000 0.000000 
#    y 0.000000 1.523640 0.000000 
#    z 0.000000 0.000000 1.504210 
# 
# From -- ./inp_files/3647.got.cif
#   From: 2010.03.12/outbox.cif.g09.slc.cpg/sg194_2_cif.got.tgz:3647.got - 2010.04.01 12:26:19.
