data_PCOD8330012
_publ_section_title
;
Structure prediction by ZEFSAII (Michael W. Deem and Ramdas Pophale) SiO2 
 PCOD8330012
Probable space group: P 63/M C M
;
_chemical_formula_sum "Si O2"
_cell_formula_units_Z 168
_cell_length_a 25.436269
_cell_length_b 25.436269
_cell_length_c 19.082379
_cell_angle_alpha 90.000000
_cell_angle_beta 90.000000
_cell_angle_gamma 120.000000
_cell_volume 10692.271239
_symmetry_space_group_name_H-M "P 63/M C M"
_symmetry_group_IT_number 193
_symmetry_cell_setting 'hexagonal'
loop_
_space_group_symop_operation_xyz
x,y,z
x-y,x,1/2+z
-y,x-y,z
-x,-y,1/2+z
-x+y,-x,z
y,-x+y,1/2+z
x-y,-y,1/2-z
-x,-x+y,1/2-z
y,x,1/2-z
-y,-x,-z
-x+y,y,-z
x,x-y,-z
-x,-y,-z
-x+y,-x,1/2-z
y,-x+y,-z
x,y,1/2-z
x-y,x,-z
-y,x-y,1/2-z
-x+y,y,1/2+z
x,x-y,1/2+z
-y,-x,1/2+z
y,x,z
x-y,-y,z
-x,-x+y,z
loop_
_atom_site_type_symbol
_atom_site_label
_atom_site_fract_x
_atom_site_fract_y
_atom_site_fract_z
Si Si1 0.633997 0.072137 0.587400
Si Si2 0.232535 0.355463 0.907844
Si Si3 0.231304 0.070924 0.328188
Si Si4 0.930437 0.145452 0.566562
Si Si5 0.348080 0.235538 0.430824
Si Si6 0.469018 0.927859 0.170849
Si Si7 0.560901 0.928816 0.072425
O O1 0.701736 0.107764 0.621003
O O2 0.595175 0.092386 0.634472
O O3 0.634756 0.094117 0.507299
O O4 0.608262 0.000000 0.590440
O O5 0.208002 0.294057 0.864483
O O6 0.183093 0.377762 0.907936
O O7 0.243875 0.343305 0.986886
O O8 0.245563 0.097856 0.250000
O O9 0.194830 0.098390 0.369290
O O10 0.187593 0.000000 0.327323
O O11 0.886866 0.113135 0.500000
O O12 0.925383 0.203345 0.592966
O O13 0.000000 0.164553 0.550629
O O14 0.390285 0.301614 0.397503
O O15 0.458632 0.901661 0.250000
O O16 0.503184 0.900405 0.124644
O O17 0.508471 0.000000 0.172858
O O18 0.589529 0.000000 0.073243
#
# Coordination Sequence:
#
# PCOD8330012 Si02
#       7
#    24  24  24  24  24  24  24
#     4   9  16  25  42  64  89 119 151 184 220 264
#     4   9  16  28  45  68  94 119 149 187 230 278
#     4  10  20  33  48  67  93 122 152 190 242 299
#     4  11  20  32  52  72  92 118 154 197 239 286
#     4   9  16  29  46  69  93 118 150 188 229 275
#     4   9  17  28  40  58  86 118 151 184 215 252
#     4   9  16  26  42  62  87 120 154 182 216 265
#
# _framework density 15.712284
#
# number of rings (size 3 to 8) (size 9 to 14) (size 15 to 20)
#    0.000    2.571    2.857    1.714    0.000    3.714 
#    0.000    4.286    0.000    6.000    0.000    0.000 
#    1.429    0.000    2.571    0.000    0.857    0.000 
#
# Total GULP energy -2082078.121824 kJ/mol
# GULP energy per Si atom -12393.322154 kJ/mol
# Density = 1.567652 g / cm^3
# Si number density = 15.712284 Si / 1000 Ang^3
#
#
#
# Elastic Constant Matrix: (Units=GPa)
#
#
# Indices 1 2 3 4 5 6 
#
# 1 74.1898 23.9764 37.1110 0.0000 0.0000 0.0000
# 2 23.9764 74.1898 37.1110 0.0000 0.0000 0.0000
# 3 37.1110 37.1110 72.7485 0.0000 0.0000 0.0000
# 4 0.0000 0.0000 0.0000 14.3818 0.0000 0.0000
# 5 0.0000 0.0000 0.0000 0.0000 14.3818 0.0000
# 6 0.0000 0.0000 0.0000 0.0000 0.0000 25.1067
#
#
#
# Elastic Compliance Matrix: (Units=1/GPa)
#
#
# Indices 1 2 3 4 5 6 
#
# 1 0.018249 -0.001666 -0.008459 0.000000 0.000000 0.000000
# 2 -0.001666 0.018249 -0.008459 0.000000 0.000000 0.000000
# 3 -0.008459 -0.008459 0.022377 0.000000 0.000000 0.000000
# 4 0.000000 0.000000 0.000000 0.069532 0.000000 0.000000
# 5 0.000000 0.000000 0.000000 0.000000 0.069532 0.000000
# 6 0.000000 0.000000 0.000000 0.000000 0.000000 0.039830
#
#
# Mechanical properties :
#
#
# Convention : Reuss Voigt Hill
#
# Bulk Modulus (GPa) = 46.07258 46.39169 46.23213
# Shear Modulus (GPa) = 17.71959 18.96938 18.34449
#
# Velocity S-wave (km/s) = 3.36185 3.47839 3.42061
# Velocity P-wave (km/s) = 6.66751 6.76181 6.71482
#
# Compressibility (1/GPa) = 0.02170489
#
# Stress axis : x y z
#
# Youngs Moduli (GPa) = 54.79787 54.79787 44.68941
#
# Poissons Ratio (x) = 0.09130 0.37804
# Poissons Ratio (y) = 0.09130 0.37804
# Poissons Ratio (z) = 0.46355 0.46355
#
# Static dielectric constant tensor:
#      x y z
#    x 2.987600 0.000000 0.000000 
#    y 0.000000 2.987600 0.000000 
#    z 0.000000 0.000000 3.120980 
# 
# 
# High freq. dielectric constant tensor:
#      x y z
#    x 1.582210 0.000000 0.000000 
#    y 0.000000 1.582210 0.000000 
#    z 0.000000 0.000000 1.596270 
# 
# From -- ./inp_files/6824.got.cif
#   From: 2010.03.12/outbox.cif.g09.slc.cpg/sg193_4_cif.got.tgz:6824.got - 2010.04.01 12:20:39.
