data_PCOD8330729
_publ_section_title
;
Structure prediction by ZEFSAII (Michael W. Deem and Ramdas Pophale) SiO2 
 PCOD8330729
Probable space group: P 63/M M C
;
_chemical_formula_sum "Si O2"
_cell_formula_units_Z 144
_cell_length_a 30.177521
_cell_length_b 30.177521
_cell_length_c 9.016156
_cell_angle_alpha 90.000000
_cell_angle_beta 90.000000
_cell_angle_gamma 120.000000
_cell_volume 7110.811575
_symmetry_space_group_name_H-M "P 63/M M C"
_symmetry_group_IT_number 194
_symmetry_cell_setting 'hexagonal'
loop_
_space_group_symop_operation_xyz
x,y,z
x-y,x,1/2+z
-y,x-y,z
-x,-y,1/2+z
-x+y,-x,z
y,-x+y,1/2+z
x-y,-y,-z
-x,-x+y,-z
y,x,-z
-y,-x,1/2-z
-x+y,y,1/2-z
x,x-y,1/2-z
-x,-y,-z
-x+y,-x,1/2-z
y,-x+y,-z
x,y,1/2-z
x-y,x,-z
-y,x-y,1/2-z
-x+y,y,z
x,x-y,z
-y,-x,z
y,x,1/2+z
x-y,-y,1/2+z
-x,-x+y,1/2+z
loop_
_atom_site_type_symbol
_atom_site_label
_atom_site_fract_x
_atom_site_fract_y
_atom_site_fract_z
Si Si1 0.333345 0.563859 0.924347
Si Si2 0.526501 0.954615 0.909924
Si Si3 0.868665 0.517055 0.923830
Si Si4 0.899630 0.201820 0.077458
Si Si5 0.055532 0.691312 0.075189
Si Si6 0.148506 0.196453 0.083277
O O1 0.335016 0.555546 0.750000
O O2 0.286144 0.572287 0.966030
O O3 0.385988 0.614013 0.976864
O O4 0.324212 0.512183 0.005691
O O5 0.546689 0.946874 0.750000
O O6 0.487347 0.974694 0.878549
O O7 0.494781 0.901744 0.000924
O O8 0.574869 0.000000 0.000000
O O9 0.862422 0.507144 0.750000
O O10 0.904433 0.576830 0.965583
O O11 0.911601 0.215749 0.250000
O O12 0.839883 0.160118 0.052478
O O13 0.913802 0.251298 0.982800
O O14 0.934988 0.180592 0.017977
O O15 0.046913 0.690622 0.250000
O O16 0.000000 0.658374 0.000000
O O17 0.171386 0.206593 0.250000
O O18 0.089518 0.179036 0.089358
O O19 0.150857 0.150857 0.000000
#
# Coordination Sequence:
#
# PCOD8330729 Si02
#       6
#    24  24  24  24  24  24
#     4  10  22  42  68  95 122 154 194 243 302 370
#     4  10  20  34  54  80 110 145 184 226 272 322
#     4  11  24  39  57  84 117 153 192 236 288 346
#     4  10  21  37  58  83 111 147 193 244 296 350
#     4  11  24  40  58  82 117 161 206 252 300 355
#     4  10  20  34  54  80 110 144 182 228 282 336
#
# _framework density 20.250854
#
# number of rings (size 3 to 8) (size 9 to 14) (size 15 to 20)
#    0.000    1.667    0.000    4.167    0.000   11.000 
#    0.000    3.333    0.000    1.167    0.000    0.000 
#    0.000    0.000    0.000    0.000    0.000    0.000 
#
# Total GULP energy -1784717.142037 kJ/mol
# GULP energy per Si atom -12393.869042 kJ/mol
# Density = 2.020476 g / cm^3
# Si number density = 20.250854 Si / 1000 Ang^3
#
#
#
# Elastic Constant Matrix: (Units=GPa)
#
#
# Indices 1 2 3 4 5 6 
#
# 1 106.8852 62.6955 60.7186 0.0000 0.0000 0.0000
# 2 62.6955 106.8852 60.7186 0.0000 0.0000 0.0000
# 3 60.7186 60.7186 106.2640 0.0000 0.0000 0.0000
# 4 0.0000 0.0000 0.0000 30.6412 0.0000 0.0000
# 5 0.0000 0.0000 0.0000 0.0000 30.6412 0.0000
# 6 0.0000 0.0000 0.0000 0.0000 0.0000 22.0949
#
#
#
# Elastic Compliance Matrix: (Units=1/GPa)
#
#
# Indices 1 2 3 4 5 6 
#
# 1 0.016305 -0.006324 -0.005703 0.000000 0.000000 0.000000
# 2 -0.006324 0.016305 -0.005703 0.000000 0.000000 0.000000
# 3 -0.005703 -0.005703 0.015928 0.000000 0.000000 0.000000
# 4 0.000000 0.000000 0.000000 0.032636 0.000000 0.000000
# 5 0.000000 0.000000 0.000000 0.000000 0.032636 0.000000
# 6 0.000000 0.000000 0.000000 0.000000 0.000000 0.045259
#
#
# Mechanical properties :
#
#
# Convention : Reuss Voigt Hill
#
# Bulk Modulus (GPa) = 76.46699 76.47777 76.47238
# Shear Modulus (GPa) = 25.13961 25.73557 25.43759
#
# Velocity S-wave (km/s) = 3.52719 3.56875 3.54803
# Velocity P-wave (km/s) = 7.37766 7.40463 7.39116
#
# Compressibility (1/GPa) = 0.01307754
#
# Stress axis : x y z
#
# Youngs Moduli (GPa) = 61.32992 61.32992 62.78321
#
# Poissons Ratio (x) = 0.38788 0.35805
# Poissons Ratio (y) = 0.38788 0.35805
# Poissons Ratio (z) = 0.34976 0.34976
#
# Static dielectric constant tensor:
#      x y z
#    x 3.702860 0.000000 0.000000 
#    y 0.000000 3.702860 0.000000 
#    z 0.000000 0.000000 3.886180 
# 
# 
# High freq. dielectric constant tensor:
#      x y z
#    x 1.787330 0.000000 0.000000 
#    y 0.000000 1.787330 0.000000 
#    z 0.000000 0.000000 1.808030 
# 
# From -- ./inp_files/2159.got.cif
#   From: 2010.03.12/outbox.cif.g09.slc.cpg/sg194_2_cif.got.tgz:2159.got - 2010.04.01 12:26:19.
