data_PCOD8330046
_publ_section_title
;
Structure prediction by ZEFSAII (Michael W. Deem and Ramdas Pophale) SiO2 
 PCOD8330046
Probable space group: P 63/M C M
;
_chemical_formula_sum "Si O2"
_cell_formula_units_Z 144
_cell_length_a 23.188993
_cell_length_b 23.188993
_cell_length_c 17.544434
_cell_angle_alpha 90.000000
_cell_angle_beta 90.000000
_cell_angle_gamma 120.000000
_cell_volume 8170.220408
_symmetry_space_group_name_H-M "P 63/M C M"
_symmetry_group_IT_number 193
_symmetry_cell_setting 'hexagonal'
loop_
_space_group_symop_operation_xyz
x,y,z
x-y,x,1/2+z
-y,x-y,z
-x,-y,1/2+z
-x+y,-x,z
y,-x+y,1/2+z
x-y,-y,1/2-z
-x,-x+y,1/2-z
y,x,1/2-z
-y,-x,-z
-x+y,y,-z
x,x-y,-z
-x,-y,-z
-x+y,-x,1/2-z
y,-x+y,-z
x,y,1/2-z
x-y,x,-z
-y,x-y,1/2-z
-x+y,y,1/2+z
x,x-y,1/2+z
-y,-x,1/2+z
y,x,z
x-y,-y,z
-x,-x+y,z
loop_
_atom_site_type_symbol
_atom_site_label
_atom_site_fract_x
_atom_site_fract_y
_atom_site_fract_z
Si Si1 0.798645 0.721841 0.531938
Si Si2 0.649079 0.925811 0.887319
Si Si3 0.596969 0.410675 0.410487
Si Si4 0.476119 0.400001 0.663593
Si Si5 0.749486 0.259809 0.910034
Si Si6 0.201954 0.835898 0.835980
O O1 0.874187 0.748373 0.500000
O O2 0.783054 0.783054 0.538761
O O3 0.746651 0.666236 0.474473
O O4 0.784887 0.684088 0.612882
O O5 0.572101 0.906826 0.886348
O O6 0.662054 0.877259 0.834172
O O7 0.695212 0.000000 0.854388
O O8 0.588656 0.411345 0.500000
O O9 0.564082 0.449574 0.370268
O O10 0.559202 0.335108 0.383401
O O11 0.673394 0.450334 0.382304
O O12 0.473368 0.376049 0.750000
O O13 0.455667 0.455667 0.657761
O O14 0.795584 0.235702 0.869862
O O15 0.751075 0.248926 0.000000
O O16 0.227138 0.860598 0.750000
#
# Coordination Sequence:
#
# PCOD8330046 Si02
#       6
#    24  24  24  24  24  24
#     4   9  19  35  57  83 114 147 184 222 259 315
#     4   9  17  32  56  80 101 132 174 222 271 319
#     4  10  21  34  55  73  97 133 176 227 271 326
#     4  10  20  34  52  75 102 128 163 218 277 326
#     4  10  20  36  52  73  98 133 183 233 278 328
#     4  11  21  32  52  80 111 143 174 216 277 338
#
# _framework density 17.624983
#
# number of rings (size 3 to 8) (size 9 to 14) (size 15 to 20)
#    0.000    2.167    1.667    2.333    2.333    3.667 
#    0.000    0.833    0.000    2.167    0.000    0.000 
#    0.000    0.000    0.000    0.500    0.000    0.000 
#
# Total GULP energy -1784944.472834 kJ/mol
# GULP energy per Si atom -12395.447728 kJ/mol
# Density = 1.758487 g / cm^3
# Si number density = 17.624983 Si / 1000 Ang^3
#
#
#
# Elastic Constant Matrix: (Units=GPa)
#
#
# Indices 1 2 3 4 5 6 
#
# 1 100.9225 53.6442 43.6580 0.0000 0.0000 0.0000
# 2 53.6442 100.9225 43.6580 0.0000 0.0000 0.0000
# 3 43.6580 43.6580 67.3152 0.0000 0.0000 0.0000
# 4 0.0000 0.0000 0.0000 18.0800 0.0000 0.0000
# 5 0.0000 0.0000 0.0000 0.0000 18.0800 0.0000
# 6 0.0000 0.0000 0.0000 0.0000 0.0000 23.6392
#
#
#
# Elastic Compliance Matrix: (Units=1/GPa)
#
#
# Indices 1 2 3 4 5 6 
#
# 1 0.015681 -0.005470 -0.006622 0.000000 0.000000 0.000000
# 2 -0.005470 0.015681 -0.006622 0.000000 0.000000 0.000000
# 3 -0.006622 -0.006622 0.023445 0.000000 0.000000 0.000000
# 4 0.000000 0.000000 0.000000 0.055310 0.000000 0.000000
# 5 0.000000 0.000000 0.000000 0.000000 0.055310 0.000000
# 6 0.000000 0.000000 0.000000 0.000000 0.000000 0.042303
#
#
# Mechanical properties :
#
#
# Convention : Reuss Voigt Hill
#
# Bulk Modulus (GPa) = 57.54499 61.23118 59.38809
# Shear Modulus (GPa) = 19.92418 20.50652 20.21535
#
# Velocity S-wave (km/s) = 3.36587 3.41470 3.39037
# Velocity P-wave (km/s) = 6.91563 7.09672 7.00676
#
# Compressibility (1/GPa) = 0.01737771
#
# Stress axis : x y z
#
# Youngs Moduli (GPa) = 63.77149 63.77149 42.65241
#
# Poissons Ratio (x) = 0.34885 0.28245
# Poissons Ratio (y) = 0.34885 0.28245
# Poissons Ratio (z) = 0.42231 0.42231
#
# Static dielectric constant tensor:
#      x y z
#    x 3.349570 0.000000 0.000000 
#    y 0.000000 3.349570 0.000000 
#    z 0.000000 0.000000 3.195730 
# 
# 
# High freq. dielectric constant tensor:
#      x y z
#    x 1.673800 0.000000 0.000000 
#    y 0.000000 1.673800 0.000000 
#    z 0.000000 0.000000 1.673960 
# 
# From -- ./inp_files/5533.got.cif
#   From: 2010.03.12/outbox.cif.g09.slc.cpg/sg193_3_cif.got.tgz:5533.got - 2010.04.01 12:20:39.
