data_PCOD8330057
_publ_section_title
;
Structure prediction by ZEFSAII (Michael W. Deem and Ramdas Pophale) SiO2 
 PCOD8330057
Probable space group: P 63/M C M
;
_chemical_formula_sum "Si O2"
_cell_formula_units_Z 144
_cell_length_a 20.077081
_cell_length_b 20.077081
_cell_length_c 22.002528
_cell_angle_alpha 90.000000
_cell_angle_beta 90.000000
_cell_angle_gamma 120.000000
_cell_volume 7680.762853
_symmetry_space_group_name_H-M "P 63/M C M"
_symmetry_group_IT_number 193
_symmetry_cell_setting 'hexagonal'
loop_
_space_group_symop_operation_xyz
x,y,z
x-y,x,1/2+z
-y,x-y,z
-x,-y,1/2+z
-x+y,-x,z
y,-x+y,1/2+z
x-y,-y,1/2-z
-x,-x+y,1/2-z
y,x,1/2-z
-y,-x,-z
-x+y,y,-z
x,x-y,-z
-x,-y,-z
-x+y,-x,1/2-z
y,-x+y,-z
x,y,1/2-z
x-y,x,-z
-y,x-y,1/2-z
-x+y,y,1/2+z
x,x-y,1/2+z
-y,-x,1/2+z
y,x,z
x-y,-y,z
-x,-x+y,z
loop_
_atom_site_type_symbol
_atom_site_label
_atom_site_fract_x
_atom_site_fract_y
_atom_site_fract_z
Si Si1 0.246897 0.338190 0.504654
Si Si2 0.335329 0.188746 0.181730
Si Si3 0.087691 0.691502 0.637130
Si Si4 0.452455 0.543136 0.819356
Si Si5 0.423143 0.335176 0.393124
Si Si6 0.170059 0.085762 0.822669
O O1 0.153817 0.307634 0.500000
O O2 0.270711 0.270711 0.493923
O O3 0.280682 0.379652 0.568138
O O4 0.289300 0.409032 0.456476
O O5 0.316754 0.197695 0.250000
O O6 0.386042 0.147693 0.178242
O O7 0.372482 0.273245 0.156517
O O8 0.254203 0.135140 0.148055
O O9 0.110277 0.626332 0.647372
O O10 0.000000 0.660763 0.659077
O O11 0.438440 0.563010 0.750000
O O12 0.508872 0.508872 0.814484
O O13 0.490729 0.618178 0.864199
O O14 0.396553 0.396553 0.404029
O O15 0.171873 0.089806 0.750000
O O16 0.137450 0.137450 0.850277
O O17 0.116222 0.000000 0.846019
#
# Coordination Sequence:
#
# PCOD8330057 Si02
#       6
#    24  24  24  24  24  24
#     4  10  20  37  59  84 115 153 199 251 300 341
#     4  11  20  30  49  75 106 143 185 234 286 346
#     4  10  20  34  54  79 108 142 184 232 285 343
#     4   9  18  33  53  80 113 141 166 209 276 350
#     4  10  20  34  54  79 108 142 184 232 285 343
#     4   9  17  28  42  63  96 139 185 234 289 348
#
# _framework density 18.748137
#
# number of rings (size 3 to 8) (size 9 to 14) (size 15 to 20)
#    0.000    2.167    1.667    2.167    0.000    4.667 
#    0.000    3.333    0.000    0.833    0.000    2.333 
#    0.000    0.000    0.000    0.000    0.000    0.000 
#
# Total GULP energy -1783937.555431 kJ/mol
# GULP energy per Si atom -12388.455246 kJ/mol
# Density = 1.870547 g / cm^3
# Si number density = 18.748137 Si / 1000 Ang^3
#
#
#
# Elastic Constant Matrix: (Units=GPa)
#
#
# Indices 1 2 3 4 5 6 
#
# 1 59.2301 9.0098 11.2785 0.0000 0.0000 0.0000
# 2 9.0098 59.2301 11.2785 0.0000 0.0000 0.0000
# 3 11.2785 11.2785 59.9143 0.0000 0.0000 0.0000
# 4 0.0000 0.0000 0.0000 20.3332 0.0000 0.0000
# 5 0.0000 0.0000 0.0000 0.0000 20.3332 0.0000
# 6 0.0000 0.0000 0.0000 0.0000 0.0000 25.1101
#
#
#
# Elastic Compliance Matrix: (Units=1/GPa)
#
#
# Indices 1 2 3 4 5 6 
#
# 1 0.017769 -0.002143 -0.002942 0.000000 0.000000 0.000000
# 2 -0.002143 0.017769 -0.002942 0.000000 0.000000 0.000000
# 3 -0.002942 -0.002942 0.017798 0.000000 0.000000 0.000000
# 4 0.000000 0.000000 0.000000 0.049181 0.000000 0.000000
# 5 0.000000 0.000000 0.000000 0.000000 0.049181 0.000000
# 6 0.000000 0.000000 0.000000 0.000000 0.000000 0.039825
#
#
# Mechanical properties :
#
#
# Convention : Reuss Voigt Hill
#
# Bulk Modulus (GPa) = 26.82066 26.83421 26.82743
# Shear Modulus (GPa) = 22.72695 22.94248 22.83472
#
# Velocity S-wave (km/s) = 3.48548 3.50197 3.49373
# Velocity P-wave (km/s) = 5.52584 5.54038 5.53311
#
# Compressibility (1/GPa) = 0.03728469
#
# Stress axis : x y z
#
# Youngs Moduli (GPa) = 56.27650 56.27650 56.18619
#
# Poissons Ratio (x) = 0.12059 0.16528
# Poissons Ratio (y) = 0.12059 0.16528
# Poissons Ratio (z) = 0.16554 0.16554
#
# Static dielectric constant tensor:
#      x y z
#    x 3.492590 0.000000 0.000000 
#    y 0.000000 3.492590 0.000000 
#    z 0.000000 0.000000 3.615580 
# 
# 
# High freq. dielectric constant tensor:
#      x y z
#    x 1.712860 0.000000 0.000000 
#    y 0.000000 1.712860 0.000000 
#    z 0.000000 0.000000 1.722760 
# 
# From -- ./inp_files/6610.got.cif
#   From: 2010.03.12/outbox.cif.g09.slc.cpg/sg193_4_cif.got.tgz:6610.got - 2010.04.01 12:20:39.
