data_PCOD8330180
_publ_section_title
;
Structure prediction by ZEFSAII (Michael W. Deem and Ramdas Pophale) SiO2 
 PCOD8330180
Probable space group: P 63/M C M
;
_chemical_formula_sum "Si O2"
_cell_formula_units_Z 104
_cell_length_a 14.311477
_cell_length_b 14.311477
_cell_length_c 30.947853
_cell_angle_alpha 90.000000
_cell_angle_beta 90.000000
_cell_angle_gamma 120.000000
_cell_volume 5489.465638
_symmetry_space_group_name_H-M "P 63/M C M"
_symmetry_group_IT_number 193
_symmetry_cell_setting 'hexagonal'
loop_
_space_group_symop_operation_xyz
x,y,z
x-y,x,1/2+z
-y,x-y,z
-x,-y,1/2+z
-x+y,-x,z
y,-x+y,1/2+z
x-y,-y,1/2-z
-x,-x+y,1/2-z
y,x,1/2-z
-y,-x,-z
-x+y,y,-z
x,x-y,-z
-x,-y,-z
-x+y,-x,1/2-z
y,-x+y,-z
x,y,1/2-z
x-y,x,-z
-y,x-y,1/2-z
-x+y,y,1/2+z
x,x-y,1/2+z
-y,-x,1/2+z
y,x,z
x-y,-y,z
-x,-x+y,z
loop_
_atom_site_type_symbol
_atom_site_label
_atom_site_fract_x
_atom_site_fract_y
_atom_site_fract_z
Si Si1 0.570103 0.444447 0.250000
Si Si2 0.000000 0.397593 0.047513
Si Si3 0.587287 0.714059 0.320751
Si Si4 0.646839 0.773726 0.750000
Si Si5 0.561906 0.782687 0.586228
Si Si6 0.612716 0.000000 0.055074
Si Si7 0.666668 0.333334 0.448928
O O1 0.522917 0.522917 0.250000
O O2 0.642320 0.476502 0.206379
O O3 0.478487 0.320960 0.250000
O O4 0.104473 0.392545 0.062022
O O5 0.000000 0.502177 0.068882
O O6 0.000000 0.394452 0.996231
O O7 0.648399 0.648399 0.332939
O O8 0.666662 0.819240 0.292175
O O9 0.556849 0.756858 0.362990
O O10 0.729260 0.729260 0.750000
O O11 0.628831 0.724044 0.574749
O O12 0.447399 0.692760 0.568539
O O13 0.666668 0.333334 0.500000
#
# Coordination Sequence:
#
# PCOD8330180 Si02
#       7
#    12  12  24  12  24  12   8
#     4   8  18  37  58  81 122 155 186 240 303 372
#     4  11  22  42  60  90 130 171 204 266 322 362
#     4  10  22  41  58  86 123 160 196 244 308 365
#     4  10  21  37  65  87 115 147 197 254 300 367
#     4  12  24  39  64  93 129 170 209 257 312 380
#     4  11  24  38  64  92 126 167 218 258 312 376
#     4  12  24  39  60  94 131 166 213 264 309 372
#
# _framework density 18.945377000000001
#
# number of rings (size 3 to 8) (size 9 to 14) (size 15 to 20)
#    0.000    1.385    3.462    3.115    4.846    0.000 
#    5.538    0.000    0.000    2.308    3.000    1.615 
#    0.000    0.000    0.000    0.000    0.000    0.000 
#
# Total GULP energy -1289099.236773 kJ/mol
# GULP energy per Si atom -12395.184969 kJ/mol
# Density = 1.890226 g / cm^3
# Si number density = 18.945377 Si / 1000 Ang^3
#
#
#
# Elastic Constant Matrix: (Units=GPa)
#
#
# Indices 1 2 3 4 5 6 
#
# 1 83.8792 28.4533 26.4733 -0.0003 0.0000 0.0000
# 2 28.4533 83.8790 26.4729 0.0000 0.0002 0.0004
# 3 26.4733 26.4729 135.7767 -0.0003 -0.0003 0.0000
# 4 -0.0003 0.0000 -0.0003 43.8668 0.0003 -0.0001
# 5 0.0000 0.0002 -0.0003 0.0003 43.8659 0.0002
# 6 0.0000 0.0004 0.0000 -0.0001 0.0002 27.7133
#
#
#
# Elastic Compliance Matrix: (Units=1/GPa)
#
#
# Indices 1 2 3 4 5 6 
#
# 1 0.013923 -0.004120 -0.001911 0.000000 0.000000 0.000000
# 2 -0.004120 0.013923 -0.001911 0.000000 0.000000 0.000000
# 3 -0.001911 -0.001911 0.008110 0.000000 0.000000 0.000000
# 4 0.000000 0.000000 0.000000 0.022796 0.000000 0.000000
# 5 0.000000 0.000000 0.000000 0.000000 0.022797 0.000000
# 6 0.000000 0.000000 0.000000 0.000000 0.000000 0.036084
#
#
# Mechanical properties :
#
#
# Convention : Reuss Voigt Hill
#
# Bulk Modulus (GPa) = 49.82303 51.81488 50.81895
# Shear Modulus (GPa) = 35.66153 37.89824 36.77988
#
# Velocity S-wave (km/s) = 4.34329 4.47743 4.41087
# Velocity P-wave (km/s) = 7.17688 7.35791 7.26796
#
# Compressibility (1/GPa) = 0.02007104
#
# Stress axis : x y z
#
# Youngs Moduli (GPa) = 71.82577 71.82575 123.29898
#
# Poissons Ratio (x) = 0.29589 0.23567
# Poissons Ratio (y) = 0.29589 0.23566
# Poissons Ratio (z) = 0.13729 0.13728
#
# Static dielectric constant tensor:
#      x y z
#    x 3.465560 0.000000 0.000000 
#    y 0.000000 3.465560 0.000000 
#    z 0.000000 0.000000 3.554570 
# 
# 
# High freq. dielectric constant tensor:
#      x y z
#    x 1.728110 0.000000 0.000000 
#    y 0.000000 1.728110 0.000000 
#    z 0.000000 0.000000 1.749200 
# 
# From -- ./inp_files/8907.got.cif
#   From: 2010.03.12/outbox.cif.g09.slc.cpg/sg193_5_cif.got.tgz:8907.got - 2010.04.01 12:20:39.
