data_PCOD8330040
_publ_section_title
;
Structure prediction by ZEFSAII (Michael W. Deem and Ramdas Pophale) SiO2 
 PCOD8330040
Probable space group: P 63/M C M
;
_chemical_formula_sum "Si O2"
_cell_formula_units_Z 192
_cell_length_a 31.316240
_cell_length_b 31.316240
_cell_length_c 14.868222
_cell_angle_alpha 90.000000
_cell_angle_beta 90.000000
_cell_angle_gamma 120.000000
_cell_volume 12627.834871
_symmetry_space_group_name_H-M "P 63/M C M"
_symmetry_group_IT_number 193
_symmetry_cell_setting 'hexagonal'
loop_
_space_group_symop_operation_xyz
x,y,z
x-y,x,1/2+z
-y,x-y,z
-x,-y,1/2+z
-x+y,-x,z
y,-x+y,1/2+z
x-y,-y,1/2-z
-x,-x+y,1/2-z
y,x,1/2-z
-y,-x,-z
-x+y,y,-z
x,x-y,-z
-x,-y,-z
-x+y,-x,1/2-z
y,-x+y,-z
x,y,1/2-z
x-y,x,-z
-y,x-y,1/2-z
-x+y,y,1/2+z
x,x-y,1/2+z
-y,-x,1/2+z
y,x,z
x-y,-y,z
-x,-x+y,z
loop_
_atom_site_type_symbol
_atom_site_label
_atom_site_fract_x
_atom_site_fract_y
_atom_site_fract_z
Si Si1 0.612315 0.125193 0.646039
Si Si2 0.383483 0.439488 0.499550
Si Si3 0.607946 0.488203 0.644017
Si Si4 0.524004 0.810060 0.353452
Si Si5 0.773235 0.133548 0.352143
Si Si6 0.194583 0.719598 0.854913
Si Si7 0.281924 0.942713 0.503181
Si Si8 0.233498 0.364951 0.854741
O O1 0.610187 0.109716 0.750000
O O2 0.612933 0.083315 0.587398
O O3 0.567058 0.133053 0.620850
O O4 0.662607 0.176978 0.626688
O O5 0.423289 0.423289 0.516944
O O6 0.401025 0.472615 0.409439
O O7 0.329554 0.392949 0.487041
O O8 0.610110 0.500064 0.750000
O O9 0.659321 0.494767 0.603732
O O10 0.509498 0.803806 0.250000
O O11 0.581906 0.844659 0.368875
O O12 0.507009 0.756042 0.396918
O O13 0.768975 0.115277 0.250000
O O14 0.755804 0.086122 0.415381
O O15 0.829522 0.175853 0.373088
O O16 0.199258 0.733043 0.750000
O O17 0.154935 0.733866 0.891954
O O18 0.252305 0.918764 0.410680
O O19 0.297007 0.000000 0.505412
O O20 0.243066 0.360272 0.750000
#
# Coordination Sequence:
#
# PCOD8330040 Si02
#       8
#    24  24  24  24  24  24  24  24
#     4  10  20  34  50  65  84 110 140 173 208 252
#     4  11  23  35  46  62  87 115 143 175 208 253
#     4  10  20  34  50  65  84 110 140 173 208 252
#     4   8  14  27  47  67  84 102 130 170 213 255
#     4   9  17  31  50  68  88 115 150 190 221 254
#     4   8  14  27  47  67  84 102 130 170 213 255
#     4  11  21  30  45  69  96 123 145 177 228 277
#     4   9  17  31  50  68  88 115 150 190 221 254
#
# _framework density 15.204506
#
# number of rings (size 3 to 8) (size 9 to 14) (size 15 to 20)
#    0.000    2.500    2.500    2.250    0.000    2.000 
#    0.000    4.375    0.000    0.500    0.000    3.500 
#    0.000    0.000    0.000    0.000    0.000    0.000 
#
# Total GULP energy -2379420.241132 kJ/mol
# GULP energy per Si atom -12392.813756 kJ/mol
# Density = 1.516990 g / cm^3
# Si number density = 15.204506 Si / 1000 Ang^3
#
#
#
# Elastic Constant Matrix: (Units=GPa)
#
#
# Indices 1 2 3 4 5 6 
#
# 1 75.3745 37.5679 29.8240 0.0000 0.0000 0.0000
# 2 37.5679 75.3745 29.8240 0.0000 0.0000 0.0000
# 3 29.8240 29.8240 63.9815 0.0000 0.0000 0.0000
# 4 0.0000 0.0000 0.0000 18.4643 0.0000 0.0000
# 5 0.0000 0.0000 0.0000 0.0000 18.4643 0.0000
# 6 0.0000 0.0000 0.0000 0.0000 0.0000 18.9033
#
#
#
# Elastic Compliance Matrix: (Units=1/GPa)
#
#
# Indices 1 2 3 4 5 6 
#
# 1 0.019098 -0.007352 -0.005475 0.000000 0.000000 0.000000
# 2 -0.007352 0.019098 -0.005475 0.000000 0.000000 0.000000
# 3 -0.005475 -0.005475 0.020734 0.000000 0.000000 0.000000
# 4 0.000000 0.000000 0.000000 0.054159 0.000000 0.000000
# 5 0.000000 0.000000 0.000000 0.000000 0.054159 0.000000
# 6 0.000000 0.000000 0.000000 0.000000 0.000000 0.052901
#
#
# Mechanical properties :
#
#
# Convention : Reuss Voigt Hill
#
# Bulk Modulus (GPa) = 44.79327 45.46248 45.12787
# Shear Modulus (GPa) = 18.92545 19.00067 18.96306
#
# Velocity S-wave (km/s) = 3.53190 3.53891 3.53540
# Velocity P-wave (km/s) = 6.79388 6.83111 6.81252
#
# Compressibility (1/GPa) = 0.02232478
#
# Stress axis : x y z
#
# Youngs Moduli (GPa) = 52.36150 52.36150 48.23060
#
# Poissons Ratio (x) = 0.38498 0.26406
# Poissons Ratio (y) = 0.38498 0.26406
# Poissons Ratio (z) = 0.28668 0.28668
#
# Static dielectric constant tensor:
#      x y z
#    x 2.850070 0.000000 0.000000 
#    y 0.000000 2.850070 0.000000 
#    z 0.000000 0.000000 2.946690 
# 
# 
# High freq. dielectric constant tensor:
#      x y z
#    x 1.554430 0.000000 0.000000 
#    y 0.000000 1.554430 0.000000 
#    z 0.000000 0.000000 1.592370 
# 
# From -- ./inp_files/4503.got.cif
#   From: 2010.03.12/outbox.cif.g09.slc.cpg/sg193_3_cif.got.tgz:4503.got - 2010.04.01 12:20:39.
