data_PCOD8330399
_publ_section_title
;
Structure prediction by ZEFSAII (Michael W. Deem and Ramdas Pophale) SiO2 
 PCOD8330399
Probable space group: P 63/M M C
;
_chemical_formula_sum "Si O2"
_cell_formula_units_Z 168
_cell_length_a 21.469104
_cell_length_b 21.469104
_cell_length_c 24.158707
_cell_angle_alpha 90.000000
_cell_angle_beta 90.000000
_cell_angle_gamma 120.000000
_cell_volume 9643.443891
_symmetry_space_group_name_H-M "P 63/M M C"
_symmetry_group_IT_number 194
_symmetry_cell_setting 'hexagonal'
loop_
_space_group_symop_operation_xyz
x,y,z
x-y,x,1/2+z
-y,x-y,z
-x,-y,1/2+z
-x+y,-x,z
y,-x+y,1/2+z
x-y,-y,-z
-x,-x+y,-z
y,x,-z
-y,-x,1/2-z
-x+y,y,1/2-z
x,x-y,1/2-z
-x,-y,-z
-x+y,-x,1/2-z
y,-x+y,-z
x,y,1/2-z
x-y,x,-z
-y,x-y,1/2-z
-x+y,y,z
x,x-y,z
-y,-x,z
y,x,1/2+z
x-y,-y,1/2+z
-x,-x+y,1/2+z
loop_
_atom_site_type_symbol
_atom_site_label
_atom_site_fract_x
_atom_site_fract_y
_atom_site_fract_z
Si Si1 0.000489 0.140574 0.064143
Si Si2 0.921078 0.322253 0.686834
Si Si3 0.188432 0.520762 0.114807
Si Si4 0.272628 0.872946 0.899325
Si Si5 0.737007 0.713576 0.900936
Si Si6 0.130631 0.405577 0.024909
Si Si7 0.929860 0.537475 0.313137
O O1 0.921812 0.078189 0.083464
O O2 0.056229 0.112458 0.074667
O O3 0.027079 0.213814 0.097910
O O4 0.000000 0.159395 0.000000
O O5 0.913462 0.298067 0.750000
O O6 0.849325 0.322873 0.669163
O O7 0.930355 0.263774 0.651450
O O8 0.988208 0.401469 0.676240
O O9 0.271540 0.543080 0.113956
O O10 0.182695 0.591348 0.115554
O O11 0.146601 0.474896 0.060770
O O12 0.198226 0.801775 0.886232
O O13 0.330677 0.876837 0.855324
O O14 0.260885 0.940252 0.892976
O O15 0.299729 0.873272 0.961623
O O16 0.721196 0.664594 0.955973
O O17 0.192692 0.385383 0.033342
O O18 0.907127 0.541662 0.250000
O O19 0.923039 0.461520 0.325745
#
# Coordination Sequence:
#
# PCOD8330399 Si02
#       7
#    24  24  24  24  24  24  24
#     4  10  19  30  46  70 101 135 168 200 235 280
#     4   9  19  35  52  71  94 119 153 198 242 284
#     4  10  20  33  49  69  95 126 157 190 230 279
#     4  10  19  30  47  73 101 125 155 199 245 287
#     4  10  18  30  50  72  96 128 161 198 246 292
#     4   9  18  31  46  68  98 130 163 197 235 282
#     4   9  18  33  52  71  92 123 160 194 234 284
#
# _framework density 17.421161999999999
#
# number of rings (size 3 to 8) (size 9 to 14) (size 15 to 20)
#    0.000    2.429    0.000    2.857    0.000    5.429 
#    0.000    0.000    0.000    7.571    0.000    0.000 
#    0.000    1.143    0.000    0.000    0.000    0.000 
#
# Total GULP energy -2083353.939419 kJ/mol
# GULP energy per Si atom -12400.916306 kJ/mol
# Density = 1.738151 g / cm^3
# Si number density = 17.421162 Si / 1000 Ang^3
#
#
#
# Elastic Constant Matrix: (Units=GPa)
#
#
# Indices 1 2 3 4 5 6 
#
# 1 96.7643 46.8318 42.8574 0.0000 0.0000 0.0000
# 2 46.8318 96.7643 42.8574 0.0000 0.0000 0.0000
# 3 42.8574 42.8574 97.8539 0.0000 0.0000 0.0000
# 4 0.0000 0.0000 0.0000 23.2275 0.0000 0.0000
# 5 0.0000 0.0000 0.0000 0.0000 23.2275 0.0000
# 6 0.0000 0.0000 0.0000 0.0000 0.0000 24.9663
#
#
#
# Elastic Compliance Matrix: (Units=1/GPa)
#
#
# Indices 1 2 3 4 5 6 
#
# 1 0.014728 -0.005299 -0.004130 0.000000 0.000000 0.000000
# 2 -0.005299 0.014728 -0.004130 0.000000 0.000000 0.000000
# 3 -0.004130 -0.004130 0.013837 0.000000 0.000000 0.000000
# 4 0.000000 0.000000 0.000000 0.043053 0.000000 0.000000
# 5 0.000000 0.000000 0.000000 0.000000 0.043053 0.000000
# 6 0.000000 0.000000 0.000000 0.000000 0.000000 0.040054
#
#
# Mechanical properties :
#
#
# Convention : Reuss Voigt Hill
#
# Bulk Modulus (GPa) = 61.81961 61.83063 61.82512
# Shear Modulus (GPa) = 24.75733 24.87331 24.81532
#
# Velocity S-wave (km/s) = 3.77385 3.78268 3.77826
# Velocity P-wave (km/s) = 7.38591 7.39235 7.38913
#
# Compressibility (1/GPa) = 0.01617610
#
# Stress axis : x y z
#
# Youngs Moduli (GPa) = 67.89778 67.89778 72.27162
#
# Poissons Ratio (x) = 0.35979 0.29846
# Poissons Ratio (y) = 0.35979 0.29846
# Poissons Ratio (z) = 0.28040 0.28040
#
# Static dielectric constant tensor:
#      x y z
#    x 3.174530 0.000000 0.000000 
#    y 0.000000 3.174530 0.000000 
#    z 0.000000 0.000000 3.276990 
# 
# 
# High freq. dielectric constant tensor:
#      x y z
#    x 1.669830 0.000000 0.000000 
#    y 0.000000 1.669830 0.000000 
#    z 0.000000 0.000000 1.663220 
# 
# From -- ./inp_files/9843.got.cif
#   From: 2010.03.12/outbox.cif.g09.slc.cpg/sg194_5_cif.got.tgz:9843.got - 2010.04.01 12:26:19.
