data_PCOD8330645
_publ_section_title
;
Structure prediction by ZEFSAII (Michael W. Deem and Ramdas Pophale) SiO2 
 PCOD8330645
Probable space group: P 63/M M C
;
_chemical_formula_sum "Si O2"
_cell_formula_units_Z 120
_cell_length_a 17.230379
_cell_length_b 17.230379
_cell_length_c 28.047026
_cell_angle_alpha 90.000000
_cell_angle_beta 90.000000
_cell_angle_gamma 120.000000
_cell_volume 7211.192838
_symmetry_space_group_name_H-M "P 63/M M C"
_symmetry_group_IT_number 194
_symmetry_cell_setting 'hexagonal'
loop_
_space_group_symop_operation_xyz
x,y,z
x-y,x,1/2+z
-y,x-y,z
-x,-y,1/2+z
-x+y,-x,z
y,-x+y,1/2+z
x-y,-y,-z
-x,-x+y,-z
y,x,-z
-y,-x,1/2-z
-x+y,y,1/2-z
x,x-y,1/2-z
-x,-y,-z
-x+y,-x,1/2-z
y,-x+y,-z
x,y,1/2-z
x-y,x,-z
-y,x-y,1/2-z
-x+y,y,z
x,x-y,z
-y,-x,z
y,x,1/2+z
x-y,-y,1/2+z
-x,-x+y,1/2+z
loop_
_atom_site_type_symbol
_atom_site_label
_atom_site_fract_x
_atom_site_fract_y
_atom_site_fract_z
Si Si1 0.153615 0.487326 0.169896
Si Si2 0.263542 0.907379 0.519205
Si Si3 0.666550 0.501745 0.561663
Si Si4 0.611024 0.572140 0.302230
Si Si5 0.332382 0.851459 0.893615
O O1 0.238402 0.476803 0.184806
O O2 0.175615 0.587808 0.183426
O O3 0.127688 0.467087 0.114539
O O4 0.063942 0.410281 0.195356
O O5 0.159569 0.840432 0.532272
O O6 0.325300 0.911227 0.563699
O O7 0.274103 0.000000 0.500000
O O8 0.415953 0.125277 0.527219
O O9 0.727449 0.454897 0.563680
O O10 0.569227 0.430774 0.541981
O O11 0.654230 0.576599 0.250000
O O12 0.517388 0.482612 0.308169
O O13 0.674741 0.570566 0.343954
O O14 0.425207 0.850414 0.898633
O O15 0.250442 0.749559 0.896564
#
# Coordination Sequence:
#
# PCOD8330645 Si02
#       5
#    24  24  24  24  24
#     4   9  16  26  41  62  89 121 155 188 222 263
#     4  10  20  32  47  68  93 120 147 177 216 261
#     4   9  16  25  39  61  90 122 152 180 213 258
#     4   9  18  31  44  59  82 113 150 193 236 270
#     4  10  20  33  49  68  90 117 150 186 222 261
#
# _framework density 16.640798
#
# number of rings (size 3 to 8) (size 9 to 14) (size 15 to 20)
#    0.000    2.600    0.000    2.400    0.000    5.600 
#    0.000    2.000    0.000    2.600    0.000    0.000 
#    0.000    0.000    0.000    0.600    0.000    3.200 
#
# Total GULP energy -1486756.449679 kJ/mol
# GULP energy per Si atom -12389.637081 kJ/mol
# Density = 1.660292 g / cm^3
# Si number density = 16.640798 Si / 1000 Ang^3
#
#
#
# Elastic Constant Matrix: (Units=GPa)
#
#
# Indices 1 2 3 4 5 6 
#
# 1 58.2684 28.4909 30.9285 0.0000 0.0000 0.0000
# 2 28.4909 58.2684 30.9285 0.0000 0.0000 0.0000
# 3 30.9285 30.9285 84.5309 0.0000 0.0000 0.0000
# 4 0.0000 0.0000 0.0000 17.9640 0.0000 0.0000
# 5 0.0000 0.0000 0.0000 0.0000 17.9640 0.0000
# 6 0.0000 0.0000 0.0000 0.0000 0.0000 14.8887
#
#
#
# Elastic Compliance Matrix: (Units=1/GPa)
#
#
# Indices 1 2 3 4 5 6 
#
# 1 0.024588 -0.008994 -0.005706 0.000000 0.000000 0.000000
# 2 -0.008994 0.024588 -0.005706 0.000000 0.000000 0.000000
# 3 -0.005706 -0.005706 0.016005 0.000000 0.000000 0.000000
# 4 0.000000 0.000000 0.000000 0.055667 0.000000 0.000000
# 5 0.000000 0.000000 0.000000 0.000000 0.055667 0.000000
# 6 0.000000 0.000000 0.000000 0.000000 0.000000 0.067165
#
#
# Mechanical properties :
#
#
# Convention : Reuss Voigt Hill
#
# Bulk Modulus (GPa) = 41.03259 42.41816 41.72537
# Shear Modulus (GPa) = 17.08732 17.54468 17.31600
#
# Velocity S-wave (km/s) = 3.20790 3.25055 3.22929
# Velocity P-wave (km/s) = 6.19937 6.29554 6.24764
#
# Compressibility (1/GPa) = 0.02437087
#
# Stress axis : x y z
#
# Youngs Moduli (GPa) = 40.66980 40.66980 62.47978
#
# Poissons Ratio (x) = 0.36579 0.35649
# Poissons Ratio (y) = 0.36579 0.35649
# Poissons Ratio (z) = 0.23205 0.23205
#
# Static dielectric constant tensor:
#      x y z
#    x 3.325540 0.000000 0.000000 
#    y 0.000000 3.325540 0.000000 
#    z 0.000000 0.000000 3.306590 
# 
# 
# High freq. dielectric constant tensor:
#      x y z
#    x 1.612430 0.000000 0.000000 
#    y 0.000000 1.612430 0.000000 
#    z 0.000000 0.000000 1.656620 
# 
# From -- ./inp_files/11721.got.cif
#   From: 2010.03.12/outbox.cif.g09.slc.cpg/sg194_6_cif.got.tgz:11721.got - 2010.04.01 12:26:19.
