data_PCOD8330448
_publ_section_title
;
Structure prediction by ZEFSAII (Michael W. Deem and Ramdas Pophale) SiO2 
 PCOD8330448
Probable space group: P 63/M M C
;
_chemical_formula_sum "Si O2"
_cell_formula_units_Z 132
_cell_length_a 17.411697
_cell_length_b 17.411697
_cell_length_c 36.343413
_cell_angle_alpha 90.000000
_cell_angle_beta 90.000000
_cell_angle_gamma 120.000000
_cell_volume 9541.980900
_symmetry_space_group_name_H-M "P 63/M M C"
_symmetry_group_IT_number 194
_symmetry_cell_setting 'hexagonal'
loop_
_space_group_symop_operation_xyz
x,y,z
x-y,x,1/2+z
-y,x-y,z
-x,-y,1/2+z
-x+y,-x,z
y,-x+y,1/2+z
x-y,-y,-z
-x,-x+y,-z
y,x,-z
-y,-x,1/2-z
-x+y,y,1/2-z
x,x-y,1/2-z
-x,-y,-z
-x+y,-x,1/2-z
y,-x+y,-z
x,y,1/2-z
x-y,x,-z
-y,x-y,1/2-z
-x+y,y,z
x,x-y,z
-y,-x,z
y,x,1/2+z
x-y,-y,1/2+z
-x,-x+y,1/2+z
loop_
_atom_site_type_symbol
_atom_site_label
_atom_site_fract_x
_atom_site_fract_y
_atom_site_fract_z
Si Si1 0.818884 0.998106 0.670185
Si Si2 0.491378 0.333610 0.995274
Si Si3 0.824690 0.826311 0.750000
Si Si4 0.699680 0.939194 0.897337
Si Si5 0.241489 0.302854 0.466547
Si Si6 0.158580 0.492090 0.580668
O O1 0.846425 0.923213 0.664050
O O2 0.774015 0.986993 0.711085
O O3 0.743435 0.984875 0.641349
O O4 0.906407 0.093594 0.664945
O O5 0.519157 0.259579 0.988339
O O6 0.572221 0.427780 0.982768
O O7 0.406548 0.314946 0.971239
O O8 0.467187 0.334149 0.038009
O O9 0.862651 0.931326 0.750000
O O10 0.904288 0.808576 0.750000
O O11 0.714616 0.857308 0.906906
O O12 0.594634 0.904358 0.895261
O O13 0.745832 0.012610 0.928286
O O14 0.246052 0.246052 0.500000
O O15 0.144672 0.289344 0.467244
O O16 0.261563 0.523125 0.586871
O O17 0.142908 0.571454 0.593427
#
# Coordination Sequence:
#
# PCOD8330448 Si02
#       6
#    24  24  12  24  24  24
#     4   9  16  26  41  60  82 106 131 160 193 230
#     4   9  17  28  43  60  77  97 124 161 206 249
#     4   8  13  22  38  60  81 100 124 156 196 236
#     4  10  19  30  41  56  78 104 133 165 197 227
#     4  11  20  30  41  53  73 104 137 166 195 224
#     4   9  16  27  42  60  79  99 125 161 204 245
#
# _framework density 13.833606
#
# number of rings (size 3 to 8) (size 9 to 14) (size 15 to 20)
#    0.000    2.545    1.818    1.727    0.000    4.000 
#    0.000    0.000    0.000    4.364    0.000    0.636 
#    0.000    0.000    0.000    2.545    0.000    0.000 
#
# Total GULP energy -1636027.017862 kJ/mol
# GULP energy per Si atom -12394.144075 kJ/mol
# Density = 1.380212 g / cm^3
# Si number density = 13.833606 Si / 1000 Ang^3
#
#
#
# Elastic Constant Matrix: (Units=GPa)
#
#
# Indices 1 2 3 4 5 6 
#
# 1 78.1026 43.2501 50.2145 0.0000 0.0000 0.0000
# 2 43.2501 78.1026 50.2145 0.0000 0.0000 0.0000
# 3 50.2145 50.2145 107.9304 0.0000 0.0000 0.0000
# 4 0.0000 0.0000 0.0000 15.2824 0.0000 0.0000
# 5 0.0000 0.0000 0.0000 0.0000 15.2824 0.0000
# 6 0.0000 0.0000 0.0000 0.0000 0.0000 17.4262
#
#
#
# Elastic Compliance Matrix: (Units=1/GPa)
#
#
# Indices 1 2 3 4 5 6 
#
# 1 0.021046 -0.007646 -0.006234 0.000000 0.000000 0.000000
# 2 -0.007646 0.021046 -0.006234 0.000000 0.000000 0.000000
# 3 -0.006234 -0.006234 0.015066 0.000000 0.000000 0.000000
# 4 0.000000 0.000000 0.000000 0.065435 0.000000 0.000000
# 5 0.000000 0.000000 0.000000 0.000000 0.065435 0.000000
# 6 0.000000 0.000000 0.000000 0.000000 0.000000 0.057385
#
#
# Mechanical properties :
#
#
# Convention : Reuss Voigt Hill
#
# Bulk Modulus (GPa) = 59.07099 61.27710 60.17404
# Shear Modulus (GPa) = 17.16532 17.62864 17.39698
#
# Velocity S-wave (km/s) = 3.52638 3.57365 3.55010
# Velocity P-wave (km/s) = 7.70547 7.83709 7.77156
#
# Compressibility (1/GPa) = 0.01692878
#
# Stress axis : x y z
#
# Youngs Moduli (GPa) = 47.51482 47.51482 66.37384
#
# Poissons Ratio (x) = 0.36331 0.41379
# Poissons Ratio (y) = 0.36331 0.41379
# Poissons Ratio (z) = 0.29622 0.29622
#
# Static dielectric constant tensor:
#      x y z
#    x 2.689930 0.000000 0.000000 
#    y 0.000000 2.689930 0.000000 
#    z 0.000000 0.000000 2.833920 
# 
# 
# High freq. dielectric constant tensor:
#      x y z
#    x 1.520210 0.000000 0.000000 
#    y 0.000000 1.520210 0.000000 
#    z 0.000000 0.000000 1.505710 
# 
# From -- ./inp_files/12018.got.cif
#   From: 2010.03.12/outbox.cif.g09.slc.cpg/sg194_7_cif.got.tgz:12018.got - 2010.04.01 12:26:19.
