data_PCOD8330848
_publ_section_title
;
Structure prediction by ZEFSAII (Michael W. Deem and Ramdas Pophale) SiO2 
 PCOD8330848
Probable space group: P 63/M M C
;
_chemical_formula_sum "Si O2"
_cell_formula_units_Z 102
_cell_length_a 27.198236
_cell_length_b 27.198236
_cell_length_c 7.721440
_cell_angle_alpha 90.000000
_cell_angle_beta 90.000000
_cell_angle_gamma 120.000000
_cell_volume 4946.641178
_symmetry_space_group_name_H-M "P 63/M M C"
_symmetry_group_IT_number 194
_symmetry_cell_setting 'hexagonal'
loop_
_space_group_symop_operation_xyz
x,y,z
x-y,x,1/2+z
-y,x-y,z
-x,-y,1/2+z
-x+y,-x,z
y,-x+y,1/2+z
x-y,-y,-z
-x,-x+y,-z
y,x,-z
-y,-x,1/2-z
-x+y,y,1/2-z
x,x-y,1/2-z
-x,-y,-z
-x+y,-x,1/2-z
y,-x+y,-z
x,y,1/2-z
x-y,x,-z
-y,x-y,1/2-z
-x+y,y,z
x,x-y,z
-y,-x,z
y,x,1/2+z
x-y,-y,1/2+z
-x,-x+y,1/2+z
loop_
_atom_site_type_symbol
_atom_site_label
_atom_site_fract_x
_atom_site_fract_y
_atom_site_fract_z
Si Si1 0.415618 0.207809 0.564496
Si Si2 0.560421 0.620868 0.448183
Si Si3 0.170822 0.230479 0.047452
Si Si4 0.249004 0.498008 0.750000
Si Si5 0.485391 0.854899 0.750000
Si Si6 0.349101 0.084731 0.447827
O O1 0.446979 0.223490 0.750000
O O2 0.462557 0.231279 0.421999
O O3 0.374130 0.141560 0.555759
O O4 0.565439 0.565439 0.500000
O O5 0.538091 0.614132 0.250000
O O6 0.519249 0.630805 0.576550
O O7 0.624568 0.674036 0.463886
O O8 0.173802 0.240857 0.250000
O O9 0.112443 0.224885 0.972817
O O10 0.173732 0.173732 0.000000
O O11 0.226639 0.281341 0.957041
O O12 0.318047 0.529503 0.750000
O O13 0.425732 0.851463 0.750000
O O14 0.369973 0.097935 0.250000
#
# Coordination Sequence:
#
# PCOD8330848 Si02
#       6
#    12  24  24   6  12  24
#     4  12  20  34  62  94 128 168 211 259 313 383
#     4  12  23  42  67  99 139 180 217 264 323 401
#     4  11  24  39  57  85 120 163 209 260 319 380
#     4  12  24  48  70  98 130 174 226 282 332 384
#     4  12  28  48  70 100 134 175 229 282 339 395
#     4  12  21  36  60  93 132 171 212 252 308 381
#
# _framework density 20.620052000000001
#
# number of rings (size 3 to 8) (size 9 to 14) (size 15 to 20)
#    0.000    0.235    7.059    3.529    0.000    2.353 
#    0.353    0.000    0.000    0.235    0.000    0.000 
#    0.000    0.000    0.000    0.000    0.000    0.000 
#
# Total GULP energy -1264167.761994 kJ/mol
# GULP energy per Si atom -12393.801588 kJ/mol
# Density = 2.057312 g / cm^3
# Si number density = 20.620052 Si / 1000 Ang^3
#
#
#
# Elastic Constant Matrix: (Units=GPa)
#
#
# Indices 1 2 3 4 5 6 
#
# 1 95.3080 58.1625 26.9218 0.0000 0.0000 0.0000
# 2 58.1625 95.3080 26.9218 0.0000 0.0000 0.0000
# 3 26.9218 26.9218 155.8553 0.0000 0.0000 0.0000
# 4 0.0000 0.0000 0.0000 17.3562 0.0000 0.0000
# 5 0.0000 0.0000 0.0000 0.0000 17.3562 0.0000
# 6 0.0000 0.0000 0.0000 0.0000 0.0000 18.5728
#
#
#
# Elastic Compliance Matrix: (Units=1/GPa)
#
#
# Indices 1 2 3 4 5 6 
#
# 1 0.016929 -0.009992 -0.001198 0.000000 0.000000 0.000000
# 2 -0.009992 0.016929 -0.001198 0.000000 0.000000 0.000000
# 3 -0.001198 -0.001198 0.006830 0.000000 0.000000 0.000000
# 4 0.000000 0.000000 0.000000 0.057616 0.000000 0.000000
# 5 0.000000 0.000000 0.000000 0.000000 0.057616 0.000000
# 6 0.000000 0.000000 0.000000 0.000000 0.000000 0.053842
#
#
# Mechanical properties :
#
#
# Convention : Reuss Voigt Hill
#
# Bulk Modulus (GPa) = 62.85316 63.38705 63.12011
# Shear Modulus (GPa) = 20.84697 26.28807 23.56752
#
# Velocity S-wave (km/s) = 3.18308 3.57442 3.38441
# Velocity P-wave (km/s) = 6.63755 6.91683 6.77863
#
# Compressibility (1/GPa) = 0.01591010
#
# Stress axis : x y z
#
# Youngs Moduli (GPa) = 59.07131 59.07131 146.41010
#
# Poissons Ratio (x) = 0.59027 0.17542
# Poissons Ratio (y) = 0.59027 0.17542
# Poissons Ratio (z) = 0.07078 0.07078
#
# Static dielectric constant tensor:
#      x y z
#    x 3.858540 0.000000 0.000000 
#    y 0.000000 3.858540 0.000000 
#    z 0.000000 0.000000 3.813000 
# 
# 
# High freq. dielectric constant tensor:
#      x y z
#    x 1.787680 0.000000 0.000000 
#    y 0.000000 1.787680 0.000000 
#    z 0.000000 0.000000 1.823340 
# 
# From -- ./inp_files/1657.got.cif
#   From: 2010.03.12/outbox.cif.g09.slc.cpg/sg194_1_cif.got.tgz:1657.got - 2010.04.01 12:26:19.
