data_PCOD8330398
_publ_section_title
;
Structure prediction by ZEFSAII (Michael W. Deem and Ramdas Pophale) SiO2 
 PCOD8330398
Probable space group: P 63/M M C
;
_chemical_formula_sum "Si O2"
_cell_formula_units_Z 112
_cell_length_a 29.076717
_cell_length_b 29.076717
_cell_length_c 9.646801
_cell_angle_alpha 90.000000
_cell_angle_beta 90.000000
_cell_angle_gamma 120.000000
_cell_volume 7063.251827
_symmetry_space_group_name_H-M "P 63/M M C"
_symmetry_group_IT_number 194
_symmetry_cell_setting 'hexagonal'
loop_
_space_group_symop_operation_xyz
x,y,z
x-y,x,1/2+z
-y,x-y,z
-x,-y,1/2+z
-x+y,-x,z
y,-x+y,1/2+z
x-y,-y,-z
-x,-x+y,-z
y,x,-z
-y,-x,1/2-z
-x+y,y,1/2-z
x,x-y,1/2-z
-x,-y,-z
-x+y,-x,1/2-z
y,-x+y,-z
x,y,1/2-z
x-y,x,-z
-y,x-y,1/2-z
-x+y,y,z
x,x-y,z
-y,-x,z
y,x,1/2+z
x-y,-y,1/2+z
-x,-x+y,1/2+z
loop_
_atom_site_type_symbol
_atom_site_label
_atom_site_fract_x
_atom_site_fract_y
_atom_site_fract_z
Si Si1 0.603433 0.747924 0.407386
Si Si2 0.776101 0.836452 0.750000
Si Si3 0.836214 0.060649 0.750000
Si Si4 0.060118 0.290089 0.999019
Si Si5 0.333334 0.666668 0.422252
Si Si6 0.388699 0.611302 0.579793
Si Si7 0.795849 0.312675 0.910925
O O1 0.613407 0.737622 0.250000
O O2 0.612174 0.806087 0.425351
O O3 0.646105 0.743126 0.503332
O O4 0.543601 0.704824 0.449831
O O5 0.800224 0.900112 0.750000
O O6 0.825284 0.825081 0.750000
O O7 0.736512 0.809426 0.874348
O O8 0.899838 0.100163 0.750000
O O9 0.809441 0.073316 0.624911
O O10 0.000000 0.278304 0.000000
O O11 0.333334 0.666667 0.250000
O O12 0.362333 0.637668 0.486930
O O13 0.385142 0.614859 0.750000
O O14 0.358414 0.550738 0.524563
O O15 0.802895 0.332309 0.750000
O O16 0.736293 0.263707 0.929616
#
# Coordination Sequence:
#
# PCOD8330398 Si02
#       7
#    24  12  12  24   4  12  24
#     4   9  16  29  50  70  90 122 162 196 230 283
#     4  10  20  30  42  69 102 125 153 197 247 291
#     4  10  18  30  50  67  88 127 169 197 231 279
#     4  10  19  30  47  71  96 125 158 196 239 288
#     4  12  22  32  52  66  88 137 175 210 232 266
#     4  12  22  32  46  70  99 127 162 200 247 288
#     4   9  18  31  48  68  89 122 162 197 235 282
#
# _framework density 15.856719
#
# number of rings (size 3 to 8) (size 9 to 14) (size 15 to 20)
#    0.000    2.143    2.143    4.500    0.000    0.000 
#    1.929    0.000    0.000    0.214    0.000    0.750 
#    0.000    5.143    0.000    0.000    0.000    0.857 
#
# Total GULP energy -1387656.525028 kJ/mol
# GULP energy per Si atom -12389.790402 kJ/mol
# Density = 1.582063 g / cm^3
# Si number density = 15.856719 Si / 1000 Ang^3
#
#
#
# Elastic Constant Matrix: (Units=GPa)
#
#
# Indices 1 2 3 4 5 6 
#
# 1 103.8535 49.4581 40.3434 0.0000 0.0000 0.0000
# 2 49.4581 103.8537 40.3434 0.0001 0.0000 0.0000
# 3 40.3434 40.3434 106.6552 0.0000 0.0000 0.0000
# 4 0.0000 0.0001 0.0000 22.5329 0.0000 0.0000
# 5 0.0000 0.0000 0.0000 0.0000 22.5329 0.0000
# 6 0.0000 0.0000 0.0000 0.0000 0.0000 27.1977
#
#
#
# Elastic Compliance Matrix: (Units=1/GPa)
#
#
# Indices 1 2 3 4 5 6 
#
# 1 0.013264 -0.005120 -0.003081 0.000000 0.000000 0.000000
# 2 -0.005120 0.013264 -0.003081 0.000000 0.000000 0.000000
# 3 -0.003081 -0.003081 0.011706 0.000000 0.000000 0.000000
# 4 0.000000 0.000000 0.000000 0.044380 0.000000 0.000000
# 5 0.000000 0.000000 0.000000 0.000000 0.044380 0.000000
# 6 0.000000 0.000000 0.000000 0.000000 0.000000 0.036768
#
#
# Mechanical properties :
#
#
# Convention : Reuss Voigt Hill
#
# Bulk Modulus (GPa) = 63.80711 63.85026 63.82868
# Shear Modulus (GPa) = 26.10321 26.73386 26.41853
#
# Velocity S-wave (km/s) = 4.06173 4.11050 4.08619
# Velocity P-wave (km/s) = 7.89456 7.92986 7.91223
#
# Compressibility (1/GPa) = 0.01567224
#
# Stress axis : x y z
#
# Youngs Moduli (GPa) = 75.39257 75.39276 85.42273
#
# Poissons Ratio (x) = 0.38601 0.26315
# Poissons Ratio (y) = 0.38601 0.26315
# Poissons Ratio (z) = 0.23225 0.23225
#
# Static dielectric constant tensor:
#      x y z
#    x 3.052720 0.000000 0.000000 
#    y 0.000000 3.052710 0.000000 
#    z 0.000000 0.000000 3.035640 
# 
# 
# High freq. dielectric constant tensor:
#      x y z
#    x 1.591910 0.000000 0.000000 
#    y 0.000000 1.591910 0.000000 
#    z 0.000000 0.000000 1.611970 
# 
# From -- ./inp_files/1976.got.cif
#   From: 2010.03.12/outbox.cif.g09.slc.cpg/sg194_1_cif.got.tgz:1976.got - 2010.04.01 12:26:19.
