data_PCOD8330696
_publ_section_title
;
Structure prediction by ZEFSAII (Michael W. Deem and Ramdas Pophale) SiO2 
 PCOD8330696
Probable space group: P 63/M M C
;
_chemical_formula_sum "Si O2"
_cell_formula_units_Z 96
_cell_length_a 17.466164
_cell_length_b 17.466164
_cell_length_c 19.076411
_cell_angle_alpha 90.000000
_cell_angle_beta 90.000000
_cell_angle_gamma 120.000000
_cell_volume 5039.905226
_symmetry_space_group_name_H-M "P 63/M M C"
_symmetry_group_IT_number 194
_symmetry_cell_setting 'hexagonal'
loop_
_space_group_symop_operation_xyz
x,y,z
x-y,x,1/2+z
-y,x-y,z
-x,-y,1/2+z
-x+y,-x,z
y,-x+y,1/2+z
x-y,-y,-z
-x,-x+y,-z
y,x,-z
-y,-x,1/2-z
-x+y,y,1/2-z
x,x-y,1/2-z
-x,-y,-z
-x+y,-x,1/2-z
y,-x+y,-z
x,y,1/2-z
x-y,x,-z
-y,x-y,1/2-z
-x+y,y,z
x,x-y,z
-y,-x,z
y,x,1/2+z
x-y,-y,1/2+z
-x,-x+y,1/2+z
loop_
_atom_site_type_symbol
_atom_site_label
_atom_site_fract_x
_atom_site_fract_y
_atom_site_fract_z
Si Si1 0.966797 0.393770 0.827354
Si Si2 0.167189 0.167351 0.581133
Si Si3 0.512567 0.667720 0.455580
Si Si4 0.273088 0.903723 0.589963
O O1 0.943319 0.349119 0.750000
O O2 0.976866 0.488433 0.823268
O O3 0.889758 0.332771 0.881808
O O4 0.063134 0.411818 0.851546
O O5 0.147347 0.147347 0.500000
O O6 0.077742 0.155483 0.617425
O O7 0.246567 0.266753 0.589709
O O8 0.192048 0.096024 0.613336
O O9 0.484902 0.742451 0.452514
O O10 0.425769 0.574232 0.472013
O O11 0.585501 0.688251 0.515063
O O12 0.191018 0.808983 0.611382
#
# Coordination Sequence:
#
# PCOD8330696 Si02
#       4
#    24  24  24  24
#     4  10  21  36  53  74 103 138 171 207 257 315
#     4   9  16  26  42  67  99 132 164 200 244 292
#     4  10  20  35  55  78 104 135 173 218 267 318
#     4  10  20  33  53  79 104 133 172 218 262 308
#
# _framework density 19.047978000000001
#
# number of rings (size 3 to 8) (size 9 to 14) (size 15 to 20)
#    0.000    2.250    0.000    3.500    0.000    7.000 
#    0.000    0.000    0.000    2.000    0.000    0.000 
#    0.000    2.000    0.000    2.500    0.000    1.000 
#
# Total GULP energy -1189790.093303 kJ/mol
# GULP energy per Si atom -12393.646805 kJ/mol
# Density = 1.900462 g / cm^3
# Si number density = 19.047978 Si / 1000 Ang^3
#
#
#
# Elastic Constant Matrix: (Units=GPa)
#
#
# Indices 1 2 3 4 5 6 
#
# 1 72.2119 29.4116 33.3554 0.0000 0.0000 0.0000
# 2 29.4116 72.2119 33.3554 0.0000 0.0000 0.0000
# 3 33.3554 33.3554 79.0382 0.0000 0.0000 0.0000
# 4 0.0000 0.0000 0.0000 17.1178 0.0000 0.0000
# 5 0.0000 0.0000 0.0000 0.0000 17.1178 0.0000
# 6 0.0000 0.0000 0.0000 0.0000 0.0000 21.4002
#
#
#
# Elastic Compliance Matrix: (Units=1/GPa)
#
#
# Indices 1 2 3 4 5 6 
#
# 1 0.018488 -0.004877 -0.005744 0.000000 0.000000 0.000000
# 2 -0.004877 0.018488 -0.005744 0.000000 0.000000 0.000000
# 3 -0.005744 -0.005744 0.017500 0.000000 0.000000 0.000000
# 4 0.000000 0.000000 0.000000 0.058419 0.000000 0.000000
# 5 0.000000 0.000000 0.000000 0.000000 0.058419 0.000000
# 6 0.000000 0.000000 0.000000 0.000000 0.000000 0.046729
#
#
# Mechanical properties :
#
#
# Convention : Reuss Voigt Hill
#
# Bulk Modulus (GPa) = 45.98552 46.18965 46.08759
# Shear Modulus (GPa) = 19.37836 19.61645 19.49740
#
# Velocity S-wave (km/s) = 3.19304 3.21260 3.20284
# Velocity P-wave (km/s) = 6.14723 6.16951 6.15838
#
# Compressibility (1/GPa) = 0.02174597
#
# Stress axis : x y z
#
# Youngs Moduli (GPa) = 54.09026 54.09026 57.14193
#
# Poissons Ratio (x) = 0.26378 0.32823
# Poissons Ratio (y) = 0.26378 0.32823
# Poissons Ratio (z) = 0.31070 0.31070
#
# Static dielectric constant tensor:
#      x y z
#    x 3.628120 0.000000 0.000000 
#    y 0.000000 3.628120 0.000000 
#    z 0.000000 0.000000 3.471610 
# 
# 
# High freq. dielectric constant tensor:
#      x y z
#    x 1.749230 0.000000 0.000000 
#    y 0.000000 1.749230 0.000000 
#    z 0.000000 0.000000 1.701750 
# 
# From -- ./inp_files/7762.got.cif
#   From: 2010.03.12/outbox.cif.g09.slc.cpg/sg194_4_cif.got.tgz:7762.got - 2010.04.01 12:26:19.
