data_PCOD8330059
_publ_section_title
;
Structure prediction by ZEFSAII (Michael W. Deem and Ramdas Pophale) SiO2 
 PCOD8330059
Probable space group: P 63/M C M
;
_chemical_formula_sum "Si O2"
_cell_formula_units_Z 144
_cell_length_a 31.113765
_cell_length_b 31.113765
_cell_length_c 8.797518
_cell_angle_alpha 90.000000
_cell_angle_beta 90.000000
_cell_angle_gamma 120.000000
_cell_volume 7375.575791
_symmetry_space_group_name_H-M "P 63/M C M"
_symmetry_group_IT_number 193
_symmetry_cell_setting 'hexagonal'
loop_
_space_group_symop_operation_xyz
x,y,z
x-y,x,1/2+z
-y,x-y,z
-x,-y,1/2+z
-x+y,-x,z
y,-x+y,1/2+z
x-y,-y,1/2-z
-x,-x+y,1/2-z
y,x,1/2-z
-y,-x,-z
-x+y,y,-z
x,x-y,-z
-x,-y,-z
-x+y,-x,1/2-z
y,-x+y,-z
x,y,1/2-z
x-y,x,-z
-y,x-y,1/2-z
-x+y,y,1/2+z
x,x-y,1/2+z
-y,-x,1/2+z
y,x,z
x-y,-y,z
-x,-x+y,z
loop_
_atom_site_type_symbol
_atom_site_label
_atom_site_fract_x
_atom_site_fract_y
_atom_site_fract_z
Si Si1 0.381410 0.236536 0.071473
Si Si2 0.482803 0.331420 0.427145
Si Si3 0.483002 0.054974 0.927706
Si Si4 0.765120 0.056771 0.928477
Si Si5 0.798981 0.855754 0.927797
Si Si6 0.574105 0.241216 0.430016
O O1 0.372591 0.230064 0.250000
O O2 0.437578 0.277525 0.031339
O O3 0.369116 0.184558 0.000000
O O4 0.345333 0.254440 0.001686
O O5 0.497442 0.334940 0.250000
O O6 0.466000 0.371432 0.469343
O O7 0.530018 0.343307 0.528631
O O8 0.489825 0.053110 0.750000
O O9 0.442057 0.000000 0.987999
O O10 0.536433 0.072865 0.000000
O O11 0.771434 0.065673 0.750000
O O12 0.725404 0.000000 0.969483
O O13 0.818498 0.072102 0.997276
O O14 0.790503 0.857251 0.750000
O O15 0.839098 0.839098 0.964597
O O16 0.819932 0.909966 0.000000
O O17 0.625452 0.250903 0.500000
O O18 0.560310 0.280155 0.500000
O O19 0.579642 0.247492 0.250000
#
# Coordination Sequence:
#
# PCOD8330059 Si02
#       6
#    24  24  24  24  24  24
#     4  11  23  38  57  80 111 149 188 230 276 331
#     4  10  22  39  59  85 115 150 191 232 278 329
#     4   9  18  34  56  82 112 145 183 227 274 324
#     4  10  21  37  57  81 110 144 184 231 279 328
#     4  10  20  34  54  80 109 142 181 226 277 331
#     4  12  25  42  64  89 118 149 185 230 281 336
#
# _framework density 19.523899
#
# number of rings (size 3 to 8) (size 9 to 14) (size 15 to 20)
#    0.000    1.667    0.000    4.667    0.000    7.333 
#    0.000    1.667    0.000    2.167    0.000    0.000 
#    0.000    0.000    0.000    0.000    0.000    0.000 
#
# Total GULP energy -1786296.131879 kJ/mol
# GULP energy per Si atom -12404.834249 kJ/mol
# Density = 1.947946 g / cm^3
# Si number density = 19.523899 Si / 1000 Ang^3
#
#
#
# Elastic Constant Matrix: (Units=GPa)
#
#
# Indices 1 2 3 4 5 6 
#
# 1 96.1021 34.4097 42.4044 0.0000 0.0000 0.0000
# 2 34.4097 96.1021 42.4044 0.0000 0.0000 0.0000
# 3 42.4044 42.4044 99.5138 0.0000 0.0000 0.0000
# 4 0.0000 0.0000 0.0000 31.7929 0.0000 0.0000
# 5 0.0000 0.0000 0.0000 0.0000 31.7929 0.0000
# 6 0.0000 0.0000 0.0000 0.0000 0.0000 30.8462
#
#
#
# Elastic Compliance Matrix: (Units=1/GPa)
#
#
# Indices 1 2 3 4 5 6 
#
# 1 0.013403 -0.002807 -0.004515 0.000000 0.000000 0.000000
# 2 -0.002807 0.013403 -0.004515 0.000000 0.000000 0.000000
# 3 -0.004515 -0.004515 0.013897 0.000000 0.000000 0.000000
# 4 0.000000 0.000000 0.000000 0.031454 0.000000 0.000000
# 5 0.000000 0.000000 0.000000 0.000000 0.031454 0.000000
# 6 0.000000 0.000000 0.000000 0.000000 0.000000 0.032419
#
#
# Mechanical properties :
#
#
# Convention : Reuss Voigt Hill
#
# Bulk Modulus (GPa) = 58.72535 58.90614 58.81574
# Shear Modulus (GPa) = 30.23361 30.38635 30.30998
#
# Velocity S-wave (km/s) = 3.93942 3.94936 3.94440
# Velocity P-wave (km/s) = 7.12994 7.14377 7.13686
#
# Compressibility (1/GPa) = 0.01702842
#
# Stress axis : x y z
#
# Youngs Moduli (GPa) = 74.61111 74.61111 71.95863
#
# Poissons Ratio (x) = 0.20941 0.32491
# Poissons Ratio (y) = 0.20941 0.32491
# Poissons Ratio (z) = 0.33689 0.33689
#
# Static dielectric constant tensor:
#      x y z
#    x 3.666670 0.000000 0.000000 
#    y 0.000000 3.666670 0.000000 
#    z 0.000000 0.000000 3.599300 
# 
# 
# High freq. dielectric constant tensor:
#      x y z
#    x 1.762910 0.000000 0.000000 
#    y 0.000000 1.762910 0.000000 
#    z 0.000000 0.000000 1.767750 
# 
# From -- ./inp_files/1520.got.cif
#   From: 2010.03.12/outbox.cif.g09.slc.cpg/sg193_1_cif.got.tgz:1520.got - 2010.04.01 12:20:39.
