data_PCOD8330300
_publ_section_title
;
Structure prediction by ZEFSAII (Michael W. Deem and Ramdas Pophale) SiO2 
 PCOD8330300
Probable space group: P 63/M M C
;
_chemical_formula_sum "Si O2"
_cell_formula_units_Z 108
_cell_length_a 17.405153
_cell_length_b 17.405153
_cell_length_c 27.363051
_cell_angle_alpha 90.000000
_cell_angle_beta 90.000000
_cell_angle_gamma 120.000000
_cell_volume 7178.783273
_symmetry_space_group_name_H-M "P 63/M M C"
_symmetry_group_IT_number 194
_symmetry_cell_setting 'hexagonal'
loop_
_space_group_symop_operation_xyz
x,y,z
x-y,x,1/2+z
-y,x-y,z
-x,-y,1/2+z
-x+y,-x,z
y,-x+y,1/2+z
x-y,-y,-z
-x,-x+y,-z
y,x,-z
-y,-x,1/2-z
-x+y,y,1/2-z
x,x-y,1/2-z
-x,-y,-z
-x+y,-x,1/2-z
y,-x+y,-z
x,y,1/2-z
x-y,x,-z
-y,x-y,1/2-z
-x+y,y,z
x,x-y,z
-y,-x,z
y,x,1/2+z
x-y,-y,1/2+z
-x,-x+y,1/2+z
loop_
_atom_site_type_symbol
_atom_site_label
_atom_site_fract_x
_atom_site_fract_y
_atom_site_fract_z
Si Si1 0.504638 0.667921 0.582565
Si Si2 0.424784 0.028318 0.338594
Si Si3 0.089755 0.457184 0.019719
Si Si4 0.518345 0.666831 0.750000
Si Si5 0.669351 0.155098 0.623471
O O1 0.522458 0.761229 0.603366
O O2 0.405414 0.594587 0.597911
O O3 0.573182 0.643824 0.608339
O O4 0.513307 0.673403 0.524097
O O5 0.511916 0.023831 0.328527
O O6 0.421751 0.090529 0.296025
O O7 0.344875 0.925933 0.340745
O O8 0.064309 0.532155 0.032785
O O9 0.131917 0.443355 0.068815
O O10 0.000000 0.370607 0.000000
O O11 0.418655 0.581346 0.750000
O O12 0.510856 0.755428 0.750000
O O13 0.585200 0.170399 0.624247
O O14 0.755596 0.244404 0.641738
#
# Coordination Sequence:
#
# PCOD8330300 Si02
#       5
#    24  24  24  12  24
#     4  10  17  25  38  58  83 112 144 177 210 250
#     4   9  18  30  43  59  84 113 142 179 223 259
#     4   9  15  25  39  55  81 114 148 181 215 252
#     4  10  19  32  49  68  88 114 146 176 207 252
#     4  10  18  29  44  62  84 116 156 191 217 248
#
# _framework density 15.044333
#
# number of rings (size 3 to 8) (size 9 to 14) (size 15 to 20)
#    0.000    2.444    2.222    1.889    0.000    0.000 
#    0.000    5.000    0.000    0.000    0.000    1.556 
#    0.000    0.000    0.000    9.333    0.000    6.889 
#
# Total GULP energy -1337953.102932 kJ/mol
# GULP energy per Si atom -12388.454657 kJ/mol
# Density = 1.501009 g / cm^3
# Si number density = 15.044333 Si / 1000 Ang^3
#
#
#
# Elastic Constant Matrix: (Units=GPa)
#
#
# Indices 1 2 3 4 5 6 
#
# 1 78.2988 37.9883 23.2737 0.0000 0.0000 0.0000
# 2 37.9883 78.2988 23.2737 0.0000 0.0000 0.0000
# 3 23.2737 23.2737 67.1327 0.0000 0.0000 0.0000
# 4 0.0000 0.0000 0.0000 15.2046 0.0000 0.0000
# 5 0.0000 0.0000 0.0000 0.0000 15.2046 0.0000
# 6 0.0000 0.0000 0.0000 0.0000 0.0000 20.1552
#
#
#
# Elastic Compliance Matrix: (Units=1/GPa)
#
#
# Indices 1 2 3 4 5 6 
#
# 1 0.017396 -0.007411 -0.003462 0.000000 0.000000 0.000000
# 2 -0.007411 0.017396 -0.003462 0.000000 0.000000 0.000000
# 3 -0.003462 -0.003462 0.017296 0.000000 0.000000 0.000000
# 4 0.000000 0.000000 0.000000 0.065770 0.000000 0.000000
# 5 0.000000 0.000000 0.000000 0.000000 0.065770 0.000000
# 6 0.000000 0.000000 0.000000 0.000000 0.000000 0.049615
#
#
# Mechanical properties :
#
#
# Convention : Reuss Voigt Hill
#
# Bulk Modulus (GPa) = 42.69931 43.64462 43.17197
# Shear Modulus (GPa) = 18.53787 19.39252 18.96519
#
# Velocity S-wave (km/s) = 3.51410 3.59419 3.55437
# Velocity P-wave (km/s) = 6.70143 6.80426 6.75304
#
# Compressibility (1/GPa) = 0.02341958
#
# Stress axis : x y z
#
# Youngs Moduli (GPa) = 57.48368 57.48368 57.81671
#
# Poissons Ratio (x) = 0.42602 0.20014
# Poissons Ratio (y) = 0.42602 0.20014
# Poissons Ratio (z) = 0.19899 0.19899
#
# Static dielectric constant tensor:
#      x y z
#    x 2.695570 0.000000 0.000000 
#    y 0.000000 2.695570 0.000000 
#    z 0.000000 0.000000 3.024260 
# 
# 
# High freq. dielectric constant tensor:
#      x y z
#    x 1.541070 0.000000 0.000000 
#    y 0.000000 1.541070 0.000000 
#    z 0.000000 0.000000 1.579650 
# 
# From -- ./inp_files/10623.got.cif
#   From: 2010.03.12/outbox.cif.g09.slc.cpg/sg194_6_cif.got.tgz:10623.got - 2010.04.01 12:26:19.
