data_PCOD8330068
_publ_section_title
;
Structure prediction by ZEFSAII (Michael W. Deem and Ramdas Pophale) SiO2 
 PCOD8330068
Probable space group: P 63/M C M
;
_chemical_formula_sum "Si O2"
_cell_formula_units_Z 104
_cell_length_a 14.228115
_cell_length_b 14.228115
_cell_length_c 31.055611
_cell_angle_alpha 90.000000
_cell_angle_beta 90.000000
_cell_angle_gamma 120.000000
_cell_volume 5444.593287
_symmetry_space_group_name_H-M "P 63/M C M"
_symmetry_group_IT_number 193
_symmetry_cell_setting 'hexagonal'
loop_
_space_group_symop_operation_xyz
x,y,z
x-y,x,1/2+z
-y,x-y,z
-x,-y,1/2+z
-x+y,-x,z
y,-x+y,1/2+z
x-y,-y,1/2-z
-x,-x+y,1/2-z
y,x,1/2-z
-y,-x,-z
-x+y,y,-z
x,x-y,-z
-x,-y,-z
-x+y,-x,1/2-z
y,-x+y,-z
x,y,1/2-z
x-y,x,-z
-y,x-y,1/2-z
-x+y,y,1/2+z
x,x-y,1/2+z
-y,-x,1/2+z
y,x,z
x-y,-y,z
-x,-x+y,z
loop_
_atom_site_type_symbol
_atom_site_label
_atom_site_fract_x
_atom_site_fract_y
_atom_site_fract_z
Si Si1 0.875704 0.452294 0.146682
Si Si2 0.126246 0.874731 0.299229
Si Si3 0.245909 0.122642 0.047864
Si Si4 0.410719 0.220427 0.877571
Si Si5 0.666668 0.333334 0.700306
O O1 0.850032 0.529636 0.116811
O O2 0.854658 0.348467 0.119139
O O3 0.790485 0.412470 0.185846
O O4 0.000000 0.518432 0.163521
O O5 0.148012 0.852470 0.250000
O O6 0.194167 0.843376 0.331353
O O7 0.000000 0.803880 0.311073
O O8 0.161448 0.000000 0.305261
O O9 0.201646 0.201646 0.061588
O O10 0.333063 0.134505 0.082505
O O11 0.146262 0.000000 0.048011
O O12 0.298423 0.149212 0.000000
O O13 0.666667 0.333334 0.750000
#
# Coordination Sequence:
#
# PCOD8330068 Si02
#       5
#    24  24  24  24   8
#     4  10  21  37  55  73 100 139 180 228 273 305
#     4  10  20  34  54  82 114 145 177 216 267 331
#     4  10  20  35  58  89 120 144 167 203 259 329
#     4  11  22  38  56  77 106 142 187 228 267 314
#     4   9  21  36  51  78 106 131 175 222 267 330
#
# _framework density 19.101517000000001
#
# number of rings (size 3 to 8) (size 9 to 14) (size 15 to 20)
#    0.000    1.846    0.000    5.077    0.000    6.000 
#    0.000    3.462    0.000    4.154    0.000    0.000 
#    0.000    0.000    0.000    0.000    0.000    0.000 
#
# Total GULP energy -1289616.342641 kJ/mol
# GULP energy per Si atom -12400.157141 kJ/mol
# Density = 1.905804 g / cm^3
# Si number density = 19.101517 Si / 1000 Ang^3
#
#
#
# Elastic Constant Matrix: (Units=GPa)
#
#
# Indices 1 2 3 4 5 6 
#
# 1 100.7386 24.2903 32.2245 0.0000 0.0001 -0.0001
# 2 24.2903 100.7378 32.2243 0.0000 0.0000 -0.0001
# 3 32.2245 32.2243 100.1222 0.0000 0.0001 -0.0001
# 4 0.0000 0.0000 0.0000 15.9980 0.0000 0.0000
# 5 0.0001 0.0000 0.0001 0.0000 15.9982 0.0000
# 6 -0.0001 -0.0001 -0.0001 0.0000 0.0000 38.2240
#
#
#
# Elastic Compliance Matrix: (Units=1/GPa)
#
#
# Indices 1 2 3 4 5 6 
#
# 1 0.011335 -0.001746 -0.003086 0.000000 0.000000 0.000000
# 2 -0.001746 0.011335 -0.003086 0.000000 0.000000 0.000000
# 3 -0.003086 -0.003086 0.011974 0.000000 0.000000 0.000000
# 4 0.000000 0.000000 0.000000 0.062508 0.000000 0.000000
# 5 0.000000 0.000000 0.000000 0.000000 0.062507 0.000000
# 6 0.000000 0.000000 0.000000 0.000000 0.000000 0.026162
#
#
# Mechanical properties :
#
#
# Convention : Reuss Voigt Hill
#
# Bulk Modulus (GPa) = 53.17016 53.23076 53.20046
# Shear Modulus (GPa) = 24.04694 28.23468 26.14081
#
# Velocity S-wave (km/s) = 3.55195 3.84883 3.70336
# Velocity P-wave (km/s) = 6.68714 6.90500 6.79694
#
# Compressibility (1/GPa) = 0.01880754
#
# Stress axis : x y z
#
# Youngs Moduli (GPa) = 88.22324 88.22261 83.51142
#
# Poissons Ratio (x) = 0.15403 0.25774
# Poissons Ratio (y) = 0.15403 0.25774
# Poissons Ratio (z) = 0.27228 0.27228
#
# Static dielectric constant tensor:
#      x y z
#    x 3.667170 0.000000 0.000000 
#    y 0.000000 3.667170 0.000000 
#    z 0.000000 0.000000 3.297090 
# 
# 
# High freq. dielectric constant tensor:
#      x y z
#    x 1.753790 0.000000 0.000000 
#    y 0.000000 1.753790 0.000000 
#    z 0.000000 0.000000 1.719680 
# 
# From -- ./inp_files/8853.got.cif
#   From: 2010.03.12/outbox.cif.g09.slc.cpg/sg193_5_cif.got.tgz:8853.got - 2010.04.01 12:20:39.
