data_PCOD8330623
_publ_section_title
;
Structure prediction by ZEFSAII (Michael W. Deem and Ramdas Pophale) SiO2 
 PCOD8330623
Probable space group: P 63/M M C
;
_chemical_formula_sum "Si O2"
_cell_formula_units_Z 144
_cell_length_a 21.166050
_cell_length_b 21.166050
_cell_length_c 20.206203
_cell_angle_alpha 90.000000
_cell_angle_beta 90.000000
_cell_angle_gamma 120.000000
_cell_volume 7839.619399
_symmetry_space_group_name_H-M "P 63/M M C"
_symmetry_group_IT_number 194
_symmetry_cell_setting 'hexagonal'
loop_
_space_group_symop_operation_xyz
x,y,z
x-y,x,1/2+z
-y,x-y,z
-x,-y,1/2+z
-x+y,-x,z
y,-x+y,1/2+z
x-y,-y,-z
-x,-x+y,-z
y,x,-z
-y,-x,1/2-z
-x+y,y,1/2-z
x,x-y,1/2-z
-x,-y,-z
-x+y,-x,1/2-z
y,-x+y,-z
x,y,1/2-z
x-y,x,-z
-y,x-y,1/2-z
-x+y,y,z
x,x-y,z
-y,-x,z
y,x,1/2+z
x-y,-y,1/2+z
-x,-x+y,1/2+z
loop_
_atom_site_type_symbol
_atom_site_label
_atom_site_fract_x
_atom_site_fract_y
_atom_site_fract_z
Si Si1 0.619995 0.667576 0.566816
Si Si2 0.194705 0.954177 0.879973
Si Si3 0.667086 0.191093 0.634426
Si Si4 0.151416 0.150344 0.250000
Si Si5 0.146605 0.000000 0.500000
Si Si6 0.810762 0.333162 0.022336
Si Si7 0.036773 0.592928 0.177402
O O1 0.650584 0.650584 0.500000
O O2 0.682090 0.734040 0.608640
O O3 0.554632 0.682455 0.550939
O O4 0.587322 0.601217 0.617362
O O5 0.126581 0.873420 0.885203
O O6 0.194491 0.992402 0.811651
O O7 0.194014 0.007388 0.936038
O O8 0.602592 0.205183 0.657895
O O9 0.742586 0.257415 0.660097
O O10 0.665646 0.183164 0.555987
O O11 0.660149 0.118457 0.666628
O O12 0.131624 0.065812 0.250000
O O13 0.075869 0.151738 0.250000
O O14 0.067991 0.932010 0.507004
O O15 0.820322 0.410161 0.047935
O O16 0.732015 0.267986 0.045797
O O17 0.008489 0.601547 0.250000
O O18 0.040630 0.520315 0.174332
#
# Coordination Sequence:
#
# PCOD8330623 Si02
#       7
#    24  24  24  12  12  24  24
#     4  12  22  37  60  84 114 155 197 230 283 355
#     4  10  22  38  56  83 117 150 189 242 293 344
#     4   9  17  31  52  79 112 149 189 233 280 330
#     4  10  21  40  64  88 115 152 198 246 298 356
#     4  10  19  34  56  82 113 150 194 242 290 334
#     4  10  20  35  58  87 115 146 190 245 297 343
#     4  10  22  38  56  81 114 147 189 240 283 336
#
# _framework density 18.36824
#
# number of rings (size 3 to 8) (size 9 to 14) (size 15 to 20)
#    0.000    1.833    2.500    2.000    1.167    2.333 
#    0.000    3.333    0.000    1.000    0.000    0.000 
#    0.000    1.333    0.000    0.000    0.000    0.000 
#
# Total GULP energy -1785199.509832 kJ/mol
# GULP energy per Si atom -12397.218818 kJ/mol
# Density = 1.832643 g / cm^3
# Si number density = 18.368240 Si / 1000 Ang^3
#
#
#
# Elastic Constant Matrix: (Units=GPa)
#
#
# Indices 1 2 3 4 5 6 
#
# 1 84.1037 39.0814 35.8866 0.0000 0.0000 0.0000
# 2 39.0814 84.1037 35.8866 0.0000 0.0000 0.0000
# 3 35.8866 35.8866 104.9249 0.0000 0.0000 0.0000
# 4 0.0000 0.0000 0.0000 22.7580 0.0000 0.0000
# 5 0.0000 0.0000 0.0000 0.0000 22.7580 0.0000
# 6 0.0000 0.0000 0.0000 0.0000 0.0000 22.5111
#
#
#
# Elastic Compliance Matrix: (Units=1/GPa)
#
#
# Indices 1 2 3 4 5 6 
#
# 1 0.016175 -0.006037 -0.003467 0.000000 0.000000 0.000000
# 2 -0.006037 0.016175 -0.003467 0.000000 0.000000 0.000000
# 3 -0.003467 -0.003467 0.011903 0.000000 0.000000 0.000000
# 4 0.000000 0.000000 0.000000 0.043941 0.000000 0.000000
# 5 0.000000 0.000000 0.000000 0.000000 0.043941 0.000000
# 6 0.000000 0.000000 0.000000 0.000000 0.000000 0.044423
#
#
# Mechanical properties :
#
#
# Convention : Reuss Voigt Hill
#
# Bulk Modulus (GPa) = 54.61804 54.98241 54.80023
# Shear Modulus (GPa) = 23.96912 24.42392 24.19652
#
# Velocity S-wave (km/s) = 3.61629 3.65044 3.63340
# Velocity P-wave (km/s) = 6.87287 6.91129 6.89211
#
# Compressibility (1/GPa) = 0.01830897
#
# Stress axis : x y z
#
# Youngs Moduli (GPa) = 61.82489 61.82489 84.01573
#
# Poissons Ratio (x) = 0.37321 0.29132
# Poissons Ratio (y) = 0.37321 0.29132
# Poissons Ratio (z) = 0.21438 0.21438
#
# Static dielectric constant tensor:
#      x y z
#    x 3.387940 0.000000 0.000000 
#    y 0.000000 3.387940 0.000000 
#    z 0.000000 0.000000 3.757160 
# 
# 
# High freq. dielectric constant tensor:
#      x y z
#    x 1.711950 0.000000 0.000000 
#    y 0.000000 1.711950 0.000000 
#    z 0.000000 0.000000 1.710490 
# 
# From -- ./inp_files/8302.got.cif
#   From: 2010.03.12/outbox.cif.g09.slc.cpg/sg194_5_cif.got.tgz:8302.got - 2010.04.01 12:26:19.
