data_PCOD8330201
_publ_section_title
;
Structure prediction by ZEFSAII (Michael W. Deem and Ramdas Pophale) SiO2 
 PCOD8330201
Probable space group: P 63/M C M
;
_chemical_formula_sum "Si O2"
_cell_formula_units_Z 144
_cell_length_a 31.172993
_cell_length_b 31.172993
_cell_length_c 8.595519
_cell_angle_alpha 90.000000
_cell_angle_beta 90.000000
_cell_angle_gamma 120.000000
_cell_volume 7233.687456
_symmetry_space_group_name_H-M "P 63/M C M"
_symmetry_group_IT_number 193
_symmetry_cell_setting 'hexagonal'
loop_
_space_group_symop_operation_xyz
x,y,z
x-y,x,1/2+z
-y,x-y,z
-x,-y,1/2+z
-x+y,-x,z
y,-x+y,1/2+z
x-y,-y,1/2-z
-x,-x+y,1/2-z
y,x,1/2-z
-y,-x,-z
-x+y,y,-z
x,x-y,-z
-x,-y,-z
-x+y,-x,1/2-z
y,-x+y,-z
x,y,1/2-z
x-y,x,-z
-y,x-y,1/2-z
-x+y,y,1/2+z
x,x-y,1/2+z
-y,-x,1/2+z
y,x,z
x-y,-y,z
-x,-x+y,z
loop_
_atom_site_type_symbol
_atom_site_label
_atom_site_fract_x
_atom_site_fract_y
_atom_site_fract_z
Si Si1 0.703134 0.757634 0.434721
Si Si2 0.515982 0.664378 0.933439
Si Si3 0.425339 0.666739 0.434325
Si Si4 0.943492 0.425393 0.432899
Si Si5 0.055309 0.201615 0.433036
Si Si6 0.849405 0.242365 0.064766
O O1 0.705104 0.759395 0.250000
O O2 0.715372 0.715372 0.494102
O O3 0.744988 0.811320 0.498483
O O4 0.649053 0.745073 0.491713
O O5 0.509428 0.662112 0.750000
O O6 0.463682 0.649473 0.011676
O O7 0.534642 0.627111 0.988581
O O8 0.555614 0.719199 0.986618
O O9 0.371335 0.628665 0.500000
O O10 0.442430 0.721215 0.500000
O O11 0.423453 0.667605 0.250000
O O12 0.930489 0.465245 0.500000
O O13 0.934266 0.421233 0.250000
O O14 0.000000 0.440761 0.473115
O O15 0.093033 0.186066 0.500000
O O16 0.060752 0.204738 0.250000
O O17 0.000000 0.159960 0.482764
O O18 0.845431 0.244268 0.250000
O O19 0.811619 0.188382 0.000000
#
# Coordination Sequence:
#
# PCOD8330201 Si02
#       6
#    24  24  24  24  24  24
#     4   8  16  32  54  79 107 140 179 224 274 328
#     4  12  25  41  60  85 118 155 195 239 285 333
#     4  12  25  44  67  93 122 153 191 234 285 341
#     4  10  21  39  63  90 119 152 191 235 285 339
#     4   9  17  30  49  74 103 135 173 218 268 322
#     4  11  22  37  57  81 111 149 190 231 279 336
#
# _framework density 19.906860999999999
#
# number of rings (size 3 to 8) (size 9 to 14) (size 15 to 20)
#    0.000    1.667    0.000    6.667    0.000    2.000 
#    0.000    2.500    0.000    3.667    0.000    0.000 
#    0.000    0.000    0.000    0.000    0.000    0.000 
#
# Total GULP energy -1785993.464778 kJ/mol
# GULP energy per Si atom -12402.732394 kJ/mol
# Density = 1.986155 g / cm^3
# Si number density = 19.906861 Si / 1000 Ang^3
#
#
#
# Elastic Constant Matrix: (Units=GPa)
#
#
# Indices 1 2 3 4 5 6 
#
# 1 104.7901 35.8019 38.9033 0.0000 0.0000 0.0000
# 2 35.8019 104.7901 38.9033 0.0000 0.0000 0.0000
# 3 38.9033 38.9033 109.7685 0.0000 0.0000 0.0000
# 4 0.0000 0.0000 0.0000 30.5364 0.0000 0.0000
# 5 0.0000 0.0000 0.0000 0.0000 30.5364 0.0000
# 6 0.0000 0.0000 0.0000 0.0000 0.0000 34.4941
#
#
#
# Elastic Compliance Matrix: (Units=1/GPa)
#
#
# Indices 1 2 3 4 5 6 
#
# 1 0.011672 -0.002823 -0.003136 0.000000 0.000000 0.000000
# 2 -0.002823 0.011672 -0.003136 0.000000 0.000000 0.000000
# 3 -0.003136 -0.003136 0.011333 0.000000 0.000000 0.000000
# 4 0.000000 0.000000 0.000000 0.032748 0.000000 0.000000
# 5 0.000000 0.000000 0.000000 0.000000 0.032748 0.000000
# 6 0.000000 0.000000 0.000000 0.000000 0.000000 0.028990
#
#
# Mechanical properties :
#
#
# Convention : Reuss Voigt Hill
#
# Bulk Modulus (GPa) = 60.65858 60.72951 60.69404
# Shear Modulus (GPa) = 32.71215 32.82940 32.77077
#
# Velocity S-wave (km/s) = 4.05811 4.06538 4.06175
# Velocity P-wave (km/s) = 7.24535 7.25324 7.24929
#
# Compressibility (1/GPa) = 0.01648571
#
# Stress axis : x y z
#
# Youngs Moduli (GPa) = 85.67696 85.67696 88.23858
#
# Poissons Ratio (x) = 0.24191 0.27671
# Poissons Ratio (y) = 0.24191 0.27671
# Poissons Ratio (z) = 0.26868 0.26868
#
# Static dielectric constant tensor:
#      x y z
#    x 3.808740 0.000000 0.000000 
#    y 0.000000 3.808740 0.000000 
#    z 0.000000 0.000000 3.487500 
# 
# 
# High freq. dielectric constant tensor:
#      x y z
#    x 1.780920 0.000000 0.000000 
#    y 0.000000 1.780920 0.000000 
#    z 0.000000 0.000000 1.769230 
# 
# From -- ./inp_files/1539.got.cif
#   From: 2010.03.12/outbox.cif.g09.slc.cpg/sg193_1_cif.got.tgz:1539.got - 2010.04.01 12:20:39.
