data_PCOD8330638
_publ_section_title
;
Structure prediction by ZEFSAII (Michael W. Deem and Ramdas Pophale) SiO2 
 PCOD8330638
Probable space group: P 63/M M C
;
_chemical_formula_sum "Si O2"
_cell_formula_units_Z 120
_cell_length_a 22.384381
_cell_length_b 22.384381
_cell_length_c 16.201767
_cell_angle_alpha 90.000000
_cell_angle_beta 90.000000
_cell_angle_gamma 120.000000
_cell_volume 7030.451109
_symmetry_space_group_name_H-M "P 63/M M C"
_symmetry_group_IT_number 194
_symmetry_cell_setting 'hexagonal'
loop_
_space_group_symop_operation_xyz
x,y,z
x-y,x,1/2+z
-y,x-y,z
-x,-y,1/2+z
-x+y,-x,z
y,-x+y,1/2+z
x-y,-y,-z
-x,-x+y,-z
y,x,-z
-y,-x,1/2-z
-x+y,y,1/2-z
x,x-y,1/2-z
-x,-y,-z
-x+y,-x,1/2-z
y,-x+y,-z
x,y,1/2-z
x-y,x,-z
-y,x-y,1/2-z
-x+y,y,z
x,x-y,z
-y,-x,z
y,x,1/2+z
x-y,-y,1/2+z
-x,-x+y,1/2+z
loop_
_atom_site_type_symbol
_atom_site_label
_atom_site_fract_x
_atom_site_fract_y
_atom_site_fract_z
Si Si1 0.330532 0.927695 0.911022
Si Si2 0.729579 0.595725 0.921529
Si Si3 0.255201 0.241115 0.912240
Si Si4 0.050821 0.458104 0.343632
Si Si5 0.763110 0.812627 0.750000
Si Si6 0.133354 0.731950 0.750000
O O1 0.314515 0.880169 0.830782
O O2 0.280962 0.959486 0.912734
O O3 0.409669 0.989396 0.906794
O O4 0.312728 0.881670 0.992595
O O5 0.785601 0.571201 0.915831
O O6 0.769420 0.678600 0.907841
O O7 0.670699 0.556051 0.852634
O O8 0.205586 0.207125 0.832445
O O9 0.213442 0.213442 0.000000
O O10 0.023272 0.438392 0.250000
O O11 0.075177 0.537589 0.363001
O O12 0.787557 0.893779 0.750000
O O13 0.680989 0.766591 0.750000
O O14 0.212913 0.787088 0.750000
#
# Coordination Sequence:
#
# PCOD8330638 Si02
#       6
#    24  24  24  24  12  12
#     4   9  16  29  45  67  94 124 159 202 247 299
#     4  10  20  31  47  71 100 131 166 205 256 316
#     4   8  16  27  41  64  96 125 157 198 239 290
#     4  10  20  34  51  71  97 132 175 219 259 307
#     4   9  16  26  43  62  83 124 170 197 224 272
#     4   9  14  22  41  64  91 120 150 187 236 290
#
# _framework density 17.068607
#
# number of rings (size 3 to 8) (size 9 to 14) (size 15 to 20)
#    0.000    2.800    1.000    2.400    4.200    6.800 
#    0.000    0.000    0.000    0.400    0.000    0.000 
#    0.000    0.000    0.000    2.800    0.000   46.600 
#
# Total GULP energy -1486921.920260 kJ/mol
# GULP energy per Si atom -12391.016002 kJ/mol
# Density = 1.702976 g / cm^3
# Si number density = 17.068607 Si / 1000 Ang^3
#
#
#
# Elastic Constant Matrix: (Units=GPa)
#
#
# Indices 1 2 3 4 5 6 
#
# 1 62.2980 38.8638 30.6984 0.0000 0.0000 0.0000
# 2 38.8638 62.2980 30.6984 0.0000 0.0000 0.0000
# 3 30.6984 30.6984 111.8745 0.0000 0.0000 0.0000
# 4 0.0000 0.0000 0.0000 15.6987 0.0000 0.0000
# 5 0.0000 0.0000 0.0000 0.0000 15.6987 0.0000
# 6 0.0000 0.0000 0.0000 0.0000 0.0000 11.7171
#
#
#
# Elastic Compliance Matrix: (Units=1/GPa)
#
#
# Indices 1 2 3 4 5 6 
#
# 1 0.027267 -0.015406 -0.003254 0.000000 0.000000 0.000000
# 2 -0.015406 0.027267 -0.003254 0.000000 0.000000 0.000000
# 3 -0.003254 -0.003254 0.010725 0.000000 0.000000 0.000000
# 4 0.000000 0.000000 0.000000 0.063699 0.000000 0.000000
# 5 0.000000 0.000000 0.000000 0.000000 0.063699 0.000000
# 6 0.000000 0.000000 0.000000 0.000000 0.000000 0.085345
#
#
# Mechanical properties :
#
#
# Convention : Reuss Voigt Hill
#
# Bulk Modulus (GPa) = 46.66916 48.55463 47.61190
# Shear Modulus (GPa) = 15.19874 17.70356 16.45115
#
# Velocity S-wave (km/s) = 2.98728 3.22405 3.10792
# Velocity P-wave (km/s) = 6.26896 6.50906 6.39014
#
# Compressibility (1/GPa) = 0.02142743
#
# Stress axis : x y z
#
# Youngs Moduli (GPa) = 36.67497 36.67497 93.24303
#
# Poissons Ratio (x) = 0.56502 0.30346
# Poissons Ratio (y) = 0.56502 0.30346
# Poissons Ratio (z) = 0.11936 0.11936
#
# Static dielectric constant tensor:
#      x y z
#    x 2.816890 0.000000 0.000000 
#    y 0.000000 2.816890 0.000000 
#    z 0.000000 0.000000 3.815620 
# 
# 
# High freq. dielectric constant tensor:
#      x y z
#    x 1.607420 0.000000 0.000000 
#    y 0.000000 1.607420 0.000000 
#    z 0.000000 0.000000 1.685020 
# 
# From -- ./inp_files/5160.got.cif
#   From: 2010.03.12/outbox.cif.g09.slc.cpg/sg194_3_cif.got.tgz:5160.got - 2010.04.01 12:26:19.
