data_PCOD8330570
_publ_section_title
;
Structure prediction by ZEFSAII (Michael W. Deem and Ramdas Pophale) SiO2 
 PCOD8330570
Probable space group: P 63/M M C
;
_chemical_formula_sum "Si O2"
_cell_formula_units_Z 132
_cell_length_a 17.287557
_cell_length_b 17.287557
_cell_length_c 28.490249
_cell_angle_alpha 90.000000
_cell_angle_beta 90.000000
_cell_angle_gamma 120.000000
_cell_volume 7373.847077
_symmetry_space_group_name_H-M "P 63/M M C"
_symmetry_group_IT_number 194
_symmetry_cell_setting 'hexagonal'
loop_
_space_group_symop_operation_xyz
x,y,z
x-y,x,1/2+z
-y,x-y,z
-x,-y,1/2+z
-x+y,-x,z
y,-x+y,1/2+z
x-y,-y,-z
-x,-x+y,-z
y,x,-z
-y,-x,1/2-z
-x+y,y,1/2-z
x,x-y,1/2-z
-x,-y,-z
-x+y,-x,1/2-z
y,-x+y,-z
x,y,1/2-z
x-y,x,-z
-y,x-y,1/2-z
-x+y,y,z
x,x-y,z
-y,-x,z
y,x,1/2+z
x-y,-y,1/2+z
-x,-x+y,1/2+z
loop_
_atom_site_type_symbol
_atom_site_label
_atom_site_fract_x
_atom_site_fract_y
_atom_site_fract_z
Si Si1 0.629917 0.723967 0.696596
Si Si2 0.333936 0.489517 0.978213
Si Si3 0.821249 0.821249 0.500000
Si Si4 0.606704 0.038160 0.111048
Si Si5 0.829977 0.000371 0.694289
Si Si6 0.738269 0.087143 0.558361
O O1 0.612346 0.688103 0.750000
O O2 0.612157 0.806079 0.692068
O O3 0.565291 0.644667 0.662199
O O4 0.730783 0.754142 0.680165
O O5 0.258690 0.517379 0.977695
O O6 0.426132 0.573869 0.995372
O O7 0.342029 0.458864 0.926338
O O8 0.310321 0.407567 0.012516
O O9 0.832445 0.916222 0.515033
O O10 0.755207 0.780580 0.455390
O O11 0.501118 0.002235 0.110827
O O12 0.623018 0.956157 0.099938
O O13 0.836081 0.999794 0.750000
O O14 0.850928 0.925464 0.673983
O O15 0.902923 0.097078 0.673603
O O16 0.816084 0.183917 0.575767
#
# Coordination Sequence:
#
# PCOD8330570 Si02
#       6
#    24  24  12  24  24  24
#     4   9  19  34  50  70  98 134 173 212 259 311
#     4  10  19  32  51  76 104 133 166 208 261 318
#     4  10  19  32  51  76 108 144 178 204 233 278
#     4  11  21  33  52  76 101 130 171 219 262 314
#     4   8  13  23  42  68  96 125 158 198 244 295
#     4  10  20  34  53  76 105 138 171 209 256 306
#
# _framework density 17.901104
#
# number of rings (size 3 to 8) (size 9 to 14) (size 15 to 20)
#    0.000    2.364    1.818    2.636    0.000    4.000 
#    0.000    0.000    0.000    0.727    0.000    6.364 
#    0.000    0.000    0.000    0.000    0.000    0.000 
#
# Total GULP energy -1636632.601299 kJ/mol
# GULP energy per Si atom -12398.731828 kJ/mol
# Density = 1.786036 g / cm^3
# Si number density = 17.901104 Si / 1000 Ang^3
#
#
#
# Elastic Constant Matrix: (Units=GPa)
#
#
# Indices 1 2 3 4 5 6 
#
# 1 95.9009 47.1297 35.2593 0.0000 0.0000 0.0000
# 2 47.1297 95.9009 35.2593 0.0000 0.0000 0.0000
# 3 35.2593 35.2593 75.3049 0.0000 0.0000 0.0000
# 4 0.0000 0.0000 0.0000 23.0443 0.0000 0.0000
# 5 0.0000 0.0000 0.0000 0.0000 23.0443 0.0000
# 6 0.0000 0.0000 0.0000 0.0000 0.0000 24.3856
#
#
#
# Elastic Compliance Matrix: (Units=1/GPa)
#
#
# Indices 1 2 3 4 5 6 
#
# 1 0.014797 -0.005707 -0.004256 0.000000 0.000000 0.000000
# 2 -0.005707 0.014797 -0.004256 0.000000 0.000000 0.000000
# 3 -0.004256 -0.004256 0.017265 0.000000 0.000000 0.000000
# 4 0.000000 0.000000 0.000000 0.043395 0.000000 0.000000
# 5 0.000000 0.000000 0.000000 0.000000 0.043395 0.000000
# 6 0.000000 0.000000 0.000000 0.000000 0.000000 0.041008
#
#
# Mechanical properties :
#
#
# Convention : Reuss Voigt Hill
#
# Bulk Modulus (GPa) = 54.28763 55.82257 55.05510
# Shear Modulus (GPa) = 23.89666 24.05874 23.97770
#
# Velocity S-wave (km/s) = 3.65763 3.67001 3.66383
# Velocity P-wave (km/s) = 6.94478 7.01500 6.97998
#
# Compressibility (1/GPa) = 0.01842040
#
# Stress axis : x y z
#
# Youngs Moduli (GPa) = 67.58181 67.58181 57.92100
#
# Poissons Ratio (x) = 0.38569 0.24652
# Poissons Ratio (y) = 0.38569 0.24652
# Poissons Ratio (z) = 0.28763 0.28763
#
# Static dielectric constant tensor:
#      x y z
#    x 3.400580 0.000000 0.000000 
#    y 0.000000 3.400580 0.000000 
#    z 0.000000 0.000000 3.000560 
# 
# 
# High freq. dielectric constant tensor:
#      x y z
#    x 1.691340 0.000000 0.000000 
#    y 0.000000 1.691340 0.000000 
#    z 0.000000 0.000000 1.665050 
# 
# From -- ./inp_files/9546.got.cif
#   From: 2010.03.12/outbox.cif.g09.slc.cpg/sg194_5_cif.got.tgz:9546.got - 2010.04.01 12:26:19.
