data_PCOD8330159
_publ_section_title
;
Structure prediction by ZEFSAII (Michael W. Deem and Ramdas Pophale) SiO2 
 PCOD8330159
Probable space group: P 63/M C M
;
_chemical_formula_sum "Si O2"
_cell_formula_units_Z 132
_cell_length_a 23.479511
_cell_length_b 23.479511
_cell_length_c 15.318543
_cell_angle_alpha 90.000000
_cell_angle_beta 90.000000
_cell_angle_gamma 120.000000
_cell_volume 7313.515518
_symmetry_space_group_name_H-M "P 63/M C M"
_symmetry_group_IT_number 193
_symmetry_cell_setting 'hexagonal'
loop_
_space_group_symop_operation_xyz
x,y,z
x-y,x,1/2+z
-y,x-y,z
-x,-y,1/2+z
-x+y,-x,z
y,-x+y,1/2+z
x-y,-y,1/2-z
-x,-x+y,1/2-z
y,x,1/2-z
-y,-x,-z
-x+y,y,-z
x,x-y,-z
-x,-y,-z
-x+y,-x,1/2-z
y,-x+y,-z
x,y,1/2-z
x-y,x,-z
-y,x-y,1/2-z
-x+y,y,1/2+z
x,x-y,1/2+z
-y,-x,1/2+z
y,x,z
x-y,-y,z
-x,-x+y,z
loop_
_atom_site_type_symbol
_atom_site_label
_atom_site_fract_x
_atom_site_fract_y
_atom_site_fract_z
Si Si1 0.609421 0.751379 0.149687
Si Si2 0.243715 0.167302 0.850890
Si Si3 0.604972 0.072908 0.853560
Si Si4 0.261580 0.745215 0.896317
Si Si5 0.077371 0.154741 0.500000
Si Si6 0.598645 0.406791 0.100562
O O1 0.621770 0.743994 0.250000
O O2 0.681673 0.800461 0.111369
O O3 0.575315 0.678546 0.106230
O O4 0.559132 0.779032 0.136830
O O5 0.237353 0.142880 0.750000
O O6 0.222392 0.222392 0.857911
O O7 0.198825 0.105727 0.912889
O O8 0.608089 0.073211 0.750000
O O9 0.571034 0.114601 0.884579
O O10 0.560695 0.000000 0.891157
O O11 0.335666 0.787576 0.858754
O O12 0.231744 0.671484 0.856820
O O13 0.257620 0.742381 0.000000
O O14 0.109010 0.109010 0.485453
O O15 0.605325 0.394676 0.000000
#
# Coordination Sequence:
#
# PCOD8330159 Si02
#       6
#    24  24  24  24  12  24
#     4   9  17  29  47  70  92 119 158 203 246 286
#     4   9  18  33  53  77 105 135 166 203 247 294
#     4   9  17  29  45  64  87 116 151 194 241 284
#     4   9  17  28  44  64  91 124 159 200 246 293
#     4  10  21  36  56  82 110 138 168 200 238 286
#     4   9  17  29  43  63  89 120 155 192 236 285
#
# _framework density 18.048774999999999
#
# number of rings (size 3 to 8) (size 9 to 14) (size 15 to 20)
#    0.000    2.909    0.000    1.000    1.273    5.091 
#    0.000    0.000    0.000    4.364    0.000    0.000 
#    0.000    0.000    0.000    0.000    0.000    0.000 
#
# Total GULP energy -1636015.985545 kJ/mol
# GULP energy per Si atom -12394.060497 kJ/mol
# Density = 1.800770 g / cm^3
# Si number density = 18.048775 Si / 1000 Ang^3
#
#
#
# Elastic Constant Matrix: (Units=GPa)
#
#
# Indices 1 2 3 4 5 6 
#
# 1 138.0018 79.4558 26.4096 0.0000 0.0000 0.0000
# 2 79.4558 138.0018 26.4096 0.0000 0.0000 0.0000
# 3 26.4096 26.4096 39.7153 0.0000 0.0000 0.0000
# 4 0.0000 0.0000 0.0000 20.0626 0.0000 0.0000
# 5 0.0000 0.0000 0.0000 0.0000 20.0626 0.0000
# 6 0.0000 0.0000 0.0000 0.0000 0.0000 29.2730
#
#
#
# Elastic Compliance Matrix: (Units=1/GPa)
#
#
# Indices 1 2 3 4 5 6 
#
# 1 0.011283 -0.005798 -0.003647 0.000000 0.000000 0.000000
# 2 -0.005798 0.011283 -0.003647 0.000000 0.000000 0.000000
# 3 -0.003647 -0.003647 0.030030 0.000000 0.000000 0.000000
# 4 0.000000 0.000000 0.000000 0.049844 0.000000 0.000000
# 5 0.000000 0.000000 0.000000 0.000000 0.049844 0.000000
# 6 0.000000 0.000000 0.000000 0.000000 0.000000 0.034161
#
#
# Mechanical properties :
#
#
# Convention : Reuss Voigt Hill
#
# Bulk Modulus (GPa) = 37.86388 64.47431 51.16910
# Shear Modulus (GPa) = 22.58038 26.10924 24.34481
#
# Velocity S-wave (km/s) = 3.54089 3.80754 3.67663
# Velocity P-wave (km/s) = 6.14340 7.42493 6.81436
#
# Compressibility (1/GPa) = 0.02641039
#
# Stress axis : x y z
#
# Youngs Moduli (GPa) = 88.63270 88.63270 33.30058
#
# Poissons Ratio (x) = 0.51390 0.12145
# Poissons Ratio (y) = 0.51390 0.12145
# Poissons Ratio (z) = 0.32324 0.32324
#
# Static dielectric constant tensor:
#      x y z
#    x 3.434480 0.000000 0.000000 
#    y 0.000000 3.434480 0.000000 
#    z 0.000000 0.000000 3.073930 
# 
# 
# High freq. dielectric constant tensor:
#      x y z
#    x 1.693750 0.000000 0.000000 
#    y 0.000000 1.693750 0.000000 
#    z 0.000000 0.000000 1.673800 
# 
# From -- ./inp_files/4145.got.cif
#   From: 2010.03.12/outbox.cif.g09.slc.cpg/sg193_3_cif.got.tgz:4145.got - 2010.04.01 12:20:39.
