data_PCOD8330697
_publ_section_title
;
Structure prediction by ZEFSAII (Michael W. Deem and Ramdas Pophale) SiO2 
 PCOD8330697
Probable space group: P 63/M M C
;
_chemical_formula_sum "Si O2"
_cell_formula_units_Z 144
_cell_length_a 23.940347
_cell_length_b 23.940347
_cell_length_c 17.881735
_cell_angle_alpha 90.000000
_cell_angle_beta 90.000000
_cell_angle_gamma 120.000000
_cell_volume 8875.670438
_symmetry_space_group_name_H-M "P 63/M M C"
_symmetry_group_IT_number 194
_symmetry_cell_setting 'hexagonal'
loop_
_space_group_symop_operation_xyz
x,y,z
x-y,x,1/2+z
-y,x-y,z
-x,-y,1/2+z
-x+y,-x,z
y,-x+y,1/2+z
x-y,-y,-z
-x,-x+y,-z
y,x,-z
-y,-x,1/2-z
-x+y,y,1/2-z
x,x-y,1/2-z
-x,-y,-z
-x+y,-x,1/2-z
y,-x+y,-z
x,y,1/2-z
x-y,x,-z
-y,x-y,1/2-z
-x+y,y,z
x,x-y,z
-y,-x,z
y,x,1/2+z
x-y,-y,1/2+z
-x,-x+y,1/2+z
loop_
_atom_site_type_symbol
_atom_site_label
_atom_site_fract_x
_atom_site_fract_y
_atom_site_fract_z
Si Si1 0.731744 0.929892 0.663609
Si Si2 0.615857 0.506996 0.833794
Si Si3 0.268361 0.196558 0.664043
Si Si4 0.396478 0.134250 0.915905
Si Si5 0.043583 0.458743 0.833812
Si Si6 0.369287 0.307794 0.056318
O O1 0.708970 0.919601 0.750000
O O2 0.746254 0.873127 0.638487
O O3 0.678948 0.933210 0.613196
O O4 0.795412 0.000758 0.653040
O O5 0.636993 0.501888 0.750000
O O6 0.564437 0.435564 0.863900
O O7 0.677874 0.538699 0.885437
O O8 0.583808 0.551120 0.834594
O O9 0.289380 0.205386 0.750000
O O10 0.250497 0.125249 0.635074
O O11 0.330107 0.253242 0.620424
O O12 0.400346 0.200173 0.894571
O O13 0.395452 0.124314 0.004458
O O14 0.068478 0.455647 0.750000
O O15 0.065732 0.532866 0.854117
O O16 0.069760 0.430051 0.896615
O O17 0.339350 0.339350 0.000000
#
# Coordination Sequence:
#
# PCOD8330697 Si02
#       6
#    24  24  24  24  24  24
#     4  10  20  34  50  67  93 132 172 205 244 300
#     4   9  17  30  47  68  94 123 154 187 228 280
#     4   9  17  30  48  69  93 122 160 206 252 298
#     4  11  21  31  45  69  99 128 162 200 241 284
#     4   9  18  32  50  71  96 125 156 188 229 285
#     4  12  20  30  46  71 100 130 157 197 241 289
#
# _framework density 16.224126999999999
#
# number of rings (size 3 to 8) (size 9 to 14) (size 15 to 20)
#    0.000    2.000    3.333    2.500    0.000    4.667 
#    0.000    0.000    0.000    0.667    0.000    2.333 
#    0.000    0.667    0.000    0.000    0.000    8.167 
#
# Total GULP energy -1784448.307864 kJ/mol
# GULP energy per Si atom -12392.002138 kJ/mol
# Density = 1.618720 g / cm^3
# Si number density = 16.224127 Si / 1000 Ang^3
#
#
#
# Elastic Constant Matrix: (Units=GPa)
#
#
# Indices 1 2 3 4 5 6 
#
# 1 85.4657 46.7506 41.2601 0.0000 0.0000 0.0000
# 2 46.7506 85.4657 41.2601 0.0000 0.0000 0.0000
# 3 41.2601 41.2601 77.8605 0.0000 0.0000 0.0000
# 4 0.0000 0.0000 0.0000 18.0814 0.0000 0.0000
# 5 0.0000 0.0000 0.0000 0.0000 18.0814 0.0000
# 6 0.0000 0.0000 0.0000 0.0000 0.0000 19.3576
#
#
#
# Elastic Compliance Matrix: (Units=1/GPa)
#
#
# Indices 1 2 3 4 5 6 
#
# 1 0.018565 -0.007264 -0.005989 0.000000 0.000000 0.000000
# 2 -0.007264 0.018565 -0.005989 0.000000 0.000000 0.000000
# 3 -0.005989 -0.005989 0.019191 0.000000 0.000000 0.000000
# 4 0.000000 0.000000 0.000000 0.055305 0.000000 0.000000
# 5 0.000000 0.000000 0.000000 0.000000 0.055305 0.000000
# 6 0.000000 0.000000 0.000000 0.000000 0.000000 0.051659
#
#
# Mechanical properties :
#
#
# Convention : Reuss Voigt Hill
#
# Bulk Modulus (GPa) = 56.06030 56.37040 56.21535
# Shear Modulus (GPa) = 19.00989 19.07216 19.04103
#
# Velocity S-wave (km/s) = 3.42673 3.43234 3.42954
# Velocity P-wave (km/s) = 7.09121 7.10832 7.09977
#
# Compressibility (1/GPa) = 0.01783794
#
# Stress axis : x y z
#
# Youngs Moduli (GPa) = 53.86363 53.86363 52.10880
#
# Poissons Ratio (x) = 0.39128 0.31207
# Poissons Ratio (y) = 0.39128 0.31207
# Poissons Ratio (z) = 0.32257 0.32257
#
# Static dielectric constant tensor:
#      x y z
#    x 3.129840 0.000000 0.000000 
#    y 0.000000 3.129840 0.000000 
#    z 0.000000 0.000000 3.343780 
# 
# 
# High freq. dielectric constant tensor:
#      x y z
#    x 1.602820 0.000000 0.000000 
#    y 0.000000 1.602820 0.000000 
#    z 0.000000 0.000000 1.633350 
# 
# From -- ./inp_files/6998.got.cif
#   From: 2010.03.12/outbox.cif.g09.slc.cpg/sg194_4_cif.got.tgz:6998.got - 2010.04.01 12:26:19.
