data_PCOD8330480
_publ_section_title
;
Structure prediction by ZEFSAII (Michael W. Deem and Ramdas Pophale) SiO2 
 PCOD8330480
Probable space group: P 63/M M C
;
_chemical_formula_sum "Si O2"
_cell_formula_units_Z 132
_cell_length_a 17.039175
_cell_length_b 17.039175
_cell_length_c 30.124259
_cell_angle_alpha 90.000000
_cell_angle_beta 90.000000
_cell_angle_gamma 120.000000
_cell_volume 7574.328407
_symmetry_space_group_name_H-M "P 63/M M C"
_symmetry_group_IT_number 194
_symmetry_cell_setting 'hexagonal'
loop_
_space_group_symop_operation_xyz
x,y,z
x-y,x,1/2+z
-y,x-y,z
-x,-y,1/2+z
-x+y,-x,z
y,-x+y,1/2+z
x-y,-y,-z
-x,-x+y,-z
y,x,-z
-y,-x,1/2-z
-x+y,y,1/2-z
x,x-y,1/2-z
-x,-y,-z
-x+y,-x,1/2-z
y,-x+y,-z
x,y,1/2-z
x-y,x,-z
-y,x-y,1/2-z
-x+y,y,z
x,x-y,z
-y,-x,z
y,x,1/2+z
x-y,-y,1/2+z
-x,-x+y,1/2+z
loop_
_atom_site_type_symbol
_atom_site_label
_atom_site_fract_x
_atom_site_fract_y
_atom_site_fract_z
Si Si1 0.564707 0.612036 0.339378
Si Si2 0.680204 0.752084 0.626957
Si Si3 0.666107 0.511446 0.573319
Si Si4 0.237187 0.946559 0.455215
Si Si5 0.000381 0.827431 0.200407
Si Si6 0.666707 0.521703 0.750000
O O1 0.491759 0.508242 0.331766
O O2 0.650024 0.606023 0.359530
O O3 0.533057 0.660814 0.375151
O O4 0.578254 0.665542 0.293143
O O5 0.639323 0.819662 0.619693
O O6 0.737696 0.756295 0.584080
O O7 0.741958 0.781107 0.669670
O O8 0.739771 0.479541 0.568887
O O9 0.569522 0.430479 0.555962
O O10 0.694907 0.600832 0.543801
O O11 0.134084 0.865917 0.448887
O O12 0.246817 0.000000 0.500000
O O13 0.008780 0.796994 0.250000
O O14 0.935234 0.870467 0.200337
O O15 0.097933 0.902068 0.182193
O O16 0.580554 0.419447 0.750000
O O17 0.757865 0.515730 0.750000
#
# Coordination Sequence:
#
# PCOD8330480 Si02
#       6
#    24  24  24  24  24  12
#     4   9  19  33  47  69  99 130 163 200 241 286
#     4  10  20  34  52  72  94 125 165 206 248 293
#     4   9  17  30  49  73 101 131 163 198 240 291
#     4  10  20  34  52  73  98 129 166 208 251 297
#     4   9  17  28  43  65  94 125 156 191 233 281
#     4  10  19  30  47  72 104 138 168 194 227 276
#
# _framework density 17.427288000000001
#
# number of rings (size 3 to 8) (size 9 to 14) (size 15 to 20)
#    0.000    2.545    0.000    2.091    1.273    3.273 
#    0.000    1.818    0.000    4.727    0.000    0.000 
#    0.000    0.000    0.000    0.000    0.000    0.000 
#
# Total GULP energy -1635919.268136 kJ/mol
# GULP energy per Si atom -12393.327789 kJ/mol
# Density = 1.738762 g / cm^3
# Si number density = 17.427288 Si / 1000 Ang^3
#
#
#
# Elastic Constant Matrix: (Units=GPa)
#
#
# Indices 1 2 3 4 5 6 
#
# 1 77.6280 35.0003 24.3992 0.0000 0.0000 0.0000
# 2 35.0003 77.6280 24.3992 0.0000 0.0000 0.0000
# 3 24.3992 24.3992 72.1190 0.0000 0.0000 0.0000
# 4 0.0000 0.0000 0.0000 22.2788 0.0000 0.0000
# 5 0.0000 0.0000 0.0000 0.0000 22.2788 0.0000
# 6 0.0000 0.0000 0.0000 0.0000 0.0000 21.3139
#
#
#
# Elastic Compliance Matrix: (Units=1/GPa)
#
#
# Indices 1 2 3 4 5 6 
#
# 1 0.016931 -0.006528 -0.003520 0.000000 0.000000 0.000000
# 2 -0.006528 0.016931 -0.003520 0.000000 0.000000 0.000000
# 3 -0.003520 -0.003520 0.016248 0.000000 0.000000 0.000000
# 4 0.000000 0.000000 0.000000 0.044886 0.000000 0.000000
# 5 0.000000 0.000000 0.000000 0.000000 0.044886 0.000000
# 6 0.000000 0.000000 0.000000 0.000000 0.000000 0.046918
#
#
# Mechanical properties :
#
#
# Convention : Reuss Voigt Hill
#
# Bulk Modulus (GPa) = 43.52369 43.88581 43.70475
# Shear Modulus (GPa) = 22.56395 22.74605 22.65500
#
# Velocity S-wave (km/s) = 3.60216 3.61667 3.60943
# Velocity P-wave (km/s) = 6.50611 6.53279 6.51946
#
# Compressibility (1/GPa) = 0.02297599
#
# Stress axis : x y z
#
# Youngs Moduli (GPa) = 59.06210 59.06210 61.54760
#
# Poissons Ratio (x) = 0.38553 0.21663
# Poissons Ratio (y) = 0.38553 0.21663
# Poissons Ratio (z) = 0.20789 0.20789
#
# Static dielectric constant tensor:
#      x y z
#    x 3.399310 0.000000 0.000000 
#    y 0.000000 3.399310 0.000000 
#    z 0.000000 0.000000 3.227960 
# 
# 
# High freq. dielectric constant tensor:
#      x y z
#    x 1.663190 0.000000 0.000000 
#    y 0.000000 1.663190 0.000000 
#    z 0.000000 0.000000 1.673680 
# 
# From -- ./inp_files/10754.got.cif
#   From: 2010.03.12/outbox.cif.g09.slc.cpg/sg194_6_cif.got.tgz:10754.got - 2010.04.01 12:26:19.
