data_PCOD8330440
_publ_section_title
;
Structure prediction by ZEFSAII (Michael W. Deem and Ramdas Pophale) SiO2 
 PCOD8330440
Probable space group: P 63/M M C
;
_chemical_formula_sum "Si O2"
_cell_formula_units_Z 132
_cell_length_a 17.043491
_cell_length_b 17.043491
_cell_length_c 32.818908
_cell_angle_alpha 90.000000
_cell_angle_beta 90.000000
_cell_angle_gamma 120.000000
_cell_volume 8256.041539
_symmetry_space_group_name_H-M "P 63/M M C"
_symmetry_group_IT_number 194
_symmetry_cell_setting 'hexagonal'
loop_
_space_group_symop_operation_xyz
x,y,z
x-y,x,1/2+z
-y,x-y,z
-x,-y,1/2+z
-x+y,-x,z
y,-x+y,1/2+z
x-y,-y,-z
-x,-x+y,-z
y,x,-z
-y,-x,1/2-z
-x+y,y,1/2-z
x,x-y,1/2-z
-x,-y,-z
-x+y,-x,1/2-z
y,-x+y,-z
x,y,1/2-z
x-y,x,-z
-y,x-y,1/2-z
-x+y,y,z
x,x-y,z
-y,-x,z
y,x,1/2+z
x-y,-y,1/2+z
-x,-x+y,1/2+z
loop_
_atom_site_type_symbol
_atom_site_label
_atom_site_fract_x
_atom_site_fract_y
_atom_site_fract_z
Si Si1 0.042569 0.612264 0.331349
Si Si2 0.846317 0.513842 0.357550
Si Si3 0.517985 0.852472 0.250000
Si Si4 0.273948 0.902078 0.935859
Si Si5 0.903774 0.273598 0.589811
Si Si6 0.845993 0.332380 0.512287
O O1 0.057686 0.528843 0.341576
O O2 0.086749 0.658060 0.288666
O O3 0.093850 0.687282 0.365704
O O4 0.934711 0.576635 0.329937
O O5 0.762423 0.524845 0.341817
O O6 0.818008 0.409004 0.354649
O O7 0.870338 0.544989 0.404366
O O8 0.413599 0.827197 0.250000
O O9 0.521134 0.760567 0.250000
O O10 0.166605 0.833396 0.935423
O O11 0.287078 0.998929 0.923246
O O12 0.315588 0.907864 0.980396
O O13 0.833505 0.166496 0.589573
O O14 0.874046 0.325689 0.558141
O O15 0.862342 0.431171 0.504604
O O16 0.741005 0.258996 0.504487
#
# Coordination Sequence:
#
# PCOD8330440 Si02
#       6
#    24  24  12  24  24  24
#     4   9  18  31  46  65  89 115 142 176 217 258
#     4   9  16  27  44  66  92 122 153 180 207 243
#     4  10  19  32  49  66  84 108 142 182 221 262
#     4   9  18  30  43  61  86 116 149 184 217 249
#     4  10  19  30  45  64  85 112 144 178 219 263
#     4  10  19  29  42  62  89 119 148 177 209 247
#
# _framework density 15.988292
#
# number of rings (size 3 to 8) (size 9 to 14) (size 15 to 20)
#    0.000    2.545    0.000    2.636    0.000    2.909 
#    0.000    2.273    0.000    6.182    0.000    1.273 
#    0.000    4.364    0.000    1.818    0.000    1.455 
#
# Total GULP energy -1636801.859926 kJ/mol
# GULP energy per Si atom -12400.014090 kJ/mol
# Density = 1.595190 g / cm^3
# Si number density = 15.988292 Si / 1000 Ang^3
#
#
#
# Elastic Constant Matrix: (Units=GPa)
#
#
# Indices 1 2 3 4 5 6 
#
# 1 101.7752 63.4888 52.1087 0.0000 0.0000 0.0000
# 2 63.4888 101.7752 52.1087 0.0000 0.0000 0.0000
# 3 52.1087 52.1087 110.2179 0.0000 0.0000 0.0000
# 4 0.0000 0.0000 0.0000 20.7646 0.0000 0.0000
# 5 0.0000 0.0000 0.0000 0.0000 20.7646 0.0000
# 6 0.0000 0.0000 0.0000 0.0000 0.0000 19.1432
#
#
#
# Elastic Compliance Matrix: (Units=1/GPa)
#
#
# Indices 1 2 3 4 5 6 
#
# 1 0.017370 -0.008749 -0.004076 0.000000 0.000000 0.000000
# 2 -0.008749 0.017370 -0.004076 0.000000 0.000000 0.000000
# 3 -0.004076 -0.004076 0.012927 0.000000 0.000000 0.000000
# 4 0.000000 0.000000 0.000000 0.048159 0.000000 0.000000
# 5 0.000000 0.000000 0.000000 0.000000 0.048159 0.000000
# 6 0.000000 0.000000 0.000000 0.000000 0.000000 0.052238
#
#
# Mechanical properties :
#
#
# Convention : Reuss Voigt Hill
#
# Bulk Modulus (GPa) = 72.12037 72.13119 72.12578
# Shear Modulus (GPa) = 21.30871 21.87199 21.59035
#
# Velocity S-wave (km/s) = 3.65467 3.70266 3.67875
# Velocity P-wave (km/s) = 7.93820 7.96822 7.95322
#
# Compressibility (1/GPa) = 0.01386571
#
# Stress axis : x y z
#
# Youngs Moduli (GPa) = 57.57026 57.57026 77.35758
#
# Poissons Ratio (x) = 0.50367 0.31531
# Poissons Ratio (y) = 0.50367 0.31531
# Poissons Ratio (z) = 0.23465 0.23465
#
# Static dielectric constant tensor:
#      x y z
#    x 3.004810 0.000000 0.000000 
#    y 0.000000 3.004810 0.000000 
#    z 0.000000 0.000000 3.036920 
# 
# 
# High freq. dielectric constant tensor:
#      x y z
#    x 1.603790 0.000000 0.000000 
#    y 0.000000 1.603790 0.000000 
#    z 0.000000 0.000000 1.612250 
# 
# From -- ./inp_files/10757.got.cif
#   From: 2010.03.12/outbox.cif.g09.slc.cpg/sg194_6_cif.got.tgz:10757.got - 2010.04.01 12:26:19.
