data_PCOD8330695
_publ_section_title
;
Structure prediction by ZEFSAII (Michael W. Deem and Ramdas Pophale) SiO2 
 PCOD8330695
Probable space group: P 63/M M C
;
_chemical_formula_sum "Si O2"
_cell_formula_units_Z 144
_cell_length_a 31.188565
_cell_length_b 31.188565
_cell_length_c 8.794063
_cell_angle_alpha 90.000000
_cell_angle_beta 90.000000
_cell_angle_gamma 120.000000
_cell_volume 7408.170865
_symmetry_space_group_name_H-M "P 63/M M C"
_symmetry_group_IT_number 194
_symmetry_cell_setting 'hexagonal'
loop_
_space_group_symop_operation_xyz
x,y,z
x-y,x,1/2+z
-y,x-y,z
-x,-y,1/2+z
-x+y,-x,z
y,-x+y,1/2+z
x-y,-y,-z
-x,-x+y,-z
y,x,-z
-y,-x,1/2-z
-x+y,y,1/2-z
x,x-y,1/2-z
-x,-y,-z
-x+y,-x,1/2-z
y,-x+y,-z
x,y,1/2-z
x-y,x,-z
-y,x-y,1/2-z
-x+y,y,z
x,x-y,z
-y,-x,z
y,x,1/2+z
x-y,-y,1/2+z
-x,-x+y,1/2+z
loop_
_atom_site_type_symbol
_atom_site_label
_atom_site_fract_x
_atom_site_fract_y
_atom_site_fract_z
Si Si1 0.853518 0.244998 0.425503
Si Si2 0.851360 0.050606 0.571825
Si Si3 0.234926 0.568116 0.574662
Si Si4 0.425425 0.476846 0.571030
Si Si5 0.664573 0.520597 0.572517
Si Si6 0.239482 0.948693 0.570250
O O1 0.854308 0.259747 0.250000
O O2 0.811378 0.188623 0.454688
O O3 0.841653 0.280046 0.527927
O O4 0.905815 0.251110 0.475150
O O5 0.840205 0.043210 0.750000
O O6 0.906947 0.093054 0.536366
O O7 0.813582 0.065169 0.497078
O O8 0.844228 0.000000 0.500000
O O9 0.221297 0.552369 0.750000
O O10 0.281616 0.563232 0.523287
O O11 0.248832 0.624416 0.548956
O O12 0.188227 0.533129 0.472205
O O13 0.435260 0.435260 0.500000
O O14 0.423342 0.470527 0.750000
O O15 0.468539 0.531462 0.521044
O O16 0.373208 0.467490 0.513544
O O17 0.656092 0.521718 0.750000
O O18 0.237679 0.954046 0.750000
O O19 0.282485 0.000000 0.500000
#
# Coordination Sequence:
#
# PCOD8330695 Si02
#       6
#    24  24  24  24  24  24
#     4  10  22  40  59  78 106 148 193 234 278 328
#     4  10  20  33  52  79 109 142 180 223 272 324
#     4  10  21  39  63  88 114 146 186 232 282 336
#     4  10  21  39  63  88 114 146 185 230 279 329
#     4  12  25  38  56  84 117 152 188 228 276 331
#     4  10  20  35  57  83 110 142 180 224 274 324
#
# _framework density 19.437996999999999
#
# number of rings (size 3 to 8) (size 9 to 14) (size 15 to 20)
#    0.000    1.667    0.000    5.667    0.000   10.667 
#    0.000    1.667    0.000    1.167    0.000    0.000 
#    0.000    0.000    0.000    0.000    0.000    0.000 
#
# Total GULP energy -1786410.549771 kJ/mol
# GULP energy per Si atom -12405.628818 kJ/mol
# Density = 1.939375 g / cm^3
# Si number density = 19.437997 Si / 1000 Ang^3
#
#
#
# Elastic Constant Matrix: (Units=GPa)
#
#
# Indices 1 2 3 4 5 6 
#
# 1 100.5384 34.9682 33.5879 0.0000 0.0000 0.0000
# 2 34.9682 100.5384 33.5879 0.0000 0.0000 0.0000
# 3 33.5879 33.5879 84.8305 0.0000 0.0000 0.0000
# 4 0.0000 0.0000 0.0000 27.1419 0.0000 0.0000
# 5 0.0000 0.0000 0.0000 0.0000 27.1419 0.0000
# 6 0.0000 0.0000 0.0000 0.0000 0.0000 32.7851
#
#
#
# Elastic Compliance Matrix: (Units=1/GPa)
#
#
# Indices 1 2 3 4 5 6 
#
# 1 0.012216 -0.003034 -0.003636 0.000000 0.000000 0.000000
# 2 -0.003034 0.012216 -0.003636 0.000000 0.000000 0.000000
# 3 -0.003636 -0.003636 0.014667 0.000000 0.000000 0.000000
# 4 0.000000 0.000000 0.000000 0.036843 0.000000 0.000000
# 5 0.000000 0.000000 0.000000 0.000000 0.036843 0.000000
# 6 0.000000 0.000000 0.000000 0.000000 0.000000 0.030502
#
#
# Mechanical properties :
#
#
# Convention : Reuss Voigt Hill
#
# Bulk Modulus (GPa) = 54.08627 54.46616 54.27621
# Shear Modulus (GPa) = 29.40096 29.66465 29.53281
#
# Velocity S-wave (km/s) = 3.89337 3.91079 3.90209
# Velocity P-wave (km/s) = 6.93517 6.96230 6.94875
#
# Compressibility (1/GPa) = 0.01848898
#
# Stress axis : x y z
#
# Youngs Moduli (GPa) = 81.85715 81.85715 68.17963
#
# Poissons Ratio (x) = 0.24839 0.24787
# Poissons Ratio (y) = 0.24839 0.24787
# Poissons Ratio (z) = 0.29759 0.29759
#
# Static dielectric constant tensor:
#      x y z
#    x 3.586250 0.000000 0.000000 
#    y 0.000000 3.586250 0.000000 
#    z 0.000000 0.000000 3.578230 
# 
# 
# High freq. dielectric constant tensor:
#      x y z
#    x 1.760730 0.000000 0.000000 
#    y 0.000000 1.760730 0.000000 
#    z 0.000000 0.000000 1.760600 
# 
# From -- ./inp_files/2167.got.cif
#   From: 2010.03.12/outbox.cif.g09.slc.cpg/sg194_2_cif.got.tgz:2167.got - 2010.04.01 12:26:19.
