data_PCOD8330333
_publ_section_title
;
Structure prediction by ZEFSAII (Michael W. Deem and Ramdas Pophale) SiO2 
 PCOD8330333
Probable space group: P 63/M M C
;
_chemical_formula_sum "Si O2"
_cell_formula_units_Z 156
_cell_length_a 20.702386
_cell_length_b 20.702386
_cell_length_c 33.001477
_cell_angle_alpha 90.000000
_cell_angle_beta 90.000000
_cell_angle_gamma 120.000000
_cell_volume 12249.117842
_symmetry_space_group_name_H-M "P 63/M M C"
_symmetry_group_IT_number 194
_symmetry_cell_setting 'hexagonal'
loop_
_space_group_symop_operation_xyz
x,y,z
x-y,x,1/2+z
-y,x-y,z
-x,-y,1/2+z
-x+y,-x,z
y,-x+y,1/2+z
x-y,-y,-z
-x,-x+y,-z
y,x,-z
-y,-x,1/2-z
-x+y,y,1/2-z
x,x-y,1/2-z
-x,-y,-z
-x+y,-x,1/2-z
y,-x+y,-z
x,y,1/2-z
x-y,x,-z
-y,x-y,1/2-z
-x+y,y,z
x,x-y,z
-y,-x,z
y,x,1/2+z
x-y,-y,1/2+z
-x,-x+y,1/2+z
loop_
_atom_site_type_symbol
_atom_site_label
_atom_site_fract_x
_atom_site_fract_y
_atom_site_fract_z
Si Si1 0.817630 0.485272 0.865874
Si Si2 0.079586 0.462913 0.676634
Si Si3 0.332448 0.513913 0.750000
Si Si4 0.616532 0.080234 0.414105
Si Si5 0.536288 0.616831 0.438758
Si Si6 0.666823 0.180980 0.487042
Si Si7 0.920111 0.383213 0.794866
O O1 0.736465 0.472929 0.870812
O O2 0.810437 0.405219 0.867280
O O3 0.868936 0.536746 0.902120
O O4 0.853808 0.527443 0.823859
O O5 0.079102 0.539551 0.677020
O O6 0.139497 0.467789 0.709492
O O7 0.097317 0.445785 0.631233
O O8 0.998790 0.395335 0.689223
O O9 0.406956 0.593045 0.750000
O O10 0.263917 0.527833 0.750000
O O11 0.535441 0.070882 0.412061
O O12 0.669789 0.149426 0.442811
O O13 0.606550 0.002948 0.432714
O O14 0.461993 0.538008 0.437979
O O15 0.539820 0.658053 0.480765
O O16 0.598554 0.197108 0.490825
O O17 0.742541 0.257459 0.495086
O O18 0.903924 0.348154 0.750000
O O19 0.924311 0.462155 0.794646
#
# Coordination Sequence:
#
# PCOD8330333 Si02
#       7
#    24  24  12  24  24  24  24
#     4  10  18  26  37  54  76  97 118 149 193 237
#     4   9  15  26  42  55  67  89 122 153 181 218
#     4  10  19  28  40  58  79  98 118 152 200 244
#     4   9  16  27  42  56  67  87 123 159 184 215
#     4   9  16  27  41  54  68  91 124 155 181 218
#     4  10  19  28  38  53  75  98 118 146 192 242
#     4   9  15  25  40  53  66  90 122 150 177 215
#
# _framework density 12.735611
#
# number of rings (size 3 to 8) (size 9 to 14) (size 15 to 20)
#    0.000    2.615    2.308    1.308    0.000    2.769 
#    0.000    1.538    0.000    2.769    0.000    0.000 
#    0.000    0.000    0.000    0.000    0.000    0.000 
#
# Total GULP energy -1933492.022627 kJ/mol
# GULP energy per Si atom -12394.179632 kJ/mol
# Density = 1.270662 g / cm^3
# Si number density = 12.735611 Si / 1000 Ang^3
#
#
#
# Elastic Constant Matrix: (Units=GPa)
#
#
# Indices 1 2 3 4 5 6 
#
# 1 34.1932 15.8086 21.2014 0.0000 0.0000 0.0000
# 2 15.8086 34.1932 21.2014 0.0000 0.0000 0.0000
# 3 21.2014 21.2014 100.4360 0.0000 0.0000 0.0000
# 4 0.0000 0.0000 0.0000 12.4115 0.0000 0.0000
# 5 0.0000 0.0000 0.0000 0.0000 12.4115 0.0000
# 6 0.0000 0.0000 0.0000 0.0000 0.0000 9.1923
#
#
#
# Elastic Compliance Matrix: (Units=1/GPa)
#
#
# Indices 1 2 3 4 5 6 
#
# 1 0.039377 -0.015017 -0.005142 0.000000 0.000000 0.000000
# 2 -0.015017 0.039377 -0.005142 0.000000 0.000000 0.000000
# 3 -0.005142 -0.005142 0.012128 0.000000 0.000000 0.000000
# 4 0.000000 0.000000 0.000000 0.080570 0.000000 0.000000
# 5 0.000000 0.000000 0.000000 0.000000 0.080570 0.000000
# 6 0.000000 0.000000 0.000000 0.000000 0.000000 0.108787
#
#
# Mechanical properties :
#
#
# Convention : Reuss Voigt Hill
#
# Bulk Modulus (GPa) = 24.82705 31.69392 28.26048
# Shear Modulus (GPa) = 11.76919 14.17711 12.97315
#
# Velocity S-wave (km/s) = 3.04323 3.34006 3.19509
# Velocity P-wave (km/s) = 5.64666 6.30990 5.98747
#
# Compressibility (1/GPa) = 0.04027865
#
# Stress axis : x y z
#
# Youngs Moduli (GPa) = 25.39565 25.39565 82.45666
#
# Poissons Ratio (x) = 0.38136 0.42401
# Poissons Ratio (y) = 0.38136 0.42401
# Poissons Ratio (z) = 0.13059 0.13059
#
# Static dielectric constant tensor:
#      x y z
#    x 2.303510 0.000000 0.000000 
#    y 0.000000 2.303510 0.000000 
#    z 0.000000 0.000000 2.985650 
# 
# 
# High freq. dielectric constant tensor:
#      x y z
#    x 1.441450 0.000000 0.000000 
#    y 0.000000 1.441450 0.000000 
#    z 0.000000 0.000000 1.509910 
# 
# From -- ./inp_files/12383.got.cif
#   From: 2010.03.12/outbox.cif.g09.slc.cpg/sg194_7_cif.got.tgz:12383.got - 2010.04.01 12:26:19.
