data_PCOD8330745
_publ_section_title
;
Structure prediction by ZEFSAII (Michael W. Deem and Ramdas Pophale) SiO2 
 PCOD8330745
Probable space group: P 63/M M C
;
_chemical_formula_sum "Si O2"
_cell_formula_units_Z 132
_cell_length_a 17.043295
_cell_length_b 17.043295
_cell_length_c 29.531515
_cell_angle_alpha 90.000000
_cell_angle_beta 90.000000
_cell_angle_gamma 120.000000
_cell_volume 7428.882365
_symmetry_space_group_name_H-M "P 63/M M C"
_symmetry_group_IT_number 194
_symmetry_cell_setting 'hexagonal'
loop_
_space_group_symop_operation_xyz
x,y,z
x-y,x,1/2+z
-y,x-y,z
-x,-y,1/2+z
-x+y,-x,z
y,-x+y,1/2+z
x-y,-y,-z
-x,-x+y,-z
y,x,-z
-y,-x,1/2-z
-x+y,y,1/2-z
x,x-y,1/2-z
-x,-y,-z
-x+y,-x,1/2-z
y,-x+y,-z
x,y,1/2-z
x-y,x,-z
-y,x-y,1/2-z
-x+y,y,z
x,x-y,z
-y,-x,z
y,x,1/2+z
x-y,-y,1/2+z
-x,-x+y,1/2+z
loop_
_atom_site_type_symbol
_atom_site_label
_atom_site_fract_x
_atom_site_fract_y
_atom_site_fract_z
Si Si1 0.148503 0.481509 0.378654
Si Si2 0.636739 0.727991 0.039468
Si Si3 0.484432 0.332893 0.144473
Si Si4 0.019640 0.602710 0.199664
Si Si5 0.151727 0.485473 0.958843
Si Si6 0.180583 0.000000 0.500000
O O1 0.248949 0.497897 0.381284
O O2 0.153245 0.576623 0.385373
O O3 0.079680 0.413842 0.417226
O O4 0.106399 0.436272 0.330251
O O5 0.609940 0.804970 0.041204
O O6 0.597061 0.677307 0.990823
O O7 0.746643 0.774836 0.041115
O O8 0.481496 0.240748 0.157380
O O9 0.586011 0.413990 0.152776
O O10 0.411894 0.339739 0.176499
O O11 0.455637 0.334494 0.092633
O O12 0.030052 0.644200 0.250000
O O13 0.013350 0.506675 0.202252
O O14 0.254454 0.508907 0.965872
O O15 0.147905 0.573953 0.972855
O O16 0.168191 0.084096 0.484546
#
# Coordination Sequence:
#
# PCOD8330745 Si02
#       6
#    24  24  24  24  24  12
#     4  10  20  35  54  76 102 135 172 209 253 310
#     4   9  19  32  48  75 106 130 159 203 252 298
#     4   9  17  29  47  70  98 134 174 210 248 301
#     4   9  19  34  48  66  95 128 167 220 273 308
#     4   9  16  27  44  70 104 141 174 202 238 294
#     4  10  21  38  57  74  98 134 178 218 253 296
#
# _framework density 17.768488000000001
#
# number of rings (size 3 to 8) (size 9 to 14) (size 15 to 20)
#    0.000    2.727    0.000    1.182    2.545    2.182 
#    0.000    2.727    0.000    2.182    0.000    0.000 
#    0.000    0.000    0.000    0.000    0.000    2.364 
#
# Total GULP energy -1636024.415688 kJ/mol
# GULP energy per Si atom -12394.124361 kJ/mol
# Density = 1.772805 g / cm^3
# Si number density = 17.768488 Si / 1000 Ang^3
#
#
#
# Elastic Constant Matrix: (Units=GPa)
#
#
# Indices 1 2 3 4 5 6 
#
# 1 89.8539 37.3753 44.0424 0.0000 0.0000 0.0000
# 2 37.3753 89.8539 44.0424 0.0000 0.0000 0.0000
# 3 44.0424 44.0424 126.6237 0.0000 0.0000 0.0000
# 4 0.0000 0.0000 0.0000 21.4956 0.0000 0.0000
# 5 0.0000 0.0000 0.0000 0.0000 21.4956 0.0000
# 6 0.0000 0.0000 0.0000 0.0000 0.0000 26.2393
#
#
#
# Elastic Compliance Matrix: (Units=1/GPa)
#
#
# Indices 1 2 3 4 5 6 
#
# 1 0.014704 -0.004351 -0.003601 0.000000 0.000000 0.000000
# 2 -0.004351 0.014704 -0.003601 0.000000 0.000000 0.000000
# 3 -0.003601 -0.003601 0.010402 0.000000 0.000000 0.000000
# 4 0.000000 0.000000 0.000000 0.046521 0.000000 0.000000
# 5 0.000000 0.000000 0.000000 0.000000 0.046521 0.000000
# 6 0.000000 0.000000 0.000000 0.000000 0.000000 0.038111
#
#
# Mechanical properties :
#
#
# Convention : Reuss Voigt Hill
#
# Bulk Modulus (GPa) = 59.86466 61.91687 60.89076
# Shear Modulus (GPa) = 25.04530 25.90418 25.47474
#
# Velocity S-wave (km/s) = 3.75845 3.82235 3.79054
# Velocity P-wave (km/s) = 7.25253 7.37581 7.31443
#
# Compressibility (1/GPa) = 0.01670435
#
# Stress axis : x y z
#
# Youngs Moduli (GPa) = 68.00814 68.00814 96.13169
#
# Poissons Ratio (x) = 0.29592 0.34617
# Poissons Ratio (y) = 0.29592 0.34617
# Poissons Ratio (z) = 0.24489 0.24489
#
# Static dielectric constant tensor:
#      x y z
#    x 3.231680 0.000000 0.000000 
#    y 0.000000 3.231680 0.000000 
#    z 0.000000 0.000000 3.515460 
# 
# 
# High freq. dielectric constant tensor:
#      x y z
#    x 1.682100 0.000000 0.000000 
#    y 0.000000 1.682100 0.000000 
#    z 0.000000 0.000000 1.673040 
# 
# From -- ./inp_files/11990.got.cif
#   From: 2010.03.12/outbox.cif.g09.slc.cpg/sg194_6_cif.got.tgz:11990.got - 2010.04.01 12:26:19.
