data_PCOD8330431
_publ_section_title
;
Structure prediction by ZEFSAII (Michael W. Deem and Ramdas Pophale) SiO2 
 PCOD8330431
Probable space group: P 63/M M C
;
_chemical_formula_sum "Si O2"
_cell_formula_units_Z 108
_cell_length_a 31.092254
_cell_length_b 31.092254
_cell_length_c 9.105237
_cell_angle_alpha 90.000000
_cell_angle_beta 90.000000
_cell_angle_gamma 120.000000
_cell_volume 7623.006674
_symmetry_space_group_name_H-M "P 63/M M C"
_symmetry_group_IT_number 194
_symmetry_cell_setting 'hexagonal'
loop_
_space_group_symop_operation_xyz
x,y,z
x-y,x,1/2+z
-y,x-y,z
-x,-y,1/2+z
-x+y,-x,z
y,-x+y,1/2+z
x-y,-y,-z
-x,-x+y,-z
y,x,-z
-y,-x,1/2-z
-x+y,y,1/2-z
x,x-y,1/2-z
-x,-y,-z
-x+y,-x,1/2-z
y,-x+y,-z
x,y,1/2-z
x-y,x,-z
-y,x-y,1/2-z
-x+y,y,z
x,x-y,z
-y,-x,z
y,x,1/2+z
x-y,-y,1/2+z
-x,-x+y,1/2+z
loop_
_atom_site_type_symbol
_atom_site_label
_atom_site_fract_x
_atom_site_fract_y
_atom_site_fract_z
Si Si1 0.227790 0.361334 0.585222
Si Si2 0.526780 0.053559 0.074380
Si Si3 0.360820 0.051098 0.583919
Si Si4 0.712814 0.192172 0.415159
Si Si5 0.478732 0.369660 0.917716
O O1 0.226131 0.341799 0.750000
O O2 0.171633 0.343266 0.529387
O O3 0.254567 0.340154 0.481347
O O4 0.258405 0.420366 0.584217
O O5 0.523796 0.047591 0.250000
O O6 0.583427 0.083329 0.023672
O O7 0.500000 0.000000 0.000000
O O8 0.342654 0.039620 0.750000
O O9 0.419766 0.077712 0.570782
O O10 0.338089 0.000000 0.500000
O O11 0.693701 0.192305 0.250000
O O12 0.751032 0.248969 0.466359
O O13 0.666160 0.165508 0.525544
O O14 0.496567 0.385341 0.750000
#
# Coordination Sequence:
#
# PCOD8330431 Si02
#       5
#    24  12  24  24  24
#     4   8  14  25  40  56  75  99 124 153 190 229
#     4  12  24  36  48  60  80 112 146 176 206 242
#     4  10  19  28  40  57  77 102 131 164 198 234
#     4   8  14  26  44  64  84 104 126 154 191 232
#     4  10  20  32  45  62  83 107 136 168 201 238
#
# _framework density 14.167638
#
# number of rings (size 3 to 8) (size 9 to 14) (size 15 to 20)
#    0.000    2.667    0.000    4.333    0.000    5.333 
#    0.000    4.444    0.000    0.000    0.000    0.000 
#    1.111    0.000    2.000    0.000    2.000    0.000 
#
# Total GULP energy -1338575.659735 kJ/mol
# GULP energy per Si atom -12394.219072 kJ/mol
# Density = 1.413539 g / cm^3
# Si number density = 14.167638 Si / 1000 Ang^3
#
#
#
# Elastic Constant Matrix: (Units=GPa)
#
#
# Indices 1 2 3 4 5 6 
#
# 1 53.7741 24.8062 41.4887 0.0000 0.0000 0.0000
# 2 24.8062 53.7741 41.4887 0.0000 0.0000 0.0000
# 3 41.4887 41.4887 114.3705 0.0000 0.0000 0.0000
# 4 0.0000 0.0000 0.0000 22.9016 0.0000 0.0000
# 5 0.0000 0.0000 0.0000 0.0000 22.9016 0.0000
# 6 0.0000 0.0000 0.0000 0.0000 0.0000 14.4839
#
#
#
# Elastic Compliance Matrix: (Units=1/GPa)
#
#
# Indices 1 2 3 4 5 6 
#
# 1 0.027574 -0.006947 -0.007483 0.000000 0.000000 0.000000
# 2 -0.006947 0.027574 -0.007483 0.000000 0.000000 0.000000
# 3 -0.007483 -0.007483 0.014172 0.000000 0.000000 0.000000
# 4 0.000000 0.000000 0.000000 0.043665 0.000000 0.000000
# 5 0.000000 0.000000 0.000000 0.000000 0.043665 0.000000
# 6 0.000000 0.000000 0.000000 0.000000 0.000000 0.069042
#
#
# Mechanical properties :
#
#
# Convention : Reuss Voigt Hill
#
# Bulk Modulus (GPa) = 39.22179 48.60953 43.91566
# Shear Modulus (GPa) = 17.98460 19.66644 18.82552
#
# Velocity S-wave (km/s) = 3.56675 3.72980 3.64918
# Velocity P-wave (km/s) = 6.68629 7.27552 6.98712
#
# Compressibility (1/GPa) = 0.02549603
#
# Stress axis : x y z
#
# Youngs Moduli (GPa) = 36.26594 36.26594 70.56034
#
# Poissons Ratio (x) = 0.25194 0.52798
# Poissons Ratio (y) = 0.25194 0.52798
# Poissons Ratio (z) = 0.27136 0.27136
#
# Static dielectric constant tensor:
#      x y z
#    x 2.706830 0.000000 0.000000 
#    y 0.000000 2.706830 0.000000 
#    z 0.000000 0.000000 3.006890 
# 
# 
# High freq. dielectric constant tensor:
#      x y z
#    x 1.510550 0.000000 0.000000 
#    y 0.000000 1.510550 0.000000 
#    z 0.000000 0.000000 1.554190 
# 
# From -- ./inp_files/1834.got.cif
#   From: 2010.03.12/outbox.cif.g09.slc.cpg/sg194_1_cif.got.tgz:1834.got - 2010.04.01 12:26:19.
