data_PCOD8330172
_publ_section_title
;
Structure prediction by ZEFSAII (Michael W. Deem and Ramdas Pophale) SiO2 
 PCOD8330172
Probable space group: P 63/M C M
;
_chemical_formula_sum "Si O2"
_cell_formula_units_Z 144
_cell_length_a 30.440496
_cell_length_b 30.440496
_cell_length_c 8.682117
_cell_angle_alpha 90.000000
_cell_angle_beta 90.000000
_cell_angle_gamma 120.000000
_cell_volume 6967.223060
_symmetry_space_group_name_H-M "P 63/M C M"
_symmetry_group_IT_number 193
_symmetry_cell_setting 'hexagonal'
loop_
_space_group_symop_operation_xyz
x,y,z
x-y,x,1/2+z
-y,x-y,z
-x,-y,1/2+z
-x+y,-x,z
y,-x+y,1/2+z
x-y,-y,1/2-z
-x,-x+y,1/2-z
y,x,1/2-z
-y,-x,-z
-x+y,y,-z
x,x-y,-z
-x,-y,-z
-x+y,-x,1/2-z
y,-x+y,-z
x,y,1/2-z
x-y,x,-z
-y,x-y,1/2-z
-x+y,y,1/2+z
x,x-y,1/2+z
-y,-x,1/2+z
y,x,z
x-y,-y,z
-x,-x+y,z
loop_
_atom_site_type_symbol
_atom_site_label
_atom_site_fract_x
_atom_site_fract_y
_atom_site_fract_z
Si Si1 0.212252 0.153081 0.568360
Si Si2 0.597038 0.914368 0.931849
Si Si3 0.243515 0.300635 0.082433
Si Si4 0.530083 0.717162 0.566745
Si Si5 0.940361 0.513982 0.579701
Si Si6 0.428750 0.762804 0.566096
O O1 0.193572 0.096786 0.500000
O O2 0.213997 0.149448 0.750000
O O3 0.173313 0.173313 0.521170
O O4 0.270696 0.191144 0.513369
O O5 0.599798 0.921403 0.750000
O O6 0.556317 0.929633 0.001030
O O7 0.653695 0.945269 0.995632
O O8 0.579195 0.858022 0.988462
O O9 0.234049 0.318790 0.250000
O O10 0.258478 0.258478 0.112259
O O11 0.526772 0.763386 0.500000
O O12 0.532978 0.717474 0.750000
O O13 0.479504 0.668337 0.501838
O O14 0.916821 0.458411 0.500000
O O15 0.916365 0.503261 0.750000
O O16 0.000000 0.537618 0.587664
O O17 0.385636 0.771272 0.500000
O O18 0.420809 0.710405 0.500000
O O19 0.429597 0.761697 0.750000
#
# Coordination Sequence:
#
# PCOD8330172 Si02
#       6
#    24  24  24  24  24  24
#     4  10  21  38  62  93 129 169 211 256 306 358
#     4  11  22  37  57  81 110 146 188 234 287 349
#     4  10  21  37  58  86 118 152 194 244 294 345
#     4  11  23  40  57  76 103 135 172 216 268 325
#     4   9  19  35  55  79 108 142 180 225 277 334
#     4  11  21  36  56  79 103 130 165 208 261 321
#
# _framework density 20.668205
#
# number of rings (size 3 to 8) (size 9 to 14) (size 15 to 20)
#    0.000    1.667    0.000    6.167    0.000    5.333 
#    0.000    6.667    0.000    0.167    0.000    0.000 
#    0.000    0.000    0.000    0.000    0.000    0.000 
#
# Total GULP energy -1784182.505889 kJ/mol
# GULP energy per Si atom -12390.156291 kJ/mol
# Density = 2.062116 g / cm^3
# Si number density = 20.668205 Si / 1000 Ang^3
#
#
#
# Elastic Constant Matrix: (Units=GPa)
#
#
# Indices 1 2 3 4 5 6 
#
# 1 88.7247 34.6576 36.0088 0.0000 0.0000 0.0000
# 2 34.6576 88.7247 36.0088 0.0000 0.0000 0.0000
# 3 36.0088 36.0088 108.9223 0.0000 0.0000 0.0000
# 4 0.0000 0.0000 0.0000 24.4135 0.0000 0.0000
# 5 0.0000 0.0000 0.0000 0.0000 24.4135 0.0000
# 6 0.0000 0.0000 0.0000 0.0000 0.0000 27.0335
#
#
#
# Elastic Compliance Matrix: (Units=1/GPa)
#
#
# Indices 1 2 3 4 5 6 
#
# 1 0.014269 -0.004226 -0.003320 0.000000 0.000000 0.000000
# 2 -0.004226 0.014269 -0.003320 0.000000 0.000000 0.000000
# 3 -0.003320 -0.003320 0.011376 0.000000 0.000000 0.000000
# 4 0.000000 0.000000 0.000000 0.040961 0.000000 0.000000
# 5 0.000000 0.000000 0.000000 0.000000 0.040961 0.000000
# 6 0.000000 0.000000 0.000000 0.000000 0.000000 0.036991
#
#
# Mechanical properties :
#
#
# Convention : Reuss Voigt Hill
#
# Bulk Modulus (GPa) = 55.00142 55.52471 55.26307
# Shear Modulus (GPa) = 26.79229 27.15187 26.97208
#
# Velocity S-wave (km/s) = 3.60433 3.62844 3.61640
# Velocity P-wave (km/s) = 6.63257 6.66912 6.65087
#
# Compressibility (1/GPa) = 0.01818135
#
# Stress axis : x y z
#
# Youngs Moduli (GPa) = 70.08118 70.08118 87.90417
#
# Poissons Ratio (x) = 0.29619 0.29185
# Poissons Ratio (y) = 0.29619 0.29185
# Poissons Ratio (z) = 0.23267 0.23267
#
# Static dielectric constant tensor:
#      x y z
#    x 3.869880 0.000000 0.000000 
#    y 0.000000 3.869880 0.000000 
#    z 0.000000 0.000000 3.981450 
# 
# 
# High freq. dielectric constant tensor:
#      x y z
#    x 1.803400 0.000000 0.000000 
#    y 0.000000 1.803400 0.000000 
#    z 0.000000 0.000000 1.815680 
# 
# From -- ./inp_files/1486.got.cif
#   From: 2010.03.12/outbox.cif.g09.slc.cpg/sg193_1_cif.got.tgz:1486.got - 2010.04.01 12:20:39.
