data_PCOD8330327
_publ_section_title
;
Structure prediction by ZEFSAII (Michael W. Deem and Ramdas Pophale) SiO2 
 PCOD8330327
Probable space group: P 63/M M C
;
_chemical_formula_sum "Si O2"
_cell_formula_units_Z 112
_cell_length_a 29.694151
_cell_length_b 29.694151
_cell_length_c 8.683999
_cell_angle_alpha 90.000000
_cell_angle_beta 90.000000
_cell_angle_gamma 120.000000
_cell_volume 6631.201453
_symmetry_space_group_name_H-M "P 63/M M C"
_symmetry_group_IT_number 194
_symmetry_cell_setting 'hexagonal'
loop_
_space_group_symop_operation_xyz
x,y,z
x-y,x,1/2+z
-y,x-y,z
-x,-y,1/2+z
-x+y,-x,z
y,-x+y,1/2+z
x-y,-y,-z
-x,-x+y,-z
y,x,-z
-y,-x,1/2-z
-x+y,y,1/2-z
x,x-y,1/2-z
-x,-y,-z
-x+y,-x,1/2-z
y,-x+y,-z
x,y,1/2-z
x-y,x,-z
-y,x-y,1/2-z
-x+y,y,z
x,x-y,z
-y,-x,z
y,x,1/2+z
x-y,-y,1/2+z
-x,-x+y,1/2+z
loop_
_atom_site_type_symbol
_atom_site_label
_atom_site_fract_x
_atom_site_fract_y
_atom_site_fract_z
Si Si1 0.053490 0.399945 0.568395
Si Si2 0.608971 0.217941 0.065480
Si Si3 0.666667 0.333334 0.567051
Si Si4 0.784686 0.215315 0.432334
Si Si5 0.158632 0.841369 0.431682
Si Si6 0.702531 0.757360 0.567525
Si Si7 0.666637 0.158556 0.067834
O O1 0.049498 0.399260 0.750000
O O2 0.064552 0.354143 0.515343
O O3 0.099357 0.455837 0.508569
O O4 0.000000 0.391940 0.500000
O O5 0.611620 0.223240 0.250000
O O6 0.635767 0.185847 0.001413
O O7 0.637426 0.274851 0.994352
O O8 0.666667 0.333334 0.750000
O O9 0.790767 0.209234 0.250000
O O10 0.811408 0.188593 0.522149
O O11 0.809882 0.274267 0.486333
O O12 0.155597 0.844404 0.250000
O O13 0.188818 0.899602 0.499398
O O14 0.747045 0.747045 0.500000
O O15 0.707481 0.761785 0.750000
O O16 0.663516 0.158944 0.250000
#
# Coordination Sequence:
#
# PCOD8330327 Si02
#       7
#    24  12   4  12  12  24  24
#     4   9  17  30  48  70  98 130 162 200 248 295
#     4  10  20  37  62  79  90 120 167 201 234 306
#     4  12  25  41  55  75 109 128 139 183 265 323
#     4  10  17  31  49  68  96 126 155 204 261 300
#     4  12  22  31  47  76 105 136 179 214 251 305
#     4  10  19  33  51  72 104 140 174 214 262 304
#     4   9  17  31  53  77  95 119 163 211 248 291
#
# _framework density 16.889849999999999
#
# number of rings (size 3 to 8) (size 9 to 14) (size 15 to 20)
#    0.000    2.143    2.143    2.571    0.000    2.571 
#    0.000    3.750    0.000    0.000    0.000    0.000 
#    0.000    0.000    0.000    0.321    0.000    4.500 
#
# Total GULP energy -1388610.961418 kJ/mol
# GULP energy per Si atom -12398.312156 kJ/mol
# Density = 1.685141 g / cm^3
# Si number density = 16.889850 Si / 1000 Ang^3
#
#
#
# Elastic Constant Matrix: (Units=GPa)
#
#
# Indices 1 2 3 4 5 6 
#
# 1 139.6575 80.7851 33.7599 0.0000 0.0000 0.0000
# 2 80.7851 139.6570 33.7598 0.0000 0.0000 0.0000
# 3 33.7599 33.7598 52.2695 0.0000 0.0000 0.0000
# 4 0.0000 0.0000 0.0000 18.7534 0.0000 0.0000
# 5 0.0000 0.0000 0.0000 0.0000 18.7535 0.0000
# 6 0.0000 0.0000 0.0000 0.0000 0.0000 29.4362
#
#
#
# Elastic Compliance Matrix: (Units=1/GPa)
#
#
# Indices 1 2 3 4 5 6 
#
# 1 0.011320 -0.005665 -0.003652 0.000000 0.000000 0.000000
# 2 -0.005665 0.011321 -0.003652 0.000000 0.000000 0.000000
# 3 -0.003652 -0.003652 0.023850 0.000000 0.000000 0.000000
# 4 0.000000 0.000000 0.000000 0.053324 0.000000 0.000000
# 5 0.000000 0.000000 0.000000 0.000000 0.053323 0.000000
# 6 0.000000 0.000000 0.000000 0.000000 0.000000 0.033972
#
#
# Mechanical properties :
#
#
# Convention : Reuss Voigt Hill
#
# Bulk Modulus (GPa) = 48.66203 69.79930 59.23067
# Shear Modulus (GPa) = 22.73756 25.60723 24.17239
#
# Velocity S-wave (km/s) = 3.67308 3.89798 3.78720
# Velocity P-wave (km/s) = 6.84563 7.85333 7.36673
#
# Compressibility (1/GPa) = 0.02054990
#
# Stress axis : x y z
#
# Youngs Moduli (GPa) = 88.33540 88.33508 41.92917
#
# Poissons Ratio (x) = 0.50046 0.15315
# Poissons Ratio (y) = 0.50046 0.15315
# Poissons Ratio (z) = 0.32264 0.32264
#
# Static dielectric constant tensor:
#      x y z
#    x 3.324220 0.000000 0.000000 
#    y 0.000000 3.324220 0.000000 
#    z 0.000000 0.000000 2.950470 
# 
# 
# High freq. dielectric constant tensor:
#      x y z
#    x 1.643010 0.000000 0.000000 
#    y 0.000000 1.643010 0.000000 
#    z 0.000000 0.000000 1.632530 
# 
# From -- ./inp_files/1978.got.cif
#   From: 2010.03.12/outbox.cif.g09.slc.cpg/sg194_1_cif.got.tgz:1978.got - 2010.04.01 12:26:19.
