data_PCOD8330878
_publ_section_title
;
Structure prediction by ZEFSAII (Michael W. Deem and Ramdas Pophale) SiO2 
 PCOD8330878
Probable space group: I 2 3
;
_chemical_formula_sum "Si O2"
_cell_formula_units_Z 118
_cell_length_a 17.306116
_cell_length_b 17.306116
_cell_length_c 17.306116
_cell_angle_alpha 90.000000
_cell_angle_beta 90.000000
_cell_angle_gamma 90.000000
_cell_volume 5183.210314
_symmetry_space_group_name_H-M "I 2 3"
_symmetry_group_IT_number 197
_symmetry_cell_setting 'cubic'
loop_
_space_group_symop_operation_xyz
x,y,z
z,x,y
y,z,x
-y,-z,x
z,-x,-y
-y,z,-x
-z,-x,y
-z,x,-y
y,-z,-x
-x,-y,z
x,-y,-z
-x,y,-z
1/2+x,1/2+y,1/2+z
1/2+z,1/2+x,1/2+y
1/2+y,1/2+z,1/2+x
1/2-y,1/2-z,1/2+x
1/2+z,1/2-x,1/2-y
1/2-y,1/2+z,1/2-x
1/2-z,1/2-x,1/2+y
1/2-z,1/2+x,1/2-y
1/2+y,1/2-z,1/2-x
1/2-x,1/2-y,1/2+z
1/2+x,1/2-y,1/2-z
1/2-x,1/2+y,1/2-z
loop_
_atom_site_type_symbol
_atom_site_label
_atom_site_fract_x
_atom_site_fract_y
_atom_site_fract_z
Si Si1 0.314743 0.500000 0.000000
Si Si2 0.075257 0.048637 0.635790
Si Si3 0.768301 0.306654 0.829103
Si Si4 0.500000 0.500000 0.500000
Si Si5 0.106885 0.106885 0.893117
Si Si6 0.854538 0.497600 0.287083
Si Si7 0.942440 0.755109 0.805443
O O1 0.367206 0.536459 0.934478
O O2 0.261286 0.571554 0.025921
O O3 0.121126 0.019451 0.711641
O O4 0.047935 0.136432 0.641906
O O5 0.000000 0.000000 0.621505
O O6 0.717079 0.227194 0.840990
O O7 0.800746 0.350434 0.904728
O O8 0.705920 0.359106 0.783980
O O9 0.553540 0.553539 0.446462
O O10 0.153814 0.171419 0.942309
O O11 0.774641 0.512905 0.242077
#
# Coordination Sequence:
#
# PCOD8330878 Si02
#       7
#    12  24  24   2   8  24  24
#     4  12  31  50  77 106 166 206 274 325 416 478
#     4  12  30  47  74 116 160 209 260 342 396 486
#     4  10  22  46  79 111 143 196 265 322 386 494
#     4  12  36  48  96 112 176 202 288 348 408 504
#     4  12  24  57  72 121 149 208 264 339 411 480
#     4  12  29  48  80 114 155 213 267 333 411 488
#     4  12  24  49  83 104 156 206 262 325 408 484
#
# _framework density 22.765813999999999
#
# number of rings (size 3 to 8) (size 9 to 14) (size 15 to 20)
#    0.407    0.000    6.102    0.305   12.814    0.000 
#    0.000    0.000    0.000    0.000    0.000    0.000 
#    0.000    0.000    0.000    0.000    0.000    0.000 
#
# Total GULP energy -731063.412575 kJ/mol
# GULP energy per Si atom -12390.905298 kJ/mol
# Density = 2.271400 g / cm^3
# Si number density = 22.765814 Si / 1000 Ang^3
#
#
#
# Elastic Constant Matrix: (Units=GPa)
#
#
# Indices 1 2 3 4 5 6 
#
# 1 95.7947 44.5592 44.5591 0.0000 0.0000 0.0000
# 2 44.5592 95.7953 44.5591 0.0000 0.0000 0.0000
# 3 44.5591 44.5591 95.7946 0.0000 0.0000 0.0000
# 4 0.0000 0.0000 0.0000 35.6822 0.0000 0.0000
# 5 0.0000 0.0000 0.0000 0.0000 35.6816 0.0000
# 6 0.0000 0.0000 0.0000 0.0000 0.0000 35.6824
#
#
#
# Elastic Compliance Matrix: (Units=1/GPa)
#
#
# Indices 1 2 3 4 5 6 
#
# 1 0.014814 -0.004703 -0.004703 0.000000 0.000000 0.000000
# 2 -0.004703 0.014814 -0.004703 0.000000 0.000000 0.000000
# 3 -0.004703 -0.004703 0.014814 0.000000 0.000000 0.000000
# 4 0.000000 0.000000 0.000000 0.028025 0.000000 0.000000
# 5 0.000000 0.000000 0.000000 0.000000 0.028026 0.000000
# 6 0.000000 0.000000 0.000000 0.000000 0.000000 0.028025
#
#
# Mechanical properties :
#
#
# Convention : Reuss Voigt Hill
#
# Bulk Modulus (GPa) = 61.63770 61.63770 61.63770
# Shear Modulus (GPa) = 30.83635 31.65640 31.24638
#
# Velocity S-wave (km/s) = 3.68435 3.73302 3.70876
# Velocity P-wave (km/s) = 6.72553 6.76121 6.74339
#
# Compressibility (1/GPa) = 0.01622384
#
# Stress axis : x y z
#
# Youngs Moduli (GPa) = 67.50177 67.50227 67.50172
#
# Poissons Ratio (x) = 0.31748 0.31748
# Poissons Ratio (y) = 0.31748 0.31747
# Poissons Ratio (z) = 0.31748 0.31748
#
# Static dielectric constant tensor:
#      x y z
#    x 4.184360 0.000000 0.000000 
#    y 0.000000 4.184350 0.000000 
#    z 0.000000 0.000000 4.184350 
# 
# 
# High freq. dielectric constant tensor:
#      x y z
#    x 1.898880 0.000000 0.000000 
#    y 0.000000 1.898880 0.000000 
#    z 0.000000 0.000000 1.898880 
# 
# From -- ./inp_files/642.got.cif
#   From: 2010.03.12/outbox.cif.g09.slc.cpg/sg197_cif.got.tgz:642.got - 2010.04.01 12:33:32.
