data_PCOD8330742
_publ_section_title
;
Structure prediction by ZEFSAII (Michael W. Deem and Ramdas Pophale) SiO2 
 PCOD8330742
Probable space group: P 63/M M C
;
_chemical_formula_sum "Si O2"
_cell_formula_units_Z 138
_cell_length_a 31.213952
_cell_length_b 31.213952
_cell_length_c 8.386215
_cell_angle_alpha 90.000000
_cell_angle_beta 90.000000
_cell_angle_gamma 120.000000
_cell_volume 7076.102911
_symmetry_space_group_name_H-M "P 63/M M C"
_symmetry_group_IT_number 194
_symmetry_cell_setting 'hexagonal'
loop_
_space_group_symop_operation_xyz
x,y,z
x-y,x,1/2+z
-y,x-y,z
-x,-y,1/2+z
-x+y,-x,z
y,-x+y,1/2+z
x-y,-y,-z
-x,-x+y,-z
y,x,-z
-y,-x,1/2-z
-x+y,y,1/2-z
x,x-y,1/2-z
-x,-y,-z
-x+y,-x,1/2-z
y,-x+y,-z
x,y,1/2-z
x-y,x,-z
-y,x-y,1/2-z
-x+y,y,z
x,x-y,z
-y,-x,z
y,x,1/2+z
x-y,-y,1/2+z
-x,-x+y,1/2+z
loop_
_atom_site_type_symbol
_atom_site_label
_atom_site_fract_x
_atom_site_fract_y
_atom_site_fract_z
Si Si1 0.849849 0.053500 0.936879
Si Si2 0.308019 0.204840 0.071434
Si Si3 0.794008 0.397004 0.567281
Si Si4 0.947836 0.423673 0.566361
Si Si5 0.364547 0.635454 0.750000
Si Si6 0.744507 0.590235 0.572237
Si Si7 0.149530 0.497330 0.931621
O O1 0.854083 0.052923 0.750000
O O2 0.902539 0.097462 0.007156
O O3 0.805274 0.063700 0.980575
O O4 0.838029 0.000000 0.000000
O O5 0.304676 0.221125 0.250000
O O6 0.311560 0.155780 0.068830
O O7 0.357909 0.248949 0.992388
O O8 0.771571 0.385786 0.750000
O O9 0.756405 0.378203 0.419748
O O10 0.826062 0.456208 0.551514
O O11 0.942387 0.407954 0.750000
O O12 0.939978 0.469989 0.540443
O O13 0.908946 0.378857 0.458765
O O14 0.000000 0.434505 0.500000
O O15 0.390310 0.695155 0.750000
O O16 0.722399 0.582038 0.750000
O O17 0.796933 0.593865 0.571788
O O18 0.708861 0.542926 0.465479
O O19 0.163696 0.516453 0.750000
#
# Coordination Sequence:
#
# PCOD8330742 Si02
#       7
#    24  24  12  24   6  24  24
#     4  10  20  34  55  84 117 157 204 254 305 361
#     4   9  17  32  54  79 110 146 186 232 287 347
#     4  12  24  44  69  95 123 161 207 257 314 378
#     4  10  20  35  57  84 113 147 186 229 281 342
#     4  10  26  50  70  92 126 156 206 260 326 380
#     4  10  21  37  57  84 115 151 194 242 298 360
#     4  12  23  38  61  89 123 159 200 251 300 360
#
# _framework density 19.50226
#
# number of rings (size 3 to 8) (size 9 to 14) (size 15 to 20)
#    0.087    1.565    1.739    3.652    0.000    5.913 
#    0.000    0.870    0.000    0.174    0.000    0.000 
#    0.000    0.000    0.000    0.000    0.000    0.000 
#
# Total GULP energy -1710832.317134 kJ/mol
# GULP energy per Si atom -12397.335631 kJ/mol
# Density = 1.945787 g / cm^3
# Si number density = 19.502260 Si / 1000 Ang^3
#
#
#
# Elastic Constant Matrix: (Units=GPa)
#
#
# Indices 1 2 3 4 5 6 
#
# 1 81.5046 39.5757 32.7723 0.0000 0.0000 0.0000
# 2 39.5757 81.5046 32.7723 0.0000 0.0000 0.0000
# 3 32.7723 32.7723 122.4204 0.0000 0.0000 0.0000
# 4 0.0000 0.0000 0.0000 30.4184 0.0000 0.0000
# 5 0.0000 0.0000 0.0000 0.0000 30.4184 0.0000
# 6 0.0000 0.0000 0.0000 0.0000 0.0000 20.9644
#
#
#
# Elastic Compliance Matrix: (Units=1/GPa)
#
#
# Indices 1 2 3 4 5 6 
#
# 1 0.016754 -0.007096 -0.002586 0.000000 0.000000 0.000000
# 2 -0.007096 0.016754 -0.002586 0.000000 0.000000 0.000000
# 3 -0.002586 -0.002586 0.009553 0.000000 0.000000 0.000000
# 4 0.000000 0.000000 0.000000 0.032875 0.000000 0.000000
# 5 0.000000 0.000000 0.000000 0.000000 0.032875 0.000000
# 6 0.000000 0.000000 0.000000 0.000000 0.000000 0.047700
#
#
# Mechanical properties :
#
#
# Convention : Reuss Voigt Hill
#
# Bulk Modulus (GPa) = 53.97331 55.07447 54.52389
# Shear Modulus (GPa) = 26.70645 28.38088 27.54367
#
# Velocity S-wave (km/s) = 3.70456 3.81893 3.76218
# Velocity P-wave (km/s) = 6.78482 6.90992 6.84766
#
# Compressibility (1/GPa) = 0.01852768
#
# Stress axis : x y z
#
# Youngs Moduli (GPa) = 59.68619 59.68619 104.67971
#
# Poissons Ratio (x) = 0.42351 0.27067
# Poissons Ratio (y) = 0.42351 0.27067
# Poissons Ratio (z) = 0.15433 0.15433
#
# Static dielectric constant tensor:
#      x y z
#    x 3.605360 0.000000 0.000000 
#    y 0.000000 3.605360 0.000000 
#    z 0.000000 0.000000 3.721420 
# 
# 
# High freq. dielectric constant tensor:
#      x y z
#    x 1.743410 0.000000 0.000000 
#    y 0.000000 1.743410 0.000000 
#    z 0.000000 0.000000 1.773970 
# 
# From -- ./inp_files/2185.got.cif
#   From: 2010.03.12/outbox.cif.g09.slc.cpg/sg194_2_cif.got.tgz:2185.got - 2010.04.01 12:26:19.
