data_PCOD8330017
_publ_section_title
;
Structure prediction by ZEFSAII (Michael W. Deem and Ramdas Pophale) SiO2 
 PCOD8330017
Probable space group: P 63/M C M
;
_chemical_formula_sum "Si O2"
_cell_formula_units_Z 128
_cell_length_a 19.158566
_cell_length_b 19.158566
_cell_length_c 22.814313
_cell_angle_alpha 90.000000
_cell_angle_beta 90.000000
_cell_angle_gamma 120.000000
_cell_volume 7252.104043
_symmetry_space_group_name_H-M "P 63/M C M"
_symmetry_group_IT_number 193
_symmetry_cell_setting 'hexagonal'
loop_
_space_group_symop_operation_xyz
x,y,z
x-y,x,1/2+z
-y,x-y,z
-x,-y,1/2+z
-x+y,-x,z
y,-x+y,1/2+z
x-y,-y,1/2-z
-x,-x+y,1/2-z
y,x,1/2-z
-y,-x,-z
-x+y,y,-z
x,x-y,-z
-x,-y,-z
-x+y,-x,1/2-z
y,-x+y,-z
x,y,1/2-z
x-y,x,-z
-y,x-y,1/2-z
-x+y,y,1/2+z
x,x-y,1/2+z
-y,-x,1/2+z
y,x,z
x-y,-y,z
-x,-x+y,z
loop_
_atom_site_type_symbol
_atom_site_label
_atom_site_fract_x
_atom_site_fract_y
_atom_site_fract_z
Si Si1 0.410975 0.270187 0.682692
Si Si2 0.708594 0.911628 0.579604
Si Si3 0.255850 0.910145 0.954989
Si Si4 0.541822 0.449927 0.816018
Si Si5 0.501108 0.201426 0.616070
Si Si6 0.333334 0.666667 0.931293
O O1 0.382076 0.252059 0.750000
O O2 0.333330 0.238305 0.641613
O O3 0.464294 0.364569 0.670373
O O4 0.461121 0.225408 0.668391
O O5 0.719916 0.834051 0.569834
O O6 0.651545 0.908025 0.525665
O O7 0.790989 0.000000 0.577997
O O8 0.282352 0.847198 0.933761
O O9 0.316825 0.000000 0.931502
O O10 0.571865 0.450459 0.750000
O O11 0.519166 0.519166 0.824534
O O12 0.611352 0.465765 0.860534
O O13 0.574930 0.282317 0.590366
O O14 0.333334 0.666667 0.000000
#
# Coordination Sequence:
#
# PCOD8330017 Si02
#       6
#    24  24  24  24  24   8
#     4  10  20  33  50  72  99 134 173 218 266 314
#     4   9  18  33  55  79 105 135 169 211 262 322
#     4   9  19  34  57  81 105 138 176 217 266 324
#     4  10  20  33  50  73 100 130 169 218 267 315
#     4  11  21  37  52  72 102 142 181 225 269 320
#     4  12  27  36  52  74 106 147 189 235 275 322
#
# _framework density 17.65005
#
# number of rings (size 3 to 8) (size 9 to 14) (size 15 to 20)
#    0.000    2.062    1.875    1.688    5.250    1.125 
#    0.000    0.000    0.000    9.938    0.000    2.625 
#    0.000    0.000    0.000    0.562    0.000    1.312 
#
# Total GULP energy -1586624.742539 kJ/mol
# GULP energy per Si atom -12395.505801 kJ/mol
# Density = 1.760988 g / cm^3
# Si number density = 17.650050 Si / 1000 Ang^3
#
#
#
# Elastic Constant Matrix: (Units=GPa)
#
#
# Indices 1 2 3 4 5 6 
#
# 1 65.7560 28.3110 25.1655 0.0005 0.0000 0.0000
# 2 28.3110 65.7563 25.1656 0.0000 -0.0001 0.0000
# 3 25.1655 25.1656 90.2100 -0.0001 -0.0002 0.0000
# 4 0.0005 0.0000 -0.0001 7.6377 0.0020 0.0000
# 5 0.0000 -0.0001 -0.0002 0.0020 7.6379 -0.0002
# 6 0.0000 0.0000 0.0000 0.0000 -0.0002 18.7226
#
#
#
# Elastic Compliance Matrix: (Units=1/GPa)
#
#
# Indices 1 2 3 4 5 6 
#
# 1 0.019601 -0.007105 -0.003486 -0.000001 0.000000 0.000000
# 2 -0.007105 0.019601 -0.003486 0.000000 0.000000 0.000000
# 3 -0.003486 -0.003486 0.013030 0.000000 0.000000 0.000000
# 4 -0.000001 0.000000 0.000000 0.130930 -0.000034 0.000000
# 5 0.000000 0.000000 0.000000 -0.000034 0.130926 0.000002
# 6 0.000000 0.000000 0.000000 0.000000 0.000002 0.053411
#
#
# Mechanical properties :
#
#
# Convention : Reuss Voigt Hill
#
# Bulk Modulus (GPa) = 41.53138 42.11184 41.82161
# Shear Modulus (GPa) = 12.38609 16.33831 14.36220
#
# Velocity S-wave (km/s) = 2.65195 3.04580 2.85567
# Velocity P-wave (km/s) = 5.74096 6.02332 5.88383
#
# Compressibility (1/GPa) = 0.02407818
#
# Stress axis : x y z
#
# Youngs Moduli (GPa) = 51.01819 51.01846 76.74501
#
# Poissons Ratio (x) = 0.36248 0.26753
# Poissons Ratio (y) = 0.36248 0.26753
# Poissons Ratio (z) = 0.17785 0.17785
#
# Static dielectric constant tensor:
#      x y z
#    x 3.320310 0.000000 0.000000 
#    y 0.000000 3.320310 0.000000 
#    z 0.000000 0.000000 3.302260 
# 
# 
# High freq. dielectric constant tensor:
#      x y z
#    x 1.672210 0.000000 0.000000 
#    y 0.000000 1.672210 0.000000 
#    z 0.000000 0.000000 1.686480 
# 
# From -- ./inp_files/6477.got.cif
#   From: 2010.03.12/outbox.cif.g09.slc.cpg/sg193_4_cif.got.tgz:6477.got - 2010.04.01 12:20:39.
