data_PCOD8330473
_publ_section_title
;
Structure prediction by ZEFSAII (Michael W. Deem and Ramdas Pophale) SiO2 
 PCOD8330473
Probable space group: P 63/M M C
;
_chemical_formula_sum "Si O2"
_cell_formula_units_Z 156
_cell_length_a 21.186643
_cell_length_b 21.186643
_cell_length_c 20.837672
_cell_angle_alpha 90.000000
_cell_angle_beta 90.000000
_cell_angle_gamma 120.000000
_cell_volume 8100.356387
_symmetry_space_group_name_H-M "P 63/M M C"
_symmetry_group_IT_number 194
_symmetry_cell_setting 'hexagonal'
loop_
_space_group_symop_operation_xyz
x,y,z
x-y,x,1/2+z
-y,x-y,z
-x,-y,1/2+z
-x+y,-x,z
y,-x+y,1/2+z
x-y,-y,-z
-x,-x+y,-z
y,x,-z
-y,-x,1/2-z
-x+y,y,1/2-z
x,x-y,1/2-z
-x,-y,-z
-x+y,-x,1/2-z
y,-x+y,-z
x,y,1/2-z
x-y,x,-z
-y,x-y,1/2-z
-x+y,y,z
x,x-y,z
-y,-x,z
y,x,1/2+z
x-y,-y,1/2+z
-x,-x+y,1/2+z
loop_
_atom_site_type_symbol
_atom_site_label
_atom_site_fract_x
_atom_site_fract_y
_atom_site_fract_z
Si Si1 0.482819 0.665533 0.750000
Si Si2 0.332766 0.802483 0.933687
Si Si3 0.472266 0.666505 0.418444
Si Si4 0.093823 0.407472 0.859168
Si Si5 0.802624 0.747524 0.177595
Si Si6 0.389404 0.042083 0.563266
Si Si7 0.951229 0.752680 0.940605
O O1 0.399740 0.600261 0.750000
O O2 0.485874 0.742937 0.750000
O O3 0.525586 0.657489 0.810186
O O4 0.412527 0.825054 0.904746
O O5 0.272474 0.727527 0.899235
O O6 0.308246 0.863289 0.925161
O O7 0.331927 0.786951 0.007808
O O8 0.488602 0.744301 0.387624
O O9 0.400456 0.599545 0.385394
O O10 0.537977 0.650201 0.413080
O O11 0.101014 0.338802 0.837862
O O12 0.009252 0.378560 0.873818
O O13 0.781648 0.758901 0.250000
O O14 0.888536 0.777071 0.173179
O O15 0.783603 0.792546 0.127322
O O16 0.329136 0.065238 0.548754
O O17 0.396004 0.000000 0.500000
O O18 0.876688 0.753376 0.939987
O O19 0.000000 0.801969 0.000000
#
# Coordination Sequence:
#
# PCOD8330473 Si02
#       7
#    12  24  24  24  24  24  24
#     4  12  25  40  56  78 115 162 208 246 284 336
#     4  10  19  30  46  70 104 146 190 232 275 328
#     4  10  20  33  51  75 109 148 186 226 276 339
#     4  11  21  35  55  78 106 144 192 242 290 333
#     4  10  20  36  59  83 110 149 193 234 278 338
#     4  10  20  36  55  82 111 143 184 234 289 342
#     4  10  21  36  58  88 118 147 184 232 286 346
#
# _framework density 19.258412
#
# number of rings (size 3 to 8) (size 9 to 14) (size 15 to 20)
#    0.000    1.692    2.308    3.154    0.000    3.077 
#    0.000    1.538    0.000    2.769    0.000    0.000 
#    0.000    0.000    0.000    1.385    0.308    0.000 
#
# Total GULP energy -1933015.241769 kJ/mol
# GULP energy per Si atom -12391.123345 kJ/mol
# Density = 1.921458 g / cm^3
# Si number density = 19.258412 Si / 1000 Ang^3
#
#
#
# Elastic Constant Matrix: (Units=GPa)
#
#
# Indices 1 2 3 4 5 6 
#
# 1 119.3116 60.8382 32.6296 0.0000 0.0000 0.0000
# 2 60.8382 119.3116 32.6296 0.0000 0.0000 0.0000
# 3 32.6296 32.6296 62.7802 0.0000 0.0000 0.0000
# 4 0.0000 0.0000 0.0000 18.8807 0.0000 0.0000
# 5 0.0000 0.0000 0.0000 0.0000 18.8807 0.0000
# 6 0.0000 0.0000 0.0000 0.0000 0.0000 29.2367
#
#
#
# Elastic Compliance Matrix: (Units=1/GPa)
#
#
# Indices 1 2 3 4 5 6 
#
# 1 0.011970 -0.005132 -0.003554 0.000000 0.000000 0.000000
# 2 -0.005132 0.011970 -0.003554 0.000000 0.000000 0.000000
# 3 -0.003554 -0.003554 0.019623 0.000000 0.000000 0.000000
# 4 0.000000 0.000000 0.000000 0.052964 0.000000 0.000000
# 5 0.000000 0.000000 0.000000 0.000000 0.052964 0.000000
# 6 0.000000 0.000000 0.000000 0.000000 0.000000 0.034204
#
#
# Mechanical properties :
#
#
# Convention : Reuss Voigt Hill
#
# Bulk Modulus (GPa) = 52.40237 61.51093 56.95665
# Shear Modulus (GPa) = 23.30603 25.08668 24.19636
#
# Velocity S-wave (km/s) = 3.48253 3.61312 3.54843
# Velocity P-wave (km/s) = 6.59089 7.02960 6.81378
#
# Compressibility (1/GPa) = 0.01908311
#
# Stress axis : x y z
#
# Youngs Moduli (GPa) = 83.54136 83.54136 50.96016
#
# Poissons Ratio (x) = 0.42871 0.18113
# Poissons Ratio (y) = 0.42871 0.18113
# Poissons Ratio (z) = 0.29693 0.29693
#
# Static dielectric constant tensor:
#      x y z
#    x 3.539860 0.000000 0.000000 
#    y 0.000000 3.539860 0.000000 
#    z 0.000000 0.000000 3.495810 
# 
# 
# High freq. dielectric constant tensor:
#      x y z
#    x 1.746550 0.000000 0.000000 
#    y 0.000000 1.746550 0.000000 
#    z 0.000000 0.000000 1.724910 
# 
# From -- ./inp_files/8397.got.cif
#   From: 2010.03.12/outbox.cif.g09.slc.cpg/sg194_5_cif.got.tgz:8397.got - 2010.04.01 12:26:19.
