data_PCOD8330974
_publ_section_title
;
Structure prediction by ZEFSAII (Michael W. Deem and Ramdas Pophale) SiO2 
 PCOD8330974
Probable space group: I A 3
;
_chemical_formula_sum "Si O2"
_cell_formula_units_Z 112
_cell_length_a 16.908388
_cell_length_b 16.908388
_cell_length_c 16.908388
_cell_angle_alpha 90.000000
_cell_angle_beta 90.000000
_cell_angle_gamma 90.000000
_cell_volume 4833.999658
_symmetry_space_group_name_H-M "I A 3"
_symmetry_group_IT_number 206
_symmetry_cell_setting 'cubic'
loop_
_space_group_symop_operation_xyz
x,y,z
z,x,y
y,z,x
-y,1/2-z,x
z,-x,1/2-y
1/2-y,z,-x
-z,1/2-x,y
1/2-z,x,-y
y,-z,1/2-x
-x,1/2-y,z
x,-y,1/2-z
1/2-x,y,-z
-x,-y,-z
-z,-x,-y
-y,-z,-x
y,1/2+z,-x
-z,x,1/2+y
1/2+y,-z,x
z,1/2+x,-y
1/2+z,-x,y
-y,z,1/2+x
x,1/2+y,-z
-x,y,1/2+z
1/2+x,-y,z
1/2+x,1/2+y,1/2+z
1/2+z,1/2+x,1/2+y
1/2+y,1/2+z,1/2+x
1/2-y,-z,1/2+x
1/2+z,1/2-x,-y
-y,1/2+z,1/2-x
1/2-z,-x,1/2+y
-z,1/2+x,1/2-y
1/2+y,1/2-z,-x
1/2-x,-y,1/2+z
1/2+x,1/2-y,-z
-x,1/2+y,1/2-z
1/2-x,1/2-y,1/2-z
1/2-z,1/2-x,1/2-y
1/2-y,1/2-z,1/2-x
1/2+y,z,1/2-x
1/2-z,1/2+x,y
y,1/2-z,1/2+x
1/2+z,x,1/2-y
z,1/2-x,1/2+y
1/2-y,1/2+z,x
1/2+x,y,1/2-z
1/2-x,1/2+y,z
x,1/2-y,1/2+z
loop_
_atom_site_type_symbol
_atom_site_label
_atom_site_fract_x
_atom_site_fract_y
_atom_site_fract_z
Si Si1 0.196128 0.803873 0.303874
Si Si2 0.269881 0.543447 0.585846
Si Si3 0.372898 0.397191 0.168125
O O1 0.250000 0.750000 0.250000
O O2 0.246203 0.842702 0.373313
O O3 0.250000 0.578246 0.500000
O O4 0.318890 0.462237 0.572585
O O5 0.323857 0.607346 0.630733
O O6 0.187116 0.535250 0.634758
#
# Coordination Sequence:
#
# PCOD8330974 Si02
#       3
#    16  48  48
#     4  12  24  42  72 108 133 182 238 300 348 423
#     4  12  26  48  72 106 143 193 238 300 366 432
#     4  12  26  47  74 103 147 188 244 299 367 436
#
# _framework density 23.169222000000001
#
# number of rings (size 3 to 8) (size 9 to 14) (size 15 to 20)
#    0.000    0.000    8.571    0.000    6.000    0.000 
#    2.571    2.143    0.000    0.000    0.000    0.000 
#    0.000    0.000    0.000    0.000    0.000    0.000 
#
# Total GULP energy -694439.982312 kJ/mol
# GULP energy per Si atom -12400.713970 kJ/mol
# Density = 2.311649 g / cm^3
# Si number density = 23.169222 Si / 1000 Ang^3
#
#
#
# Elastic Constant Matrix: (Units=GPa)
#
#
# Indices 1 2 3 4 5 6 
#
# 1 90.0304 27.6200 27.6210 0.0000 0.0000 0.0000
# 2 27.6200 90.0295 27.6204 0.0000 0.0000 0.0000
# 3 27.6210 27.6204 90.0316 0.0000 0.0000 0.0000
# 4 0.0000 0.0000 0.0000 32.8913 0.0000 0.0000
# 5 0.0000 0.0000 0.0000 0.0000 32.8916 0.0000
# 6 0.0000 0.0000 0.0000 0.0000 0.0000 32.8913
#
#
#
# Elastic Compliance Matrix: (Units=1/GPa)
#
#
# Indices 1 2 3 4 5 6 
#
# 1 0.012977 -0.003046 -0.003047 0.000000 0.000000 0.000000
# 2 -0.003046 0.012977 -0.003046 0.000000 0.000000 0.000000
# 3 -0.003047 -0.003046 0.012976 0.000000 0.000000 0.000000
# 4 0.000000 0.000000 0.000000 0.030403 0.000000 0.000000
# 5 0.000000 0.000000 0.000000 0.000000 0.030403 0.000000
# 6 0.000000 0.000000 0.000000 0.000000 0.000000 0.030403
#
#
# Mechanical properties :
#
#
# Convention : Reuss Voigt Hill
#
# Bulk Modulus (GPa) = 48.42383 48.42383 48.42383
# Shear Modulus (GPa) = 32.19543 32.21684 32.20613
#
# Velocity S-wave (km/s) = 3.73175 3.73299 3.73237
# Velocity P-wave (km/s) = 6.28597 6.28695 6.28646
#
# Compressibility (1/GPa) = 0.02065099
#
# Stress axis : x y z
#
# Youngs Moduli (GPa) = 77.06158 77.06114 77.06256
#
# Poissons Ratio (x) = 0.23476 0.23477
# Poissons Ratio (y) = 0.23476 0.23477
# Poissons Ratio (z) = 0.23477 0.23476
#
# Static dielectric constant tensor:
#      x y z
#    x 4.246090 0.000000 0.000000 
#    y 0.000000 4.246200 0.000000 
#    z 0.000000 0.000000 4.246140 
# 
# 
# High freq. dielectric constant tensor:
#      x y z
#    x 1.914250 0.000000 0.000000 
#    y 0.000000 1.914250 0.000000 
#    z 0.000000 0.000000 1.914250 
# 
# From -- ./inp_files/356.got.cif
#   From: 2010.03.12/outbox.cif.g09.slc.cpg/sg206_cif.got.tgz:356.got - 2010.03.30 09:03:11.
