data_PCOD8330435
_publ_section_title
;
Structure prediction by ZEFSAII (Michael W. Deem and Ramdas Pophale) SiO2 
 PCOD8330435
Probable space group: P 63/M M C
;
_chemical_formula_sum "Si O2"
_cell_formula_units_Z 108
_cell_length_a 17.912230
_cell_length_b 17.912230
_cell_length_c 24.409071
_cell_angle_alpha 90.000000
_cell_angle_beta 90.000000
_cell_angle_gamma 120.000000
_cell_volume 6782.365601
_symmetry_space_group_name_H-M "P 63/M M C"
_symmetry_group_IT_number 194
_symmetry_cell_setting 'hexagonal'
loop_
_space_group_symop_operation_xyz
x,y,z
x-y,x,1/2+z
-y,x-y,z
-x,-y,1/2+z
-x+y,-x,z
y,-x+y,1/2+z
x-y,-y,-z
-x,-x+y,-z
y,x,-z
-y,-x,1/2-z
-x+y,y,1/2-z
x,x-y,1/2-z
-x,-y,-z
-x+y,-x,1/2-z
y,-x+y,-z
x,y,1/2-z
x-y,x,-z
-y,x-y,1/2-z
-x+y,y,z
x,x-y,z
-y,-x,z
y,x,1/2+z
x-y,-y,1/2+z
-x,-x+y,1/2+z
loop_
_atom_site_type_symbol
_atom_site_label
_atom_site_fract_x
_atom_site_fract_y
_atom_site_fract_z
Si Si1 0.176670 0.002002 0.869060
Si Si2 0.501424 0.666519 0.935224
Si Si3 0.835021 0.501637 0.565702
Si Si4 0.168659 0.167286 0.750000
Si Si5 0.675121 0.674854 0.434889
O O1 0.165560 0.082780 0.885648
O O2 0.219439 0.016020 0.807641
O O3 0.239662 0.995006 0.911835
O O4 0.083355 0.916646 0.871598
O O5 0.498625 0.749313 0.912531
O O6 0.419141 0.580860 0.911909
O O7 0.587515 0.669897 0.913574
O O8 0.499623 0.665275 0.000471
O O9 0.747469 0.494939 0.588277
O O10 0.842389 0.421195 0.588787
O O11 0.915391 0.590404 0.586871
O O12 0.127846 0.063923 0.750000
O O13 0.095767 0.191534 0.750000
O O14 0.681291 0.681291 0.500000
#
# Coordination Sequence:
#
# PCOD8330435 Si02
#       5
#    24  24  24  12  24
#     4  10  19  31  46  63  84 111 144 178 210 245
#     4   9  16  26  40  58  81 111 147 182 212 244
#     4   9  16  26  40  58  81 111 147 182 212 244
#     4   8  15  28  46  64  79 100 136 182 220 242
#     4  10  19  29  41  61  91 120 139 163 209 264
#
# _framework density 15.923648
#
# number of rings (size 3 to 8) (size 9 to 14) (size 15 to 20)
#    0.000    2.667    0.000    2.778    0.000    8.889 
#    0.000    0.000    0.000    1.333    0.000    3.111 
#    0.000    0.000    0.000    4.444    0.000    1.778 
#
# Total GULP energy -1338486.527143 kJ/mol
# GULP energy per Si atom -12393.393770 kJ/mol
# Density = 1.588740 g / cm^3
# Si number density = 15.923648 Si / 1000 Ang^3
#
#
#
# Elastic Constant Matrix: (Units=GPa)
#
#
# Indices 1 2 3 4 5 6 
#
# 1 131.6045 62.8621 23.7967 0.0000 0.0000 0.0000
# 2 62.8621 131.6045 23.7967 0.0000 0.0000 0.0000
# 3 23.7967 23.7967 24.2096 0.0000 0.0000 0.0000
# 4 0.0000 0.0000 0.0000 8.0250 0.0000 0.0000
# 5 0.0000 0.0000 0.0000 0.0000 8.0250 0.0000
# 6 0.0000 0.0000 0.0000 0.0000 0.0000 34.3712
#
#
#
# Elastic Compliance Matrix: (Units=1/GPa)
#
#
# Indices 1 2 3 4 5 6 
#
# 1 0.010659 -0.003888 -0.006656 0.000000 0.000000 0.000000
# 2 -0.003888 0.010659 -0.006656 0.000000 0.000000 0.000000
# 3 -0.006656 -0.006656 0.054390 0.000000 0.000000 0.000000
# 4 0.000000 0.000000 0.000000 0.124610 0.000000 0.000000
# 5 0.000000 0.000000 0.000000 0.000000 0.124610 0.000000
# 6 0.000000 0.000000 0.000000 0.000000 0.000000 0.029094
#
#
# Mechanical properties :
#
#
# Convention : Reuss Voigt Hill
#
# Bulk Modulus (GPa) = 24.20733 56.48105 40.34419
# Shear Modulus (GPa) = 12.43191 21.88181 17.15686
#
# Velocity S-wave (km/s) = 2.79717 3.71100 3.28601
# Velocity P-wave (km/s) = 5.06629 7.34227 6.30778
#
# Compressibility (1/GPa) = 0.04130980
#
# Stress axis : x y z
#
# Youngs Moduli (GPa) = 93.81644 93.81644 18.38568
#
# Poissons Ratio (x) = 0.36475 0.12237
# Poissons Ratio (y) = 0.36475 0.12237
# Poissons Ratio (z) = 0.62441 0.62441
#
# Static dielectric constant tensor:
#      x y z
#    x 3.140590 0.000000 0.000000 
#    y 0.000000 3.140590 0.000000 
#    z 0.000000 0.000000 2.715450 
# 
# 
# High freq. dielectric constant tensor:
#      x y z
#    x 1.620260 0.000000 0.000000 
#    y 0.000000 1.620260 0.000000 
#    z 0.000000 0.000000 1.548360 
# 
# From -- ./inp_files/7915.got.cif
#   From: 2010.03.12/outbox.cif.g09.slc.cpg/sg194_4_cif.got.tgz:7915.got - 2010.04.01 12:26:19.
