data_PCOD8330587
_publ_section_title
;
Structure prediction by ZEFSAII (Michael W. Deem and Ramdas Pophale) SiO2 
 PCOD8330587
Probable space group: P 63/M M C
;
_chemical_formula_sum "Si O2"
_cell_formula_units_Z 144
_cell_length_a 21.613216
_cell_length_b 21.613216
_cell_length_c 20.052965
_cell_angle_alpha 90.000000
_cell_angle_beta 90.000000
_cell_angle_gamma 120.000000
_cell_volume 8112.374945
_symmetry_space_group_name_H-M "P 63/M M C"
_symmetry_group_IT_number 194
_symmetry_cell_setting 'hexagonal'
loop_
_space_group_symop_operation_xyz
x,y,z
x-y,x,1/2+z
-y,x-y,z
-x,-y,1/2+z
-x+y,-x,z
y,-x+y,1/2+z
x-y,-y,-z
-x,-x+y,-z
y,x,-z
-y,-x,1/2-z
-x+y,y,1/2-z
x,x-y,1/2-z
-x,-y,-z
-x+y,-x,1/2-z
y,-x+y,-z
x,y,1/2-z
x-y,x,-z
-y,x-y,1/2-z
-x+y,y,z
x,x-y,z
-y,-x,z
y,x,1/2+z
x-y,-y,1/2+z
-x,-x+y,1/2+z
loop_
_atom_site_type_symbol
_atom_site_label
_atom_site_fract_x
_atom_site_fract_y
_atom_site_fract_z
Si Si1 0.531657 0.606945 0.962513
Si Si2 0.203439 0.262978 0.826544
Si Si3 0.402730 0.351369 0.176727
Si Si4 0.198412 0.949974 0.063783
Si Si5 0.480783 0.376722 0.822922
Si Si6 0.865284 0.588833 0.562557
O O1 0.449371 0.550630 0.975578
O O2 0.540853 0.619594 0.883244
O O3 0.580551 0.580551 0.000000
O O4 0.551730 0.681311 0.995655
O O5 0.200943 0.239958 0.750000
O O6 0.133966 0.267931 0.846179
O O7 0.272088 0.340060 0.840381
O O8 0.206838 0.202870 0.871242
O O9 0.436433 0.351134 0.250000
O O10 0.374297 0.406255 0.181631
O O11 0.120005 0.879996 0.059540
O O12 0.262399 0.931633 0.071325
O O13 0.212812 0.000000 0.000000
O O14 0.498829 0.357245 0.750000
O O15 0.545551 0.454449 0.846135
O O16 0.465939 0.316112 0.876469
O O17 0.799110 0.598219 0.551905
#
# Coordination Sequence:
#
# PCOD8330587 Si02
#       6
#    24  24  24  24  24  24
#     4  11  20  32  52  76 105 139 179 225 273 321
#     4  10  20  35  56  81 111 143 173 215 272 329
#     4  10  19  32  52  81 113 141 175 218 269 327
#     4  11  22  36  55  78 106 141 182 228 272 319
#     4  10  19  33  54  80 113 148 181 222 268 316
#     4  11  22  34  52  79 110 145 185 227 274 326
#
# _framework density 17.750658999999999
#
# number of rings (size 3 to 8) (size 9 to 14) (size 15 to 20)
#    0.000    1.500    3.333    3.000    0.000    3.667 
#    0.000    1.667    0.000    5.667    0.000    0.000 
#    0.000    0.000    0.000    0.000    0.000    0.000 
#
# Total GULP energy -1784528.382980 kJ/mol
# GULP energy per Si atom -12392.558215 kJ/mol
# Density = 1.771026 g / cm^3
# Si number density = 17.750659 Si / 1000 Ang^3
#
#
#
# Elastic Constant Matrix: (Units=GPa)
#
#
# Indices 1 2 3 4 5 6 
#
# 1 77.6677 36.4367 41.7737 0.0000 0.0000 0.0000
# 2 36.4367 77.6677 41.7737 0.0000 0.0000 0.0000
# 3 41.7737 41.7737 126.2421 0.0000 0.0000 0.0000
# 4 0.0000 0.0000 0.0000 20.3128 0.0000 0.0000
# 5 0.0000 0.0000 0.0000 0.0000 20.3128 0.0000
# 6 0.0000 0.0000 0.0000 0.0000 0.0000 20.6155
#
#
#
# Elastic Compliance Matrix: (Units=1/GPa)
#
#
# Indices 1 2 3 4 5 6 
#
# 1 0.017910 -0.006344 -0.003827 0.000000 0.000000 0.000000
# 2 -0.006344 0.017910 -0.003827 0.000000 0.000000 0.000000
# 3 -0.003827 -0.003827 0.010454 0.000000 0.000000 0.000000
# 4 0.000000 0.000000 0.000000 0.049230 0.000000 0.000000
# 5 0.000000 0.000000 0.000000 0.000000 0.049230 0.000000
# 6 0.000000 0.000000 0.000000 0.000000 0.000000 0.048507
#
#
# Mechanical properties :
#
#
# Convention : Reuss Voigt Hill
#
# Bulk Modulus (GPa) = 54.71197 57.94954 56.33076
# Shear Modulus (GPa) = 21.99441 23.02110 22.50776
#
# Velocity S-wave (km/s) = 3.52387 3.60518 3.56476
# Velocity P-wave (km/s) = 6.88813 7.07439 6.98188
#
# Compressibility (1/GPa) = 0.01827754
#
# Stress axis : x y z
#
# Youngs Moduli (GPa) = 55.83495 55.83495 95.65533
#
# Poissons Ratio (x) = 0.35420 0.36610
# Poissons Ratio (y) = 0.35420 0.36610
# Poissons Ratio (z) = 0.21370 0.21370
#
# Static dielectric constant tensor:
#      x y z
#    x 3.139310 0.000000 0.000000 
#    y 0.000000 3.139310 0.000000 
#    z 0.000000 0.000000 3.544670 
# 
# 
# High freq. dielectric constant tensor:
#      x y z
#    x 1.663400 0.000000 0.000000 
#    y 0.000000 1.663400 0.000000 
#    z 0.000000 0.000000 1.710770 
# 
# From -- ./inp_files/8192.got.cif
#   From: 2010.03.12/outbox.cif.g09.slc.cpg/sg194_5_cif.got.tgz:8192.got - 2010.04.01 12:26:19.
