data_PCOD8330355
_publ_section_title
;
Structure prediction by ZEFSAII (Michael W. Deem and Ramdas Pophale) SiO2 
 PCOD8330355
Probable space group: P 63/M M C
;
_chemical_formula_sum "Si O2"
_cell_formula_units_Z 120
_cell_length_a 22.663546
_cell_length_b 22.663546
_cell_length_c 16.981239
_cell_angle_alpha 90.000000
_cell_angle_beta 90.000000
_cell_angle_gamma 120.000000
_cell_volume 7553.630377
_symmetry_space_group_name_H-M "P 63/M M C"
_symmetry_group_IT_number 194
_symmetry_cell_setting 'hexagonal'
loop_
_space_group_symop_operation_xyz
x,y,z
x-y,x,1/2+z
-y,x-y,z
-x,-y,1/2+z
-x+y,-x,z
y,-x+y,1/2+z
x-y,-y,-z
-x,-x+y,-z
y,x,-z
-y,-x,1/2-z
-x+y,y,1/2-z
x,x-y,1/2-z
-x,-y,-z
-x+y,-x,1/2-z
y,-x+y,-z
x,y,1/2-z
x-y,x,-z
-y,x-y,1/2-z
-x+y,y,z
x,x-y,z
-y,-x,z
y,x,1/2+z
x-y,-y,1/2+z
-x,-x+y,1/2+z
loop_
_atom_site_type_symbol
_atom_site_label
_atom_site_fract_x
_atom_site_fract_y
_atom_site_fract_z
Si Si1 0.720887 0.577889 0.416879
Si Si2 0.958458 0.547558 0.340699
Si Si3 0.382259 0.325488 0.558550
Si Si4 0.205579 0.281275 0.158162
Si Si5 0.925299 0.203456 0.339498
O O1 0.775364 0.550728 0.409190
O O2 0.656460 0.541243 0.358056
O O3 0.689089 0.566629 0.505322
O O4 0.758581 0.658079 0.397202
O O5 0.977621 0.568113 0.250000
O O6 0.949953 0.474977 0.360445
O O7 0.020665 0.602997 0.394230
O O8 0.326546 0.326546 0.500000
O O9 0.349542 0.264024 0.619401
O O10 0.209604 0.295926 0.250000
O O11 0.131689 0.263378 0.124706
O O12 0.218656 0.219327 0.137860
O O13 0.923733 0.227892 0.250000
O O14 0.877579 0.122422 0.347584
#
# Coordination Sequence:
#
# PCOD8330355 Si02
#       5
#    24  24  24  24  24
#     4  10  19  30  48  71  95 125 161 198 238 287
#     4  10  20  33  50  72  99 131 165 200 243 293
#     4  10  18  29  45  66  96 123 151 193 235 286
#     4  10  18  28  43  63  89 121 155 194 238 280
#     4   9  16  27  43  63  88 119 157 197 234 278
#
# _framework density 15.8864
#
# number of rings (size 3 to 8) (size 9 to 14) (size 15 to 20)
#    0.000    2.200    4.000    1.800    0.000    4.800 
#    0.000    0.000    0.000    0.800    0.000    2.800 
#    0.000    0.800    0.000    0.000    0.000   13.000 
#
# Total GULP energy -1486641.678911 kJ/mol
# GULP energy per Si atom -12388.680658 kJ/mol
# Density = 1.585024 g / cm^3
# Si number density = 15.886400 Si / 1000 Ang^3
#
#
#
# Elastic Constant Matrix: (Units=GPa)
#
#
# Indices 1 2 3 4 5 6 
#
# 1 92.6108 44.2276 34.9244 0.0000 0.0000 0.0000
# 2 44.2276 92.6108 34.9244 0.0000 0.0000 0.0000
# 3 34.9244 34.9244 52.3203 0.0000 0.0000 0.0000
# 4 0.0000 0.0000 0.0000 17.9473 0.0000 0.0000
# 5 0.0000 0.0000 0.0000 0.0000 17.9473 0.0000
# 6 0.0000 0.0000 0.0000 0.0000 0.0000 24.1916
#
#
#
# Elastic Compliance Matrix: (Units=1/GPa)
#
#
# Indices 1 2 3 4 5 6 
#
# 1 0.015877 -0.004792 -0.007399 0.000000 0.000000 0.000000
# 2 -0.004792 0.015877 -0.007399 0.000000 0.000000 0.000000
# 3 -0.007399 -0.007399 0.028991 0.000000 0.000000 0.000000
# 4 0.000000 0.000000 0.000000 0.055719 0.000000 0.000000
# 5 0.000000 0.000000 0.000000 0.000000 0.055719 0.000000
# 6 0.000000 0.000000 0.000000 0.000000 0.000000 0.041337
#
#
# Mechanical properties :
#
#
# Convention : Reuss Voigt Hill
#
# Bulk Modulus (GPa) = 46.37386 51.74383 49.05884
# Shear Modulus (GPa) = 19.23913 20.24826 19.74369
#
# Velocity S-wave (km/s) = 3.48378 3.57398 3.52917
# Velocity P-wave (km/s) = 6.74067 7.04790 6.89600
#
# Compressibility (1/GPa) = 0.02156387
#
# Stress axis : x y z
#
# Youngs Moduli (GPa) = 62.98589 62.98589 34.49321
#
# Poissons Ratio (x) = 0.30181 0.25522
# Poissons Ratio (y) = 0.30181 0.25522
# Poissons Ratio (z) = 0.46605 0.46605
#
# Static dielectric constant tensor:
#      x y z
#    x 2.986130 0.000000 0.000000 
#    y 0.000000 2.986130 0.000000 
#    z 0.000000 0.000000 3.282820 
# 
# 
# High freq. dielectric constant tensor:
#      x y z
#    x 1.584440 0.000000 0.000000 
#    y 0.000000 1.584440 0.000000 
#    z 0.000000 0.000000 1.625360 
# 
# From -- ./inp_files/5093.got.cif
#   From: 2010.03.12/outbox.cif.g09.slc.cpg/sg194_3_cif.got.tgz:5093.got - 2010.04.01 12:26:19.
