data_PCOD8330453
_publ_section_title
;
Structure prediction by ZEFSAII (Michael W. Deem and Ramdas Pophale) SiO2 
 PCOD8330453
Probable space group: P 63/M M C
;
_chemical_formula_sum "Si O2"
_cell_formula_units_Z 156
_cell_length_a 21.216590
_cell_length_b 21.216590
_cell_length_c 28.232204
_cell_angle_alpha 90.000000
_cell_angle_beta 90.000000
_cell_angle_gamma 120.000000
_cell_volume 11005.925864
_symmetry_space_group_name_H-M "P 63/M M C"
_symmetry_group_IT_number 194
_symmetry_cell_setting 'hexagonal'
loop_
_space_group_symop_operation_xyz
x,y,z
x-y,x,1/2+z
-y,x-y,z
-x,-y,1/2+z
-x+y,-x,z
y,-x+y,1/2+z
x-y,-y,-z
-x,-x+y,-z
y,x,-z
-y,-x,1/2-z
-x+y,y,1/2-z
x,x-y,1/2-z
-x,-y,-z
-x+y,-x,1/2-z
y,-x+y,-z
x,y,1/2-z
x-y,x,-z
-y,x-y,1/2-z
-x+y,y,z
x,x-y,z
-y,-x,z
y,x,1/2+z
x-y,-y,1/2+z
-x,-x+y,1/2+z
loop_
_atom_site_type_symbol
_atom_site_label
_atom_site_fract_x
_atom_site_fract_y
_atom_site_fract_z
Si Si1 0.614288 0.526898 0.886200
Si Si2 0.283187 0.858465 0.196833
Si Si3 0.000697 0.151019 0.250000
Si Si4 0.256669 0.887222 0.509962
Si Si5 0.302373 0.315567 0.079322
Si Si6 0.810673 0.334687 0.526880
Si Si7 0.795885 0.058622 0.832097
O O1 0.526967 0.473034 0.886277
O O2 0.645493 0.528836 0.834295
O O3 0.633569 0.607874 0.900447
O O4 0.653088 0.496960 0.920841
O O5 0.306227 0.854254 0.250000
O O6 0.220023 0.779978 0.178778
O O7 0.252910 0.914420 0.194846
O O8 0.924493 0.075508 0.250000
O O9 0.067445 0.134889 0.250000
O O10 0.005248 0.197270 0.297009
O O11 0.174632 0.825369 0.514947
O O12 0.259923 0.929549 0.462200
O O13 0.311904 0.855897 0.507850
O O14 0.274365 0.933289 0.557636
O O15 0.245978 0.264391 0.119631
O O16 0.816242 0.408121 0.506363
O O17 0.726994 0.273007 0.530087
O O18 0.873596 0.126405 0.846640
#
# Coordination Sequence:
#
# PCOD8330453 Si02
#       7
#    24  24  12  24  24  24  24
#     4   9  17  26  37  56  80 104 133 166 202 239
#     4   9  15  25  41  57  74 100 135 170 196 223
#     4  10  19  30  44  64  87 106 126 154 192 234
#     4   9  17  28  41  60  81 102 132 167 202 235
#     4   9  17  28  43  59  80 107 131 164 200 236
#     4   9  16  26  39  55  76 104 136 168 200 237
#     4   9  16  28  44  61  79 103 134 161 188 228
#
# _framework density 14.174182999999999
#
# number of rings (size 3 to 8) (size 9 to 14) (size 15 to 20)
#    0.000    2.923    0.769    1.154    0.000    5.231 
#    0.000    3.077    0.000    0.308    0.000    0.000 
#    0.000    0.000    0.000   19.077    0.000    0.000 
#
# Total GULP energy -1933666.721187 kJ/mol
# GULP energy per Si atom -12395.299495 kJ/mol
# Density = 1.414192 g / cm^3
# Si number density = 14.174183 Si / 1000 Ang^3
#
#
#
# Elastic Constant Matrix: (Units=GPa)
#
#
# Indices 1 2 3 4 5 6 
#
# 1 81.7095 44.8679 43.8991 0.0000 0.0000 0.0000
# 2 44.8679 81.7095 43.8991 0.0000 0.0000 0.0000
# 3 43.8991 43.8991 85.1998 0.0000 0.0000 0.0000
# 4 0.0000 0.0000 0.0000 21.2694 0.0000 0.0000
# 5 0.0000 0.0000 0.0000 0.0000 21.2694 0.0000
# 6 0.0000 0.0000 0.0000 0.0000 0.0000 18.4208
#
#
#
# Elastic Compliance Matrix: (Units=1/GPa)
#
#
# Indices 1 2 3 4 5 6 
#
# 1 0.019719 -0.007425 -0.006335 0.000000 0.000000 0.000000
# 2 -0.007425 0.019719 -0.006335 0.000000 0.000000 0.000000
# 3 -0.006335 -0.006335 0.018265 0.000000 0.000000 0.000000
# 4 0.000000 0.000000 0.000000 0.047016 0.000000 0.000000
# 5 0.000000 0.000000 0.000000 0.000000 0.047016 0.000000
# 6 0.000000 0.000000 0.000000 0.000000 0.000000 0.054286
#
#
# Mechanical properties :
#
#
# Convention : Reuss Voigt Hill
#
# Bulk Modulus (GPa) = 57.09403 57.10567 57.09985
# Shear Modulus (GPa) = 19.83764 19.92210 19.87987
#
# Velocity S-wave (km/s) = 3.74513 3.75309 3.74911
# Velocity P-wave (km/s) = 7.68564 7.69135 7.68850
#
# Compressibility (1/GPa) = 0.01751497
#
# Stress axis : x y z
#
# Youngs Moduli (GPa) = 50.71326 50.71326 54.74989
#
# Poissons Ratio (x) = 0.37652 0.34682
# Poissons Ratio (y) = 0.37652 0.34682
# Poissons Ratio (z) = 0.32125 0.32125
#
# Static dielectric constant tensor:
#      x y z
#    x 2.706190 0.000000 0.000000 
#    y 0.000000 2.706190 0.000000 
#    z 0.000000 0.000000 2.753720 
# 
# 
# High freq. dielectric constant tensor:
#      x y z
#    x 1.529570 0.000000 0.000000 
#    y 0.000000 1.529570 0.000000 
#    z 0.000000 0.000000 1.534290 
# 
# From -- ./inp_files/12369.got.cif
#   From: 2010.03.12/outbox.cif.g09.slc.cpg/sg194_7_cif.got.tgz:12369.got - 2010.04.01 12:26:19.
