data_PCOD8330020
_publ_section_title
;
Structure prediction by ZEFSAII (Michael W. Deem and Ramdas Pophale) SiO2 
 PCOD8330020
Probable space group: P 63/M C M
;
_chemical_formula_sum "Si O2"
_cell_formula_units_Z 72
_cell_length_a 18.331629
_cell_length_b 18.331629
_cell_length_c 14.337208
_cell_angle_alpha 90.000000
_cell_angle_beta 90.000000
_cell_angle_gamma 120.000000
_cell_volume 4172.509520
_symmetry_space_group_name_H-M "P 63/M C M"
_symmetry_group_IT_number 193
_symmetry_cell_setting 'hexagonal'
loop_
_space_group_symop_operation_xyz
x,y,z
x-y,x,1/2+z
-y,x-y,z
-x,-y,1/2+z
-x+y,-x,z
y,-x+y,1/2+z
x-y,-y,1/2-z
-x,-x+y,1/2-z
y,x,1/2-z
-y,-x,-z
-x+y,y,-z
x,x-y,-z
-x,-y,-z
-x+y,-x,1/2-z
y,-x+y,-z
x,y,1/2-z
x-y,x,-z
-y,x-y,1/2-z
-x+y,y,1/2+z
x,x-y,1/2+z
-y,-x,1/2+z
y,x,z
x-y,-y,z
-x,-x+y,z
loop_
_atom_site_type_symbol
_atom_site_label
_atom_site_fract_x
_atom_site_fract_y
_atom_site_fract_z
Si Si1 0.099591 0.704361 0.250000
Si Si2 0.382625 0.482570 0.556845
Si Si3 0.099281 0.338412 0.549570
Si Si4 0.100351 0.560993 0.750000
O O1 0.127261 0.762557 0.342732
O O2 0.137018 0.640576 0.250000
O O3 0.000000 0.646420 0.250000
O O4 0.430728 0.569273 0.500000
O O5 0.435647 0.435647 0.552319
O O6 0.292757 0.422826 0.511109
O O7 0.375852 0.508669 0.662245
O O8 0.147242 0.294484 0.500000
O O9 0.000000 0.273753 0.542369
O O10 0.000000 0.505033 0.750000
#
# Coordination Sequence:
#
# PCOD8330020 Si02
#       4
#    12  24  24  12
#     4   9  16  29  49  71  97 132 167 201 255 321
#     4   9  15  25  44  70  94 118 153 197 239 290
#     4  10  20  33  50  74 103 135 175 221 267 308
#     4   9  14  23  44  73 100 122 152 193 240 297
#
# _framework density 17.255801999999999
#
# number of rings (size 3 to 8) (size 9 to 14) (size 15 to 20)
#    0.000    2.667    3.333    0.000    0.000    1.333 
#    0.000    2.500    0.000    1.000    0.000    0.000 
#    0.000    0.000    0.000    0.000    0.000    0.000 
#
# Total GULP energy -892178.800274 kJ/mol
# GULP energy per Si atom -12391.372226 kJ/mol
# Density = 1.721653 g / cm^3
# Si number density = 17.255802 Si / 1000 Ang^3
#
#
#
# Elastic Constant Matrix: (Units=GPa)
#
#
# Indices 1 2 3 4 5 6 
#
# 1 51.0794 23.6239 41.2981 0.0000 0.0000 0.0000
# 2 23.6239 51.0794 41.2981 0.0000 0.0000 0.0000
# 3 41.2981 41.2981 175.0685 0.0000 0.0000 0.0000
# 4 0.0000 0.0000 0.0000 22.3876 0.0000 0.0000
# 5 0.0000 0.0000 0.0000 0.0000 22.3876 0.0000
# 6 0.0000 0.0000 0.0000 0.0000 0.0000 13.7277
#
#
#
# Elastic Compliance Matrix: (Units=1/GPa)
#
#
# Indices 1 2 3 4 5 6 
#
# 1 0.027266 -0.009156 -0.004272 0.000000 0.000000 0.000000
# 2 -0.009156 0.027266 -0.004272 0.000000 0.000000 0.000000
# 3 -0.004272 -0.004272 0.007728 0.000000 0.000000 0.000000
# 4 0.000000 0.000000 0.000000 0.044668 0.000000 0.000000
# 5 0.000000 0.000000 0.000000 0.000000 0.044668 0.000000
# 6 0.000000 0.000000 0.000000 0.000000 0.000000 0.072845
#
#
# Mechanical properties :
#
#
# Convention : Reuss Voigt Hill
#
# Bulk Modulus (GPa) = 37.23170 54.40751 45.81961
# Shear Modulus (GPa) = 18.60161 23.10108 20.85134
#
# Velocity S-wave (km/s) = 3.28684 3.66285 3.47993
# Velocity P-wave (km/s) = 6.00230 7.03471 6.53891
#
# Compressibility (1/GPa) = 0.02685883
#
# Stress axis : x y z
#
# Youngs Moduli (GPa) = 36.67554 36.67554 129.40695
#
# Poissons Ratio (x) = 0.33582 0.55283
# Poissons Ratio (y) = 0.33582 0.55283
# Poissons Ratio (z) = 0.15668 0.15668
#
# Static dielectric constant tensor:
#      x y z
#    x 2.824410 0.000000 0.000000 
#    y 0.000000 2.824410 0.000000 
#    z 0.000000 0.000000 3.701060 
# 
# 
# High freq. dielectric constant tensor:
#      x y z
#    x 1.622550 0.000000 0.000000 
#    y 0.000000 1.622550 0.000000 
#    z 0.000000 0.000000 1.692590 
# 
# From -- ./inp_files/2007.got.cif
#   From: 2010.03.12/outbox.cif.g09.slc.cpg/sg193_2_cif.got.tgz:2007.got - 2010.04.01 12:20:39.
