data_PCOD8330203
_publ_section_title
;
Structure prediction by ZEFSAII (Michael W. Deem and Ramdas Pophale) SiO2 
 PCOD8330203
Probable space group: P 63/M C M
;
_chemical_formula_sum "Si O2"
_cell_formula_units_Z 102
_cell_length_a 20.495681
_cell_length_b 20.495681
_cell_length_c 13.696797
_cell_angle_alpha 90.000000
_cell_angle_beta 90.000000
_cell_angle_gamma 120.000000
_cell_volume 4982.810338
_symmetry_space_group_name_H-M "P 63/M C M"
_symmetry_group_IT_number 193
_symmetry_cell_setting 'hexagonal'
loop_
_space_group_symop_operation_xyz
x,y,z
x-y,x,1/2+z
-y,x-y,z
-x,-y,1/2+z
-x+y,-x,z
y,-x+y,1/2+z
x-y,-y,1/2-z
-x,-x+y,1/2-z
y,x,1/2-z
-y,-x,-z
-x+y,y,-z
x,x-y,-z
-x,-y,-z
-x+y,-x,1/2-z
y,-x+y,-z
x,y,1/2-z
x-y,x,-z
-y,x-y,1/2-z
-x+y,y,1/2+z
x,x-y,1/2+z
-y,-x,1/2+z
y,x,z
x-y,-y,z
-x,-x+y,z
loop_
_atom_site_type_symbol
_atom_site_label
_atom_site_fract_x
_atom_site_fract_y
_atom_site_fract_z
Si Si1 0.824648 0.356899 0.635527
Si Si2 0.505772 0.195603 0.135228
Si Si3 0.395396 0.087709 0.985040
Si Si4 0.919309 0.000000 0.750000
Si Si5 0.000000 0.198028 0.136480
Si Si6 0.853862 0.707724 0.000000
O O1 0.834920 0.361912 0.750000
O O2 0.752971 0.278734 0.601614
O O3 0.815238 0.425728 0.597778
O O4 0.898650 0.360538 0.589289
O O5 0.494452 0.185827 0.250000
O O6 0.429493 0.131575 0.086577
O O7 0.345128 0.000000 0.009718
O O8 0.344076 0.120391 0.939536
O O9 0.879330 0.000000 0.649838
O O10 0.924488 0.924488 0.750000
O O11 0.923055 0.172142 0.076088
O O12 0.000000 0.228420 0.250000
#
# Coordination Sequence:
#
# PCOD8330203 Si02
#       6
#    24  24  24   6  12  12
#     4  10  21  39  64  92 124 163 212 271 331 387
#     4  10  21  39  65  94 125 165 217 272 330 389
#     4  12  25  41  60  91 128 170 217 260 320 392
#     4   8  20  42  68 106 132 154 204 272 350 388
#     4  10  26  43  71 102 133 176 220 273 330 400
#     4  12  24  44  65  94 132 178 226 270 321 400
#
# _framework density 20.470376000000002
#
# number of rings (size 3 to 8) (size 9 to 14) (size 15 to 20)
#    0.471    0.941    3.529    1.176    1.647    6.588 
#    0.000    5.294    0.000    0.000    0.000    0.000 
#    0.000    0.000    0.000    0.000    0.000    0.000 
#
# Total GULP energy -1263663.269975 kJ/mol
# GULP energy per Si atom -12388.855588 kJ/mol
# Density = 2.042378 g / cm^3
# Si number density = 20.470376 Si / 1000 Ang^3
#
#
#
# Elastic Constant Matrix: (Units=GPa)
#
#
# Indices 1 2 3 4 5 6 
#
# 1 137.1092 56.6952 25.5773 0.0000 0.0000 0.0000
# 2 56.6952 137.1092 25.5773 0.0000 0.0000 0.0000
# 3 25.5773 25.5773 52.1004 0.0000 0.0000 0.0000
# 4 0.0000 0.0000 0.0000 29.1059 0.0000 0.0000
# 5 0.0000 0.0000 0.0000 0.0000 29.1059 0.0000
# 6 0.0000 0.0000 0.0000 0.0000 0.0000 40.2070
#
#
#
# Elastic Compliance Matrix: (Units=1/GPa)
#
#
# Indices 1 2 3 4 5 6 
#
# 1 0.009182 -0.003254 -0.002910 0.000000 0.000000 0.000000
# 2 -0.003254 0.009182 -0.002910 0.000000 0.000000 0.000000
# 3 -0.002910 -0.002910 0.022051 0.000000 0.000000 0.000000
# 4 0.000000 0.000000 0.000000 0.034357 0.000000 0.000000
# 5 0.000000 0.000000 0.000000 0.000000 0.034357 0.000000
# 6 0.000000 0.000000 0.000000 0.000000 0.000000 0.024871
#
#
# Mechanical properties :
#
#
# Convention : Reuss Voigt Hill
#
# Bulk Modulus (GPa) = 44.91092 60.22427 52.56759
# Shear Modulus (GPa) = 31.33401 34.24837 32.79119
#
# Velocity S-wave (km/s) = 3.91666 4.09476 4.00670
# Velocity P-wave (km/s) = 6.51466 7.20001 6.86589
#
# Compressibility (1/GPa) = 0.02226630
#
# Stress axis : x y z
#
# Youngs Moduli (GPa) = 108.91092 108.91092 45.34922
#
# Poissons Ratio (x) = 0.35438 0.13198
# Poissons Ratio (y) = 0.35438 0.13198
# Poissons Ratio (z) = 0.31695 0.31695
#
# Static dielectric constant tensor:
#      x y z
#    x 3.825490 0.000000 0.000000 
#    y 0.000000 3.825490 0.000000 
#    z 0.000000 0.000000 3.573980 
# 
# 
# High freq. dielectric constant tensor:
#      x y z
#    x 1.806760 0.000000 0.000000 
#    y 0.000000 1.806760 0.000000 
#    z 0.000000 0.000000 1.796860 
# 
# From -- ./inp_files/3739.got.cif
#   From: 2010.03.12/outbox.cif.g09.slc.cpg/sg193_2_cif.got.tgz:3739.got - 2010.04.01 12:20:39.
