data_PCOD8330444
_publ_section_title
;
Structure prediction by ZEFSAII (Michael W. Deem and Ramdas Pophale) SiO2 
 PCOD8330444
Probable space group: P 63/M M C
;
_chemical_formula_sum "Si O2"
_cell_formula_units_Z 120
_cell_length_a 17.921181
_cell_length_b 17.921181
_cell_length_c 27.359723
_cell_angle_alpha 90.000000
_cell_angle_beta 90.000000
_cell_angle_gamma 120.000000
_cell_volume 7609.840954
_symmetry_space_group_name_H-M "P 63/M M C"
_symmetry_group_IT_number 194
_symmetry_cell_setting 'hexagonal'
loop_
_space_group_symop_operation_xyz
x,y,z
x-y,x,1/2+z
-y,x-y,z
-x,-y,1/2+z
-x+y,-x,z
y,-x+y,1/2+z
x-y,-y,-z
-x,-x+y,-z
y,x,-z
-y,-x,1/2-z
-x+y,y,1/2-z
x,x-y,1/2-z
-x,-y,-z
-x+y,-x,1/2-z
y,-x+y,-z
x,y,1/2-z
x-y,x,-z
-y,x-y,1/2-z
-x+y,y,z
x,x-y,z
-y,-x,z
y,x,1/2+z
x-y,-y,1/2+z
-x,-x+y,1/2+z
loop_
_atom_site_type_symbol
_atom_site_label
_atom_site_fract_x
_atom_site_fract_y
_atom_site_fract_z
Si Si1 0.599424 0.576229 0.612612
Si Si2 0.504713 0.667148 0.035487
Si Si3 0.356333 0.091374 0.806554
Si Si4 0.836354 0.000433 0.191876
Si Si5 0.161266 0.667197 0.921597
O O1 0.511700 0.488301 0.617418
O O2 0.652263 0.573431 0.565551
O O3 0.652159 0.583814 0.661425
O O4 0.576961 0.652770 0.606689
O O5 0.513006 0.756503 0.052599
O O6 0.407744 0.592257 0.046617
O O7 0.526367 0.668922 0.978710
O O8 0.369378 0.076725 0.750000
O O9 0.379055 0.189528 0.814933
O O10 0.259271 0.025498 0.824743
O O11 0.838732 0.999788 0.250000
O O12 0.905808 0.094193 0.170870
O O13 0.860135 0.930068 0.171969
O O14 0.181691 0.590846 0.910253
O O15 0.242932 0.757069 0.904231
#
# Coordination Sequence:
#
# PCOD8330444 Si02
#       5
#    24  24  24  24  24
#     4  10  19  29  43  63  85 110 142 180 217 252
#     4   9  16  27  44  65  88 112 138 170 211 260
#     4   9  18  31  44  59  82 112 143 173 207 247
#     4   8  13  22  38  59  80 101 126 158 196 237
#     4   9  17  29  45  65  88 113 140 172 213 260
#
# _framework density 15.769055
#
# number of rings (size 3 to 8) (size 9 to 14) (size 15 to 20)
#    0.000    3.000    0.000    3.000    0.000    6.000 
#    0.000    0.000    0.000    0.400    0.000    0.000 
#    0.000    1.600    0.000    0.000    0.000   60.600 
#
# Total GULP energy -1487405.202705 kJ/mol
# GULP energy per Si atom -12395.043356 kJ/mol
# Density = 1.573316 g / cm^3
# Si number density = 15.769055 Si / 1000 Ang^3
#
#
#
# Elastic Constant Matrix: (Units=GPa)
#
#
# Indices 1 2 3 4 5 6 
#
# 1 69.4835 37.9151 30.5495 0.0000 0.0000 0.0000
# 2 37.9151 69.4835 30.5495 0.0000 0.0000 0.0000
# 3 30.5495 30.5495 49.2938 0.0000 0.0000 0.0000
# 4 0.0000 0.0000 0.0000 20.1916 0.0000 0.0000
# 5 0.0000 0.0000 0.0000 0.0000 20.1916 0.0000
# 6 0.0000 0.0000 0.0000 0.0000 0.0000 15.7842
#
#
#
# Elastic Compliance Matrix: (Units=1/GPa)
#
#
# Indices 1 2 3 4 5 6 
#
# 1 0.023029 -0.008648 -0.008913 0.000000 0.000000 0.000000
# 2 -0.008648 0.023029 -0.008913 0.000000 0.000000 0.000000
# 3 -0.008913 -0.008913 0.031334 0.000000 0.000000 0.000000
# 4 0.000000 0.000000 0.000000 0.049526 0.000000 0.000000
# 5 0.000000 0.000000 0.000000 0.000000 0.049526 0.000000
# 6 0.000000 0.000000 0.000000 0.000000 0.000000 0.063354
#
#
# Mechanical properties :
#
#
# Convention : Reuss Voigt Hill
#
# Bulk Modulus (GPa) = 40.90723 42.92101 41.91412
# Shear Modulus (GPa) = 16.61711 17.18324 16.90018
#
# Velocity S-wave (km/s) = 3.24972 3.30461 3.27728
# Velocity P-wave (km/s) = 6.33077 6.46825 6.39988
#
# Compressibility (1/GPa) = 0.02444556
#
# Stress axis : x y z
#
# Youngs Moduli (GPa) = 43.42262 43.42262 31.91416
#
# Poissons Ratio (x) = 0.37551 0.28445
# Poissons Ratio (y) = 0.37551 0.28445
# Poissons Ratio (z) = 0.38702 0.38702
#
# Static dielectric constant tensor:
#      x y z
#    x 3.084690 0.000000 0.000000 
#    y 0.000000 3.084690 0.000000 
#    z 0.000000 0.000000 2.671500 
# 
# 
# High freq. dielectric constant tensor:
#      x y z
#    x 1.604240 0.000000 0.000000 
#    y 0.000000 1.604240 0.000000 
#    z 0.000000 0.000000 1.569810 
# 
# From -- ./inp_files/11845.got.cif
#   From: 2010.03.12/outbox.cif.g09.slc.cpg/sg194_6_cif.got.tgz:11845.got - 2010.04.01 12:26:19.
