data_PCOD8330622
_publ_section_title
;
Structure prediction by ZEFSAII (Michael W. Deem and Ramdas Pophale) SiO2 
 PCOD8330622
Probable space group: P 63/M M C
;
_chemical_formula_sum "Si O2"
_cell_formula_units_Z 112
_cell_length_a 29.643510
_cell_length_b 29.643510
_cell_length_c 8.862922
_cell_angle_alpha 90.000000
_cell_angle_beta 90.000000
_cell_angle_gamma 120.000000
_cell_volume 6744.764814
_symmetry_space_group_name_H-M "P 63/M M C"
_symmetry_group_IT_number 194
_symmetry_cell_setting 'hexagonal'
loop_
_space_group_symop_operation_xyz
x,y,z
x-y,x,1/2+z
-y,x-y,z
-x,-y,1/2+z
-x+y,-x,z
y,-x+y,1/2+z
x-y,-y,-z
-x,-x+y,-z
y,x,-z
-y,-x,1/2-z
-x+y,y,1/2-z
x,x-y,1/2-z
-x,-y,-z
-x+y,-x,1/2-z
y,-x+y,-z
x,y,1/2-z
x-y,x,-z
-y,x-y,1/2-z
-x+y,y,z
x,x-y,z
-y,-x,z
y,x,1/2+z
x-y,-y,1/2+z
-x,-x+y,1/2+z
loop_
_atom_site_type_symbol
_atom_site_label
_atom_site_fract_x
_atom_site_fract_y
_atom_site_fract_z
Si Si1 0.052466 0.403748 0.426539
Si Si2 0.609418 0.218836 0.072040
Si Si3 0.666667 0.333334 0.569437
Si Si4 0.780797 0.219204 0.571727
Si Si5 0.161461 0.838540 0.429540
Si Si6 0.698858 0.751720 0.428040
Si Si7 0.662571 0.160822 0.927915
O O1 0.043991 0.398802 0.250000
O O2 0.063280 0.357868 0.482129
O O3 0.100163 0.460471 0.469010
O O4 0.000000 0.397246 0.500000
O O5 0.614706 0.229412 0.250000
O O6 0.637030 0.274060 0.987407
O O7 0.634498 0.184227 0.025945
O O8 0.666667 0.333334 0.750000
O O9 0.783566 0.216435 0.750000
O O10 0.809542 0.190459 0.500329
O O11 0.808914 0.278199 0.517566
O O12 0.163578 0.836423 0.250000
O O13 0.192754 0.898808 0.483231
O O14 0.744684 0.744684 0.500000
O O15 0.703882 0.750857 0.250000
O O16 0.656631 0.168404 0.750000
#
# Coordination Sequence:
#
# PCOD8330622 Si02
#       7
#    24  12   4  12  12  24  24
#     4   9  17  29  48  72  99 129 164 205 246 291
#     4  12  26  41  58  81 108 127 147 194 253 301
#     4  12  25  47  70  84 100 131 163 186 229 302
#     4   9  15  27  51  76  93 113 152 203 236 273
#     4   9  14  25  46  71  96 127 166 201 236 282
#     4   9  16  27  44  68  99 132 166 204 246 286
#     4  10  19  34  55  77  97 126 168 203 239 299
#
# _framework density 16.60547
#
# number of rings (size 3 to 8) (size 9 to 14) (size 15 to 20)
#    0.000    2.357    2.143    1.929    0.000    1.714 
#    0.000    1.071    0.000    1.286    0.000    0.000 
#    0.000    0.000    0.000    0.321    0.000    3.857 
#
# Total GULP energy -1388350.702187 kJ/mol
# GULP energy per Si atom -12395.988412 kJ/mol
# Density = 1.656768 g / cm^3
# Si number density = 16.605470 Si / 1000 Ang^3
#
#
#
# Elastic Constant Matrix: (Units=GPa)
#
#
# Indices 1 2 3 4 5 6 
#
# 1 127.3833 70.5447 37.5999 -0.0001 0.0000 0.0001
# 2 70.5447 127.3833 37.6002 0.0000 0.0000 0.0002
# 3 37.5999 37.6002 45.5718 0.0001 0.0000 0.0002
# 4 -0.0001 0.0000 0.0001 22.3781 0.0000 0.0000
# 5 0.0000 0.0000 0.0000 0.0000 22.3780 0.0000
# 6 0.0001 0.0002 0.0002 0.0000 0.0000 28.4195
#
#
#
# Elastic Compliance Matrix: (Units=1/GPa)
#
#
# Indices 1 2 3 4 5 6 
#
# 1 0.012476 -0.005117 -0.006072 0.000000 0.000000 0.000000
# 2 -0.005117 0.012477 -0.006072 0.000000 0.000000 0.000000
# 3 -0.006072 -0.006072 0.031963 0.000000 0.000000 0.000000
# 4 0.000000 0.000000 0.000000 0.044687 0.000000 0.000000
# 5 0.000000 0.000000 0.000000 0.000000 0.044687 0.000000
# 6 0.000000 0.000000 0.000000 0.000000 0.000000 0.035187
#
#
# Mechanical properties :
#
#
# Convention : Reuss Voigt Hill
#
# Bulk Modulus (GPa) = 44.65523 65.75865 55.20694
# Shear Modulus (GPa) = 22.37505 24.94136 23.65820
#
# Velocity S-wave (km/s) = 3.67475 3.87976 3.77865
# Velocity P-wave (km/s) = 6.70487 7.73024 7.23574
#
# Compressibility (1/GPa) = 0.02239379
#
# Stress axis : x y z
#
# Youngs Moduli (GPa) = 80.15090 80.15052 31.28613
#
# Poissons Ratio (x) = 0.41015 0.18997
# Poissons Ratio (y) = 0.41015 0.18997
# Poissons Ratio (z) = 0.48667 0.48668
#
# Static dielectric constant tensor:
#      x y z
#    x 3.522920 0.000010 0.000000 
#    y 0.000010 3.522930 0.000000 
#    z 0.000000 0.000000 2.869500 
# 
# 
# High freq. dielectric constant tensor:
#      x y z
#    x 1.630890 0.000000 0.000000 
#    y 0.000000 1.630890 0.000000 
#    z 0.000000 0.000000 1.614650 
# 
# From -- ./inp_files/1979.got.cif
#   From: 2010.03.12/outbox.cif.g09.slc.cpg/sg194_1_cif.got.tgz:1979.got - 2010.04.01 12:26:19.
