data_PCOD8330406
_publ_section_title
;
Structure prediction by ZEFSAII (Michael W. Deem and Ramdas Pophale) SiO2 
 PCOD8330406
Probable space group: P 63/M M C
;
_chemical_formula_sum "Si O2"
_cell_formula_units_Z 168
_cell_length_a 17.081382
_cell_length_b 17.081382
_cell_length_c 35.649101
_cell_angle_alpha 90.000000
_cell_angle_beta 90.000000
_cell_angle_gamma 120.000000
_cell_volume 9007.934597
_symmetry_space_group_name_H-M "P 63/M M C"
_symmetry_group_IT_number 194
_symmetry_cell_setting 'hexagonal'
loop_
_space_group_symop_operation_xyz
x,y,z
x-y,x,1/2+z
-y,x-y,z
-x,-y,1/2+z
-x+y,-x,z
y,-x+y,1/2+z
x-y,-y,-z
-x,-x+y,-z
y,x,-z
-y,-x,1/2-z
-x+y,y,1/2-z
x,x-y,1/2-z
-x,-y,-z
-x+y,-x,1/2-z
y,-x+y,-z
x,y,1/2-z
x-y,x,-z
-y,x-y,1/2-z
-x+y,y,z
x,x-y,z
-y,-x,z
y,x,1/2+z
x-y,-y,1/2+z
-x,-x+y,1/2+z
loop_
_atom_site_type_symbol
_atom_site_label
_atom_site_fract_x
_atom_site_fract_y
_atom_site_fract_z
Si Si1 0.665258 0.150452 0.866882
Si Si2 0.492033 0.334095 0.143116
Si Si3 0.822092 0.998836 0.887899
Si Si4 0.307566 0.240053 0.320346
Si Si5 0.104454 0.715177 0.290980
Si Si6 0.985456 0.404623 0.079030
Si Si7 0.714646 0.947987 0.962480
O O1 0.590001 0.180001 0.870322
O O2 0.763000 0.237001 0.874021
O O3 0.655384 0.108506 0.825057
O O4 0.649779 0.075349 0.897654
O O5 0.518577 0.259289 0.132248
O O6 0.578336 0.421665 0.160347
O O7 0.415165 0.297025 0.174612
O O8 0.459541 0.358511 0.105384
O O9 0.859303 0.929652 0.882353
O O10 0.738402 0.973693 0.860434
O O11 0.788157 0.993599 0.929936
O O12 0.901010 0.098990 0.878447
O O13 0.278604 0.139302 0.305494
O O14 0.280196 0.292576 0.290934
O O15 0.111964 0.676998 0.250000
O O16 0.183273 0.816728 0.296301
O O17 0.997495 0.498747 0.062653
O O18 0.965629 0.334255 0.045408
O O19 0.681709 0.840855 0.965664
O O20 0.764608 0.000000 0.000000
#
# Coordination Sequence:
#
# PCOD8330406 Si02
#       7
#    24  24  24  24  24  24  24
#     4  10  20  35  55  80 108 140 176 217 263 313
#     4  10  18  31  51  77 104 131 165 209 261 312
#     4  10  19  32  50  73 100 133 172 217 266 319
#     4  10  19  32  52  74 101 134 174 222 269 314
#     4  10  20  33  50  74 105 141 179 217 261 315
#     4  10  20  35  57  79 105 137 175 222 266 311
#     4  11  22  36  54  78 108 142 177 216 263 317
#
# _framework density 18.650224000000001
#
# number of rings (size 3 to 8) (size 9 to 14) (size 15 to 20)
#    0.000    1.857    2.857    1.714    0.000    3.143 
#    0.000    0.000    0.000    3.714    0.000    1.000 
#    0.000    1.143    0.000    0.000    0.000    0.000 
#
# Total GULP energy -2082805.366947 kJ/mol
# GULP energy per Si atom -12397.650994 kJ/mol
# Density = 1.860777 g / cm^3
# Si number density = 18.650224 Si / 1000 Ang^3
#
#
#
# Elastic Constant Matrix: (Units=GPa)
#
#
# Indices 1 2 3 4 5 6 
#
# 1 103.0474 43.4811 27.5847 0.0000 0.0000 0.0000
# 2 43.4811 103.0474 27.5847 0.0000 0.0000 0.0000
# 3 27.5847 27.5847 58.5920 0.0000 0.0000 0.0000
# 4 0.0000 0.0000 0.0000 20.6137 0.0000 0.0000
# 5 0.0000 0.0000 0.0000 0.0000 20.6137 0.0000
# 6 0.0000 0.0000 0.0000 0.0000 0.0000 29.7832
#
#
#
# Elastic Compliance Matrix: (Units=1/GPa)
#
#
# Indices 1 2 3 4 5 6 
#
# 1 0.012541 -0.004247 -0.003905 0.000000 0.000000 0.000000
# 2 -0.004247 0.012541 -0.003905 0.000000 0.000000 0.000000
# 3 -0.003905 -0.003905 0.020744 0.000000 0.000000 0.000000
# 4 0.000000 0.000000 0.000000 0.048511 0.000000 0.000000
# 5 0.000000 0.000000 0.000000 0.000000 0.048511 0.000000
# 6 0.000000 0.000000 0.000000 0.000000 0.000000 0.033576
#
#
# Mechanical properties :
#
#
# Convention : Reuss Voigt Hill
#
# Bulk Modulus (GPa) = 46.05460 51.33195 48.69328
# Shear Modulus (GPa) = 24.06419 25.27121 24.66770
#
# Velocity S-wave (km/s) = 3.59596 3.68504 3.64077
# Velocity P-wave (km/s) = 6.47987 6.75938 6.62110
#
# Compressibility (1/GPa) = 0.02171336
#
# Stress axis : x y z
#
# Youngs Moduli (GPa) = 79.73534 79.73534 48.20607
#
# Poissons Ratio (x) = 0.33860 0.18825
# Poissons Ratio (y) = 0.33860 0.18825
# Poissons Ratio (z) = 0.31138 0.31138
#
# Static dielectric constant tensor:
#      x y z
#    x 3.542950 0.000000 0.000000 
#    y 0.000000 3.542950 0.000000 
#    z 0.000000 0.000000 3.177250 
# 
# 
# High freq. dielectric constant tensor:
#      x y z
#    x 1.730840 0.000000 0.000000 
#    y 0.000000 1.730840 0.000000 
#    z 0.000000 0.000000 1.692600 
# 
# From -- ./inp_files/12273.got.cif
#   From: 2010.03.12/outbox.cif.g09.slc.cpg/sg194_7_cif.got.tgz:12273.got - 2010.04.01 12:26:19.
