data_PCOD8330689
_publ_section_title
;
Structure prediction by ZEFSAII (Michael W. Deem and Ramdas Pophale) SiO2 
 PCOD8330689
Probable space group: P 63/M M C
;
_chemical_formula_sum "Si O2"
_cell_formula_units_Z 96
_cell_length_a 17.397416
_cell_length_b 17.397416
_cell_length_c 18.419168
_cell_angle_alpha 90.000000
_cell_angle_beta 90.000000
_cell_angle_gamma 120.000000
_cell_volume 4828.031971
_symmetry_space_group_name_H-M "P 63/M M C"
_symmetry_group_IT_number 194
_symmetry_cell_setting 'hexagonal'
loop_
_space_group_symop_operation_xyz
x,y,z
x-y,x,1/2+z
-y,x-y,z
-x,-y,1/2+z
-x+y,-x,z
y,-x+y,1/2+z
x-y,-y,-z
-x,-x+y,-z
y,x,-z
-y,-x,1/2-z
-x+y,y,1/2-z
x,x-y,1/2-z
-x,-y,-z
-x+y,-x,1/2-z
y,-x+y,-z
x,y,1/2-z
x-y,x,-z
-y,x-y,1/2-z
-x+y,y,z
x,x-y,z
-y,-x,z
y,x,1/2+z
x-y,-y,1/2+z
-x,-x+y,1/2+z
loop_
_atom_site_type_symbol
_atom_site_label
_atom_site_fract_x
_atom_site_fract_y
_atom_site_fract_z
Si Si1 0.727083 0.096539 0.972693
Si Si2 0.332549 0.490037 0.892771
Si Si3 0.987785 0.338185 0.831831
Si Si4 0.168801 0.168459 0.165019
O O1 0.832444 0.167557 0.969742
O O2 0.681206 0.086762 0.892975
O O3 0.677478 0.130702 0.025728
O O4 0.709810 0.000000 0.000000
O O5 0.241627 0.483254 0.864988
O O6 0.408159 0.591842 0.891729
O O7 0.359618 0.434412 0.838909
O O8 0.948910 0.327356 0.750000
O O9 0.016707 0.265926 0.850766
O O10 0.153212 0.153589 0.250000
O O11 0.093229 0.186458 0.131431
O O12 0.161724 0.080862 0.128696
#
# Coordination Sequence:
#
# PCOD8330689 Si02
#       4
#    24  24  24  24
#     4   9  19  35  55  78 106 142 182 223 265 311
#     4  10  21  38  59  80 102 132 173 221 272 324
#     4  10  20  33  51  77 110 143 174 213 263 319
#     4   9  16  26  42  66  98 136 175 210 242 282
#
# _framework density 19.883877999999999
#
# number of rings (size 3 to 8) (size 9 to 14) (size 15 to 20)
#    0.000    2.500    0.000    2.000    0.000   10.000 
#    0.000    0.000    0.000    1.750    0.000    0.000 
#    0.000    2.000    0.000    0.000    0.000    0.000 
#
# Total GULP energy -1189763.383719 kJ/mol
# GULP energy per Si atom -12393.368580 kJ/mol
# Density = 1.983862 g / cm^3
# Si number density = 19.883878 Si / 1000 Ang^3
#
#
#
# Elastic Constant Matrix: (Units=GPa)
#
#
# Indices 1 2 3 4 5 6 
#
# 1 69.9029 11.5673 2.9286 0.0000 0.0000 0.0000
# 2 11.5673 69.9029 2.9286 0.0000 0.0000 0.0000
# 3 2.9286 2.9286 94.1295 0.0000 0.0000 0.0000
# 4 0.0000 0.0000 0.0000 17.4721 0.0000 0.0000
# 5 0.0000 0.0000 0.0000 0.0000 17.4721 0.0000
# 6 0.0000 0.0000 0.0000 0.0000 0.0000 29.1678
#
#
#
# Elastic Compliance Matrix: (Units=1/GPa)
#
#
# Indices 1 2 3 4 5 6 
#
# 1 0.014722 -0.002420 -0.000383 0.000000 0.000000 0.000000
# 2 -0.002420 0.014722 -0.000383 0.000000 0.000000 0.000000
# 3 -0.000383 -0.000383 0.010647 0.000000 0.000000 0.000000
# 4 0.000000 0.000000 0.000000 0.057234 0.000000 0.000000
# 5 0.000000 0.000000 0.000000 0.000000 0.057234 0.000000
# 6 0.000000 0.000000 0.000000 0.000000 0.000000 0.034284
#
#
# Mechanical properties :
#
#
# Convention : Reuss Voigt Hill
#
# Bulk Modulus (GPa) = 29.65563 29.86491 29.76027
# Shear Modulus (GPa) = 24.21829 27.25646 25.73738
#
# Velocity S-wave (km/s) = 3.49375 3.70642 3.60166
# Velocity P-wave (km/s) = 5.58765 5.77659 5.68291
#
# Compressibility (1/GPa) = 0.03372041
#
# Stress axis : x y z
#
# Youngs Moduli (GPa) = 67.92525 67.92525 93.91893
#
# Poissons Ratio (x) = 0.16439 0.03595
# Poissons Ratio (y) = 0.16439 0.03595
# Poissons Ratio (z) = 0.02600 0.02600
#
# Static dielectric constant tensor:
#      x y z
#    x 3.506250 0.000000 0.000000 
#    y 0.000000 3.506250 0.000000 
#    z 0.000000 0.000000 3.814470 
# 
# 
# High freq. dielectric constant tensor:
#      x y z
#    x 1.757420 0.000000 0.000000 
#    y 0.000000 1.757420 0.000000 
#    z 0.000000 0.000000 1.772200 
# 
# From -- ./inp_files/7759.got.cif
#   From: 2010.03.12/outbox.cif.g09.slc.cpg/sg194_4_cif.got.tgz:7759.got - 2010.04.01 12:26:19.
