data_PCOD8330533
_publ_section_title
;
Structure prediction by ZEFSAII (Michael W. Deem and Ramdas Pophale) SiO2 
 PCOD8330533
Probable space group: P 63/M M C
;
_chemical_formula_sum "Si O2"
_cell_formula_units_Z 192
_cell_length_a 24.222463
_cell_length_b 24.222463
_cell_length_c 22.550278
_cell_angle_alpha 90.000000
_cell_angle_beta 90.000000
_cell_angle_gamma 120.000000
_cell_volume 11458.272181
_symmetry_space_group_name_H-M "P 63/M M C"
_symmetry_group_IT_number 194
_symmetry_cell_setting 'hexagonal'
loop_
_space_group_symop_operation_xyz
x,y,z
x-y,x,1/2+z
-y,x-y,z
-x,-y,1/2+z
-x+y,-x,z
y,-x+y,1/2+z
x-y,-y,-z
-x,-x+y,-z
y,x,-z
-y,-x,1/2-z
-x+y,y,1/2-z
x,x-y,1/2-z
-x,-y,-z
-x+y,-x,1/2-z
y,-x+y,-z
x,y,1/2-z
x-y,x,-z
-y,x-y,1/2-z
-x+y,y,z
x,x-y,z
-y,-x,z
y,x,1/2+z
x-y,-y,1/2+z
-x,-x+y,1/2+z
loop_
_atom_site_type_symbol
_atom_site_label
_atom_site_fract_x
_atom_site_fract_y
_atom_site_fract_z
Si Si1 0.010019 0.755788 0.906634
Si Si2 0.541744 0.206990 0.915890
Si Si3 0.665763 0.652906 0.681605
Si Si4 0.228912 0.329983 0.006376
Si Si5 0.440908 0.282994 0.683245
Si Si6 0.900973 0.357883 0.994742
Si Si7 0.430557 0.442695 0.904476
Si Si8 0.000038 0.127901 0.930506
O O1 0.017243 0.723186 0.847161
O O2 0.074137 0.780988 0.944753
O O3 0.001528 0.816529 0.892429
O O4 0.949427 0.702379 0.941506
O O5 0.613271 0.226542 0.898638
O O6 0.538629 0.269315 0.931134
O O7 0.497244 0.168611 0.860555
O O8 0.520066 0.162335 0.973878
O O9 0.654389 0.661758 0.750000
O O10 0.707979 0.619245 0.673050
O O11 0.595936 0.610565 0.652408
O O12 0.164649 0.329297 0.023778
O O13 0.285256 0.401677 0.999418
O O14 0.467572 0.302481 0.750000
O O15 0.417964 0.208982 0.670595
O O16 0.955686 0.394286 0.946483
O O17 0.922297 0.392528 0.058305
O O18 0.498879 0.501122 0.883976
O O19 0.060082 0.120164 0.914273
O O20 0.937340 0.062661 0.913230
O O21 0.000000 0.144036 0.000000
#
# Coordination Sequence:
#
# PCOD8330533 Si02
#       8
#    24  24  24  24  24  24  24  24
#     4  11  19  33  49  78 111 137 176 218 270 316
#     4  11  21  33  48  70  99 133 173 214 255 298
#     4  11  22  36  53  76 105 135 173 219 260 305
#     4  11  19  30  53  77 103 137 174 214 260 321
#     4   9  19  34  50  68  95 134 176 212 247 292
#     4  11  19  33  50  77 103 134 163 208 256 310
#     4  11  20  34  53  76 104 136 168 203 253 311
#     4  10  19  31  50  79 113 147 179 217 265 321
#
# _framework density 16.756453
#
# number of rings (size 3 to 8) (size 9 to 14) (size 15 to 20)
#    0.000    1.375    5.000    3.625    0.000    3.000 
#    0.000    1.250    0.000    2.250    0.000    0.000 
#    0.000    1.000    0.000    0.000    0.000    0.500 
#
# Total GULP energy -2381123.172553 kJ/mol
# GULP energy per Si atom -12401.683190 kJ/mol
# Density = 1.671831 g / cm^3
# Si number density = 16.756453 Si / 1000 Ang^3
#
#
#
# Elastic Constant Matrix: (Units=GPa)
#
#
# Indices 1 2 3 4 5 6 
#
# 1 77.3987 21.1909 32.0182 0.0000 0.0000 0.0000
# 2 21.1909 77.3987 32.0182 0.0000 0.0000 0.0000
# 3 32.0182 32.0182 85.7717 0.0000 0.0000 0.0000
# 4 0.0000 0.0000 0.0000 11.1733 0.0000 0.0000
# 5 0.0000 0.0000 0.0000 0.0000 11.1733 0.0000
# 6 0.0000 0.0000 0.0000 0.0000 0.0000 28.1039
#
#
#
# Elastic Compliance Matrix: (Units=1/GPa)
#
#
# Indices 1 2 3 4 5 6 
#
# 1 0.015590 -0.002201 -0.004998 0.000000 0.000000 0.000000
# 2 -0.002201 0.015590 -0.004998 0.000000 0.000000 0.000000
# 3 -0.004998 -0.004998 0.015391 0.000000 0.000000 0.000000
# 4 0.000000 0.000000 0.000000 0.089499 0.000000 0.000000
# 5 0.000000 0.000000 0.000000 0.000000 0.089499 0.000000
# 6 0.000000 0.000000 0.000000 0.000000 0.000000 0.035582
#
#
# Mechanical properties :
#
#
# Convention : Reuss Voigt Hill
#
# Bulk Modulus (GPa) = 45.09261 45.66929 45.38095
# Shear Modulus (GPa) = 17.06840 20.44622 18.75731
#
# Velocity S-wave (km/s) = 3.19504 3.49693 3.34939
# Velocity P-wave (km/s) = 6.37025 6.60443 6.48840
#
# Compressibility (1/GPa) = 0.02217658
#
# Stress axis : x y z
#
# Youngs Moduli (GPa) = 64.14231 64.14231 64.97514
#
# Poissons Ratio (x) = 0.14116 0.32476
# Poissons Ratio (y) = 0.14116 0.32476
# Poissons Ratio (z) = 0.32060 0.32060
#
# Static dielectric constant tensor:
#      x y z
#    x 3.184930 0.000000 0.000000 
#    y 0.000000 3.184930 0.000000 
#    z 0.000000 0.000000 3.023260 
# 
# 
# High freq. dielectric constant tensor:
#      x y z
#    x 1.646680 0.000000 0.000000 
#    y 0.000000 1.646680 0.000000 
#    z 0.000000 0.000000 1.610910 
# 
# From -- ./inp_files/10114.got.cif
#   From: 2010.03.12/outbox.cif.g09.slc.cpg/sg194_6_cif.got.tgz:10114.got - 2010.04.01 12:26:19.
