data_PCOD8330941
_publ_section_title
;
Structure prediction by ZEFSAII (Michael W. Deem and Ramdas Pophale) SiO2 
 PCOD8330941
Probable space group: I M 3
;
_chemical_formula_sum "Si O2"
_cell_formula_units_Z 224
_cell_length_a 22.624495
_cell_length_b 22.624495
_cell_length_c 22.624495
_cell_angle_alpha 90.000000
_cell_angle_beta 90.000000
_cell_angle_gamma 90.000000
_cell_volume 11580.749894
_symmetry_space_group_name_H-M "I M 3"
_symmetry_group_IT_number 204
_symmetry_cell_setting 'cubic'
loop_
_space_group_symop_operation_xyz
x,y,z
z,x,y
y,z,x
-y,-z,x
z,-x,-y
-y,z,-x
-z,-x,y
-z,x,-y
y,-z,-x
-x,-y,z
x,-y,-z
-x,y,-z
-x,-y,-z
-z,-x,-y
-y,-z,-x
y,z,-x
-z,x,y
y,-z,x
z,x,-y
z,-x,y
-y,z,x
x,y,-z
-x,y,z
x,-y,z
1/2+x,1/2+y,1/2+z
1/2+z,1/2+x,1/2+y
1/2+y,1/2+z,1/2+x
1/2-y,1/2-z,1/2+x
1/2+z,1/2-x,1/2-y
1/2-y,1/2+z,1/2-x
1/2-z,1/2-x,1/2+y
1/2-z,1/2+x,1/2-y
1/2+y,1/2-z,1/2-x
1/2-x,1/2-y,1/2+z
1/2+x,1/2-y,1/2-z
1/2-x,1/2+y,1/2-z
1/2-x,1/2-y,1/2-z
1/2-z,1/2-x,1/2-y
1/2-y,1/2-z,1/2-x
1/2+y,1/2+z,1/2-x
1/2-z,1/2+x,1/2+y
1/2+y,1/2-z,1/2+x
1/2+z,1/2+x,1/2-y
1/2+z,1/2-x,1/2+y
1/2-y,1/2+z,1/2+x
1/2+x,1/2+y,1/2-z
1/2-x,1/2+y,1/2+z
1/2+x,1/2-y,1/2+z
loop_
_atom_site_type_symbol
_atom_site_label
_atom_site_fract_x
_atom_site_fract_y
_atom_site_fract_z
Si Si1 0.354544 0.645458 0.354543
Si Si2 0.746295 0.933209 0.878498
Si Si3 0.333999 0.372095 0.933031
Si Si4 0.566725 0.433277 0.566724
Si Si5 0.634986 0.066960 0.798837
Si Si6 0.434009 0.118795 0.000000
Si Si7 0.000000 0.690522 0.932465
O O1 0.385299 0.647430 0.291212
O O2 0.394188 0.605814 0.394188
O O3 0.698472 0.937464 0.827668
O O4 0.719638 0.906354 0.940051
O O5 0.772544 0.000000 0.888077
O O6 0.268240 0.357929 0.908875
O O7 0.386339 0.336851 0.901694
O O8 0.340784 0.442507 0.926441
O O9 0.338103 0.351042 0.000000
O O10 0.500000 0.419980 0.583340
O O11 0.606487 0.000000 0.799470
O O12 0.500000 0.088616 0.000000
O O13 0.380784 0.071863 0.000000
O O14 0.000000 0.706690 0.000000
#
# Coordination Sequence:
#
# PCOD8330941 Si02
#       7
#    16  48  48  16  48  24  24
#     4  12  24  37  58  85 112 156 213 262 293 358
#     4  10  23  40  60  86 120 161 207 258 309 374
#     4  10  22  38  63  94 124 161 203 250 305 373
#     4   9  19  34  51  75 109 142 180 244 311 358
#     4  10  22  42  60  88 126 163 208 253 307 367
#     4  10  20  37  62  98 124 150 203 252 303 371
#     4  10  20  39  62  90 125 160 195 248 318 371
#
# _framework density 19.342444
#
# number of rings (size 3 to 8) (size 9 to 14) (size 15 to 20)
#    0.000    1.929    2.143    0.857    4.500    2.357 
#    0.000    2.143    0.000    1.714    0.000    0.000 
#    0.000    0.000    0.000    0.000    0.000    0.000 
#
# Total GULP energy -1387854.567399 kJ/mol
# GULP energy per Si atom -12391.558637 kJ/mol
# Density = 1.929842 g / cm^3
# Si number density = 19.342444 Si / 1000 Ang^3
#
#
#
# Elastic Constant Matrix: (Units=GPa)
#
#
# Indices 1 2 3 4 5 6 
#
# 1 107.7846 43.7419 43.7427 0.0000 0.0000 0.0000
# 2 43.7419 107.7854 43.7424 0.0000 0.0000 0.0000
# 3 43.7427 43.7424 107.7853 0.0000 0.0000 0.0000
# 4 0.0000 0.0000 0.0000 23.6415 0.0000 0.0000
# 5 0.0000 0.0000 0.0000 0.0000 23.6417 0.0000
# 6 0.0000 0.0000 0.0000 0.0000 0.0000 23.6409
#
#
#
# Elastic Compliance Matrix: (Units=1/GPa)
#
#
# Indices 1 2 3 4 5 6 
#
# 1 0.012117 -0.003498 -0.003498 0.000000 0.000000 0.000000
# 2 -0.003498 0.012117 -0.003498 0.000000 0.000000 0.000000
# 3 -0.003498 -0.003498 0.012117 0.000000 0.000000 0.000000
# 4 0.000000 0.000000 0.000000 0.042299 0.000000 0.000000
# 5 0.000000 0.000000 0.000000 0.000000 0.042298 0.000000
# 6 0.000000 0.000000 0.000000 0.000000 0.000000 0.042300
#
#
# Mechanical properties :
#
#
# Convention : Reuss Voigt Hill
#
# Bulk Modulus (GPa) = 65.08994 65.08994 65.08994
# Shear Modulus (GPa) = 26.40549 26.99336 26.69942
#
# Velocity S-wave (km/s) = 3.69881 3.73976 3.71934
# Velocity P-wave (km/s) = 7.20875 7.23686 7.22282
#
# Compressibility (1/GPa) = 0.01536336
#
# Stress axis : x y z
#
# Youngs Moduli (GPa) = 82.53001 82.53095 82.53018
#
# Poissons Ratio (x) = 0.28867 0.28868
# Poissons Ratio (y) = 0.28867 0.28867
# Poissons Ratio (z) = 0.28868 0.28868
#
# Static dielectric constant tensor:
#      x y z
#    x 4.031390 0.000000 0.000000 
#    y 0.000000 4.031750 0.000000 
#    z 0.000000 0.000000 4.031940 
# 
# 
# High freq. dielectric constant tensor:
#      x y z
#    x 1.750490 0.000000 0.000000 
#    y 0.000000 1.750480 0.000000 
#    z 0.000000 0.000000 1.750480 
# 
# From -- ./inp_files/591.got.cif
#   From: 2010.03.12/outbox.cif.g09.slc.cpg/sg204_cif.got.tgz:591.got - 2010.03.30 09:02:39.
