data_PCOD8330682
_publ_section_title
;
Structure prediction by ZEFSAII (Michael W. Deem and Ramdas Pophale) SiO2 
 PCOD8330682
Probable space group: P 63/M M C
;
_chemical_formula_sum "Si O2"
_cell_formula_units_Z 168
_cell_length_a 17.320308
_cell_length_b 17.320308
_cell_length_c 33.946038
_cell_angle_alpha 90.000000
_cell_angle_beta 90.000000
_cell_angle_gamma 120.000000
_cell_volume 8819.235628
_symmetry_space_group_name_H-M "P 63/M M C"
_symmetry_group_IT_number 194
_symmetry_cell_setting 'hexagonal'
loop_
_space_group_symop_operation_xyz
x,y,z
x-y,x,1/2+z
-y,x-y,z
-x,-y,1/2+z
-x+y,-x,z
y,-x+y,1/2+z
x-y,-y,-z
-x,-x+y,-z
y,x,-z
-y,-x,1/2-z
-x+y,y,1/2-z
x,x-y,1/2-z
-x,-y,-z
-x+y,-x,1/2-z
y,-x+y,-z
x,y,1/2-z
x-y,x,-z
-y,x-y,1/2-z
-x+y,y,z
x,x-y,z
-y,-x,z
y,x,1/2+z
x-y,-y,1/2+z
-x,-x+y,1/2+z
loop_
_atom_site_type_symbol
_atom_site_label
_atom_site_fract_x
_atom_site_fract_y
_atom_site_fract_z
Si Si1 0.487765 0.152778 0.250000
Si Si2 0.934999 0.245080 0.532281
Si Si3 0.179605 0.180064 0.401190
Si Si4 0.175330 0.177418 0.250000
Si Si5 0.157292 0.491234 0.596569
Si Si6 0.334187 0.487164 0.992418
Si Si7 0.394174 0.431038 0.827702
Si Si8 0.057824 0.289633 0.173592
O O1 0.592252 0.184503 0.250000
O O2 0.475484 0.237742 0.250000
O O3 0.442847 0.097903 0.289834
O O4 0.843610 0.156391 0.527412
O O5 0.980367 0.248550 0.574063
O O6 0.913913 0.324761 0.523033
O O7 0.000000 0.241745 0.500000
O O8 0.077232 0.154464 0.408753
O O9 0.209797 0.210331 0.356905
O O10 0.189623 0.094812 0.411455
O O11 0.196232 0.098116 0.250000
O O12 0.222628 0.241978 0.285797
O O13 0.068847 0.137694 0.250000
O O14 0.237212 0.474423 0.606869
O O15 0.193694 0.596847 0.596792
O O16 0.118832 0.454266 0.552594
O O17 0.085973 0.443413 0.630789
O O18 0.254481 0.508962 0.996433
O O19 0.425330 0.574671 0.003856
O O20 0.500139 0.499862 0.824446
O O21 0.375442 0.330292 0.829053
O O22 0.163167 0.326334 0.168318
#
# Coordination Sequence:
#
# PCOD8330682 Si02
#       8
#    12  24  24  12  24  24  24  24
#     4  10  20  33  50  77 116 158 193 218 250 303
#     4  10  21  35  51  74 101 133 175 220 267 316
#     4  10  21  37  57  80 108 142 178 217 265 322
#     4  10  20  35  56  85 118 152 187 224 268 319
#     4   9  17  29  48  75 107 141 178 217 261 313
#     4   9  18  33  53  77 105 138 177 222 273 328
#     4  10  21  35  52  77 108 144 182 222 267 316
#     4  10  22  38  57  82 111 144 181 225 276 323
#
# _framework density 19.04927
#
# number of rings (size 3 to 8) (size 9 to 14) (size 15 to 20)
#    0.000    2.286    0.000    2.286    2.000    4.286 
#    0.000    3.571    0.000    2.571    0.000    0.000 
#    0.000    3.429    0.000    0.000    0.000    0.000 
#
# Total GULP energy -2082320.821222 kJ/mol
# GULP energy per Si atom -12394.766793 kJ/mol
# Density = 1.900591 g / cm^3
# Si number density = 19.049270 Si / 1000 Ang^3
#
#
#
# Elastic Constant Matrix: (Units=GPa)
#
#
# Indices 1 2 3 4 5 6 
#
# 1 179.4263 0.5675 51.2696 0.0000 0.0000 0.0000
# 2 0.5675 179.4263 51.2696 0.0000 0.0000 0.0000
# 3 51.2696 51.2696 113.4666 0.0000 0.0000 0.0000
# 4 0.0000 0.0000 0.0000 15.5672 0.0000 0.0000
# 5 0.0000 0.0000 0.0000 0.0000 15.5672 0.0000
# 6 0.0000 0.0000 0.0000 0.0000 0.0000 89.4294
#
#
#
# Elastic Compliance Matrix: (Units=1/GPa)
#
#
# Indices 1 2 3 4 5 6 
#
# 1 0.006536 0.000945 -0.003381 0.000000 0.000000 0.000000
# 2 0.000945 0.006536 -0.003381 0.000000 0.000000 0.000000
# 3 -0.003381 -0.003381 0.011868 0.000000 0.000000 0.000000
# 4 0.000000 0.000000 0.000000 0.064237 0.000000 0.000000
# 5 0.000000 0.000000 0.000000 0.000000 0.064237 0.000000
# 6 0.000000 0.000000 0.000000 0.000000 0.000000 0.011182
#
#
# Mechanical properties :
#
#
# Convention : Reuss Voigt Hill
#
# Bulk Modulus (GPa) = 75.13623 75.39252 75.26438
# Shear Modulus (GPa) = 27.67543 48.72692 38.20118
#
# Velocity S-wave (km/s) = 3.81574 5.06310 4.48301
# Velocity P-wave (km/s) = 7.67736 8.59322 8.14817
#
# Compressibility (1/GPa) = 0.01330916
#
# Stress axis : x y z
#
# Youngs Moduli (GPa) = 152.99194 152.99194 84.25916
#
# Poissons Ratio (x) = -0.14462 0.28484
# Poissons Ratio (y) = -0.14462 0.28484
# Poissons Ratio (z) = 0.51719 0.51719
#
# Static dielectric constant tensor:
#      x y z
#    x 3.475890 0.000000 0.000000 
#    y 0.000000 3.475890 0.000000 
#    z 0.000000 0.000000 3.707580 
# 
# 
# High freq. dielectric constant tensor:
#      x y z
#    x 1.732310 0.000000 0.000000 
#    y 0.000000 1.732310 0.000000 
#    z 0.000000 0.000000 1.750740 
# 
# From -- ./inp_files/12308.got.cif
#   From: 2010.03.12/outbox.cif.g09.slc.cpg/sg194_7_cif.got.tgz:12308.got - 2010.04.01 12:26:19.
