data_PCOD8330074
_publ_section_title
;
Structure prediction by ZEFSAII (Michael W. Deem and Ramdas Pophale) SiO2 
 PCOD8330074
Probable space group: P 63/M C M
;
_chemical_formula_sum "Si O2"
_cell_formula_units_Z 192
_cell_length_a 22.825584
_cell_length_b 22.825584
_cell_length_c 24.688558
_cell_angle_alpha 90.000000
_cell_angle_beta 90.000000
_cell_angle_gamma 120.000000
_cell_volume 11139.614251
_symmetry_space_group_name_H-M "P 63/M C M"
_symmetry_group_IT_number 193
_symmetry_cell_setting 'hexagonal'
loop_
_space_group_symop_operation_xyz
x,y,z
x-y,x,1/2+z
-y,x-y,z
-x,-y,1/2+z
-x+y,-x,z
y,-x+y,1/2+z
x-y,-y,1/2-z
-x,-x+y,1/2-z
y,x,1/2-z
-y,-x,-z
-x+y,y,-z
x,x-y,-z
-x,-y,-z
-x+y,-x,1/2-z
y,-x+y,-z
x,y,1/2-z
x-y,x,-z
-y,x-y,1/2-z
-x+y,y,1/2+z
x,x-y,1/2+z
-y,-x,1/2+z
y,x,z
x-y,-y,z
-x,-x+y,z
loop_
_atom_site_type_symbol
_atom_site_label
_atom_site_fract_x
_atom_site_fract_y
_atom_site_fract_z
Si Si1 0.611104 0.200241 0.058087
Si Si2 0.618315 0.543278 0.922259
Si Si3 0.263654 0.342124 0.811688
Si Si4 0.076412 0.744800 0.474468
Si Si5 0.271285 0.759269 0.102591
Si Si6 0.078005 0.575741 0.310658
Si Si7 0.796300 0.154434 0.580959
Si Si8 0.850536 0.345430 0.310620
O O1 0.597599 0.124929 0.049272
O O2 0.680144 0.242111 0.092777
O O3 0.545917 0.197132 0.083818
O O4 0.617685 0.235370 0.000000
O O5 0.555604 0.555604 0.930921
O O6 0.684584 0.601373 0.949118
O O7 0.631459 0.541242 0.856823
O O8 0.233066 0.332374 0.750000
O O9 0.288477 0.288477 0.821810
O O10 0.209892 0.333189 0.858834
O O11 0.327508 0.417314 0.817488
O O12 0.125980 0.811184 0.439225
O O13 0.095941 0.751221 0.537913
O O14 0.000000 0.730774 0.469425
O O15 0.225757 0.787905 0.076641
O O16 0.283939 0.780385 0.165469
O O17 0.100225 0.608125 0.250000
O O18 0.121556 0.542666 0.333201
O O19 0.000000 0.517470 0.308234
O O20 0.830789 0.347782 0.250000
#
# Coordination Sequence:
#
# PCOD8330074 Si02
#       8
#    24  24  24  24  24  24  24  24
#     4  12  23  35  50  67  91 126 167 207 258 314
#     4  10  20  35  51  73 100 125 163 215 263 310
#     4   9  17  30  51  80 109 136 169 209 254 306
#     4  10  20  35  55  75 103 140 174 212 258 309
#     4  11  22  36  50  69  93 125 165 211 260 323
#     4   9  16  29  50  72  93 120 155 201 255 303
#     4  10  20  35  56  76 105 136 176 215 262 314
#     4   9  17  31  50  71  94 122 158 203 256 309
#
# _framework density 17.235785
#
# number of rings (size 3 to 8) (size 9 to 14) (size 15 to 20)
#    0.000    2.000    2.500    2.125    1.750    1.750 
#    0.000    2.500    0.000    1.125    0.000    0.000 
#    0.000    0.000    0.000   37.125    0.000    4.375 
#
# Total GULP energy -2378526.877002 kJ/mol
# GULP energy per Si atom -12388.160818 kJ/mol
# Density = 1.719656 g / cm^3
# Si number density = 17.235785 Si / 1000 Ang^3
#
#
#
# Elastic Constant Matrix: (Units=GPa)
#
#
# Indices 1 2 3 4 5 6 
#
# 1 60.7581 27.4939 28.9056 0.0000 0.0000 0.0000
# 2 27.4939 60.7581 28.9056 0.0000 0.0000 0.0000
# 3 28.9056 28.9056 93.4797 0.0000 0.0000 0.0000
# 4 0.0000 0.0000 0.0000 22.0021 0.0000 0.0000
# 5 0.0000 0.0000 0.0000 0.0000 22.0021 0.0000
# 6 0.0000 0.0000 0.0000 0.0000 0.0000 16.6321
#
#
#
# Elastic Compliance Matrix: (Units=1/GPa)
#
#
# Indices 1 2 3 4 5 6 
#
# 1 0.022136 -0.007926 -0.004394 0.000000 0.000000 0.000000
# 2 -0.007926 0.022136 -0.004394 0.000000 0.000000 0.000000
# 3 -0.004394 -0.004394 0.013415 0.000000 0.000000 0.000000
# 4 0.000000 0.000000 0.000000 0.045450 0.000000 0.000000
# 5 0.000000 0.000000 0.000000 0.000000 0.045450 0.000000
# 6 0.000000 0.000000 0.000000 0.000000 0.000000 0.060125
#
#
# Mechanical properties :
#
#
# Convention : Reuss Voigt Hill
#
# Bulk Modulus (GPa) = 41.22279 42.84513 42.03396
# Shear Modulus (GPa) = 19.98197 20.77335 20.37766
#
# Velocity S-wave (km/s) = 3.40859 3.47543 3.44217
# Velocity P-wave (km/s) = 6.28174 6.40445 6.34339
#
# Compressibility (1/GPa) = 0.02425842
#
# Stress axis : x y z
#
# Youngs Moduli (GPa) = 45.17556 45.17556 74.54456
#
# Poissons Ratio (x) = 0.35808 0.32753
# Poissons Ratio (y) = 0.35808 0.32753
# Poissons Ratio (z) = 0.19849 0.19849
#
# Static dielectric constant tensor:
#      x y z
#    x 3.112810 0.000000 0.000000 
#    y 0.000000 3.112810 0.000000 
#    z 0.000000 0.000000 3.634230 
# 
# 
# High freq. dielectric constant tensor:
#      x y z
#    x 1.637960 0.000000 0.000000 
#    y 0.000000 1.637960 0.000000 
#    z 0.000000 0.000000 1.682980 
# 
# From -- ./inp_files/7868.got.cif
#   From: 2010.03.12/outbox.cif.g09.slc.cpg/sg193_4_cif.got.tgz:7868.got - 2010.04.01 12:20:39.
