data_PCOD8330599
_publ_section_title
;
Structure prediction by ZEFSAII (Michael W. Deem and Ramdas Pophale) SiO2 
 PCOD8330599
Probable space group: P 63/M M C
;
_chemical_formula_sum "Si O2"
_cell_formula_units_Z 168
_cell_length_a 17.695986
_cell_length_b 17.695986
_cell_length_c 32.935711
_cell_angle_alpha 90.000000
_cell_angle_beta 90.000000
_cell_angle_gamma 120.000000
_cell_volume 8931.968998
_symmetry_space_group_name_H-M "P 63/M M C"
_symmetry_group_IT_number 194
_symmetry_cell_setting 'hexagonal'
loop_
_space_group_symop_operation_xyz
x,y,z
x-y,x,1/2+z
-y,x-y,z
-x,-y,1/2+z
-x+y,-x,z
y,-x+y,1/2+z
x-y,-y,-z
-x,-x+y,-z
y,x,-z
-y,-x,1/2-z
-x+y,y,1/2-z
x,x-y,1/2-z
-x,-y,-z
-x+y,-x,1/2-z
y,-x+y,-z
x,y,1/2-z
x-y,x,-z
-y,x-y,1/2-z
-x+y,y,z
x,x-y,z
-y,-x,z
y,x,1/2+z
x-y,-y,1/2+z
-x,-x+y,1/2+z
loop_
_atom_site_type_symbol
_atom_site_label
_atom_site_fract_x
_atom_site_fract_y
_atom_site_fract_z
Si Si1 0.260238 0.346519 0.634177
Si Si2 0.240101 0.240101 0.000000
Si Si3 0.565156 0.867146 0.485692
Si Si4 0.510707 0.845515 0.250000
Si Si5 0.336059 0.496671 0.570340
Si Si6 0.001875 0.829502 0.913334
Si Si7 0.604557 0.035164 0.826328
Si Si8 0.335953 0.839727 0.400829
O O1 0.174819 0.349637 0.649794
O O2 0.306899 0.413222 0.597765
O O3 0.234045 0.252171 0.615920
O O4 0.330398 0.375313 0.671108
O O5 0.247782 0.331564 0.010125
O O6 0.180499 0.197907 0.960701
O O7 0.528607 0.764304 0.483301
O O8 0.523821 0.884504 0.525708
O O9 0.535303 0.891184 0.443811
O O10 0.409122 0.818243 0.250000
O O11 0.516784 0.758392 0.250000
O O12 0.560140 0.903269 0.211076
O O13 0.260662 0.521323 0.567422
O O14 0.421845 0.578156 0.589189
O O15 0.904453 0.808906 0.904637
O O16 0.070679 0.929322 0.901890
O O17 0.500805 0.001610 0.822153
O O18 0.643756 0.088538 0.867225
O O19 0.400114 0.800228 0.395924
O O20 0.236830 0.763171 0.396040
#
# Coordination Sequence:
#
# PCOD8330599 Si02
#       8
#    24  12  24  12  24  24  24  24
#     4  10  21  38  57  79 109 145 180 224 278 327
#     4  12  20  32  48  66  92 132 180 232 284 322
#     4  10  20  32  45  68 100 138 182 228 273 318
#     4  10  21  38  63  92 126 158 186 216 257 316
#     4  10  19  33  52  75 105 142 185 226 266 313
#     4  11  22  35  52  72  97 132 177 230 282 333
#     4  10  21  37  57  86 115 144 182 226 271 322
#     4  10  20  33  50  74 108 147 187 226 270 324
#
# _framework density 18.808843
#
# number of rings (size 3 to 8) (size 9 to 14) (size 15 to 20)
#    0.000    1.714    1.429    3.929    0.000    2.286 
#    0.000    4.643    0.000    0.286    0.000    0.000 
#    0.000    0.000    0.000    0.000    0.000    0.000 
#
# Total GULP energy -2082832.271697 kJ/mol
# GULP energy per Si atom -12397.811141 kJ/mol
# Density = 1.876603 g / cm^3
# Si number density = 18.808843 Si / 1000 Ang^3
#
#
#
# Elastic Constant Matrix: (Units=GPa)
#
#
# Indices 1 2 3 4 5 6 
#
# 1 108.0216 52.6241 41.6251 0.0000 0.0000 0.0000
# 2 52.6241 108.0216 41.6251 0.0000 0.0000 0.0000
# 3 41.6251 41.6251 81.2611 0.0000 0.0000 0.0000
# 4 0.0000 0.0000 0.0000 23.5085 0.0000 0.0000
# 5 0.0000 0.0000 0.0000 0.0000 23.5085 0.0000
# 6 0.0000 0.0000 0.0000 0.0000 0.0000 27.6988
#
#
#
# Elastic Compliance Matrix: (Units=1/GPa)
#
#
# Indices 1 2 3 4 5 6 
#
# 1 0.013263 -0.004788 -0.004341 0.000000 0.000000 0.000000
# 2 -0.004788 0.013263 -0.004341 0.000000 0.000000 0.000000
# 3 -0.004341 -0.004341 0.016753 0.000000 0.000000 0.000000
# 4 0.000000 0.000000 0.000000 0.042538 0.000000 0.000000
# 5 0.000000 0.000000 0.000000 0.000000 0.042538 0.000000
# 6 0.000000 0.000000 0.000000 0.000000 0.000000 0.036103
#
#
# Mechanical properties :
#
#
# Convention : Reuss Voigt Hill
#
# Bulk Modulus (GPa) = 61.20570 63.22808 62.21689
# Shear Modulus (GPa) = 25.40082 25.70517 25.55300
#
# Velocity S-wave (km/s) = 3.67886 3.70084 3.68987
# Velocity P-wave (km/s) = 7.11737 7.20769 7.16267
#
# Compressibility (1/GPa) = 0.01633835
#
# Stress axis : x y z
#
# Youngs Moduli (GPa) = 75.39835 75.39835 59.69008
#
# Poissons Ratio (x) = 0.36104 0.25911
# Poissons Ratio (y) = 0.36104 0.25911
# Poissons Ratio (z) = 0.32730 0.32730
#
# Static dielectric constant tensor:
#      x y z
#    x 3.489680 0.000000 0.000000 
#    y 0.000000 3.489680 0.000000 
#    z 0.000000 0.000000 3.281720 
# 
# 
# High freq. dielectric constant tensor:
#      x y z
#    x 1.732450 0.000000 0.000000 
#    y 0.000000 1.732450 0.000000 
#    z 0.000000 0.000000 1.697170 
# 
# From -- ./inp_files/12307.got.cif
#   From: 2010.03.12/outbox.cif.g09.slc.cpg/sg194_7_cif.got.tgz:12307.got - 2010.04.01 12:26:19.
