data_PCOD8330429
_publ_section_title
;
Structure prediction by ZEFSAII (Michael W. Deem and Ramdas Pophale) SiO2 
 PCOD8330429
Probable space group: P 63/M M C
;
_chemical_formula_sum "Si O2"
_cell_formula_units_Z 108
_cell_length_a 18.137315
_cell_length_b 18.137315
_cell_length_c 25.143275
_cell_angle_alpha 90.000000
_cell_angle_beta 90.000000
_cell_angle_gamma 120.000000
_cell_volume 7163.058013
_symmetry_space_group_name_H-M "P 63/M M C"
_symmetry_group_IT_number 194
_symmetry_cell_setting 'hexagonal'
loop_
_space_group_symop_operation_xyz
x,y,z
x-y,x,1/2+z
-y,x-y,z
-x,-y,1/2+z
-x+y,-x,z
y,-x+y,1/2+z
x-y,-y,-z
-x,-x+y,-z
y,x,-z
-y,-x,1/2-z
-x+y,y,1/2-z
x,x-y,1/2-z
-x,-y,-z
-x+y,-x,1/2-z
y,-x+y,-z
x,y,1/2-z
x-y,x,-z
-y,x-y,1/2-z
-x+y,y,z
x,x-y,z
-y,-x,z
y,x,1/2+z
x-y,-y,1/2+z
-x,-x+y,1/2+z
loop_
_atom_site_type_symbol
_atom_site_label
_atom_site_fract_x
_atom_site_fract_y
_atom_site_fract_z
Si Si1 0.170074 0.000009 0.439092
Si Si2 0.233128 0.295085 0.847621
Si Si3 0.573949 0.981803 0.686966
Si Si4 0.824607 0.825479 0.750000
Si Si5 0.494636 0.667378 0.186841
O O1 0.144233 0.072117 0.429382
O O2 0.251177 0.018670 0.403430
O O3 0.196566 0.000000 0.500000
O O4 0.089488 0.910513 0.422501
O O5 0.157557 0.315113 0.843662
O O6 0.317310 0.388222 0.842201
O O7 0.225362 0.230564 0.801107
O O8 0.575668 0.971292 0.750000
O O9 0.476902 0.953804 0.669327
O O10 0.638311 0.078024 0.667946
O O11 0.912086 0.824172 0.750000
O O12 0.846197 0.923099 0.750000
O O13 0.494271 0.669081 0.250000
O O14 0.520676 0.760338 0.163417
O O15 0.400267 0.599734 0.166425
#
# Coordination Sequence:
#
# PCOD8330429 Si02
#       5
#    24  24  24  12  24
#     4   9  17  29  45  65  91 125 162 194 220 250
#     4  10  19  30  44  63  86 114 148 187 229 269
#     4   9  17  29  42  58  81 111 143 175 216 268
#     4  10  19  28  39  60  92 126 152 174 209 260
#     4   8  13  20  31  48  71  99 130 160 190 227
#
# _framework density 15.077360000000001
#
# number of rings (size 3 to 8) (size 9 to 14) (size 15 to 20)
#    0.000    2.889    1.111    2.556    0.000    3.556 
#    0.000    2.222    0.000    1.111    0.000    0.000 
#    0.000    0.000    0.000    0.444    0.000    0.444 
#
# Total GULP energy -1338446.803608 kJ/mol
# GULP energy per Si atom -12393.025959 kJ/mol
# Density = 1.504304 g / cm^3
# Si number density = 15.077360 Si / 1000 Ang^3
#
#
#
# Elastic Constant Matrix: (Units=GPa)
#
#
# Indices 1 2 3 4 5 6 
#
# 1 84.9390 49.4604 34.0749 0.0000 0.0000 0.0000
# 2 49.4604 84.9390 34.0749 0.0000 0.0000 0.0000
# 3 34.0749 34.0749 59.1968 0.0000 0.0000 0.0000
# 4 0.0000 0.0000 0.0000 14.9388 0.0000 0.0000
# 5 0.0000 0.0000 0.0000 0.0000 14.9388 0.0000
# 6 0.0000 0.0000 0.0000 0.0000 0.0000 17.7393
#
#
#
# Elastic Compliance Matrix: (Units=1/GPa)
#
#
# Indices 1 2 3 4 5 6 
#
# 1 0.019347 -0.008839 -0.006048 0.000000 0.000000 0.000000
# 2 -0.008839 0.019347 -0.006048 0.000000 0.000000 0.000000
# 3 -0.006048 -0.006048 0.023856 0.000000 0.000000 0.000000
# 4 0.000000 0.000000 0.000000 0.066940 0.000000 0.000000
# 5 0.000000 0.000000 0.000000 0.000000 0.066940 0.000000
# 6 0.000000 0.000000 0.000000 0.000000 0.000000 0.056372
#
#
# Mechanical properties :
#
#
# Convention : Reuss Voigt Hill
#
# Bulk Modulus (GPa) = 48.36165 51.58833 49.97499
# Shear Modulus (GPa) = 16.58015 16.95434 16.76725
#
# Velocity S-wave (km/s) = 3.31973 3.35698 3.33841
# Velocity P-wave (km/s) = 6.84393 7.02252 6.93380
#
# Compressibility (1/GPa) = 0.02067754
#
# Stress axis : x y z
#
# Youngs Moduli (GPa) = 51.68839 51.68839 41.91847
#
# Poissons Ratio (x) = 0.45689 0.25353
# Poissons Ratio (y) = 0.45689 0.25353
# Poissons Ratio (z) = 0.31263 0.31263
#
# Static dielectric constant tensor:
#      x y z
#    x 2.913950 0.000000 0.000000 
#    y 0.000000 2.913950 0.000000 
#    z 0.000000 0.000000 2.665780 
# 
# 
# High freq. dielectric constant tensor:
#      x y z
#    x 1.568830 0.000000 0.000000 
#    y 0.000000 1.568830 0.000000 
#    z 0.000000 0.000000 1.534550 
# 
# From -- ./inp_files/10628.got.cif
#   From: 2010.03.12/outbox.cif.g09.slc.cpg/sg194_6_cif.got.tgz:10628.got - 2010.04.01 12:26:19.
