data_PCOD8330442
_publ_section_title
;
Structure prediction by ZEFSAII (Michael W. Deem and Ramdas Pophale) SiO2 
 PCOD8330442
Probable space group: P 63/M M C
;
_chemical_formula_sum "Si O2"
_cell_formula_units_Z 120
_cell_length_a 18.016785
_cell_length_b 18.016785
_cell_length_c 25.140161
_cell_angle_alpha 90.000000
_cell_angle_beta 90.000000
_cell_angle_gamma 120.000000
_cell_volume 7067.295952
_symmetry_space_group_name_H-M "P 63/M M C"
_symmetry_group_IT_number 194
_symmetry_cell_setting 'hexagonal'
loop_
_space_group_symop_operation_xyz
x,y,z
x-y,x,1/2+z
-y,x-y,z
-x,-y,1/2+z
-x+y,-x,z
y,-x+y,1/2+z
x-y,-y,-z
-x,-x+y,-z
y,x,-z
-y,-x,1/2-z
-x+y,y,1/2-z
x,x-y,1/2-z
-x,-y,-z
-x+y,-x,1/2-z
y,-x+y,-z
x,y,1/2-z
x-y,x,-z
-y,x-y,1/2-z
-x+y,y,z
x,x-y,z
-y,-x,z
y,x,1/2+z
x-y,-y,1/2+z
-x,-x+y,1/2+z
loop_
_atom_site_type_symbol
_atom_site_label
_atom_site_fract_x
_atom_site_fract_y
_atom_site_fract_z
Si Si1 0.135816 0.434033 0.808923
Si Si2 0.829907 0.496165 0.080279
Si Si3 0.838410 0.332562 0.592126
Si Si4 0.904133 0.264682 0.001344
Si Si5 0.391271 0.953212 0.190672
O O1 0.151717 0.477266 0.750000
O O2 0.192844 0.385688 0.813258
O O3 0.168031 0.503886 0.855665
O O4 0.033303 0.374145 0.816407
O O5 0.734864 0.469727 0.059838
O O6 0.852921 0.426461 0.058544
O O7 0.895792 0.588866 0.056191
O O8 0.845641 0.422821 0.578990
O O9 0.739329 0.260672 0.594360
O O10 0.888614 0.312954 0.547060
O O11 0.880221 0.333454 0.648886
O O12 0.837137 0.162864 0.999570
O O13 0.000000 0.279498 0.000000
O O14 0.363296 0.914483 0.250000
O O15 0.492388 0.984775 0.181495
#
# Coordination Sequence:
#
# PCOD8330442 Si02
#       5
#    24  24  24  24  24
#     4   9  17  28  42  61  85 115 153 195 235 273
#     4  10  19  29  42  62  90 123 157 191 226 265
#     4  10  20  33  49  69  94 124 157 191 226 265
#     4  10  21  35  51  71  93 118 148 184 227 272
#     4   9  17  29  45  64  87 118 155 193 233 275
#
# _framework density 16.979620000000001
#
# number of rings (size 3 to 8) (size 9 to 14) (size 15 to 20)
#    0.000    2.400    0.000    2.800    0.000    4.800 
#    0.000    2.000    0.000    3.000    0.000    2.800 
#    0.000    0.000    0.000    0.600    0.000    8.400 
#
# Total GULP energy -1486721.547915 kJ/mol
# GULP energy per Si atom -12389.346233 kJ/mol
# Density = 1.694097 g / cm^3
# Si number density = 16.979620 Si / 1000 Ang^3
#
#
#
# Elastic Constant Matrix: (Units=GPa)
#
#
# Indices 1 2 3 4 5 6 
#
# 1 84.2076 48.9283 32.6771 0.0000 0.0000 0.0000
# 2 48.9283 84.2076 32.6771 0.0000 0.0000 0.0000
# 3 32.6771 32.6771 91.0632 0.0000 0.0000 0.0000
# 4 0.0000 0.0000 0.0000 20.7191 0.0000 0.0000
# 5 0.0000 0.0000 0.0000 0.0000 20.7191 0.0000
# 6 0.0000 0.0000 0.0000 0.0000 0.0000 17.6396
#
#
#
# Elastic Compliance Matrix: (Units=1/GPa)
#
#
# Indices 1 2 3 4 5 6 
#
# 1 0.018731 -0.009614 -0.003272 0.000000 0.000000 0.000000
# 2 -0.009614 0.018731 -0.003272 0.000000 0.000000 0.000000
# 3 -0.003272 -0.003272 0.013329 0.000000 0.000000 0.000000
# 4 0.000000 0.000000 0.000000 0.048265 0.000000 0.000000
# 5 0.000000 0.000000 0.000000 0.000000 0.048265 0.000000
# 6 0.000000 0.000000 0.000000 0.000000 0.000000 0.056691
#
#
# Mechanical properties :
#
#
# Convention : Reuss Voigt Hill
#
# Bulk Modulus (GPa) = 54.12076 54.22705 54.17390
# Shear Modulus (GPa) = 20.61981 21.49527 21.05754
#
# Velocity S-wave (km/s) = 3.48858 3.56187 3.52542
# Velocity P-wave (km/s) = 6.94047 6.99441 6.96749
#
# Compressibility (1/GPa) = 0.01847720
#
# Stress axis : x y z
#
# Youngs Moduli (GPa) = 53.38692 53.38692 75.02254
#
# Poissons Ratio (x) = 0.51327 0.24544
# Poissons Ratio (y) = 0.51327 0.24544
# Poissons Ratio (z) = 0.17466 0.17466
#
# Static dielectric constant tensor:
#      x y z
#    x 2.998920 0.000000 0.000000 
#    y 0.000000 2.998920 0.000000 
#    z 0.000000 0.000000 3.505210 
# 
# 
# High freq. dielectric constant tensor:
#      x y z
#    x 1.622590 0.000000 0.000000 
#    y 0.000000 1.622590 0.000000 
#    z 0.000000 0.000000 1.680770 
# 
# From -- ./inp_files/11908.got.cif
#   From: 2010.03.12/outbox.cif.g09.slc.cpg/sg194_6_cif.got.tgz:11908.got - 2010.04.01 12:26:19.
