data_PCOD8330474
_publ_section_title
;
Structure prediction by ZEFSAII (Michael W. Deem and Ramdas Pophale) SiO2 
 PCOD8330474
Probable space group: P 63/M M C
;
_chemical_formula_sum "Si O2"
_cell_formula_units_Z 120
_cell_length_a 17.214245
_cell_length_b 17.214245
_cell_length_c 27.715064
_cell_angle_alpha 90.000000
_cell_angle_beta 90.000000
_cell_angle_gamma 120.000000
_cell_volume 7112.503235
_symmetry_space_group_name_H-M "P 63/M M C"
_symmetry_group_IT_number 194
_symmetry_cell_setting 'hexagonal'
loop_
_space_group_symop_operation_xyz
x,y,z
x-y,x,1/2+z
-y,x-y,z
-x,-y,1/2+z
-x+y,-x,z
y,-x+y,1/2+z
x-y,-y,-z
-x,-x+y,-z
y,x,-z
-y,-x,1/2-z
-x+y,y,1/2-z
x,x-y,1/2-z
-x,-y,-z
-x+y,-x,1/2-z
y,-x+y,-z
x,y,1/2-z
x-y,x,-z
-y,x-y,1/2-z
-x+y,y,z
x,x-y,z
-y,-x,z
y,x,1/2+z
x-y,-y,1/2+z
-x,-x+y,1/2+z
loop_
_atom_site_type_symbol
_atom_site_label
_atom_site_fract_x
_atom_site_fract_y
_atom_site_fract_z
Si Si1 0.430052 0.390869 0.696648
Si Si2 0.488394 0.155193 0.331692
Si Si3 0.896240 0.363768 0.510560
Si Si4 0.629088 0.898072 0.920898
Si Si5 0.371578 0.096679 0.896695
O O1 0.432032 0.352997 0.750000
O O2 0.527384 0.472617 0.682186
O O3 0.359956 0.427576 0.700507
O O4 0.402733 0.313452 0.657095
O O5 0.592998 0.185995 0.328506
O O6 0.476146 0.238073 0.314350
O O7 0.454225 0.124154 0.386081
O O8 0.848682 0.424341 0.503387
O O9 0.866286 0.282522 0.473383
O O10 0.873856 0.326011 0.565147
O O11 0.000000 0.427810 0.500000
O O12 0.672530 0.836265 0.908137
O O13 0.709040 0.000503 0.915396
O O14 0.338077 0.169039 0.895572
#
# Coordination Sequence:
#
# PCOD8330474 Si02
#       5
#    24  24  24  24  24
#     4   9  18  32  47  62  84 116 151 187 229 273
#     4   9  16  26  42  66  95 124 151 178 212 259
#     4   9  16  27  45  68  92 117 144 173 208 255
#     4   9  17  29  45  66  94 125 153 183 221 266
#     4  10  19  30  47  69  89 114 153 196 232 267
#
# _framework density 16.871697999999999
#
# number of rings (size 3 to 8) (size 9 to 14) (size 15 to 20)
#    0.000    2.800    0.000    2.000    0.000    5.600 
#    0.000    0.000    0.000   10.000    0.000    0.000 
#    0.000    4.800    0.000    0.600    0.000    0.000 
#
# Total GULP energy -1486733.534823 kJ/mol
# GULP energy per Si atom -12389.446124 kJ/mol
# Density = 1.683330 g / cm^3
# Si number density = 16.871698 Si / 1000 Ang^3
#
#
#
# Elastic Constant Matrix: (Units=GPa)
#
#
# Indices 1 2 3 4 5 6 
#
# 1 93.6277 30.9152 28.6452 0.0000 0.0000 0.0000
# 2 30.9152 93.6277 28.6452 0.0000 0.0000 0.0000
# 3 28.6452 28.6452 103.1590 0.0000 0.0000 0.0000
# 4 0.0000 0.0000 0.0000 22.3973 0.0000 0.0000
# 5 0.0000 0.0000 0.0000 0.0000 22.3973 0.0000
# 6 0.0000 0.0000 0.0000 0.0000 0.0000 31.3562
#
#
#
# Elastic Compliance Matrix: (Units=1/GPa)
#
#
# Indices 1 2 3 4 5 6 
#
# 1 0.012575 -0.003370 -0.002556 0.000000 0.000000 0.000000
# 2 -0.003370 0.012575 -0.002556 0.000000 0.000000 0.000000
# 3 -0.002556 -0.002556 0.011113 0.000000 0.000000 0.000000
# 4 0.000000 0.000000 0.000000 0.044648 0.000000 0.000000
# 5 0.000000 0.000000 0.000000 0.000000 0.044648 0.000000
# 6 0.000000 0.000000 0.000000 0.000000 0.000000 0.031892
#
#
# Mechanical properties :
#
#
# Convention : Reuss Voigt Hill
#
# Bulk Modulus (GPa) = 51.81535 51.86953 51.84244
# Shear Modulus (GPa) = 27.64717 28.71076 28.17896
#
# Velocity S-wave (km/s) = 4.05244 4.12966 4.09123
# Velocity P-wave (km/s) = 7.25772 7.31772 7.28778
#
# Compressibility (1/GPa) = 0.01929930
#
# Stress axis : x y z
#
# Youngs Moduli (GPa) = 79.51979 79.51979 89.98207
#
# Poissons Ratio (x) = 0.26801 0.23000
# Poissons Ratio (y) = 0.26801 0.23000
# Poissons Ratio (z) = 0.20326 0.20326
#
# Static dielectric constant tensor:
#      x y z
#    x 2.988890 0.000000 0.000000 
#    y 0.000000 2.988890 0.000000 
#    z 0.000000 0.000000 3.279010 
# 
# 
# High freq. dielectric constant tensor:
#      x y z
#    x 1.624280 0.000000 0.000000 
#    y 0.000000 1.624280 0.000000 
#    z 0.000000 0.000000 1.661600 
# 
# From -- ./inp_files/11875.got.cif
#   From: 2010.03.12/outbox.cif.g09.slc.cpg/sg194_6_cif.got.tgz:11875.got - 2010.04.01 12:26:19.
