data_PCOD8330439
_publ_section_title
;
Structure prediction by ZEFSAII (Michael W. Deem and Ramdas Pophale) SiO2 
 PCOD8330439
Probable space group: P 63/M M C
;
_chemical_formula_sum "Si O2"
_cell_formula_units_Z 132
_cell_length_a 17.472988
_cell_length_b 17.472988
_cell_length_c 33.082321
_cell_angle_alpha 90.000000
_cell_angle_beta 90.000000
_cell_angle_gamma 120.000000
_cell_volume 8747.036934
_symmetry_space_group_name_H-M "P 63/M M C"
_symmetry_group_IT_number 194
_symmetry_cell_setting 'hexagonal'
loop_
_space_group_symop_operation_xyz
x,y,z
x-y,x,1/2+z
-y,x-y,z
-x,-y,1/2+z
-x+y,-x,z
y,-x+y,1/2+z
x-y,-y,-z
-x,-x+y,-z
y,x,-z
-y,-x,1/2-z
-x+y,y,1/2-z
x,x-y,1/2-z
-x,-y,-z
-x+y,-x,1/2-z
y,-x+y,-z
x,y,1/2-z
x-y,x,-z
-y,x-y,1/2-z
-x+y,y,z
x,x-y,z
-y,-x,z
y,x,1/2+z
x-y,-y,1/2+z
-x,-x+y,1/2+z
loop_
_atom_site_type_symbol
_atom_site_label
_atom_site_fract_x
_atom_site_fract_y
_atom_site_fract_z
Si Si1 0.841690 0.509059 0.563905
Si Si2 0.000397 0.173641 0.297840
Si Si3 0.332672 0.847645 0.750000
Si Si4 0.667160 0.158566 0.471282
Si Si5 0.424574 0.397881 0.098228
Si Si6 0.272721 0.907652 0.825729
O O1 0.759929 0.519858 0.578003
O O2 0.814520 0.407260 0.569197
O O3 0.867889 0.538463 0.517495
O O4 0.924084 0.571583 0.592207
O O5 0.000515 0.182832 0.250000
O O6 0.923611 0.076390 0.311039
O O7 0.983675 0.248559 0.316764
O O8 0.093804 0.187608 0.313696
O O9 0.252693 0.747308 0.750000
O O10 0.423539 0.847077 0.750000
O O11 0.328651 0.900056 0.789059
O O12 0.593174 0.186347 0.465662
O O13 0.759135 0.240865 0.457394
O O14 0.647486 0.075971 0.443375
O O15 0.519359 0.480642 0.108899
O O16 0.396325 0.329355 0.134118
O O17 0.184952 0.815049 0.832607
#
# Coordination Sequence:
#
# PCOD8330439 Si02
#       6
#    24  24  12  24  24  24
#     4   9  17  29  45  63  84 110 143 180 218 256
#     4   9  16  28  46  67  87 108 134 168 210 256
#     4  10  19  32  47  62  82 112 148 180 207 240
#     4   9  16  27  43  63  86 113 143 176 212 253
#     4  10  19  29  42  62  87 115 144 176 214 255
#     4  10  19  31  45  63  88 115 142 174 211 251
#
# _framework density 15.090825000000001
#
# number of rings (size 3 to 8) (size 9 to 14) (size 15 to 20)
#    0.000    2.545    0.909    2.273    0.000    5.091 
#    0.000    0.000    0.000    5.818    0.000    0.000 
#    0.000    0.000    0.000    0.364    0.000   55.091 
#
# Total GULP energy -1636727.316024 kJ/mol
# GULP energy per Si atom -12399.449364 kJ/mol
# Density = 1.505648 g / cm^3
# Si number density = 15.090825 Si / 1000 Ang^3
#
#
#
# Elastic Constant Matrix: (Units=GPa)
#
#
# Indices 1 2 3 4 5 6 
#
# 1 75.9144 36.2119 26.7873 0.0000 0.0000 0.0000
# 2 36.2119 75.9144 26.7873 0.0000 0.0000 0.0000
# 3 26.7873 26.7873 51.5330 0.0000 0.0000 0.0000
# 4 0.0000 0.0000 0.0000 22.5485 0.0000 0.0000
# 5 0.0000 0.0000 0.0000 0.0000 22.5485 0.0000
# 6 0.0000 0.0000 0.0000 0.0000 0.0000 19.8513
#
#
#
# Elastic Compliance Matrix: (Units=1/GPa)
#
#
# Indices 1 2 3 4 5 6 
#
# 1 0.018526 -0.006661 -0.006168 0.000000 0.000000 0.000000
# 2 -0.006661 0.018526 -0.006168 0.000000 0.000000 0.000000
# 3 -0.006168 -0.006168 0.025817 0.000000 0.000000 0.000000
# 4 0.000000 0.000000 0.000000 0.044349 0.000000 0.000000
# 5 0.000000 0.000000 0.000000 0.000000 0.044349 0.000000
# 6 0.000000 0.000000 0.000000 0.000000 0.000000 0.050375
#
#
# Mechanical properties :
#
#
# Convention : Reuss Voigt Hill
#
# Bulk Modulus (GPa) = 40.19774 42.54832 41.37303
# Shear Modulus (GPa) = 20.14279 20.56134 20.35207
#
# Velocity S-wave (km/s) = 3.65742 3.69522 3.67637
# Velocity P-wave (km/s) = 6.67313 6.81632 6.74510
#
# Compressibility (1/GPa) = 0.02487702
#
# Stress axis : x y z
#
# Youngs Moduli (GPa) = 53.97698 53.97698 38.73387
#
# Poissons Ratio (x) = 0.35953 0.23890
# Poissons Ratio (y) = 0.35953 0.23890
# Poissons Ratio (z) = 0.33292 0.33292
#
# Static dielectric constant tensor:
#      x y z
#    x 2.901120 0.000000 0.000000 
#    y 0.000000 2.901120 0.000000 
#    z 0.000000 0.000000 2.764830 
# 
# 
# High freq. dielectric constant tensor:
#      x y z
#    x 1.575070 0.000000 0.000000 
#    y 0.000000 1.575070 0.000000 
#    z 0.000000 0.000000 1.564530 
# 
# From -- ./inp_files/11987.got.cif
#   From: 2010.03.12/outbox.cif.g09.slc.cpg/sg194_6_cif.got.tgz:11987.got - 2010.04.01 12:26:19.
