data_PCOD8330617
_publ_section_title
;
Structure prediction by ZEFSAII (Michael W. Deem and Ramdas Pophale) SiO2 
 PCOD8330617
Probable space group: P 63/M M C
;
_chemical_formula_sum "Si O2"
_cell_formula_units_Z 108
_cell_length_a 26.734071
_cell_length_b 26.734071
_cell_length_c 9.832287
_cell_angle_alpha 90.000000
_cell_angle_beta 90.000000
_cell_angle_gamma 120.000000
_cell_volume 6085.767728
_symmetry_space_group_name_H-M "P 63/M M C"
_symmetry_group_IT_number 194
_symmetry_cell_setting 'hexagonal'
loop_
_space_group_symop_operation_xyz
x,y,z
x-y,x,1/2+z
-y,x-y,z
-x,-y,1/2+z
-x+y,-x,z
y,-x+y,1/2+z
x-y,-y,-z
-x,-x+y,-z
y,x,-z
-y,-x,1/2-z
-x+y,y,1/2-z
x,x-y,1/2-z
-x,-y,-z
-x+y,-x,1/2-z
y,-x+y,-z
x,y,1/2-z
x-y,x,-z
-y,x-y,1/2-z
-x+y,y,z
x,x-y,z
-y,-x,z
y,x,1/2+z
x-y,-y,1/2+z
-x,-x+y,1/2+z
loop_
_atom_site_type_symbol
_atom_site_label
_atom_site_fract_x
_atom_site_fract_y
_atom_site_fract_z
Si Si1 0.666701 0.446115 0.096719
Si Si2 0.768605 0.647702 0.910157
Si Si3 0.468003 0.129970 0.908186
Si Si4 0.055334 0.527667 0.408077
Si Si5 0.776313 0.829546 0.092411
O O1 0.662945 0.465794 0.250000
O O2 0.711665 0.423330 0.090011
O O3 0.605205 0.394796 0.048035
O O4 0.687051 0.499000 0.994585
O O5 0.776246 0.652083 0.750000
O O6 0.815584 0.631168 0.969309
O O7 0.702563 0.599638 0.948604
O O8 0.784271 0.711281 0.961160
O O9 0.477960 0.146589 0.750000
O O10 0.493742 0.088941 0.946550
O O11 0.038125 0.519063 0.250000
O O12 0.000000 0.500000 0.500000
O O13 0.784419 0.818313 0.250000
O O14 0.789213 0.894607 0.072852
O O15 0.820873 0.820873 0.000000
#
# Coordination Sequence:
#
# PCOD8330617 Si02
#       5
#    24  24  24  12  24
#     4  10  20  33  49  70  98 131 165 205 258 319
#     4   8  15  29  50  74 100 132 165 202 255 309
#     4  10  19  34  53  73  97 128 170 217 260 309
#     4  10  22  36  50  70  96 126 166 212 258 310
#     4   9  18  33  53  79 110 142 177 213 252 302
#
# _framework density 17.746324000000001
#
# number of rings (size 3 to 8) (size 9 to 14) (size 15 to 20)
#    0.000    2.667    1.111    2.222    0.000    4.444 
#    0.000    1.111    0.000    2.889    0.000    0.000 
#    0.000    0.000    0.000    0.000    0.000    0.000 
#
# Total GULP energy -1338540.818120 kJ/mol
# GULP energy per Si atom -12393.896464 kJ/mol
# Density = 1.770593 g / cm^3
# Si number density = 17.746324 Si / 1000 Ang^3
#
#
#
# Elastic Constant Matrix: (Units=GPa)
#
#
# Indices 1 2 3 4 5 6 
#
# 1 92.9557 49.8310 41.8951 0.0000 0.0000 0.0000
# 2 49.8310 92.9557 41.8951 0.0000 0.0000 0.0000
# 3 41.8951 41.8951 55.7119 0.0000 0.0000 0.0000
# 4 0.0000 0.0000 0.0000 25.9997 0.0000 0.0000
# 5 0.0000 0.0000 0.0000 0.0000 25.9997 0.0000
# 6 0.0000 0.0000 0.0000 0.0000 0.0000 21.5624
#
#
#
# Elastic Compliance Matrix: (Units=1/GPa)
#
#
# Indices 1 2 3 4 5 6 
#
# 1 0.017862 -0.005327 -0.009426 0.000000 0.000000 0.000000
# 2 -0.005327 0.017862 -0.009426 0.000000 0.000000 0.000000
# 3 -0.009426 -0.009426 0.032126 0.000000 0.000000 0.000000
# 4 0.000000 0.000000 0.000000 0.038462 0.000000 0.000000
# 5 0.000000 0.000000 0.000000 0.000000 0.038462 0.000000
# 6 0.000000 0.000000 0.000000 0.000000 0.000000 0.046377
#
#
# Mechanical properties :
#
#
# Convention : Reuss Voigt Hill
#
# Bulk Modulus (GPa) = 51.30453 56.54061 53.92257
# Shear Modulus (GPa) = 20.32464 21.91248 21.11856
#
# Velocity S-wave (km/s) = 3.38788 3.51773 3.45342
# Velocity P-wave (km/s) = 6.65405 6.95908 6.80827
#
# Compressibility (1/GPa) = 0.01949146
#
# Stress axis : x y z
#
# Youngs Moduli (GPa) = 55.98552 55.98552 31.12697
#
# Poissons Ratio (x) = 0.29822 0.29341
# Poissons Ratio (y) = 0.29822 0.29341
# Poissons Ratio (z) = 0.52773 0.52773
#
# Static dielectric constant tensor:
#      x y z
#    x 3.316460 0.000000 0.000000 
#    y 0.000000 3.316460 0.000000 
#    z 0.000000 0.000000 3.102440 
# 
# 
# High freq. dielectric constant tensor:
#      x y z
#    x 1.680650 0.000000 0.000000 
#    y 0.000000 1.680650 0.000000 
#    z 0.000000 0.000000 1.665460 
# 
# From -- ./inp_files/3219.got.cif
#   From: 2010.03.12/outbox.cif.g09.slc.cpg/sg194_2_cif.got.tgz:3219.got - 2010.04.01 12:26:19.
