data_PCOD8330639
_publ_section_title
;
Structure prediction by ZEFSAII (Michael W. Deem and Ramdas Pophale) SiO2 
 PCOD8330639
Probable space group: P 63/M M C
;
_chemical_formula_sum "Si O2"
_cell_formula_units_Z 120
_cell_length_a 22.696066
_cell_length_b 22.696066
_cell_length_c 14.841478
_cell_angle_alpha 90.000000
_cell_angle_beta 90.000000
_cell_angle_gamma 120.000000
_cell_volume 6620.776931
_symmetry_space_group_name_H-M "P 63/M M C"
_symmetry_group_IT_number 194
_symmetry_cell_setting 'hexagonal'
loop_
_space_group_symop_operation_xyz
x,y,z
x-y,x,1/2+z
-y,x-y,z
-x,-y,1/2+z
-x+y,-x,z
y,-x+y,1/2+z
x-y,-y,-z
-x,-x+y,-z
y,x,-z
-y,-x,1/2-z
-x+y,y,1/2-z
x,x-y,1/2-z
-x,-y,-z
-x+y,-x,1/2-z
y,-x+y,-z
x,y,1/2-z
x-y,x,-z
-y,x-y,1/2-z
-x+y,y,z
x,x-y,z
-y,-x,z
y,x,1/2+z
x-y,-y,1/2+z
-x,-x+y,1/2+z
loop_
_atom_site_type_symbol
_atom_site_label
_atom_site_fract_x
_atom_site_fract_y
_atom_site_fract_z
Si Si1 0.968471 0.244790 0.092273
Si Si2 0.063930 0.600085 0.854535
Si Si3 0.999631 0.868172 0.645012
Si Si4 0.859760 0.588167 0.469065
Si Si5 0.678220 0.616652 0.651107
O O1 0.971765 0.176150 0.099312
O O2 0.892117 0.232183 0.086733
O O3 0.015524 0.301042 0.165436
O O4 0.000000 0.283108 0.000000
O O5 0.082859 0.619512 0.750000
O O6 0.062360 0.531180 0.880517
O O7 0.121206 0.659277 0.916615
O O8 0.989424 0.589226 0.876087
O O9 0.993000 0.852162 0.750000
O O10 0.052968 0.947033 0.625931
O O11 0.926107 0.852213 0.606018
O O12 0.778581 0.557161 0.467805
O O13 0.881536 0.595265 0.574347
O O14 0.683528 0.588182 0.750000
#
# Coordination Sequence:
#
# PCOD8330639 Si02
#       5
#    24  24  24  24  24
#     4   9  18  32  47  64  89 120 156 200 248 296
#     4   9  18  34  56  79 103 134 172 213 255 296
#     4  10  20  32  44  57  76 108 153 203 252 301
#     4  10  20  32  49  76 107 136 165 201 248 303
#     4   9  18  32  50  74 102 131 165 204 248 299
#
# _framework density 18.124759999999998
#
# number of rings (size 3 to 8) (size 9 to 14) (size 15 to 20)
#    0.000    2.600    0.000    3.200    0.000    8.000 
#    0.000    0.000    0.000    1.600    0.000    0.000 
#    0.000    0.000    0.000    0.000    0.000    0.000 
#
# Total GULP energy -1486886.611341 kJ/mol
# GULP energy per Si atom -12390.721761 kJ/mol
# Density = 1.808351 g / cm^3
# Si number density = 18.124760 Si / 1000 Ang^3
#
#
#
# Elastic Constant Matrix: (Units=GPa)
#
#
# Indices 1 2 3 4 5 6 
#
# 1 88.8549 46.4148 26.1298 0.0000 0.0000 0.0000
# 2 46.4148 88.8549 26.1298 0.0000 0.0000 0.0000
# 3 26.1298 26.1298 65.5671 0.0000 0.0000 0.0000
# 4 0.0000 0.0000 0.0000 18.2116 0.0000 0.0000
# 5 0.0000 0.0000 0.0000 0.0000 18.2116 0.0000
# 6 0.0000 0.0000 0.0000 0.0000 0.0000 21.2200
#
#
#
# Elastic Compliance Matrix: (Units=1/GPa)
#
#
# Indices 1 2 3 4 5 6 
#
# 1 0.016150 -0.007412 -0.003482 0.000000 0.000000 0.000000
# 2 -0.007412 0.016150 -0.003482 0.000000 0.000000 0.000000
# 3 -0.003482 -0.003482 0.018027 0.000000 0.000000 0.000000
# 4 0.000000 0.000000 0.000000 0.054910 0.000000 0.000000
# 5 0.000000 0.000000 0.000000 0.000000 0.054910 0.000000
# 6 0.000000 0.000000 0.000000 0.000000 0.000000 0.047125
#
#
# Mechanical properties :
#
#
# Convention : Reuss Voigt Hill
#
# Bulk Modulus (GPa) = 46.35216 48.95839 47.65528
# Shear Modulus (GPa) = 20.55768 21.16881 20.86324
#
# Velocity S-wave (km/s) = 3.37149 3.42124 3.39645
# Velocity P-wave (km/s) = 6.38634 6.53276 6.45997
#
# Compressibility (1/GPa) = 0.02157397
#
# Stress axis : x y z
#
# Youngs Moduli (GPa) = 61.91839 61.91839 55.47226
#
# Poissons Ratio (x) = 0.45896 0.19317
# Poissons Ratio (y) = 0.45896 0.19317
# Poissons Ratio (z) = 0.21561 0.21561
#
# Static dielectric constant tensor:
#      x y z
#    x 3.116180 0.000000 0.000000 
#    y 0.000000 3.116180 0.000000 
#    z 0.000000 0.000000 3.481010 
# 
# 
# High freq. dielectric constant tensor:
#      x y z
#    x 1.675770 0.000000 0.000000 
#    y 0.000000 1.675770 0.000000 
#    z 0.000000 0.000000 1.713940 
# 
# From -- ./inp_files/5062.got.cif
#   From: 2010.03.12/outbox.cif.g09.slc.cpg/sg194_3_cif.got.tgz:5062.got - 2010.04.01 12:26:19.
