data_PCOD8330562
_publ_section_title
;
Structure prediction by ZEFSAII (Michael W. Deem and Ramdas Pophale) SiO2 
 PCOD8330562
Probable space group: P 63/M M C
;
_chemical_formula_sum "Si O2"
_cell_formula_units_Z 108
_cell_length_a 17.711667
_cell_length_b 17.711667
_cell_length_c 22.386787
_cell_angle_alpha 90.000000
_cell_angle_beta 90.000000
_cell_angle_gamma 120.000000
_cell_volume 6081.928015
_symmetry_space_group_name_H-M "P 63/M M C"
_symmetry_group_IT_number 194
_symmetry_cell_setting 'hexagonal'
loop_
_space_group_symop_operation_xyz
x,y,z
x-y,x,1/2+z
-y,x-y,z
-x,-y,1/2+z
-x+y,-x,z
y,-x+y,1/2+z
x-y,-y,-z
-x,-x+y,-z
y,x,-z
-y,-x,1/2-z
-x+y,y,1/2-z
x,x-y,1/2-z
-x,-y,-z
-x+y,-x,1/2-z
y,-x+y,-z
x,y,1/2-z
x-y,x,-z
-y,x-y,1/2-z
-x+y,y,z
x,x-y,z
-y,-x,z
y,x,1/2+z
x-y,-y,1/2+z
-x,-x+y,1/2+z
loop_
_atom_site_type_symbol
_atom_site_label
_atom_site_fract_x
_atom_site_fract_y
_atom_site_fract_z
Si Si1 0.666742 0.157606 0.954161
Si Si2 0.162425 0.495860 0.908840
Si Si3 0.257412 0.914505 0.682360
Si Si4 0.000000 0.176822 0.000000
Si Si5 0.068802 0.757449 0.105380
O O1 0.574780 0.149559 0.935850
O O2 0.743333 0.256668 0.942706
O O3 0.682115 0.089356 0.916019
O O4 0.666482 0.132090 0.023374
O O5 0.264161 0.528321 0.901956
O O6 0.147504 0.573752 0.889990
O O7 0.105678 0.419068 0.863815
O O8 0.287760 0.913480 0.750000
O O9 0.154719 0.845282 0.675082
O O10 0.279140 0.011298 0.665425
O O11 0.983457 0.222733 0.944414
O O12 0.082909 0.165818 0.985932
O O13 0.158053 0.841948 0.122293
#
# Coordination Sequence:
#
# PCOD8330562 Si02
#       5
#    24  24  24  12  24
#     4   9  17  30  50  76 104 132 161 195 238 288
#     4   9  17  30  49  73 101 132 164 196 232 277
#     4  10  21  36  51  67  92 127 164 202 243 284
#     4  10  19  32  51  74 100 126 154 194 247 306
#     4  10  20  33  51  74  98 125 159 200 244 292
#
# _framework density 17.757525999999999
#
# number of rings (size 3 to 8) (size 9 to 14) (size 15 to 20)
#    0.000    2.444    0.000    2.556    0.000    7.111 
#    0.000    2.778    0.000    1.778    0.000    0.000 
#    0.000    1.778    0.000    0.000    0.000    0.000 
#
# Total GULP energy -1339046.688895 kJ/mol
# GULP energy per Si atom -12398.580453 kJ/mol
# Density = 1.771711 g / cm^3
# Si number density = 17.757526 Si / 1000 Ang^3
#
#
#
# Elastic Constant Matrix: (Units=GPa)
#
#
# Indices 1 2 3 4 5 6 
#
# 1 95.3651 53.3877 41.2242 0.0000 0.0000 0.0000
# 2 53.3877 95.3651 41.2242 0.0000 0.0000 0.0000
# 3 41.2242 41.2242 63.3119 0.0000 0.0000 0.0000
# 4 0.0000 0.0000 0.0000 22.0412 0.0000 0.0000
# 5 0.0000 0.0000 0.0000 0.0000 22.0412 0.0000
# 6 0.0000 0.0000 0.0000 0.0000 0.0000 20.9887
#
#
#
# Elastic Compliance Matrix: (Units=1/GPa)
#
#
# Indices 1 2 3 4 5 6 
#
# 1 0.017171 -0.006652 -0.006849 0.000000 0.000000 0.000000
# 2 -0.006652 0.017171 -0.006849 0.000000 0.000000 0.000000
# 3 -0.006849 -0.006849 0.024714 0.000000 0.000000 0.000000
# 4 0.000000 0.000000 0.000000 0.045370 0.000000 0.000000
# 5 0.000000 0.000000 0.000000 0.000000 0.045370 0.000000
# 6 0.000000 0.000000 0.000000 0.000000 0.000000 0.047645
#
#
# Mechanical properties :
#
#
# Convention : Reuss Voigt Hill
#
# Bulk Modulus (GPa) = 54.48017 58.41274 56.44645
# Shear Modulus (GPa) = 20.47021 20.89461 20.68241
#
# Velocity S-wave (km/s) = 3.39892 3.43397 3.41649
# Velocity P-wave (km/s) = 6.79339 6.97775 6.88619
#
# Compressibility (1/GPa) = 0.01835530
#
# Stress axis : x y z
#
# Youngs Moduli (GPa) = 58.23925 58.23925 40.46280
#
# Poissons Ratio (x) = 0.38740 0.27713
# Poissons Ratio (y) = 0.38740 0.27713
# Poissons Ratio (z) = 0.39888 0.39888
#
# Static dielectric constant tensor:
#      x y z
#    x 3.359880 0.000000 0.000000 
#    y 0.000000 3.359880 0.000000 
#    z 0.000000 0.000000 3.093110 
# 
# 
# High freq. dielectric constant tensor:
#      x y z
#    x 1.692480 0.000000 0.000000 
#    y 0.000000 1.692480 0.000000 
#    z 0.000000 0.000000 1.660370 
# 
# From -- ./inp_files/7922.got.cif
#   From: 2010.03.12/outbox.cif.g09.slc.cpg/sg194_4_cif.got.tgz:7922.got - 2010.04.01 12:26:19.
