data_PCOD8330470
_publ_section_title
;
Structure prediction by ZEFSAII (Michael W. Deem and Ramdas Pophale) SiO2 
 PCOD8330470
Probable space group: P 63/M M C
;
_chemical_formula_sum "Si O2"
_cell_formula_units_Z 192
_cell_length_a 21.670649
_cell_length_b 21.670649
_cell_length_c 26.844714
_cell_angle_alpha 90.000000
_cell_angle_beta 90.000000
_cell_angle_gamma 120.000000
_cell_volume 10917.752603
_symmetry_space_group_name_H-M "P 63/M M C"
_symmetry_group_IT_number 194
_symmetry_cell_setting 'hexagonal'
loop_
_space_group_symop_operation_xyz
x,y,z
x-y,x,1/2+z
-y,x-y,z
-x,-y,1/2+z
-x+y,-x,z
y,-x+y,1/2+z
x-y,-y,-z
-x,-x+y,-z
y,x,-z
-y,-x,1/2-z
-x+y,y,1/2-z
x,x-y,1/2-z
-x,-y,-z
-x+y,-x,1/2-z
y,-x+y,-z
x,y,1/2-z
x-y,x,-z
-y,x-y,1/2-z
-x+y,y,z
x,x-y,z
-y,-x,z
y,x,1/2+z
x-y,-y,1/2+z
-x,-x+y,1/2+z
loop_
_atom_site_type_symbol
_atom_site_label
_atom_site_fract_x
_atom_site_fract_y
_atom_site_fract_z
Si Si1 0.773406 0.957955 0.305906
Si Si2 0.144907 0.144574 0.404674
Si Si3 0.409684 0.075741 0.511464
Si Si4 0.877390 0.506904 0.080160
Si Si5 0.926776 0.709073 0.048484
Si Si6 0.662433 0.648893 0.805954
Si Si7 0.042982 0.451684 0.107752
Si Si8 0.262657 0.386823 0.858291
O O1 0.801251 0.990098 0.250000
O O2 0.754666 0.877333 0.308407
O O3 0.832667 0.003789 0.347577
O O4 0.699679 0.954508 0.318385
O O5 0.075068 0.150136 0.417642
O O6 0.208054 0.196483 0.443281
O O7 0.126422 0.063211 0.410858
O O8 0.470449 0.134250 0.475317
O O9 0.330913 0.066261 0.500820
O O10 0.434686 0.090683 0.568886
O O11 0.404201 0.000000 0.500000
O O12 0.843877 0.421939 0.082706
O O13 0.838891 0.532054 0.120463
O O14 0.960478 0.548364 0.093506
O O15 0.852693 0.705385 0.043345
O O16 0.925610 0.664689 0.097098
O O17 0.649792 0.620512 0.750000
O O18 0.629468 0.578392 0.839558
O O19 0.623913 0.696251 0.812672
O O20 0.073274 0.536637 0.110981
O O21 0.184529 0.369057 0.840740
#
# Coordination Sequence:
#
# PCOD8330470 Si02
#       8
#    24  24  24  24  24  24  24  24
#     4   9  18  31  46  65  91 128 174 223 271 315
#     4  10  19  31  48  68  94 128 173 226 282 336
#     4   9  16  26  45  66  92 117 152 188 228 279
#     4   8  14  25  42  63  87 118 148 176 221 274
#     4   9  17  30  45  65  95 126 158 205 258 307
#     4  10  19  30  46  68  96 130 164 198 244 302
#     4   9  17  29  46  69  97 122 148 183 225 276
#     4   9  16  27  43  64  91 122 158 201 244 288
#
# _framework density 17.586037000000001
#
# number of rings (size 3 to 8) (size 9 to 14) (size 15 to 20)
#    0.000    2.875    1.250    1.250    0.000    2.250 
#    0.000    2.500    0.000    4.000    0.000    0.000 
#    0.000    2.500    0.000    3.125    0.000   10.250 
#
# Total GULP energy -2378660.049691 kJ/mol
# GULP energy per Si atom -12388.854425 kJ/mol
# Density = 1.754601 g / cm^3
# Si number density = 17.586037 Si / 1000 Ang^3
#
#
#
# Elastic Constant Matrix: (Units=GPa)
#
#
# Indices 1 2 3 4 5 6 
#
# 1 69.5250 31.6527 33.7703 0.0000 0.0000 0.0000
# 2 31.6527 69.5250 33.7703 0.0000 0.0000 0.0000
# 3 33.7703 33.7703 79.0284 0.0000 0.0000 0.0000
# 4 0.0000 0.0000 0.0000 21.5799 0.0000 0.0000
# 5 0.0000 0.0000 0.0000 0.0000 21.5799 0.0000
# 6 0.0000 0.0000 0.0000 0.0000 0.0000 18.9362
#
#
#
# Elastic Compliance Matrix: (Units=1/GPa)
#
#
# Indices 1 2 3 4 5 6 
#
# 1 0.020116 -0.006288 -0.005909 0.000000 0.000000 0.000000
# 2 -0.006288 0.020116 -0.005909 0.000000 0.000000 0.000000
# 3 -0.005909 -0.005909 0.017704 0.000000 0.000000 0.000000
# 4 0.000000 0.000000 0.000000 0.046339 0.000000 0.000000
# 5 0.000000 0.000000 0.000000 0.000000 0.046339 0.000000
# 6 0.000000 0.000000 0.000000 0.000000 0.000000 0.052809
#
#
# Mechanical properties :
#
#
# Convention : Reuss Voigt Hill
#
# Bulk Modulus (GPa) = 46.03214 46.27386 46.15300
# Shear Modulus (GPa) = 20.25293 20.34488 20.29890
#
# Velocity S-wave (km/s) = 3.39728 3.40498 3.40113
# Velocity P-wave (km/s) = 6.45142 6.46749 6.45946
#
# Compressibility (1/GPa) = 0.02172395
#
# Stress axis : x y z
#
# Youngs Moduli (GPa) = 49.71089 49.71089 56.48525
#
# Poissons Ratio (x) = 0.31259 0.33377
# Poissons Ratio (y) = 0.31259 0.33377
# Poissons Ratio (z) = 0.29374 0.29374
#
# Static dielectric constant tensor:
#      x y z
#    x 3.233540 0.000000 0.000000 
#    y 0.000000 3.233540 0.000000 
#    z 0.000000 0.000000 3.383320 
# 
# 
# High freq. dielectric constant tensor:
#      x y z
#    x 1.652980 0.000000 0.000000 
#    y 0.000000 1.652980 0.000000 
#    z 0.000000 0.000000 1.673660 
# 
# From -- ./inp_files/10131.got.cif
#   From: 2010.03.12/outbox.cif.g09.slc.cpg/sg194_6_cif.got.tgz:10131.got - 2010.04.01 12:26:19.
