data_PCOD8330765
_publ_section_title
;
Structure prediction by ZEFSAII (Michael W. Deem and Ramdas Pophale) SiO2 
 PCOD8330765
Probable space group: P 63/M M C
;
_chemical_formula_sum "Si O2"
_cell_formula_units_Z 168
_cell_length_a 22.475261
_cell_length_b 22.475261
_cell_length_c 22.389231
_cell_angle_alpha 90.000000
_cell_angle_beta 90.000000
_cell_angle_gamma 120.000000
_cell_volume 9794.432926
_symmetry_space_group_name_H-M "P 63/M M C"
_symmetry_group_IT_number 194
_symmetry_cell_setting 'hexagonal'
loop_
_space_group_symop_operation_xyz
x,y,z
x-y,x,1/2+z
-y,x-y,z
-x,-y,1/2+z
-x+y,-x,z
y,-x+y,1/2+z
x-y,-y,-z
-x,-x+y,-z
y,x,-z
-y,-x,1/2-z
-x+y,y,1/2-z
x,x-y,1/2-z
-x,-y,-z
-x+y,-x,1/2-z
y,-x+y,-z
x,y,1/2-z
x-y,x,-z
-y,x-y,1/2-z
-x+y,y,z
x,x-y,z
-y,-x,z
y,x,1/2+z
x-y,-y,1/2+z
-x,-x+y,1/2+z
loop_
_atom_site_type_symbol
_atom_site_label
_atom_site_fract_x
_atom_site_fract_y
_atom_site_fract_z
Si Si1 0.383000 0.260689 0.884287
Si Si2 0.390468 0.917361 0.318355
Si Si3 0.131958 0.000330 0.178559
Si Si4 0.260621 0.998950 0.182071
Si Si5 0.121295 0.380587 0.624880
Si Si6 0.219917 0.300637 0.503039
Si Si7 0.471850 0.393146 0.181536
O O1 0.394747 0.197374 0.872064
O O2 0.453604 0.330213 0.867280
O O3 0.328203 0.260328 0.839549
O O4 0.356093 0.258900 0.950993
O O5 0.364190 0.895954 0.250000
O O6 0.449478 0.898956 0.332555
O O7 0.419145 0.998102 0.325990
O O8 0.132814 0.002951 0.250000
O O9 0.069329 0.930672 0.153872
O O10 0.125200 0.062600 0.151911
O O11 0.200244 0.005995 0.149737
O O12 0.240112 0.984961 0.250000
O O13 0.330981 0.070002 0.175587
O O14 0.197626 0.395252 0.635330
O O15 0.090726 0.345005 0.561886
O O16 0.121035 0.451642 0.634963
O O17 0.238660 0.238660 0.500000
O O18 0.136754 0.273507 0.501049
O O19 0.470412 0.369693 0.250000
O O20 0.548228 0.451773 0.163971
#
# Coordination Sequence:
#
# PCOD8330765 Si02
#       7
#    24  24  24  24  24  24  24
#     4  11  21  33  52  76 104 136 174 220 267 316
#     4   9  17  31  51  75 105 136 163 197 246 307
#     4   9  17  28  40  56  83 120 159 198 248 313
#     4  11  20  30  46  70  99 128 162 213 271 321
#     4  11  21  33  52  76 104 136 174 220 267 316
#     4  10  20  36  55  74 101 141 183 229 281 326
#     4   9  17  31  51  75 105 136 163 197 246 307
#
# _framework density 17.152601000000001
#
# number of rings (size 3 to 8) (size 9 to 14) (size 15 to 20)
#    0.000    2.000    2.857    2.714    0.000    4.000 
#    0.000    0.714    0.000    3.286    0.000    0.000 
#    0.000    0.000    0.000    0.000    0.000    0.000 
#
# Total GULP energy -2082163.907444 kJ/mol
# GULP energy per Si atom -12393.832782 kJ/mol
# Density = 1.711356 g / cm^3
# Si number density = 17.152601 Si / 1000 Ang^3
#
#
#
# Elastic Constant Matrix: (Units=GPa)
#
#
# Indices 1 2 3 4 5 6 
#
# 1 109.7353 51.3023 33.1063 0.0000 0.0000 0.0000
# 2 51.3023 109.7353 33.1063 0.0000 0.0000 0.0000
# 3 33.1063 33.1063 50.2312 0.0000 0.0000 0.0000
# 4 0.0000 0.0000 0.0000 21.7770 0.0000 0.0000
# 5 0.0000 0.0000 0.0000 0.0000 21.7770 0.0000
# 6 0.0000 0.0000 0.0000 0.0000 0.0000 29.2165
#
#
#
# Elastic Compliance Matrix: (Units=1/GPa)
#
#
# Indices 1 2 3 4 5 6 
#
# 1 0.012816 -0.004298 -0.005614 0.000000 0.000000 0.000000
# 2 -0.004298 0.012816 -0.005614 0.000000 0.000000 0.000000
# 3 -0.005614 -0.005614 0.027308 0.000000 0.000000 0.000000
# 4 0.000000 0.000000 0.000000 0.045920 0.000000 0.000000
# 5 0.000000 0.000000 0.000000 0.000000 0.045920 0.000000
# 6 0.000000 0.000000 0.000000 0.000000 0.000000 0.034227
#
#
# Mechanical properties :
#
#
# Convention : Reuss Voigt Hill
#
# Bulk Modulus (GPa) = 45.68710 56.08127 50.88418
# Shear Modulus (GPa) = 23.00386 24.69989 23.85188
#
# Velocity S-wave (km/s) = 3.66612 3.79886 3.73308
# Velocity P-wave (km/s) = 6.67937 7.21168 6.95062
#
# Compressibility (1/GPa) = 0.02188802
#
# Stress axis : x y z
#
# Youngs Moduli (GPa) = 78.02864 78.02864 36.61912
#
# Poissons Ratio (x) = 0.33535 0.20558
# Poissons Ratio (y) = 0.33535 0.20558
# Poissons Ratio (z) = 0.43806 0.43806
#
# Static dielectric constant tensor:
#      x y z
#    x 3.277130 0.000000 0.000000 
#    y 0.000000 3.277130 0.000000 
#    z 0.000000 0.000000 3.102700 
# 
# 
# High freq. dielectric constant tensor:
#      x y z
#    x 1.653070 0.000000 0.000000 
#    y 0.000000 1.653070 0.000000 
#    z 0.000000 0.000000 1.645860 
# 
# From -- ./inp_files/9801.got.cif
#   From: 2010.03.12/outbox.cif.g09.slc.cpg/sg194_5_cif.got.tgz:9801.got - 2010.04.01 12:26:19.
