data_PCOD8330461
_publ_section_title
;
Structure prediction by ZEFSAII (Michael W. Deem and Ramdas Pophale) SiO2 
 PCOD8330461
Probable space group: P 63/M M C
;
_chemical_formula_sum "Si O2"
_cell_formula_units_Z 132
_cell_length_a 17.358298
_cell_length_b 17.358298
_cell_length_c 27.384006
_cell_angle_alpha 90.000000
_cell_angle_beta 90.000000
_cell_angle_gamma 120.000000
_cell_volume 7145.652509
_symmetry_space_group_name_H-M "P 63/M M C"
_symmetry_group_IT_number 194
_symmetry_cell_setting 'hexagonal'
loop_
_space_group_symop_operation_xyz
x,y,z
x-y,x,1/2+z
-y,x-y,z
-x,-y,1/2+z
-x+y,-x,z
y,-x+y,1/2+z
x-y,-y,-z
-x,-x+y,-z
y,x,-z
-y,-x,1/2-z
-x+y,y,1/2-z
x,x-y,1/2-z
-x,-y,-z
-x+y,-x,1/2-z
y,-x+y,-z
x,y,1/2-z
x-y,x,-z
-y,x-y,1/2-z
-x+y,y,z
x,x-y,z
-y,-x,z
y,x,1/2+z
x-y,-y,1/2+z
-x,-x+y,1/2+z
loop_
_atom_site_type_symbol
_atom_site_label
_atom_site_fract_x
_atom_site_fract_y
_atom_site_fract_z
Si Si1 0.160702 0.492268 0.750000
Si Si2 0.157026 0.667874 0.924670
Si Si3 0.635394 0.905193 0.194057
Si Si4 0.726351 0.628264 0.984648
Si Si5 0.638464 0.906056 0.838748
Si Si6 0.844002 0.511690 0.893226
O O1 0.266888 0.533775 0.750000
O O2 0.135372 0.567686 0.750000
O O3 0.119221 0.435286 0.702089
O O4 0.141217 0.570609 0.914079
O O5 0.260120 0.739881 0.914320
O O6 0.094094 0.687513 0.889958
O O7 0.130636 0.674210 0.979909
O O8 0.611589 0.914118 0.250000
O O9 0.668382 0.834191 0.189100
O O10 0.547397 0.875621 0.161659
O O11 0.716760 0.996745 0.173406
O O12 0.832859 0.665718 0.987673
O O13 0.688689 0.591599 0.930796
O O14 0.707053 0.707053 0.000000
O O15 0.676447 0.838223 0.839443
O O16 0.740118 0.480236 0.900201
O O17 0.858825 0.429413 0.903142
#
# Coordination Sequence:
#
# PCOD8330461 Si02
#       6
#    12  24  24  24  24  24
#     4  10  19  30  45  68 100 136 168 198 233 280
#     4  10  20  33  51  77 110 145 177 209 247 295
#     4  10  21  37  54  74  99 130 170 218 269 312
#     4  10  21  36  54  77 105 137 172 213 260 307
#     4  10  20  34  52  75 102 134 170 208 255 307
#     4  10  21  36  54  76 104 138 174 211 253 301
#
# _framework density 18.472770000000001
#
# number of rings (size 3 to 8) (size 9 to 14) (size 15 to 20)
#    0.000    2.000    0.909    2.636    0.000    4.727 
#    0.000    3.636    0.000    1.636    0.000    0.000 
#    0.000    8.727    0.000    0.000    0.000    0.727 
#
# Total GULP energy -1636908.266707 kJ/mol
# GULP energy per Si atom -12400.820202 kJ/mol
# Density = 1.843073 g / cm^3
# Si number density = 18.472770 Si / 1000 Ang^3
#
#
#
# Elastic Constant Matrix: (Units=GPa)
#
#
# Indices 1 2 3 4 5 6 
#
# 1 94.7788 66.6917 34.0669 0.0000 0.0000 0.0000
# 2 66.6917 94.7788 34.0669 0.0000 0.0000 0.0000
# 3 34.0669 34.0669 106.3764 0.0000 0.0000 0.0000
# 4 0.0000 0.0000 0.0000 18.1531 0.0000 0.0000
# 5 0.0000 0.0000 0.0000 0.0000 18.1531 0.0000
# 6 0.0000 0.0000 0.0000 0.0000 0.0000 14.0435
#
#
#
# Elastic Compliance Matrix: (Units=1/GPa)
#
#
# Indices 1 2 3 4 5 6 
#
# 1 0.021382 -0.014221 -0.002293 0.000000 0.000000 0.000000
# 2 -0.014221 0.021382 -0.002293 0.000000 0.000000 0.000000
# 3 -0.002293 -0.002293 0.010869 0.000000 0.000000 0.000000
# 4 0.000000 0.000000 0.000000 0.055087 0.000000 0.000000
# 5 0.000000 0.000000 0.000000 0.000000 0.055087 0.000000
# 6 0.000000 0.000000 0.000000 0.000000 0.000000 0.071207
#
#
# Mechanical properties :
#
#
# Convention : Reuss Voigt Hill
#
# Bulk Modulus (GPa) = 62.42985 62.84276 62.63630
# Shear Modulus (GPa) = 17.98758 20.81053 19.39905
#
# Velocity S-wave (km/s) = 3.12386 3.36006 3.24411
# Velocity P-wave (km/s) = 6.84692 7.01044 6.92916
#
# Compressibility (1/GPa) = 0.01601798
#
# Stress axis : x y z
#
# Youngs Moduli (GPa) = 46.76797 46.76797 92.00162
#
# Poissons Ratio (x) = 0.66511 0.21098
# Poissons Ratio (y) = 0.66511 0.21098
# Poissons Ratio (z) = 0.10725 0.10725
#
# Static dielectric constant tensor:
#      x y z
#    x 3.285220 0.000000 0.000000 
#    y 0.000000 3.285220 0.000000 
#    z 0.000000 0.000000 3.751430 
# 
# 
# High freq. dielectric constant tensor:
#      x y z
#    x 1.698280 0.000000 0.000000 
#    y 0.000000 1.698280 0.000000 
#    z 0.000000 0.000000 1.740420 
# 
# From -- ./inp_files/10815.got.cif
#   From: 2010.03.12/outbox.cif.g09.slc.cpg/sg194_6_cif.got.tgz:10815.got - 2010.04.01 12:26:19.
