data_PCOD8330967
_publ_section_title
;
Structure prediction by ZEFSAII (Michael W. Deem and Ramdas Pophale) SiO2 
 PCOD8330967
Probable space group: I A 3
;
_chemical_formula_sum "Si O2"
_cell_formula_units_Z 248
_cell_length_a 22.639110
_cell_length_b 22.639110
_cell_length_c 22.639110
_cell_angle_alpha 90.000000
_cell_angle_beta 90.000000
_cell_angle_gamma 90.000000
_cell_volume 11603.207237
_symmetry_space_group_name_H-M "I A 3"
_symmetry_group_IT_number 206
_symmetry_cell_setting 'cubic'
loop_
_space_group_symop_operation_xyz
x,y,z
z,x,y
y,z,x
-y,1/2-z,x
z,-x,1/2-y
1/2-y,z,-x
-z,1/2-x,y
1/2-z,x,-y
y,-z,1/2-x
-x,1/2-y,z
x,-y,1/2-z
1/2-x,y,-z
-x,-y,-z
-z,-x,-y
-y,-z,-x
y,1/2+z,-x
-z,x,1/2+y
1/2+y,-z,x
z,1/2+x,-y
1/2+z,-x,y
-y,z,1/2+x
x,1/2+y,-z
-x,y,1/2+z
1/2+x,-y,z
1/2+x,1/2+y,1/2+z
1/2+z,1/2+x,1/2+y
1/2+y,1/2+z,1/2+x
1/2-y,-z,1/2+x
1/2+z,1/2-x,-y
-y,1/2+z,1/2-x
1/2-z,-x,1/2+y
-z,1/2+x,1/2-y
1/2+y,1/2-z,-x
1/2-x,-y,1/2+z
1/2+x,1/2-y,-z
-x,1/2+y,1/2-z
1/2-x,1/2-y,1/2-z
1/2-z,1/2-x,1/2-y
1/2-y,1/2-z,1/2-x
1/2+y,z,1/2-x
1/2-z,1/2+x,y
y,1/2-z,1/2+x
1/2+z,x,1/2-y
z,1/2-x,1/2+y
1/2-y,1/2+z,x
1/2+x,y,1/2-z
1/2-x,1/2+y,z
x,1/2-y,1/2+z
loop_
_atom_site_type_symbol
_atom_site_label
_atom_site_fract_x
_atom_site_fract_y
_atom_site_fract_z
Si Si1 0.534502 0.861909 0.607516
Si Si2 0.237391 0.234842 0.590643
Si Si3 0.289396 0.210606 0.789396
Si Si4 0.000000 0.250000 0.668506
Si Si5 0.859141 0.913857 0.339279
Si Si6 0.541435 0.958567 0.041435
Si Si7 0.648725 0.453614 0.148454
O O1 0.492047 0.808368 0.627768
O O2 0.577087 0.880951 0.662984
O O3 0.497813 0.917590 0.583877
O O4 0.578277 0.839376 0.554950
O O5 0.204083 0.256592 0.648711
O O6 0.262796 0.291908 0.557526
O O7 0.287379 0.185669 0.605025
O O8 0.185822 0.208919 0.549555
O O9 0.250000 0.250000 0.750000
O O10 0.828390 0.896234 0.402252
O O11 0.876929 0.982307 0.338422
O O12 0.500000 0.000000 0.000000
#
# Coordination Sequence:
#
# PCOD8330967 Si02
#       7
#    48  48  16  24  48  16  48
#     4  10  27  41  74 103 146 183 250 295 366 436
#     4  12  24  45  67 100 143 189 237 296 368 439
#     4  12  27  40  74  94 126 180 235 284 352 450
#     4  12  26  48  64 104 154 192 232 300 356 454
#     4  10  23  41  70 106 132 186 238 303 357 427
#     4  12  24  52  83 109 144 208 251 310 372 453
#     4  10  22  41  70 101 139 178 241 301 353 428
#
# _framework density 21.373401999999999
#
# number of rings (size 3 to 8) (size 9 to 14) (size 15 to 20)
#    1.161    0.000    1.935    3.484    8.129    3.097 
#    0.000    0.000    0.000    0.000    0.000    0.000 
#    0.000    0.000    0.000    0.000    0.000    0.000 
#
# Total GULP energy -1536515.786213 kJ/mol
# GULP energy per Si atom -12391.256340 kJ/mol
# Density = 2.132476 g / cm^3
# Si number density = 21.373402 Si / 1000 Ang^3
#
#
#
# Elastic Constant Matrix: (Units=GPa)
#
#
# Indices 1 2 3 4 5 6 
#
# 1 96.9456 36.8613 36.8601 0.0000 0.0000 0.0000
# 2 36.8613 96.9434 36.8613 0.0000 0.0000 0.0000
# 3 36.8601 36.8613 96.9445 0.0000 0.0000 0.0000
# 4 0.0000 0.0000 0.0000 31.1579 0.0000 0.0000
# 5 0.0000 0.0000 0.0000 0.0000 31.1577 0.0000
# 6 0.0000 0.0000 0.0000 0.0000 0.0000 31.1567
#
#
#
# Elastic Compliance Matrix: (Units=1/GPa)
#
#
# Indices 1 2 3 4 5 6 
#
# 1 0.013049 -0.003595 -0.003594 0.000000 0.000000 0.000000
# 2 -0.003595 0.013049 -0.003595 0.000000 0.000000 0.000000
# 3 -0.003594 -0.003595 0.013049 0.000000 0.000000 0.000000
# 4 0.000000 0.000000 0.000000 0.032095 0.000000 0.000000
# 5 0.000000 0.000000 0.000000 0.000000 0.032095 0.000000
# 6 0.000000 0.000000 0.000000 0.000000 0.000000 0.032096
#
#
# Mechanical properties :
#
#
# Convention : Reuss Voigt Hill
#
# Bulk Modulus (GPa) = 56.88878 56.88878 56.88878
# Shear Modulus (GPa) = 30.70138 30.71117 30.70628
#
# Velocity S-wave (km/s) = 3.79414 3.79474 3.79444
# Velocity P-wave (km/s) = 6.77262 6.77307 6.77285
#
# Compressibility (1/GPa) = 0.01757816
#
# Stress axis : x y z
#
# Youngs Moduli (GPa) = 76.63679 76.63393 76.63577
#
# Poissons Ratio (x) = 0.27548 0.27546
# Poissons Ratio (y) = 0.27549 0.27549
# Poissons Ratio (z) = 0.27547 0.27549
#
# Static dielectric constant tensor:
#      x y z
#    x 3.711110 0.000000 0.000000 
#    y 0.000000 3.711150 0.000000 
#    z 0.000000 0.000000 3.711110 
# 
# 
# High freq. dielectric constant tensor:
#      x y z
#    x 1.834950 0.000000 0.000000 
#    y 0.000000 1.834950 0.000000 
#    z 0.000000 0.000000 1.834950 
# 
# From -- ./inp_files/580.got.cif
#   From: 2010.03.12/outbox.cif.g09.slc.cpg/sg206_cif.got.tgz:580.got - 2010.03.30 09:03:11.
