data_PCOD8330723
_publ_section_title
;
Structure prediction by ZEFSAII (Michael W. Deem and Ramdas Pophale) SiO2 
 PCOD8330723
Probable space group: P 63/M M C
;
_chemical_formula_sum "Si O2"
_cell_formula_units_Z 168
_cell_length_a 17.957717
_cell_length_b 17.957717
_cell_length_c 30.738714
_cell_angle_alpha 90.000000
_cell_angle_beta 90.000000
_cell_angle_gamma 120.000000
_cell_volume 8584.570511
_symmetry_space_group_name_H-M "P 63/M M C"
_symmetry_group_IT_number 194
_symmetry_cell_setting 'hexagonal'
loop_
_space_group_symop_operation_xyz
x,y,z
x-y,x,1/2+z
-y,x-y,z
-x,-y,1/2+z
-x+y,-x,z
y,-x+y,1/2+z
x-y,-y,-z
-x,-x+y,-z
y,x,-z
-y,-x,1/2-z
-x+y,y,1/2-z
x,x-y,1/2-z
-x,-y,-z
-x+y,-x,1/2-z
y,-x+y,-z
x,y,1/2-z
x-y,x,-z
-y,x-y,1/2-z
-x+y,y,z
x,x-y,z
-y,-x,z
y,x,1/2+z
x-y,-y,1/2+z
-x,-x+y,1/2+z
loop_
_atom_site_type_symbol
_atom_site_label
_atom_site_fract_x
_atom_site_fract_y
_atom_site_fract_z
Si Si1 0.828952 0.331337 0.489323
Si Si2 0.165508 0.498586 0.891863
Si Si3 0.000096 0.829899 0.067691
Si Si4 0.050551 0.357825 0.458922
Si Si5 0.354157 0.091335 0.700261
Si Si6 0.595398 0.018948 0.630776
Si Si7 0.999155 0.169024 0.169159
O O1 0.855360 0.427680 0.504092
O O2 0.725605 0.274395 0.484703
O O3 0.866945 0.331451 0.441093
O O4 0.854070 0.281272 0.525097
O O5 0.239583 0.479165 0.876146
O O6 0.201379 0.600690 0.890115
O O7 0.083414 0.448149 0.860293
O O8 0.071067 0.928934 0.058808
O O9 0.028678 0.769490 0.042807
O O10 0.907417 0.814833 0.051093
O O11 0.994703 0.808104 0.118391
O O12 0.039104 0.389495 0.412754
O O13 0.000000 0.369664 0.500000
O O14 0.381739 0.093287 0.750000
O O15 0.366075 0.183038 0.685712
O O16 0.415524 0.071327 0.670898
O O17 0.254571 0.018497 0.694741
O O18 0.523135 0.046269 0.625809
O O19 0.909030 0.090971 0.185927
O O20 0.072044 0.144088 0.178462
#
# Coordination Sequence:
#
# PCOD8330723 Si02
#       7
#    24  24  24  24  24  24  24
#     4  10  20  34  54  79 111 150 194 243 296 354
#     4   9  18  33  55  83 116 153 192 234 282 339
#     4  10  21  37  57  82 116 161 210 253 288 332
#     4  12  23  36  55  82 118 157 199 248 300 352
#     4  10  22  41  63  88 120 155 193 245 305 359
#     4  11  23  39  61  87 115 153 195 240 294 356
#     4   9  17  32  56  86 120 157 199 244 292 346
#
# _framework density 19.569994999999999
#
# number of rings (size 3 to 8) (size 9 to 14) (size 15 to 20)
#    0.000    1.857    2.857    1.429    0.000    6.286 
#    0.000    0.000    0.000    2.000    0.000    0.000 
#    0.000    1.143    0.000    0.000    0.000    0.000 
#
# Total GULP energy -2082185.760466 kJ/mol
# GULP energy per Si atom -12393.962860 kJ/mol
# Density = 1.952545 g / cm^3
# Si number density = 19.569995 Si / 1000 Ang^3
#
#
#
# Elastic Constant Matrix: (Units=GPa)
#
#
# Indices 1 2 3 4 5 6 
#
# 1 98.3164 44.6547 35.7914 0.0000 0.0000 0.0000
# 2 44.6547 98.3164 35.7914 0.0000 0.0000 0.0000
# 3 35.7914 35.7914 71.4967 0.0000 0.0000 0.0000
# 4 0.0000 0.0000 0.0000 23.7608 0.0000 0.0000
# 5 0.0000 0.0000 0.0000 0.0000 23.7608 0.0000
# 6 0.0000 0.0000 0.0000 0.0000 0.0000 26.8309
#
#
#
# Elastic Compliance Matrix: (Units=1/GPa)
#
#
# Indices 1 2 3 4 5 6 
#
# 1 0.013985 -0.004651 -0.004673 0.000000 0.000000 0.000000
# 2 -0.004651 0.013985 -0.004673 0.000000 0.000000 0.000000
# 3 -0.004673 -0.004673 0.018665 0.000000 0.000000 0.000000
# 4 0.000000 0.000000 0.000000 0.042086 0.000000 0.000000
# 5 0.000000 0.000000 0.000000 0.000000 0.042086 0.000000
# 6 0.000000 0.000000 0.000000 0.000000 0.000000 0.037271
#
#
# Mechanical properties :
#
#
# Convention : Reuss Voigt Hill
#
# Bulk Modulus (GPa) = 53.64127 55.62273 54.63200
# Shear Modulus (GPa) = 24.71789 24.99661 24.85725
#
# Velocity S-wave (km/s) = 3.55780 3.57780 3.56781
# Velocity P-wave (km/s) = 6.65933 6.74920 6.70442
#
# Compressibility (1/GPa) = 0.01864236
#
# Stress axis : x y z
#
# Youngs Moduli (GPa) = 71.50739 71.50739 53.57667
#
# Poissons Ratio (x) = 0.33256 0.25034
# Poissons Ratio (y) = 0.33256 0.25034
# Poissons Ratio (z) = 0.33412 0.33412
#
# Static dielectric constant tensor:
#      x y z
#    x 3.516040 0.000000 0.000000 
#    y 0.000000 3.516040 0.000000 
#    z 0.000000 0.000000 3.347220 
# 
# 
# High freq. dielectric constant tensor:
#      x y z
#    x 1.761140 0.000000 0.000000 
#    y 0.000000 1.761140 0.000000 
#    z 0.000000 0.000000 1.733470 
# 
# From -- ./inp_files/12282.got.cif
#   From: 2010.03.12/outbox.cif.g09.slc.cpg/sg194_7_cif.got.tgz:12282.got - 2010.04.01 12:26:19.
