data_PCOD8330665
_publ_section_title
;
Structure prediction by ZEFSAII (Michael W. Deem and Ramdas Pophale) SiO2 
 PCOD8330665
Probable space group: P 63/M M C
;
_chemical_formula_sum "Si O2"
_cell_formula_units_Z 132
_cell_length_a 17.042196
_cell_length_b 17.042196
_cell_length_c 28.028676
_cell_angle_alpha 90.000000
_cell_angle_beta 90.000000
_cell_angle_gamma 120.000000
_cell_volume 7049.922236
_symmetry_space_group_name_H-M "P 63/M M C"
_symmetry_group_IT_number 194
_symmetry_cell_setting 'hexagonal'
loop_
_space_group_symop_operation_xyz
x,y,z
x-y,x,1/2+z
-y,x-y,z
-x,-y,1/2+z
-x+y,-x,z
y,-x+y,1/2+z
x-y,-y,-z
-x,-x+y,-z
y,x,-z
-y,-x,1/2-z
-x+y,y,1/2-z
x,x-y,1/2-z
-x,-y,-z
-x+y,-x,1/2-z
y,-x+y,-z
x,y,1/2-z
x-y,x,-z
-y,x-y,1/2-z
-x+y,y,z
x,x-y,z
-y,-x,z
y,x,1/2+z
x-y,-y,1/2+z
-x,-x+y,1/2+z
loop_
_atom_site_type_symbol
_atom_site_label
_atom_site_fract_x
_atom_site_fract_y
_atom_site_fract_z
Si Si1 0.487782 0.154455 0.695549
Si Si2 0.847107 0.333026 0.961518
Si Si3 0.000000 0.822994 0.500000
Si Si4 0.513547 0.847071 0.570244
Si Si5 0.184514 0.001389 0.103613
Si Si6 0.634802 0.659125 0.382021
O O1 0.455576 0.127955 0.750000
O O2 0.593376 0.186752 0.690299
O O3 0.474127 0.237064 0.678224
O O4 0.429997 0.066622 0.663234
O O5 0.859690 0.429845 0.947052
O O6 0.742190 0.257810 0.955406
O O7 0.908150 0.310659 0.927181
O O8 0.878248 0.332498 0.015809
O O9 0.981878 0.769417 0.450130
O O10 0.919189 0.838377 0.514564
O O11 0.407961 0.815922 0.574889
O O12 0.526703 0.763352 0.584879
O O13 0.570941 0.929439 0.605855
O O14 0.085734 0.914267 0.109732
O O15 0.257626 0.990160 0.134380
O O16 0.178180 0.089090 0.119282
#
# Coordination Sequence:
#
# PCOD8330665 Si02
#       6
#    24  24  12  24  24  24
#     4  10  21  38  60  84 110 140 173 212 263 325
#     4  10  20  33  50  73 105 143 179 214 256 313
#     4   8  15  26  42  62  89 128 174 216 250 288
#     4  10  21  36  53  73 103 144 185 218 254 307
#     4  10  20  33  49  70 101 141 183 221 261 310
#     4  12  22  33  51  82 109 133 171 224 278 318
#
# _framework density 18.723610000000001
#
# number of rings (size 3 to 8) (size 9 to 14) (size 15 to 20)
#    0.000    1.818    0.000    5.182    2.545    5.091 
#    0.000    1.818    0.000    2.182    0.000    0.000 
#    0.000    2.909    0.000    0.000    0.000    0.000 
#
# Total GULP energy -1636369.044787 kJ/mol
# GULP energy per Si atom -12396.735188 kJ/mol
# Density = 1.868099 g / cm^3
# Si number density = 18.723610 Si / 1000 Ang^3
#
#
#
# Elastic Constant Matrix: (Units=GPa)
#
#
# Indices 1 2 3 4 5 6 
#
# 1 101.6072 31.9705 39.2201 0.0000 0.0000 0.0000
# 2 31.9705 101.6072 39.2201 0.0000 0.0000 0.0000
# 3 39.2201 39.2201 68.4690 0.0000 0.0000 0.0000
# 4 0.0000 0.0000 0.0000 22.5805 0.0000 0.0000
# 5 0.0000 0.0000 0.0000 0.0000 22.5805 0.0000
# 6 0.0000 0.0000 0.0000 0.0000 0.0000 34.8183
#
#
#
# Elastic Compliance Matrix: (Units=1/GPa)
#
#
# Indices 1 2 3 4 5 6 
#
# 1 0.012821 -0.001540 -0.006462 0.000000 0.000000 0.000000
# 2 -0.001540 0.012821 -0.006462 0.000000 0.000000 0.000000
# 3 -0.006462 -0.006462 0.022008 0.000000 0.000000 0.000000
# 4 0.000000 0.000000 0.000000 0.044286 0.000000 0.000000
# 5 0.000000 0.000000 0.000000 0.000000 0.044286 0.000000
# 6 0.000000 0.000000 0.000000 0.000000 0.000000 0.028720
#
#
# Mechanical properties :
#
#
# Convention : Reuss Voigt Hill
#
# Bulk Modulus (GPa) = 53.41207 54.72274 54.06740
# Shear Modulus (GPa) = 24.98638 26.74739 25.86689
#
# Velocity S-wave (km/s) = 3.65702 3.78370 3.72090
# Velocity P-wave (km/s) = 6.81324 6.95547 6.88472
#
# Compressibility (1/GPa) = 0.01872236
#
# Stress axis : x y z
#
# Youngs Moduli (GPa) = 77.99984 77.99984 45.43797
#
# Poissons Ratio (x) = 0.12010 0.29361
# Poissons Ratio (y) = 0.12010 0.29361
# Poissons Ratio (z) = 0.50402 0.50402
#
# Static dielectric constant tensor:
#      x y z
#    x 3.404370 0.000000 0.000000 
#    y 0.000000 3.404370 0.000000 
#    z 0.000000 0.000000 3.112480 
# 
# 
# High freq. dielectric constant tensor:
#      x y z
#    x 1.734380 0.000000 0.000000 
#    y 0.000000 1.734380 0.000000 
#    z 0.000000 0.000000 1.679500 
# 
# From -- ./inp_files/10779.got.cif
#   From: 2010.03.12/outbox.cif.g09.slc.cpg/sg194_6_cif.got.tgz:10779.got - 2010.04.01 12:26:19.
