data_PCOD8330031
_publ_section_title
;
Structure prediction by ZEFSAII (Michael W. Deem and Ramdas Pophale) SiO2 
 PCOD8330031
Probable space group: P 63/M C M
;
_chemical_formula_sum "Si O2"
_cell_formula_units_Z 92
_cell_length_a 13.415453
_cell_length_b 13.415453
_cell_length_c 31.980242
_cell_angle_alpha 90.000000
_cell_angle_beta 90.000000
_cell_angle_gamma 120.000000
_cell_volume 4984.516772
_symmetry_space_group_name_H-M "P 63/M C M"
_symmetry_group_IT_number 193
_symmetry_cell_setting 'hexagonal'
loop_
_space_group_symop_operation_xyz
x,y,z
x-y,x,1/2+z
-y,x-y,z
-x,-y,1/2+z
-x+y,-x,z
y,-x+y,1/2+z
x-y,-y,1/2-z
-x,-x+y,1/2-z
y,x,1/2-z
-y,-x,-z
-x+y,y,-z
x,x-y,-z
-x,-y,-z
-x+y,-x,1/2-z
y,-x+y,-z
x,y,1/2-z
x-y,x,-z
-y,x-y,1/2-z
-x+y,y,1/2+z
x,x-y,1/2+z
-y,-x,1/2+z
y,x,z
x-y,-y,z
-x,-x+y,z
loop_
_atom_site_type_symbol
_atom_site_label
_atom_site_fract_x
_atom_site_fract_y
_atom_site_fract_z
Si Si1 0.727344 0.863672 0.500000
Si Si2 0.333334 0.666667 0.048568
Si Si3 0.129634 0.700070 0.569757
Si Si4 0.129139 0.690254 0.665578
Si Si5 0.483848 0.353421 0.202878
O O1 0.807741 0.807741 0.506608
O O2 0.646282 0.834577 0.540870
O O3 0.435046 0.646115 0.063711
O O4 0.333334 0.666667 0.000000
O O5 0.138010 0.733629 0.618223
O O6 0.000000 0.601209 0.558378
O O7 0.159395 0.587745 0.670595
O O8 0.218604 0.796962 0.692868
O O9 0.000000 0.643993 0.683002
O O10 0.534250 0.377494 0.250000
O O11 0.383959 0.383959 0.198051
#
# Coordination Sequence:
#
# PCOD8330031 Si02
#       5
#    12   8  24  24  24
#     4  10  21  38  58  80 107 142 186 232 276 320
#     4  12  21  33  54  78 103 146 175 216 270 312
#     4  10  22  37  53  79 110 140 181 225 266 320
#     4  10  20  35  55  78 108 142 176 220 269 316
#     4  10  20  33  52  79 107 136 172 214 262 319
#
# _framework density 18.457155
#
# number of rings (size 3 to 8) (size 9 to 14) (size 15 to 20)
#    0.000    1.826    1.304    3.000    0.000    4.174 
#    0.000    0.000    0.000    0.522    0.000    0.000 
#    0.000    0.000    0.000    0.000    0.000    0.000 
#
# Total GULP energy -1140768.793294 kJ/mol
# GULP energy per Si atom -12399.660797 kJ/mol
# Density = 1.841515 g / cm^3
# Si number density = 18.457155 Si / 1000 Ang^3
#
#
#
# Elastic Constant Matrix: (Units=GPa)
#
#
# Indices 1 2 3 4 5 6 
#
# 1 114.6843 58.8441 46.1626 0.0000 0.0000 0.0000
# 2 58.8441 114.6841 46.1626 0.0000 0.0000 -0.0001
# 3 46.1626 46.1626 97.3991 0.0000 0.0000 0.0000
# 4 0.0000 0.0000 0.0000 31.0242 0.0000 0.0000
# 5 0.0000 0.0000 0.0000 0.0000 31.0242 0.0000
# 6 0.0000 -0.0001 0.0000 0.0000 0.0000 27.9201
#
#
#
# Elastic Compliance Matrix: (Units=1/GPa)
#
#
# Indices 1 2 3 4 5 6 
#
# 1 0.012807 -0.005101 -0.003652 0.000000 0.000000 0.000000
# 2 -0.005101 0.012807 -0.003652 0.000000 0.000000 0.000000
# 3 -0.003652 -0.003652 0.013729 0.000000 0.000000 0.000000
# 4 0.000000 0.000000 0.000000 0.032233 0.000000 0.000000
# 5 0.000000 0.000000 0.000000 0.000000 0.032233 0.000000
# 6 0.000000 0.000000 0.000000 0.000000 0.000000 0.035816
#
#
# Mechanical properties :
#
#
# Convention : Reuss Voigt Hill
#
# Bulk Modulus (GPa) = 68.81421 69.90067 69.35744
# Shear Modulus (GPa) = 29.53673 29.70025 29.61849
#
# Velocity S-wave (km/s) = 4.00470 4.01577 4.01024
# Velocity P-wave (km/s) = 7.66470 7.71077 7.68777
#
# Compressibility (1/GPa) = 0.01453188
#
# Stress axis : x y z
#
# Youngs Moduli (GPa) = 78.08178 78.08169 72.83845
#
# Poissons Ratio (x) = 0.39831 0.26602
# Poissons Ratio (y) = 0.39831 0.26602
# Poissons Ratio (z) = 0.28517 0.28517
#
# Static dielectric constant tensor:
#      x y z
#    x 3.333160 0.000000 0.000000 
#    y 0.000000 3.333160 0.000000 
#    z 0.000000 0.000000 3.515140 
# 
# 
# High freq. dielectric constant tensor:
#      x y z
#    x 1.710710 0.000000 0.000000 
#    y 0.000000 1.710710 0.000000 
#    z 0.000000 0.000000 1.725240 
# 
# From -- ./inp_files/8802.got.cif
#   From: 2010.03.12/outbox.cif.g09.slc.cpg/sg193_5_cif.got.tgz:8802.got - 2010.04.01 12:20:39.
