data_PCOD8330301
_publ_section_title
;
Structure prediction by ZEFSAII (Michael W. Deem and Ramdas Pophale) SiO2 
 PCOD8330301
Probable space group: P 63/M M C
;
_chemical_formula_sum "Si O2"
_cell_formula_units_Z 168
_cell_length_a 25.108466
_cell_length_b 25.108466
_cell_length_c 20.277651
_cell_angle_alpha 90.000000
_cell_angle_beta 90.000000
_cell_angle_gamma 120.000000
_cell_volume 11071.045521
_symmetry_space_group_name_H-M "P 63/M M C"
_symmetry_group_IT_number 194
_symmetry_cell_setting 'hexagonal'
loop_
_space_group_symop_operation_xyz
x,y,z
x-y,x,1/2+z
-y,x-y,z
-x,-y,1/2+z
-x+y,-x,z
y,-x+y,1/2+z
x-y,-y,-z
-x,-x+y,-z
y,x,-z
-y,-x,1/2-z
-x+y,y,1/2-z
x,x-y,1/2-z
-x,-y,-z
-x+y,-x,1/2-z
y,-x+y,-z
x,y,1/2-z
x-y,x,-z
-y,x-y,1/2-z
-x+y,y,z
x,x-y,z
-y,-x,z
y,x,1/2+z
x-y,-y,1/2+z
-x,-x+y,1/2+z
loop_
_atom_site_type_symbol
_atom_site_label
_atom_site_fract_x
_atom_site_fract_y
_atom_site_fract_z
Si Si1 0.162862 0.325723 0.673656
Si Si2 0.022386 0.742087 0.430538
Si Si3 0.601409 0.085736 0.556221
Si Si4 0.905007 0.810014 0.326552
Si Si5 0.904822 0.617671 0.397053
Si Si6 0.465561 0.418152 0.405011
Si Si7 0.405316 0.263390 0.960582
Si Si8 0.841722 0.035399 0.672621
O O1 0.158002 0.316004 0.750000
O O2 0.128981 0.257961 0.638520
O O3 0.234493 0.362778 0.656528
O O4 0.089015 0.749185 0.435008
O O5 0.027614 0.785707 0.370935
O O6 0.000000 0.757907 0.500000
O O7 0.972687 0.672191 0.414713
O O8 0.558130 0.116260 0.568170
O O9 0.595080 0.063144 0.481671
O O10 0.673233 0.133705 0.570612
O O11 0.577509 0.026156 0.603354
O O12 0.897828 0.795656 0.250000
O O13 0.872817 0.849685 0.344766
O O14 0.915719 0.563386 0.367858
O O15 0.860712 0.594153 0.460399
O O16 0.534061 0.465940 0.377741
O O17 0.415799 0.207900 0.937772
O O18 0.826530 0.036849 0.750000
O O19 0.904088 0.095913 0.651881
#
# Coordination Sequence:
#
# PCOD8330301 Si02
#       8
#    12  24  24  12  24  24  24  24
#     4  11  20  30  46  62  84 117 151 185 221 272
#     4  10  19  29  45  68  94 117 145 183 229 278
#     4   8  13  22  37  58  82 112 143 170 205 257
#     4   9  18  32  48  64  79 105 147 189 228 264
#     4  10  17  28  42  63  88 115 144 179 224 268
#     4   8  13  23  40  59  82 108 137 173 214 257
#     4  10  17  25  39  64  94 119 140 179 226 266
#     4  10  20  35  50  63  84 115 151 188 227 277
#
# _framework density 15.174718
#
# number of rings (size 3 to 8) (size 9 to 14) (size 15 to 20)
#    0.000    2.571    3.571    1.286    0.000    0.000 
#    1.714    0.000    0.000    0.714    0.000    0.500 
#    0.714    0.571    0.000    0.000    0.000    0.000 
#
# Total GULP energy -2081534.868737 kJ/mol
# GULP energy per Si atom -12390.088504 kJ/mol
# Density = 1.514018 g / cm^3
# Si number density = 15.174718 Si / 1000 Ang^3
#
#
#
# Elastic Constant Matrix: (Units=GPa)
#
#
# Indices 1 2 3 4 5 6 
#
# 1 87.9419 45.7681 12.9608 0.0000 0.0000 0.0000
# 2 45.7681 87.9419 12.9608 0.0000 0.0000 0.0000
# 3 12.9608 12.9608 26.2788 0.0000 0.0000 0.0000
# 4 0.0000 0.0000 0.0000 12.4640 0.0000 0.0000
# 5 0.0000 0.0000 0.0000 0.0000 12.4640 0.0000
# 6 0.0000 0.0000 0.0000 0.0000 0.0000 21.0869
#
#
#
# Elastic Compliance Matrix: (Units=1/GPa)
#
#
# Indices 1 2 3 4 5 6 
#
# 1 0.015990 -0.007721 -0.004079 0.000000 0.000000 0.000000
# 2 -0.007721 0.015990 -0.004079 0.000000 0.000000 0.000000
# 3 -0.004079 -0.004079 0.042077 0.000000 0.000000 0.000000
# 4 0.000000 0.000000 0.000000 0.080231 0.000000 0.000000
# 5 0.000000 0.000000 0.000000 0.000000 0.080231 0.000000
# 6 0.000000 0.000000 0.000000 0.000000 0.000000 0.047423
#
#
# Mechanical properties :
#
#
# Convention : Reuss Voigt Hill
#
# Bulk Modulus (GPa) = 23.63986 38.39357 31.01671
# Shear Modulus (GPa) = 15.25321 17.90115 16.57718
#
# Velocity S-wave (km/s) = 3.17389 3.43836 3.30876
# Velocity P-wave (km/s) = 5.38922 6.41241 5.92295
#
# Compressibility (1/GPa) = 0.04230144
#
# Stress axis : x y z
#
# Youngs Moduli (GPa) = 62.53717 62.53717 23.76615
#
# Poissons Ratio (x) = 0.48284 0.09693
# Poissons Ratio (y) = 0.48284 0.09693
# Poissons Ratio (z) = 0.25506 0.25506
#
# Static dielectric constant tensor:
#      x y z
#    x 3.047550 0.000000 0.000000 
#    y 0.000000 3.047550 0.000000 
#    z 0.000000 0.000000 2.544170 
# 
# 
# High freq. dielectric constant tensor:
#      x y z
#    x 1.577160 0.000000 0.000000 
#    y 0.000000 1.577160 0.000000 
#    z 0.000000 0.000000 1.533590 
# 
# From -- ./inp_files/10095.got.cif
#   From: 2010.03.12/outbox.cif.g09.slc.cpg/sg194_6_cif.got.tgz:10095.got - 2010.04.01 12:26:19.
