data_PCOD8330958
_publ_section_title
;
Structure prediction by ZEFSAII (Michael W. Deem and Ramdas Pophale) SiO2 
 PCOD8330958
Probable space group: P A 3
;
_chemical_formula_sum "Si O2"
_cell_formula_units_Z 120
_cell_length_a 18.052842
_cell_length_b 18.052842
_cell_length_c 18.052842
_cell_angle_alpha 90.000000
_cell_angle_beta 90.000000
_cell_angle_gamma 90.000000
_cell_volume 5883.513355
_symmetry_space_group_name_H-M "P A 3"
_symmetry_group_IT_number 205
_symmetry_cell_setting 'cubic'
loop_
_space_group_symop_operation_xyz
x,y,z
z,x,y
y,z,x
1/2-y,-z,1/2+x
1/2+z,1/2-x,-y
-y,1/2+z,1/2-x
1/2-z,-x,1/2+y
-z,1/2+x,1/2-y
1/2+y,1/2-z,-x
1/2-x,-y,1/2+z
1/2+x,1/2-y,-z
-x,1/2+y,1/2-z
-x,-y,-z
-z,-x,-y
-y,-z,-x
1/2+y,z,1/2-x
1/2-z,1/2+x,y
y,1/2-z,1/2+x
1/2+z,x,1/2-y
z,1/2-x,1/2+y
1/2-y,1/2+z,x
1/2+x,y,1/2-z
1/2-x,1/2+y,z
x,1/2-y,1/2+z
loop_
_atom_site_type_symbol
_atom_site_label
_atom_site_fract_x
_atom_site_fract_y
_atom_site_fract_z
Si Si1 0.594718 0.876426 0.516166
Si Si2 0.650550 0.666936 0.453773
Si Si3 0.484352 0.272298 0.468798
Si Si4 0.877803 0.807852 0.568587
Si Si5 0.463031 0.738013 0.808596
O O1 0.581289 0.914428 0.436006
O O2 0.530334 0.815373 0.526021
O O3 0.679180 0.846993 0.518485
O O4 0.593684 0.687430 0.518585
O O5 0.710901 0.612148 0.486533
O O6 0.601319 0.632180 0.389241
O O7 0.699240 0.736806 0.427198
O O8 0.543981 0.302384 0.527080
O O9 0.809803 0.787377 0.513907
O O10 0.891004 0.755531 0.640436
#
# Coordination Sequence:
#
# PCOD8330958 Si02
#       5
#    24  24  24  24  24
#     4  11  23  42  66  96 131 179 225 277 337 404
#     4  11  23  40  65  99 133 171 224 280 339 398
#     4  11  22  40  68  98 134 172 224 280 335 401
#     4  12  21  45  68  94 133 181 223 278 337 403
#     4  11  24  41  66  95 136 178 221 277 343 403
#
# _framework density 20.395976000000001
#
# number of rings (size 3 to 8) (size 9 to 14) (size 15 to 20)
#    0.000    0.800    6.000    1.800    2.800    0.000 
#    1.200    2.000    0.000    0.000    0.000    0.000 
#    0.000    0.000    0.000    0.000    0.000    0.000 
#
# Total GULP energy -1487489.788222 kJ/mol
# GULP energy per Si atom -12395.748235 kJ/mol
# Density = 2.034955 g / cm^3
# Si number density = 20.395976 Si / 1000 Ang^3
#
#
#
# Elastic Constant Matrix: (Units=GPa)
#
#
# Indices 1 2 3 4 5 6 
#
# 1 97.3118 38.0304 38.0304 0.0000 0.0000 0.0000
# 2 38.0304 97.3118 38.0304 0.0000 0.0000 0.0000
# 3 38.0304 38.0304 97.3118 0.0000 0.0000 0.0000
# 4 0.0000 0.0000 0.0000 31.6279 0.0000 0.0000
# 5 0.0000 0.0000 0.0000 0.0000 31.6279 0.0000
# 6 0.0000 0.0000 0.0000 0.0000 0.0000 31.6279
#
#
#
# Elastic Compliance Matrix: (Units=1/GPa)
#
#
# Indices 1 2 3 4 5 6 
#
# 1 0.013168 -0.003700 -0.003700 0.000000 0.000000 0.000000
# 2 -0.003700 0.013168 -0.003700 0.000000 0.000000 0.000000
# 3 -0.003700 -0.003700 0.013168 0.000000 0.000000 0.000000
# 4 0.000000 0.000000 0.000000 0.031618 0.000000 0.000000
# 5 0.000000 0.000000 0.000000 0.000000 0.031618 0.000000
# 6 0.000000 0.000000 0.000000 0.000000 0.000000 0.031618
#
#
# Mechanical properties :
#
#
# Convention : Reuss Voigt Hill
#
# Bulk Modulus (GPa) = 57.79086 57.79086 57.79086
# Shear Modulus (GPa) = 30.80187 30.83301 30.81744
#
# Velocity S-wave (km/s) = 3.89034 3.89230 3.89132
# Velocity P-wave (km/s) = 6.96962 6.97108 6.97035
#
# Compressibility (1/GPa) = 0.01730377
#
# Stress axis : x y z
#
# Youngs Moduli (GPa) = 75.93911 75.93911 75.93911
#
# Poissons Ratio (x) = 0.28099 0.28099
# Poissons Ratio (y) = 0.28099 0.28099
# Poissons Ratio (z) = 0.28099 0.28099
#
# Static dielectric constant tensor:
#      x y z
#    x 3.791630 0.000000 0.000000 
#    y 0.000000 3.791630 0.000000 
#    z 0.000000 0.000000 3.791630 
# 
# 
# High freq. dielectric constant tensor:
#      x y z
#    x 1.797810 0.000000 0.000000 
#    y 0.000000 1.797810 0.000000 
#    z 0.000000 0.000000 1.797810 
# 
# From -- ./inp_files/471.got.cif
#   From: 2010.03.12/outbox.cif.g09.slc.cpg/sg205_cif.got.tgz:471.got - 2010.03.30 09:02:58.
