data_PCOD8330968
_publ_section_title
;
Structure prediction by ZEFSAII (Michael W. Deem and Ramdas Pophale) SiO2 
 PCOD8330968
Probable space group: I A 3
;
_chemical_formula_sum "Si O2"
_cell_formula_units_Z 168
_cell_length_a 20.034825
_cell_length_b 20.034825
_cell_length_c 20.034825
_cell_angle_alpha 90.000000
_cell_angle_beta 90.000000
_cell_angle_gamma 90.000000
_cell_volume 8041.862809
_symmetry_space_group_name_H-M "I A 3"
_symmetry_group_IT_number 206
_symmetry_cell_setting 'cubic'
loop_
_space_group_symop_operation_xyz
x,y,z
z,x,y
y,z,x
-y,1/2-z,x
z,-x,1/2-y
1/2-y,z,-x
-z,1/2-x,y
1/2-z,x,-y
y,-z,1/2-x
-x,1/2-y,z
x,-y,1/2-z
1/2-x,y,-z
-x,-y,-z
-z,-x,-y
-y,-z,-x
y,1/2+z,-x
-z,x,1/2+y
1/2+y,-z,x
z,1/2+x,-y
1/2+z,-x,y
-y,z,1/2+x
x,1/2+y,-z
-x,y,1/2+z
1/2+x,-y,z
1/2+x,1/2+y,1/2+z
1/2+z,1/2+x,1/2+y
1/2+y,1/2+z,1/2+x
1/2-y,-z,1/2+x
1/2+z,1/2-x,-y
-y,1/2+z,1/2-x
1/2-z,-x,1/2+y
-z,1/2+x,1/2-y
1/2+y,1/2-z,-x
1/2-x,-y,1/2+z
1/2+x,1/2-y,-z
-x,1/2+y,1/2-z
1/2-x,1/2-y,1/2-z
1/2-z,1/2-x,1/2-y
1/2-y,1/2-z,1/2-x
1/2+y,z,1/2-x
1/2-z,1/2+x,y
y,1/2-z,1/2+x
1/2+z,x,1/2-y
z,1/2-x,1/2+y
1/2-y,1/2+z,x
1/2+x,y,1/2-z
1/2-x,1/2+y,z
x,1/2-y,1/2+z
loop_
_atom_site_type_symbol
_atom_site_label
_atom_site_fract_x
_atom_site_fract_y
_atom_site_fract_z
Si Si1 0.611952 0.219382 0.381256
Si Si2 0.543960 0.928455 0.870703
Si Si3 0.250000 0.018973 0.000000
Si Si4 0.326135 0.150056 0.328988
O O1 0.588746 0.178925 0.315007
O O2 0.554617 0.213515 0.435709
O O3 0.625989 0.295142 0.361994
O O4 0.474880 0.915419 0.908651
O O5 0.579819 0.858786 0.851167
O O6 0.529282 0.966944 0.803083
O O7 0.250390 0.166218 0.349639
#
# Coordination Sequence:
#
# PCOD8330968 Si02
#       4
#    48  48  24  48
#     4  10  23  44  71 103 135 184 227 287 355 422
#     4  12  28  46  66  99 140 192 232 290 346 426
#     4  12  26  46  68 104 144 182 246 276 358 426
#     4  12  22  45  76 105 141 175 232 303 364 411
#
# _framework density 20.890682999999999
#
# number of rings (size 3 to 8) (size 9 to 14) (size 15 to 20)
#    0.571    0.000    5.714    2.286    4.000    2.286 
#    0.000    0.000    0.000    0.000    0.000    0.000 
#    0.000    0.000    0.000    0.000    0.000    0.000 
#
# Total GULP energy -1041853.818771 kJ/mol
# GULP energy per Si atom -12403.021652 kJ/mol
# Density = 2.084313 g / cm^3
# Si number density = 20.890683 Si / 1000 Ang^3
#
#
#
# Elastic Constant Matrix: (Units=GPa)
#
#
# Indices 1 2 3 4 5 6 
#
# 1 81.2289 27.2919 27.2919 0.0000 0.0000 0.0000
# 2 27.2919 81.2289 27.2919 0.0000 0.0000 0.0000
# 3 27.2919 27.2919 81.2289 0.0000 0.0000 0.0000
# 4 0.0000 0.0000 0.0000 44.2755 0.0000 0.0000
# 5 0.0000 0.0000 0.0000 0.0000 44.2755 0.0000
# 6 0.0000 0.0000 0.0000 0.0000 0.0000 44.2755
#
#
#
# Elastic Compliance Matrix: (Units=1/GPa)
#
#
# Indices 1 2 3 4 5 6 
#
# 1 0.014814 -0.003726 -0.003726 0.000000 0.000000 0.000000
# 2 -0.003726 0.014814 -0.003726 0.000000 0.000000 0.000000
# 3 -0.003726 -0.003726 0.014814 0.000000 0.000000 0.000000
# 4 0.000000 0.000000 0.000000 0.022586 0.000000 0.000000
# 5 0.000000 0.000000 0.000000 0.000000 0.022586 0.000000
# 6 0.000000 0.000000 0.000000 0.000000 0.000000 0.022586
#
#
# Mechanical properties :
#
#
# Convention : Reuss Voigt Hill
#
# Bulk Modulus (GPa) = 45.27088 45.27088 45.27088
# Shear Modulus (GPa) = 35.23157 37.35271 36.29214
#
# Velocity S-wave (km/s) = 4.11112 4.23307 4.17254
# Velocity P-wave (km/s) = 6.65226 6.75346 6.70305
#
# Compressibility (1/GPa) = 0.02208926
#
# Stress axis : x y z
#
# Youngs Moduli (GPa) = 67.50158 67.50158 67.50158
#
# Poissons Ratio (x) = 0.25149 0.25149
# Poissons Ratio (y) = 0.25149 0.25149
# Poissons Ratio (z) = 0.25149 0.25149
#
# Static dielectric constant tensor:
#      x y z
#    x 3.766120 0.000000 0.000000 
#    y 0.000000 3.766120 0.000000 
#    z 0.000000 0.000000 3.766120 
# 
# 
# High freq. dielectric constant tensor:
#      x y z
#    x 1.823350 0.000000 0.000000 
#    y 0.000000 1.823350 0.000000 
#    z 0.000000 0.000000 1.823350 
# 
# From -- ./inp_files/494.got.cif
#   From: 2010.03.12/outbox.cif.g09.slc.cpg/sg206_cif.got.tgz:494.got - 2010.03.30 09:03:11.
