data_PCOD8330101
_publ_section_title
;
Structure prediction by ZEFSAII (Michael W. Deem and Ramdas Pophale) SiO2 
 PCOD8330101
Probable space group: P 63/M C M
;
_chemical_formula_sum "Si O2"
_cell_formula_units_Z 120
_cell_length_a 23.141301
_cell_length_b 23.141301
_cell_length_c 14.332647
_cell_angle_alpha 90.000000
_cell_angle_beta 90.000000
_cell_angle_gamma 120.000000
_cell_volume 6647.105610
_symmetry_space_group_name_H-M "P 63/M C M"
_symmetry_group_IT_number 193
_symmetry_cell_setting 'hexagonal'
loop_
_space_group_symop_operation_xyz
x,y,z
x-y,x,1/2+z
-y,x-y,z
-x,-y,1/2+z
-x+y,-x,z
y,-x+y,1/2+z
x-y,-y,1/2-z
-x,-x+y,1/2-z
y,x,1/2-z
-y,-x,-z
-x+y,y,-z
x,x-y,-z
-x,-y,-z
-x+y,-x,1/2-z
y,-x+y,-z
x,y,1/2-z
x-y,x,-z
-y,x-y,1/2-z
-x+y,y,1/2+z
x,x-y,1/2+z
-y,-x,1/2+z
y,x,z
x-y,-y,z
-x,-x+y,z
loop_
_atom_site_type_symbol
_atom_site_label
_atom_site_fract_x
_atom_site_fract_y
_atom_site_fract_z
Si Si1 0.797256 0.634055 0.138932
Si Si2 0.269976 0.520632 0.853777
Si Si3 0.605234 0.185352 0.399440
Si Si4 0.260223 0.922644 0.533569
Si Si5 0.445251 0.072850 0.649254
O O1 0.792684 0.646252 0.250000
O O2 0.763869 0.555793 0.113096
O O3 0.873813 0.674667 0.102033
O O4 0.756469 0.660043 0.075978
O O5 0.243881 0.520203 0.750000
O O6 0.349625 0.558379 0.850904
O O7 0.244655 0.562482 0.914065
O O8 0.577950 0.155900 0.500000
O O9 0.601628 0.124798 0.342261
O O10 0.321260 0.912052 0.564906
O O11 0.279767 0.000000 0.547469
O O12 0.413759 0.076061 0.750000
O O13 0.436520 0.000000 0.634836
#
# Coordination Sequence:
#
# PCOD8330101 Si02
#       5
#    24  24  24  24  24
#     4  10  21  37  58  82 114 148 185 233 284 337
#     4  11  22  36  51  70  98 135 175 226 288 348
#     4  12  23  34  51  73  99 130 173 225 286 349
#     4  10  20  35  59  85 111 145 189 233 280 333
#     4  10  20  36  57  78 102 137 183 231 278 339
#
# _framework density 18.052969000000001
#
# number of rings (size 3 to 8) (size 9 to 14) (size 15 to 20)
#    0.000    1.400    2.000    4.600    2.800    2.000 
#    0.000    1.000    0.000    1.200    0.000    0.000 
#    0.000    0.000    0.000   19.200    0.000   41.600 
#
# Total GULP energy -1487010.754183 kJ/mol
# GULP energy per Si atom -12391.756285 kJ/mol
# Density = 1.801188 g / cm^3
# Si number density = 18.052969 Si / 1000 Ang^3
#
#
#
# Elastic Constant Matrix: (Units=GPa)
#
#
# Indices 1 2 3 4 5 6 
#
# 1 88.0313 57.2183 33.5823 0.0000 0.0000 0.0000
# 2 57.2183 88.0313 33.5823 0.0000 0.0000 0.0000
# 3 33.5823 33.5823 109.8021 0.0000 0.0000 0.0000
# 4 0.0000 0.0000 0.0000 22.7905 0.0000 0.0000
# 5 0.0000 0.0000 0.0000 0.0000 22.7905 0.0000
# 6 0.0000 0.0000 0.0000 0.0000 0.0000 15.4065
#
#
#
# Elastic Compliance Matrix: (Units=1/GPa)
#
#
# Indices 1 2 3 4 5 6 
#
# 1 0.020236 -0.012218 -0.002452 0.000000 0.000000 0.000000
# 2 -0.012218 0.020236 -0.002452 0.000000 0.000000 0.000000
# 3 -0.002452 -0.002452 0.010607 0.000000 0.000000 0.000000
# 4 0.000000 0.000000 0.000000 0.043878 0.000000 0.000000
# 5 0.000000 0.000000 0.000000 0.000000 0.043878 0.000000
# 6 0.000000 0.000000 0.000000 0.000000 0.000000 0.064908
#
#
# Mechanical properties :
#
#
# Convention : Reuss Voigt Hill
#
# Bulk Modulus (GPa) = 59.40007 59.40343 59.40175
# Shear Modulus (GPa) = 20.52545 22.96297 21.74421
#
# Velocity S-wave (km/s) = 3.37554 3.57035 3.47431
# Velocity P-wave (km/s) = 6.94024 7.06916 7.00500
#
# Compressibility (1/GPa) = 0.01683500
#
# Stress axis : x y z
#
# Youngs Moduli (GPa) = 49.41622 49.41622 94.27337
#
# Poissons Ratio (x) = 0.60374 0.23120
# Poissons Ratio (y) = 0.60374 0.23120
# Poissons Ratio (z) = 0.12119 0.12119
#
# Static dielectric constant tensor:
#      x y z
#    x 3.210880 0.000000 0.000000 
#    y 0.000000 3.210880 0.000000 
#    z 0.000000 0.000000 3.512620 
# 
# 
# High freq. dielectric constant tensor:
#      x y z
#    x 1.673160 0.000000 0.000000 
#    y 0.000000 1.673160 0.000000 
#    z 0.000000 0.000000 1.719720 
# 
# From -- ./inp_files/4004.got.cif
#   From: 2010.03.12/outbox.cif.g09.slc.cpg/sg193_3_cif.got.tgz:4004.got - 2010.04.01 12:20:39.
