data_PCOD8330813
_publ_section_title
;
Structure prediction by ZEFSAII (Michael W. Deem and Ramdas Pophale) SiO2 
 PCOD8330813
Probable space group: P 63/M M C
;
_chemical_formula_sum "Si O2"
_cell_formula_units_Z 72
_cell_length_a 21.729020
_cell_length_b 21.729020
_cell_length_c 9.518618
_cell_angle_alpha 90.000000
_cell_angle_beta 90.000000
_cell_angle_gamma 120.000000
_cell_volume 3892.107340
_symmetry_space_group_name_H-M "P 63/M M C"
_symmetry_group_IT_number 194
_symmetry_cell_setting 'hexagonal'
loop_
_space_group_symop_operation_xyz
x,y,z
x-y,x,1/2+z
-y,x-y,z
-x,-y,1/2+z
-x+y,-x,z
y,-x+y,1/2+z
x-y,-y,-z
-x,-x+y,-z
y,x,-z
-y,-x,1/2-z
-x+y,y,1/2-z
x,x-y,1/2-z
-x,-y,-z
-x+y,-x,1/2-z
y,-x+y,-z
x,y,1/2-z
x-y,x,-z
-y,x-y,1/2-z
-x+y,y,z
x,x-y,z
-y,-x,z
y,x,1/2+z
x-y,-y,1/2+z
-x,-x+y,1/2+z
loop_
_atom_site_type_symbol
_atom_site_label
_atom_site_fract_x
_atom_site_fract_y
_atom_site_fract_z
Si Si1 0.143562 0.141086 0.750000
Si Si2 0.878962 0.614121 0.408356
Si Si3 0.928128 0.394584 0.586789
Si Si4 0.232380 0.232380 0.000000
O O1 0.112579 0.056290 0.750000
O O2 0.196353 0.176419 0.622408
O O3 0.078152 0.156304 0.750000
O O4 0.900879 0.605047 0.250000
O O5 0.801559 0.603117 0.407221
O O6 0.873902 0.553183 0.512919
O O7 0.933497 0.691731 0.464931
O O8 0.940307 0.383089 0.750000
O O9 0.898632 0.449316 0.574006
O O10 0.000000 0.422671 0.500000
#
# Coordination Sequence:
#
# PCOD8330813 Si02
#       4
#    12  24  24  12
#     4  12  25  42  60  78 105 148 202 256 310 366
#     4  11  23  39  59  87 120 155 196 241 292 351
#     4  10  21  37  58  87 119 150 186 230 281 339
#     4  12  24  40  56  82 116 150 190 250 310 352
#
# _framework density 18.498975000000002
#
# number of rings (size 3 to 8) (size 9 to 14) (size 15 to 20)
#    0.000    1.000    3.333    4.167    2.333    2.667 
#    0.000    1.667    0.000    0.667    0.000    0.000 
#    0.000    0.000    0.000    0.000    0.000    0.000 
#
# Total GULP energy -892695.778323 kJ/mol
# GULP energy per Si atom -12398.552477 kJ/mol
# Density = 1.845687 g / cm^3
# Si number density = 18.498975 Si / 1000 Ang^3
#
#
#
# Elastic Constant Matrix: (Units=GPa)
#
#
# Indices 1 2 3 4 5 6 
#
# 1 83.5611 46.8604 60.1570 0.0000 0.0000 0.0000
# 2 46.8604 83.5611 60.1570 0.0000 0.0000 0.0000
# 3 60.1570 60.1570 179.3513 0.0000 0.0000 0.0000
# 4 0.0000 0.0000 0.0000 26.1029 0.0000 0.0000
# 5 0.0000 0.0000 0.0000 0.0000 26.1029 0.0000
# 6 0.0000 0.0000 0.0000 0.0000 0.0000 18.3504
#
#
#
# Elastic Compliance Matrix: (Units=1/GPa)
#
#
# Indices 1 2 3 4 5 6 
#
# 1 0.019175 -0.008072 -0.003724 0.000000 0.000000 0.000000
# 2 -0.008072 0.019175 -0.003724 0.000000 0.000000 0.000000
# 3 -0.003724 -0.003724 0.008074 0.000000 0.000000 0.000000
# 4 0.000000 0.000000 0.000000 0.038310 0.000000 0.000000
# 5 0.000000 0.000000 0.000000 0.000000 0.038310 0.000000
# 6 0.000000 0.000000 0.000000 0.000000 0.000000 0.054495
#
#
# Mechanical properties :
#
#
# Convention : Reuss Voigt Hill
#
# Bulk Modulus (GPa) = 65.00518 75.64692 70.32605
# Shear Modulus (GPa) = 23.39647 26.06450 24.73048
#
# Velocity S-wave (km/s) = 3.56018 3.75770 3.66027
# Velocity P-wave (km/s) = 7.21914 7.73358 7.48079
#
# Compressibility (1/GPa) = 0.01538339
#
# Stress axis : x y z
#
# Youngs Moduli (GPa) = 52.15082 52.15082 123.85637
#
# Poissons Ratio (x) = 0.42097 0.46125
# Poissons Ratio (y) = 0.42097 0.46125
# Poissons Ratio (z) = 0.19421 0.19421
#
# Static dielectric constant tensor:
#      x y z
#    x 3.445590 0.000000 0.000000 
#    y 0.000000 3.445590 0.000000 
#    z 0.000000 0.000000 3.848380 
# 
# 
# High freq. dielectric constant tensor:
#      x y z
#    x 1.708410 0.000000 0.000000 
#    y 0.000000 1.708410 0.000000 
#    z 0.000000 0.000000 1.744380 
# 
# From -- ./inp_files/1139.got.cif
#   From: 2010.03.12/outbox.cif.g09.slc.cpg/sg194_1_cif.got.tgz:1139.got - 2010.04.01 12:26:19.
