data_PCOD8330125
_publ_section_title
;
Structure prediction by ZEFSAII (Michael W. Deem and Ramdas Pophale) SiO2 
 PCOD8330125
Probable space group: P 63/M C M
;
_chemical_formula_sum "Si O2"
_cell_formula_units_Z 114
_cell_length_a 20.722283
_cell_length_b 20.722283
_cell_length_c 13.957552
_cell_angle_alpha 90.000000
_cell_angle_beta 90.000000
_cell_angle_gamma 120.000000
_cell_volume 5190.570417
_symmetry_space_group_name_H-M "P 63/M C M"
_symmetry_group_IT_number 193
_symmetry_cell_setting 'hexagonal'
loop_
_space_group_symop_operation_xyz
x,y,z
x-y,x,1/2+z
-y,x-y,z
-x,-y,1/2+z
-x+y,-x,z
y,-x+y,1/2+z
x-y,-y,1/2-z
-x,-x+y,1/2-z
y,x,1/2-z
-y,-x,-z
-x+y,y,-z
x,x-y,-z
-x,-y,-z
-x+y,-x,1/2-z
y,-x+y,-z
x,y,1/2-z
x-y,x,-z
-y,x-y,1/2-z
-x+y,y,1/2+z
x,x-y,1/2+z
-y,-x,1/2+z
y,x,z
x-y,-y,z
-x,-x+y,z
loop_
_atom_site_type_symbol
_atom_site_label
_atom_site_fract_x
_atom_site_fract_y
_atom_site_fract_z
Si Si1 0.000000 0.322240 0.071679
Si Si2 0.430818 0.593578 0.364213
Si Si3 0.759718 0.919300 0.250000
Si Si4 0.000000 0.774297 0.750000
Si Si5 0.737562 0.238476 0.136831
Si Si6 0.000000 0.537653 0.859146
Si Si7 0.879933 0.659875 0.430666
O O1 0.000000 0.265600 0.151039
O O2 0.000000 0.385503 0.135511
O O3 0.932060 0.289117 0.997618
O O4 0.435523 0.595905 0.250000
O O5 0.468691 0.678266 0.403595
O O6 0.346488 0.550271 0.402723
O O7 0.472478 0.549886 0.405336
O O8 0.781354 0.855220 0.250000
O O9 0.712126 0.918972 0.159112
O O10 0.835398 0.000000 0.250000
O O11 0.734729 0.239707 0.250000
O O12 0.773328 0.189979 0.104069
O O13 0.000000 0.515375 0.750000
O O14 0.851285 0.702570 0.500000
#
# Coordination Sequence:
#
# PCOD8330125 Si02
#       7
#    12  24  12   6  24  12  24
#     4  12  24  40  68 102 135 181 229 285 349 414
#     4   9  19  34  60  90 127 179 238 293 357 424
#     4  12  26  48  72 107 143 178 221 275 342 419
#     4  12  26  46  80 100 142 186 220 276 338 424
#     4  10  20  38  62  92 134 185 240 299 362 426
#     4  10  20  37  60  93 129 173 240 295 347 419
#     4  12  24  40  67 102 138 178 232 286 347 413
#
# _framework density 21.962904000000002
#
# number of rings (size 3 to 8) (size 9 to 14) (size 15 to 20)
#    0.000    1.263    4.737    1.684    0.000    2.526 
#    0.316    6.316    0.000    0.000    0.000    2.211 
#    0.000    0.000    0.000    0.000    0.000    0.000 
#
# Total GULP energy -1412719.673240 kJ/mol
# GULP energy per Si atom -12392.277835 kJ/mol
# Density = 2.191292 g / cm^3
# Si number density = 21.962904 Si / 1000 Ang^3
#
#
#
# Elastic Constant Matrix: (Units=GPa)
#
#
# Indices 1 2 3 4 5 6 
#
# 1 175.1103 -10.1960 40.4071 0.0000 0.0000 0.0000
# 2 -10.1960 175.1103 40.4071 0.0000 0.0000 0.0000
# 3 40.4071 40.4071 72.0667 0.0000 0.0000 0.0000
# 4 0.0000 0.0000 0.0000 123.1490 0.0000 0.0000
# 5 0.0000 0.0000 0.0000 0.0000 123.1490 0.0000
# 6 0.0000 0.0000 0.0000 0.0000 0.0000 92.6532
#
#
#
# Elastic Compliance Matrix: (Units=1/GPa)
#
#
# Indices 1 2 3 4 5 6 
#
# 1 0.006879 0.001482 -0.004688 0.000000 0.000000 0.000000
# 2 0.001482 0.006879 -0.004688 0.000000 0.000000 0.000000
# 3 -0.004688 -0.004688 0.019133 0.000000 0.000000 0.000000
# 4 0.000000 0.000000 0.000000 0.008120 0.000000 0.000000
# 5 0.000000 0.000000 0.000000 0.000000 0.008120 0.000000
# 6 0.000000 0.000000 0.000000 0.000000 0.000000 0.010793
#
#
# Mechanical properties :
#
#
# Convention : Reuss Voigt Hill
#
# Bulk Modulus (GPa) = 58.46837 62.61377 60.54107
# Shear Modulus (GPa) = 61.41580 91.23486 76.32533
#
# Velocity S-wave (km/s) = 5.29378 6.45218 5.90147
# Velocity P-wave (km/s) = 8.00279 9.16942 8.60590
#
# Compressibility (1/GPa) = 0.01710327
#
# Stress axis : x y z
#
# Youngs Moduli (GPa) = 145.37527 145.37527 52.26567
#
# Poissons Ratio (x) = -0.21549 0.24502
# Poissons Ratio (y) = -0.21549 0.24502
# Poissons Ratio (z) = 0.68151 0.68151
#
# Static dielectric constant tensor:
#      x y z
#    x 4.099870 0.000000 0.000000 
#    y 0.000000 4.099870 0.000000 
#    z 0.000000 0.000000 4.104530 
# 
# 
# High freq. dielectric constant tensor:
#      x y z
#    x 1.860000 0.000000 0.000000 
#    y 0.000000 1.860000 0.000000 
#    z 0.000000 0.000000 1.883080 
# 
# From -- ./inp_files/3856.got.cif
#   From: 2010.03.12/outbox.cif.g09.slc.cpg/sg193_2_cif.got.tgz:3856.got - 2010.04.01 12:20:39.
