data_PCOD8330076
_publ_section_title
;
Structure prediction by ZEFSAII (Michael W. Deem and Ramdas Pophale) SiO2 
 PCOD8330076
Probable space group: P 63/M C M
;
_chemical_formula_sum "Si O2"
_cell_formula_units_Z 168
_cell_length_a 25.069212
_cell_length_b 25.069212
_cell_length_c 18.533063
_cell_angle_alpha 90.000000
_cell_angle_beta 90.000000
_cell_angle_gamma 120.000000
_cell_volume 10086.934478
_symmetry_space_group_name_H-M "P 63/M C M"
_symmetry_group_IT_number 193
_symmetry_cell_setting 'hexagonal'
loop_
_space_group_symop_operation_xyz
x,y,z
x-y,x,1/2+z
-y,x-y,z
-x,-y,1/2+z
-x+y,-x,z
y,-x+y,1/2+z
x-y,-y,1/2-z
-x,-x+y,1/2-z
y,x,1/2-z
-y,-x,-z
-x+y,y,-z
x,x-y,-z
-x,-y,-z
-x+y,-x,1/2-z
y,-x+y,-z
x,y,1/2-z
x-y,x,-z
-y,x-y,1/2-z
-x+y,y,1/2+z
x,x-y,1/2+z
-y,-x,1/2+z
y,x,z
x-y,-y,z
-x,-x+y,z
loop_
_atom_site_type_symbol
_atom_site_label
_atom_site_fract_x
_atom_site_fract_y
_atom_site_fract_z
Si Si1 0.423841 0.355836 0.452940
Si Si2 0.617814 0.173580 0.068605
Si Si3 0.623335 0.693476 0.102609
Si Si4 0.853736 0.488988 0.832344
Si Si5 0.265960 0.506109 0.332533
Si Si6 0.727506 0.659858 0.667297
Si Si7 0.806688 0.633197 0.167186
O O1 0.416593 0.416593 0.454086
O O2 0.493446 0.373694 0.465904
O O3 0.382868 0.310391 0.516692
O O4 0.399207 0.320293 0.377915
O O5 0.560974 0.138568 0.122924
O O6 0.678486 0.223271 0.111546
O O7 0.602215 0.204430 0.000000
O O8 0.666727 0.666727 0.129772
O O9 0.557272 0.656176 0.140628
O O10 0.654285 0.766006 0.121514
O O11 0.870394 0.485244 0.750000
O O12 0.782374 0.470068 0.840697
O O13 0.291054 0.515790 0.250000
O O14 0.229545 0.434280 0.353961
O O15 0.711636 0.638382 0.750000
O O16 0.718418 0.718418 0.650698
O O17 0.798662 0.678409 0.651956
O O18 0.787827 0.632741 0.250000
#
# Coordination Sequence:
#
# PCOD8330076 Si02
#       7
#    24  24  24  24  24  24  24
#     4  10  21  35  51  73 103 132 158 194 248 296
#     4  12  22  35  53  75  94 125 159 207 252 301
#     4  10  20  35  52  74 105 134 161 199 244 297
#     4  10  22  38  55  73  92 123 160 198 255 312
#     4   9  19  37  55  70  93 120 156 205 254 307
#     4   9  17  31  51  76 103 128 161 201 237 284
#     4   9  17  31  54  77  95 126 165 199 240 289
#
# _framework density 16.655208999999999
#
# number of rings (size 3 to 8) (size 9 to 14) (size 15 to 20)
#    0.000    2.143    2.857    1.714    0.000    3.714 
#    0.857    0.000    0.000    0.000    0.000    0.000 
#    0.000    0.000    0.000    0.429    0.000    5.571 
#
# Total GULP energy -2082450.844841 kJ/mol
# GULP energy per Si atom -12395.540743 kJ/mol
# Density = 1.661730 g / cm^3
# Si number density = 16.655209 Si / 1000 Ang^3
#
#
#
# Elastic Constant Matrix: (Units=GPa)
#
#
# Indices 1 2 3 4 5 6 
#
# 1 78.0299 42.9133 35.1254 0.0000 0.0000 0.0000
# 2 42.9133 78.0299 35.1254 0.0000 0.0000 0.0000
# 3 35.1254 35.1254 84.1938 0.0000 0.0000 0.0000
# 4 0.0000 0.0000 0.0000 23.7913 0.0000 0.0000
# 5 0.0000 0.0000 0.0000 0.0000 23.7913 0.0000
# 6 0.0000 0.0000 0.0000 0.0000 0.0000 17.5583
#
#
#
# Elastic Compliance Matrix: (Units=1/GPa)
#
#
# Indices 1 2 3 4 5 6 
#
# 1 0.019695 -0.008782 -0.004553 0.000000 0.000000 0.000000
# 2 -0.008782 0.019695 -0.004553 0.000000 0.000000 0.000000
# 3 -0.004553 -0.004553 0.015676 0.000000 0.000000 0.000000
# 4 0.000000 0.000000 0.000000 0.042032 0.000000 0.000000
# 5 0.000000 0.000000 0.000000 0.000000 0.042032 0.000000
# 6 0.000000 0.000000 0.000000 0.000000 0.000000 0.056953
#
#
# Mechanical properties :
#
#
# Convention : Reuss Voigt Hill
#
# Bulk Modulus (GPa) = 51.83851 51.84244 51.84048
# Shear Modulus (GPa) = 20.98300 21.50082 21.24191
#
# Velocity S-wave (km/s) = 3.55328 3.59686 3.57514
# Velocity P-wave (km/s) = 6.93011 6.96019 6.94517
#
# Compressibility (1/GPa) = 0.01929068
#
# Stress axis : x y z
#
# Youngs Moduli (GPa) = 50.77508 50.77508 63.79095
#
# Poissons Ratio (x) = 0.44590 0.29043
# Poissons Ratio (y) = 0.44590 0.29043
# Poissons Ratio (z) = 0.23117 0.23117
#
# Static dielectric constant tensor:
#      x y z
#    x 3.077820 0.000000 0.000000 
#    y 0.000000 3.077820 0.000000 
#    z 0.000000 0.000000 3.258740 
# 
# 
# High freq. dielectric constant tensor:
#      x y z
#    x 1.615200 0.000000 0.000000 
#    y 0.000000 1.615200 0.000000 
#    z 0.000000 0.000000 1.657940 
# 
# From -- ./inp_files/6857.got.cif
#   From: 2010.03.12/outbox.cif.g09.slc.cpg/sg193_4_cif.got.tgz:6857.got - 2010.04.01 12:20:39.
