data_PCOD8330462
_publ_section_title
;
Structure prediction by ZEFSAII (Michael W. Deem and Ramdas Pophale) SiO2 
 PCOD8330462
Probable space group: P 63/M M C
;
_chemical_formula_sum "Si O2"
_cell_formula_units_Z 168
_cell_length_a 18.262662
_cell_length_b 18.262662
_cell_length_c 28.650040
_cell_angle_alpha 90.000000
_cell_angle_beta 90.000000
_cell_angle_gamma 120.000000
_cell_volume 8275.305338
_symmetry_space_group_name_H-M "P 63/M M C"
_symmetry_group_IT_number 194
_symmetry_cell_setting 'hexagonal'
loop_
_space_group_symop_operation_xyz
x,y,z
x-y,x,1/2+z
-y,x-y,z
-x,-y,1/2+z
-x+y,-x,z
y,-x+y,1/2+z
x-y,-y,-z
-x,-x+y,-z
y,x,-z
-y,-x,1/2-z
-x+y,y,1/2-z
x,x-y,1/2-z
-x,-y,-z
-x+y,-x,1/2-z
y,-x+y,-z
x,y,1/2-z
x-y,x,-z
-y,x-y,1/2-z
-x+y,y,z
x,x-y,z
-y,-x,z
y,x,1/2+z
x-y,-y,1/2+z
-x,-x+y,1/2+z
loop_
_atom_site_type_symbol
_atom_site_label
_atom_site_fract_x
_atom_site_fract_y
_atom_site_fract_z
Si Si1 0.170272 0.501650 0.466909
Si Si2 0.173524 0.505597 0.670601
Si Si3 0.587007 0.013987 0.803538
Si Si4 0.233545 0.934706 0.303877
Si Si5 0.883940 0.522647 0.070305
Si Si6 0.001810 0.172153 0.383149
Si Si7 0.321341 0.024129 0.553208
O O1 0.265969 0.531938 0.451295
O O2 0.147088 0.573544 0.452223
O O3 0.166315 0.489470 0.522691
O O4 0.110061 0.411273 0.442847
O O5 0.241621 0.483242 0.691400
O O6 0.198411 0.599206 0.686985
O O7 0.177631 0.502983 0.614345
O O8 0.083396 0.439744 0.691305
O O9 0.590844 0.038709 0.750000
O O10 0.516326 0.032651 0.827991
O O11 0.682191 0.064136 0.824042
O O12 0.245379 0.964919 0.250000
O O13 0.161466 0.838535 0.309819
O O14 0.210251 0.995722 0.333165
O O15 0.927363 0.463682 0.068650
O O16 0.954485 0.618947 0.078655
O O17 0.070589 0.141178 0.384658
O O18 0.028145 0.244391 0.422389
O O19 0.908458 0.091542 0.391437
O O20 0.294637 0.000000 0.500000
#
# Coordination Sequence:
#
# PCOD8330462 Si02
#       7
#    24  24  24  24  24  24  24
#     4  10  19  32  51  75 105 140 179 223 270 319
#     4  10  19  30  45  68 100 137 176 216 257 302
#     4   9  18  32  50  74 105 140 175 210 250 299
#     4   9  19  37  61  87 112 139 173 215 266 321
#     4   9  18  31  48  72 101 134 174 222 272 314
#     4  11  24  41  60  82 108 138 174 220 275 331
#     4  10  21  36  55  77 106 143 184 223 263 314
#
# _framework density 20.301365000000001
#
# number of rings (size 3 to 8) (size 9 to 14) (size 15 to 20)
#    0.000    2.286    0.000    2.571    0.000    7.429 
#    0.000    3.571    0.000    2.857    0.000    2.000 
#    0.000    0.000    0.000    0.000    0.000    0.000 
#
# Total GULP energy -2081856.626554 kJ/mol
# GULP energy per Si atom -12392.003729 kJ/mol
# Density = 2.025516 g / cm^3
# Si number density = 20.301365 Si / 1000 Ang^3
#
#
#
# Elastic Constant Matrix: (Units=GPa)
#
#
# Indices 1 2 3 4 5 6 
#
# 1 113.1071 62.3981 22.1539 0.0000 0.0000 0.0000
# 2 62.3981 113.1071 22.1539 0.0000 0.0000 0.0000
# 3 22.1539 22.1539 39.8307 0.0000 0.0000 0.0000
# 4 0.0000 0.0000 0.0000 21.2712 0.0000 0.0000
# 5 0.0000 0.0000 0.0000 0.0000 21.2712 0.0000
# 6 0.0000 0.0000 0.0000 0.0000 0.0000 25.3545
#
#
#
# Elastic Compliance Matrix: (Units=1/GPa)
#
#
# Indices 1 2 3 4 5 6 
#
# 1 0.013174 -0.006546 -0.003687 0.000000 0.000000 0.000000
# 2 -0.006546 0.013174 -0.003687 0.000000 0.000000 0.000000
# 3 -0.003687 -0.003687 0.029208 0.000000 0.000000 0.000000
# 4 0.000000 0.000000 0.000000 0.047012 0.000000 0.000000
# 5 0.000000 0.000000 0.000000 0.000000 0.047012 0.000000
# 6 0.000000 0.000000 0.000000 0.000000 0.000000 0.039441
#
#
# Mechanical properties :
#
#
# Convention : Reuss Voigt Hill
#
# Bulk Modulus (GPa) = 36.07847 53.27297 44.67572
# Shear Modulus (GPa) = 22.11421 24.20201 23.15811
#
# Velocity S-wave (km/s) = 3.30403 3.45648 3.38111
# Velocity P-wave (km/s) = 5.68907 6.49829 6.10710
#
# Compressibility (1/GPa) = 0.02771736
#
# Stress axis : x y z
#
# Youngs Moduli (GPa) = 75.90434 75.90434 34.23777
#
# Poissons Ratio (x) = 0.49686 0.12623
# Poissons Ratio (y) = 0.49686 0.12623
# Poissons Ratio (z) = 0.27985 0.27985
#
# Static dielectric constant tensor:
#      x y z
#    x 3.696120 0.000000 0.000000 
#    y 0.000000 3.696120 0.000000 
#    z 0.000000 0.000000 3.611830 
# 
# 
# High freq. dielectric constant tensor:
#      x y z
#    x 1.787700 0.000000 0.000000 
#    y 0.000000 1.787700 0.000000 
#    z 0.000000 0.000000 1.782640 
# 
# From -- ./inp_files/12249.got.cif
#   From: 2010.03.12/outbox.cif.g09.slc.cpg/sg194_7_cif.got.tgz:12249.got - 2010.04.01 12:26:19.
