data_PCOD8330762
_publ_section_title
;
Structure prediction by ZEFSAII (Michael W. Deem and Ramdas Pophale) SiO2 
 PCOD8330762
Probable space group: P 63/M M C
;
_chemical_formula_sum "Si O2"
_cell_formula_units_Z 132
_cell_length_a 18.116454
_cell_length_b 18.116454
_cell_length_c 22.347920
_cell_angle_alpha 90.000000
_cell_angle_beta 90.000000
_cell_angle_gamma 120.000000
_cell_volume 6352.053261
_symmetry_space_group_name_H-M "P 63/M M C"
_symmetry_group_IT_number 194
_symmetry_cell_setting 'hexagonal'
loop_
_space_group_symop_operation_xyz
x,y,z
x-y,x,1/2+z
-y,x-y,z
-x,-y,1/2+z
-x+y,-x,z
y,-x+y,1/2+z
x-y,-y,-z
-x,-x+y,-z
y,x,-z
-y,-x,1/2-z
-x+y,y,1/2-z
x,x-y,1/2-z
-x,-y,-z
-x+y,-x,1/2-z
y,-x+y,-z
x,y,1/2-z
x-y,x,-z
-y,x-y,1/2-z
-x+y,y,z
x,x-y,z
-y,-x,z
y,x,1/2+z
x-y,-y,1/2+z
-x,-x+y,1/2+z
loop_
_atom_site_type_symbol
_atom_site_label
_atom_site_fract_x
_atom_site_fract_y
_atom_site_fract_z
Si Si1 0.108861 0.637079 0.184389
Si Si2 0.828429 0.331986 0.941628
Si Si3 0.836108 0.507297 0.250000
Si Si4 0.355828 0.301197 0.152441
Si Si5 0.912376 0.258013 0.021382
Si Si6 0.165712 0.000159 0.819741
O O1 0.150685 0.674262 0.250000
O O2 0.070711 0.535356 0.183657
O O3 0.175389 0.679743 0.130506
O O4 0.033442 0.655197 0.173524
O O5 0.853099 0.426550 0.960890
O O6 0.734311 0.265690 0.965693
O O7 0.896215 0.311443 0.970846
O O8 0.733886 0.467771 0.250000
O O9 0.855618 0.427809 0.250000
O O10 0.872918 0.569826 0.192708
O O11 0.385261 0.304771 0.084186
O O12 0.260793 0.219662 0.154128
O O13 0.840342 0.159659 0.023173
O O14 0.000000 0.262834 0.000000
O O15 0.185004 0.011199 0.750000
O O16 0.186969 0.093485 0.845997
O O17 0.066521 0.933480 0.832850
#
# Coordination Sequence:
#
# PCOD8330762 Si02
#       6
#    24  24  12  24  24  24
#     4  10  20  36  60  92 123 156 198 246 302 363
#     4  10  22  40  63  91 125 162 204 253 310 369
#     4  12  25  42  63  90 128 168 210 258 311 366
#     4  12  22  39  63  91 121 161 209 256 304 362
#     4  11  24  42  63  90 120 160 207 258 309 364
#     4  10  20  35  57  87 122 158 196 243 303 370
#
# _framework density 20.780681999999999
#
# number of rings (size 3 to 8) (size 9 to 14) (size 15 to 20)
#    0.000    1.273    3.636    2.636    0.000    4.364 
#    0.000    0.000    0.000    3.455    0.000    0.000 
#    0.000    0.000    0.000    0.000    0.000    0.000 
#
# Total GULP energy -1635618.935101 kJ/mol
# GULP energy per Si atom -12391.052539 kJ/mol
# Density = 2.073338 g / cm^3
# Si number density = 20.780682 Si / 1000 Ang^3
#
#
#
# Elastic Constant Matrix: (Units=GPa)
#
#
# Indices 1 2 3 4 5 6 
#
# 1 94.7107 43.7755 30.4780 0.0000 0.0000 0.0000
# 2 43.7755 94.7107 30.4780 0.0000 0.0000 0.0000
# 3 30.4780 30.4780 123.6192 0.0000 0.0000 0.0000
# 4 0.0000 0.0000 0.0000 16.2036 0.0000 0.0000
# 5 0.0000 0.0000 0.0000 0.0000 16.2036 0.0000
# 6 0.0000 0.0000 0.0000 0.0000 0.0000 25.4676
#
#
#
# Elastic Compliance Matrix: (Units=1/GPa)
#
#
# Indices 1 2 3 4 5 6 
#
# 1 0.013866 -0.005766 -0.001997 0.000000 0.000000 0.000000
# 2 -0.005766 0.013866 -0.001997 0.000000 0.000000 0.000000
# 3 -0.001997 -0.001997 0.009074 0.000000 0.000000 0.000000
# 4 0.000000 0.000000 0.000000 0.061715 0.000000 0.000000
# 5 0.000000 0.000000 0.000000 0.000000 0.061715 0.000000
# 6 0.000000 0.000000 0.000000 0.000000 0.000000 0.039266
#
#
# Mechanical properties :
#
#
# Convention : Reuss Voigt Hill
#
# Bulk Modulus (GPa) = 57.85068 58.05596 57.95332
# Shear Modulus (GPa) = 22.24353 25.46225 23.85289
#
# Velocity S-wave (km/s) = 3.27524 3.50420 3.39165
# Velocity P-wave (km/s) = 6.49631 6.66113 6.57924
#
# Compressibility (1/GPa) = 0.01728588
#
# Stress axis : x y z
#
# Youngs Moduli (GPa) = 72.11699 72.11699 110.20409
#
# Poissons Ratio (x) = 0.41586 0.22008
# Poissons Ratio (y) = 0.41586 0.22008
# Poissons Ratio (z) = 0.14402 0.14402
#
# Static dielectric constant tensor:
#      x y z
#    x 3.756760 0.000000 0.000000 
#    y 0.000000 3.756760 0.000000 
#    z 0.000000 0.000000 4.052640 
# 
# 
# High freq. dielectric constant tensor:
#      x y z
#    x 1.810400 0.000000 0.000000 
#    y 0.000000 1.810400 0.000000 
#    z 0.000000 0.000000 1.813190 
# 
# From -- ./inp_files/9496.got.cif
#   From: 2010.03.12/outbox.cif.g09.slc.cpg/sg194_5_cif.got.tgz:9496.got - 2010.04.01 12:26:19.
