data_PCOD8330270
_publ_section_title
;
Structure prediction by ZEFSAII (Michael W. Deem and Ramdas Pophale) SiO2 
 PCOD8330270
Probable space group: P 63/M C M
;
_chemical_formula_sum "Si O2"
_cell_formula_units_Z 96
_cell_length_a 27.399533
_cell_length_b 27.399533
_cell_length_c 10.377830
_cell_angle_alpha 90.000000
_cell_angle_beta 90.000000
_cell_angle_gamma 120.000000
_cell_volume 6747.198783
_symmetry_space_group_name_H-M "P 63/M C M"
_symmetry_group_IT_number 193
_symmetry_cell_setting 'hexagonal'
loop_
_space_group_symop_operation_xyz
x,y,z
x-y,x,1/2+z
-y,x-y,z
-x,-y,1/2+z
-x+y,-x,z
y,-x+y,1/2+z
x-y,-y,1/2-z
-x,-x+y,1/2-z
y,x,1/2-z
-y,-x,-z
-x+y,y,-z
x,x-y,-z
-x,-y,-z
-x+y,-x,1/2-z
y,-x+y,-z
x,y,1/2-z
x-y,x,-z
-y,x-y,1/2-z
-x+y,y,1/2+z
x,x-y,1/2+z
-y,-x,1/2+z
y,x,z
x-y,-y,z
-x,-x+y,z
loop_
_atom_site_type_symbol
_atom_site_label
_atom_site_fract_x
_atom_site_fract_y
_atom_site_fract_z
Si Si1 0.933242 0.676920 0.607536
Si Si2 0.067127 0.482000 0.250000
Si Si3 0.644037 0.576885 0.003951
Si Si4 0.066264 0.213930 0.399349
Si Si5 0.592464 0.525133 0.750000
O O1 0.908151 0.655233 0.750000
O O2 0.911610 0.622625 0.514378
O O3 0.916015 0.722132 0.558934
O O4 0.000000 0.707981 0.617387
O O5 0.090206 0.465883 0.375891
O O6 0.090319 0.548778 0.250000
O O7 0.000000 0.448519 0.250000
O O8 0.608507 0.608507 0.002271
O O9 0.632826 0.541205 0.874044
O O10 0.096431 0.192861 0.500000
O O11 0.083800 0.212643 0.250000
O O12 0.000000 0.172381 0.414823
O O13 0.558787 0.558787 0.750000
#
# Coordination Sequence:
#
# PCOD8330270 Si02
#       5
#    24  12  24  24  12
#     4   8  13  24  40  54  70  97 127 150 181 228
#     4   9  14  20  30  40  57  92 129 156 190 227
#     4   9  14  21  31  43  63  91 123 158 191 222
#     4   9  18  32  49  68  88 106 126 154 191 242
#     4   9  16  20  24  42  67  88 119 164 200 217
#
# _framework density 14.228128
#
# number of rings (size 3 to 8) (size 9 to 14) (size 15 to 20)
#    0.000    3.250    1.250    2.250    0.000    3.500 
#    2.250    0.000    0.000    0.250    0.000    0.000 
#    0.000    0.000    0.000    0.000    0.000    0.000 
#
# Total GULP energy -1189433.700314 kJ/mol
# GULP energy per Si atom -12389.934378 kJ/mol
# Density = 1.419574 g / cm^3
# Si number density = 14.228128 Si / 1000 Ang^3
#
#
#
# Elastic Constant Matrix: (Units=GPa)
#
#
# Indices 1 2 3 4 5 6 
#
# 1 45.6444 21.1871 37.2742 0.0000 0.0000 0.0000
# 2 21.1871 45.6444 37.2742 0.0000 0.0000 0.0000
# 3 37.2742 37.2742 114.5652 0.0000 0.0000 0.0000
# 4 0.0000 0.0000 0.0000 14.6252 0.0000 0.0000
# 5 0.0000 0.0000 0.0000 0.0000 14.6252 0.0000
# 6 0.0000 0.0000 0.0000 0.0000 0.0000 12.2286
#
#
#
# Elastic Compliance Matrix: (Units=1/GPa)
#
#
# Indices 1 2 3 4 5 6 
#
# 1 0.032187 -0.008700 -0.007642 0.000000 0.000000 0.000000
# 2 -0.008700 0.032187 -0.007642 0.000000 0.000000 0.000000
# 3 -0.007642 -0.007642 0.013701 0.000000 0.000000 0.000000
# 4 0.000000 0.000000 0.000000 0.068375 0.000000 0.000000
# 5 0.000000 0.000000 0.000000 0.000000 0.068375 0.000000
# 6 0.000000 0.000000 0.000000 0.000000 0.000000 0.081775
#
#
# Mechanical properties :
#
#
# Convention : Reuss Voigt Hill
#
# Bulk Modulus (GPa) = 33.21298 44.14720 38.68009
# Shear Modulus (GPa) = 14.10022 15.63704 14.86863
#
# Velocity S-wave (km/s) = 3.15145 3.31875 3.23618
# Velocity P-wave (km/s) = 6.05277 6.76616 6.41938
#
# Compressibility (1/GPa) = 0.03010871
#
# Stress axis : x y z
#
# Youngs Moduli (GPa) = 31.06816 31.06816 72.98701
#
# Poissons Ratio (x) = 0.27030 0.55773
# Poissons Ratio (y) = 0.27030 0.55773
# Poissons Ratio (z) = 0.23741 0.23741
#
# Static dielectric constant tensor:
#      x y z
#    x 2.525840 0.000000 0.000000 
#    y 0.000000 2.525840 0.000000 
#    z 0.000000 0.000000 2.932120 
# 
# 
# High freq. dielectric constant tensor:
#      x y z
#    x 1.499570 0.000000 0.000000 
#    y 0.000000 1.499570 0.000000 
#    z 0.000000 0.000000 1.550350 
# 
# From -- ./inp_files/2273.got.cif
#   From: 2010.03.12/outbox.cif.g09.slc.cpg/sg193_2_cif.got.tgz:2273.got - 2010.04.01 12:20:39.
