data_PCOD8330258
_publ_section_title
;
Structure prediction by ZEFSAII (Michael W. Deem and Ramdas Pophale) SiO2 
 PCOD8330258
Probable space group: P 63/M C M
;
_chemical_formula_sum "Si O2"
_cell_formula_units_Z 72
_cell_length_a 22.059460
_cell_length_b 22.059460
_cell_length_c 10.212873
_cell_angle_alpha 90.000000
_cell_angle_beta 90.000000
_cell_angle_gamma 120.000000
_cell_volume 4303.960898
_symmetry_space_group_name_H-M "P 63/M C M"
_symmetry_group_IT_number 193
_symmetry_cell_setting 'hexagonal'
loop_
_space_group_symop_operation_xyz
x,y,z
x-y,x,1/2+z
-y,x-y,z
-x,-y,1/2+z
-x+y,-x,z
y,-x+y,1/2+z
x-y,-y,1/2-z
-x,-x+y,1/2-z
y,x,1/2-z
-y,-x,-z
-x+y,y,-z
x,x-y,-z
-x,-y,-z
-x+y,-x,1/2-z
y,-x+y,-z
x,y,1/2-z
x-y,x,-z
-y,x-y,1/2-z
-x+y,y,1/2+z
x,x-y,1/2+z
-y,-x,1/2+z
y,x,z
x-y,-y,z
-x,-x+y,z
loop_
_atom_site_type_symbol
_atom_site_label
_atom_site_fract_x
_atom_site_fract_y
_atom_site_fract_z
Si Si1 0.276985 0.917934 0.105742
Si Si2 0.264035 0.132018 0.000000
Si Si3 0.165710 0.083658 0.250000
Si Si4 0.410093 0.916728 0.397988
O O1 0.245130 0.887586 0.250000
O O2 0.215314 0.899498 0.003402
O O3 0.329060 0.889608 0.061710
O O4 0.323330 0.000000 0.117019
O O5 0.214526 0.102077 0.875635
O O6 0.109557 0.109557 0.250000
O O7 0.124569 0.000000 0.250000
O O8 0.441912 0.883824 0.500000
O O9 0.413216 0.892026 0.250000
O O10 0.454433 0.000000 0.405008
#
# Coordination Sequence:
#
# PCOD8330258 Si02
#       4
#    24  12  12  24
#     4   9  17  32  50  68  97 133 164 201 257 317
#     4  12  22  36  55  74  98 132 176 222 282 348
#     4  12  25  40  56  72  94 128 180 244 304 356
#     4   8  14  26  45  68  95 125 152 178 216 273
#
# _framework density 16.728776
#
# number of rings (size 3 to 8) (size 9 to 14) (size 15 to 20)
#    0.000    2.333    1.667    5.167    0.000    0.000 
#    3.000    1.667    0.000    0.000    0.000    0.000 
#    1.667    0.000    0.000    0.000    0.000    0.000 
#
# Total GULP energy -892199.012379 kJ/mol
# GULP energy per Si atom -12391.652950 kJ/mol
# Density = 1.669070 g / cm^3
# Si number density = 16.728776 Si / 1000 Ang^3
#
#
#
# Elastic Constant Matrix: (Units=GPa)
#
#
# Indices 1 2 3 4 5 6 
#
# 1 100.1933 38.9062 60.4685 0.0000 0.0000 0.0000
# 2 38.9062 100.1933 60.4685 0.0000 0.0000 0.0000
# 3 60.4685 60.4685 120.4977 0.0000 0.0000 0.0000
# 4 0.0000 0.0000 0.0000 -74.3220 0.0000 0.0000
# 5 0.0000 0.0000 0.0000 0.0000 -74.3220 0.0000
# 6 0.0000 0.0000 0.0000 0.0000 0.0000 30.6435
#
#
#
# Elastic Compliance Matrix: (Units=1/GPa)
#
#
# Indices 1 2 3 4 5 6 
#
# 1 0.014535 -0.001782 -0.006400 0.000000 0.000000 0.000000
# 2 -0.001782 0.014535 -0.006400 0.000000 0.000000 0.000000
# 3 -0.006400 -0.006400 0.014722 0.000000 0.000000 0.000000
# 4 0.000000 0.000000 0.000000 -0.013455 0.000000 0.000000
# 5 0.000000 0.000000 0.000000 0.000000 -0.013455 0.000000
# 6 0.000000 0.000000 0.000000 0.000000 0.000000 0.032633
#
#
# Mechanical properties :
#
#
# Convention : Reuss Voigt Hill
#
# Bulk Modulus (GPa) = 68.35645 71.17451 69.76548
# Shear Modulus (GPa) = 59.84086 -12.86402 23.48842
#
# Velocity S-wave (km/s) = 5.98739 -2.77605 3.75116
# Velocity P-wave (km/s) = 9.42066 5.68887 7.78177
#
# Compressibility (1/GPa) = 0.01462920
#
# Stress axis : x y z
#
# Youngs Moduli (GPa) = 68.79940 68.79940 67.92479
#
# Poissons Ratio (x) = 0.12258 0.43471
# Poissons Ratio (y) = 0.12258 0.43471
# Poissons Ratio (z) = 0.44031 0.44031
#
# Static dielectric constant tensor:
#      x y z
#    x 3.277190 0.000000 0.000000 
#    y 0.000000 3.277190 0.000000 
#    z 0.000000 0.000000 4.694230 
# 
# 
# High freq. dielectric constant tensor:
#      x y z
#    x 1.624300 0.000000 0.000000 
#    y 0.000000 1.624300 0.000000 
#    z 0.000000 0.000000 1.645220 
# 
# From -- ./inp_files/833.got.cif
#   From: 2010.03.12/outbox.cif.g09.slc.cpg/sg193_1_cif.got.tgz:833.got - 2010.04.01 12:20:39.
