data_PCOD8330763
_publ_section_title
;
Structure prediction by ZEFSAII (Michael W. Deem and Ramdas Pophale) SiO2 
 PCOD8330763
Probable space group: P 63/M M C
;
_chemical_formula_sum "Si O2"
_cell_formula_units_Z 60
_cell_length_a 21.432006
_cell_length_b 21.432006
_cell_length_c 8.958664
_cell_angle_alpha 90.000000
_cell_angle_beta 90.000000
_cell_angle_gamma 120.000000
_cell_volume 3563.686768
_symmetry_space_group_name_H-M "P 63/M M C"
_symmetry_group_IT_number 194
_symmetry_cell_setting 'hexagonal'
loop_
_space_group_symop_operation_xyz
x,y,z
x-y,x,1/2+z
-y,x-y,z
-x,-y,1/2+z
-x+y,-x,z
y,-x+y,1/2+z
x-y,-y,-z
-x,-x+y,-z
y,x,-z
-y,-x,1/2-z
-x+y,y,1/2-z
x,x-y,1/2-z
-x,-y,-z
-x+y,-x,1/2-z
y,-x+y,-z
x,y,1/2-z
x-y,x,-z
-y,x-y,1/2-z
-x+y,y,z
x,x-y,z
-y,-x,z
y,x,1/2+z
x-y,-y,1/2+z
-x,-x+y,1/2+z
loop_
_atom_site_type_symbol
_atom_site_label
_atom_site_fract_x
_atom_site_fract_y
_atom_site_fract_z
Si Si1 0.596665 0.922190 0.074784
Si Si2 0.712984 0.287017 0.918498
Si Si3 0.212652 0.787349 0.574224
Si Si4 0.462787 0.925573 0.080654
O O1 0.614793 0.928509 0.250000
O O2 0.509386 0.886607 0.045537
O O3 0.616052 0.867247 0.995520
O O4 0.642505 0.000000 0.000000
O O5 0.748517 0.374259 0.938478
O O6 0.729332 0.270669 0.750000
O O7 0.744913 0.255087 0.036761
O O8 0.207641 0.792360 0.750000
O O9 0.474581 0.949161 0.250000
O O10 0.500000 0.000000 0.000000
#
# Coordination Sequence:
#
# PCOD8330763 Si02
#       4
#    24  12  12  12
#     4  10  20  36  54  74  98 129 167 210 256 307
#     4   8  18  35  51  66  90 125 164 209 259 304
#     4  12  24  34  49  75 102 133 169 207 256 310
#     4   8  16  29  48  69  91 120 157 198 246 294
#
# _framework density 16.836496
#
# number of rings (size 3 to 8) (size 9 to 14) (size 15 to 20)
#    0.400    2.000    0.000    3.000    2.800    2.400 
#    0.000    0.000    0.000    0.000    0.000    0.000 
#    0.000    0.000    0.000    0.600    0.000    8.400 
#
# Total GULP energy -743296.473045 kJ/mol
# GULP energy per Si atom -12388.274551 kJ/mol
# Density = 1.679818 g / cm^3
# Si number density = 16.836496 Si / 1000 Ang^3
#
#
#
# Elastic Constant Matrix: (Units=GPa)
#
#
# Indices 1 2 3 4 5 6 
#
# 1 77.5692 39.3851 49.0163 0.0000 0.0000 0.0000
# 2 39.3851 77.5692 49.0163 0.0000 0.0000 0.0000
# 3 49.0163 49.0163 122.0066 0.0000 0.0000 0.0000
# 4 0.0000 0.0000 0.0000 25.4306 0.0000 0.0000
# 5 0.0000 0.0000 0.0000 0.0000 25.4306 0.0000
# 6 0.0000 0.0000 0.0000 0.0000 0.0000 19.0921
#
#
#
# Elastic Compliance Matrix: (Units=1/GPa)
#
#
# Indices 1 2 3 4 5 6 
#
# 1 0.019540 -0.006649 -0.005179 0.000000 0.000000 0.000000
# 2 -0.006649 0.019540 -0.005179 0.000000 0.000000 0.000000
# 3 -0.005179 -0.005179 0.012358 0.000000 0.000000 0.000000
# 4 0.000000 0.000000 0.000000 0.039323 0.000000 0.000000
# 5 0.000000 0.000000 0.000000 0.000000 0.039323 0.000000
# 6 0.000000 0.000000 0.000000 0.000000 0.000000 0.052378
#
#
# Mechanical properties :
#
#
# Convention : Reuss Voigt Hill
#
# Bulk Modulus (GPa) = 57.39157 61.33118 59.36138
# Shear Modulus (GPa) = 22.49378 23.30582 22.89980
#
# Velocity S-wave (km/s) = 3.65912 3.72458 3.69199
# Velocity P-wave (km/s) = 7.21206 7.41642 7.31495
#
# Compressibility (1/GPa) = 0.01742416
#
# Stress axis : x y z
#
# Youngs Moduli (GPa) = 51.17637 51.17637 80.92050
#
# Poissons Ratio (x) = 0.34025 0.41911
# Poissons Ratio (y) = 0.34025 0.41911
# Poissons Ratio (z) = 0.26505 0.26505
#
# Static dielectric constant tensor:
#      x y z
#    x 2.918770 0.000000 0.000000 
#    y 0.000000 2.918770 0.000000 
#    z 0.000000 0.000000 3.063780 
# 
# 
# High freq. dielectric constant tensor:
#      x y z
#    x 1.622530 0.000000 0.000000 
#    y 0.000000 1.622530 0.000000 
#    z 0.000000 0.000000 1.656770 
# 
# From -- ./inp_files/1067.got.cif
#   From: 2010.03.12/outbox.cif.g09.slc.cpg/sg194_1_cif.got.tgz:1067.got - 2010.04.01 12:26:19.
