data_PCOD8330986
_publ_section_title
;
Structure prediction by ZEFSAII (Michael W. Deem and Ramdas Pophale) SiO2 
 PCOD8330986
Probable space group: P 42 3 2
;
_chemical_formula_sum "Si O2"
_cell_formula_units_Z 168
_cell_length_a 20.773393
_cell_length_b 20.773393
_cell_length_c 20.773393
_cell_angle_alpha 90.000000
_cell_angle_beta 90.000000
_cell_angle_gamma 90.000000
_cell_volume 8964.422399
_symmetry_space_group_name_H-M "P 42 3 2"
_symmetry_group_IT_number 208
_symmetry_cell_setting 'cubic'
loop_
_space_group_symop_operation_xyz
x,y,z
1/2-y,1/2+x,1/2+z
-x,-y,z
1/2+y,1/2-x,1/2+z
1/2+x,1/2-z,1/2+y
x,-y,-z
1/2+x,1/2+z,1/2-y
1/2+z,1/2+y,1/2-x
-x,y,-z
1/2-z,1/2+y,1/2+x
z,x,y
y,z,x
-y,-z,x
z,-x,-y
-y,z,-x
-z,-x,y
-z,x,-y
y,-z,-x
1/2+y,1/2+x,1/2-z
1/2-y,1/2-x,1/2-z
1/2-x,1/2+z,1/2+y
1/2-x,1/2-z,1/2-y
1/2+z,1/2-y,1/2+x
1/2-z,1/2-y,1/2-x
loop_
_atom_site_type_symbol
_atom_site_label
_atom_site_fract_x
_atom_site_fract_y
_atom_site_fract_z
Si Si1 0.342557 0.498090 0.155553
Si Si2 0.876346 0.876346 0.421221
Si Si3 0.500222 0.602754 0.707305
Si Si4 0.657443 0.844447 0.498090
Si Si5 0.897246 0.792695 0.999778
Si Si6 0.607450 0.392550 0.064369
Si Si7 0.799597 0.512019 0.799596
O O1 0.339967 0.428824 0.122002
O O2 0.390503 0.497595 0.215719
O O3 0.366859 0.544651 0.099643
O O4 0.274798 0.520274 0.184212
O O5 0.839967 0.928824 0.377998
O O6 0.906557 0.906557 0.487942
O O7 0.823304 0.823304 0.441424
O O8 0.497595 0.609497 0.784281
O O9 0.438892 0.561108 0.685075
O O10 0.565621 0.565621 0.688631
O O11 0.498445 0.671137 0.671137
O O12 0.633141 0.900357 0.544651
O O13 0.725202 0.815788 0.520274
O O14 0.662450 0.337550 0.068383
#
# Coordination Sequence:
#
# PCOD8330986 Si02
#       7
#    24  24  24  24  24  24  24
#     4  12  20  41  60  93 122 166 209 264 318 365
#     4  10  24  37  62  87 125 165 214 256 319 373
#     4  11  23  41  67  93 127 162 206 260 325 387
#     4  12  20  41  60  93 122 166 209 264 318 365
#     4  11  23  41  67  93 127 162 206 260 325 387
#     4  10  24  37  62  87 125 165 214 256 319 373
#     4  10  24  38  62  81 130 170 211 252 306 390
#
# _framework density 18.740749999999998
#
# number of rings (size 3 to 8) (size 9 to 14) (size 15 to 20)
#    0.857    0.286    4.286    3.143    0.000    0.571 
#    5.143    1.429    0.000    2.286    0.000    8.000 
#    0.000    0.000    0.000    0.000    0.000    0.000 
#
# Total GULP energy -2082419.238892 kJ/mol
# GULP energy per Si atom -12395.352612 kJ/mol
# Density = 1.869810 g / cm^3
# Si number density = 18.740750 Si / 1000 Ang^3
#
#
#
# Elastic Constant Matrix: (Units=GPa)
#
#
# Indices 1 2 3 4 5 6 
#
# 1 71.7653 13.8981 13.8981 0.0000 0.0000 0.0000
# 2 13.8981 71.7653 13.8981 0.0000 0.0000 0.0000
# 3 13.8981 13.8981 71.7653 0.0000 0.0000 0.0000
# 4 0.0000 0.0000 0.0000 30.6844 0.0000 0.0000
# 5 0.0000 0.0000 0.0000 0.0000 30.6844 0.0000
# 6 0.0000 0.0000 0.0000 0.0000 0.0000 30.6844
#
#
#
# Elastic Compliance Matrix: (Units=1/GPa)
#
#
# Indices 1 2 3 4 5 6 
#
# 1 0.014869 -0.002412 -0.002412 0.000000 0.000000 0.000000
# 2 -0.002412 0.014869 -0.002412 0.000000 0.000000 0.000000
# 3 -0.002412 -0.002412 0.014869 0.000000 0.000000 0.000000
# 4 0.000000 0.000000 0.000000 0.032590 0.000000 0.000000
# 5 0.000000 0.000000 0.000000 0.000000 0.032590 0.000000
# 6 0.000000 0.000000 0.000000 0.000000 0.000000 0.032590
#
#
# Mechanical properties :
#
#
# Convention : Reuss Voigt Hill
#
# Bulk Modulus (GPa) = 33.18713 33.18713 33.18713
# Shear Modulus (GPa) = 29.95926 29.98409 29.97167
#
# Velocity S-wave (km/s) = 4.00261 4.00427 4.00344
# Velocity P-wave (km/s) = 6.25365 6.25506 6.25436
#
# Compressibility (1/GPa) = 0.03013216
#
# Stress axis : x y z
#
# Youngs Moduli (GPa) = 67.25558 67.25558 67.25558
#
# Poissons Ratio (x) = 0.16224 0.16224
# Poissons Ratio (y) = 0.16224 0.16224
# Poissons Ratio (z) = 0.16224 0.16224
#
# Static dielectric constant tensor:
#      x y z
#    x 3.330750 0.000000 0.000000 
#    y 0.000000 3.330750 0.000000 
#    z 0.000000 0.000000 3.330750 
# 
# 
# High freq. dielectric constant tensor:
#      x y z
#    x 1.727250 0.000000 0.000000 
#    y 0.000000 1.727250 0.000000 
#    z 0.000000 0.000000 1.727250 
# 
# From -- ./inp_files/1152.got.cif
#   From: 2010.03.12/outbox.cif.g09.slc.cpg/sg208_cif.got.tgz:1152.got - 2010.03.30 09:03:42.
