data_PCOD8330732
_publ_section_title
;
Structure prediction by ZEFSAII (Michael W. Deem and Ramdas Pophale) SiO2 
 PCOD8330732
Probable space group: P 63/M M C
;
_chemical_formula_sum "Si O2"
_cell_formula_units_Z 144
_cell_length_a 31.489737
_cell_length_b 31.489737
_cell_length_c 8.609440
_cell_angle_alpha 90.000000
_cell_angle_beta 90.000000
_cell_angle_gamma 120.000000
_cell_volume 7393.389772
_symmetry_space_group_name_H-M "P 63/M M C"
_symmetry_group_IT_number 194
_symmetry_cell_setting 'hexagonal'
loop_
_space_group_symop_operation_xyz
x,y,z
x-y,x,1/2+z
-y,x-y,z
-x,-y,1/2+z
-x+y,-x,z
y,-x+y,1/2+z
x-y,-y,-z
-x,-x+y,-z
y,x,-z
-y,-x,1/2-z
-x+y,y,1/2-z
x,x-y,1/2-z
-x,-y,-z
-x+y,-x,1/2-z
y,-x+y,-z
x,y,1/2-z
x-y,x,-z
-y,x-y,1/2-z
-x+y,y,z
x,x-y,z
-y,-x,z
y,x,1/2+z
x-y,-y,1/2+z
-x,-x+y,1/2+z
loop_
_atom_site_type_symbol
_atom_site_label
_atom_site_fract_x
_atom_site_fract_y
_atom_site_fract_z
Si Si1 0.424461 0.947371 0.568072
Si Si2 0.051651 0.289293 0.067745
Si Si3 0.666583 0.428413 0.565518
Si Si4 0.856731 0.330111 0.933221
Si Si5 0.949054 0.802129 0.067921
Si Si6 0.141737 0.760480 0.931875
O O1 0.413631 0.946235 0.750000
O O2 0.467930 0.935860 0.534400
O O3 0.376417 0.908092 0.479338
O O4 0.438153 0.000000 0.500000
O O5 0.046149 0.283404 0.250000
O O6 0.065903 0.250366 0.003171
O O7 0.093592 0.343245 0.024010
O O8 0.000000 0.279647 0.000000
O O9 0.666793 0.425694 0.750000
O O10 0.716896 0.433791 0.498341
O O11 0.620911 0.379090 0.497059
O O12 0.660572 0.473868 0.512152
O O13 0.855664 0.320914 0.750000
O O14 0.847042 0.281992 0.023934
O O15 0.954348 0.798275 0.250000
O O16 0.907897 0.815794 0.024400
O O17 0.000000 0.844923 0.000000
O O18 0.131592 0.759527 0.750000
O O19 0.187573 0.812428 0.982519
#
# Coordination Sequence:
#
# PCOD8330732 Si02
#       6
#    24  24  24  24  24  24
#     4  10  21  38  60  85 113 146 186 232 283 338
#     4  11  22  37  59  85 113 145 183 228 277 330
#     4   9  17  30  51  80 113 146 180 221 269 320
#     4  11  22  36  56  83 115 149 188 232 277 331
#     4  10  20  34  54  81 112 146 185 229 277 329
#     4  11  24  41  59  80 111 150 190 232 279 333
#
# _framework density 19.476856999999999
#
# number of rings (size 3 to 8) (size 9 to 14) (size 15 to 20)
#    0.000    1.667    0.000    6.167    0.000    8.333 
#    0.000    3.333    0.000    0.167    0.000    0.000 
#    0.000    8.000    0.000    0.000    0.000    0.000 
#
# Total GULP energy -1786264.672462 kJ/mol
# GULP energy per Si atom -12404.615781 kJ/mol
# Density = 1.943253 g / cm^3
# Si number density = 19.476857 Si / 1000 Ang^3
#
#
#
# Elastic Constant Matrix: (Units=GPa)
#
#
# Indices 1 2 3 4 5 6 
#
# 1 118.1753 60.6908 25.2430 0.0000 0.0000 0.0000
# 2 60.6908 118.1753 25.2430 0.0000 0.0000 0.0000
# 3 25.2430 25.2430 49.7898 0.0000 0.0000 0.0000
# 4 0.0000 0.0000 0.0000 23.2976 0.0000 0.0000
# 5 0.0000 0.0000 0.0000 0.0000 23.2976 0.0000
# 6 0.0000 0.0000 0.0000 0.0000 0.0000 28.7423
#
#
#
# Elastic Compliance Matrix: (Units=1/GPa)
#
#
# Indices 1 2 3 4 5 6 
#
# 1 0.011960 -0.005436 -0.003308 0.000000 0.000000 0.000000
# 2 -0.005436 0.011960 -0.003308 0.000000 0.000000 0.000000
# 3 -0.003308 -0.003308 0.023439 0.000000 0.000000 0.000000
# 4 0.000000 0.000000 0.000000 0.042923 0.000000 0.000000
# 5 0.000000 0.000000 0.000000 0.000000 0.042923 0.000000
# 6 0.000000 0.000000 0.000000 0.000000 0.000000 0.034792
#
#
# Mechanical properties :
#
#
# Convention : Reuss Voigt Hill
#
# Bulk Modulus (GPa) = 42.99951 56.49930 49.74941
# Shear Modulus (GPa) = 25.01859 26.73175 25.87517
#
# Velocity S-wave (km/s) = 3.58792 3.70873 3.64883
# Velocity P-wave (km/s) = 6.26813 6.88556 6.58409
#
# Compressibility (1/GPa) = 0.02325608
#
# Stress axis : x y z
#
# Youngs Moduli (GPa) = 83.61061 83.61061 42.66481
#
# Poissons Ratio (x) = 0.45449 0.14113
# Poissons Ratio (y) = 0.45449 0.14113
# Poissons Ratio (z) = 0.27657 0.27657
#
# Static dielectric constant tensor:
#      x y z
#    x 3.642560 0.000000 0.000000 
#    y 0.000000 3.642560 0.000000 
#    z 0.000000 0.000000 3.507000 
# 
# 
# High freq. dielectric constant tensor:
#      x y z
#    x 1.764970 0.000000 0.000000 
#    y 0.000000 1.764970 0.000000 
#    z 0.000000 0.000000 1.756650 
# 
# From -- ./inp_files/2092.got.cif
#   From: 2010.03.12/outbox.cif.g09.slc.cpg/sg194_2_cif.got.tgz:2092.got - 2010.04.01 12:26:19.
