data_PCOD8330266
_publ_section_title
;
Structure prediction by ZEFSAII (Michael W. Deem and Ramdas Pophale) SiO2 
 PCOD8330266
Probable space group: P 63/M C M
;
_chemical_formula_sum "Si O2"
_cell_formula_units_Z 120
_cell_length_a 25.442504
_cell_length_b 25.442504
_cell_length_c 14.713192
_cell_angle_alpha 90.000000
_cell_angle_beta 90.000000
_cell_angle_gamma 120.000000
_cell_volume 8248.163040
_symmetry_space_group_name_H-M "P 63/M C M"
_symmetry_group_IT_number 193
_symmetry_cell_setting 'hexagonal'
loop_
_space_group_symop_operation_xyz
x,y,z
x-y,x,1/2+z
-y,x-y,z
-x,-y,1/2+z
-x+y,-x,z
y,-x+y,1/2+z
x-y,-y,1/2-z
-x,-x+y,1/2-z
y,x,1/2-z
-y,-x,-z
-x+y,y,-z
x,x-y,-z
-x,-y,-z
-x+y,-x,1/2-z
y,-x+y,-z
x,y,1/2-z
x-y,x,-z
-y,x-y,1/2-z
-x+y,y,1/2+z
x,x-y,1/2+z
-y,-x,1/2+z
y,x,z
x-y,-y,z
-x,-x+y,z
loop_
_atom_site_type_symbol
_atom_site_label
_atom_site_fract_x
_atom_site_fract_y
_atom_site_fract_z
Si Si1 0.072120 0.536060 0.647591
Si Si2 0.337767 0.071181 0.000000
Si Si3 0.746432 0.931730 0.645934
Si Si4 0.931730 0.185299 0.854066
Si Si5 0.072330 0.454725 0.500000
O O1 0.099883 0.549942 0.750000
O O2 0.094272 0.495792 0.591364
O O3 0.094272 0.598481 0.591364
O O4 0.000000 0.500000 0.653927
O O5 0.315047 0.090783 0.089029
O O6 0.410735 0.101484 1.000000
O O7 0.310709 0.000000 0.000000
O O8 0.315047 0.090783 0.910971
O O9 0.727497 0.929684 0.750000
O O10 0.772691 0.886346 0.627765
O O11 0.798222 0.000000 0.617548
O O12 0.929684 0.202187 0.750000
O O13 0.000000 0.201778 0.882452
O O14 0.000000 0.416943 0.500000
#
# Coordination Sequence:
#
# PCOD8330266 Si02
#       5
#    24  24  24  24  24
#     4   8  13  21  32  45  65  94 121 145 172 195
#     4   9  16  25  37  53  72  92 117 152 190 226
#     4   9  17  28  41  56  73  94 121 156 202 255
#     4   9  17  28  41  56  73  94 121 156 202 255
#     4   8  14  22  31  47  68  89 118 150 175 203
#
# _framework density 14.548695
#
# number of rings (size 3 to 8) (size 9 to 14) (size 15 to 20)
#    0.000    3.400    0.000    1.800    0.000    1.600 
#    0.000    8.000    0.000    0.400    0.000    2.800 
#    0.000    4.800    0.000    0.400    0.000    0.000 
#
# Total GULP energy -1486722.956991 kJ/mol
# GULP energy per Si atom -12389.357975 kJ/mol
# Density = 1.451558 g / cm^3
# Si number density = 14.548695 Si / 1000 Ang^3
#
#
#
# Elastic Constant Matrix: (Units=GPa)
#
#
# Indices 1 2 3 4 5 6 
#
# 1 73.8229 41.4254 41.3991 0.0000 0.0000 0.0000
# 2 41.4254 73.8229 41.3991 0.0000 0.0000 0.0000
# 3 41.3991 41.3991 112.9017 0.0000 0.0000 0.0000
# 4 0.0000 0.0000 0.0000 14.3304 0.0000 0.0000
# 5 0.0000 0.0000 0.0000 0.0000 14.3304 0.0000
# 6 0.0000 0.0000 0.0000 0.0000 0.0000 16.1987
#
#
#
# Elastic Compliance Matrix: (Units=1/GPa)
#
#
# Indices 1 2 3 4 5 6 
#
# 1 0.021323 -0.009543 -0.004320 0.000000 0.000000 0.000000
# 2 -0.009543 0.021323 -0.004320 0.000000 0.000000 0.000000
# 3 -0.004320 -0.004320 0.012025 0.000000 0.000000 0.000000
# 4 0.000000 0.000000 0.000000 0.069782 0.000000 0.000000
# 5 0.000000 0.000000 0.000000 0.000000 0.069782 0.000000
# 6 0.000000 0.000000 0.000000 0.000000 0.000000 0.061733
#
#
# Mechanical properties :
#
#
# Convention : Reuss Voigt Hill
#
# Bulk Modulus (GPa) = 54.62338 56.55499 55.58918
# Shear Modulus (GPa) = 16.75400 18.06015 17.40707
#
# Velocity S-wave (km/s) = 3.39718 3.52711 3.46275
# Velocity P-wave (km/s) = 7.28110 7.45283 7.36747
#
# Compressibility (1/GPa) = 0.01830718
#
# Stress axis : x y z
#
# Youngs Moduli (GPa) = 46.89671 46.89671 83.15915
#
# Poissons Ratio (x) = 0.44754 0.35922
# Poissons Ratio (y) = 0.44754 0.35922
# Poissons Ratio (z) = 0.20258 0.20258
#
# Static dielectric constant tensor:
#      x y z
#    x 2.742860 0.000000 0.000000 
#    y 0.000000 2.742860 0.000000 
#    z 0.000000 0.000000 3.097810 
# 
# 
# High freq. dielectric constant tensor:
#      x y z
#    x 1.516750 0.000000 0.000000 
#    y 0.000000 1.516750 0.000000 
#    z 0.000000 0.000000 1.574570 
# 
# From -- ./inp_files/4044.got.cif
#   From: 2010.03.12/outbox.cif.g09.slc.cpg/sg193_3_cif.got.tgz:4044.got - 2010.04.01 12:20:39.
