data_PCOD8330456
_publ_section_title
;
Structure prediction by ZEFSAII (Michael W. Deem and Ramdas Pophale) SiO2 
 PCOD8330456
Probable space group: P 63/M M C
;
_chemical_formula_sum "Si O2"
_cell_formula_units_Z 120
_cell_length_a 17.032647
_cell_length_b 17.032647
_cell_length_c 27.131348
_cell_angle_alpha 90.000000
_cell_angle_beta 90.000000
_cell_angle_gamma 120.000000
_cell_volume 6816.576220
_symmetry_space_group_name_H-M "P 63/M M C"
_symmetry_group_IT_number 194
_symmetry_cell_setting 'hexagonal'
loop_
_space_group_symop_operation_xyz
x,y,z
x-y,x,1/2+z
-y,x-y,z
-x,-y,1/2+z
-x+y,-x,z
y,-x+y,1/2+z
x-y,-y,-z
-x,-x+y,-z
y,x,-z
-y,-x,1/2-z
-x+y,y,1/2-z
x,x-y,1/2-z
-x,-y,-z
-x+y,-x,1/2-z
y,-x+y,-z
x,y,1/2-z
x-y,x,-z
-y,x-y,1/2-z
-x+y,y,z
x,x-y,z
-y,-x,z
y,x,1/2+z
x-y,-y,1/2+z
-x,-x+y,1/2+z
loop_
_atom_site_type_symbol
_atom_site_label
_atom_site_fract_x
_atom_site_fract_y
_atom_site_fract_z
Si Si1 0.483277 0.149565 0.888245
Si Si2 0.942516 0.241688 0.045338
Si Si3 0.333559 0.483967 0.500110
Si Si4 0.001183 0.816377 0.362717
Si Si5 0.646664 0.914626 0.196176
O O1 0.579767 0.159534 0.879077
O O2 0.494917 0.247459 0.880658
O O3 0.449056 0.115402 0.944208
O O4 0.414272 0.078681 0.847660
O O5 0.852491 0.147510 0.046433
O O6 0.997177 0.249450 0.094827
O O7 0.915722 0.320119 0.037634
O O8 0.000000 0.238417 0.000000
O O9 0.254461 0.508921 0.505626
O O10 0.428045 0.571956 0.513680
O O11 0.082677 0.917324 0.374383
O O12 0.020835 0.774951 0.314089
O O13 0.909725 0.819451 0.355552
O O14 0.625575 0.942220 0.250000
O O15 0.623402 0.811701 0.198191
#
# Coordination Sequence:
#
# PCOD8330456 Si02
#       5
#    24  24  24  24  24
#     4   9  16  27  45  69  96 126 158 187 215 254
#     4  10  19  30  45  65  91 122 152 185 227 275
#     4   9  17  29  46  68  94 124 156 189 224 263
#     4  10  20  34  51  69  89 115 151 195 241 288
#     4   9  18  32  48  66  90 119 149 185 232 279
#
# _framework density 17.604146
#
# number of rings (size 3 to 8) (size 9 to 14) (size 15 to 20)
#    0.000    2.600    0.000    2.400    0.000    6.000 
#    0.000    1.000    0.000    5.600    0.000    0.000 
#    0.000    0.000    0.000    0.600    0.000    3.000 
#
# Total GULP energy -1487069.303296 kJ/mol
# GULP energy per Si atom -12392.244194 kJ/mol
# Density = 1.756408 g / cm^3
# Si number density = 17.604146 Si / 1000 Ang^3
#
#
#
# Elastic Constant Matrix: (Units=GPa)
#
#
# Indices 1 2 3 4 5 6 
#
# 1 104.1105 -43.8424 23.2138 0.0000 0.0000 0.0000
# 2 -43.8424 104.1105 23.2138 0.0000 0.0000 0.0000
# 3 23.2138 23.2138 55.5135 0.0000 0.0000 0.0000
# 4 0.0000 0.0000 0.0000 23.7303 0.0000 0.0000
# 5 0.0000 0.0000 0.0000 0.0000 23.7303 0.0000
# 6 0.0000 0.0000 0.0000 0.0000 0.0000 73.9764
#
#
#
# Elastic Compliance Matrix: (Units=1/GPa)
#
#
# Indices 1 2 3 4 5 6 
#
# 1 0.015618 0.008859 -0.010236 0.000000 0.000000 0.000000
# 2 0.008859 0.015618 -0.010236 0.000000 0.000000 0.000000
# 3 -0.010236 -0.010236 0.026574 0.000000 0.000000 0.000000
# 4 0.000000 0.000000 0.000000 0.042140 0.000000 0.000000
# 5 0.000000 0.000000 0.000000 0.000000 0.042140 0.000000
# 6 0.000000 0.000000 0.000000 0.000000 0.000000 0.013518
#
#
# Mechanical properties :
#
#
# Convention : Reuss Voigt Hill
#
# Bulk Modulus (GPa) = 28.91299 29.87832 29.39566
# Shear Modulus (GPa) = 26.26579 41.69734 33.98157
#
# Velocity S-wave (km/s) = 3.86686 4.87212 4.39830
# Velocity P-wave (km/s) = 6.03295 6.97561 6.52134
#
# Compressibility (1/GPa) = 0.03458652
#
# Stress axis : x y z
#
# Youngs Moduli (GPa) = 64.02772 64.02772 37.63072
#
# Poissons Ratio (x) = -0.56724 0.38518
# Poissons Ratio (y) = -0.56724 0.38518
# Poissons Ratio (z) = 0.65537 0.65537
#
# Static dielectric constant tensor:
#      x y z
#    x 3.219710 0.000000 0.000000 
#    y 0.000000 3.219710 0.000000 
#    z 0.000000 0.000000 3.525060 
# 
# 
# High freq. dielectric constant tensor:
#      x y z
#    x 1.674620 0.000000 0.000000 
#    y 0.000000 1.674620 0.000000 
#    z 0.000000 0.000000 1.667720 
# 
# From -- ./inp_files/11866.got.cif
#   From: 2010.03.12/outbox.cif.g09.slc.cpg/sg194_6_cif.got.tgz:11866.got - 2010.04.01 12:26:19.
