data_PCOD8330250
_publ_section_title
;
Structure prediction by ZEFSAII (Michael W. Deem and Ramdas Pophale) SiO2 
 PCOD8330250
Probable space group: P 63/M C M
;
_chemical_formula_sum "Si O2"
_cell_formula_units_Z 120
_cell_length_a 15.482898
_cell_length_b 15.482898
_cell_length_c 31.644196
_cell_angle_alpha 90.000000
_cell_angle_beta 90.000000
_cell_angle_gamma 120.000000
_cell_volume 6569.452894
_symmetry_space_group_name_H-M "P 63/M C M"
_symmetry_group_IT_number 193
_symmetry_cell_setting 'hexagonal'
loop_
_space_group_symop_operation_xyz
x,y,z
x-y,x,1/2+z
-y,x-y,z
-x,-y,1/2+z
-x+y,-x,z
y,-x+y,1/2+z
x-y,-y,1/2-z
-x,-x+y,1/2-z
y,x,1/2-z
-y,-x,-z
-x+y,y,-z
x,x-y,-z
-x,-y,-z
-x+y,-x,1/2-z
y,-x+y,-z
x,y,1/2-z
x-y,x,-z
-y,x-y,1/2-z
-x+y,y,1/2+z
x,x-y,1/2+z
-y,-x,1/2+z
y,x,z
x-y,-y,z
-x,-x+y,z
loop_
_atom_site_type_symbol
_atom_site_label
_atom_site_fract_x
_atom_site_fract_y
_atom_site_fract_z
Si Si1 0.219181 0.769711 0.299988
Si Si2 0.880713 0.435815 0.161213
Si Si3 0.887956 0.776107 0.300303
Si Si4 0.443392 0.885892 0.566508
Si Si5 0.697399 0.114186 0.498159
O O1 0.212879 0.757892 0.250000
O O2 0.150237 0.661652 0.319613
O O3 0.333718 0.823013 0.313228
O O4 0.173913 0.837043 0.316477
O O5 0.839435 0.411919 0.113097
O O6 0.000000 0.482002 0.164963
O O7 0.889692 0.779648 0.250000
O O8 0.835394 0.835394 0.318559
O O9 0.000000 0.827443 0.318353
O O10 0.342590 0.841200 0.538653
O O11 0.528743 0.875342 0.542626
O O12 0.475165 0.000000 0.571893
O O13 0.817145 0.182856 0.500000
O O14 0.668451 0.000000 0.490212
#
# Coordination Sequence:
#
# PCOD8330250 Si02
#       5
#    24  24  24  24  24
#     4  11  23  36  52  76 103 140 189 227 269 333
#     4  11  23  39  57  75 109 148 182 229 277 321
#     4   9  17  31  52  76  98 122 163 221 279 327
#     4   8  18  35  52  78 109 137 175 219 256 314
#     4   9  17  33  57  84 116 144 173 211 261 317
#
# _framework density 18.266359999999999
#
# number of rings (size 3 to 8) (size 9 to 14) (size 15 to 20)
#    0.000    2.400    0.000    3.600    2.800    4.000 
#    4.800    0.000    0.000    0.200    0.000    0.000 
#    0.000    0.000    0.000    0.000    0.000    0.000 
#
# Total GULP energy -1487593.183092 kJ/mol
# GULP energy per Si atom -12396.609859 kJ/mol
# Density = 1.822479 g / cm^3
# Si number density = 18.266360 Si / 1000 Ang^3
#
#
#
# Elastic Constant Matrix: (Units=GPa)
#
#
# Indices 1 2 3 4 5 6 
#
# 1 98.5692 30.7847 16.7165 0.0000 0.0000 0.0000
# 2 30.7847 98.5692 16.7165 0.0000 0.0000 0.0000
# 3 16.7165 16.7165 82.8852 0.0000 0.0000 0.0000
# 4 0.0000 0.0000 0.0000 15.7085 0.0000 0.0000
# 5 0.0000 0.0000 0.0000 0.0000 15.7085 0.0000
# 6 0.0000 0.0000 0.0000 0.0000 0.0000 33.8923
#
#
#
# Elastic Compliance Matrix: (Units=1/GPa)
#
#
# Indices 1 2 3 4 5 6 
#
# 1 0.011454 -0.003298 -0.001645 0.000000 0.000000 0.000000
# 2 -0.003298 0.011454 -0.001645 0.000000 0.000000 0.000000
# 3 -0.001645 -0.001645 0.012728 0.000000 0.000000 0.000000
# 4 0.000000 0.000000 0.000000 0.063660 0.000000 0.000000
# 5 0.000000 0.000000 0.000000 0.000000 0.063660 0.000000
# 6 0.000000 0.000000 0.000000 0.000000 0.000000 0.029505
#
#
# Mechanical properties :
#
#
# Convention : Reuss Voigt Hill
#
# Bulk Modulus (GPa) = 44.52254 45.38432 44.95343
# Shear Modulus (GPa) = 23.46045 27.44893 25.45469
#
# Velocity S-wave (km/s) = 3.58767 3.88068 3.73705
# Velocity P-wave (km/s) = 6.44894 6.70666 6.57906
#
# Compressibility (1/GPa) = 0.02246054
#
# Stress axis : x y z
#
# Youngs Moduli (GPa) = 87.30384 87.30384 78.56468
#
# Poissons Ratio (x) = 0.28796 0.12923
# Poissons Ratio (y) = 0.28796 0.12923
# Poissons Ratio (z) = 0.14361 0.14361
#
# Static dielectric constant tensor:
#      x y z
#    x 3.344060 0.000000 0.000000 
#    y 0.000000 3.344060 0.000000 
#    z 0.000000 0.000000 3.503110 
# 
# 
# High freq. dielectric constant tensor:
#      x y z
#    x 1.705540 0.000000 0.000000 
#    y 0.000000 1.705540 0.000000 
#    z 0.000000 0.000000 1.691830 
# 
# From -- ./inp_files/8938.got.cif
#   From: 2010.03.12/outbox.cif.g09.slc.cpg/sg193_5_cif.got.tgz:8938.got - 2010.04.01 12:20:39.
