data_PCOD8330864
_publ_section_title
;
Structure prediction by ZEFSAII (Michael W. Deem and Ramdas Pophale) SiO2 
 PCOD8330864
Probable space group: P 63/M M C
;
_chemical_formula_sum "Si O2"
_cell_formula_units_Z 72
_cell_length_a 13.544080
_cell_length_b 13.544080
_cell_length_c 29.052081
_cell_angle_alpha 90.000000
_cell_angle_beta 90.000000
_cell_angle_gamma 120.000000
_cell_volume 4615.373995
_symmetry_space_group_name_H-M "P 63/M M C"
_symmetry_group_IT_number 194
_symmetry_cell_setting 'hexagonal'
loop_
_space_group_symop_operation_xyz
x,y,z
x-y,x,1/2+z
-y,x-y,z
-x,-y,1/2+z
-x+y,-x,z
y,-x+y,1/2+z
x-y,-y,-z
-x,-x+y,-z
y,x,-z
-y,-x,1/2-z
-x+y,y,1/2-z
x,x-y,1/2-z
-x,-y,-z
-x+y,-x,1/2-z
y,-x+y,-z
x,y,1/2-z
x-y,x,-z
-y,x-y,1/2-z
-x+y,y,z
x,x-y,z
-y,-x,z
y,x,1/2+z
x-y,-y,1/2+z
-x,-x+y,1/2+z
loop_
_atom_site_type_symbol
_atom_site_label
_atom_site_fract_x
_atom_site_fract_y
_atom_site_fract_z
Si Si1 0.560820 0.666983 0.969774
Si Si2 0.772489 0.772884 0.303270
Si Si3 0.333636 0.894222 0.863431
O O1 0.571127 0.785564 0.984464
O O2 0.432104 0.567897 0.979695
O O3 0.592414 0.666815 0.916606
O O4 0.650325 0.650325 0.000000
O O5 0.741329 0.742632 0.250000
O O6 0.763633 0.881817 0.318219
O O7 0.682091 0.666345 0.333131
O O8 0.900419 0.800837 0.313624
O O9 0.451963 0.903925 0.848821
O O10 0.234248 0.765753 0.853288
#
# Coordination Sequence:
#
# PCOD8330864 Si02
#       3
#    24  24  24
#     4   9  17  29  45  64  86 113 144 178 215 254
#     4   9  17  29  45  64  85 110 140 173 208 247
#     4   9  17  29  45  65  88 113 141 175 216 258
#
# _framework density 15.600035
#
# number of rings (size 3 to 8) (size 9 to 14) (size 15 to 20)
#    0.000    3.000    0.000    1.000    0.000    6.000 
#    0.000    0.000    0.000    3.000    0.000    0.000 
#    0.000    0.000    0.000    0.000    0.000    0.000 
#
# Total GULP energy -892922.878980 kJ/mol
# GULP energy per Si atom -12401.706653 kJ/mol
# Density = 1.556453 g / cm^3
# Si number density = 15.600035 Si / 1000 Ang^3
#
#
#
# Elastic Constant Matrix: (Units=GPa)
#
#
# Indices 1 2 3 4 5 6 
#
# 1 120.0866 70.6136 62.6608 0.0000 0.0000 0.0000
# 2 70.6136 120.0866 62.6608 0.0000 0.0000 0.0000
# 3 62.6608 62.6608 66.9539 0.0000 0.0000 0.0000
# 4 0.0000 0.0000 0.0000 28.4083 0.0000 0.0000
# 5 0.0000 0.0000 0.0000 0.0000 28.4083 0.0000
# 6 0.0000 0.0000 0.0000 0.0000 0.0000 24.7365
#
#
#
# Elastic Compliance Matrix: (Units=1/GPa)
#
#
# Indices 1 2 3 4 5 6 
#
# 1 0.016917 -0.003296 -0.012748 0.000000 0.000000 0.000000
# 2 -0.003296 0.016917 -0.012748 0.000000 0.000000 0.000000
# 3 -0.012748 -0.012748 0.038797 0.000000 0.000000 0.000000
# 4 0.000000 0.000000 0.000000 0.035201 0.000000 0.000000
# 5 0.000000 0.000000 0.000000 0.000000 0.035201 0.000000
# 6 0.000000 0.000000 0.000000 0.000000 0.000000 0.040426
#
#
# Mechanical properties :
#
#
# Convention : Reuss Voigt Hill
#
# Bulk Modulus (GPa) = 66.45556 77.66639 72.06098
# Shear Modulus (GPa) = 20.32039 23.72342 22.02191
#
# Velocity S-wave (km/s) = 3.61305 3.90388 3.76128
# Velocity P-wave (km/s) = 7.75227 8.37941 8.07193
#
# Compressibility (1/GPa) = 0.01504765
#
# Stress axis : x y z
#
# Youngs Moduli (GPa) = 59.11152 59.11152 25.77545
#
# Poissons Ratio (x) = 0.19482 0.32858
# Poissons Ratio (y) = 0.19482 0.32858
# Poissons Ratio (z) = 0.75355 0.75355
#
# Static dielectric constant tensor:
#      x y z
#    x 2.935040 0.000000 0.000000 
#    y 0.000000 2.935040 0.000000 
#    z 0.000000 0.000000 2.972620 
# 
# 
# High freq. dielectric constant tensor:
#      x y z
#    x 1.592280 0.000000 0.000000 
#    y 0.000000 1.592280 0.000000 
#    z 0.000000 0.000000 1.596430 
# 
# From -- ./inp_files/11288.got.cif
#   From: 2010.03.12/outbox.cif.g09.slc.cpg/sg194_6_cif.got.tgz:11288.got - 2010.04.01 12:26:19.
