data_PCOD8330825
_publ_section_title
;
Structure prediction by ZEFSAII (Michael W. Deem and Ramdas Pophale) SiO2 
 PCOD8330825
Probable space group: P 63/M M C
;
_chemical_formula_sum "Si O2"
_cell_formula_units_Z 168
_cell_length_a 25.231366
_cell_length_b 25.231366
_cell_length_c 18.728824
_cell_angle_alpha 90.000000
_cell_angle_beta 90.000000
_cell_angle_gamma 120.000000
_cell_volume 10325.775226
_symmetry_space_group_name_H-M "P 63/M M C"
_symmetry_group_IT_number 194
_symmetry_cell_setting 'hexagonal'
loop_
_space_group_symop_operation_xyz
x,y,z
x-y,x,1/2+z
-y,x-y,z
-x,-y,1/2+z
-x+y,-x,z
y,-x+y,1/2+z
x-y,-y,-z
-x,-x+y,-z
y,x,-z
-y,-x,1/2-z
-x+y,y,1/2-z
x,x-y,1/2-z
-x,-y,-z
-x+y,-x,1/2-z
y,-x+y,-z
x,y,1/2-z
x-y,x,-z
-y,x-y,1/2-z
-x+y,y,z
x,x-y,z
-y,-x,z
y,x,1/2+z
x-y,-y,1/2+z
-x,-x+y,1/2+z
loop_
_atom_site_type_symbol
_atom_site_label
_atom_site_fract_x
_atom_site_fract_y
_atom_site_fract_z
Si Si1 0.209124 0.544178 0.470106
Si Si2 0.122037 0.999858 0.081831
Si Si3 0.696491 0.518621 0.828046
Si Si4 0.579866 0.727249 0.962182
Si Si5 0.763532 0.111093 0.329072
Si Si6 0.233583 0.223618 0.667008
Si Si7 0.356190 0.115699 0.605006
O O1 0.276901 0.553801 0.474853
O O2 0.211088 0.605544 0.495965
O O3 0.183218 0.528829 0.388917
O O4 0.161453 0.488817 0.521030
O O5 0.051569 0.948431 0.092459
O O6 0.163530 0.984863 0.132492
O O7 0.129358 0.064679 0.103778
O O8 0.141967 0.000000 0.000000
O O9 0.664393 0.499207 0.750000
O O10 0.759367 0.518734 0.827821
O O11 0.712437 0.587564 0.845398
O O12 0.575952 0.787976 0.960080
O O13 0.604209 0.716227 0.886852
O O14 0.627555 0.734836 0.023937
O O15 0.734654 0.103779 0.250000
O O16 0.827433 0.172568 0.335290
O O17 0.778075 0.057641 0.345234
O O18 0.237457 0.210164 0.750000
O O19 0.296485 0.241462 0.628424
O O20 0.344151 0.172076 0.612001
#
# Coordination Sequence:
#
# PCOD8330825 Si02
#       7
#    24  24  24  24  24  24  24
#     4   9  16  26  42  67  96 125 155 189 222 255
#     4  10  22  38  53  67  88 123 162 195 229 278
#     4   8  14  25  39  57  88 129 164 190 221 263
#     4   8  16  30  47  66  89 120 156 182 215 272
#     4   9  18  32  48  66  91 117 141 182 236 285
#     4  11  22  32  47  74  97 114 145 192 245 286
#     4   9  17  28  44  66  93 122 149 184 227 275
#
# _framework density 16.269964000000002
#
# number of rings (size 3 to 8) (size 9 to 14) (size 15 to 20)
#    0.000    2.857    0.000    3.286    2.000    3.429 
#    0.000    0.000    0.000    2.143    0.000    8.000 
#    0.000    5.714    0.000    0.000    0.000    0.000 
#
# Total GULP energy -2082362.139329 kJ/mol
# GULP energy per Si atom -12395.012734 kJ/mol
# Density = 1.623293 g / cm^3
# Si number density = 16.269964 Si / 1000 Ang^3
#
#
#
# Elastic Constant Matrix: (Units=GPa)
#
#
# Indices 1 2 3 4 5 6 
#
# 1 58.3201 24.6772 35.0248 0.0000 0.0000 0.0000
# 2 24.6772 58.3201 35.0248 0.0000 0.0000 0.0000
# 3 35.0248 35.0248 100.4544 0.0000 0.0000 0.0000
# 4 0.0000 0.0000 0.0000 16.2536 0.0000 0.0000
# 5 0.0000 0.0000 0.0000 0.0000 16.2536 0.0000
# 6 0.0000 0.0000 0.0000 0.0000 0.0000 16.8215
#
#
#
# Elastic Compliance Matrix: (Units=1/GPa)
#
#
# Indices 1 2 3 4 5 6 
#
# 1 0.023398 -0.006326 -0.005953 0.000000 0.000000 0.000000
# 2 -0.006326 0.023398 -0.005953 0.000000 0.000000 0.000000
# 3 -0.005953 -0.005953 0.014106 0.000000 0.000000 0.000000
# 4 0.000000 0.000000 0.000000 0.061525 0.000000 0.000000
# 5 0.000000 0.000000 0.000000 0.000000 0.061525 0.000000
# 6 0.000000 0.000000 0.000000 0.000000 0.000000 0.059448
#
#
# Mechanical properties :
#
#
# Convention : Reuss Voigt Hill
#
# Bulk Modulus (GPa) = 40.91577 45.17201 43.04389
# Shear Modulus (GPa) = 17.36060 18.02358 17.69209
#
# Velocity S-wave (km/s) = 3.27009 3.33195 3.30116
# Velocity P-wave (km/s) = 6.28177 6.52892 6.40654
#
# Compressibility (1/GPa) = 0.02444045
#
# Stress axis : x y z
#
# Youngs Moduli (GPa) = 42.73828 42.73828 70.89353
#
# Poissons Ratio (x) = 0.27035 0.42200
# Poissons Ratio (y) = 0.27035 0.42200
# Poissons Ratio (z) = 0.25440 0.25440
#
# Static dielectric constant tensor:
#      x y z
#    x 2.886430 0.000000 0.000000 
#    y 0.000000 2.886430 0.000000 
#    z 0.000000 0.000000 3.516520 
# 
# 
# High freq. dielectric constant tensor:
#      x y z
#    x 1.603350 0.000000 0.000000 
#    y 0.000000 1.603350 0.000000 
#    z 0.000000 0.000000 1.631990 
# 
# From -- ./inp_files/8549.got.cif
#   From: 2010.03.12/outbox.cif.g09.slc.cpg/sg194_5_cif.got.tgz:8549.got - 2010.04.01 12:26:19.
