data_PCOD8330757
_publ_section_title
;
Structure prediction by ZEFSAII (Michael W. Deem and Ramdas Pophale) SiO2 
 PCOD8330757
Probable space group: P 63/M M C
;
_chemical_formula_sum "Si O2"
_cell_formula_units_Z 108
_cell_length_a 15.413755
_cell_length_b 15.413755
_cell_length_c 28.478457
_cell_angle_alpha 90.000000
_cell_angle_beta 90.000000
_cell_angle_gamma 120.000000
_cell_volume 5859.546296
_symmetry_space_group_name_H-M "P 63/M M C"
_symmetry_group_IT_number 194
_symmetry_cell_setting 'hexagonal'
loop_
_space_group_symop_operation_xyz
x,y,z
x-y,x,1/2+z
-y,x-y,z
-x,-y,1/2+z
-x+y,-x,z
y,-x+y,1/2+z
x-y,-y,-z
-x,-x+y,-z
y,x,-z
-y,-x,1/2-z
-x+y,y,1/2-z
x,x-y,1/2-z
-x,-y,-z
-x+y,-x,1/2-z
y,-x+y,-z
x,y,1/2-z
x-y,x,-z
-y,x-y,1/2-z
-x+y,y,z
x,x-y,z
-y,-x,z
y,x,1/2+z
x-y,-y,1/2+z
-x,-x+y,1/2+z
loop_
_atom_site_type_symbol
_atom_site_label
_atom_site_fract_x
_atom_site_fract_y
_atom_site_fract_z
Si Si1 0.370417 0.086296 0.803712
Si Si2 0.078025 0.726385 0.541613
Si Si3 0.602546 0.205092 0.196221
Si Si4 0.799822 0.800552 0.374665
Si Si5 0.504866 0.009732 0.849450
Si Si6 0.526418 0.052835 0.449995
O O1 0.359990 0.051929 0.750000
O O2 0.408841 0.204421 0.808256
O O3 0.450206 0.065858 0.829082
O O4 0.260845 0.021775 0.826386
O O5 0.171825 0.828176 0.524385
O O6 0.026246 0.742000 0.586717
O O7 0.115722 0.647323 0.553748
O O8 0.000000 0.686075 0.500000
O O9 0.723422 0.276579 0.187585
O O10 0.583263 0.166525 0.250000
O O11 0.554718 0.109436 0.162290
O O12 0.911314 0.822628 0.365780
O O13 0.805239 0.902620 0.391894
O O14 0.512020 0.024040 0.905832
O O15 0.500000 0.000000 0.500000
#
# Coordination Sequence:
#
# PCOD8330757 Si02
#       6
#    24  24  12  24  12  12
#     4  10  22  38  56  82 111 146 197 243 285 342
#     4  10  20  37  59  84 115 152 193 236 288 345
#     4   8  18  34  52  86 122 148 182 224 275 350
#     4  10  20  35  56  84 116 151 189 234 285 341
#     4  12  20  38  64  82 114 158 194 238 305 350
#     4  10  22  38  56  86 114 148 192 238 286 345
#
# _framework density 18.431460999999999
#
# number of rings (size 3 to 8) (size 9 to 14) (size 15 to 20)
#    0.222    1.778    2.222    1.889    0.000    2.222 
#    1.333    0.000    0.000    4.889    0.000    0.000 
#    0.000    0.000    0.000    0.000    0.000    0.000 
#
# Total GULP energy -1338681.316738 kJ/mol
# GULP energy per Si atom -12395.197377 kJ/mol
# Density = 1.838951 g / cm^3
# Si number density = 18.431461 Si / 1000 Ang^3
#
#
#
# Elastic Constant Matrix: (Units=GPa)
#
#
# Indices 1 2 3 4 5 6 
#
# 1 107.1004 56.2333 45.1489 0.0000 0.0000 0.0000
# 2 56.2333 107.1004 45.1489 0.0000 0.0000 0.0000
# 3 45.1489 45.1489 121.1238 0.0000 0.0000 0.0000
# 4 0.0000 0.0000 0.0000 24.2732 0.0000 0.0000
# 5 0.0000 0.0000 0.0000 0.0000 24.2732 0.0000
# 6 0.0000 0.0000 0.0000 0.0000 0.0000 25.4335
#
#
#
# Elastic Compliance Matrix: (Units=1/GPa)
#
#
# Indices 1 2 3 4 5 6 
#
# 1 0.013685 -0.005974 -0.002874 0.000000 0.000000 0.000000
# 2 -0.005974 0.013685 -0.002874 0.000000 0.000000 0.000000
# 3 -0.002874 -0.002874 0.010399 0.000000 0.000000 0.000000
# 4 0.000000 0.000000 0.000000 0.041198 0.000000 0.000000
# 5 0.000000 0.000000 0.000000 0.000000 0.041198 0.000000
# 6 0.000000 0.000000 0.000000 0.000000 0.000000 0.039318
#
#
# Mechanical properties :
#
#
# Convention : Reuss Voigt Hill
#
# Bulk Modulus (GPa) = 69.81224 69.82077 69.81651
# Shear Modulus (GPa) = 26.63778 27.38222 27.01000
#
# Velocity S-wave (km/s) = 3.80575 3.85856 3.83225
# Velocity P-wave (km/s) = 7.56773 7.60361 7.58569
#
# Compressibility (1/GPa) = 0.01432414
#
# Stress axis : x y z
#
# Youngs Moduli (GPa) = 73.07089 73.07089 96.16358
#
# Poissons Ratio (x) = 0.43651 0.27642
# Poissons Ratio (y) = 0.43651 0.27642
# Poissons Ratio (z) = 0.21004 0.21004
#
# Static dielectric constant tensor:
#      x y z
#    x 3.494690 0.000000 0.000000 
#    y 0.000000 3.494690 0.000000 
#    z 0.000000 0.000000 3.556570 
# 
# 
# High freq. dielectric constant tensor:
#      x y z
#    x 1.712770 0.000000 0.000000 
#    y 0.000000 1.712770 0.000000 
#    z 0.000000 0.000000 1.725520 
# 
# From -- ./inp_files/11689.got.cif
#   From: 2010.03.12/outbox.cif.g09.slc.cpg/sg194_6_cif.got.tgz:11689.got - 2010.04.01 12:26:19.
