data_PCOD8330061
_publ_section_title
;
Structure prediction by ZEFSAII (Michael W. Deem and Ramdas Pophale) SiO2 
 PCOD8330061
Probable space group: P 63/M C M
;
_chemical_formula_sum "Si O2"
_cell_formula_units_Z 144
_cell_length_a 30.892784
_cell_length_b 30.892784
_cell_length_c 8.744286
_cell_angle_alpha 90.000000
_cell_angle_beta 90.000000
_cell_angle_gamma 120.000000
_cell_volume 7227.183490
_symmetry_space_group_name_H-M "P 63/M C M"
_symmetry_group_IT_number 193
_symmetry_cell_setting 'hexagonal'
loop_
_space_group_symop_operation_xyz
x,y,z
x-y,x,1/2+z
-y,x-y,z
-x,-y,1/2+z
-x+y,-x,z
y,-x+y,1/2+z
x-y,-y,1/2-z
-x,-x+y,1/2-z
y,x,1/2-z
-y,-x,-z
-x+y,y,-z
x,x-y,-z
-x,-y,-z
-x+y,-x,1/2-z
y,-x+y,-z
x,y,1/2-z
x-y,x,-z
-y,x-y,1/2-z
-x+y,y,1/2+z
x,x-y,1/2+z
-y,-x,1/2+z
y,x,z
x-y,-y,z
-x,-x+y,z
loop_
_atom_site_type_symbol
_atom_site_label
_atom_site_fract_x
_atom_site_fract_y
_atom_site_fract_z
Si Si1 0.943131 0.236840 0.929936
Si Si2 0.758851 0.425862 0.068669
Si Si3 0.517671 0.942770 0.429019
Si Si4 0.336567 0.852380 0.427744
Si Si5 0.145641 0.761764 0.572595
Si Si6 0.056945 0.854397 0.570519
O O1 0.936759 0.230706 0.750000
O O2 0.000000 0.276510 0.976713
O O3 0.907953 0.256791 0.995377
O O4 0.926307 0.182867 0.000458
O O5 0.753748 0.421872 0.250000
O O6 0.721193 0.442385 0.000000
O O7 0.745066 0.372533 0.000000
O O8 0.814736 0.466999 0.022496
O O9 0.465044 0.930088 0.500000
O O10 0.510351 0.931122 0.250000
O O11 0.535772 0.908262 0.511154
O O12 0.559463 0.000000 0.461424
O O13 0.347103 0.848726 0.250000
O O14 0.279927 0.838849 0.456095
O O15 0.186710 0.813291 0.500000
O O16 0.141375 0.770532 0.750000
O O17 0.090807 0.909194 0.500000
O O18 0.064877 0.856077 0.750000
O O19 0.000000 0.836761 0.526157
#
# Coordination Sequence:
#
# PCOD8330061 Si02
#       6
#    24  24  24  24  24  24
#     4  10  21  37  58  83 112 147 187 232 280 332
#     4  12  25  43  66  92 122 154 191 236 287 343
#     4  10  21  38  61  88 118 153 193 239 290 342
#     4  11  24  41  61  87 118 155 196 238 287 340
#     4  11  24  40  59  82 113 152 191 233 280 334
#     4  10  20  34  54  80 110 144 183 229 280 333
#
# _framework density 19.924773999999999
#
# number of rings (size 3 to 8) (size 9 to 14) (size 15 to 20)
#    0.000    1.333    0.000    5.667    0.000    7.667 
#    0.000    3.333    0.000    0.167    0.000    0.000 
#    0.000    0.000    0.000    0.000    0.000    0.000 
#
# Total GULP energy -1786686.767540 kJ/mol
# GULP energy per Si atom -12407.546997 kJ/mol
# Density = 1.987942 g / cm^3
# Si number density = 19.924774 Si / 1000 Ang^3
#
#
#
# Elastic Constant Matrix: (Units=GPa)
#
#
# Indices 1 2 3 4 5 6 
#
# 1 93.4826 30.9593 46.8538 0.0000 0.0000 0.0000
# 2 30.9593 93.4826 46.8538 0.0000 0.0000 0.0000
# 3 46.8538 46.8538 128.6707 0.0000 0.0000 0.0000
# 4 0.0000 0.0000 0.0000 35.9470 0.0000 0.0000
# 5 0.0000 0.0000 0.0000 0.0000 35.9470 0.0000
# 6 0.0000 0.0000 0.0000 0.0000 0.0000 31.2616
#
#
#
# Elastic Compliance Matrix: (Units=1/GPa)
#
#
# Indices 1 2 3 4 5 6 
#
# 1 0.013533 -0.002461 -0.004032 0.000000 0.000000 0.000000
# 2 -0.002461 0.013533 -0.004032 0.000000 0.000000 0.000000
# 3 -0.004032 -0.004032 0.010708 0.000000 0.000000 0.000000
# 4 0.000000 0.000000 0.000000 0.027819 0.000000 0.000000
# 5 0.000000 0.000000 0.000000 0.000000 0.027819 0.000000
# 6 0.000000 0.000000 0.000000 0.000000 0.000000 0.031988
#
#
# Mechanical properties :
#
#
# Convention : Reuss Voigt Hill
#
# Bulk Modulus (GPa) = 59.79105 62.77444 61.28275
# Shear Modulus (GPa) = 32.88971 33.36238 33.12604
#
# Velocity S-wave (km/s) = 4.06728 4.09640 4.08187
# Velocity P-wave (km/s) = 7.22015 7.34494 7.28281
#
# Compressibility (1/GPa) = 0.01672491
#
# Stress axis : x y z
#
# Youngs Moduli (GPa) = 73.89382 73.89382 93.38866
#
# Poissons Ratio (x) = 0.18186 0.37651
# Poissons Ratio (y) = 0.18186 0.37651
# Poissons Ratio (z) = 0.29792 0.29792
#
# Static dielectric constant tensor:
#      x y z
#    x 3.609220 0.000000 0.000000 
#    y 0.000000 3.609220 0.000000 
#    z 0.000000 0.000000 3.743210 
# 
# 
# High freq. dielectric constant tensor:
#      x y z
#    x 1.778700 0.000000 0.000000 
#    y 0.000000 1.778700 0.000000 
#    z 0.000000 0.000000 1.795710 
# 
# From -- ./inp_files/1519.got.cif
#   From: 2010.03.12/outbox.cif.g09.slc.cpg/sg193_1_cif.got.tgz:1519.got - 2010.04.01 12:20:39.
