data_PCOD8330936
_publ_section_title
;
Structure prediction by ZEFSAII (Michael W. Deem and Ramdas Pophale) SiO2 
 PCOD8330936
Probable space group: I M 3
;
_chemical_formula_sum "Si O2"
_cell_formula_units_Z 192
_cell_length_a 23.633998
_cell_length_b 23.633998
_cell_length_c 23.633998
_cell_angle_alpha 90.000000
_cell_angle_beta 90.000000
_cell_angle_gamma 90.000000
_cell_volume 13201.144453
_symmetry_space_group_name_H-M "I M 3"
_symmetry_group_IT_number 204
_symmetry_cell_setting 'cubic'
loop_
_space_group_symop_operation_xyz
x,y,z
z,x,y
y,z,x
-y,-z,x
z,-x,-y
-y,z,-x
-z,-x,y
-z,x,-y
y,-z,-x
-x,-y,z
x,-y,-z
-x,y,-z
-x,-y,-z
-z,-x,-y
-y,-z,-x
y,z,-x
-z,x,y
y,-z,x
z,x,-y
z,-x,y
-y,z,x
x,y,-z
-x,y,z
x,-y,z
1/2+x,1/2+y,1/2+z
1/2+z,1/2+x,1/2+y
1/2+y,1/2+z,1/2+x
1/2-y,1/2-z,1/2+x
1/2+z,1/2-x,1/2-y
1/2-y,1/2+z,1/2-x
1/2-z,1/2-x,1/2+y
1/2-z,1/2+x,1/2-y
1/2+y,1/2-z,1/2-x
1/2-x,1/2-y,1/2+z
1/2+x,1/2-y,1/2-z
1/2-x,1/2+y,1/2-z
1/2-x,1/2-y,1/2-z
1/2-z,1/2-x,1/2-y
1/2-y,1/2-z,1/2-x
1/2+y,1/2+z,1/2-x
1/2-z,1/2+x,1/2+y
1/2+y,1/2-z,1/2+x
1/2+z,1/2+x,1/2-y
1/2+z,1/2-x,1/2+y
1/2-y,1/2+z,1/2+x
1/2+x,1/2+y,1/2-z
1/2-x,1/2+y,1/2+z
1/2+x,1/2-y,1/2+z
loop_
_atom_site_type_symbol
_atom_site_label
_atom_site_fract_x
_atom_site_fract_y
_atom_site_fract_z
Si Si1 0.500000 0.593229 0.311823
Si Si2 0.684223 0.500000 0.221152
Si Si3 0.119905 0.212983 0.306435
Si Si4 0.500000 0.684223 0.221152
Si Si5 0.811823 0.906771 0.000000
Si Si6 0.619905 0.193565 0.712983
O O1 0.500000 0.622861 0.250444
O O2 0.443939 0.556061 0.317218
O O3 0.500000 0.638033 0.361967
O O4 0.730684 0.500000 0.269316
O O5 0.622861 0.500000 0.250444
O O6 0.692609 0.555682 0.182475
O O7 0.139801 0.250000 0.360199
O O8 0.158056 0.158056 0.298072
O O9 0.125451 0.249276 0.249276
O O10 0.055682 0.192609 0.317525
#
# Coordination Sequence:
#
# PCOD8330936 Si02
#       6
#    24  24  48  24  24  48
#     4  10  19  29  40  54  76 109 148 186 217 244
#     4   9  17  27  39  57  79 102 129 164 208 251
#     4   9  16  26  41  60  81 105 133 166 204 247
#     4   9  17  27  39  57  79 102 129 164 208 251
#     4  10  19  29  40  54  76 109 148 186 217 244
#     4   9  16  26  41  60  81 105 133 166 204 247
#
# _framework density 14.544193999999999
#
# number of rings (size 3 to 8) (size 9 to 14) (size 15 to 20)
#    0.000    2.750    0.000    2.500    0.000    2.000 
#    0.000    5.000    0.000    2.750    0.000    0.000 
#    0.000    0.000    0.000    0.000    0.000   76.500 
#
# Total GULP energy -1190178.947258 kJ/mol
# GULP energy per Si atom -12397.697367 kJ/mol
# Density = 1.451109 g / cm^3
# Si number density = 14.544194 Si / 1000 Ang^3
#
#
#
# Elastic Constant Matrix: (Units=GPa)
#
#
# Indices 1 2 3 4 5 6 
#
# 1 98.4081 50.1612 50.1612 0.0000 0.0000 0.0000
# 2 50.1612 98.4081 50.1612 0.0000 0.0000 0.0000
# 3 50.1612 50.1612 98.4081 0.0000 0.0000 0.0000
# 4 0.0000 0.0000 0.0000 13.4196 0.0000 0.0000
# 5 0.0000 0.0000 0.0000 0.0000 13.4196 0.0000
# 6 0.0000 0.0000 0.0000 0.0000 0.0000 13.4196
#
#
#
# Elastic Compliance Matrix: (Units=1/GPa)
#
#
# Indices 1 2 3 4 5 6 
#
# 1 0.015495 -0.005232 -0.005232 0.000000 0.000000 0.000000
# 2 -0.005232 0.015495 -0.005232 0.000000 0.000000 0.000000
# 3 -0.005232 -0.005232 0.015495 0.000000 0.000000 0.000000
# 4 0.000000 0.000000 0.000000 0.074518 0.000000 0.000000
# 5 0.000000 0.000000 0.000000 0.000000 0.074518 0.000000
# 6 0.000000 0.000000 0.000000 0.000000 0.000000 0.074518
#
#
# Mechanical properties :
#
#
# Convention : Reuss Voigt Hill
#
# Bulk Modulus (GPa) = 66.24350 66.24350 66.24350
# Shear Modulus (GPa) = 16.31529 17.70112 17.00821
#
# Velocity S-wave (km/s) = 3.35292 3.49242 3.42338
# Velocity P-wave (km/s) = 7.78683 7.86816 7.82760
#
# Compressibility (1/GPa) = 0.01509582
#
# Stress axis : x y z
#
# Youngs Moduli (GPa) = 64.53646 64.53646 64.53646
#
# Poissons Ratio (x) = 0.33763 0.33763
# Poissons Ratio (y) = 0.33763 0.33763
# Poissons Ratio (z) = 0.33763 0.33763
#
# Static dielectric constant tensor:
#      x y z
#    x 2.863780 0.000000 0.000000 
#    y 0.000000 2.863780 0.000000 
#    z 0.000000 0.000000 2.863780 
# 
# 
# High freq. dielectric constant tensor:
#      x y z
#    x 1.544970 0.000000 0.000000 
#    y 0.000000 1.544970 0.000000 
#    z 0.000000 0.000000 1.544970 
# 
# From -- ./inp_files/559.got.cif
#   From: 2010.03.12/outbox.cif.g09.slc.cpg/sg204_cif.got.tgz:559.got - 2010.03.30 09:02:39.
