data_PCOD8330362
_publ_section_title
;
Structure prediction by ZEFSAII (Michael W. Deem and Ramdas Pophale) SiO2 
 PCOD8330362
Probable space group: P 63/M M C
;
_chemical_formula_sum "Si O2"
_cell_formula_units_Z 108
_cell_length_a 17.046096
_cell_length_b 17.046096
_cell_length_c 28.176300
_cell_angle_alpha 90.000000
_cell_angle_beta 90.000000
_cell_angle_gamma 120.000000
_cell_volume 7090.297440
_symmetry_space_group_name_H-M "P 63/M M C"
_symmetry_group_IT_number 194
_symmetry_cell_setting 'hexagonal'
loop_
_space_group_symop_operation_xyz
x,y,z
x-y,x,1/2+z
-y,x-y,z
-x,-y,1/2+z
-x+y,-x,z
y,-x+y,1/2+z
x-y,-y,-z
-x,-x+y,-z
y,x,-z
-y,-x,1/2-z
-x+y,y,1/2-z
x,x-y,1/2-z
-x,-y,-z
-x+y,-x,1/2-z
y,-x+y,-z
x,y,1/2-z
x-y,x,-z
-y,x-y,1/2-z
-x+y,y,z
x,x-y,z
-y,-x,z
y,x,1/2+z
x-y,-y,1/2+z
-x,-x+y,1/2+z
loop_
_atom_site_type_symbol
_atom_site_label
_atom_site_fract_x
_atom_site_fract_y
_atom_site_fract_z
Si Si1 0.509663 0.842586 0.067125
Si Si2 0.366811 0.094071 0.479443
Si Si3 0.265920 0.355601 0.802392
Si Si4 0.182003 0.001918 0.250000
Si Si5 0.032147 0.425813 0.610877
O O1 0.403323 0.806645 0.064667
O O2 0.525490 0.762745 0.085914
O O3 0.559173 0.924801 0.103588
O O4 0.548052 0.873254 0.014269
O O5 0.331759 0.165880 0.476848
O O6 0.400526 0.084646 0.427873
O O7 0.284574 0.000000 0.500000
O O8 0.298240 0.400501 0.750000
O O9 0.186369 0.372738 0.821382
O O10 0.225116 0.246359 0.796565
O O11 0.350413 0.401947 0.837256
O O12 0.144126 0.072063 0.250000
O O13 0.100302 0.899699 0.250000
O O14 0.064460 0.532230 0.607684
#
# Coordination Sequence:
#
# PCOD8330362 Si02
#       5
#    24  24  24  12  24
#     4   9  17  28  42  63  90 119 150 183 221 261
#     4   9  17  29  46  67  91 119 151 187 225 265
#     4   8  17  31  45  64  88 115 145 179 225 269
#     4   8  15  28  47  68  88 110 140 178 221 262
#     4  10  18  28  45  67  88 116 151 184 219 264
#
# _framework density 15.232082999999999
#
# number of rings (size 3 to 8) (size 9 to 14) (size 15 to 20)
#    0.667    2.444    0.000    1.667    0.000    4.000 
#    0.000    0.000    0.000    5.111    0.000    0.000 
#    0.000    0.000    0.000    0.000    0.000    0.000 
#
# Total GULP energy -1338364.075950 kJ/mol
# GULP energy per Si atom -12392.259962 kJ/mol
# Density = 1.519741 g / cm^3
# Si number density = 15.232083 Si / 1000 Ang^3
#
#
#
# Elastic Constant Matrix: (Units=GPa)
#
#
# Indices 1 2 3 4 5 6 
#
# 1 88.0611 51.6512 41.0986 0.0000 0.0000 0.0000
# 2 51.6512 88.0611 41.0986 0.0000 0.0000 0.0000
# 3 41.0986 41.0986 77.3331 0.0000 0.0000 0.0000
# 4 0.0000 0.0000 0.0000 19.5635 0.0000 0.0000
# 5 0.0000 0.0000 0.0000 0.0000 19.5635 0.0000
# 6 0.0000 0.0000 0.0000 0.0000 0.0000 18.2049
#
#
#
# Elastic Compliance Matrix: (Units=1/GPa)
#
#
# Indices 1 2 3 4 5 6 
#
# 1 0.018939 -0.008526 -0.005534 0.000000 0.000000 0.000000
# 2 -0.008526 0.018939 -0.005534 0.000000 0.000000 0.000000
# 3 -0.005534 -0.005534 0.018813 0.000000 0.000000 0.000000
# 4 0.000000 0.000000 0.000000 0.051116 0.000000 0.000000
# 5 0.000000 0.000000 0.000000 0.000000 0.051116 0.000000
# 6 0.000000 0.000000 0.000000 0.000000 0.000000 0.054930
#
#
# Mechanical properties :
#
#
# Convention : Reuss Voigt Hill
#
# Bulk Modulus (GPa) = 57.13158 57.90580 57.51869
# Shear Modulus (GPa) = 19.31422 19.44017 19.37719
#
# Velocity S-wave (km/s) = 3.56476 3.57636 3.57056
# Velocity P-wave (km/s) = 7.38459 7.42644 7.40554
#
# Compressibility (1/GPa) = 0.01750345
#
# Stress axis : x y z
#
# Youngs Moduli (GPa) = 52.80022 52.80022 53.15353
#
# Poissons Ratio (x) = 0.45016 0.29417
# Poissons Ratio (y) = 0.45016 0.29417
# Poissons Ratio (z) = 0.29221 0.29221
#
# Static dielectric constant tensor:
#      x y z
#    x 2.864560 0.000000 0.000000 
#    y 0.000000 2.864560 0.000000 
#    z 0.000000 0.000000 2.700680 
# 
# 
# High freq. dielectric constant tensor:
#      x y z
#    x 1.577470 0.000000 0.000000 
#    y 0.000000 1.577470 0.000000 
#    z 0.000000 0.000000 1.568890 
# 
# From -- ./inp_files/10619.got.cif
#   From: 2010.03.12/outbox.cif.g09.slc.cpg/sg194_6_cif.got.tgz:10619.got - 2010.04.01 12:26:19.
