data_PCOD8330113
_publ_section_title
;
Structure prediction by ZEFSAII (Michael W. Deem and Ramdas Pophale) SiO2 
 PCOD8330113
Probable space group: P 63/M C M
;
_chemical_formula_sum "Si O2"
_cell_formula_units_Z 120
_cell_length_a 18.115445
_cell_length_b 18.115445
_cell_length_c 22.884420
_cell_angle_alpha 90.000000
_cell_angle_beta 90.000000
_cell_angle_gamma 120.000000
_cell_volume 6503.820628
_symmetry_space_group_name_H-M "P 63/M C M"
_symmetry_group_IT_number 193
_symmetry_cell_setting 'hexagonal'
loop_
_space_group_symop_operation_xyz
x,y,z
x-y,x,1/2+z
-y,x-y,z
-x,-y,1/2+z
-x+y,-x,z
y,-x+y,1/2+z
x-y,-y,1/2-z
-x,-x+y,1/2-z
y,x,1/2-z
-y,-x,-z
-x+y,y,-z
x,x-y,-z
-x,-y,-z
-x+y,-x,1/2-z
y,-x+y,-z
x,y,1/2-z
x-y,x,-z
-y,x-y,1/2-z
-x+y,y,1/2+z
x,x-y,1/2+z
-y,-x,1/2+z
y,x,z
x-y,-y,z
-x,-x+y,z
loop_
_atom_site_type_symbol
_atom_site_label
_atom_site_fract_x
_atom_site_fract_y
_atom_site_fract_z
Si Si1 0.530654 0.097205 0.684832
Si Si2 0.420417 0.264462 0.368286
Si Si3 0.165124 0.669011 0.492470
Si Si4 0.674261 0.577116 0.388277
Si Si5 0.254469 0.254469 0.179818
Si Si6 0.908647 0.908647 0.818582
O O1 0.569856 0.112995 0.750000
O O2 0.494660 0.161566 0.673939
O O3 0.602477 0.114832 0.637739
O O4 0.452814 0.000000 0.678513
O O5 0.444936 0.308947 0.431909
O O6 0.408628 0.170849 0.361592
O O7 0.331524 0.249866 0.347579
O O8 0.265818 0.734183 0.500000
O O9 0.147963 0.573982 0.500000
O O10 0.108510 0.679977 0.542041
O O11 0.652010 0.652010 0.372898
O O12 0.260468 0.260468 0.250000
O O13 0.171518 0.171518 0.153084
O O14 0.895493 0.895493 0.750000
O O15 0.000000 0.916168 0.835863
#
# Coordination Sequence:
#
# PCOD8330113 Si02
#       6
#    24  24  24  24  12  12
#     4  10  20  37  58  80 113 154 191 232 278 341
#     4  11  22  36  57  86 115 152 194 239 289 347
#     4  10  20  36  59  84 112 146 194 247 290 336
#     4  10  23  39  58  85 117 151 192 237 294 343
#     4  11  22  36  59  89 121 155 197 241 291 357
#     4   7  14  32  56  83 113 149 191 239 292 339
#
# _framework density 18.450693999999999
#
# number of rings (size 3 to 8) (size 9 to 14) (size 15 to 20)
#    0.200    1.800    3.000    0.800    1.400    2.800 
#    1.200    0.000    0.000    0.000    0.000    0.000 
#    0.000    2.800    0.000    0.000    0.000    0.000 
#
# Total GULP energy -1486868.028276 kJ/mol
# GULP energy per Si atom -12390.566902 kJ/mol
# Density = 1.840870 g / cm^3
# Si number density = 18.450694 Si / 1000 Ang^3
#
#
#
# Elastic Constant Matrix: (Units=GPa)
#
#
# Indices 1 2 3 4 5 6 
#
# 1 125.7504 65.0021 37.8587 0.0000 0.0000 0.0000
# 2 65.0021 125.7504 37.8587 0.0000 0.0000 0.0000
# 3 37.8587 37.8587 83.0634 0.0000 0.0000 0.0000
# 4 0.0000 0.0000 0.0000 23.8931 0.0000 0.0000
# 5 0.0000 0.0000 0.0000 0.0000 23.8931 0.0000
# 6 0.0000 0.0000 0.0000 0.0000 0.0000 30.3741
#
#
#
# Elastic Compliance Matrix: (Units=1/GPa)
#
#
# Indices 1 2 3 4 5 6 
#
# 1 0.011431 -0.005031 -0.002917 0.000000 0.000000 0.000000
# 2 -0.005031 0.011431 -0.002917 0.000000 0.000000 0.000000
# 3 -0.002917 -0.002917 0.014698 0.000000 0.000000 0.000000
# 4 0.000000 0.000000 0.000000 0.041853 0.000000 0.000000
# 5 0.000000 0.000000 0.000000 0.000000 0.041853 0.000000
# 6 0.000000 0.000000 0.000000 0.000000 0.000000 0.032923
#
#
# Mechanical properties :
#
#
# Convention : Reuss Voigt Hill
#
# Bulk Modulus (GPa) = 63.17030 68.44480 65.80755
# Shear Modulus (GPa) = 27.59452 28.55502 28.07477
#
# Velocity S-wave (km/s) = 3.87147 3.93827 3.90501
# Velocity P-wave (km/s) = 7.36859 7.60635 7.48841
#
# Compressibility (1/GPa) = 0.01583023
#
# Stress axis : x y z
#
# Youngs Moduli (GPa) = 87.48248 87.48248 68.03578
#
# Poissons Ratio (x) = 0.44008 0.19847
# Poissons Ratio (y) = 0.44008 0.19847
# Poissons Ratio (z) = 0.25520 0.25520
#
# Static dielectric constant tensor:
#      x y z
#    x 3.695780 0.000000 0.000000 
#    y 0.000000 3.695780 0.000000 
#    z 0.000000 0.000000 3.440410 
# 
# 
# High freq. dielectric constant tensor:
#      x y z
#    x 1.710310 0.000000 0.000000 
#    y 0.000000 1.710310 0.000000 
#    z 0.000000 0.000000 1.713760 
# 
# From -- ./inp_files/7383.got.cif
#   From: 2010.03.12/outbox.cif.g09.slc.cpg/sg193_4_cif.got.tgz:7383.got - 2010.04.01 12:20:39.
