data_PCOD8330539
_publ_section_title
;
Structure prediction by ZEFSAII (Michael W. Deem and Ramdas Pophale) SiO2 
 PCOD8330539
Probable space group: P 63/M M C
;
_chemical_formula_sum "Si O2"
_cell_formula_units_Z 108
_cell_length_a 17.828256
_cell_length_b 17.828256
_cell_length_c 25.436589
_cell_angle_alpha 90.000000
_cell_angle_beta 90.000000
_cell_angle_gamma 120.000000
_cell_volume 7001.760118
_symmetry_space_group_name_H-M "P 63/M M C"
_symmetry_group_IT_number 194
_symmetry_cell_setting 'hexagonal'
loop_
_space_group_symop_operation_xyz
x,y,z
x-y,x,1/2+z
-y,x-y,z
-x,-y,1/2+z
-x+y,-x,z
y,-x+y,1/2+z
x-y,-y,-z
-x,-x+y,-z
y,x,-z
-y,-x,1/2-z
-x+y,y,1/2-z
x,x-y,1/2-z
-x,-y,-z
-x+y,-x,1/2-z
y,-x+y,-z
x,y,1/2-z
x-y,x,-z
-y,x-y,1/2-z
-x+y,y,z
x,x-y,z
-y,-x,z
y,x,1/2+z
x-y,-y,1/2+z
-x,-x+y,1/2+z
loop_
_atom_site_type_symbol
_atom_site_label
_atom_site_fract_x
_atom_site_fract_y
_atom_site_fract_z
Si Si1 0.691180 0.756449 0.839909
Si Si2 0.167672 0.501397 0.541355
Si Si3 0.499225 0.333542 0.166210
Si Si4 0.999949 0.821511 0.250000
Si Si5 0.242318 0.308567 0.957180
O O1 0.685686 0.842843 0.842626
O O2 0.596411 0.682141 0.818824
O O3 0.767377 0.768352 0.801104
O O4 0.710444 0.734695 0.898601
O O5 0.260794 0.521587 0.519050
O O6 0.145730 0.572865 0.518588
O O7 0.172749 0.505271 0.603838
O O8 0.094077 0.405844 0.524159
O O9 0.512850 0.256425 0.189358
O O10 0.574193 0.425808 0.189016
O O11 0.086735 0.913266 0.250000
O O12 0.918513 0.837026 0.250000
O O13 0.146855 0.293709 0.956578
O O14 0.243472 0.243472 0.000000
#
# Coordination Sequence:
#
# PCOD8330539 Si02
#       5
#    24  24  24  12  24
#     4   8  16  29  42  59  83 106 128 162 205 236
#     4   8  13  21  35  56  81 109 139 168 195 225
#     4   8  12  20  36  58  84 113 141 161 181 220
#     4  10  19  32  49  64  76  94 126 166 205 242
#     4   9  17  28  41  58  81 108 135 162 197 241
#
# _framework density 15.424693
#
# number of rings (size 3 to 8) (size 9 to 14) (size 15 to 20)
#    0.000    3.556    0.000    3.222    0.000    3.111 
#    0.000    0.556    0.000    0.222    0.000    1.556 
#    0.000    0.000    0.000    2.667    0.000    6.222 
#
# Total GULP energy -1338061.665107 kJ/mol
# GULP energy per Si atom -12389.459862 kJ/mol
# Density = 1.538959 g / cm^3
# Si number density = 15.424693 Si / 1000 Ang^3
#
#
#
# Elastic Constant Matrix: (Units=GPa)
#
#
# Indices 1 2 3 4 5 6 
#
# 1 73.3539 37.8884 35.3563 0.0000 0.0000 0.0000
# 2 37.8884 73.3539 35.3563 0.0000 0.0000 0.0000
# 3 35.3563 35.3563 67.1823 0.0000 0.0000 0.0000
# 4 0.0000 0.0000 0.0000 13.2531 0.0000 0.0000
# 5 0.0000 0.0000 0.0000 0.0000 13.2531 0.0000
# 6 0.0000 0.0000 0.0000 0.0000 0.0000 17.7327
#
#
#
# Elastic Compliance Matrix: (Units=1/GPa)
#
#
# Indices 1 2 3 4 5 6 
#
# 1 0.020852 -0.007344 -0.007109 0.000000 0.000000 0.000000
# 2 -0.007344 0.020852 -0.007109 0.000000 0.000000 0.000000
# 3 -0.007109 -0.007109 0.022368 0.000000 0.000000 0.000000
# 4 0.000000 0.000000 0.000000 0.075454 0.000000 0.000000
# 5 0.000000 0.000000 0.000000 0.000000 0.075454 0.000000
# 6 0.000000 0.000000 0.000000 0.000000 0.000000 0.056393
#
#
# Mechanical properties :
#
#
# Convention : Reuss Voigt Hill
#
# Bulk Modulus (GPa) = 47.73754 47.89913 47.81833
# Shear Modulus (GPa) = 15.55306 15.86706 15.71006
#
# Velocity S-wave (km/s) = 3.17885 3.21078 3.19486
# Velocity P-wave (km/s) = 6.67004 6.69824 6.68416
#
# Compressibility (1/GPa) = 0.02094787
#
# Stress axis : x y z
#
# Youngs Moduli (GPa) = 47.95602 47.95602 44.70760
#
# Poissons Ratio (x) = 0.35219 0.31783
# Poissons Ratio (y) = 0.35219 0.31783
# Poissons Ratio (z) = 0.34092 0.34092
#
# Static dielectric constant tensor:
#      x y z
#    x 2.932990 0.000000 0.000000 
#    y 0.000000 2.932990 0.000000 
#    z 0.000000 0.000000 2.813070 
# 
# 
# High freq. dielectric constant tensor:
#      x y z
#    x 1.571780 0.000000 0.000000 
#    y 0.000000 1.571780 0.000000 
#    z 0.000000 0.000000 1.565970 
# 
# From -- ./inp_files/9291.got.cif
#   From: 2010.03.12/outbox.cif.g09.slc.cpg/sg194_5_cif.got.tgz:9291.got - 2010.04.01 12:26:19.
