data_PCOD8330594
_publ_section_title
;
Structure prediction by ZEFSAII (Michael W. Deem and Ramdas Pophale) SiO2 
 PCOD8330594
Probable space group: P 63/M M C
;
_chemical_formula_sum "Si O2"
_cell_formula_units_Z 144
_cell_length_a 21.569285
_cell_length_b 21.569285
_cell_length_c 20.230289
_cell_angle_alpha 90.000000
_cell_angle_beta 90.000000
_cell_angle_gamma 120.000000
_cell_volume 8150.874691
_symmetry_space_group_name_H-M "P 63/M M C"
_symmetry_group_IT_number 194
_symmetry_cell_setting 'hexagonal'
loop_
_space_group_symop_operation_xyz
x,y,z
x-y,x,1/2+z
-y,x-y,z
-x,-y,1/2+z
-x+y,-x,z
y,-x+y,1/2+z
x-y,-y,-z
-x,-x+y,-z
y,x,-z
-y,-x,1/2-z
-x+y,y,1/2-z
x,x-y,1/2-z
-x,-y,-z
-x+y,-x,1/2-z
y,-x+y,-z
x,y,1/2-z
x-y,x,-z
-y,x-y,1/2-z
-x+y,y,z
x,x-y,z
-y,-x,z
y,x,1/2+z
x-y,-y,1/2+z
-x,-x+y,1/2+z
loop_
_atom_site_type_symbol
_atom_site_label
_atom_site_fract_x
_atom_site_fract_y
_atom_site_fract_z
Si Si1 0.961167 0.551703 0.174827
Si Si2 0.751787 0.803188 0.440581
Si Si3 0.525693 0.193015 0.130184
Si Si4 0.857275 0.857173 0.825374
Si Si5 0.344018 0.391901 0.437730
Si Si6 0.332881 0.524213 0.475654
O O1 0.986560 0.573087 0.250000
O O2 0.970593 0.485297 0.151185
O O3 0.877890 0.528937 0.169637
O O4 0.007910 0.619863 0.129839
O O5 0.797883 0.797883 0.500000
O O6 0.745522 0.872761 0.452575
O O7 0.790678 0.806314 0.371759
O O8 0.672654 0.736398 0.439451
O O9 0.607468 0.214935 0.144292
O O10 0.514437 0.257219 0.155568
O O11 0.507846 0.178271 0.053074
O O12 0.832813 0.833393 0.750000
O O13 0.939866 0.879732 0.835423
O O14 0.849366 0.924683 0.845267
O O15 0.389067 0.389067 0.500000
O O16 0.343049 0.465423 0.437033
O O17 0.260573 0.521146 0.451339
O O18 0.398013 0.601988 0.457937
#
# Coordination Sequence:
#
# PCOD8330594 Si02
#       6
#    24  24  24  24  24  24
#     4  10  21  36  53  76 106 139 180 225 264 309
#     4  10  21  35  52  76 106 139 174 216 264 315
#     4   9  17  30  50  77 109 143 178 217 262 313
#     4   9  17  31  52  76 101 131 169 213 261 314
#     4  11  21  35  55  77 103 142 182 216 255 311
#     4  10  19  32  54  82 109 134 169 218 269 315
#
# _framework density 17.666815
#
# number of rings (size 3 to 8) (size 9 to 14) (size 15 to 20)
#    0.000    2.167    1.667    2.000    0.000    3.667 
#    0.000    0.833    0.000    5.167    0.000    0.000 
#    0.000    1.333    0.000    0.000    0.000    0.000 
#
# Total GULP energy -1786105.339692 kJ/mol
# GULP energy per Si atom -12403.509303 kJ/mol
# Density = 1.762660 g / cm^3
# Si number density = 17.666815 Si / 1000 Ang^3
#
#
#
# Elastic Constant Matrix: (Units=GPa)
#
#
# Indices 1 2 3 4 5 6 
#
# 1 94.8739 42.7723 40.3033 0.0000 0.0000 0.0000
# 2 42.7723 94.8739 40.3033 0.0000 0.0000 0.0000
# 3 40.3033 40.3033 78.1876 0.0000 0.0000 0.0000
# 4 0.0000 0.0000 0.0000 23.3469 0.0000 0.0000
# 5 0.0000 0.0000 0.0000 0.0000 23.3469 0.0000
# 6 0.0000 0.0000 0.0000 0.0000 0.0000 26.0508
#
#
#
# Elastic Compliance Matrix: (Units=1/GPa)
#
#
# Indices 1 2 3 4 5 6 
#
# 1 0.014800 -0.004394 -0.005364 0.000000 0.000000 0.000000
# 2 -0.004394 0.014800 -0.005364 0.000000 0.000000 0.000000
# 3 -0.005364 -0.005364 0.018320 0.000000 0.000000 0.000000
# 4 0.000000 0.000000 0.000000 0.042832 0.000000 0.000000
# 5 0.000000 0.000000 0.000000 0.000000 0.042832 0.000000
# 6 0.000000 0.000000 0.000000 0.000000 0.000000 0.038387
#
#
# Mechanical properties :
#
#
# Convention : Reuss Voigt Hill
#
# Bulk Modulus (GPa) = 56.57420 57.18816 56.88118
# Shear Modulus (GPa) = 24.02625 24.18603 24.10614
#
# Velocity S-wave (km/s) = 3.69177 3.70403 3.69790
# Velocity P-wave (km/s) = 7.08975 7.12276 7.10628
#
# Compressibility (1/GPa) = 0.01767590
#
# Stress axis : x y z
#
# Youngs Moduli (GPa) = 67.56866 67.56866 54.58567
#
# Poissons Ratio (x) = 0.29686 0.29280
# Poissons Ratio (y) = 0.29686 0.29280
# Poissons Ratio (z) = 0.36245 0.36245
#
# Static dielectric constant tensor:
#      x y z
#    x 3.233590 0.000000 0.000000 
#    y 0.000000 3.233590 0.000000 
#    z 0.000000 0.000000 3.173810 
# 
# 
# High freq. dielectric constant tensor:
#      x y z
#    x 1.684060 0.000000 0.000000 
#    y 0.000000 1.684060 0.000000 
#    z 0.000000 0.000000 1.669500 
# 
# From -- ./inp_files/8240.got.cif
#   From: 2010.03.12/outbox.cif.g09.slc.cpg/sg194_5_cif.got.tgz:8240.got - 2010.04.01 12:26:19.
