data_PCOD8330885
_publ_section_title
;
Structure prediction by ZEFSAII (Michael W. Deem and Ramdas Pophale) SiO2 
 PCOD8330885
Probable space group: P 21 3
;
_chemical_formula_sum "Si O2"
_cell_formula_units_Z 64
_cell_length_a 15.228115
_cell_length_b 15.228115
_cell_length_c 15.228115
_cell_angle_alpha 90.000000
_cell_angle_beta 90.000000
_cell_angle_gamma 90.000000
_cell_volume 3531.331136
_symmetry_space_group_name_H-M "P 21 3"
_symmetry_group_IT_number 198
_symmetry_cell_setting 'cubic'
loop_
_space_group_symop_operation_xyz
x,y,z
z,x,y
y,z,x
1/2-y,-z,1/2+x
1/2+z,1/2-x,-y
-y,1/2+z,1/2-x
1/2-z,-x,1/2+y
-z,1/2+x,1/2-y
1/2+y,1/2-z,-x
1/2-x,-y,1/2+z
1/2+x,1/2-y,-z
-x,1/2+y,1/2-z
loop_
_atom_site_type_symbol
_atom_site_label
_atom_site_fract_x
_atom_site_fract_y
_atom_site_fract_z
Si Si1 0.071485 0.428517 0.571485
Si Si2 0.190174 0.309828 0.690174
Si Si3 0.410747 0.378394 0.151922
Si Si4 0.326561 0.020607 0.711771
Si Si5 0.202471 0.024494 0.860883
Si Si6 0.319580 0.399729 0.818274
Si Si7 0.676233 0.323769 0.823769
Si Si8 0.202098 0.702097 0.797904
O O1 0.130728 0.369274 0.630727
O O2 0.118664 0.435484 0.476331
O O3 0.238184 0.373380 0.758283
O O4 0.496040 0.320438 0.171910
O O5 0.348208 0.370815 0.237894
O O6 0.360576 0.328818 0.074594
O O7 0.295475 0.032913 0.811915
O O8 0.432130 0.041049 0.710461
O O9 0.280692 0.091582 0.646550
O O10 0.296716 0.925161 0.680867
O O11 0.133135 0.081767 0.803706
O O12 0.736753 0.263249 0.763249
#
# Coordination Sequence:
#
# PCOD8330885 Si02
#       8
#     4   4  12  12  12  12   4   4
#     4  12  24  40  67  84 114 153 223 250 291 373
#     4  12  21  39  61  94 108 163 193 258 312 364
#     4  12  23  42  59  90 120 165 201 257 301 369
#     4  10  19  34  56  90 113 150 191 246 293 349
#     4  10  19  34  61  84 121 147 196 250 296 344
#     4  10  20  36  62  87 118 144 205 251 298 348
#     4  12  21  34  55  81 120 159 190 223 306 367
#     4  12  27  39  55  88 132 163 187 249 327 370
#
# _framework density 18.123476
#
# number of rings (size 3 to 8) (size 9 to 14) (size 15 to 20)
#    1.125    0.000    5.625    2.625    0.000    1.500 
#    0.000    0.000    0.000    0.000    0.000    0.000 
#    0.000    0.000    0.000    0.000    0.000    0.000 
#
# Total GULP energy -792852.514016 kJ/mol
# GULP energy per Si atom -12388.320531 kJ/mol
# Density = 1.808223 g / cm^3
# Si number density = 18.123476 Si / 1000 Ang^3
#
#
#
# Elastic Constant Matrix: (Units=GPa)
#
#
# Indices 1 2 3 4 5 6 
#
# 1 76.1058 39.6618 39.6495 0.0000 0.0000 0.0000
# 2 39.6618 76.0963 39.6551 0.0000 0.0000 0.0000
# 3 39.6495 39.6551 76.1064 0.0000 0.0000 0.0000
# 4 0.0000 0.0000 0.0000 28.3762 0.0000 0.0000
# 5 0.0000 0.0000 0.0000 0.0000 28.3763 0.0000
# 6 0.0000 0.0000 0.0000 0.0000 0.0000 28.3765
#
#
#
# Elastic Compliance Matrix: (Units=1/GPa)
#
#
# Indices 1 2 3 4 5 6 
#
# 1 0.020435 -0.007005 -0.006996 0.000000 0.000000 0.000000
# 2 -0.007005 0.020441 -0.007001 0.000000 0.000000 0.000000
# 3 -0.006996 -0.007001 0.020432 0.000000 0.000000 0.000000
# 4 0.000000 0.000000 0.000000 0.035241 0.000000 0.000000
# 5 0.000000 0.000000 0.000000 0.000000 0.035241 0.000000
# 6 0.000000 0.000000 0.000000 0.000000 0.000000 0.035240
#
#
# Mechanical properties :
#
#
# Convention : Reuss Voigt Hill
#
# Bulk Modulus (GPa) = 51.80458 51.80458 51.80458
# Shear Modulus (GPa) = 23.20517 24.31526 23.76021
#
# Velocity S-wave (km/s) = 3.58214 3.66682 3.62473
# Velocity P-wave (km/s) = 6.76426 6.82449 6.79445
#
# Compressibility (1/GPa) = 0.01930331
#
# Stress axis : x y z
#
# Youngs Moduli (GPa) = 48.93553 48.92193 48.94212
#
# Poissons Ratio (x) = 0.34270 0.34241
# Poissons Ratio (y) = 0.34279 0.34265
# Poissons Ratio (z) = 0.34236 0.34251
#
# Static dielectric constant tensor:
#      x y z
#    x 3.270890 0.000000 0.000000 
#    y 0.000000 3.270880 0.000000 
#    z 0.000000 0.000000 3.270950 
# 
# 
# High freq. dielectric constant tensor:
#      x y z
#    x 1.695760 0.000000 0.000000 
#    y 0.000000 1.695760 0.000000 
#    z 0.000000 0.000000 1.695760 
# 
# From -- ./inp_files/359.got.cif
#   From: 2010.03.12/outbox.cif.g09.slc.cpg/sg198_cif.got.tgz:359.got - 2010.04.01 12:33:50.
