data_PCOD8330670
_publ_section_title
;
Structure prediction by ZEFSAII (Michael W. Deem and Ramdas Pophale) SiO2 
 PCOD8330670
Probable space group: P 63/M M C
;
_chemical_formula_sum "Si O2"
_cell_formula_units_Z 144
_cell_length_a 31.652315
_cell_length_b 31.652315
_cell_length_c 9.120250
_cell_angle_alpha 90.000000
_cell_angle_beta 90.000000
_cell_angle_gamma 120.000000
_cell_volume 7913.130593
_symmetry_space_group_name_H-M "P 63/M M C"
_symmetry_group_IT_number 194
_symmetry_cell_setting 'hexagonal'
loop_
_space_group_symop_operation_xyz
x,y,z
x-y,x,1/2+z
-y,x-y,z
-x,-y,1/2+z
-x+y,-x,z
y,-x+y,1/2+z
x-y,-y,-z
-x,-x+y,-z
y,x,-z
-y,-x,1/2-z
-x+y,y,1/2-z
x,x-y,1/2-z
-x,-y,-z
-x+y,-x,1/2-z
y,-x+y,-z
x,y,1/2-z
x-y,x,-z
-y,x-y,1/2-z
-x+y,y,z
x,x-y,z
-y,-x,z
y,x,1/2+z
x-y,-y,1/2+z
-x,-x+y,1/2+z
loop_
_atom_site_type_symbol
_atom_site_label
_atom_site_fract_x
_atom_site_fract_y
_atom_site_fract_z
Si Si1 0.240531 0.950910 0.422587
Si Si2 0.475632 0.143930 0.076765
Si Si3 0.237864 0.571135 0.925018
Si Si4 0.623626 0.861058 0.578814
Si Si5 0.856399 0.808161 0.921673
Si Si6 0.524318 0.573315 0.921649
O O1 0.250210 0.955942 0.250000
O O2 0.243663 0.905540 0.482433
O O3 0.187345 0.942179 0.463299
O O4 0.281759 0.000000 0.500000
O O5 0.481306 0.144033 0.250000
O O6 0.523688 0.190264 0.011185
O O7 0.429340 0.148749 0.032031
O O8 0.470747 0.093918 0.014931
O O9 0.237613 0.570267 0.750000
O O10 0.285745 0.571490 0.985399
O O11 0.237921 0.618961 0.983958
O O12 0.633970 0.874444 0.750000
O O13 0.626783 0.813392 0.540339
O O14 0.858363 0.817450 0.750000
O O15 0.906084 0.812167 0.979965
O O16 0.849780 0.849780 0.000000
O O17 0.535283 0.577060 0.750000
O O18 0.470114 0.529887 0.958018
O O19 0.564725 0.564725 0.000000
#
# Coordination Sequence:
#
# PCOD8330670 Si02
#       6
#    24  24  24  24  24  24
#     4  10  20  35  54  75 100 129 163 205 251 296
#     4   9  17  29  44  63  90 125 163 200 240 289
#     4   9  15  23  38  62  92 124 158 197 242 292
#     4  10  20  33  49  70  98 133 170 204 241 290
#     4   9  18  32  50  73  99 126 158 196 238 282
#     4   9  17  30  48  68  90 119 157 200 246 295
#
# _framework density 18.197603000000001
#
# number of rings (size 3 to 8) (size 9 to 14) (size 15 to 20)
#    0.000    2.667    0.000    2.167    0.000    7.333 
#    0.000    2.500    0.000    0.167    0.000    0.000 
#    0.000    0.000    0.000    1.000    0.000   21.500 
#
# Total GULP energy -1785761.796277 kJ/mol
# GULP energy per Si atom -12401.123585 kJ/mol
# Density = 1.815618 g / cm^3
# Si number density = 18.197603 Si / 1000 Ang^3
#
#
#
# Elastic Constant Matrix: (Units=GPa)
#
#
# Indices 1 2 3 4 5 6 
#
# 1 153.4342 85.0561 38.2607 0.0000 0.0000 0.0000
# 2 85.0561 153.4342 38.2607 0.0000 0.0000 0.0000
# 3 38.2607 38.2607 34.6967 0.0000 0.0000 0.0000
# 4 0.0000 0.0000 0.0000 19.7220 0.0000 0.0000
# 5 0.0000 0.0000 0.0000 0.0000 19.7220 0.0000
# 6 0.0000 0.0000 0.0000 0.0000 0.0000 34.1891
#
#
#
# Elastic Compliance Matrix: (Units=1/GPa)
#
#
# Indices 1 2 3 4 5 6 
#
# 1 0.010557 -0.004068 -0.007155 0.000000 0.000000 0.000000
# 2 -0.004068 0.010557 -0.007155 0.000000 0.000000 0.000000
# 3 -0.007155 -0.007155 0.044602 0.000000 0.000000 0.000000
# 4 0.000000 0.000000 0.000000 0.050705 0.000000 0.000000
# 5 0.000000 0.000000 0.000000 0.000000 0.050705 0.000000
# 6 0.000000 0.000000 0.000000 0.000000 0.000000 0.029249
#
#
# Mechanical properties :
#
#
# Convention : Reuss Voigt Hill
#
# Bulk Modulus (GPa) = 34.53268 73.85781 54.19524
# Shear Modulus (GPa) = 20.59442 26.72581 23.66011
#
# Velocity S-wave (km/s) = 3.36774 3.83645 3.60971
# Velocity P-wave (km/s) = 5.84294 7.76525 6.87165
#
# Compressibility (1/GPa) = 0.02895808
#
# Stress axis : x y z
#
# Youngs Moduli (GPa) = 94.72624 94.72624 22.42050
#
# Poissons Ratio (x) = 0.38533 0.16043
# Poissons Ratio (y) = 0.38533 0.16043
# Poissons Ratio (z) = 0.67781 0.67781
#
# Static dielectric constant tensor:
#      x y z
#    x 3.500710 0.000000 0.000000 
#    y 0.000000 3.500710 0.000000 
#    z 0.000000 0.000000 2.974690 
# 
# 
# High freq. dielectric constant tensor:
#      x y z
#    x 1.713260 0.000000 0.000000 
#    y 0.000000 1.713260 0.000000 
#    z 0.000000 0.000000 1.661720 
# 
# From -- ./inp_files/2134.got.cif
#   From: 2010.03.12/outbox.cif.g09.slc.cpg/sg194_2_cif.got.tgz:2134.got - 2010.04.01 12:26:19.
