data_PCOD8330538
_publ_section_title
;
Structure prediction by ZEFSAII (Michael W. Deem and Ramdas Pophale) SiO2 
 PCOD8330538
Probable space group: P 63/M M C
;
_chemical_formula_sum "Si O2"
_cell_formula_units_Z 156
_cell_length_a 21.942193
_cell_length_b 21.942193
_cell_length_c 20.563198
_cell_angle_alpha 90.000000
_cell_angle_beta 90.000000
_cell_angle_gamma 120.000000
_cell_volume 8573.957974
_symmetry_space_group_name_H-M "P 63/M M C"
_symmetry_group_IT_number 194
_symmetry_cell_setting 'hexagonal'
loop_
_space_group_symop_operation_xyz
x,y,z
x-y,x,1/2+z
-y,x-y,z
-x,-y,1/2+z
-x+y,-x,z
y,-x+y,1/2+z
x-y,-y,-z
-x,-x+y,-z
y,x,-z
-y,-x,1/2-z
-x+y,y,1/2-z
x,x-y,1/2-z
-x,-y,-z
-x+y,-x,1/2-z
y,-x+y,-z
x,y,1/2-z
x-y,x,-z
-y,x-y,1/2-z
-x+y,y,z
x,x-y,z
-y,-x,z
y,x,1/2+z
x-y,-y,1/2+z
-x,-x+y,1/2+z
loop_
_atom_site_type_symbol
_atom_site_label
_atom_site_fract_x
_atom_site_fract_y
_atom_site_fract_z
Si Si1 0.523350 0.190766 0.012858
Si Si2 0.625875 0.513608 0.618203
Si Si3 0.807318 0.334059 0.750000
Si Si4 0.237963 0.187613 0.439484
Si Si5 0.240002 0.049347 0.823059
Si Si6 0.354283 0.347464 0.677831
Si Si7 0.127711 0.393098 0.894793
O O1 0.592546 0.185091 0.028270
O O2 0.544531 0.272266 0.015665
O O3 0.462167 0.144359 0.064053
O O4 0.491971 0.161488 0.941602
O O5 0.545550 0.454451 0.611789
O O6 0.660229 0.510375 0.685655
O O7 0.626011 0.586955 0.621237
O O8 0.741120 0.258881 0.750000
O O9 0.782532 0.391266 0.750000
O O10 0.214023 0.214023 0.500000
O O11 0.213967 0.106984 0.450863
O O12 0.197725 0.188629 0.374073
O O13 0.322478 0.235553 0.437586
O O14 0.208027 0.028125 0.750000
O O15 0.252624 0.126312 0.841920
O O16 0.313575 0.050520 0.826109
O O17 0.386393 0.372001 0.750000
O O18 0.306531 0.383324 0.665212
O O19 0.200369 0.400738 0.867517
#
# Coordination Sequence:
#
# PCOD8330538 Si02
#       7
#    24  24  12  24  24  24  24
#     4  10  21  37  56  79 107 143 185 229 273 318
#     4  10  21  34  49  74 108 145 180 217 265 320
#     4  10  19  32  48  70 101 142 188 226 260 304
#     4  10  20  34  54  79 107 139 173 217 267 317
#     4   9  19  34  53  78 105 136 177 217 260 315
#     4  10  20  35  55  79 109 143 175 220 273 322
#     4   9  21  37  55  81 108 137 179 225 270 321
#
# _framework density 18.194631999999999
#
# number of rings (size 3 to 8) (size 9 to 14) (size 15 to 20)
#    0.000    2.308    0.769    1.154    4.308    2.462 
#    0.000    6.154    0.000    2.769    0.000    0.000 
#    0.000    1.231    0.000    0.000    0.000    0.000 
#
# Total GULP energy -1933861.968455 kJ/mol
# GULP energy per Si atom -12396.551080 kJ/mol
# Density = 1.815322 g / cm^3
# Si number density = 18.194632 Si / 1000 Ang^3
#
#
#
# Elastic Constant Matrix: (Units=GPa)
#
#
# Indices 1 2 3 4 5 6 
#
# 1 91.2721 53.9704 33.3510 0.0000 0.0000 0.0000
# 2 53.9704 91.2721 33.3510 0.0000 0.0000 0.0000
# 3 33.3510 33.3510 50.6749 0.0000 0.0000 0.0000
# 4 0.0000 0.0000 0.0000 28.0323 0.0000 0.0000
# 5 0.0000 0.0000 0.0000 0.0000 28.0323 0.0000
# 6 0.0000 0.0000 0.0000 0.0000 0.0000 18.6508
#
#
#
# Elastic Compliance Matrix: (Units=1/GPa)
#
#
# Indices 1 2 3 4 5 6 
#
# 1 0.018338 -0.008471 -0.006494 0.000000 0.000000 0.000000
# 2 -0.008471 0.018338 -0.006494 0.000000 0.000000 0.000000
# 3 -0.006494 -0.006494 0.028282 0.000000 0.000000 0.000000
# 4 0.000000 0.000000 0.000000 0.035673 0.000000 0.000000
# 5 0.000000 0.000000 0.000000 0.000000 0.035673 0.000000
# 6 0.000000 0.000000 0.000000 0.000000 0.000000 0.053617
#
#
# Mechanical properties :
#
#
# Convention : Reuss Voigt Hill
#
# Bulk Modulus (GPa) = 45.37195 52.72934 49.05064
# Shear Modulus (GPa) = 20.81729 22.44619 21.63174
#
# Velocity S-wave (km/s) = 3.38619 3.51618 3.45180
# Velocity P-wave (km/s) = 6.34661 6.74747 6.55011
#
# Compressibility (1/GPa) = 0.02204005
#
# Stress axis : x y z
#
# Youngs Moduli (GPa) = 54.53171 54.53171 35.35858
#
# Poissons Ratio (x) = 0.46191 0.22962
# Poissons Ratio (y) = 0.46191 0.22962
# Poissons Ratio (z) = 0.35414 0.35414
#
# Static dielectric constant tensor:
#      x y z
#    x 3.404200 0.000000 0.000000 
#    y 0.000000 3.404200 0.000000 
#    z 0.000000 0.000000 3.393420 
# 
# 
# High freq. dielectric constant tensor:
#      x y z
#    x 1.703320 0.000000 0.000000 
#    y 0.000000 1.703320 0.000000 
#    z 0.000000 0.000000 1.700750 
# 
# From -- ./inp_files/8365.got.cif
#   From: 2010.03.12/outbox.cif.g09.slc.cpg/sg194_5_cif.got.tgz:8365.got - 2010.04.01 12:26:19.
