data_PCOD8330240
_publ_section_title
;
Structure prediction by ZEFSAII (Michael W. Deem and Ramdas Pophale) SiO2 
 PCOD8330240
Probable space group: P 63/M C M
;
_chemical_formula_sum "Si O2"
_cell_formula_units_Z 80
_cell_length_a 16.593783
_cell_length_b 16.593783
_cell_length_c 17.730287
_cell_angle_alpha 90.000000
_cell_angle_beta 90.000000
_cell_angle_gamma 120.000000
_cell_volume 4228.021725
_symmetry_space_group_name_H-M "P 63/M C M"
_symmetry_group_IT_number 193
_symmetry_cell_setting 'hexagonal'
loop_
_space_group_symop_operation_xyz
x,y,z
x-y,x,1/2+z
-y,x-y,z
-x,-y,1/2+z
-x+y,-x,z
y,-x+y,1/2+z
x-y,-y,1/2-z
-x,-x+y,1/2-z
y,x,1/2-z
-y,-x,-z
-x+y,y,-z
x,x-y,-z
-x,-y,-z
-x+y,-x,1/2-z
y,-x+y,-z
x,y,1/2-z
x-y,x,-z
-y,x-y,1/2-z
-x+y,y,1/2+z
x,x-y,1/2+z
-y,-x,1/2+z
y,x,z
x-y,-y,z
-x,-x+y,z
loop_
_atom_site_type_symbol
_atom_site_label
_atom_site_fract_x
_atom_site_fract_y
_atom_site_fract_z
Si Si1 0.000000 0.370561 0.168006
Si Si2 0.712942 0.819198 0.918637
Si Si3 0.333334 0.666668 0.839583
Si Si4 0.000000 0.179939 0.166860
Si Si5 0.539945 0.800543 0.659478
O O1 0.098210 0.441577 0.127823
O O2 0.000000 0.412560 0.250000
O O3 0.000000 0.275007 0.176354
O O4 0.737463 0.737463 0.925618
O O5 0.616967 0.777652 0.871928
O O6 0.799404 0.907554 0.878369
O O7 0.695416 0.847708 0.000000
O O8 0.333334 0.666668 0.750000
O O9 0.284385 0.561162 0.869738
O O10 0.000000 0.139169 0.250000
O O11 0.547481 0.804185 0.750000
#
# Coordination Sequence:
#
# PCOD8330240 Si02
#       5
#    12  24   8  12  24
#     4   7  12  26  50  74  96 134 180 218 265 329
#     4  11  21  36  56  81 115 152 192 237 287 341
#     4   9  18  36  58  86 118 144 184 248 301 333
#     4   9  18  34  55  78 109 150 193 236 279 329
#     4   9  18  34  57  82 111 147 188 234 287 341
#
# _framework density 18.921378000000001
#
# number of rings (size 3 to 8) (size 9 to 14) (size 15 to 20)
#    0.000    2.700    1.500    2.700    0.000    2.400 
#    3.600    2.250    0.000    1.800    0.000    0.000 
#    0.000    0.000    0.000    0.000    0.000    0.000 
#
# Total GULP energy -991229.204443 kJ/mol
# GULP energy per Si atom -12390.365056 kJ/mol
# Density = 1.887831 g / cm^3
# Si number density = 18.921378 Si / 1000 Ang^3
#
#
#
# Elastic Constant Matrix: (Units=GPa)
#
#
# Indices 1 2 3 4 5 6 
#
# 1 120.2546 71.8416 22.9194 0.0001 0.0000 -0.0002
# 2 71.8416 120.2534 22.9196 0.0001 0.0000 0.0000
# 3 22.9194 22.9196 62.9231 0.0001 0.0000 0.0001
# 4 0.0001 0.0001 0.0001 19.6737 0.0000 0.0000
# 5 0.0000 0.0000 0.0000 0.0000 19.6734 0.0000
# 6 -0.0002 0.0000 0.0001 0.0000 0.0000 24.2067
#
#
#
# Elastic Compliance Matrix: (Units=1/GPa)
#
#
# Indices 1 2 3 4 5 6 
#
# 1 0.013178 -0.007477 -0.002077 0.000000 0.000000 0.000000
# 2 -0.007477 0.013179 -0.002077 0.000000 0.000000 0.000000
# 3 -0.002077 -0.002077 0.017405 0.000000 0.000000 0.000000
# 4 0.000000 0.000000 0.000000 0.050829 0.000000 0.000000
# 5 0.000000 0.000000 0.000000 0.000000 0.050830 0.000000
# 6 0.000000 0.000000 0.000000 0.000000 0.000000 0.041311
#
#
# Mechanical properties :
#
#
# Convention : Reuss Voigt Hill
#
# Bulk Modulus (GPa) = 48.77773 59.86578 54.32175
# Shear Modulus (GPa) = 23.05981 25.09414 24.07697
#
# Velocity S-wave (km/s) = 3.49480 3.64570 3.57105
# Velocity P-wave (km/s) = 6.48999 7.03060 6.76570
#
# Compressibility (1/GPa) = 0.02050116
#
# Stress axis : x y z
#
# Youngs Moduli (GPa) = 75.88123 75.88033 57.45389
#
# Poissons Ratio (x) = 0.56738 0.11931
# Poissons Ratio (y) = 0.56739 0.11932
# Poissons Ratio (z) = 0.15758 0.15758
#
# Static dielectric constant tensor:
#      x y z
#    x 3.540960 0.000000 0.000000 
#    y 0.000000 3.540970 0.000000 
#    z 0.000000 0.000000 3.333870 
# 
# 
# High freq. dielectric constant tensor:
#      x y z
#    x 1.721720 0.000000 0.000000 
#    y 0.000000 1.721720 0.000000 
#    z 0.000000 0.000000 1.711700 
# 
# From -- ./inp_files/5052.got.cif
#   From: 2010.03.12/outbox.cif.g09.slc.cpg/sg193_3_cif.got.tgz:5052.got - 2010.04.01 12:20:39.
