data_PCOD8330852
_publ_section_title
;
Structure prediction by ZEFSAII (Michael W. Deem and Ramdas Pophale) SiO2 
 PCOD8330852
Probable space group: P 63/M M C
;
_chemical_formula_sum "Si O2"
_cell_formula_units_Z 96
_cell_length_a 27.669128
_cell_length_b 27.669128
_cell_length_c 9.479171
_cell_angle_alpha 90.000000
_cell_angle_beta 90.000000
_cell_angle_gamma 120.000000
_cell_volume 6284.806840
_symmetry_space_group_name_H-M "P 63/M M C"
_symmetry_group_IT_number 194
_symmetry_cell_setting 'hexagonal'
loop_
_space_group_symop_operation_xyz
x,y,z
x-y,x,1/2+z
-y,x-y,z
-x,-y,1/2+z
-x+y,-x,z
y,-x+y,1/2+z
x-y,-y,-z
-x,-x+y,-z
y,x,-z
-y,-x,1/2-z
-x+y,y,1/2-z
x,x-y,1/2-z
-x,-y,-z
-x+y,-x,1/2-z
y,-x+y,-z
x,y,1/2-z
x-y,x,-z
-y,x-y,1/2-z
-x+y,y,z
x,x-y,z
-y,-x,z
y,x,1/2+z
x-y,-y,1/2+z
-x,-x+y,1/2+z
loop_
_atom_site_type_symbol
_atom_site_label
_atom_site_fract_x
_atom_site_fract_y
_atom_site_fract_z
Si Si1 0.164598 0.946086 0.913841
Si Si2 0.164041 0.436039 0.917588
Si Si3 0.669754 0.946136 0.585207
Si Si4 0.225070 0.665970 0.582255
O O1 0.162999 0.958976 0.750000
O O2 0.106768 0.893233 0.963354
O O3 0.213550 0.932288 0.945301
O O4 0.173950 0.000000 0.000000
O O5 0.163999 0.432283 0.750000
O O6 0.213050 0.426099 0.977157
O O7 0.104785 0.387896 0.974878
O O8 0.176259 0.497496 0.965908
O O9 0.666151 0.956923 0.750000
O O10 0.679415 0.000000 0.500000
O O11 0.226645 0.664469 0.750000
O O12 0.213401 0.606701 0.519060
O O13 0.284858 0.715142 0.527173
#
# Coordination Sequence:
#
# PCOD8330852 Si02
#       4
#    24  24  24  24
#     4   9  17  28  42  60  80 101 125 154 188 224
#     4   8  13  21  34  51  70  96 129 158 185 224
#     4   9  16  26  40  57  77 101 128 157 188 223
#     4   8  12  17  27  46  72  99 125 155 192 230
#
# _framework density 15.274931
#
# number of rings (size 3 to 8) (size 9 to 14) (size 15 to 20)
#    0.000    3.500    0.000    2.500    0.000    4.500 
#    0.000    0.000    0.000    3.250    0.000    0.000 
#    0.000    0.000    0.000    0.750    0.000    6.750 
#
# Total GULP energy -1189714.403021 kJ/mol
# GULP energy per Si atom -12392.858365 kJ/mol
# Density = 1.524016 g / cm^3
# Si number density = 15.274931 Si / 1000 Ang^3
#
#
#
# Elastic Constant Matrix: (Units=GPa)
#
#
# Indices 1 2 3 4 5 6 
#
# 1 137.4106 80.3809 28.1725 0.0000 0.0000 0.0000
# 2 80.3809 137.4106 28.1725 0.0000 0.0000 0.0000
# 3 28.1725 28.1725 18.7764 0.0000 0.0000 0.0000
# 4 0.0000 0.0000 0.0000 11.6922 0.0000 0.0000
# 5 0.0000 0.0000 0.0000 0.0000 11.6922 0.0000
# 6 0.0000 0.0000 0.0000 0.0000 0.0000 28.5149
#
#
#
# Elastic Compliance Matrix: (Units=1/GPa)
#
#
# Indices 1 2 3 4 5 6 
#
# 1 0.012520 -0.005015 -0.011260 0.000000 0.000000 0.000000
# 2 -0.005015 0.012520 -0.011260 0.000000 0.000000 0.000000
# 3 -0.011260 -0.011260 0.087048 0.000000 0.000000 0.000000
# 4 0.000000 0.000000 0.000000 0.085527 0.000000 0.000000
# 5 0.000000 0.000000 0.000000 0.000000 0.085527 0.000000
# 6 0.000000 0.000000 0.000000 0.000000 0.000000 0.035069
#
#
# Mechanical properties :
#
#
# Convention : Reuss Voigt Hill
#
# Bulk Modulus (GPa) = 17.53863 63.00549 40.27206
# Shear Modulus (GPa) = 12.74573 20.83796 16.79185
#
# Velocity S-wave (km/s) = 2.89177 3.69751 3.31918
# Velocity P-wave (km/s) = 4.75990 7.71790 6.41181
#
# Compressibility (1/GPa) = 0.05701698
#
# Stress axis : x y z
#
# Youngs Moduli (GPa) = 79.87418 79.87418 11.48787
#
# Poissons Ratio (x) = 0.40057 0.12936
# Poissons Ratio (y) = 0.40057 0.12936
# Poissons Ratio (z) = 0.89940 0.89940
#
# Static dielectric constant tensor:
#      x y z
#    x 3.096170 0.000000 0.000000 
#    y 0.000000 3.096170 0.000000 
#    z 0.000000 0.000000 2.472910 
# 
# 
# High freq. dielectric constant tensor:
#      x y z
#    x 1.581620 0.000000 0.000000 
#    y 0.000000 1.581620 0.000000 
#    z 0.000000 0.000000 1.532490 
# 
# From -- ./inp_files/3042.got.cif
#   From: 2010.03.12/outbox.cif.g09.slc.cpg/sg194_2_cif.got.tgz:3042.got - 2010.04.01 12:26:19.
