data_PCOD8330962
_publ_section_title
;
Structure prediction by ZEFSAII (Michael W. Deem and Ramdas Pophale) SiO2 
 PCOD8330962
Probable space group: I A 3
;
_chemical_formula_sum "Si O2"
_cell_formula_units_Z 352
_cell_length_a 27.140250
_cell_length_b 27.140250
_cell_length_c 27.140250
_cell_angle_alpha 90.000000
_cell_angle_beta 90.000000
_cell_angle_gamma 90.000000
_cell_volume 19991.322784
_symmetry_space_group_name_H-M "I A 3"
_symmetry_group_IT_number 206
_symmetry_cell_setting 'cubic'
loop_
_space_group_symop_operation_xyz
x,y,z
z,x,y
y,z,x
-y,1/2-z,x
z,-x,1/2-y
1/2-y,z,-x
-z,1/2-x,y
1/2-z,x,-y
y,-z,1/2-x
-x,1/2-y,z
x,-y,1/2-z
1/2-x,y,-z
-x,-y,-z
-z,-x,-y
-y,-z,-x
y,1/2+z,-x
-z,x,1/2+y
1/2+y,-z,x
z,1/2+x,-y
1/2+z,-x,y
-y,z,1/2+x
x,1/2+y,-z
-x,y,1/2+z
1/2+x,-y,z
1/2+x,1/2+y,1/2+z
1/2+z,1/2+x,1/2+y
1/2+y,1/2+z,1/2+x
1/2-y,-z,1/2+x
1/2+z,1/2-x,-y
-y,1/2+z,1/2-x
1/2-z,-x,1/2+y
-z,1/2+x,1/2-y
1/2+y,1/2-z,-x
1/2-x,-y,1/2+z
1/2+x,1/2-y,-z
-x,1/2+y,1/2-z
1/2-x,1/2-y,1/2-z
1/2-z,1/2-x,1/2-y
1/2-y,1/2-z,1/2-x
1/2+y,z,1/2-x
1/2-z,1/2+x,y
y,1/2-z,1/2+x
1/2+z,x,1/2-y
z,1/2-x,1/2+y
1/2-y,1/2+z,x
1/2+x,y,1/2-z
1/2-x,1/2+y,z
x,1/2-y,1/2+z
loop_
_atom_site_type_symbol
_atom_site_label
_atom_site_fract_x
_atom_site_fract_y
_atom_site_fract_z
Si Si1 0.588252 0.826891 0.326187
Si Si2 0.992801 0.128869 0.300420
Si Si3 0.724958 0.048508 0.052198
Si Si4 0.466182 0.966181 0.533820
Si Si5 0.673732 0.696840 0.304363
Si Si6 0.336095 0.566116 0.717058
Si Si7 0.965906 0.535576 0.879708
Si Si8 0.926743 0.373440 0.430642
O O1 0.552794 0.865696 0.297421
O O2 0.644044 0.823046 0.303684
O O3 0.562254 0.773811 0.320789
O O4 0.589741 0.841471 0.383673
O O5 0.970993 0.099281 0.254455
O O6 0.971363 0.184264 0.304127
O O7 0.978674 0.098732 0.349344
O O8 0.712459 0.106079 0.055199
O O9 0.673557 0.019241 0.056021
O O10 0.750000 0.035887 0.000000
O O11 0.470365 0.910130 0.516032
O O12 0.500000 0.000000 0.500000
O O13 0.701738 0.744560 0.325878
O O14 0.619252 0.695450 0.324871
O O15 0.929745 0.573357 0.908365
O O16 0.936961 0.484751 0.872289
#
# Coordination Sequence:
#
# PCOD8330962 Si02
#       8
#    48  48  48  16  48  48  48  48
#     4  11  21  33  51  82 116 148 183 227 287 345
#     4  12  21  32  52  79 115 149 182 218 283 354
#     4  12  22  34  54  83 115 151 187 223 288 352
#     4  12  24  36  57  81 111 150 201 225 289 326
#     4  10  20  35  55  80 109 141 187 238 292 340
#     4  11  19  33  54  81 115 144 178 234 296 357
#     4  12  22  35  52  80 115 148 190 236 269 347
#     4  12  18  30  53  78 111 148 175 224 283 335
#
# _framework density 17.607638999999999
#
# number of rings (size 3 to 8) (size 9 to 14) (size 15 to 20)
#    0.000    0.545    8.182    2.182    0.000    0.000 
#    0.000    0.000    0.000    3.273    0.000    0.955 
#    0.000    0.000    0.000    0.000    0.000    0.000 
#
# Total GULP energy -2181525.002619 kJ/mol
# GULP energy per Si atom -12395.028424 kJ/mol
# Density = 1.756756 g / cm^3
# Si number density = 17.607639 Si / 1000 Ang^3
#
#
#
# Elastic Constant Matrix: (Units=GPa)
#
#
# Indices 1 2 3 4 5 6 
#
# 1 63.8144 32.1554 32.1562 0.0000 0.0000 0.0000
# 2 32.1554 63.8157 32.1553 0.0000 0.0000 0.0000
# 3 32.1562 32.1553 63.8166 0.0000 0.0000 0.0000
# 4 0.0000 0.0000 0.0000 16.2013 0.0000 0.0000
# 5 0.0000 0.0000 0.0000 0.0000 16.2018 0.0000
# 6 0.0000 0.0000 0.0000 0.0000 0.0000 16.2017
#
#
#
# Elastic Compliance Matrix: (Units=1/GPa)
#
#
# Indices 1 2 3 4 5 6 
#
# 1 0.023659 -0.007927 -0.007927 0.000000 0.000000 0.000000
# 2 -0.007927 0.023658 -0.007926 0.000000 0.000000 0.000000
# 3 -0.007927 -0.007926 0.023658 0.000000 0.000000 0.000000
# 4 0.000000 0.000000 0.000000 0.061723 0.000000 0.000000
# 5 0.000000 0.000000 0.000000 0.000000 0.061722 0.000000
# 6 0.000000 0.000000 0.000000 0.000000 0.000000 0.061722
#
#
# Mechanical properties :
#
#
# Convention : Reuss Voigt Hill
#
# Bulk Modulus (GPa) = 42.70893 42.70893 42.70893
# Shear Modulus (GPa) = 16.05087 16.05295 16.05191
#
# Velocity S-wave (km/s) = 3.02252 3.02272 3.02262
# Velocity P-wave (km/s) = 6.04065 6.04078 6.04071
#
# Compressibility (1/GPa) = 0.02341430
#
# Stress axis : x y z
#
# Youngs Moduli (GPa) = 42.26645 42.26839 42.26846
#
# Poissons Ratio (x) = 0.33506 0.33508
# Poissons Ratio (y) = 0.33505 0.33504
# Poissons Ratio (z) = 0.33506 0.33504
#
# Static dielectric constant tensor:
#      x y z
#    x 3.340160 0.000000 0.000000 
#    y 0.000000 3.340190 0.000000 
#    z 0.000000 0.000000 3.340170 
# 
# 
# High freq. dielectric constant tensor:
#      x y z
#    x 1.670500 0.000000 0.000000 
#    y 0.000000 1.670500 0.000000 
#    z 0.000000 0.000000 1.670500 
# 
# From -- ./inp_files/640.got.cif
#   From: 2010.03.12/outbox.cif.g09.slc.cpg/sg206_cif.got.tgz:640.got - 2010.03.30 09:03:11.
