data_PCOD8330647
_publ_section_title
;
Structure prediction by ZEFSAII (Michael W. Deem and Ramdas Pophale) SiO2 
 PCOD8330647
Probable space group: P 63/M M C
;
_chemical_formula_sum "Si O2"
_cell_formula_units_Z 144
_cell_length_a 32.122895
_cell_length_b 32.122895
_cell_length_c 9.240225
_cell_angle_alpha 90.000000
_cell_angle_beta 90.000000
_cell_angle_gamma 120.000000
_cell_volume 8257.385007
_symmetry_space_group_name_H-M "P 63/M M C"
_symmetry_group_IT_number 194
_symmetry_cell_setting 'hexagonal'
loop_
_space_group_symop_operation_xyz
x,y,z
x-y,x,1/2+z
-y,x-y,z
-x,-y,1/2+z
-x+y,-x,z
y,-x+y,1/2+z
x-y,-y,-z
-x,-x+y,-z
y,x,-z
-y,-x,1/2-z
-x+y,y,1/2-z
x,x-y,1/2-z
-x,-y,-z
-x+y,-x,1/2-z
y,-x+y,-z
x,y,1/2-z
x-y,x,-z
-y,x-y,1/2-z
-x+y,y,z
x,x-y,z
-y,-x,z
y,x,1/2+z
x-y,-y,1/2+z
-x,-x+y,1/2+z
loop_
_atom_site_type_symbol
_atom_site_label
_atom_site_fract_x
_atom_site_fract_y
_atom_site_fract_z
Si Si1 0.564993 0.951970 0.415627
Si Si2 0.722658 0.614908 0.581348
Si Si3 0.898432 0.198337 0.083830
Si Si4 0.190302 0.048237 0.419251
Si Si5 0.145582 0.620573 0.419071
Si Si6 0.526714 0.811324 0.582126
O O1 0.563605 0.964493 0.250000
O O2 0.604057 0.935435 0.444359
O O3 0.512849 0.909059 0.465458
O O4 0.577873 0.000000 0.500000
O O5 0.732709 0.611915 0.750000
O O6 0.757679 0.667833 0.521206
O O7 0.732408 0.577155 0.496465
O O8 0.905708 0.215629 0.250000
O O9 0.844108 0.155893 0.059935
O O10 0.935461 0.180581 0.041013
O O11 0.182109 0.039208 0.250000
O O12 0.178704 0.089352 0.468864
O O13 0.153803 0.000000 0.500000
O O14 0.152312 0.634754 0.250000
O O15 0.156962 0.578481 0.453292
O O16 0.182573 0.666927 0.510548
O O17 0.532244 0.826107 0.750000
O O18 0.512244 0.756122 0.563024
#
# Coordination Sequence:
#
# PCOD8330647 Si02
#       6
#    24  24  24  24  24  24
#     4   9  19  33  47  67  96 129 165 204 244 283
#     4  10  20  32  47  70 100 133 170 209 244 282
#     4   9  18  32  48  68  97 130 162 198 240 286
#     4   9  19  35  53  74 100 129 162 201 245 293
#     4   9  19  36  55  75 100 128 161 204 249 294
#     4  10  20  33  51  76 103 130 162 201 246 296
#
# _framework density 17.438935000000001
#
# number of rings (size 3 to 8) (size 9 to 14) (size 15 to 20)
#    0.000    2.667    0.000    3.500    0.000    9.333 
#    0.000    5.000    0.000    0.500    0.000    0.000 
#    0.000    0.000    0.000    0.000    0.000    0.000 
#
# Total GULP energy -1785763.148167 kJ/mol
# GULP energy per Si atom -12401.132973 kJ/mol
# Density = 1.739924 g / cm^3
# Si number density = 17.438935 Si / 1000 Ang^3
#
#
#
# Elastic Constant Matrix: (Units=GPa)
#
#
# Indices 1 2 3 4 5 6 
#
# 1 93.6826 54.3904 55.7821 0.0000 0.0000 0.0000
# 2 54.3904 93.6826 55.7821 0.0000 0.0000 0.0000
# 3 55.7821 55.7821 90.2098 0.0000 0.0000 0.0000
# 4 0.0000 0.0000 0.0000 30.8596 0.0000 0.0000
# 5 0.0000 0.0000 0.0000 0.0000 30.8596 0.0000
# 6 0.0000 0.0000 0.0000 0.0000 0.0000 19.6461
#
#
#
# Elastic Compliance Matrix: (Units=1/GPa)
#
#
# Indices 1 2 3 4 5 6 
#
# 1 0.019047 -0.006403 -0.007819 0.000000 0.000000 0.000000
# 2 -0.006403 0.019047 -0.007819 0.000000 0.000000 0.000000
# 3 -0.007819 -0.007819 0.020755 0.000000 0.000000 0.000000
# 4 0.000000 0.000000 0.000000 0.032405 0.000000 0.000000
# 5 0.000000 0.000000 0.000000 0.000000 0.032405 0.000000
# 6 0.000000 0.000000 0.000000 0.000000 0.000000 0.050901
#
#
# Mechanical properties :
#
#
# Convention : Reuss Voigt Hill
#
# Bulk Modulus (GPa) = 67.71132 67.72046 67.71589
# Shear Modulus (GPa) = 22.36498 23.71444 23.03971
#
# Velocity S-wave (km/s) = 3.58505 3.69162 3.63873
# Velocity P-wave (km/s) = 7.48657 7.55566 7.52119
#
# Compressibility (1/GPa) = 0.01476858
#
# Stress axis : x y z
#
# Youngs Moduli (GPa) = 52.50070 52.50070 48.18132
#
# Poissons Ratio (x) = 0.33616 0.37672
# Poissons Ratio (y) = 0.33616 0.37672
# Poissons Ratio (z) = 0.41049 0.41049
#
# Static dielectric constant tensor:
#      x y z
#    x 3.137300 0.000000 0.000000 
#    y 0.000000 3.137300 0.000000 
#    z 0.000000 0.000000 3.224890 
# 
# 
# High freq. dielectric constant tensor:
#      x y z
#    x 1.663830 0.000000 0.000000 
#    y 0.000000 1.663830 0.000000 
#    z 0.000000 0.000000 1.676890 
# 
# From -- ./inp_files/2115.got.cif
#   From: 2010.03.12/outbox.cif.g09.slc.cpg/sg194_2_cif.got.tgz:2115.got - 2010.04.01 12:26:19.
