data_PCOD8330731
_publ_section_title
;
Structure prediction by ZEFSAII (Michael W. Deem and Ramdas Pophale) SiO2 
 PCOD8330731
Probable space group: P 63/M M C
;
_chemical_formula_sum "Si O2"
_cell_formula_units_Z 88
_cell_length_a 25.318013
_cell_length_b 25.318013
_cell_length_c 8.499741
_cell_angle_alpha 90.000000
_cell_angle_beta 90.000000
_cell_angle_gamma 120.000000
_cell_volume 4718.408755
_symmetry_space_group_name_H-M "P 63/M M C"
_symmetry_group_IT_number 194
_symmetry_cell_setting 'hexagonal'
loop_
_space_group_symop_operation_xyz
x,y,z
x-y,x,1/2+z
-y,x-y,z
-x,-y,1/2+z
-x+y,-x,z
y,-x+y,1/2+z
x-y,-y,-z
-x,-x+y,-z
y,x,-z
-y,-x,1/2-z
-x+y,y,1/2-z
x,x-y,1/2-z
-x,-y,-z
-x+y,-x,1/2-z
y,-x+y,-z
x,y,1/2-z
x-y,x,-z
-y,x-y,1/2-z
-x+y,y,z
x,x-y,z
-y,-x,z
y,x,1/2+z
x-y,-y,1/2+z
-x,-x+y,1/2+z
loop_
_atom_site_type_symbol
_atom_site_label
_atom_site_fract_x
_atom_site_fract_y
_atom_site_fract_z
Si Si1 0.300051 0.478672 0.064947
Si Si2 0.640511 0.705904 0.934355
Si Si3 0.599933 0.199865 0.434611
Si Si4 0.243754 0.182519 0.567794
Si Si5 0.333334 0.666667 0.434241
O O1 0.303521 0.487766 0.250000
O O2 0.240751 0.481501 0.000320
O O3 0.295492 0.415300 0.023836
O O4 0.363543 0.530102 0.990406
O O5 0.626557 0.695826 0.750000
O O6 0.653564 0.653564 0.000000
O O7 0.697737 0.772278 0.966133
O O8 0.601810 0.203620 0.250000
O O9 0.632888 0.265775 0.507080
O O10 0.186239 0.186239 0.500000
O O11 0.256439 0.202542 0.750000
O O12 0.227926 0.113963 0.542930
O O13 0.333334 0.666667 0.250000
#
# Coordination Sequence:
#
# PCOD8330731 Si02
#       5
#    24  24  12  24   4
#     4  11  23  39  60  84 115 150 186 227 281 336
#     4  11  22  37  58  83 113 147 187 230 278 329
#     4  12  24  38  59  87 116 146 188 234 277 332
#     4  10  20  34  54  81 112 146 185 228 278 330
#     4  12  22  38  58  81 115 152 184 228 286 332
#
# _framework density 18.650355999999999
#
# number of rings (size 3 to 8) (size 9 to 14) (size 15 to 20)
#    0.000    1.091    1.364    8.182    0.000    7.091 
#    0.000    0.682    0.000    0.273    0.000    0.000 
#    0.000    0.000    0.000    0.000    0.000    0.000 
#
# Total GULP energy -1091385.589823 kJ/mol
# GULP energy per Si atom -12402.108975 kJ/mol
# Density = 1.860791 g / cm^3
# Si number density = 18.650356 Si / 1000 Ang^3
#
#
#
# Elastic Constant Matrix: (Units=GPa)
#
#
# Indices 1 2 3 4 5 6 
#
# 1 89.7963 61.3949 26.3765 0.0000 0.0000 0.0001
# 2 61.3949 89.7961 26.3766 0.0001 0.0000 -0.0001
# 3 26.3765 26.3766 99.6486 0.0000 0.0000 0.0001
# 4 0.0000 0.0001 0.0000 33.1956 0.0000 0.0000
# 5 0.0000 0.0000 0.0000 0.0000 33.1955 0.0000
# 6 0.0001 -0.0001 0.0001 0.0000 0.0000 14.2007
#
#
#
# Elastic Compliance Matrix: (Units=1/GPa)
#
#
# Indices 1 2 3 4 5 6 
#
# 1 0.021248 -0.013961 -0.001929 0.000000 0.000000 0.000000
# 2 -0.013961 0.021248 -0.001929 0.000000 0.000000 0.000000
# 3 -0.001929 -0.001929 0.011056 0.000000 0.000000 0.000000
# 4 0.000000 0.000000 0.000000 0.030125 0.000000 0.000000
# 5 0.000000 0.000000 0.000000 0.000000 0.030125 0.000000
# 6 0.000000 0.000000 0.000000 0.000000 0.000000 0.070419
#
#
# Mechanical properties :
#
#
# Convention : Reuss Voigt Hill
#
# Bulk Modulus (GPa) = 55.81851 56.39299 56.10575
# Shear Modulus (GPa) = 22.14042 27.12454 24.63248
#
# Velocity S-wave (km/s) = 3.44922 3.81776 3.63816
# Velocity P-wave (km/s) = 6.77176 7.05240 6.91350
#
# Compressibility (1/GPa) = 0.01791520
#
# Stress axis : x y z
#
# Youngs Moduli (GPa) = 47.06245 47.06227 90.44536
#
# Poissons Ratio (x) = 0.65705 0.17446
# Poissons Ratio (y) = 0.65705 0.17446
# Poissons Ratio (z) = 0.09078 0.09078
#
# Static dielectric constant tensor:
#      x y z
#    x 3.576470 0.000000 0.000000 
#    y 0.000000 3.576470 0.000000 
#    z 0.000000 0.000000 3.606540 
# 
# 
# High freq. dielectric constant tensor:
#      x y z
#    x 1.720670 0.000000 0.000000 
#    y 0.000000 1.720670 0.000000 
#    z 0.000000 0.000000 1.743980 
# 
# From -- ./inp_files/1466.got.cif
#   From: 2010.03.12/outbox.cif.g09.slc.cpg/sg194_1_cif.got.tgz:1466.got - 2010.04.01 12:26:19.
