data_PCOD8330659
_publ_section_title
;
Structure prediction by ZEFSAII (Michael W. Deem and Ramdas Pophale) SiO2 
 PCOD8330659
Probable space group: P 63/M M C
;
_chemical_formula_sum "Si O2"
_cell_formula_units_Z 132
_cell_length_a 17.842421
_cell_length_b 17.842421
_cell_length_c 25.986856
_cell_angle_alpha 90.000000
_cell_angle_beta 90.000000
_cell_angle_gamma 120.000000
_cell_volume 7164.599801
_symmetry_space_group_name_H-M "P 63/M M C"
_symmetry_group_IT_number 194
_symmetry_cell_setting 'hexagonal'
loop_
_space_group_symop_operation_xyz
x,y,z
x-y,x,1/2+z
-y,x-y,z
-x,-y,1/2+z
-x+y,-x,z
y,-x+y,1/2+z
x-y,-y,-z
-x,-x+y,-z
y,x,-z
-y,-x,1/2-z
-x+y,y,1/2-z
x,x-y,1/2-z
-x,-y,-z
-x+y,-x,1/2-z
y,-x+y,-z
x,y,1/2-z
x-y,x,-z
-y,x-y,1/2-z
-x+y,y,z
x,x-y,z
-y,-x,z
y,x,1/2+z
x-y,-y,1/2+z
-x,-x+y,1/2+z
loop_
_atom_site_type_symbol
_atom_site_label
_atom_site_fract_x
_atom_site_fract_y
_atom_site_fract_z
Si Si1 0.826856 0.000227 0.558344
Si Si2 0.332438 0.496974 0.920162
Si Si3 0.426993 0.022741 0.879032
Si Si4 0.291896 0.232467 0.845767
Si Si5 0.497734 0.164912 0.961831
Si Si6 0.999554 0.175168 0.750000
O O1 0.816783 0.908392 0.572749
O O2 0.794161 0.000000 0.500000
O O3 0.770791 0.020512 0.598506
O O4 0.927804 0.072196 0.563204
O O5 0.240472 0.480945 0.899064
O O6 0.401875 0.598126 0.914213
O O7 0.361496 0.439722 0.888106
O O8 0.324010 0.468317 0.979307
O O9 0.518814 0.037627 0.857158
O O10 0.379916 0.055077 0.839192
O O11 0.442056 0.076019 0.931489
O O12 0.317424 0.158712 0.840386
O O13 0.227654 0.224603 0.800726
O O14 0.599695 0.199390 0.956170
O O15 0.480040 0.240020 0.940605
O O16 0.923126 0.076875 0.750000
O O17 0.087547 0.175094 0.750000
#
# Coordination Sequence:
#
# PCOD8330659 Si02
#       6
#    24  24  24  24  24  12
#     4   9  17  29  47  73 107 145 179 209 246 301
#     4   9  17  28  43  64  92 129 171 213 254 298
#     4  10  20  33  48  68  95 127 164 207 259 313
#     4  10  21  36  53  76 105 135 170 213 258 298
#     4   9  16  27  44  66  94 129 169 210 251 299
#     4  10  21  38  61  86 112 142 174 206 237 276
#
# _framework density 18.423918
#
# number of rings (size 3 to 8) (size 9 to 14) (size 15 to 20)
#    0.000    2.545    0.000    2.273    0.000    7.273 
#    0.000    5.909    0.000    0.364    0.000    0.000 
#    0.000    0.000    0.000    0.000    0.000    0.000 
#
# Total GULP energy -1636518.250675 kJ/mol
# GULP energy per Si atom -12397.865535 kJ/mol
# Density = 1.838198 g / cm^3
# Si number density = 18.423918 Si / 1000 Ang^3
#
#
#
# Elastic Constant Matrix: (Units=GPa)
#
#
# Indices 1 2 3 4 5 6 
#
# 1 99.7936 49.6365 32.4889 0.0000 0.0000 0.0000
# 2 49.6365 99.7936 32.4889 0.0000 0.0000 0.0000
# 3 32.4889 32.4889 69.5881 0.0000 0.0000 0.0000
# 4 0.0000 0.0000 0.0000 17.6765 0.0000 0.0000
# 5 0.0000 0.0000 0.0000 0.0000 17.6765 0.0000
# 6 0.0000 0.0000 0.0000 0.0000 0.0000 25.0785
#
#
#
# Elastic Compliance Matrix: (Units=1/GPa)
#
#
# Indices 1 2 3 4 5 6 
#
# 1 0.014167 -0.005770 -0.003920 0.000000 0.000000 0.000000
# 2 -0.005770 0.014167 -0.003920 0.000000 0.000000 0.000000
# 3 -0.003920 -0.003920 0.018031 0.000000 0.000000 0.000000
# 4 0.000000 0.000000 0.000000 0.056572 0.000000 0.000000
# 5 0.000000 0.000000 0.000000 0.000000 0.056572 0.000000
# 6 0.000000 0.000000 0.000000 0.000000 0.000000 0.039875
#
#
# Mechanical properties :
#
#
# Convention : Reuss Voigt Hill
#
# Bulk Modulus (GPa) = 52.23741 55.37824 53.80782
# Shear Modulus (GPa) = 21.46043 22.39036 21.92540
#
# Velocity S-wave (km/s) = 3.41664 3.48988 3.45345
# Velocity P-wave (km/s) = 6.63168 6.80897 6.72091
#
# Compressibility (1/GPa) = 0.01914337
#
# Stress axis : x y z
#
# Youngs Moduli (GPa) = 70.58628 70.58628 55.46063
#
# Poissons Ratio (x) = 0.40730 0.21742
# Poissons Ratio (y) = 0.40730 0.21742
# Poissons Ratio (z) = 0.27672 0.27672
#
# Static dielectric constant tensor:
#      x y z
#    x 3.444180 0.000000 0.000000 
#    y 0.000000 3.444180 0.000000 
#    z 0.000000 0.000000 3.089580 
# 
# 
# High freq. dielectric constant tensor:
#      x y z
#    x 1.719650 0.000000 0.000000 
#    y 0.000000 1.719650 0.000000 
#    z 0.000000 0.000000 1.666920 
# 
# From -- ./inp_files/10761.got.cif
#   From: 2010.03.12/outbox.cif.g09.slc.cpg/sg194_6_cif.got.tgz:10761.got - 2010.04.01 12:26:19.
