data_PCOD8330054
_publ_section_title
;
Structure prediction by ZEFSAII (Michael W. Deem and Ramdas Pophale) SiO2 
 PCOD8330054
Probable space group: P 63/M C M
;
_chemical_formula_sum "Si O2"
_cell_formula_units_Z 128
_cell_length_a 18.933719
_cell_length_b 18.933719
_cell_length_c 22.998703
_cell_angle_alpha 90.000000
_cell_angle_beta 90.000000
_cell_angle_gamma 120.000000
_cell_volume 7140.125270
_symmetry_space_group_name_H-M "P 63/M C M"
_symmetry_group_IT_number 193
_symmetry_cell_setting 'hexagonal'
loop_
_space_group_symop_operation_xyz
x,y,z
x-y,x,1/2+z
-y,x-y,z
-x,-y,1/2+z
-x+y,-x,z
y,-x+y,1/2+z
x-y,-y,1/2-z
-x,-x+y,1/2-z
y,x,1/2-z
-y,-x,-z
-x+y,y,-z
x,x-y,-z
-x,-y,-z
-x+y,-x,1/2-z
y,-x+y,-z
x,y,1/2-z
x-y,x,-z
-y,x-y,1/2-z
-x+y,y,1/2+z
x,x-y,1/2+z
-y,-x,1/2+z
y,x,z
x-y,-y,z
-x,-x+y,z
loop_
_atom_site_type_symbol
_atom_site_label
_atom_site_fract_x
_atom_site_fract_y
_atom_site_fract_z
Si Si1 0.415620 0.174727 0.867581
Si Si2 0.166908 0.579133 0.872441
Si Si3 0.091560 0.667419 0.583419
Si Si4 0.333334 0.666667 0.928421
Si Si5 0.908676 0.624214 0.250000
Si Si6 0.549953 0.456508 0.750000
Si Si7 0.328225 0.090785 0.978516
O O1 0.497390 0.170532 0.877731
O O2 0.424989 0.263655 0.875255
O O3 0.375947 0.142888 0.805042
O O4 0.353260 0.109073 0.912209
O O5 0.098498 0.585290 0.911589
O O6 0.249496 0.652623 0.900088
O O7 0.147189 0.593423 0.805989
O O8 0.107807 0.700910 0.517406
O O9 0.000000 0.644605 0.602811
O O10 0.333334 0.666667 0.000000
O O11 0.916918 0.544831 0.250000
O O12 0.000000 0.702717 0.250000
O O13 0.471199 0.471199 0.750000
O O14 0.255223 0.000000 0.985164
O O15 0.291195 0.145598 0.000000
#
# Coordination Sequence:
#
# PCOD8330054 Si02
#       7
#    24  24  24   8  12  12  24
#     4  10  20  34  54  74 104 140 181 226 281 330
#     4  11  22  37  56  76 105 149 190 240 290 337
#     4  10  21  35  52  79 109 140 184 231 278 337
#     4  12  27  37  56  79 114 153 202 248 292 351
#     4   9  18  33  52  76 101 129 172 220 266 330
#     4   9  20  37  57  78 103 131 180 242 296 346
#     4   9  19  34  54  77 104 136 171 215 272 335
#
# _framework density 17.926856000000001
#
# number of rings (size 3 to 8) (size 9 to 14) (size 15 to 20)
#    0.000    2.062    1.875    1.125    2.625    3.750 
#    0.000    3.281    0.000    0.188    0.000    0.000 
#    0.000    0.000    0.000    1.875    0.000    1.500 
#
# Total GULP energy -1585705.833070 kJ/mol
# GULP energy per Si atom -12388.326821 kJ/mol
# Density = 1.788605 g / cm^3
# Si number density = 17.926856 Si / 1000 Ang^3
#
#
#
# Elastic Constant Matrix: (Units=GPa)
#
#
# Indices 1 2 3 4 5 6 
#
# 1 91.5368 53.1611 54.2798 -0.0001 0.0000 0.0000
# 2 53.1611 91.5373 54.2801 0.0000 0.0000 0.0000
# 3 54.2798 54.2801 138.2552 0.0000 0.0001 0.0001
# 4 -0.0001 0.0000 0.0000 21.2099 0.0000 0.0000
# 5 0.0000 0.0000 0.0001 0.0000 21.2098 0.0000
# 6 0.0000 0.0000 0.0001 0.0000 0.0000 19.1878
#
#
#
# Elastic Compliance Matrix: (Units=1/GPa)
#
#
# Indices 1 2 3 4 5 6 
#
# 1 0.017927 -0.008131 -0.003846 0.000000 0.000000 0.000000
# 2 -0.008131 0.017927 -0.003846 0.000000 0.000000 0.000000
# 3 -0.003846 -0.003846 0.010253 0.000000 0.000000 0.000000
# 4 0.000000 0.000000 0.000000 0.047148 0.000000 0.000000
# 5 0.000000 0.000000 0.000000 0.000000 0.047148 0.000000
# 6 0.000000 0.000000 0.000000 0.000000 0.000000 0.052117
#
#
# Mechanical properties :
#
#
# Convention : Reuss Voigt Hill
#
# Bulk Modulus (GPa) = 69.14957 71.64127 70.39542
# Shear Modulus (GPa) = 21.83533 22.96205 22.39869
#
# Velocity S-wave (km/s) = 3.49381 3.58281 3.53859
# Velocity P-wave (km/s) = 7.41164 7.56077 7.48658
#
# Compressibility (1/GPa) = 0.01446141
#
# Stress axis : x y z
#
# Youngs Moduli (GPa) = 55.78088 55.78103 97.53165
#
# Poissons Ratio (x) = 0.45354 0.37512
# Poissons Ratio (y) = 0.45354 0.37513
# Poissons Ratio (z) = 0.21454 0.21455
#
# Static dielectric constant tensor:
#      x y z
#    x 3.277670 0.000000 0.000000 
#    y 0.000000 3.277670 0.000000 
#    z 0.000000 0.000000 3.509970 
# 
# 
# High freq. dielectric constant tensor:
#      x y z
#    x 1.678570 0.000000 0.000000 
#    y 0.000000 1.678570 0.000000 
#    z 0.000000 0.000000 1.699880 
# 
# From -- ./inp_files/6519.got.cif
#   From: 2010.03.12/outbox.cif.g09.slc.cpg/sg193_4_cif.got.tgz:6519.got - 2010.04.01 12:20:39.
