data_PCOD8330796
_publ_section_title
;
Structure prediction by ZEFSAII (Michael W. Deem and Ramdas Pophale) SiO2 
 PCOD8330796
Probable space group: P 63/M M C
;
_chemical_formula_sum "Si O2"
_cell_formula_units_Z 144
_cell_length_a 23.690399
_cell_length_b 23.690399
_cell_length_c 14.650898
_cell_angle_alpha 90.000000
_cell_angle_beta 90.000000
_cell_angle_gamma 120.000000
_cell_volume 7120.977722
_symmetry_space_group_name_H-M "P 63/M M C"
_symmetry_group_IT_number 194
_symmetry_cell_setting 'hexagonal'
loop_
_space_group_symop_operation_xyz
x,y,z
x-y,x,1/2+z
-y,x-y,z
-x,-y,1/2+z
-x+y,-x,z
y,-x+y,1/2+z
x-y,-y,-z
-x,-x+y,-z
y,x,-z
-y,-x,1/2-z
-x+y,y,1/2-z
x,x-y,1/2-z
-x,-y,-z
-x+y,-x,1/2-z
y,-x+y,-z
x,y,1/2-z
x-y,x,-z
-y,x-y,1/2-z
-x+y,y,z
x,x-y,z
-y,-x,z
y,x,1/2+z
x-y,-y,1/2+z
-x,-x+y,1/2+z
loop_
_atom_site_type_symbol
_atom_site_label
_atom_site_fract_x
_atom_site_fract_y
_atom_site_fract_z
Si Si1 0.337059 0.374905 0.644728
Si Si2 0.641964 0.157579 0.350693
Si Si3 0.473247 0.396771 0.857835
Si Si4 0.332167 0.792089 0.457182
Si Si5 0.874328 0.999929 0.107510
Si Si6 0.801505 0.729742 0.355201
O O1 0.336341 0.357271 0.750000
O O2 0.341451 0.443197 0.630876
O O3 0.402830 0.380706 0.602756
O O4 0.268959 0.319256 0.598772
O O5 0.668508 0.189606 0.250000
O O6 0.563620 0.127239 0.353737
O O7 0.674325 0.208824 0.432434
O O8 0.471994 0.384091 0.750000
O O9 0.528503 0.471498 0.880122
O O10 0.486984 0.346333 0.912328
O O11 0.388371 0.776742 0.428326
O O12 0.264424 0.735577 0.417203
O O13 0.861328 0.930664 0.147513
O O14 0.815215 0.011798 0.134615
O O15 0.941786 0.058215 0.149041
O O16 0.880426 0.000000 0.000000
O O17 0.797404 0.710579 0.250000
O O18 0.861597 0.723193 0.399742
#
# Coordination Sequence:
#
# PCOD8330796 Si02
#       6
#    24  24  24  24  24  24
#     4   9  17  32  54  76 102 137 170 206 258 314
#     4   9  18  33  54  79 104 132 172 219 264 314
#     4   9  18  34  56  80 105 135 177 227 271 310
#     4  10  21  36  53  76 106 141 179 221 270 322
#     4   9  17  31  50  70  92 122 162 208 253 295
#     4   9  18  32  49  71 101 135 167 200 247 309
#
# _framework density 20.221941999999999
#
# number of rings (size 3 to 8) (size 9 to 14) (size 15 to 20)
#    0.000    2.833    0.000    0.833    0.000    5.000 
#    3.000    5.000    0.000    6.000    0.000    0.000 
#    0.000    0.000    0.000    0.000    0.000    0.000 
#
# Total GULP energy -1784423.404125 kJ/mol
# GULP energy per Si atom -12391.829195 kJ/mol
# Density = 2.017592 g / cm^3
# Si number density = 20.221942 Si / 1000 Ang^3
#
#
#
# Elastic Constant Matrix: (Units=GPa)
#
#
# Indices 1 2 3 4 5 6 
#
# 1 130.8811 81.4227 9.1637 0.0000 0.0000 0.0000
# 2 81.4227 130.8811 9.1637 0.0000 0.0000 0.0000
# 3 9.1637 9.1637 32.3914 0.0000 0.0000 0.0000
# 4 0.0000 0.0000 0.0000 16.7851 0.0000 0.0000
# 5 0.0000 0.0000 0.0000 0.0000 16.7851 0.0000
# 6 0.0000 0.0000 0.0000 0.0000 0.0000 24.7292
#
#
#
# Elastic Compliance Matrix: (Units=1/GPa)
#
#
# Indices 1 2 3 4 5 6 
#
# 1 0.012524 -0.007695 -0.001366 0.000000 0.000000 0.000000
# 2 -0.007695 0.012524 -0.001366 0.000000 0.000000 0.000000
# 3 -0.001366 -0.001366 0.031645 0.000000 0.000000 0.000000
# 4 0.000000 0.000000 0.000000 0.059577 0.000000 0.000000
# 5 0.000000 0.000000 0.000000 0.000000 0.059577 0.000000
# 6 0.000000 0.000000 0.000000 0.000000 0.000000 0.040438
#
#
# Mechanical properties :
#
#
# Convention : Reuss Voigt Hill
#
# Bulk Modulus (GPa) = 27.90340 54.85042 41.37691
# Shear Modulus (GPa) = 20.07350 24.62008 22.34679
#
# Velocity S-wave (km/s) = 3.15407 3.49305 3.32788
# Velocity P-wave (km/s) = 5.20507 6.59178 5.93904
#
# Compressibility (1/GPa) = 0.03583792
#
# Stress axis : x y z
#
# Youngs Moduli (GPa) = 79.84933 79.84933 31.60028
#
# Poissons Ratio (x) = 0.61448 0.04316
# Poissons Ratio (y) = 0.61448 0.04316
# Poissons Ratio (z) = 0.10907 0.10907
#
# Static dielectric constant tensor:
#      x y z
#    x 3.739470 0.000000 0.000000 
#    y 0.000000 3.739470 0.000000 
#    z 0.000000 0.000000 3.521080 
# 
# 
# High freq. dielectric constant tensor:
#      x y z
#    x 1.781970 0.000000 0.000000 
#    y 0.000000 1.781970 0.000000 
#    z 0.000000 0.000000 1.769930 
# 
# From -- ./inp_files/6995.got.cif
#   From: 2010.03.12/outbox.cif.g09.slc.cpg/sg194_4_cif.got.tgz:6995.got - 2010.04.01 12:26:19.
