data_PCOD8330557
_publ_section_title
;
Structure prediction by ZEFSAII (Michael W. Deem and Ramdas Pophale) SiO2 
 PCOD8330557
Probable space group: P 63/M M C
;
_chemical_formula_sum "Si O2"
_cell_formula_units_Z 144
_cell_length_a 21.709259
_cell_length_b 21.709259
_cell_length_c 20.785499
_cell_angle_alpha 90.000000
_cell_angle_beta 90.000000
_cell_angle_gamma 120.000000
_cell_volume 8483.617646
_symmetry_space_group_name_H-M "P 63/M M C"
_symmetry_group_IT_number 194
_symmetry_cell_setting 'hexagonal'
loop_
_space_group_symop_operation_xyz
x,y,z
x-y,x,1/2+z
-y,x-y,z
-x,-y,1/2+z
-x+y,-x,z
y,-x+y,1/2+z
x-y,-y,-z
-x,-x+y,-z
y,x,-z
-y,-x,1/2-z
-x+y,y,1/2-z
x,x-y,1/2-z
-x,-y,-z
-x+y,-x,1/2-z
y,-x+y,-z
x,y,1/2-z
x-y,x,-z
-y,x-y,1/2-z
-x+y,y,z
x,x-y,z
-y,-x,z
y,x,1/2+z
x-y,-y,1/2+z
-x,-x+y,1/2+z
loop_
_atom_site_type_symbol
_atom_site_label
_atom_site_fract_x
_atom_site_fract_y
_atom_site_fract_z
Si Si1 0.880510 0.263189 0.014686
Si Si2 0.139514 0.000065 0.429480
Si Si3 0.333158 0.808142 0.588605
Si Si4 0.397692 0.936144 0.677945
Si Si5 0.196682 0.941359 0.178239
Si Si6 0.673334 0.012069 0.599924
O O1 0.821361 0.178640 0.009122
O O2 0.841690 0.307591 0.032601
O O3 0.940691 0.274163 0.067110
O O4 0.921198 0.296448 0.948117
O O5 0.055614 0.944387 0.432659
O O6 0.177240 0.981682 0.374288
O O7 0.172519 0.000000 0.500000
O O8 0.151849 0.075925 0.410550
O O9 0.403467 0.806933 0.564803
O O10 0.271404 0.728597 0.605412
O O11 0.349488 0.855389 0.652808
O O12 0.370973 0.939211 0.750000
O O13 0.479688 0.959376 0.679320
O O14 0.394842 0.991857 0.628645
O O15 0.193300 0.968019 0.250000
O O16 0.143328 0.856673 0.172778
O O17 0.276256 0.961694 0.162182
#
# Coordination Sequence:
#
# PCOD8330557 Si02
#       6
#    24  24  24  24  24  24
#     4   9  19  32  47  71  96 120 158 200 236 280
#     4   9  18  32  50  69  89 117 154 198 244 289
#     4   9  17  30  48  71  99 129 157 190 233 281
#     4   9  18  32  49  70  95 122 158 199 232 272
#     4  10  21  34  47  68  96 124 158 199 243 294
#     4  10  19  32  51  68  90 128 158 192 243 289
#
# _framework density 16.973891999999999
#
# number of rings (size 3 to 8) (size 9 to 14) (size 15 to 20)
#    0.000    2.667    0.000    1.333    2.333    2.667 
#    0.000    3.333    0.000    5.000    0.000    0.000 
#    0.000    0.000    0.000    0.000    0.000    8.833 
#
# Total GULP energy -1784668.557924 kJ/mol
# GULP energy per Si atom -12393.531652 kJ/mol
# Density = 1.693526 g / cm^3
# Si number density = 16.973892 Si / 1000 Ang^3
#
#
#
# Elastic Constant Matrix: (Units=GPa)
#
#
# Indices 1 2 3 4 5 6 
#
# 1 85.0100 44.8659 49.0503 0.0000 0.0000 0.0000
# 2 44.8659 85.0100 49.0503 0.0000 0.0000 0.0000
# 3 49.0503 49.0503 118.0825 0.0000 0.0000 0.0000
# 4 0.0000 0.0000 0.0000 21.9322 0.0000 0.0000
# 5 0.0000 0.0000 0.0000 0.0000 21.9322 0.0000
# 6 0.0000 0.0000 0.0000 0.0000 0.0000 20.0720
#
#
#
# Elastic Compliance Matrix: (Units=1/GPa)
#
#
# Indices 1 2 3 4 5 6 
#
# 1 0.018065 -0.006845 -0.004661 0.000000 0.000000 0.000000
# 2 -0.006845 0.018065 -0.004661 0.000000 0.000000 0.000000
# 3 -0.004661 -0.004661 0.012341 0.000000 0.000000 0.000000
# 4 0.000000 0.000000 0.000000 0.045595 0.000000 0.000000
# 5 0.000000 0.000000 0.000000 0.000000 0.045595 0.000000
# 6 0.000000 0.000000 0.000000 0.000000 0.000000 0.049821
#
#
# Mechanical properties :
#
#
# Convention : Reuss Voigt Hill
#
# Bulk Modulus (GPa) = 61.96553 63.78172 62.87362
# Shear Modulus (GPa) = 22.00763 22.46303 22.23533
#
# Velocity S-wave (km/s) = 3.60468 3.64179 3.62328
# Velocity P-wave (km/s) = 7.34238 7.43918 7.39094
#
# Compressibility (1/GPa) = 0.01613800
#
# Stress axis : x y z
#
# Youngs Moduli (GPa) = 55.35510 55.35510 81.03278
#
# Poissons Ratio (x) = 0.37891 0.37767
# Poissons Ratio (y) = 0.37891 0.37767
# Poissons Ratio (z) = 0.25799 0.25799
#
# Static dielectric constant tensor:
#      x y z
#    x 3.205340 0.000000 0.000000 
#    y 0.000000 3.205340 0.000000 
#    z 0.000000 0.000000 3.253030 
# 
# 
# High freq. dielectric constant tensor:
#      x y z
#    x 1.650070 0.000000 0.000000 
#    y 0.000000 1.650070 0.000000 
#    z 0.000000 0.000000 1.653670 
# 
# From -- ./inp_files/8250.got.cif
#   From: 2010.03.12/outbox.cif.g09.slc.cpg/sg194_5_cif.got.tgz:8250.got - 2010.04.01 12:26:19.
