data_PCOD8330870
_publ_section_title
;
Structure prediction by ZEFSAII (Michael W. Deem and Ramdas Pophale) SiO2 
 PCOD8330870
Probable space group: P 2 3
;
_chemical_formula_sum "Si O2"
_cell_formula_units_Z 25
_cell_length_a 11.112233
_cell_length_b 11.112233
_cell_length_c 11.112233
_cell_angle_alpha 90.000000
_cell_angle_beta 90.000000
_cell_angle_gamma 90.000000
_cell_volume 1372.157669
_symmetry_space_group_name_H-M "P 2 3"
_symmetry_group_IT_number 195
_symmetry_cell_setting 'cubic'
loop_
_space_group_symop_operation_xyz
x,y,z
z,x,y
y,z,x
-y,-z,x
z,-x,-y
-y,z,-x
-z,-x,y
-z,x,-y
y,-z,-x
-x,-y,z
x,-y,-z
-x,y,-z
loop_
_atom_site_type_symbol
_atom_site_label
_atom_site_fract_x
_atom_site_fract_y
_atom_site_fract_z
Si Si1 0.864786 0.357737 0.513665
Si Si2 0.744324 0.255679 0.744323
Si Si3 0.090543 0.909460 0.909459
Si Si4 0.665200 0.665200 0.665201
Si Si5 0.500000 0.500000 0.500000
O O1 0.854687 0.500000 0.500000
O O2 0.824624 0.322572 0.646621
O O3 0.783378 0.296438 0.409885
O O4 0.000000 0.310518 0.500000
O O5 0.827381 0.172621 0.827381
O O6 0.000000 0.000000 0.832996
O O7 0.582149 0.582149 0.582149
#
# Coordination Sequence:
#
# PCOD8330870 Si02
#       5
#    12   4   4   4   1
#     4  11  23  37  59  96 125 157 210 261 324 389
#     4  12  19  43  72  85 130 172 209 274 321 397
#     4   6  18  43  62  91 117 169 233 256 312 384
#     4  12  18  40  59  85 126 165 199 254 328 396
#     4  12  16  28  66  88  88 168 208 218 340 400
#
# _framework density 18.219480999999998
#
# number of rings (size 3 to 8) (size 9 to 14) (size 15 to 20)
#    0.960    0.480    7.200    0.000    0.000    0.000 
#    8.640    0.000    0.000    0.000    0.000    0.000 
#    0.000    0.000    0.000    0.000    0.000    0.000 
#
# Total GULP energy -309749.933554 kJ/mol
# GULP energy per Si atom -12389.997342 kJ/mol
# Density = 1.817801 g / cm^3
# Si number density = 18.219481 Si / 1000 Ang^3
#
#
#
# Elastic Constant Matrix: (Units=GPa)
#
#
# Indices 1 2 3 4 5 6 
#
# 1 124.0395 54.0840 54.0835 0.0000 0.0000 0.0000
# 2 54.0840 124.0400 54.0841 0.0000 0.0000 0.0000
# 3 54.0835 54.0841 124.0392 0.0000 0.0000 0.0000
# 4 0.0000 0.0000 0.0000 54.3763 0.0000 0.0000
# 5 0.0000 0.0000 0.0000 0.0000 53.9957 0.0000
# 6 0.0000 0.0000 0.0000 0.0000 0.0000 54.1785
#
#
#
# Elastic Compliance Matrix: (Units=1/GPa)
#
#
# Indices 1 2 3 4 5 6 
#
# 1 0.010965 -0.003329 -0.003329 0.000000 0.000000 0.000000
# 2 -0.003329 0.010965 -0.003329 0.000000 0.000000 0.000000
# 3 -0.003329 -0.003329 0.010965 0.000000 0.000000 0.000000
# 4 0.000000 0.000000 0.000000 0.018390 0.000000 0.000000
# 5 0.000000 0.000000 0.000000 0.000000 0.018520 0.000000
# 6 0.000000 0.000000 0.000000 0.000000 0.000000 0.018457
#
#
# Mechanical properties :
#
#
# Convention : Reuss Voigt Hill
#
# Bulk Modulus (GPa) = 77.40245 77.40245 77.40245
# Shear Modulus (GPa) = 44.42593 46.50125 45.46359
#
# Velocity S-wave (km/s) = 4.94335 5.05749 5.00075
# Velocity P-wave (km/s) = 8.66936 8.75670 8.71314
#
# Compressibility (1/GPa) = 0.01291949
#
# Stress axis : x y z
#
# Youngs Moduli (GPa) = 91.19657 91.19654 91.19620
#
# Poissons Ratio (x) = 0.30363 0.30363
# Poissons Ratio (y) = 0.30363 0.30363
# Poissons Ratio (z) = 0.30363 0.30363
#
# Static dielectric constant tensor:
#      x y z
#    x 3.518340 0.000000 0.000000 
#    y 0.000000 3.518610 0.000000 
#    z 0.000000 0.000000 3.518970 
# 
# 
# High freq. dielectric constant tensor:
#      x y z
#    x 1.698440 0.000000 0.000000 
#    y 0.000000 1.698440 0.000000 
#    z 0.000000 0.000000 1.698440 
# 
# From -- ./inp_files/72.got.cif
#   From: 2010.03.12/outbox.cif.g09.slc.cpg/sg195_cif.got.tgz:72.got - 2010.04.01 12:33:13.
