data_PCOD8330215
_publ_section_title
;
Structure prediction by ZEFSAII (Michael W. Deem and Ramdas Pophale) SiO2 
 PCOD8330215
Probable space group: P 63/M C M
;
_chemical_formula_sum "Si O2"
_cell_formula_units_Z 80
_cell_length_a 16.188380
_cell_length_b 16.188380
_cell_length_c 18.869151
_cell_angle_alpha 90.000000
_cell_angle_beta 90.000000
_cell_angle_gamma 120.000000
_cell_volume 4282.425064
_symmetry_space_group_name_H-M "P 63/M C M"
_symmetry_group_IT_number 193
_symmetry_cell_setting 'hexagonal'
loop_
_space_group_symop_operation_xyz
x,y,z
x-y,x,1/2+z
-y,x-y,z
-x,-y,1/2+z
-x+y,-x,z
y,-x+y,1/2+z
x-y,-y,1/2-z
-x,-x+y,1/2-z
y,x,1/2-z
-y,-x,-z
-x+y,y,-z
x,x-y,-z
-x,-y,-z
-x+y,-x,1/2-z
y,-x+y,-z
x,y,1/2-z
x-y,x,-z
-y,x-y,1/2-z
-x+y,y,1/2+z
x,x-y,1/2+z
-y,-x,1/2+z
y,x,z
x-y,-y,z
-x,-x+y,z
loop_
_atom_site_type_symbol
_atom_site_label
_atom_site_fract_x
_atom_site_fract_y
_atom_site_fract_z
Si Si1 0.809388 0.000000 0.083813
Si Si2 0.000000 0.809391 0.583810
Si Si3 0.641875 0.641875 0.670041
Si Si4 0.666668 0.333334 0.916715
Si Si5 0.000000 0.358109 0.170046
Si Si6 0.574140 0.425847 0.669786
O O1 0.813307 0.906654 0.108655
O O2 0.718743 0.000000 0.117447
O O3 0.797676 0.000000 0.000001
O O4 0.000000 0.718745 0.617439
O O5 0.676674 0.676674 0.750000
O O6 0.629332 0.538645 0.657113
O O7 0.773234 0.386644 0.889619
O O8 0.666668 0.333334 0.000000
O O9 0.090686 0.461341 0.157130
O O10 0.000000 0.323290 0.250000
O O11 0.594668 0.405344 0.750000
#
# Coordination Sequence:
#
# PCOD8330215 Si02
#       6
#    12  12  12   8  12  24
#     4  10  22  39  59  83 116 154 189 230 287 349
#     4  10  22  39  59  83 116 154 189 230 287 349
#     4   9  20  39  63  86 110 148 196 241 286 337
#     4  12  25  35  55  90 124 155 193 234 277 338
#     4   9  20  39  63  86 110 148 196 241 286 337
#     4   9  20  40  60  82 116 156 193 235 287 340
#
# _framework density 18.681004999999999
#
# number of rings (size 3 to 8) (size 9 to 14) (size 15 to 20)
#    0.000    2.400    0.000    3.000    4.200    4.800 
#    0.000    3.000    0.000    1.800    0.000    0.000 
#    0.000    0.000    0.000    0.000    0.000    0.000 
#
# Total GULP energy -991842.121413 kJ/mol
# GULP energy per Si atom -12398.026518 kJ/mol
# Density = 1.863849 g / cm^3
# Si number density = 18.681005 Si / 1000 Ang^3
#
#
#
# Elastic Constant Matrix: (Units=GPa)
#
#
# Indices 1 2 3 4 5 6 
#
# 1 121.9767 70.5444 64.0149 -0.0002 0.0000 0.0002
# 2 70.5444 121.9765 64.0147 -0.0001 0.0000 0.0000
# 3 64.0149 64.0147 103.6090 -0.0004 0.0000 0.0001
# 4 -0.0002 -0.0001 -0.0004 36.4909 0.0000 0.0000
# 5 0.0000 0.0000 0.0000 0.0000 36.4909 0.0001
# 6 0.0002 0.0000 0.0001 0.0000 0.0001 25.7155
#
#
#
# Elastic Compliance Matrix: (Units=1/GPa)
#
#
# Indices 1 2 3 4 5 6 
#
# 1 0.014130 -0.005313 -0.005448 0.000000 0.000000 0.000000
# 2 -0.005313 0.014130 -0.005448 0.000000 0.000000 0.000000
# 3 -0.005448 -0.005448 0.016383 0.000000 0.000000 0.000000
# 4 0.000000 0.000000 0.000000 0.027404 0.000000 0.000000
# 5 0.000000 0.000000 0.000000 0.000000 0.027404 0.000000
# 6 0.000000 0.000000 0.000000 0.000000 0.000000 0.038887
#
#
# Mechanical properties :
#
#
# Convention : Reuss Voigt Hill
#
# Bulk Modulus (GPa) = 81.78686 82.74558 82.26622
# Shear Modulus (GPa) = 28.59916 29.67202 29.13559
#
# Velocity S-wave (km/s) = 3.91694 3.98974 3.95351
# Velocity P-wave (km/s) = 8.02075 8.10026 8.06060
#
# Compressibility (1/GPa) = 0.01222690
#
# Stress axis : x y z
#
# Youngs Moduli (GPa) = 70.77136 70.77141 61.03819
#
# Poissons Ratio (x) = 0.37601 0.33251
# Poissons Ratio (y) = 0.37601 0.33251
# Poissons Ratio (z) = 0.38553 0.38553
#
# Static dielectric constant tensor:
#      x y z
#    x 3.486570 0.000000 0.000000 
#    y 0.000000 3.486580 0.000000 
#    z 0.000000 0.000000 3.289730 
# 
# 
# High freq. dielectric constant tensor:
#      x y z
#    x 1.735700 0.000000 0.000000 
#    y 0.000000 1.735700 0.000000 
#    z 0.000000 0.000000 1.715760 
# 
# From -- ./inp_files/5065.got.cif
#   From: 2010.03.12/outbox.cif.g09.slc.cpg/sg193_3_cif.got.tgz:5065.got - 2010.04.01 12:20:39.
