data_PCOD8330346
_publ_section_title
;
Structure prediction by ZEFSAII (Michael W. Deem and Ramdas Pophale) SiO2 
 PCOD8330346
Probable space group: P 63/M M C
;
_chemical_formula_sum "Si O2"
_cell_formula_units_Z 108
_cell_length_a 31.735603
_cell_length_b 31.735603
_cell_length_c 8.817628
_cell_angle_alpha 90.000000
_cell_angle_beta 90.000000
_cell_angle_gamma 120.000000
_cell_volume 7690.877850
_symmetry_space_group_name_H-M "P 63/M M C"
_symmetry_group_IT_number 194
_symmetry_cell_setting 'hexagonal'
loop_
_space_group_symop_operation_xyz
x,y,z
x-y,x,1/2+z
-y,x-y,z
-x,-y,1/2+z
-x+y,-x,z
y,-x+y,1/2+z
x-y,-y,-z
-x,-x+y,-z
y,x,-z
-y,-x,1/2-z
-x+y,y,1/2-z
x,x-y,1/2-z
-x,-y,-z
-x+y,-x,1/2-z
y,-x+y,-z
x,y,1/2-z
x-y,x,-z
-y,x-y,1/2-z
-x+y,y,z
x,x-y,z
-y,-x,z
y,x,1/2+z
x-y,-y,1/2+z
-x,-x+y,1/2+z
loop_
_atom_site_type_symbol
_atom_site_label
_atom_site_fract_x
_atom_site_fract_y
_atom_site_fract_z
Si Si1 0.526869 0.473132 0.431248
Si Si2 0.947079 0.389380 0.569935
Si Si3 0.890544 0.612719 0.572499
Si Si4 0.390890 0.195445 0.080200
Si Si5 0.947492 0.723680 0.570484
Si Si6 0.862377 0.137624 0.422233
O O1 0.500000 0.500000 0.500000
O O2 0.526810 0.473191 0.250000
O O3 0.581794 0.503410 0.496368
O O4 0.951993 0.397164 0.750000
O O5 0.913394 0.333532 0.523434
O O6 0.000000 0.407798 0.500000
O O7 0.883023 0.612345 0.750000
O O8 0.837066 0.589515 0.499290
O O9 0.926347 0.667895 0.517141
O O10 0.410768 0.205384 0.250000
O O11 0.333101 0.166551 0.071001
O O12 0.950740 0.728567 0.750000
O O13 0.913482 0.744257 0.508191
O O14 0.000000 0.755964 0.500000
O O15 0.871975 0.128026 0.250000
#
# Coordination Sequence:
#
# PCOD8330346 Si02
#       6
#    12  24  24  12  24  12
#     4  10  18  28  40  54  74 100 127 160 197 234
#     4  10  18  28  41  57  76 101 131 164 197 232
#     4   9  18  29  41  56  77 103 131 162 197 233
#     4   9  17  27  41  57  75  99 128 161 196 231
#     4  10  18  28  41  58  78 102 131 164 198 233
#     4   9  17  29  41  55  75 101 130 161 196 233
#
# _framework density 14.042611000000001
#
# number of rings (size 3 to 8) (size 9 to 14) (size 15 to 20)
#    0.000    2.444    0.000    5.000    0.000    5.333 
#    0.000    0.000    0.000    0.000    0.000    0.000 
#    0.000    0.000    0.000    1.000    0.000   17.556 
#
# Total GULP energy -1338942.650466 kJ/mol
# GULP energy per Si atom -12397.617134 kJ/mol
# Density = 1.401065 g / cm^3
# Si number density = 14.042611 Si / 1000 Ang^3
#
#
#
# Elastic Constant Matrix: (Units=GPa)
#
#
# Indices 1 2 3 4 5 6 
#
# 1 94.9395 55.0545 43.3620 0.0000 0.0000 0.0000
# 2 55.0545 94.9395 43.3620 0.0000 0.0000 0.0000
# 3 43.3620 43.3620 77.0291 0.0000 0.0000 0.0000
# 4 0.0000 0.0000 0.0000 22.3624 0.0000 0.0000
# 5 0.0000 0.0000 0.0000 0.0000 22.3624 0.0000
# 6 0.0000 0.0000 0.0000 0.0000 0.0000 19.9425
#
#
#
# Elastic Compliance Matrix: (Units=1/GPa)
#
#
# Indices 1 2 3 4 5 6 
#
# 1 0.017478 -0.007594 -0.005564 0.000000 0.000000 0.000000
# 2 -0.007594 0.017478 -0.005564 0.000000 0.000000 0.000000
# 3 -0.005564 -0.005564 0.019246 0.000000 0.000000 0.000000
# 4 0.000000 0.000000 0.000000 0.044718 0.000000 0.000000
# 5 0.000000 0.000000 0.000000 0.000000 0.044718 0.000000
# 6 0.000000 0.000000 0.000000 0.000000 0.000000 0.050144
#
#
# Mechanical properties :
#
#
# Convention : Reuss Voigt Hill
#
# Bulk Modulus (GPa) = 59.67170 61.16277 60.41724
# Shear Modulus (GPa) = 21.11375 21.27543 21.19459
#
# Velocity S-wave (km/s) = 3.88177 3.89660 3.88919
# Velocity P-wave (km/s) = 7.91684 7.99340 7.95521
#
# Compressibility (1/GPa) = 0.01675836
#
# Stress axis : x y z
#
# Youngs Moduli (GPa) = 57.21472 57.21472 51.95791
#
# Poissons Ratio (x) = 0.43449 0.28909
# Poissons Ratio (y) = 0.43449 0.28909
# Poissons Ratio (z) = 0.31834 0.31834
#
# Static dielectric constant tensor:
#      x y z
#    x 2.804560 0.000000 0.000000 
#    y 0.000000 2.804560 0.000000 
#    z 0.000000 0.000000 2.878030 
# 
# 
# High freq. dielectric constant tensor:
#      x y z
#    x 1.510180 0.000000 0.000000 
#    y 0.000000 1.510180 0.000000 
#    z 0.000000 0.000000 1.554100 
# 
# From -- ./inp_files/1931.got.cif
#   From: 2010.03.12/outbox.cif.g09.slc.cpg/sg194_1_cif.got.tgz:1931.got - 2010.04.01 12:26:19.
