data_PCOD8330554
_publ_section_title
;
Structure prediction by ZEFSAII (Michael W. Deem and Ramdas Pophale) SiO2 
 PCOD8330554
Probable space group: P 63/M M C
;
_chemical_formula_sum "Si O2"
_cell_formula_units_Z 108
_cell_length_a 17.948756
_cell_length_b 17.948756
_cell_length_c 24.035497
_cell_angle_alpha 90.000000
_cell_angle_beta 90.000000
_cell_angle_gamma 120.000000
_cell_volume 6705.828556
_symmetry_space_group_name_H-M "P 63/M M C"
_symmetry_group_IT_number 194
_symmetry_cell_setting 'hexagonal'
loop_
_space_group_symop_operation_xyz
x,y,z
x-y,x,1/2+z
-y,x-y,z
-x,-y,1/2+z
-x+y,-x,z
y,-x+y,1/2+z
x-y,-y,-z
-x,-x+y,-z
y,x,-z
-y,-x,1/2-z
-x+y,y,1/2-z
x,x-y,1/2-z
-x,-y,-z
-x+y,-x,1/2-z
y,-x+y,-z
x,y,1/2-z
x-y,x,-z
-y,x-y,1/2-z
-x+y,y,z
x,x-y,z
-y,-x,z
y,x,1/2+z
x-y,-y,1/2+z
-x,-x+y,1/2+z
loop_
_atom_site_type_symbol
_atom_site_label
_atom_site_fract_x
_atom_site_fract_y
_atom_site_fract_z
Si Si1 0.903536 0.096465 0.430634
Si Si2 0.382236 0.191118 0.078446
Si Si3 0.193115 0.386229 0.450092
Si Si4 0.090169 0.461214 0.868194
Si Si5 0.902157 0.097844 0.936479
Si Si6 0.614556 0.555382 0.947952
Si Si7 0.492506 0.157356 0.250000
O O1 0.857617 0.142384 0.398243
O O2 0.902658 0.097343 0.497125
O O3 0.002279 0.146944 0.410930
O O4 0.438397 0.149236 0.095222
O O5 0.364448 0.182224 0.014068
O O6 0.147783 0.295565 0.416707
O O7 0.294792 0.440052 0.437618
O O8 0.123824 0.561912 0.878165
O O9 0.097998 0.443888 0.803217
O O10 0.992835 0.404923 0.890002
O O11 0.543477 0.456523 0.960295
O O12 0.613994 0.613994 0.000000
O O13 0.593156 0.186312 0.250000
O O14 0.484280 0.242140 0.250000
#
# Coordination Sequence:
#
# PCOD8330554 Si02
#       7
#    12  12  12  24  12  24  12
#     4   9  17  26  40  60  93 122 161 207 237 294
#     4  11  18  28  46  70  97 135 171 203 240 301
#     4  11  20  29  51  72  97 138 173 207 241 306
#     4  10  20  33  49  70 103 137 169 204 249 300
#     4   9  17  26  39  63  89 128 162 201 249 278
#     4  10  20  34  50  70 100 135 171 211 255 305
#     4  10  19  32  50  75 100 132 166 208 250 303
#
# _framework density 16.105394
#
# number of rings (size 3 to 8) (size 9 to 14) (size 15 to 20)
#    0.000    2.000    3.333    1.667    3.111    0.889 
#    1.333    0.000    0.000    0.667    0.000    0.000 
#    0.000    0.889    0.000    0.111    0.000    0.111 
#
# Total GULP energy -1338575.610225 kJ/mol
# GULP energy per Si atom -12394.218613 kJ/mol
# Density = 1.606874 g / cm^3
# Si number density = 16.105394 Si / 1000 Ang^3
#
#
#
# Elastic Constant Matrix: (Units=GPa)
#
#
# Indices 1 2 3 4 5 6 
#
# 1 103.6687 68.7102 27.6872 0.0000 0.0000 0.0000
# 2 68.7102 103.6687 27.6872 0.0000 0.0000 0.0000
# 3 27.6872 27.6872 62.2735 0.0000 0.0000 0.0000
# 4 0.0000 0.0000 0.0000 16.5853 0.0000 0.0000
# 5 0.0000 0.0000 0.0000 0.0000 16.5853 0.0000
# 6 0.0000 0.0000 0.0000 0.0000 0.0000 17.4793
#
#
#
# Elastic Compliance Matrix: (Units=1/GPa)
#
#
# Indices 1 2 3 4 5 6 
#
# 1 0.017687 -0.010919 -0.003009 0.000000 0.000000 0.000000
# 2 -0.010919 0.017687 -0.003009 0.000000 0.000000 0.000000
# 3 -0.003009 -0.003009 0.018734 0.000000 0.000000 0.000000
# 4 0.000000 0.000000 0.000000 0.060294 0.000000 0.000000
# 5 0.000000 0.000000 0.000000 0.000000 0.060294 0.000000
# 6 0.000000 0.000000 0.000000 0.000000 0.000000 0.057211
#
#
# Mechanical properties :
#
#
# Convention : Reuss Voigt Hill
#
# Bulk Modulus (GPa) = 49.42327 57.53113 53.47720
# Shear Modulus (GPa) = 18.34698 19.83172 19.08935
#
# Velocity S-wave (km/s) = 3.37884 3.51290 3.44652
# Velocity P-wave (km/s) = 6.78057 7.22863 7.00818
#
# Compressibility (1/GPa) = 0.02023339
#
# Stress axis : x y z
#
# Youngs Moduli (GPa) = 56.54013 56.54013 53.37937
#
# Poissons Ratio (x) = 0.61735 0.16062
# Poissons Ratio (y) = 0.61735 0.16062
# Poissons Ratio (z) = 0.17013 0.17013
#
# Static dielectric constant tensor:
#      x y z
#    x 3.126970 0.000000 0.000000 
#    y 0.000000 3.126970 0.000000 
#    z 0.000000 0.000000 2.868930 
# 
# 
# High freq. dielectric constant tensor:
#      x y z
#    x 1.621850 0.000000 0.000000 
#    y 0.000000 1.621850 0.000000 
#    z 0.000000 0.000000 1.572900 
# 
# From -- ./inp_files/8023.got.cif
#   From: 2010.03.12/outbox.cif.g09.slc.cpg/sg194_5_cif.got.tgz:8023.got - 2010.04.01 12:26:19.
