data_PCOD8330260
_publ_section_title
;
Structure prediction by ZEFSAII (Michael W. Deem and Ramdas Pophale) SiO2 
 PCOD8330260
Probable space group: P 63/M C M
;
_chemical_formula_sum "Si O2"
_cell_formula_units_Z 76
_cell_length_a 17.876854
_cell_length_b 17.876854
_cell_length_c 14.019165
_cell_angle_alpha 90.000000
_cell_angle_beta 90.000000
_cell_angle_gamma 120.000000
_cell_volume 3880.028946
_symmetry_space_group_name_H-M "P 63/M C M"
_symmetry_group_IT_number 193
_symmetry_cell_setting 'hexagonal'
loop_
_space_group_symop_operation_xyz
x,y,z
x-y,x,1/2+z
-y,x-y,z
-x,-y,1/2+z
-x+y,-x,z
y,-x+y,1/2+z
x-y,-y,1/2-z
-x,-x+y,1/2-z
y,x,1/2-z
-y,-x,-z
-x+y,y,-z
x,x-y,-z
-x,-y,-z
-x+y,-x,1/2-z
y,-x+y,-z
x,y,1/2-z
x-y,x,-z
-y,x-y,1/2-z
-x+y,y,1/2+z
x,x-y,1/2+z
-y,-x,1/2+z
y,x,z
x-y,-y,z
-x,-x+y,z
loop_
_atom_site_type_symbol
_atom_site_label
_atom_site_fract_x
_atom_site_fract_y
_atom_site_fract_z
Si Si1 0.850532 0.701064 0.000000
Si Si2 0.664250 0.563499 0.030313
Si Si3 0.575763 0.103076 0.145787
Si Si4 0.000000 0.000000 0.612218
Si Si5 0.827355 0.000000 0.359028
O O1 0.760424 0.639388 0.052689
O O2 0.842434 0.758430 0.916931
O O3 0.601671 0.601671 0.025734
O O4 0.657059 0.519327 0.926712
O O5 0.626056 0.489569 0.111352
O O6 0.611644 0.142784 0.250000
O O7 0.525343 0.000000 0.150859
O O8 0.916257 0.916257 0.650745
O O9 0.000000 0.000000 0.500000
O O10 0.794815 0.000000 0.250000
#
# Coordination Sequence:
#
# PCOD8330260 Si02
#       5
#    12  24  24   4  12
#     4  12  22  39  56  86 130 156 204 269 306 370
#     4   9  18  32  53  81 112 150 186 235 301 347
#     4   8  15  31  55  79 103 134 177 225 282 358
#     4  12  22  47  67  70 101 163 223 275 325 367
#     4  12  26  41  62  84 112 166 220 270 329 372
#
# _framework density 19.587482000000001
#
# number of rings (size 3 to 8) (size 9 to 14) (size 15 to 20)
#    0.000    2.211    3.158    2.368    0.000    2.526 
#    0.000    0.000    0.000    5.053    0.000    0.000 
#    0.000    0.000    0.000    0.000    0.000    0.000 
#
# Total GULP energy -941638.179556 kJ/mol
# GULP energy per Si atom -12389.976047 kJ/mol
# Density = 1.954290 g / cm^3
# Si number density = 19.587482 Si / 1000 Ang^3
#
#
#
# Elastic Constant Matrix: (Units=GPa)
#
#
# Indices 1 2 3 4 5 6 
#
# 1 85.1913 26.2172 33.3591 0.0000 0.0000 0.0000
# 2 26.2172 85.1913 33.3591 0.0000 0.0000 0.0000
# 3 33.3591 33.3591 143.9075 0.0000 0.0000 0.0000
# 4 0.0000 0.0000 0.0000 11.2566 0.0000 0.0000
# 5 0.0000 0.0000 0.0000 0.0000 11.2566 0.0000
# 6 0.0000 0.0000 0.0000 0.0000 0.0000 29.4870
#
#
#
# Elastic Compliance Matrix: (Units=1/GPa)
#
#
# Indices 1 2 3 4 5 6 
#
# 1 0.013690 -0.003267 -0.002416 0.000000 0.000000 0.000000
# 2 -0.003267 0.013690 -0.002416 0.000000 0.000000 0.000000
# 3 -0.002416 -0.002416 0.008069 0.000000 0.000000 0.000000
# 4 0.000000 0.000000 0.000000 0.088837 0.000000 0.000000
# 5 0.000000 0.000000 0.000000 0.000000 0.088837 0.000000
# 6 0.000000 0.000000 0.000000 0.000000 0.000000 0.033913
#
#
# Mechanical properties :
#
#
# Convention : Reuss Voigt Hill
#
# Bulk Modulus (GPa) = 51.94709 55.57345 53.76027
# Shear Modulus (GPa) = 18.54256 25.15704 21.84980
#
# Velocity S-wave (km/s) = 3.08011 3.58766 3.34353
# Velocity P-wave (km/s) = 6.26319 6.75243 6.51240
#
# Compressibility (1/GPa) = 0.01925036
#
# Stress axis : x y z
#
# Youngs Moduli (GPa) = 73.04738 73.04738 123.93007
#
# Poissons Ratio (x) = 0.23864 0.29943
# Poissons Ratio (y) = 0.23864 0.29943
# Poissons Ratio (z) = 0.17649 0.17649
#
# Static dielectric constant tensor:
#      x y z
#    x 3.581410 0.000000 0.000000 
#    y 0.000000 3.581410 0.000000 
#    z 0.000000 0.000000 3.900720 
# 
# 
# High freq. dielectric constant tensor:
#      x y z
#    x 1.743860 0.000000 0.000000 
#    y 0.000000 1.743860 0.000000 
#    z 0.000000 0.000000 1.765310 
# 
# From -- ./inp_files/3288.got.cif
#   From: 2010.03.12/outbox.cif.g09.slc.cpg/sg193_2_cif.got.tgz:3288.got - 2010.04.01 12:20:39.
