data_PCOD8330588
_publ_section_title
;
Structure prediction by ZEFSAII (Michael W. Deem and Ramdas Pophale) SiO2 
 PCOD8330588
Probable space group: P 63/M M C
;
_chemical_formula_sum "Si O2"
_cell_formula_units_Z 144
_cell_length_a 22.358563
_cell_length_b 22.358563
_cell_length_c 19.772115
_cell_angle_alpha 90.000000
_cell_angle_beta 90.000000
_cell_angle_gamma 120.000000
_cell_volume 8559.956051
_symmetry_space_group_name_H-M "P 63/M M C"
_symmetry_group_IT_number 194
_symmetry_cell_setting 'hexagonal'
loop_
_space_group_symop_operation_xyz
x,y,z
x-y,x,1/2+z
-y,x-y,z
-x,-y,1/2+z
-x+y,-x,z
y,-x+y,1/2+z
x-y,-y,-z
-x,-x+y,-z
y,x,-z
-y,-x,1/2-z
-x+y,y,1/2-z
x,x-y,1/2-z
-x,-y,-z
-x+y,-x,1/2-z
y,-x+y,-z
x,y,1/2-z
x-y,x,-z
-y,x-y,1/2-z
-x+y,y,z
x,x-y,z
-y,-x,z
y,x,1/2+z
x-y,-y,1/2+z
-x,-x+y,1/2+z
loop_
_atom_site_type_symbol
_atom_site_label
_atom_site_fract_x
_atom_site_fract_y
_atom_site_fract_z
Si Si1 0.384833 0.032395 0.673345
Si Si2 0.471580 0.804722 0.547714
Si Si3 0.066277 0.603490 0.041089
Si Si4 0.062934 0.262330 0.172948
Si Si5 0.622235 0.109028 0.325613
Si Si6 0.137420 0.137298 0.077361
O O1 0.413920 0.055973 0.750000
O O2 0.442328 0.074294 0.617216
O O3 0.323411 0.047433 0.658807
O O4 0.360522 0.951882 0.663821
O O5 0.392992 0.785983 0.537535
O O6 0.477564 0.738782 0.529633
O O7 0.522756 0.865384 0.498141
O O8 0.496417 0.828237 0.624473
O O9 0.059175 0.529588 0.045586
O O10 0.000000 0.596287 0.000000
O O11 0.044869 0.236584 0.250000
O O12 0.143250 0.286500 0.157284
O O13 0.012299 0.200197 0.124766
O O14 0.641520 0.138918 0.250000
O O15 0.540387 0.080773 0.340517
O O16 0.145471 0.072736 0.098322
O O17 0.058088 0.116175 0.088397
O O18 0.159628 0.159628 0.000000
#
# Coordination Sequence:
#
# PCOD8330588 Si02
#       6
#    24  24  24  24  24  24
#     4  10  19  32  53  76 100 133 170 208 254 300
#     4  10  20  34  52  76 106 139 171 207 253 302
#     4  10  19  33  53  77 103 130 167 214 252 288
#     4   9  19  34  49  68  98 133 165 202 250 302
#     4   9  17  31  52  77 104 134 171 211 248 292
#     4   9  17  31  51  73  95 123 163 209 254 298
#
# _framework density 16.822516
#
# number of rings (size 3 to 8) (size 9 to 14) (size 15 to 20)
#    0.000    2.500    1.667    0.833    0.000    3.667 
#    0.000    0.833    0.000    5.000    0.000    0.000 
#    0.000    1.333    0.000    0.000    0.000    0.000 
#
# Total GULP energy -1785345.982626 kJ/mol
# GULP energy per Si atom -12398.235990 kJ/mol
# Density = 1.678423 g / cm^3
# Si number density = 16.822516 Si / 1000 Ang^3
#
#
#
# Elastic Constant Matrix: (Units=GPa)
#
#
# Indices 1 2 3 4 5 6 
#
# 1 83.6927 49.4437 47.6006 0.0000 0.0000 0.0000
# 2 49.4437 83.6927 47.6006 0.0000 0.0000 0.0000
# 3 47.6006 47.6006 111.0415 0.0000 0.0000 0.0000
# 4 0.0000 0.0000 0.0000 26.7007 0.0000 0.0000
# 5 0.0000 0.0000 0.0000 0.0000 26.7007 0.0000
# 6 0.0000 0.0000 0.0000 0.0000 0.0000 17.1245
#
#
#
# Elastic Compliance Matrix: (Units=1/GPa)
#
#
# Indices 1 2 3 4 5 6 
#
# 1 0.020015 -0.009183 -0.004643 0.000000 0.000000 0.000000
# 2 -0.009183 0.020015 -0.004643 0.000000 0.000000 0.000000
# 3 -0.004643 -0.004643 0.012986 0.000000 0.000000 0.000000
# 4 0.000000 0.000000 0.000000 0.037452 0.000000 0.000000
# 5 0.000000 0.000000 0.000000 0.000000 0.037452 0.000000
# 6 0.000000 0.000000 0.000000 0.000000 0.000000 0.058396
#
#
# Mechanical properties :
#
#
# Convention : Reuss Voigt Hill
#
# Bulk Modulus (GPa) = 62.20252 63.07964 62.64108
# Shear Modulus (GPa) = 21.87097 23.02399 22.44748
#
# Velocity S-wave (km/s) = 3.60960 3.70353 3.65687
# Velocity P-wave (km/s) = 7.37756 7.47440 7.42614
#
# Compressibility (1/GPa) = 0.01607652
#
# Stress axis : x y z
#
# Youngs Moduli (GPa) = 49.96358 49.96358 77.00399
#
# Poissons Ratio (x) = 0.45884 0.35753
# Poissons Ratio (y) = 0.45884 0.35753
# Poissons Ratio (z) = 0.23198 0.23198
#
# Static dielectric constant tensor:
#      x y z
#    x 3.013580 0.000000 0.000000 
#    y 0.000000 3.013580 0.000000 
#    z 0.000000 0.000000 3.401700 
# 
# 
# High freq. dielectric constant tensor:
#      x y z
#    x 1.633370 0.000000 0.000000 
#    y 0.000000 1.633370 0.000000 
#    z 0.000000 0.000000 1.662980 
# 
# From -- ./inp_files/8209.got.cif
#   From: 2010.03.12/outbox.cif.g09.slc.cpg/sg194_5_cif.got.tgz:8209.got - 2010.04.01 12:26:19.
