data_PCOD8330104
_publ_section_title
;
Structure prediction by ZEFSAII (Michael W. Deem and Ramdas Pophale) SiO2 
 PCOD8330104
Probable space group: P 63/M C M
;
_chemical_formula_sum "Si O2"
_cell_formula_units_Z 108
_cell_length_a 27.593132
_cell_length_b 27.593132
_cell_length_c 8.710575
_cell_angle_alpha 90.000000
_cell_angle_beta 90.000000
_cell_angle_gamma 120.000000
_cell_volume 5743.537398
_symmetry_space_group_name_H-M "P 63/M C M"
_symmetry_group_IT_number 193
_symmetry_cell_setting 'hexagonal'
loop_
_space_group_symop_operation_xyz
x,y,z
x-y,x,1/2+z
-y,x-y,z
-x,-y,1/2+z
-x+y,-x,z
y,-x+y,1/2+z
x-y,-y,1/2-z
-x,-x+y,1/2-z
y,x,1/2-z
-y,-x,-z
-x+y,y,-z
x,x-y,-z
-x,-y,-z
-x+y,-x,1/2-z
y,-x+y,-z
x,y,1/2-z
x-y,x,-z
-y,x-y,1/2-z
-x+y,y,1/2+z
x,x-y,1/2+z
-y,-x,1/2+z
y,x,z
x-y,-y,z
-x,-x+y,z
loop_
_atom_site_type_symbol
_atom_site_label
_atom_site_fract_x
_atom_site_fract_y
_atom_site_fract_z
Si Si1 0.559865 0.226711 0.566667
Si Si2 0.552393 0.552393 0.932690
Si Si3 0.873759 0.646975 0.431577
Si Si4 0.888370 0.341498 0.567822
Si Si5 0.062760 0.835852 0.431794
O O1 0.617053 0.234106 0.500000
O O2 0.549547 0.274774 0.500000
O O3 0.563660 0.231106 0.750000
O O4 0.508599 0.167154 0.509625
O O5 0.551629 0.551629 0.750000
O O6 0.549952 0.605748 0.997352
O O7 0.500000 0.500000 0.000000
O O8 0.813055 0.626109 0.500000
O O9 0.869359 0.645122 0.250000
O O10 0.891731 0.603542 0.493752
O O11 0.917318 0.709899 0.487934
O O12 0.888412 0.341977 0.750000
O O13 0.102656 0.897345 0.500000
O O14 0.065069 0.840421 0.250000
O O15 0.000000 0.813125 0.493155
#
# Coordination Sequence:
#
# PCOD8330104 Si02
#       5
#    24  12  24  24  24
#     4  11  22  37  55  78 103 132 167 209 256 304
#     4  10  20  36  54  74 100 132 170 210 249 298
#     4   9  17  31  50  75 104 134 168 207 248 298
#     4   9  19  33  54  78 101 132 170 207 249 299
#     4   9  18  31  50  76 105 138 174 211 253 300
#
# _framework density 18.803743000000001
#
# number of rings (size 3 to 8) (size 9 to 14) (size 15 to 20)
#    0.000    2.444    0.000    2.222    1.556    0.444 
#    0.000    3.333    0.000    0.222    0.000    0.000 
#    0.000    0.000    0.000    0.000    0.000    0.000 
#
# Total GULP energy -1339062.703100 kJ/mol
# GULP energy per Si atom -12398.728732 kJ/mol
# Density = 1.876095 g / cm^3
# Si number density = 18.803743 Si / 1000 Ang^3
#
#
#
# Elastic Constant Matrix: (Units=GPa)
#
#
# Indices 1 2 3 4 5 6 
#
# 1 173.6249 103.3676 25.6360 0.0000 0.0000 0.0000
# 2 103.3676 173.6249 25.6360 0.0000 0.0000 0.0000
# 3 25.6360 25.6360 27.4394 0.0000 0.0000 0.0000
# 4 0.0000 0.0000 0.0000 19.4839 0.0000 0.0000
# 5 0.0000 0.0000 0.0000 0.0000 19.4839 0.0000
# 6 0.0000 0.0000 0.0000 0.0000 0.0000 35.1287
#
#
#
# Elastic Compliance Matrix: (Units=1/GPa)
#
#
# Indices 1 2 3 4 5 6 
#
# 1 0.009299 -0.004934 -0.004078 0.000000 0.000000 0.000000
# 2 -0.004934 0.009299 -0.004078 0.000000 0.000000 0.000000
# 3 -0.004078 -0.004078 0.044064 0.000000 0.000000 0.000000
# 4 0.000000 0.000000 0.000000 0.051324 0.000000 0.000000
# 5 0.000000 0.000000 0.000000 0.000000 0.051324 0.000000
# 6 0.000000 0.000000 0.000000 0.000000 0.000000 0.028467
#
#
# Mechanical properties :
#
#
# Convention : Reuss Voigt Hill
#
# Bulk Modulus (GPa) = 27.41101 75.99647 51.70374
# Shear Modulus (GPa) = 21.54057 29.48927 25.51492
#
# Velocity S-wave (km/s) = 3.38826 3.96443 3.68762
# Velocity P-wave (km/s) = 5.46957 7.83958 6.75926
#
# Compressibility (1/GPa) = 0.03648169
#
# Stress axis : x y z
#
# Youngs Moduli (GPa) = 107.53573 107.53573 22.69409
#
# Poissons Ratio (x) = 0.53060 0.09255
# Poissons Ratio (y) = 0.53060 0.09255
# Poissons Ratio (z) = 0.43855 0.43855
#
# Static dielectric constant tensor:
#      x y z
#    x 3.791780 0.000000 0.000000 
#    y 0.000000 3.791780 0.000000 
#    z 0.000000 0.000000 3.347670 
# 
# 
# High freq. dielectric constant tensor:
#      x y z
#    x 1.738690 0.000000 0.000000 
#    y 0.000000 1.738690 0.000000 
#    z 0.000000 0.000000 1.703010 
# 
# From -- ./inp_files/2459.got.cif
#   From: 2010.03.12/outbox.cif.g09.slc.cpg/sg193_2_cif.got.tgz:2459.got - 2010.04.01 12:20:39.
