data_PCOD8330277
_publ_section_title
;
Structure prediction by ZEFSAII (Michael W. Deem and Ramdas Pophale) SiO2 
 PCOD8330277
Probable space group: P 63/M C M
;
_chemical_formula_sum "Si O2"
_cell_formula_units_Z 168
_cell_length_a 27.986641
_cell_length_b 27.986641
_cell_length_c 15.642176
_cell_angle_alpha 90.000000
_cell_angle_beta 90.000000
_cell_angle_gamma 120.000000
_cell_volume 10610.341291
_symmetry_space_group_name_H-M "P 63/M C M"
_symmetry_group_IT_number 193
_symmetry_cell_setting 'hexagonal'
loop_
_space_group_symop_operation_xyz
x,y,z
x-y,x,1/2+z
-y,x-y,z
-x,-y,1/2+z
-x+y,-x,z
y,-x+y,1/2+z
x-y,-y,1/2-z
-x,-x+y,1/2-z
y,x,1/2-z
-y,-x,-z
-x+y,y,-z
x,x-y,-z
-x,-y,-z
-x+y,-x,1/2-z
y,-x+y,-z
x,y,1/2-z
x-y,x,-z
-y,x-y,1/2-z
-x+y,y,1/2+z
x,x-y,1/2+z
-y,-x,1/2+z
y,x,z
x-y,-y,z
-x,-x+y,z
loop_
_atom_site_type_symbol
_atom_site_label
_atom_site_fract_x
_atom_site_fract_y
_atom_site_fract_z
Si Si1 0.687904 0.750505 0.898719
Si Si2 0.125219 0.874782 0.601896
Si Si3 0.934557 0.350167 0.655128
Si Si4 0.937311 0.062689 0.601896
Si Si5 0.520873 0.586776 0.000000
Si Si6 0.312096 0.062601 0.101281
Si Si7 0.649833 0.065443 0.655128
O O1 0.726045 0.726045 0.868011
O O2 0.716682 0.812506 0.863307
O O3 0.626371 0.714840 0.860094
O O4 0.682277 0.748431 0.000000
O O5 0.124268 0.875732 0.500000
O O6 0.093971 0.906029 0.637441
O O7 0.095824 0.812506 0.636694
O O8 0.917385 0.359232 0.750000
O O9 0.910912 0.375010 0.584591
O O10 0.000000 0.380757 0.644732
O O11 0.937163 0.062837 0.500000
O O12 0.000000 0.093963 0.636446
O O13 0.906036 0.000000 0.636445
O O14 0.553598 0.553598 0.000001
O O15 0.535902 0.624990 0.084591
O O16 0.455454 0.544547 0.000000
O O17 0.373629 0.088470 0.139907
O O18 0.273955 0.000000 0.131989
O O19 0.640768 0.082615 0.750000
O O20 0.619244 0.000000 0.644732
#
# Coordination Sequence:
#
# PCOD8330277 Si02
#       7
#    24  24  24  24  24  24  24
#     4   9  15  25  39  53  74 103 135 177 226 270
#     4   9  16  23  35  54  71  96 140 186 227 281
#     4   9  16  26  40  57  78 106 136 166 203 242
#     4   9  15  22  31  47  73 103 135 176 236 310
#     4   9  16  26  40  59  82 106 133 164 193 221
#     4   9  15  25  39  53  74 103 135 177 226 270
#     4   9  16  26  40  57  78 106 136 166 203 242
#
# _framework density 15.83361
#
# number of rings (size 3 to 8) (size 9 to 14) (size 15 to 20)
#    0.000    3.000    1.429    1.000    0.000    4.571 
#    0.000    3.571    0.000    0.000    0.000    0.000 
#    0.000    0.000    0.000    0.857    0.000   26.429 
#
# Total GULP energy -2082420.697343 kJ/mol
# GULP energy per Si atom -12395.361294 kJ/mol
# Density = 1.579757 g / cm^3
# Si number density = 15.833610 Si / 1000 Ang^3
#
#
#
# Elastic Constant Matrix: (Units=GPa)
#
#
# Indices 1 2 3 4 5 6 
#
# 1 96.8086 49.0255 37.7665 0.0000 0.0000 0.0000
# 2 49.0255 96.8086 37.7665 0.0000 0.0000 0.0000
# 3 37.7665 37.7665 71.6624 0.0000 0.0000 0.0000
# 4 0.0000 0.0000 0.0000 4.3087 0.0000 0.0000
# 5 0.0000 0.0000 0.0000 0.0000 4.3087 0.0000
# 6 0.0000 0.0000 0.0000 0.0000 0.0000 23.8916
#
#
#
# Elastic Compliance Matrix: (Units=1/GPa)
#
#
# Indices 1 2 3 4 5 6 
#
# 1 0.015180 -0.005748 -0.004970 0.000000 0.000000 0.000000
# 2 -0.005748 0.015180 -0.004970 0.000000 0.000000 0.000000
# 3 -0.004970 -0.004970 0.019193 0.000000 0.000000 0.000000
# 4 0.000000 0.000000 0.000000 0.232089 0.000000 0.000000
# 5 0.000000 0.000000 0.000000 0.000000 0.232089 0.000000
# 6 0.000000 0.000000 0.000000 0.000000 0.000000 0.041856
#
#
# Mechanical properties :
#
#
# Convention : Reuss Voigt Hill
#
# Bulk Modulus (GPa) = 55.02245 57.15521 56.08883
# Shear Modulus (GPa) = 8.43139 15.88320 12.15729
#
# Velocity S-wave (km/s) = 2.31010 3.17066 2.77395
# Velocity P-wave (km/s) = 6.47621 7.04130 6.76466
#
# Compressibility (1/GPa) = 0.01817440
#
# Stress axis : x y z
#
# Youngs Moduli (GPa) = 65.87747 65.87747 52.10170
#
# Poissons Ratio (x) = 0.37868 0.25897
# Poissons Ratio (y) = 0.37868 0.25897
# Poissons Ratio (z) = 0.32744 0.32744
#
# Static dielectric constant tensor:
#      x y z
#    x 2.899590 0.000000 0.000000 
#    y 0.000000 2.899590 0.000000 
#    z 0.000000 0.000000 2.902890 
# 
# 
# High freq. dielectric constant tensor:
#      x y z
#    x 1.571910 0.000000 0.000000 
#    y 0.000000 1.571910 0.000000 
#    z 0.000000 0.000000 1.603200 
# 
# From -- ./inp_files/4457.got.cif
#   From: 2010.03.12/outbox.cif.g09.slc.cpg/sg193_3_cif.got.tgz:4457.got - 2010.04.01 12:20:39.
