data_PCOD8330091
_publ_section_title
;
Structure prediction by ZEFSAII (Michael W. Deem and Ramdas Pophale) SiO2 
 PCOD8330091
Probable space group: P 63/M C M
;
_chemical_formula_sum "Si O2"
_cell_formula_units_Z 192
_cell_length_a 24.443114
_cell_length_b 24.443114
_cell_length_c 19.133223
_cell_angle_alpha 90.000000
_cell_angle_beta 90.000000
_cell_angle_gamma 120.000000
_cell_volume 9899.923337
_symmetry_space_group_name_H-M "P 63/M C M"
_symmetry_group_IT_number 193
_symmetry_cell_setting 'hexagonal'
loop_
_space_group_symop_operation_xyz
x,y,z
x-y,x,1/2+z
-y,x-y,z
-x,-y,1/2+z
-x+y,-x,z
y,-x+y,1/2+z
x-y,-y,1/2-z
-x,-x+y,1/2-z
y,x,1/2-z
-y,-x,-z
-x+y,y,-z
x,x-y,-z
-x,-y,-z
-x+y,-x,1/2-z
y,-x+y,-z
x,y,1/2-z
x-y,x,-z
-y,x-y,1/2-z
-x+y,y,1/2+z
x,x-y,1/2+z
-y,-x,1/2+z
y,x,z
x-y,-y,z
-x,-x+y,z
loop_
_atom_site_type_symbol
_atom_site_label
_atom_site_fract_x
_atom_site_fract_y
_atom_site_fract_z
Si Si1 0.072095 0.509742 0.830605
Si Si2 0.554196 0.685167 0.572724
Si Si3 0.588940 0.800003 0.673046
Si Si4 0.333337 0.785361 0.028524
Si Si5 0.688561 0.759262 0.985764
Si Si6 0.512163 0.347076 0.828034
Si Si7 0.927593 0.072235 0.167885
Si Si8 0.852706 0.135062 0.889894
O O1 0.078759 0.495661 0.750000
O O2 0.101446 0.475487 0.875454
O O3 0.103703 0.585047 0.843793
O O4 0.000000 0.481168 0.853167
O O5 0.559630 0.745908 0.613578
O O6 0.512256 0.665691 0.502970
O O7 0.621859 0.703043 0.541674
O O8 0.571451 0.768050 0.750000
O O9 0.559218 0.846486 0.665136
O O10 0.665311 0.841431 0.671080
O O11 0.336081 0.783753 0.112789
O O12 0.271866 0.728135 0.000000
O O13 0.390249 0.780497 0.000000
O O14 0.730677 0.730677 0.010351
O O15 0.721724 0.806122 0.920922
O O16 0.686754 0.797620 0.052418
O O17 0.539036 0.347953 0.750000
O O18 0.917566 0.073185 0.250000
O O19 0.913120 0.124441 0.134577
O O20 0.000000 0.093791 0.149536
O O21 0.883272 0.000000 0.139915
#
# Coordination Sequence:
#
# PCOD8330091 Si02
#       8
#    24  24  24  24  24  24  24  24
#     4  10  21  39  61  87 123 163 201 245 301 363
#     4  11  21  36  62  85 118 151 202 246 306 348
#     4  10  20  36  59  86 115 150 194 246 302 361
#     4  12  23  40  61  87 120 155 196 252 301 352
#     4  10  21  35  54  82 113 148 191 241 290 346
#     4  10  21  39  60  87 119 160 202 244 301 365
#     4  10  20  35  56  82 113 149 189 235 288 351
#     4  10  20  35  57  80 112 150 190 237 296 352
#
# _framework density 19.394089999999998
#
# number of rings (size 3 to 8) (size 9 to 14) (size 15 to 20)
#    0.000    1.625    2.500    2.875    1.750    0.500 
#    0.000    5.000    0.000    9.000    0.000    4.375 
#    0.000    0.000    0.000    0.000    0.000    0.000 
#
# Total GULP energy -2379069.082581 kJ/mol
# GULP energy per Si atom -12390.984805 kJ/mol
# Density = 1.934995 g / cm^3
# Si number density = 19.394090 Si / 1000 Ang^3
#
#
#
# Elastic Constant Matrix: (Units=GPa)
#
#
# Indices 1 2 3 4 5 6 
#
# 1 110.4521 48.2389 42.0618 0.0000 0.0000 0.0000
# 2 48.2389 110.4521 42.0618 0.0000 0.0000 0.0000
# 3 42.0618 42.0618 103.6753 0.0000 0.0000 0.0000
# 4 0.0000 0.0000 0.0000 28.1445 0.0000 0.0000
# 5 0.0000 0.0000 0.0000 0.0000 28.1445 0.0000
# 6 0.0000 0.0000 0.0000 0.0000 0.0000 31.1066
#
#
#
# Elastic Compliance Matrix: (Units=1/GPa)
#
#
# Indices 1 2 3 4 5 6 
#
# 1 0.012051 -0.004023 -0.003257 0.000000 0.000000 0.000000
# 2 -0.004023 0.012051 -0.003257 0.000000 0.000000 0.000000
# 3 -0.003257 -0.003257 0.012288 0.000000 0.000000 0.000000
# 4 0.000000 0.000000 0.000000 0.035531 0.000000 0.000000
# 5 0.000000 0.000000 0.000000 0.000000 0.035531 0.000000
# 6 0.000000 0.000000 0.000000 0.000000 0.000000 0.032148
#
#
# Mechanical properties :
#
#
# Convention : Reuss Voigt Hill
#
# Bulk Modulus (GPa) = 65.28976 65.47829 65.38402
# Shear Modulus (GPa) = 30.16065 30.29360 30.22713
#
# Velocity S-wave (km/s) = 3.94781 3.95650 3.95216
# Velocity P-wave (km/s) = 7.38364 7.39643 7.39004
#
# Compressibility (1/GPa) = 0.01531634
#
# Stress axis : x y z
#
# Youngs Moduli (GPa) = 82.98096 82.98096 81.37801
#
# Poissons Ratio (x) = 0.33382 0.26505
# Poissons Ratio (y) = 0.33382 0.26505
# Poissons Ratio (z) = 0.27028 0.27028
#
# Static dielectric constant tensor:
#      x y z
#    x 3.516840 0.000000 0.000000 
#    y 0.000000 3.516840 0.000000 
#    z 0.000000 0.000000 3.714030 
# 
# 
# High freq. dielectric constant tensor:
#      x y z
#    x 1.752000 0.000000 0.000000 
#    y 0.000000 1.752000 0.000000 
#    z 0.000000 0.000000 1.763210 
# 
# From -- ./inp_files/6922.got.cif
#   From: 2010.03.12/outbox.cif.g09.slc.cpg/sg193_4_cif.got.tgz:6922.got - 2010.04.01 12:20:39.
