data_PCOD8330127
_publ_section_title
;
Structure prediction by ZEFSAII (Michael W. Deem and Ramdas Pophale) SiO2 
 PCOD8330127
Probable space group: P 63/M C M
;
_chemical_formula_sum "Si O2"
_cell_formula_units_Z 120
_cell_length_a 17.589471
_cell_length_b 17.589471
_cell_length_c 23.711384
_cell_angle_alpha 90.000000
_cell_angle_beta 90.000000
_cell_angle_gamma 120.000000
_cell_volume 6353.208265
_symmetry_space_group_name_H-M "P 63/M C M"
_symmetry_group_IT_number 193
_symmetry_cell_setting 'hexagonal'
loop_
_space_group_symop_operation_xyz
x,y,z
x-y,x,1/2+z
-y,x-y,z
-x,-y,1/2+z
-x+y,-x,z
y,-x+y,1/2+z
x-y,-y,1/2-z
-x,-x+y,1/2-z
y,x,1/2-z
-y,-x,-z
-x+y,y,-z
x,x-y,-z
-x,-y,-z
-x+y,-x,1/2-z
y,-x+y,-z
x,y,1/2-z
x-y,x,-z
-y,x-y,1/2-z
-x+y,y,1/2+z
x,x-y,1/2+z
-y,-x,1/2+z
y,x,z
x-y,-y,z
-x,-x+y,z
loop_
_atom_site_type_symbol
_atom_site_label
_atom_site_fract_x
_atom_site_fract_y
_atom_site_fract_z
Si Si1 0.816968 0.618489 0.564046
Si Si2 0.799755 0.897172 0.372153
Si Si3 0.899727 0.539553 0.129404
Si Si4 0.597381 0.497251 0.053046
Si Si5 0.313460 0.895433 0.750000
Si Si6 0.248785 0.147658 0.250000
O O1 0.824673 0.649345 0.500000
O O2 0.872405 0.706654 0.599469
O O3 0.717892 0.567025 0.585419
O O4 0.850924 0.549783 0.568296
O O5 0.870229 0.870229 0.393735
O O6 0.786921 0.875610 0.305598
O O7 0.836039 0.000000 0.385570
O O8 0.892352 0.449343 0.109275
O O9 0.860663 0.524017 0.192919
O O10 0.000000 0.618743 0.129052
O O11 0.567773 0.567773 0.037772
O O12 0.570380 0.429621 0.000000
O O13 0.207892 0.853548 0.750000
O O14 0.368368 0.000000 0.750000
O O15 0.218398 0.218398 0.250000
#
# Coordination Sequence:
#
# PCOD8330127 Si02
#       6
#    24  24  24  24  12  12
#     4  12  23  37  60  90 115 156 204 253 298 369
#     4  11  23  38  58  87 126 169 213 259 310 364
#     4  10  20  38  62  86 116 154 195 243 302 359
#     4  10  21  38  58  84 116 148 186 241 299 357
#     4   9  16  33  62  88 111 149 204 248 289 352
#     4   9  17  33  58  86 114 155 209 258 299 356
#
# _framework density 18.888095
#
# number of rings (size 3 to 8) (size 9 to 14) (size 15 to 20)
#    0.000    1.600    4.000    1.700    0.000    2.400 
#    1.200    4.000    0.000    3.600    0.000    0.000 
#    0.000    0.000    0.000    0.000    0.000    0.000 
#
# Total GULP energy -1487571.734152 kJ/mol
# GULP energy per Si atom -12396.431118 kJ/mol
# Density = 1.884510 g / cm^3
# Si number density = 18.888095 Si / 1000 Ang^3
#
#
#
# Elastic Constant Matrix: (Units=GPa)
#
#
# Indices 1 2 3 4 5 6 
#
# 1 101.3140 49.5336 38.7522 0.0000 0.0000 0.0000
# 2 49.5336 101.3140 38.7522 0.0000 0.0000 0.0000
# 3 38.7522 38.7522 102.8956 0.0000 0.0000 0.0000
# 4 0.0000 0.0000 0.0000 24.3340 0.0000 0.0000
# 5 0.0000 0.0000 0.0000 0.0000 24.3340 0.0000
# 6 0.0000 0.0000 0.0000 0.0000 0.0000 25.8902
#
#
#
# Elastic Compliance Matrix: (Units=1/GPa)
#
#
# Indices 1 2 3 4 5 6 
#
# 1 0.013766 -0.005546 -0.003096 0.000000 0.000000 0.000000
# 2 -0.005546 0.013766 -0.003096 0.000000 0.000000 0.000000
# 3 -0.003096 -0.003096 0.012050 0.000000 0.000000 0.000000
# 4 0.000000 0.000000 0.000000 0.041095 0.000000 0.000000
# 5 0.000000 0.000000 0.000000 0.000000 0.041095 0.000000
# 6 0.000000 0.000000 0.000000 0.000000 0.000000 0.038625
#
#
# Mechanical properties :
#
#
# Convention : Reuss Voigt Hill
#
# Bulk Modulus (GPa) = 62.08444 62.17773 62.13108
# Shear Modulus (GPa) = 26.42133 26.81068 26.61600
#
# Velocity S-wave (km/s) = 3.74416 3.77164 3.75793
# Velocity P-wave (km/s) = 7.18558 7.20816 7.19688
#
# Compressibility (1/GPa) = 0.01610709
#
# Stress axis : x y z
#
# Youngs Moduli (GPa) = 72.64250 72.64250 82.98500
#
# Poissons Ratio (x) = 0.40290 0.25690
# Poissons Ratio (y) = 0.40290 0.25690
# Poissons Ratio (z) = 0.22488 0.22488
#
# Static dielectric constant tensor:
#      x y z
#    x 3.305230 0.000000 0.000000 
#    y 0.000000 3.305230 0.000000 
#    z 0.000000 0.000000 3.786700 
# 
# 
# High freq. dielectric constant tensor:
#      x y z
#    x 1.720390 0.000000 0.000000 
#    y 0.000000 1.720390 0.000000 
#    z 0.000000 0.000000 1.744560 
# 
# From -- ./inp_files/7403.got.cif
#   From: 2010.03.12/outbox.cif.g09.slc.cpg/sg193_4_cif.got.tgz:7403.got - 2010.04.01 12:20:39.
