data_PCOD8330820
_publ_section_title
;
Structure prediction by ZEFSAII (Michael W. Deem and Ramdas Pophale) SiO2 
 PCOD8330820
Probable space group: P 63/M M C
;
_chemical_formula_sum "Si O2"
_cell_formula_units_Z 60
_cell_length_a 15.538960
_cell_length_b 15.538960
_cell_length_c 15.143219
_cell_angle_alpha 90.000000
_cell_angle_beta 90.000000
_cell_angle_gamma 120.000000
_cell_volume 3166.596536
_symmetry_space_group_name_H-M "P 63/M M C"
_symmetry_group_IT_number 194
_symmetry_cell_setting 'hexagonal'
loop_
_space_group_symop_operation_xyz
x,y,z
x-y,x,1/2+z
-y,x-y,z
-x,-y,1/2+z
-x+y,-x,z
y,-x+y,1/2+z
x-y,-y,-z
-x,-x+y,-z
y,x,-z
-y,-x,1/2-z
-x+y,y,1/2-z
x,x-y,1/2-z
-x,-y,-z
-x+y,-x,1/2-z
y,-x+y,-z
x,y,1/2-z
x-y,x,-z
-y,x-y,1/2-z
-x+y,y,z
x,x-y,z
-y,-x,z
y,x,1/2+z
x-y,-y,1/2+z
-x,-x+y,1/2+z
loop_
_atom_site_type_symbol
_atom_site_label
_atom_site_fract_x
_atom_site_fract_y
_atom_site_fract_z
Si Si1 0.938336 0.061665 0.145677
Si Si2 0.828871 0.171130 0.146929
Si Si3 0.129777 0.464267 0.250000
Si Si4 0.610334 0.584710 0.398470
O O1 0.931300 0.068700 0.250000
O O2 0.883921 0.116080 0.100791
O O3 0.056370 0.112740 0.118627
O O4 0.836807 0.163194 0.250000
O O5 0.715533 0.121192 0.118839
O O6 0.229412 0.458824 0.250000
O O7 0.157996 0.578998 0.250000
O O8 0.066913 0.407609 0.337182
O O9 0.607679 0.607679 0.500000
O O10 0.527645 0.472356 0.374679
#
# Coordination Sequence:
#
# PCOD8330820 Si02
#       4
#    12  12  12  24
#     4   7  14  30  49  79 118 148 187 232 272 346
#     4  11  20  36  63  86 116 164 202 245 307 356
#     4  10  21  39  64  90 118 154 200 257 307 356
#     4  10  23  42  60  86 124 156 203 255 300 366
#
# _framework density 18.947787000000002
#
# number of rings (size 3 to 8) (size 9 to 14) (size 15 to 20)
#    0.400    2.000    2.000    0.200    2.800    1.600 
#    1.200    0.000    0.000    1.200    0.000    0.000 
#    0.000    0.000    0.000    0.000    0.000    0.000 
#
# Total GULP energy -743554.145633 kJ/mol
# GULP energy per Si atom -12392.569094 kJ/mol
# Density = 1.890466 g / cm^3
# Si number density = 18.947787 Si / 1000 Ang^3
#
#
#
# Elastic Constant Matrix: (Units=GPa)
#
#
# Indices 1 2 3 4 5 6 
#
# 1 141.4968 92.2520 45.4347 0.0000 0.0000 0.0000
# 2 92.2520 141.4968 45.4347 0.0000 0.0000 0.0000
# 3 45.4347 45.4347 93.9442 0.0000 0.0000 0.0000
# 4 0.0000 0.0000 0.0000 17.8752 0.0000 0.0000
# 5 0.0000 0.0000 0.0000 0.0000 17.8752 0.0000
# 6 0.0000 0.0000 0.0000 0.0000 0.0000 24.6224
#
#
#
# Elastic Compliance Matrix: (Units=1/GPa)
#
#
# Indices 1 2 3 4 5 6 
#
# 1 0.012788 -0.007519 -0.002548 0.000000 0.000000 0.000000
# 2 -0.007519 0.012788 -0.002548 0.000000 0.000000 0.000000
# 3 -0.002548 -0.002548 0.013109 0.000000 0.000000 0.000000
# 4 0.000000 0.000000 0.000000 0.055943 0.000000 0.000000
# 5 0.000000 0.000000 0.000000 0.000000 0.055943 0.000000
# 6 0.000000 0.000000 0.000000 0.000000 0.000000 0.040613
#
#
# Mechanical properties :
#
#
# Convention : Reuss Voigt Hill
#
# Bulk Modulus (GPa) = 74.32611 82.57559 78.45085
# Shear Modulus (GPa) = 22.63469 24.99568 23.81519
#
# Velocity S-wave (km/s) = 3.46002 3.63600 3.54910
# Velocity P-wave (km/s) = 7.43467 7.82960 7.63469
#
# Compressibility (1/GPa) = 0.01345422
#
# Stress axis : x y z
#
# Youngs Moduli (GPa) = 78.20026 78.20026 76.28157
#
# Poissons Ratio (x) = 0.58799 0.19437
# Poissons Ratio (y) = 0.58799 0.19437
# Poissons Ratio (z) = 0.19926 0.19926
#
# Static dielectric constant tensor:
#      x y z
#    x 3.571820 0.000000 0.000000 
#    y 0.000000 3.571820 0.000000 
#    z 0.000000 0.000000 2.624070 
# 
# 
# High freq. dielectric constant tensor:
#      x y z
#    x 1.733020 0.000000 0.000000 
#    y 0.000000 1.733020 0.000000 
#    z 0.000000 0.000000 1.734190 
# 
# From -- ./inp_files/3948.got.cif
#   From: 2010.03.12/outbox.cif.g09.slc.cpg/sg194_2_cif.got.tgz:3948.got - 2010.04.01 12:26:19.
