data_PCOD8330939
_publ_section_title
;
Structure prediction by ZEFSAII (Michael W. Deem and Ramdas Pophale) SiO2 
 PCOD8330939
Probable space group: I M 3
;
_chemical_formula_sum "Si O2"
_cell_formula_units_Z 112
_cell_length_a 18.247035
_cell_length_b 18.247035
_cell_length_c 18.247035
_cell_angle_alpha 90.000000
_cell_angle_beta 90.000000
_cell_angle_gamma 90.000000
_cell_volume 6075.428515
_symmetry_space_group_name_H-M "I M 3"
_symmetry_group_IT_number 204
_symmetry_cell_setting 'cubic'
loop_
_space_group_symop_operation_xyz
x,y,z
z,x,y
y,z,x
-y,-z,x
z,-x,-y
-y,z,-x
-z,-x,y
-z,x,-y
y,-z,-x
-x,-y,z
x,-y,-z
-x,y,-z
-x,-y,-z
-z,-x,-y
-y,-z,-x
y,z,-x
-z,x,y
y,-z,x
z,x,-y
z,-x,y
-y,z,x
x,y,-z
-x,y,z
x,-y,z
1/2+x,1/2+y,1/2+z
1/2+z,1/2+x,1/2+y
1/2+y,1/2+z,1/2+x
1/2-y,1/2-z,1/2+x
1/2+z,1/2-x,1/2-y
1/2-y,1/2+z,1/2-x
1/2-z,1/2-x,1/2+y
1/2-z,1/2+x,1/2-y
1/2+y,1/2-z,1/2-x
1/2-x,1/2-y,1/2+z
1/2+x,1/2-y,1/2-z
1/2-x,1/2+y,1/2-z
1/2-x,1/2-y,1/2-z
1/2-z,1/2-x,1/2-y
1/2-y,1/2-z,1/2-x
1/2+y,1/2+z,1/2-x
1/2-z,1/2+x,1/2+y
1/2+y,1/2-z,1/2+x
1/2+z,1/2+x,1/2-y
1/2+z,1/2-x,1/2+y
1/2-y,1/2+z,1/2+x
1/2+x,1/2+y,1/2-z
1/2-x,1/2+y,1/2+z
1/2+x,1/2-y,1/2+z
loop_
_atom_site_type_symbol
_atom_site_label
_atom_site_fract_x
_atom_site_fract_y
_atom_site_fract_z
Si Si1 0.416141 0.681076 0.915656
Si Si2 0.914385 0.680101 0.822114
Si Si3 0.800152 0.199849 0.800152
O O1 0.500000 0.701590 0.898397
O O2 0.367039 0.750513 0.894231
O O3 0.392458 0.612937 0.865519
O O4 0.405816 0.658536 0.000000
O O5 0.875687 0.758840 0.818203
O O6 0.000000 0.694265 0.830252
O O7 0.750000 0.250000 0.750000
#
# Coordination Sequence:
#
# PCOD8330939 Si02
#       3
#    48  48  16
#     4  10  20  34  54  82 116 151 185 222 271 332
#     4  11  22  37  57  80 110 146 187 232 276 325
#     4  12  21  39  60  84 105 144 192 229 273 324
#
# _framework density 18.434912000000001
#
# number of rings (size 3 to 8) (size 9 to 14) (size 15 to 20)
#    0.000    1.286    4.286    1.286    0.000    8.571 
#    0.000    2.143    0.000    0.000    0.000    0.000 
#    0.000    0.000    0.000    5.143    0.000    0.000 
#
# Total GULP energy -694741.332126 kJ/mol
# GULP energy per Si atom -12406.095217 kJ/mol
# Density = 1.839295 g / cm^3
# Si number density = 18.434912 Si / 1000 Ang^3
#
#
#
# Elastic Constant Matrix: (Units=GPa)
#
#
# Indices 1 2 3 4 5 6 
#
# 1 106.6384 60.8450 60.8447 0.0000 0.0000 0.0000
# 2 60.8450 106.6377 60.8441 0.0000 0.0000 0.0000
# 3 60.8447 60.8441 106.6384 0.0000 0.0000 0.0000
# 4 0.0000 0.0000 0.0000 30.2601 0.0000 0.0000
# 5 0.0000 0.0000 0.0000 0.0000 30.2603 0.0000
# 6 0.0000 0.0000 0.0000 0.0000 0.0000 30.2603
#
#
#
# Elastic Compliance Matrix: (Units=1/GPa)
#
#
# Indices 1 2 3 4 5 6 
#
# 1 0.016018 -0.005819 -0.005819 0.000000 0.000000 0.000000
# 2 -0.005819 0.016018 -0.005819 0.000000 0.000000 0.000000
# 3 -0.005819 -0.005819 0.016018 0.000000 0.000000 0.000000
# 4 0.000000 0.000000 0.000000 0.033047 0.000000 0.000000
# 5 0.000000 0.000000 0.000000 0.000000 0.033047 0.000000
# 6 0.000000 0.000000 0.000000 0.000000 0.000000 0.033047
#
#
# Mechanical properties :
#
#
# Convention : Reuss Voigt Hill
#
# Bulk Modulus (GPa) = 76.10911 76.10911 76.10911
# Shear Modulus (GPa) = 26.81131 27.31487 27.06309
#
# Velocity S-wave (km/s) = 3.81777 3.85345 3.83565
# Velocity P-wave (km/s) = 7.79800 7.82136 7.80969
#
# Compressibility (1/GPa) = 0.01313903
#
# Stress axis : x y z
#
# Youngs Moduli (GPa) = 62.42958 62.42952 62.43040
#
# Poissons Ratio (x) = 0.36330 0.36329
# Poissons Ratio (y) = 0.36330 0.36328
# Poissons Ratio (z) = 0.36329 0.36328
#
# Static dielectric constant tensor:
#      x y z
#    x 3.400900 0.000000 0.000000 
#    y 0.000000 3.400900 0.000000 
#    z 0.000000 0.000000 3.400910 
# 
# 
# High freq. dielectric constant tensor:
#      x y z
#    x 1.710070 0.000000 0.000000 
#    y 0.000000 1.710070 0.000000 
#    z 0.000000 0.000000 1.710070 
# 
# From -- ./inp_files/229.got.cif
#   From: 2010.03.12/outbox.cif.g09.slc.cpg/sg204_cif.got.tgz:229.got - 2010.03.30 09:02:39.
