data_PCOD8330445
_publ_section_title
;
Structure prediction by ZEFSAII (Michael W. Deem and Ramdas Pophale) SiO2 
 PCOD8330445
Probable space group: P 63/M M C
;
_chemical_formula_sum "Si O2"
_cell_formula_units_Z 192
_cell_length_a 23.376403
_cell_length_b 23.376403
_cell_length_c 23.053775
_cell_angle_alpha 90.000000
_cell_angle_beta 90.000000
_cell_angle_gamma 120.000000
_cell_volume 10910.082970
_symmetry_space_group_name_H-M "P 63/M M C"
_symmetry_group_IT_number 194
_symmetry_cell_setting 'hexagonal'
loop_
_space_group_symop_operation_xyz
x,y,z
x-y,x,1/2+z
-y,x-y,z
-x,-y,1/2+z
-x+y,-x,z
y,-x+y,1/2+z
x-y,-y,-z
-x,-x+y,-z
y,x,-z
-y,-x,1/2-z
-x+y,y,1/2-z
x,x-y,1/2-z
-x,-y,-z
-x+y,-x,1/2-z
y,-x+y,-z
x,y,1/2-z
x-y,x,-z
-y,x-y,1/2-z
-x+y,y,z
x,x-y,z
-y,-x,z
y,x,1/2+z
x-y,-y,1/2+z
-x,-x+y,1/2+z
loop_
_atom_site_type_symbol
_atom_site_label
_atom_site_fract_x
_atom_site_fract_y
_atom_site_fract_z
Si Si1 0.801556 0.070973 0.485050
Si Si2 0.732607 0.930366 0.648168
Si Si3 0.123001 0.744382 0.421381
Si Si4 0.075287 0.281170 0.316600
Si Si5 0.392849 0.476383 0.116087
Si Si6 0.855822 0.267371 0.184354
Si Si7 0.210350 0.543217 0.182152
Si Si8 0.539746 0.590405 0.817358
O O1 0.877356 0.122645 0.499526
O O2 0.784047 0.073324 0.418447
O O3 0.754122 0.085926 0.524457
O O4 0.792226 0.000000 0.500000
O O5 0.761677 0.880839 0.659096
O O6 0.666474 0.907233 0.684694
O O7 0.785984 0.004134 0.667881
O O8 0.201592 0.798409 0.423739
O O9 0.092304 0.750594 0.360106
O O10 0.105849 0.667956 0.429189
O O11 0.076515 0.304266 0.250000
O O12 0.128735 0.257470 0.325445
O O13 0.456313 0.543688 0.090171
O O14 0.358131 0.492971 0.168185
O O15 0.416638 0.428804 0.142630
O O16 0.838465 0.274065 0.250000
O O17 0.786695 0.213306 0.152857
O O18 0.890188 0.340635 0.156951
O O19 0.217582 0.546691 0.250000
O O20 0.260401 0.520802 0.155303
O O21 0.231276 0.615638 0.157140
O O22 0.562853 0.597291 0.750000
O O23 0.462948 0.537053 0.823158
#
# Coordination Sequence:
#
# PCOD8330445 Si02
#       8
#    24  24  24  24  24  24  24  24
#     4  10  20  34  54  77  99 131 168 207 252 291
#     4  10  19  31  50  75  98 126 166 207 247 289
#     4  10  20  34  50  70  98 130 167 211 254 295
#     4  10  20  32  48  73 104 135 165 200 247 300
#     4  10  19  29  43  63  90 126 164 199 241 295
#     4   9  17  29  47  71  96 119 148 192 242 291
#     4   9  16  25  37  55  82 119 165 212 250 282
#     4   9  17  28  42  62  91 126 158 188 228 283
#
# _framework density 17.598400000000002
#
# number of rings (size 3 to 8) (size 9 to 14) (size 15 to 20)
#    0.000    2.375    1.250    2.000    0.000    4.750 
#    0.000    1.250    0.000    2.000    0.000    1.750 
#    0.000    0.000    0.000    0.000    0.000    0.000 
#
# Total GULP energy -2378842.426237 kJ/mol
# GULP energy per Si atom -12389.804303 kJ/mol
# Density = 1.755835 g / cm^3
# Si number density = 17.598400 Si / 1000 Ang^3
#
#
#
# Elastic Constant Matrix: (Units=GPa)
#
#
# Indices 1 2 3 4 5 6 
#
# 1 117.7366 63.0520 18.1957 0.0000 0.0000 0.0000
# 2 63.0520 117.7366 18.1957 0.0000 0.0000 0.0000
# 3 18.1957 18.1957 52.4937 0.0000 0.0000 0.0000
# 4 0.0000 0.0000 0.0000 15.5896 0.0000 0.0000
# 5 0.0000 0.0000 0.0000 0.0000 15.5896 0.0000
# 6 0.0000 0.0000 0.0000 0.0000 0.0000 27.3423
#
#
#
# Elastic Compliance Matrix: (Units=1/GPa)
#
#
# Indices 1 2 3 4 5 6 
#
# 1 0.012116 -0.006170 -0.002061 0.000000 0.000000 0.000000
# 2 -0.006170 0.012116 -0.002061 0.000000 0.000000 0.000000
# 3 -0.002061 -0.002061 0.020479 0.000000 0.000000 0.000000
# 4 0.000000 0.000000 0.000000 0.064145 0.000000 0.000000
# 5 0.000000 0.000000 0.000000 0.000000 0.064145 0.000000
# 6 0.000000 0.000000 0.000000 0.000000 0.000000 0.036573
#
#
# Mechanical properties :
#
#
# Convention : Reuss Voigt Hill
#
# Bulk Modulus (GPa) = 41.44780 54.09486 47.77133
# Shear Modulus (GPa) = 20.99048 24.27251 22.63150
#
# Velocity S-wave (km/s) = 3.45737 3.71785 3.58997
# Velocity P-wave (km/s) = 6.28816 7.01677 6.66244
#
# Compressibility (1/GPa) = 0.02412673
#
# Stress axis : x y z
#
# Youngs Moduli (GPa) = 82.53240 82.53240 48.83105
#
# Poissons Ratio (x) = 0.50924 0.10065
# Poissons Ratio (y) = 0.50924 0.10065
# Poissons Ratio (z) = 0.17011 0.17011
#
# Static dielectric constant tensor:
#      x y z
#    x 3.452800 0.000000 0.000000 
#    y 0.000000 3.452800 0.000000 
#    z 0.000000 0.000000 3.075920 
# 
# 
# High freq. dielectric constant tensor:
#      x y z
#    x 1.677250 0.000000 0.000000 
#    y 0.000000 1.677250 0.000000 
#    z 0.000000 0.000000 1.649270 
# 
# From -- ./inp_files/10136.got.cif
#   From: 2010.03.12/outbox.cif.g09.slc.cpg/sg194_6_cif.got.tgz:10136.got - 2010.04.01 12:26:19.
