data_PCOD8330993
_publ_section_title
;
Structure prediction by ZEFSAII (Michael W. Deem and Ramdas Pophale) SiO2 
 PCOD8330993
Probable space group: F 4 3 2
;
_chemical_formula_sum "Si O2"
_cell_formula_units_Z 352
_cell_length_a 27.060413
_cell_length_b 27.060413
_cell_length_c 27.060413
_cell_angle_alpha 90.000000
_cell_angle_beta 90.000000
_cell_angle_gamma 90.000000
_cell_volume 19815.419080
_symmetry_space_group_name_H-M "F 4 3 2"
_symmetry_group_IT_number 209
_symmetry_cell_setting 'cubic'
loop_
_space_group_symop_operation_xyz
x,y,z
-y,x,z
-x,-y,z
y,-x,z
x,-z,y
x,-y,-z
x,z,-y
z,y,-x
-x,y,-z
-z,y,x
z,x,y
y,z,x
-y,-z,x
z,-x,-y
-y,z,-x
-z,-x,y
-z,x,-y
y,-z,-x
y,x,-z
-y,-x,-z
-x,z,y
-x,-z,-y
z,-y,x
-z,-y,-x
x,1/2+y,1/2+z
-y,1/2+x,1/2+z
-x,1/2-y,1/2+z
y,1/2-x,1/2+z
x,1/2-z,1/2+y
x,1/2-y,1/2-z
x,1/2+z,1/2-y
z,1/2+y,1/2-x
-x,1/2+y,1/2-z
-z,1/2+y,1/2+x
z,1/2+x,1/2+y
y,1/2+z,1/2+x
-y,1/2-z,1/2+x
z,1/2-x,1/2-y
-y,1/2+z,1/2-x
-z,1/2-x,1/2+y
-z,1/2+x,1/2-y
y,1/2-z,1/2-x
y,1/2+x,1/2-z
-y,1/2-x,1/2-z
-x,1/2+z,1/2+y
-x,1/2-z,1/2-y
z,1/2-y,1/2+x
-z,1/2-y,1/2-x
1/2+x,y,1/2+z
1/2-y,x,1/2+z
1/2-x,-y,1/2+z
1/2+y,-x,1/2+z
1/2+x,-z,1/2+y
1/2+x,-y,1/2-z
1/2+x,z,1/2-y
1/2+z,y,1/2-x
1/2-x,y,1/2-z
1/2-z,y,1/2+x
1/2+z,x,1/2+y
1/2+y,z,1/2+x
1/2-y,-z,1/2+x
1/2+z,-x,1/2-y
1/2-y,z,1/2-x
1/2-z,-x,1/2+y
1/2-z,x,1/2-y
1/2+y,-z,1/2-x
1/2+y,x,1/2-z
1/2-y,-x,1/2-z
1/2-x,z,1/2+y
1/2-x,-z,1/2-y
1/2+z,-y,1/2+x
1/2-z,-y,1/2-x
1/2+x,1/2+y,z
1/2-y,1/2+x,z
1/2-x,1/2-y,z
1/2+y,1/2-x,z
1/2+x,1/2-z,y
1/2+x,1/2-y,-z
1/2+x,1/2+z,-y
1/2+z,1/2+y,-x
1/2-x,1/2+y,-z
1/2-z,1/2+y,x
1/2+z,1/2+x,y
1/2+y,1/2+z,x
1/2-y,1/2-z,x
1/2+z,1/2-x,-y
1/2-y,1/2+z,-x
1/2-z,1/2-x,y
1/2-z,1/2+x,-y
1/2+y,1/2-z,-x
1/2+y,1/2+x,-z
1/2-y,1/2-x,-z
1/2-x,1/2+z,y
1/2-x,1/2-z,-y
1/2+z,1/2-y,x
1/2-z,1/2-y,-x
loop_
_atom_site_type_symbol
_atom_site_label
_atom_site_fract_x
_atom_site_fract_y
_atom_site_fract_z
Si Si1 0.064646 0.188280 0.045890
Si Si2 0.558782 0.204452 0.211217
Si Si3 0.833398 0.166603 0.166604
Si Si4 0.875874 0.382793 0.246197
Si Si5 0.098304 0.098303 0.901698
O O1 0.104901 0.221130 0.072339
O O2 0.076015 0.130430 0.053789
O O3 0.011399 0.200908 0.068112
O O4 0.500000 0.201242 0.201242
O O5 0.569087 0.250000 0.250000
O O6 0.589777 0.207633 0.159964
O O7 0.577731 0.150699 0.229207
O O8 0.840290 0.153434 0.223515
O O9 0.867544 0.132457 0.132458
#
# Coordination Sequence:
#
# PCOD8330993 Si02
#       5
#    96  96  32  96  32
#     4  10  20  33  52  75 101 138 179 222 272 322
#     4  11  23  36  58  85 112 150 196 239 283 341
#     4   9  18  30  51  72 102 139 175 207 273 312
#     4  11  20  38  52  77 111 146 184 233 279 329
#     4   9  18  30  48  72 100 130 165 210 261 309
#
# _framework density 17.763943999999999
#
# number of rings (size 3 to 8) (size 9 to 14) (size 15 to 20)
#    0.000    1.636    2.727    3.000    0.000    0.000 
#    0.000    0.000    0.000    0.000    0.000    3.818 
#    0.000    0.000    0.000    0.818    0.000    0.000 
#
# Total GULP energy -1090240.876042 kJ/mol
# GULP energy per Si atom -12389.100864 kJ/mol
# Density = 1.772351 g / cm^3
# Si number density = 17.763944 Si / 1000 Ang^3
#
#
#
# Elastic Constant Matrix: (Units=GPa)
#
#
# Indices 1 2 3 4 5 6 
#
# 1 118.3959 -14.7471 -14.7203 0.0000 0.0000 0.0000
# 2 -14.7471 118.3959 -14.7203 0.0000 0.0000 0.0000
# 3 -14.7203 -14.7203 118.3780 0.0000 0.0000 0.0000
# 4 0.0000 0.0000 0.0000 23.2420 0.0000 0.0000
# 5 0.0000 0.0000 0.0000 0.0000 23.2420 0.0000
# 6 0.0000 0.0000 0.0000 0.0000 0.0000 23.2420
#
#
#
# Elastic Compliance Matrix: (Units=1/GPa)
#
#
# Indices 1 2 3 4 5 6 
#
# 1 0.008756 0.001245 0.001244 0.000000 0.000000 0.000000
# 2 0.001245 0.008756 0.001244 0.000000 0.000000 0.000000
# 3 0.001244 0.001244 0.008757 0.000000 0.000000 0.000000
# 4 0.000000 0.000000 0.000000 0.043026 0.000000 0.000000
# 5 0.000000 0.000000 0.000000 0.000000 0.043026 0.000000
# 6 0.000000 0.000000 0.000000 0.000000 0.000000 0.043025
#
#
# Mechanical properties :
#
#
# Convention : Reuss Voigt Hill
#
# Bulk Modulus (GPa) = 29.64381 29.64381 29.64381
# Shear Modulus (GPa) = 31.42188 40.56905 35.99546
#
# Velocity S-wave (km/s) = 4.21034 4.78408 4.50635
# Velocity P-wave (km/s) = 6.35294 6.87317 6.61817
#
# Compressibility (1/GPa) = 0.03373385
#
# Stress axis : x y z
#
# Youngs Moduli (GPa) = 114.20781 114.20781 114.19680
#
# Poissons Ratio (x) = -0.14222 -0.14202
# Poissons Ratio (y) = -0.14222 -0.14202
# Poissons Ratio (z) = -0.14203 -0.14203
#
# Static dielectric constant tensor:
#      x y z
#    x 3.256540 0.000000 0.000000 
#    y 0.000000 3.256540 0.000000 
#    z 0.000000 0.000000 3.256520 
# 
# 
# High freq. dielectric constant tensor:
#      x y z
#    x 1.682350 0.000000 0.000000 
#    y 0.000000 1.682350 0.000000 
#    z 0.000000 0.000000 1.682350 
# 
# From -- ./inp_files/644.got.cif
#   From: 2010.03.12/outbox.cif.g09.slc.cpg/sg209_cif.got.tgz:644.got - 2010.03.30 09:04:18.
