data_PCOD8330923
_publ_section_title
;
Structure prediction by ZEFSAII (Michael W. Deem and Ramdas Pophale) SiO2 
 PCOD8330923
Probable space group: P N 3
;
_chemical_formula_sum "Si O2"
_cell_formula_units_Z 116
_cell_length_a 17.250644
_cell_length_b 17.250644
_cell_length_c 17.250644
_cell_angle_alpha 90.000000
_cell_angle_beta 90.000000
_cell_angle_gamma 90.000000
_cell_volume 5133.528037
_symmetry_space_group_name_H-M "P N 3"
_symmetry_group_IT_number 201
_space_group.IT_coordinate_system_code '2'
_symmetry_cell_setting 'cubic'
loop_
_space_group_symop_operation_xyz
x,y,z
z,x,y
y,z,x
1/2-y,1/2-z,x
z,1/2-x,1/2-y
1/2-y,z,1/2-x
1/2-z,1/2-x,y
1/2-z,x,1/2-y
y,1/2-z,1/2-x
1/2-x,1/2-y,z
x,1/2-y,1/2-z
1/2-x,y,1/2-z
-x,-y,-z
-z,-x,-y
-y,-z,-x
1/2+y,1/2+z,-x
-z,1/2+x,1/2+y
1/2+y,-z,1/2+x
1/2+z,1/2+x,-y
1/2+z,-x,1/2+y
-y,1/2+z,1/2+x
1/2+x,1/2+y,-z
-x,1/2+y,1/2+z
1/2+x,-y,1/2+z
loop_
_atom_site_type_symbol
_atom_site_label
_atom_site_fract_x
_atom_site_fract_y
_atom_site_fract_z
Si Si1 0.476944 0.380228 0.158118
Si Si2 0.835483 0.284953 0.962470
Si Si3 0.625545 0.064221 0.399210
Si Si4 0.617658 0.085126 0.845632
Si Si5 0.250000 0.519595 0.250000
Si Si6 0.552863 0.552863 0.552863
O O1 0.422516 0.455805 0.165190
O O2 0.567254 0.403781 0.166772
O O3 0.462882 0.321051 0.228271
O O4 0.750000 0.250000 0.976161
O O5 0.883909 0.215967 0.920832
O O6 0.838709 0.359397 0.907161
O O7 0.872757 0.309537 0.043491
O O8 0.595157 0.109696 0.473500
O O9 0.676431 0.071989 0.774304
O O10 0.595696 0.002990 0.885378
O O11 0.500000 0.500000 0.500000
#
# Coordination Sequence:
#
# PCOD8330923 Si02
#       6
#    24  24  24  24  12   8
#     4  10  23  45  67 100 144 183 246 298 374 467
#     4  12  26  44  71 103 154 201 251 316 389 464
#     4  12  21  40  71 104 135 184 237 314 368 441
#     4  12  27  50  73 119 151 206 271 318 400 474
#     4  12  28  44  73 113 152 192 244 334 394 449
#     4  12  24  51  90 105 153 219 282 327 363 510
#
# _framework density 22.596544000000002
#
# number of rings (size 3 to 8) (size 9 to 14) (size 15 to 20)
#    0.414    0.000    4.138    3.931    2.897    1.655 
#    1.241    1.034    0.000    0.000    0.000    0.000 
#    0.000    0.000    0.000    0.000    0.000    0.000 
#
# Total GULP energy -1437678.800849 kJ/mol
# GULP energy per Si atom -12393.782766 kJ/mol
# Density = 2.254511 g / cm^3
# Si number density = 22.596544 Si / 1000 Ang^3
#
#
#
# Elastic Constant Matrix: (Units=GPa)
#
#
# Indices 1 2 3 4 5 6 
#
# 1 96.0276 33.6034 33.6034 0.0000 0.0000 0.0000
# 2 33.6034 96.0278 33.6033 0.0000 0.0000 0.0000
# 3 33.6034 33.6033 96.0274 0.0000 0.0000 0.0000
# 4 0.0000 0.0000 0.0000 40.8836 0.0000 0.0000
# 5 0.0000 0.0000 0.0000 0.0000 40.8836 0.0000
# 6 0.0000 0.0000 0.0000 0.0000 0.0000 40.8836
#
#
#
# Elastic Compliance Matrix: (Units=1/GPa)
#
#
# Indices 1 2 3 4 5 6 
#
# 1 0.012722 -0.003298 -0.003298 0.000000 0.000000 0.000000
# 2 -0.003298 0.012722 -0.003298 0.000000 0.000000 0.000000
# 3 -0.003298 -0.003298 0.012722 0.000000 0.000000 0.000000
# 4 0.000000 0.000000 0.000000 0.024460 0.000000 0.000000
# 5 0.000000 0.000000 0.000000 0.000000 0.024460 0.000000
# 6 0.000000 0.000000 0.000000 0.000000 0.000000 0.024460
#
#
# Mechanical properties :
#
#
# Convention : Reuss Voigt Hill
#
# Bulk Modulus (GPa) = 54.41143 54.41143 54.41143
# Shear Modulus (GPa) = 36.37509 37.01502 36.69505
#
# Velocity S-wave (km/s) = 4.01654 4.05171 4.03416
# Velocity P-wave (km/s) = 6.75588 6.78383 6.76987
#
# Compressibility (1/GPa) = 0.01837849
#
# Stress axis : x y z
#
# Youngs Moduli (GPa) = 78.60604 78.60627 78.60591
#
# Poissons Ratio (x) = 0.25922 0.25922
# Poissons Ratio (y) = 0.25922 0.25922
# Poissons Ratio (z) = 0.25922 0.25922
#
# Static dielectric constant tensor:
#      x y z
#    x 4.126250 0.000000 0.000000 
#    y 0.000000 4.126260 0.000000 
#    z 0.000000 0.000000 4.126250 
# 
# 
# High freq. dielectric constant tensor:
#      x y z
#    x 1.893210 0.000000 0.000000 
#    y 0.000000 1.893210 0.000000 
#    z 0.000000 0.000000 1.893210 
# 
# From -- ./inp_files/654.got.cif
#   From: 2010.03.12/outbox.cif.g09.slc.cpg/sg201_cif.got.tgz:654.got - 2010.03.30 09:02:05.
