data_PCOD8330045
_publ_section_title
;
Structure prediction by ZEFSAII (Michael W. Deem and Ramdas Pophale) SiO2 
 PCOD8330045
Probable space group: P 63/M C M
;
_chemical_formula_sum "Si O2"
_cell_formula_units_Z 144
_cell_length_a 32.323381
_cell_length_b 32.323381
_cell_length_c 8.823160
_cell_angle_alpha 90.000000
_cell_angle_beta 90.000000
_cell_angle_gamma 120.000000
_cell_volume 7983.408447
_symmetry_space_group_name_H-M "P 63/M C M"
_symmetry_group_IT_number 193
_symmetry_cell_setting 'hexagonal'
loop_
_space_group_symop_operation_xyz
x,y,z
x-y,x,1/2+z
-y,x-y,z
-x,-y,1/2+z
-x+y,-x,z
y,-x+y,1/2+z
x-y,-y,1/2-z
-x,-x+y,1/2-z
y,x,1/2-z
-y,-x,-z
-x+y,y,-z
x,x-y,-z
-x,-y,-z
-x+y,-x,1/2-z
y,-x+y,-z
x,y,1/2-z
x-y,x,-z
-y,x-y,1/2-z
-x+y,y,1/2+z
x,x-y,1/2+z
-y,-x,1/2+z
y,x,z
x-y,-y,z
-x,-x+y,z
loop_
_atom_site_type_symbol
_atom_site_label
_atom_site_fract_x
_atom_site_fract_y
_atom_site_fract_z
Si Si1 0.805666 0.945142 0.427362
Si Si2 0.857780 0.386205 0.425753
Si Si3 0.277892 0.470337 0.928648
Si Si4 0.055248 0.282091 0.427184
Si Si5 0.383467 0.280204 0.429239
Si Si6 0.946222 0.566712 0.573688
O O1 0.825430 0.912715 0.500000
O O2 0.795963 0.934758 0.250000
O O3 0.756252 0.931815 0.508699
O O4 0.845277 0.000000 0.458490
O O5 0.842027 0.421014 0.500000
O O6 0.857717 0.394785 0.250000
O O7 0.820635 0.331674 0.470246
O O8 0.910733 0.398334 0.479318
O O9 0.270369 0.463643 0.750000
O O10 0.244014 0.488028 0.000000
O O11 0.265536 0.419838 0.999231
O O12 0.067139 0.289343 0.250000
O O13 0.088126 0.330945 0.514431
O O14 0.000000 0.265165 0.458579
O O15 0.385818 0.277892 0.250000
O O16 0.396576 0.333183 0.479996
O O17 0.936871 0.572749 0.750000
O O18 0.000000 0.578408 0.544061
#
# Coordination Sequence:
#
# PCOD8330045 Si02
#       6
#    24  24  24  24  24  24
#     4  10  21  37  57  81 107 135 170 212 257 308
#     4   9  19  34  53  77 104 133 166 206 253 306
#     4  10  21  38  57  78 103 132 168 210 258 310
#     4  10  20  34  52  74 104 143 182 219 259 301
#     4  11  21  32  49  75 106 140 179 220 258 300
#     4   9  18  33  50  70 102 143 182 219 258 296
#
# _framework density 18.037409
#
# number of rings (size 3 to 8) (size 9 to 14) (size 15 to 20)
#    0.000    2.167    0.000    4.500    0.000    8.667 
#    0.000    3.333    0.000    0.500    0.000    0.000 
#    0.000    0.000    0.000    0.000    0.000    0.000 
#
# Total GULP energy -1785938.121086 kJ/mol
# GULP energy per Si atom -12402.348063 kJ/mol
# Density = 1.799635 g / cm^3
# Si number density = 18.037409 Si / 1000 Ang^3
#
#
#
# Elastic Constant Matrix: (Units=GPa)
#
#
# Indices 1 2 3 4 5 6 
#
# 1 101.1729 76.5752 55.9791 0.0000 0.0000 0.0000
# 2 76.5752 101.1729 55.9791 0.0000 0.0000 0.0000
# 3 55.9791 55.9791 100.7800 0.0000 0.0000 0.0000
# 4 0.0000 0.0000 0.0000 30.7532 0.0000 0.0000
# 5 0.0000 0.0000 0.0000 0.0000 30.7532 0.0000
# 6 0.0000 0.0000 0.0000 0.0000 0.0000 12.2989
#
#
#
# Elastic Compliance Matrix: (Units=1/GPa)
#
#
# Indices 1 2 3 4 5 6 
#
# 1 0.024654 -0.016000 -0.004807 0.000000 0.000000 0.000000
# 2 -0.016000 0.024654 -0.004807 0.000000 0.000000 0.000000
# 3 -0.004807 -0.004807 0.015262 0.000000 0.000000 0.000000
# 4 0.000000 0.000000 0.000000 0.032517 0.000000 0.000000
# 5 0.000000 0.000000 0.000000 0.000000 0.032517 0.000000
# 6 0.000000 0.000000 0.000000 0.000000 0.000000 0.081308
#
#
# Mechanical properties :
#
#
# Convention : Reuss Voigt Hill
#
# Bulk Modulus (GPa) = 74.94695 75.57695 75.26195
# Shear Modulus (GPa) = 18.75559 22.40057 20.57808
#
# Velocity S-wave (km/s) = 3.22812 3.52788 3.38132
# Velocity P-wave (km/s) = 7.45221 7.65412 7.55384
#
# Compressibility (1/GPa) = 0.01334277
#
# Stress axis : x y z
#
# Youngs Moduli (GPa) = 40.56163 40.56163 65.52050
#
# Poissons Ratio (x) = 0.64900 0.31493
# Poissons Ratio (y) = 0.64900 0.31493
# Poissons Ratio (z) = 0.19497 0.19497
#
# Static dielectric constant tensor:
#      x y z
#    x 3.494780 0.000000 0.000000 
#    y 0.000000 3.494780 0.000000 
#    z 0.000000 0.000000 3.384620 
# 
# 
# High freq. dielectric constant tensor:
#      x y z
#    x 1.689150 0.000000 0.000000 
#    y 0.000000 1.689150 0.000000 
#    z 0.000000 0.000000 1.708290 
# 
# From -- ./inp_files/1546.got.cif
#   From: 2010.03.12/outbox.cif.g09.slc.cpg/sg193_1_cif.got.tgz:1546.got - 2010.04.01 12:20:39.
