data_PCOD8330005
_publ_section_title
;
Structure prediction by ZEFSAII (Michael W. Deem and Ramdas Pophale) SiO2 
 PCOD8330005
Probable space group: P 63/M C M
;
_chemical_formula_sum "Si O2"
_cell_formula_units_Z 168
_cell_length_a 18.140416
_cell_length_b 18.140416
_cell_length_c 30.166110
_cell_angle_alpha 90.000000
_cell_angle_beta 90.000000
_cell_angle_gamma 120.000000
_cell_volume 8596.950505
_symmetry_space_group_name_H-M "P 63/M C M"
_symmetry_group_IT_number 193
_symmetry_cell_setting 'hexagonal'
loop_
_space_group_symop_operation_xyz
x,y,z
x-y,x,1/2+z
-y,x-y,z
-x,-y,1/2+z
-x+y,-x,z
y,-x+y,1/2+z
x-y,-y,1/2-z
-x,-x+y,1/2-z
y,x,1/2-z
-y,-x,-z
-x+y,y,-z
x,x-y,-z
-x,-y,-z
-x+y,-x,1/2-z
y,-x+y,-z
x,y,1/2-z
x-y,x,-z
-y,x-y,1/2-z
-x+y,y,1/2+z
x,x-y,1/2+z
-y,-x,1/2+z
y,x,z
x-y,-y,z
-x,-x+y,z
loop_
_atom_site_type_symbol
_atom_site_label
_atom_site_fract_x
_atom_site_fract_y
_atom_site_fract_z
Si Si1 0.257722 0.905727 0.499835
Si Si2 0.899559 0.419893 0.629060
Si Si3 0.093186 0.184768 0.302118
Si Si4 0.096612 0.360688 0.899999
Si Si5 0.327964 0.099004 0.144522
Si Si6 0.369204 0.469896 0.700288
Si Si7 0.494945 0.596065 0.041001
O O1 0.156603 0.843398 0.500000
O O2 0.292057 0.905882 0.549181
O O3 0.305578 0.875107 0.465372
O O4 0.276288 0.000000 0.487245
O O5 0.875098 0.321479 0.628535
O O6 0.868298 0.439633 0.675679
O O7 0.860138 0.445682 0.587274
O O8 0.000000 0.479228 0.625190
O O9 0.098209 0.186182 0.250000
O O10 0.160995 0.160995 0.322468
O O11 0.112285 0.276552 0.316465
O O12 0.000000 0.113332 0.318582
O O13 0.169052 0.333525 0.893825
O O14 0.000000 0.286086 0.886663
O O15 0.418410 0.128331 0.167099
O O16 0.281386 0.000000 0.127055
O O17 0.344130 0.485381 0.750000
O O18 0.417112 0.417112 0.705626
O O19 0.537566 0.537566 0.040228
O O20 0.429591 0.570410 0.000000
#
# Coordination Sequence:
#
# PCOD8330005 Si02
#       7
#    24  24  24  24  24  24  24
#     4  10  21  34  53  82 118 153 188 234 285 338
#     4   9  17  31  54  79 102 130 166 217 282 343
#     4   9  16  27  44  67  97 136 183 236 292 341
#     4  10  20  35  52  79 115 148 184 234 287 331
#     4  10  20  32  50  76 107 146 189 235 280 324
#     4   9  18  33  52  76 105 136 176 226 274 328
#     4   9  15  29  53  81 107 132 167 213 276 348
#
# _framework density 19.541813999999999
#
# number of rings (size 3 to 8) (size 9 to 14) (size 15 to 20)
#    0.000    2.571    1.429    1.000    2.000    2.857 
#    0.000    1.429    0.000    4.714    3.714    0.000 
#    0.000    0.000    0.000    0.000    0.000    0.000 
#
# Total GULP energy -2081430.691355 kJ/mol
# GULP energy per Si atom -12389.468401 kJ/mol
# Density = 1.949734 g / cm^3
# Si number density = 19.541814 Si / 1000 Ang^3
#
#
#
# Elastic Constant Matrix: (Units=GPa)
#
#
# Indices 1 2 3 4 5 6 
#
# 1 78.9495 30.1554 16.4215 0.0000 0.0000 0.0000
# 2 30.1554 78.9495 16.4215 0.0000 0.0000 0.0000
# 3 16.4215 16.4215 64.9420 0.0000 0.0000 0.0000
# 4 0.0000 0.0000 0.0000 23.9467 0.0000 0.0000
# 5 0.0000 0.0000 0.0000 0.0000 23.9467 0.0000
# 6 0.0000 0.0000 0.0000 0.0000 0.0000 24.3970
#
#
#
# Elastic Compliance Matrix: (Units=1/GPa)
#
#
# Indices 1 2 3 4 5 6 
#
# 1 0.015207 -0.005287 -0.002509 0.000000 0.000000 0.000000
# 2 -0.005287 0.015207 -0.002509 0.000000 0.000000 0.000000
# 3 -0.002509 -0.002509 0.016667 0.000000 0.000000 0.000000
# 4 0.000000 0.000000 0.000000 0.041759 0.000000 0.000000
# 5 0.000000 0.000000 0.000000 0.000000 0.041759 0.000000
# 6 0.000000 0.000000 0.000000 0.000000 0.000000 0.040989
#
#
# Mechanical properties :
#
#
# Convention : Reuss Voigt Hill
#
# Bulk Modulus (GPa) = 37.77290 38.75973 38.26631
# Shear Modulus (GPa) = 24.87289 25.11424 24.99356
#
# Velocity S-wave (km/s) = 3.57151 3.58879 3.58016
# Velocity P-wave (km/s) = 6.03148 6.08686 6.05924
#
# Compressibility (1/GPa) = 0.02647401
#
# Stress axis : x y z
#
# Youngs Moduli (GPa) = 65.75719 65.75719 59.99875
#
# Poissons Ratio (x) = 0.34765 0.15051
# Poissons Ratio (y) = 0.34765 0.15051
# Poissons Ratio (z) = 0.16496 0.16496
#
# Static dielectric constant tensor:
#      x y z
#    x 3.435790 0.000000 0.000000 
#    y 0.000000 3.435790 0.000000 
#    z 0.000000 0.000000 3.685840 
# 
# 
# High freq. dielectric constant tensor:
#      x y z
#    x 1.734970 0.000000 0.000000 
#    y 0.000000 1.734970 0.000000 
#    z 0.000000 0.000000 1.758250 
# 
# From -- ./inp_files/9341.got.cif
#   From: 2010.03.12/outbox.cif.g09.slc.cpg/sg193_5_cif.got.tgz:9341.got - 2010.04.01 12:20:39.
