data_PCOD8330089
_publ_section_title
;
Structure prediction by ZEFSAII (Michael W. Deem and Ramdas Pophale) SiO2 
 PCOD8330089
Probable space group: P 63/M C M
;
_chemical_formula_sum "Si O2"
_cell_formula_units_Z 144
_cell_length_a 21.990985
_cell_length_b 21.990985
_cell_length_c 18.208618
_cell_angle_alpha 90.000000
_cell_angle_beta 90.000000
_cell_angle_gamma 120.000000
_cell_volume 7626.003166
_symmetry_space_group_name_H-M "P 63/M C M"
_symmetry_group_IT_number 193
_symmetry_cell_setting 'hexagonal'
loop_
_space_group_symop_operation_xyz
x,y,z
x-y,x,1/2+z
-y,x-y,z
-x,-y,1/2+z
-x+y,-x,z
y,-x+y,1/2+z
x-y,-y,1/2-z
-x,-x+y,1/2-z
y,x,1/2-z
-y,-x,-z
-x+y,y,-z
x,x-y,-z
-x,-y,-z
-x+y,-x,1/2-z
y,-x+y,-z
x,y,1/2-z
x-y,x,-z
-y,x-y,1/2-z
-x+y,y,1/2+z
x,x-y,1/2+z
-y,-x,1/2+z
y,x,z
x-y,-y,z
-x,-x+y,z
loop_
_atom_site_type_symbol
_atom_site_label
_atom_site_fract_x
_atom_site_fract_y
_atom_site_fract_z
Si Si1 0.808177 0.468656 0.165129
Si Si2 0.083192 0.800351 0.833233
Si Si3 0.674656 0.471821 0.333502
Si Si4 0.519955 0.599571 0.543488
Si Si5 0.162258 0.080890 0.585505
Si Si6 0.404493 0.324843 0.593124
O O1 0.827482 0.492182 0.250000
O O2 0.777501 0.385695 0.157245
O O3 0.747253 0.482079 0.133397
O O4 0.876888 0.512314 0.116349
O O5 0.112481 0.807271 0.750000
O O6 0.111425 0.877075 0.868442
O O7 0.107437 0.756236 0.884866
O O8 0.000000 0.761730 0.832155
O O9 0.689533 0.494743 0.250000
O O10 0.648689 0.520751 0.369955
O O11 0.445920 0.554081 0.500000
O O12 0.546610 0.546610 0.568181
O O13 0.579292 0.662812 0.493703
O O14 0.182148 0.091074 0.500000
O O15 0.108293 0.108293 0.603262
O O16 0.125672 0.000000 0.609399
O O17 0.373488 0.373488 0.622030
#
# Coordination Sequence:
#
# PCOD8330089 Si02
#       6
#    24  24  24  24  24  24
#     4  10  21  37  56  82 116 151 184 225 281 339
#     4   9  18  33  53  79 109 141 184 237 287 338
#     4  10  20  35  56  81 112 148 184 223 274 340
#     4  10  20  37  57  83 114 142 185 240 284 334
#     4   9  17  31  52  79 113 152 194 239 293 354
#     4  10  20  36  58  81 110 146 186 237 287 333
#
# _framework density 18.882762
#
# number of rings (size 3 to 8) (size 9 to 14) (size 15 to 20)
#    0.000    2.333    1.667    1.000    0.000    4.333 
#    3.000    1.667    0.000    1.000    0.000    2.333 
#    0.000    0.000    0.000    0.000    0.000    0.000 
#
# Total GULP energy -1785139.156662 kJ/mol
# GULP energy per Si atom -12396.799699 kJ/mol
# Density = 1.883978 g / cm^3
# Si number density = 18.882762 Si / 1000 Ang^3
#
#
#
# Elastic Constant Matrix: (Units=GPa)
#
#
# Indices 1 2 3 4 5 6 
#
# 1 90.8703 34.9162 49.6458 0.0000 0.0000 0.0000
# 2 34.9162 90.8703 49.6458 0.0000 0.0000 0.0000
# 3 49.6458 49.6458 88.1647 0.0000 0.0000 0.0000
# 4 0.0000 0.0000 0.0000 29.8680 0.0000 0.0000
# 5 0.0000 0.0000 0.0000 0.0000 29.8680 0.0000
# 6 0.0000 0.0000 0.0000 0.0000 0.0000 27.9770
#
#
#
# Elastic Compliance Matrix: (Units=1/GPa)
#
#
# Indices 1 2 3 4 5 6 
#
# 1 0.016092 -0.001780 -0.008059 0.000000 0.000000 0.000000
# 2 -0.001780 0.016092 -0.008059 0.000000 0.000000 0.000000
# 3 -0.008059 -0.008059 0.020418 0.000000 0.000000 0.000000
# 4 0.000000 0.000000 0.000000 0.033481 0.000000 0.000000
# 5 0.000000 0.000000 0.000000 0.000000 0.033481 0.000000
# 6 0.000000 0.000000 0.000000 0.000000 0.000000 0.035744
#
#
# Mechanical properties :
#
#
# Convention : Reuss Voigt Hill
#
# Bulk Modulus (GPa) = 59.50311 59.81342 59.65827
# Shear Modulus (GPa) = 25.41899 26.58911 26.00405
#
# Velocity S-wave (km/s) = 3.67297 3.75656 3.71500
# Velocity P-wave (km/s) = 7.04045 7.11060 7.07561
#
# Compressibility (1/GPa) = 0.01680584
#
# Stress axis : x y z
#
# Youngs Moduli (GPa) = 62.14453 62.14453 48.97603
#
# Poissons Ratio (x) = 0.11064 0.39468
# Poissons Ratio (y) = 0.11064 0.39468
# Poissons Ratio (z) = 0.50080 0.50080
#
# Static dielectric constant tensor:
#      x y z
#    x 3.479820 0.000000 0.000000 
#    y 0.000000 3.479820 0.000000 
#    z 0.000000 0.000000 3.422160 
# 
# 
# High freq. dielectric constant tensor:
#      x y z
#    x 1.725240 0.000000 0.000000 
#    y 0.000000 1.725240 0.000000 
#    z 0.000000 0.000000 1.723050 
# 
# From -- ./inp_files/6596.got.cif
#   From: 2010.03.12/outbox.cif.g09.slc.cpg/sg193_4_cif.got.tgz:6596.got - 2010.04.01 12:20:39.
