data_PCOD8330517
_publ_section_title
;
Structure prediction by ZEFSAII (Michael W. Deem and Ramdas Pophale) SiO2 
 PCOD8330517
Probable space group: P 63/M M C
;
_chemical_formula_sum "Si O2"
_cell_formula_units_Z 168
_cell_length_a 17.647583
_cell_length_b 17.647583
_cell_length_c 37.317461
_cell_angle_alpha 90.000000
_cell_angle_beta 90.000000
_cell_angle_gamma 120.000000
_cell_volume 10064.986242
_symmetry_space_group_name_H-M "P 63/M M C"
_symmetry_group_IT_number 194
_symmetry_cell_setting 'hexagonal'
loop_
_space_group_symop_operation_xyz
x,y,z
x-y,x,1/2+z
-y,x-y,z
-x,-y,1/2+z
-x+y,-x,z
y,-x+y,1/2+z
x-y,-y,-z
-x,-x+y,-z
y,x,-z
-y,-x,1/2-z
-x+y,y,1/2-z
x,x-y,1/2-z
-x,-y,-z
-x+y,-x,1/2-z
y,-x+y,-z
x,y,1/2-z
x-y,x,-z
-y,x-y,1/2-z
-x+y,y,z
x,x-y,z
-y,-x,z
y,x,1/2+z
x-y,-y,1/2+z
-x,-x+y,1/2+z
loop_
_atom_site_type_symbol
_atom_site_label
_atom_site_fract_x
_atom_site_fract_y
_atom_site_fract_z
Si Si1 0.002329 0.176703 0.348939
Si Si2 0.561151 0.951314 0.606267
Si Si3 0.508701 0.665415 0.824523
Si Si4 0.066062 0.311823 0.789793
Si Si5 0.082565 0.750301 0.398491
Si Si6 0.155892 0.667017 0.963523
Si Si7 0.744630 0.657077 0.982786
O O1 0.910305 0.089696 0.354493
O O2 0.000363 0.238617 0.317313
O O3 0.075751 0.151502 0.338852
O O4 0.026328 0.231191 0.385976
O O5 0.492841 0.985682 0.605252
O O6 0.531624 0.872660 0.634366
O O7 0.566421 0.912148 0.567988
O O8 0.652866 0.036332 0.617910
O O9 0.489708 0.744854 0.820698
O O10 0.423082 0.576919 0.811535
O O11 0.590640 0.679219 0.800586
O O12 0.024161 0.291013 0.750000
O O13 0.154345 0.308690 0.790195
O O14 0.184562 0.815439 0.386498
O O15 0.079038 0.736313 0.440583
O O16 0.170583 0.585292 0.966771
O O17 0.248570 0.751430 0.955002
O O18 0.114153 0.675941 0.000756
O O19 0.840936 0.681871 0.994853
O O20 0.732317 0.732317 0.000000
#
# Coordination Sequence:
#
# PCOD8330517 Si02
#       7
#    24  24  24  24  24  24  24
#     4  10  20  34  54  76 100 129 163 206 257 310
#     4  10  19  31  51  75  99 131 167 207 250 295
#     4  10  19  31  48  73 105 139 173 206 242 286
#     4   9  18  32  50  73 102 134 164 197 238 286
#     4  10  20  34  50  72  98 127 165 208 249 295
#     4  10  20  32  49  73 102 133 165 204 250 299
#     4  10  20  33  49  70  94 125 163 202 247 297
#
# _framework density 16.691527000000001
#
# number of rings (size 3 to 8) (size 9 to 14) (size 15 to 20)
#    0.000    2.143    2.857    0.857    0.000    2.571 
#    0.000    1.429    0.000    2.143    0.000    0.000 
#    0.000    0.000    0.000    0.000    0.000   13.000 
#
# Total GULP energy -2082368.796264 kJ/mol
# GULP energy per Si atom -12395.052359 kJ/mol
# Density = 1.665354 g / cm^3
# Si number density = 16.691527 Si / 1000 Ang^3
#
#
#
# Elastic Constant Matrix: (Units=GPa)
#
#
# Indices 1 2 3 4 5 6 
#
# 1 94.9772 44.4564 20.9139 0.0000 0.0000 0.0000
# 2 44.4564 94.9772 20.9139 0.0000 0.0000 0.0000
# 3 20.9139 20.9139 63.7774 0.0000 0.0000 0.0000
# 4 0.0000 0.0000 0.0000 18.9123 0.0000 0.0000
# 5 0.0000 0.0000 0.0000 0.0000 18.9123 0.0000
# 6 0.0000 0.0000 0.0000 0.0000 0.0000 25.2604
#
#
#
# Elastic Compliance Matrix: (Units=1/GPa)
#
#
# Indices 1 2 3 4 5 6 
#
# 1 0.013874 -0.005920 -0.002608 0.000000 0.000000 0.000000
# 2 -0.005920 0.013874 -0.002608 0.000000 0.000000 0.000000
# 3 -0.002608 -0.002608 0.017390 0.000000 0.000000 0.000000
# 4 0.000000 0.000000 0.000000 0.052876 0.000000 0.000000
# 5 0.000000 0.000000 0.000000 0.000000 0.052876 0.000000
# 6 0.000000 0.000000 0.000000 0.000000 0.000000 0.039588
#
#
# Mechanical properties :
#
#
# Convention : Reuss Voigt Hill
#
# Bulk Modulus (GPa) = 43.73430 47.36669 45.55050
# Shear Modulus (GPa) = 22.68892 23.78019 23.23455
#
# Velocity S-wave (km/s) = 3.69088 3.77860 3.73499
# Velocity P-wave (km/s) = 6.66497 6.89031 6.77858
#
# Compressibility (1/GPa) = 0.02286535
#
# Stress axis : x y z
#
# Youngs Moduli (GPa) = 72.07681 72.07681 57.50358
#
# Poissons Ratio (x) = 0.42668 0.14999
# Poissons Ratio (y) = 0.42668 0.14999
# Poissons Ratio (z) = 0.18800 0.18800
#
# Static dielectric constant tensor:
#      x y z
#    x 3.199220 0.000000 0.000000 
#    y 0.000000 3.199220 0.000000 
#    z 0.000000 0.000000 3.229820 
# 
# 
# High freq. dielectric constant tensor:
#      x y z
#    x 1.637690 0.000000 0.000000 
#    y 0.000000 1.637690 0.000000 
#    z 0.000000 0.000000 1.639030 
# 
# From -- ./inp_files/12233.got.cif
#   From: 2010.03.12/outbox.cif.g09.slc.cpg/sg194_7_cif.got.tgz:12233.got - 2010.04.01 12:26:19.
