data_PCOD8330119
_publ_section_title
;
Structure prediction by ZEFSAII (Michael W. Deem and Ramdas Pophale) SiO2 
 PCOD8330119
Probable space group: P 63/M C M
;
_chemical_formula_sum "Si O2"
_cell_formula_units_Z 72
_cell_length_a 22.818494
_cell_length_b 22.818494
_cell_length_c 8.707524
_cell_angle_alpha 90.000000
_cell_angle_beta 90.000000
_cell_angle_gamma 120.000000
_cell_volume 3926.442734
_symmetry_space_group_name_H-M "P 63/M C M"
_symmetry_group_IT_number 193
_symmetry_cell_setting 'hexagonal'
loop_
_space_group_symop_operation_xyz
x,y,z
x-y,x,1/2+z
-y,x-y,z
-x,-y,1/2+z
-x+y,-x,z
y,-x+y,1/2+z
x-y,-y,1/2-z
-x,-x+y,1/2-z
y,x,1/2-z
-y,-x,-z
-x+y,y,-z
x,x-y,-z
-x,-y,-z
-x+y,-x,1/2-z
y,-x+y,-z
x,y,1/2-z
x-y,x,-z
-y,x-y,1/2-z
-x+y,y,1/2+z
x,x-y,1/2+z
-y,-x,1/2+z
y,x,z
x-y,-y,z
-x,-x+y,z
loop_
_atom_site_type_symbol
_atom_site_label
_atom_site_fract_x
_atom_site_fract_y
_atom_site_fract_z
Si Si1 0.921372 0.522820 0.570799
Si Si2 0.387520 0.129606 0.931926
Si Si3 0.000000 0.124567 0.076186
Si Si4 0.000000 0.737117 0.926266
O O1 0.901331 0.450666 0.500000
O O2 0.904421 0.514064 0.750000
O O3 0.876298 0.548446 0.485780
O O4 0.000000 0.576572 0.540348
O O5 0.385348 0.132132 0.750000
O O6 0.395578 0.197789 0.000000
O O7 0.318997 0.066432 0.990998
O O8 0.000000 0.103186 0.250000
O O9 0.000000 0.193725 0.061358
O O10 0.933107 0.066894 0.000000
O O11 0.000000 0.715146 0.750000
#
# Coordination Sequence:
#
# PCOD8330119 Si02
#       4
#    24  24  12  12
#     4  10  20  36  60  88 121 154 193 240 290 346
#     4  12  24  38  59  87 122 161 200 244 296 350
#     4  11  24  40  59  78 103 138 185 238 293 351
#     4  11  23  40  59  84 115 150 193 244 300 359
#
# _framework density 18.337209000000001
#
# number of rings (size 3 to 8) (size 9 to 14) (size 15 to 20)
#    0.000    1.000    1.667    6.167    0.000    6.667 
#    0.000    0.000    0.000    0.667    0.000    4.667 
#    0.000    0.000    0.000    0.000    0.000    0.000 
#
# Total GULP energy -893243.245248 kJ/mol
# GULP energy per Si atom -12406.156184 kJ/mol
# Density = 1.829547 g / cm^3
# Si number density = 18.337209 Si / 1000 Ang^3
#
#
#
# Elastic Constant Matrix: (Units=GPa)
#
#
# Indices 1 2 3 4 5 6 
#
# 1 117.8597 74.5970 81.8149 0.0000 0.0000 0.0000
# 2 74.5970 117.8597 81.8149 0.0000 0.0000 0.0000
# 3 81.8149 81.8149 190.5198 0.0000 0.0000 0.0000
# 4 0.0000 0.0000 0.0000 35.5044 0.0000 0.0000
# 5 0.0000 0.0000 0.0000 0.0000 35.5044 0.0000
# 6 0.0000 0.0000 0.0000 0.0000 0.0000 21.6313
#
#
#
# Elastic Compliance Matrix: (Units=1/GPa)
#
#
# Indices 1 2 3 4 5 6 
#
# 1 0.015649 -0.007465 -0.003514 0.000000 0.000000 0.000000
# 2 -0.007465 0.015649 -0.003514 0.000000 0.000000 0.000000
# 3 -0.003514 -0.003514 0.008267 0.000000 0.000000 0.000000
# 4 0.000000 0.000000 0.000000 0.028166 0.000000 0.000000
# 5 0.000000 0.000000 0.000000 0.000000 0.028166 0.000000
# 6 0.000000 0.000000 0.000000 0.000000 0.000000 0.046229
#
#
# Mechanical properties :
#
#
# Convention : Reuss Voigt Hill
#
# Bulk Modulus (GPa) = 94.54097 100.29920 97.42008
# Shear Modulus (GPa) = 28.63025 31.06218 29.84621
#
# Velocity S-wave (km/s) = 3.95564 4.12022 4.03877
# Velocity P-wave (km/s) = 8.51655 8.80061 8.65975
#
# Compressibility (1/GPa) = 0.01057743
#
# Stress axis : x y z
#
# Youngs Moduli (GPa) = 63.90052 63.90052 120.95947
#
# Poissons Ratio (x) = 0.47704 0.42511
# Poissons Ratio (y) = 0.47704 0.42511
# Poissons Ratio (z) = 0.22458 0.22458
#
# Static dielectric constant tensor:
#      x y z
#    x 2.984550 0.000000 0.000000 
#    y 0.000000 2.984550 0.000000 
#    z 0.000000 0.000000 3.677340 
# 
# 
# High freq. dielectric constant tensor:
#      x y z
#    x 1.712120 0.000000 0.000000 
#    y 0.000000 1.712120 0.000000 
#    z 0.000000 0.000000 1.735410 
# 
# From -- ./inp_files/836.got.cif
#   From: 2010.03.12/outbox.cif.g09.slc.cpg/sg193_1_cif.got.tgz:836.got - 2010.04.01 12:20:39.
