data_PCOD8330334
_publ_section_title
;
Structure prediction by ZEFSAII (Michael W. Deem and Ramdas Pophale) SiO2 
 PCOD8330334
Probable space group: P 63/M M C
;
_chemical_formula_sum "Si O2"
_cell_formula_units_Z 120
_cell_length_a 25.161117
_cell_length_b 25.161117
_cell_length_c 12.826033
_cell_angle_alpha 90.000000
_cell_angle_beta 90.000000
_cell_angle_gamma 120.000000
_cell_volume 7032.064072
_symmetry_space_group_name_H-M "P 63/M M C"
_symmetry_group_IT_number 194
_symmetry_cell_setting 'hexagonal'
loop_
_space_group_symop_operation_xyz
x,y,z
x-y,x,1/2+z
-y,x-y,z
-x,-y,1/2+z
-x+y,-x,z
y,-x+y,1/2+z
x-y,-y,-z
-x,-x+y,-z
y,x,-z
-y,-x,1/2-z
-x+y,y,1/2-z
x,x-y,1/2-z
-x,-y,-z
-x+y,-x,1/2-z
y,-x+y,-z
x,y,1/2-z
x-y,x,-z
-y,x-y,1/2-z
-x+y,y,z
x,x-y,z
-y,-x,z
y,x,1/2+z
x-y,-y,1/2+z
-x,-x+y,1/2+z
loop_
_atom_site_type_symbol
_atom_site_label
_atom_site_fract_x
_atom_site_fract_y
_atom_site_fract_z
Si Si1 0.312929 0.093938 0.750000
Si Si2 0.747922 0.811483 0.034308
Si Si3 0.837612 0.549597 0.750000
Si Si4 0.209062 0.544063 0.425413
Si Si5 0.179739 0.694104 0.635582
Si Si6 0.888496 0.237452 0.135502
O O1 0.322252 0.161126 0.750000
O O2 0.274201 0.057689 0.851013
O O3 0.381693 0.102728 0.750000
O O4 0.763128 0.881564 0.025685
O O5 0.808659 0.808659 0.000000
O O6 0.695491 0.765034 0.955183
O O7 0.777852 0.555703 0.750000
O O8 0.837318 0.512479 0.852628
O O9 0.277331 0.554661 0.418193
O O10 0.211340 0.605670 0.386639
O O11 0.182635 0.530089 0.543382
O O12 0.173214 0.663262 0.750000
O O13 0.241039 0.758962 0.632609
O O14 0.122710 0.705504 0.616175
O O15 0.919096 0.244401 0.250000
O O16 0.824206 0.175795 0.131683
#
# Coordination Sequence:
#
# PCOD8330334 Si02
#       6
#    12  24  12  24  24  24
#     4   9  18  33  50  70  96 125 153 187 236 282
#     4  10  20  32  49  73 103 133 157 183 219 264
#     4   9  17  29  45  60  81 117 154 191 238 284
#     4  10  18  26  37  56  86 122 159 194 231 278
#     4   8  14  25  40  57  79 112 151 193 240 286
#     4   8  14  26  45  66  87 116 154 192 236 281
#
# _framework density 17.064689999999999
#
# number of rings (size 3 to 8) (size 9 to 14) (size 15 to 20)
#    0.000    3.000    0.000    2.900    1.400    5.200 
#    0.000    1.000    0.000    1.400    0.000    0.000 
#    0.000   20.000    0.000    0.000    0.000    0.000 
#
# Total GULP energy -1486912.102619 kJ/mol
# GULP energy per Si atom -12390.934188 kJ/mol
# Density = 1.702585 g / cm^3
# Si number density = 17.064690 Si / 1000 Ang^3
#
#
#
# Elastic Constant Matrix: (Units=GPa)
#
#
# Indices 1 2 3 4 5 6 
#
# 1 59.4587 31.8054 38.2595 0.0000 0.0000 0.0000
# 2 31.8054 59.4587 38.2595 0.0000 0.0000 0.0000
# 3 38.2595 38.2595 129.1585 0.0000 0.0000 0.0000
# 4 0.0000 0.0000 0.0000 16.7562 0.0000 0.0000
# 5 0.0000 0.0000 0.0000 0.0000 16.7562 0.0000
# 6 0.0000 0.0000 0.0000 0.0000 0.0000 13.8267
#
#
#
# Elastic Compliance Matrix: (Units=1/GPa)
#
#
# Indices 1 2 3 4 5 6 
#
# 1 0.025370 -0.010792 -0.004318 0.000000 0.000000 0.000000
# 2 -0.010792 0.025370 -0.004318 0.000000 0.000000 0.000000
# 3 -0.004318 -0.004318 0.010301 0.000000 0.000000 0.000000
# 4 0.000000 0.000000 0.000000 0.059680 0.000000 0.000000
# 5 0.000000 0.000000 0.000000 0.000000 0.059680 0.000000
# 6 0.000000 0.000000 0.000000 0.000000 0.000000 0.072324
#
#
# Mechanical properties :
#
#
# Convention : Reuss Voigt Hill
#
# Bulk Modulus (GPa) = 45.07894 51.63609 48.35751
# Shear Modulus (GPa) = 16.72378 18.78456 17.75417
#
# Velocity S-wave (km/s) = 3.13393 3.32141 3.22903
# Velocity P-wave (km/s) = 6.29040 6.71072 6.50396
#
# Compressibility (1/GPa) = 0.02218331
#
# Stress axis : x y z
#
# Youngs Moduli (GPa) = 39.41676 39.41676 97.08038
#
# Poissons Ratio (x) = 0.42539 0.41922
# Poissons Ratio (y) = 0.42539 0.41922
# Poissons Ratio (z) = 0.17021 0.17021
#
# Static dielectric constant tensor:
#      x y z
#    x 2.895250 0.000000 0.000000 
#    y 0.000000 2.895250 0.000000 
#    z 0.000000 0.000000 3.678010 
# 
# 
# High freq. dielectric constant tensor:
#      x y z
#    x 1.616980 0.000000 0.000000 
#    y 0.000000 1.616980 0.000000 
#    z 0.000000 0.000000 1.684110 
# 
# From -- ./inp_files/3389.got.cif
#   From: 2010.03.12/outbox.cif.g09.slc.cpg/sg194_2_cif.got.tgz:3389.got - 2010.04.01 12:26:19.
