data_PCOD8330559
_publ_section_title
;
Structure prediction by ZEFSAII (Michael W. Deem and Ramdas Pophale) SiO2 
 PCOD8330559
Probable space group: P 63/M M C
;
_chemical_formula_sum "Si O2"
_cell_formula_units_Z 168
_cell_length_a 22.966880
_cell_length_b 22.966880
_cell_length_c 21.492249
_cell_angle_alpha 90.000000
_cell_angle_beta 90.000000
_cell_angle_gamma 120.000000
_cell_volume 9817.852377
_symmetry_space_group_name_H-M "P 63/M M C"
_symmetry_group_IT_number 194
_symmetry_cell_setting 'hexagonal'
loop_
_space_group_symop_operation_xyz
x,y,z
x-y,x,1/2+z
-y,x-y,z
-x,-y,1/2+z
-x+y,-x,z
y,-x+y,1/2+z
x-y,-y,-z
-x,-x+y,-z
y,x,-z
-y,-x,1/2-z
-x+y,y,1/2-z
x,x-y,1/2-z
-x,-y,-z
-x+y,-x,1/2-z
y,-x+y,-z
x,y,1/2-z
x-y,x,-z
-y,x-y,1/2-z
-x+y,y,z
x,x-y,z
-y,-x,z
y,x,1/2+z
x-y,-y,1/2+z
-x,-x+y,1/2+z
loop_
_atom_site_type_symbol
_atom_site_label
_atom_site_fract_x
_atom_site_fract_y
_atom_site_fract_z
Si Si1 0.079611 0.606453 0.896846
Si Si2 0.851082 0.275369 0.178412
Si Si3 0.461162 0.055621 0.678500
Si Si4 0.287145 0.076910 0.119217
Si Si5 0.923699 0.628645 0.010436
Si Si6 0.745412 0.938893 0.177593
Si Si7 0.265287 0.865079 0.125073
O O1 0.089294 0.544647 0.917457
O O2 0.132641 0.650958 0.843424
O O3 0.006003 0.581208 0.868356
O O4 0.100618 0.659560 0.952997
O O5 0.838197 0.271677 0.250000
O O6 0.783477 0.216524 0.145325
O O7 0.912199 0.261179 0.163400
O O8 0.435397 0.036122 0.750000
O O9 0.539343 0.078686 0.674794
O O10 0.454758 0.118069 0.653366
O O11 0.266215 0.133108 0.130106
O O12 0.221057 0.005701 0.135217
O O13 0.313580 0.081643 0.048681
O O14 0.882326 0.614534 0.947535
O O15 0.000000 0.652182 0.000000
O O16 0.760229 0.958500 0.250000
O O17 0.768130 0.884065 0.159826
O O18 0.666819 0.907226 0.165023
O O19 0.214335 0.785666 0.133190
#
# Coordination Sequence:
#
# PCOD8330559 Si02
#       7
#    24  24  24  24  24  24  24
#     4  10  20  32  51  74 101 134 163 199 250 302
#     4   9  17  29  47  72 100 128 161 200 240 289
#     4  10  20  33  50  76 105 130 163 205 249 302
#     4  10  19  32  51  73 100 134 167 201 247 297
#     4  11  19  33  49  74 102 131 164 204 246 296
#     4  10  20  32  48  73 102 129 162 203 246 296
#     4  11  21  34  52  73 101 134 167 205 253 300
#
# _framework density 17.111684
#
# number of rings (size 3 to 8) (size 9 to 14) (size 15 to 20)
#    0.000    1.857    2.857    2.571    0.000    4.000 
#    0.000    0.000    0.000    0.857    0.000    1.000 
#    0.000    0.571    0.000    0.000    0.000    0.000 
#
# Total GULP energy -2082273.163056 kJ/mol
# GULP energy per Si atom -12394.483113 kJ/mol
# Density = 1.707274 g / cm^3
# Si number density = 17.111684 Si / 1000 Ang^3
#
#
#
# Elastic Constant Matrix: (Units=GPa)
#
#
# Indices 1 2 3 4 5 6 
#
# 1 83.5116 35.2818 17.6999 0.0000 0.0000 0.0000
# 2 35.2818 83.5116 17.6999 0.0000 0.0000 0.0000
# 3 17.6999 17.6999 59.2192 0.0000 0.0000 0.0000
# 4 0.0000 0.0000 0.0000 2233.3848 0.0026 0.0000
# 5 0.0000 0.0000 0.0000 0.0026 2233.3819 0.0000
# 6 0.0000 0.0000 0.0000 0.0000 0.0000 24.1149
#
#
#
# Elastic Compliance Matrix: (Units=1/GPa)
#
#
# Indices 1 2 3 4 5 6 
#
# 1 0.014988 -0.005746 -0.002762 0.000000 0.000000 0.000000
# 2 -0.005746 0.014988 -0.002762 0.000000 0.000000 0.000000
# 3 -0.002762 -0.002762 0.018537 0.000000 0.000000 0.000000
# 4 0.000000 0.000000 0.000000 0.000448 0.000000 0.000000
# 5 0.000000 0.000000 0.000000 0.000000 0.000448 0.000000
# 6 0.000000 0.000000 0.000000 0.000000 0.000000 0.041468
#
#
# Mechanical properties :
#
#
# Convention : Reuss Voigt Hill
#
# Bulk Modulus (GPa) = 38.50382 40.84506 39.67444
# Shear Modulus (GPa) = 40.95864 908.54707 474.75285
#
# Velocity S-wave (km/s) = 4.89776 23.06738 16.67471
# Velocity P-wave (km/s) = 7.38474 27.08124 19.84852
#
# Compressibility (1/GPa) = 0.02597145
#
# Stress axis : x y z
#
# Youngs Moduli (GPa) = 66.72209 66.72209 53.94478
#
# Poissons Ratio (x) = 0.38342 0.14900
# Poissons Ratio (y) = 0.38342 0.14900
# Poissons Ratio (z) = 0.18429 0.18429
#
# Static dielectric constant tensor:
#      x y z
#    x 3.184970 0.000000 0.000000 
#    y 0.000000 3.184970 0.000000 
#    z 0.000000 0.000000 0.360450 
# 
# 
# High freq. dielectric constant tensor:
#      x y z
#    x 1.641940 0.000000 0.000000 
#    y 0.000000 1.641940 0.000000 
#    z 0.000000 0.000000 1.670530 
# 
# From -- ./inp_files/8592.got.cif
#   From: 2010.03.12/outbox.cif.g09.slc.cpg/sg194_5_cif.got.tgz:8592.got - 2010.04.01 12:26:19.
