data_PCOD8330117
_publ_section_title
;
Structure prediction by ZEFSAII (Michael W. Deem and Ramdas Pophale) SiO2 
 PCOD8330117
Probable space group: P 63/M C M
;
_chemical_formula_sum "Si O2"
_cell_formula_units_Z 120
_cell_length_a 15.161063
_cell_length_b 15.161063
_cell_length_c 28.078830
_cell_angle_alpha 90.000000
_cell_angle_beta 90.000000
_cell_angle_gamma 120.000000
_cell_volume 5589.448307
_symmetry_space_group_name_H-M "P 63/M C M"
_symmetry_group_IT_number 193
_symmetry_cell_setting 'hexagonal'
loop_
_space_group_symop_operation_xyz
x,y,z
x-y,x,1/2+z
-y,x-y,z
-x,-y,1/2+z
-x+y,-x,z
y,-x+y,1/2+z
x-y,-y,1/2-z
-x,-x+y,1/2-z
y,x,1/2-z
-y,-x,-z
-x+y,y,-z
x,x-y,-z
-x,-y,-z
-x+y,-x,1/2-z
y,-x+y,-z
x,y,1/2-z
x-y,x,-z
-y,x-y,1/2-z
-x+y,y,1/2+z
x,x-y,1/2+z
-y,-x,1/2+z
y,x,z
x-y,-y,z
-x,-x+y,z
loop_
_atom_site_type_symbol
_atom_site_label
_atom_site_fract_x
_atom_site_fract_y
_atom_site_fract_z
Si Si1 0.221922 0.445559 0.305917
Si Si2 0.562321 0.118596 0.350392
Si Si3 0.685654 0.881824 0.549757
Si Si4 0.764380 0.884057 0.353108
Si Si5 0.609596 0.489544 0.454405
O O1 0.236826 0.458893 0.250000
O O2 0.182812 0.519639 0.324172
O O3 0.329193 0.475118 0.329675
O O4 0.142227 0.328673 0.318356
O O5 0.576641 0.145163 0.406503
O O6 0.483175 0.000000 0.341886
O O7 0.725332 0.862666 0.500000
O O8 0.720441 0.838523 0.593802
O O9 0.563291 0.831641 0.549518
O O10 0.734031 0.000000 0.559373
O O11 0.844489 0.844489 0.352492
O O12 0.821398 0.000000 0.334955
O O13 0.584402 0.415599 0.500000
O O14 0.558574 0.558574 0.462620
#
# Coordination Sequence:
#
# PCOD8330117 Si02
#       5
#    24  24  24  24  24
#     4  12  26  44  69  99 129 170 225 278 336 404
#     4  11  24  45  68  96 134 171 209 264 330 394
#     4  10  20  36  59  91 128 170 215 261 320 391
#     4  11  24  43  66  96 134 178 230 285 339 397
#     4   9  19  35  59  92 129 165 202 250 317 390
#
# _framework density 21.469024000000001
#
# number of rings (size 3 to 8) (size 9 to 14) (size 15 to 20)
#    0.000    1.400    2.000    3.000    2.800    4.000 
#    0.000    0.000    0.000    4.800    0.000    0.000 
#    0.000    0.000    0.000    0.000    0.000    0.000 
#
# Total GULP energy -1488337.156943 kJ/mol
# GULP energy per Si atom -12402.809641 kJ/mol
# Density = 2.142016 g / cm^3
# Si number density = 21.469024 Si / 1000 Ang^3
#
#
#
# Elastic Constant Matrix: (Units=GPa)
#
#
# Indices 1 2 3 4 5 6 
#
# 1 74.8248 16.5286 27.2298 0.0000 0.0000 0.0000
# 2 16.5286 74.8248 27.2298 0.0000 0.0000 0.0000
# 3 27.2298 27.2298 136.7479 0.0000 0.0000 0.0000
# 4 0.0000 0.0000 0.0000 23.1820 0.0000 0.0000
# 5 0.0000 0.0000 0.0000 0.0000 23.1820 0.0000
# 6 0.0000 0.0000 0.0000 0.0000 0.0000 29.1481
#
#
#
# Elastic Compliance Matrix: (Units=1/GPa)
#
#
# Indices 1 2 3 4 5 6 
#
# 1 0.014787 -0.002366 -0.002473 0.000000 0.000000 0.000000
# 2 -0.002366 0.014787 -0.002473 0.000000 0.000000 0.000000
# 3 -0.002473 -0.002473 0.008298 0.000000 0.000000 0.000000
# 4 0.000000 0.000000 0.000000 0.043137 0.000000 0.000000
# 5 0.000000 0.000000 0.000000 0.000000 0.043137 0.000000
# 6 0.000000 0.000000 0.000000 0.000000 0.000000 0.034308
#
#
# Mechanical properties :
#
#
# Convention : Reuss Voigt Hill
#
# Bulk Modulus (GPa) = 43.01747 47.59711 45.30729
# Shear Modulus (GPa) = 27.65045 29.46301 28.55673
#
# Velocity S-wave (km/s) = 3.59266 3.70854 3.65106
# Velocity P-wave (km/s) = 6.10656 6.36836 6.23883
#
# Compressibility (1/GPa) = 0.02324637
#
# Stress axis : x y z
#
# Youngs Moduli (GPa) = 67.62528 67.62528 120.51503
#
# Poissons Ratio (x) = 0.16003 0.29807
# Poissons Ratio (y) = 0.16003 0.29807
# Poissons Ratio (z) = 0.16726 0.16726
#
# Static dielectric constant tensor:
#      x y z
#    x 3.772450 0.000000 0.000000 
#    y 0.000000 3.772450 0.000000 
#    z 0.000000 0.000000 3.996280 
# 
# 
# High freq. dielectric constant tensor:
#      x y z
#    x 1.838650 0.000000 0.000000 
#    y 0.000000 1.838650 0.000000 
#    z 0.000000 0.000000 1.848540 
# 
# From -- ./inp_files/8930.got.cif
#   From: 2010.03.12/outbox.cif.g09.slc.cpg/sg193_5_cif.got.tgz:8930.got - 2010.04.01 12:20:39.
