data_PCOD8330675
_publ_section_title
;
Structure prediction by ZEFSAII (Michael W. Deem and Ramdas Pophale) SiO2 
 PCOD8330675
Probable space group: P 63/M M C
;
_chemical_formula_sum "Si O2"
_cell_formula_units_Z 144
_cell_length_a 32.240493
_cell_length_b 32.240493
_cell_length_c 8.999412
_cell_angle_alpha 90.000000
_cell_angle_beta 90.000000
_cell_angle_gamma 120.000000
_cell_volume 8101.176879
_symmetry_space_group_name_H-M "P 63/M M C"
_symmetry_group_IT_number 194
_symmetry_cell_setting 'hexagonal'
loop_
_space_group_symop_operation_xyz
x,y,z
x-y,x,1/2+z
-y,x-y,z
-x,-y,1/2+z
-x+y,-x,z
y,-x+y,1/2+z
x-y,-y,-z
-x,-x+y,-z
y,x,-z
-y,-x,1/2-z
-x+y,y,1/2-z
x,x-y,1/2-z
-x,-y,-z
-x+y,-x,1/2-z
y,-x+y,-z
x,y,1/2-z
x-y,x,-z
-y,x-y,1/2-z
-x+y,y,z
x,x-y,z
-y,-x,z
y,x,1/2+z
x-y,-y,1/2+z
-x,-x+y,1/2+z
loop_
_atom_site_type_symbol
_atom_site_label
_atom_site_fract_x
_atom_site_fract_y
_atom_site_fract_z
Si Si1 0.142914 0.190525 0.577390
Si Si2 0.048914 0.336378 0.924355
Si Si3 0.759418 0.426169 0.573092
Si Si4 0.383603 0.518068 0.417195
Si Si5 0.290401 0.097530 0.922309
Si Si6 0.568154 0.951320 0.577130
O O1 0.149075 0.149075 0.500000
O O2 0.156336 0.194868 0.750000
O O3 0.088140 0.176280 0.552986
O O4 0.178606 0.240440 0.499738
O O5 0.046243 0.326559 0.750000
O O6 0.058414 0.388940 0.961906
O O7 0.091970 0.331998 0.998060
O O8 0.000000 0.296621 0.000000
O O9 0.757824 0.423829 0.750000
O O10 0.718274 0.436548 0.510712
O O11 0.749824 0.374912 0.511259
O O12 0.812377 0.468495 0.524731
O O13 0.371129 0.497019 0.250000
O O14 0.434543 0.565458 0.418760
O O15 0.385605 0.480107 0.524746
O O16 0.286541 0.083818 0.750000
O O17 0.304540 0.152270 0.945104
O O18 0.564300 0.958576 0.750000
O O19 0.576530 0.000000 0.500000
#
# Coordination Sequence:
#
# PCOD8330675 Si02
#       6
#    24  24  24  24  24  24
#     4  10  20  33  50  72  98 128 160 197 242 288
#     4  10  20  34  52  72  95 124 159 199 242 288
#     4   8  13  23  43  72 103 133 165 201 240 282
#     4   9  18  32  50  74 104 134 164 203 249 293
#     4  10  20  33  50  73 100 129 161 196 235 282
#     4  10  21  36  54  74  95 125 164 205 249 295
#
# _framework density 17.775196000000001
#
# number of rings (size 3 to 8) (size 9 to 14) (size 15 to 20)
#    0.000    2.500    0.000    3.667    0.000    5.333 
#    0.000    0.833    0.000    3.667    0.000    0.000 
#    0.000    1.333    0.000    0.000    0.000    0.000 
#
# Total GULP energy -1785607.824792 kJ/mol
# GULP energy per Si atom -12400.054339 kJ/mol
# Density = 1.773474 g / cm^3
# Si number density = 17.775196 Si / 1000 Ang^3
#
#
#
# Elastic Constant Matrix: (Units=GPa)
#
#
# Indices 1 2 3 4 5 6 
#
# 1 96.0165 49.1379 40.0779 0.0000 0.0000 0.0000
# 2 49.1379 96.0165 40.0779 0.0000 0.0000 0.0000
# 3 40.0779 40.0779 82.6634 0.0000 0.0000 0.0000
# 4 0.0000 0.0000 0.0000 27.7477 0.0000 0.0000
# 5 0.0000 0.0000 0.0000 0.0000 27.7477 0.0000
# 6 0.0000 0.0000 0.0000 0.0000 0.0000 23.4393
#
#
#
# Elastic Compliance Matrix: (Units=1/GPa)
#
#
# Indices 1 2 3 4 5 6 
#
# 1 0.015370 -0.005962 -0.004561 0.000000 0.000000 0.000000
# 2 -0.005962 0.015370 -0.004561 0.000000 0.000000 0.000000
# 3 -0.004561 -0.004561 0.016520 0.000000 0.000000 0.000000
# 4 0.000000 0.000000 0.000000 0.036039 0.000000 0.000000
# 5 0.000000 0.000000 0.000000 0.000000 0.036039 0.000000
# 6 0.000000 0.000000 0.000000 0.000000 0.000000 0.042663
#
#
# Mechanical properties :
#
#
# Convention : Reuss Voigt Hill
#
# Bulk Modulus (GPa) = 58.51039 59.25376 58.88208
# Shear Modulus (GPa) = 25.26945 25.48045 25.37495
#
# Velocity S-wave (km/s) = 3.77452 3.79024 3.78239
# Velocity P-wave (km/s) = 7.21002 7.24997 7.23002
#
# Compressibility (1/GPa) = 0.01709098
#
# Stress axis : x y z
#
# Youngs Moduli (GPa) = 65.06235 65.06235 60.53193
#
# Poissons Ratio (x) = 0.38789 0.27611
# Poissons Ratio (y) = 0.38789 0.27611
# Poissons Ratio (z) = 0.29677 0.29677
#
# Static dielectric constant tensor:
#      x y z
#    x 3.321620 0.000000 0.000000 
#    y 0.000000 3.321620 0.000000 
#    z 0.000000 0.000000 3.229240 
# 
# 
# High freq. dielectric constant tensor:
#      x y z
#    x 1.681850 0.000000 0.000000 
#    y 0.000000 1.681850 0.000000 
#    z 0.000000 0.000000 1.681810 
# 
# From -- ./inp_files/2103.got.cif
#   From: 2010.03.12/outbox.cif.g09.slc.cpg/sg194_2_cif.got.tgz:2103.got - 2010.04.01 12:26:19.
