data_PCOD8330778
_publ_section_title
;
Structure prediction by ZEFSAII (Michael W. Deem and Ramdas Pophale) SiO2 
 PCOD8330778
Probable space group: P 63/M M C
;
_chemical_formula_sum "Si O2"
_cell_formula_units_Z 52
_cell_length_a 11.567512
_cell_length_b 11.567512
_cell_length_c 20.343347
_cell_angle_alpha 90.000000
_cell_angle_beta 90.000000
_cell_angle_gamma 120.000000
_cell_volume 2357.398246
_symmetry_space_group_name_H-M "P 63/M M C"
_symmetry_group_IT_number 194
_symmetry_cell_setting 'hexagonal'
loop_
_space_group_symop_operation_xyz
x,y,z
x-y,x,1/2+z
-y,x-y,z
-x,-y,1/2+z
-x+y,-x,z
y,-x+y,1/2+z
x-y,-y,-z
-x,-x+y,-z
y,x,-z
-y,-x,1/2-z
-x+y,y,1/2-z
x,x-y,1/2-z
-x,-y,-z
-x+y,-x,1/2-z
y,-x+y,-z
x,y,1/2-z
x-y,x,-z
-y,x-y,1/2-z
-x+y,y,z
x,x-y,z
-y,-x,z
y,x,1/2+z
x-y,-y,1/2+z
-x,-x+y,1/2+z
loop_
_atom_site_type_symbol
_atom_site_label
_atom_site_fract_x
_atom_site_fract_y
_atom_site_fract_z
Si Si1 0.600130 0.935956 0.863740
Si Si2 0.000000 0.000000 0.580764
Si Si3 0.000000 0.725184 0.500000
Si Si4 0.239708 0.119854 0.820965
O O1 0.463555 0.927110 0.841245
O O2 0.589833 0.794917 0.849576
O O3 0.628501 0.977904 0.939621
O O4 0.720612 0.051124 0.822028
O O5 0.926335 0.073666 0.613319
O O6 0.000000 0.000000 0.500000
O O7 0.873072 0.746144 0.507107
O O8 0.163453 0.081727 0.750000
#
# Coordination Sequence:
#
# PCOD8330778 Si02
#       4
#    24   4  12  12
#     4  11  24  42  67  98 140 187 237 289 357 426
#     4  12  28  44  82 114 142 179 232 297 358 431
#     4  10  20  36  64 102 138 179 237 302 362 424
#     4  12  26  46  74 108 146 180 236 300 356 420
#
# _framework density 22.058216000000002
#
# number of rings (size 3 to 8) (size 9 to 14) (size 15 to 20)
#    0.000    0.923    4.615    2.077    3.231    0.923 
#    1.385    0.000    0.000    2.769    0.000    0.000 
#    0.000    0.000    0.000    0.000    0.000    0.000 
#
# Total GULP energy -644396.790035 kJ/mol
# GULP energy per Si atom -12392.245962 kJ/mol
# Density = 2.200801 g / cm^3
# Si number density = 22.058216 Si / 1000 Ang^3
#
#
#
# Elastic Constant Matrix: (Units=GPa)
#
#
# Indices 1 2 3 4 5 6 
#
# 1 153.2496 69.3482 37.4859 0.0000 0.0000 0.0000
# 2 69.3482 153.2496 37.4859 0.0000 0.0000 0.0000
# 3 37.4859 37.4859 137.2766 0.0000 0.0000 0.0000
# 4 0.0000 0.0000 0.0000 2.4087 0.0000 0.0000
# 5 0.0000 0.0000 0.0000 0.0000 2.4087 0.0000
# 6 0.0000 0.0000 0.0000 0.0000 0.0000 41.9507
#
#
#
# Elastic Compliance Matrix: (Units=1/GPa)
#
#
# Indices 1 2 3 4 5 6 
#
# 1 0.008433 -0.003486 -0.001351 0.000000 0.000000 0.000000
# 2 -0.003486 0.008433 -0.001351 0.000000 0.000000 0.000000
# 3 -0.001351 -0.001351 0.008022 0.000000 0.000000 0.000000
# 4 0.000000 0.000000 0.000000 0.415163 0.000000 0.000000
# 5 0.000000 0.000000 0.000000 0.000000 0.415163 0.000000
# 6 0.000000 0.000000 0.000000 0.000000 0.000000 0.023837
#
#
# Mechanical properties :
#
#
# Convention : Reuss Voigt Hill
#
# Bulk Modulus (GPa) = 79.91500 81.37953 80.64727
# Shear Modulus (GPa) = 5.58286 29.31735 17.45011
#
# Velocity S-wave (km/s) = 1.59263 3.64962 2.81569
# Velocity P-wave (km/s) = 6.29998 7.39816 6.87105
#
# Compressibility (1/GPa) = 0.01251329
#
# Stress axis : x y z
#
# Youngs Moduli (GPa) = 118.58057 118.58057 124.65122
#
# Poissons Ratio (x) = 0.41333 0.16840
# Poissons Ratio (y) = 0.41333 0.16840
# Poissons Ratio (z) = 0.16020 0.16020
#
# Static dielectric constant tensor:
#      x y z
#    x 3.902320 0.000000 0.000000 
#    y 0.000000 3.902320 0.000000 
#    z 0.000000 0.000000 4.394760 
# 
# 
# High freq. dielectric constant tensor:
#      x y z
#    x 1.858490 0.000000 0.000000 
#    y 0.000000 1.858490 0.000000 
#    z 0.000000 0.000000 1.887220 
# 
# From -- ./inp_files/7303.got.cif
#   From: 2010.03.12/outbox.cif.g09.slc.cpg/sg194_4_cif.got.tgz:7303.got - 2010.04.01 12:26:19.
