data_PCOD8330802
_publ_section_title
;
Structure prediction by ZEFSAII (Michael W. Deem and Ramdas Pophale) SiO2 
 PCOD8330802
Probable space group: P 63/M M C
;
_chemical_formula_sum "Si O2"
_cell_formula_units_Z 102
_cell_length_a 26.489531
_cell_length_b 26.489531
_cell_length_c 8.611272
_cell_angle_alpha 90.000000
_cell_angle_beta 90.000000
_cell_angle_gamma 120.000000
_cell_volume 5232.948700
_symmetry_space_group_name_H-M "P 63/M M C"
_symmetry_group_IT_number 194
_symmetry_cell_setting 'hexagonal'
loop_
_space_group_symop_operation_xyz
x,y,z
x-y,x,1/2+z
-y,x-y,z
-x,-y,1/2+z
-x+y,-x,z
y,-x+y,1/2+z
x-y,-y,-z
-x,-x+y,-z
y,x,-z
-y,-x,1/2-z
-x+y,y,1/2-z
x,x-y,1/2-z
-x,-y,-z
-x+y,-x,1/2-z
y,-x+y,-z
x,y,1/2-z
x-y,x,-z
-y,x-y,1/2-z
-x+y,y,z
x,x-y,z
-y,-x,z
y,x,1/2+z
x-y,-y,1/2+z
-x,-x+y,1/2+z
loop_
_atom_site_type_symbol
_atom_site_label
_atom_site_fract_x
_atom_site_fract_y
_atom_site_fract_z
Si Si1 0.119802 0.353825 0.434384
Si Si2 0.702947 0.405893 0.250000
Si Si3 0.734704 0.469408 0.921777
Si Si4 0.172838 0.940474 0.932664
Si Si5 0.467487 0.934974 0.931262
Si Si6 0.340977 0.468026 0.424688
O O1 0.119147 0.351083 0.250000
O O2 0.183303 0.366605 0.495833
O O3 0.069405 0.293527 0.503070
O O4 0.104049 0.402801 0.489888
O O5 0.632896 0.367105 0.250000
O O6 0.718114 0.436227 0.416036
O O7 0.718013 0.436026 0.750000
O O8 0.701798 0.505693 0.926779
O O9 0.176445 0.943436 0.750000
O O10 0.110711 0.889290 0.992169
O O11 0.180215 0.000000 0.000000
O O12 0.471707 0.943414 0.750000
O O13 0.399274 0.897416 0.974869
O O14 0.500000 0.000000 0.000000
O O15 0.362244 0.467611 0.250000
#
# Coordination Sequence:
#
# PCOD8330802 Si02
#       6
#    24   6  12  24  12  24
#     4   9  17  34  59  88 117 148 187 234 291 352
#     4  10  26  40  54  86 132 150 214 260 304 382
#     4  10  22  40  64  93 121 161 205 251 324 380
#     4  10  21  36  56  86 121 156 196 235 282 336
#     4  12  28  45  62  85 116 161 208 254 308 366
#     4  10  21  40  65  89 118 153 198 246 302 371
#
# _framework density 19.491879000000001
#
# number of rings (size 3 to 8) (size 9 to 14) (size 15 to 20)
#    0.118    1.882    1.176    1.765    3.294    3.765 
#    0.000    0.000    0.000    0.235    0.000    0.000 
#    0.000    0.000    0.000    0.000    0.000    0.000 
#
# Total GULP energy -1263670.615792 kJ/mol
# GULP energy per Si atom -12388.927606 kJ/mol
# Density = 1.944751 g / cm^3
# Si number density = 19.491879 Si / 1000 Ang^3
#
#
#
# Elastic Constant Matrix: (Units=GPa)
#
#
# Indices 1 2 3 4 5 6 
#
# 1 115.9823 67.7141 43.2049 0.0000 0.0000 0.0000
# 2 67.7141 115.9823 43.2049 0.0000 0.0000 0.0000
# 3 43.2049 43.2049 91.6065 0.0000 0.0000 0.0000
# 4 0.0000 0.0000 0.0000 -10.4948 0.0000 0.0000
# 5 0.0000 0.0000 0.0000 0.0000 -10.4948 0.0000
# 6 0.0000 0.0000 0.0000 0.0000 0.0000 24.1341
#
#
#
# Elastic Compliance Matrix: (Units=1/GPa)
#
#
# Indices 1 2 3 4 5 6 
#
# 1 0.013857 -0.006861 -0.003299 0.000000 0.000000 0.000000
# 2 -0.006861 0.013857 -0.003299 0.000000 0.000000 0.000000
# 3 -0.003299 -0.003299 0.014029 0.000000 0.000000 0.000000
# 4 0.000000 0.000000 0.000000 -0.095285 0.000000 0.000000
# 5 0.000000 0.000000 0.000000 0.000000 -0.095285 0.000000
# 6 0.000000 0.000000 0.000000 0.000000 0.000000 0.041435
#
#
# Mechanical properties :
#
#
# Convention : Reuss Voigt Hill
#
# Bulk Modulus (GPa) = 67.46598 70.20211 68.83405
# Shear Modulus (GPa) = -66.19617 11.92539 -27.13539
#
# Velocity S-wave (km/s) = -5.83392 2.47617 -3.73518
# Velocity P-wave (km/s) = 3.26986 6.65353 4.09741
#
# Compressibility (1/GPa) = 0.01482228
#
# Stress axis : x y z
#
# Youngs Moduli (GPa) = 72.16729 72.16729 71.28316
#
# Poissons Ratio (x) = 0.49513 0.23520
# Poissons Ratio (y) = 0.49513 0.23520
# Poissons Ratio (z) = 0.23811 0.23811
#
# Static dielectric constant tensor:
#      x y z
#    x 3.586550 0.000000 0.000000 
#    y 0.000000 3.586550 0.000000 
#    z 0.000000 0.000000 3.795530 
# 
# 
# High freq. dielectric constant tensor:
#      x y z
#    x 1.753670 0.000000 0.000000 
#    y 0.000000 1.753670 0.000000 
#    z 0.000000 0.000000 1.763570 
# 
# From -- ./inp_files/1669.got.cif
#   From: 2010.03.12/outbox.cif.g09.slc.cpg/sg194_1_cif.got.tgz:1669.got - 2010.04.01 12:26:19.
