data_PCOD8330222
_publ_section_title
;
Structure prediction by ZEFSAII (Michael W. Deem and Ramdas Pophale) SiO2 
 PCOD8330222
Probable space group: P 63/M C M
;
_chemical_formula_sum "Si O2"
_cell_formula_units_Z 114
_cell_length_a 22.252390
_cell_length_b 22.252390
_cell_length_c 13.724247
_cell_angle_alpha 90.000000
_cell_angle_beta 90.000000
_cell_angle_gamma 120.000000
_cell_volume 5885.352544
_symmetry_space_group_name_H-M "P 63/M C M"
_symmetry_group_IT_number 193
_symmetry_cell_setting 'hexagonal'
loop_
_space_group_symop_operation_xyz
x,y,z
x-y,x,1/2+z
-y,x-y,z
-x,-y,1/2+z
-x+y,-x,z
y,-x+y,1/2+z
x-y,-y,1/2-z
-x,-x+y,1/2-z
y,x,1/2-z
-y,-x,-z
-x+y,y,-z
x,x-y,-z
-x,-y,-z
-x+y,-x,1/2-z
y,-x+y,-z
x,y,1/2-z
x-y,x,-z
-y,x-y,1/2-z
-x+y,y,1/2+z
x,x-y,1/2+z
-y,-x,1/2+z
y,x,z
x-y,-y,z
-x,-x+y,z
loop_
_atom_site_type_symbol
_atom_site_label
_atom_site_fract_x
_atom_site_fract_y
_atom_site_fract_z
Si Si1 0.114172 0.335255 0.927525
Si Si2 0.000000 0.308967 0.422815
Si Si3 0.787280 0.000000 0.750000
Si Si4 0.152721 0.921318 0.750000
Si Si5 0.803948 0.290459 0.917748
Si Si6 0.556209 0.556209 0.362266
Si Si7 0.297712 0.718376 0.750000
Si Si8 0.555995 0.111989 0.000000
O O1 0.084898 0.275981 0.845707
O O2 0.146346 0.409932 0.872915
O O3 0.160109 0.320218 0.000000
O O4 0.062499 0.338900 0.003338
O O5 0.000000 0.254160 0.345897
O O6 0.000000 0.371634 0.365099
O O7 0.793544 0.929835 0.750000
O O8 0.164660 0.000000 0.750000
O O9 0.744209 0.276939 0.843756
O O10 0.841956 0.369239 0.952341
O O11 0.764634 0.235367 0.000000
O O12 0.535525 0.535525 0.250000
O O13 0.495361 0.562787 0.413854
O O14 0.254230 0.634640 0.750000
#
# Coordination Sequence:
#
# PCOD8330222 Si02
#       8
#    24  12   6  12  24  12  12  12
#     4  11  23  40  67  97 132 169 217 280 331 390
#     4  12  21  44  66 100 131 165 223 275 328 395
#     4  12  26  42  76 100 134 176 214 266 336 396
#     4  12  25  43  67 101 137 175 213 259 331 408
#     4  11  23  41  62  91 127 169 226 286 335 393
#     4  11  25  44  66  96 132 180 222 280 339 405
#     4  10  23  40  58  83 120 174 226 271 344 395
#     4  11  24  42  64  94 132 172 226 274 344 400
#
# _framework density 19.370121999999999
#
# number of rings (size 3 to 8) (size 9 to 14) (size 15 to 20)
#    0.211    0.632    5.789    1.895    1.474    0.000 
#    2.842    0.000    0.000    0.000    0.000    2.211 
#    0.000    0.000    0.000    0.000    0.000    0.000 
#
# Total GULP energy -1412559.748088 kJ/mol
# GULP energy per Si atom -12390.874983 kJ/mol
# Density = 1.932603 g / cm^3
# Si number density = 19.370122 Si / 1000 Ang^3
#
#
#
# Elastic Constant Matrix: (Units=GPa)
#
#
# Indices 1 2 3 4 5 6 
#
# 1 100.6992 31.6565 23.0462 0.0000 0.0000 0.0000
# 2 31.6565 100.6992 23.0462 0.0000 0.0000 0.0000
# 3 23.0462 23.0462 95.2143 0.0000 0.0000 0.0000
# 4 0.0000 0.0000 0.0000 1133.6457 0.0000 0.0000
# 5 0.0000 0.0000 0.0000 0.0000 1133.6457 0.0000
# 6 0.0000 0.0000 0.0000 0.0000 0.0000 34.5214
#
#
#
# Elastic Compliance Matrix: (Units=1/GPa)
#
#
# Indices 1 2 3 4 5 6 
#
# 1 0.011367 -0.003116 -0.001997 0.000000 0.000000 0.000000
# 2 -0.003116 0.011367 -0.001997 0.000000 0.000000 0.000000
# 3 -0.001997 -0.001997 0.011469 0.000000 0.000000 0.000000
# 4 0.000000 0.000000 0.000000 0.000882 0.000000 0.000000
# 5 0.000000 0.000000 0.000000 0.000000 0.000882 0.000000
# 6 0.000000 0.000000 0.000000 0.000000 0.000000 0.028968
#
#
# Mechanical properties :
#
#
# Convention : Reuss Voigt Hill
#
# Bulk Modulus (GPa) = 50.04303 50.23449 50.13876
# Shear Modulus (GPa) = 58.26285 474.95348 266.60816
#
# Velocity S-wave (km/s) = 5.49036 15.67582 11.74469
# Velocity P-wave (km/s) = 8.12916 18.80511 14.48647
#
# Compressibility (1/GPa) = 0.01998280
#
# Stress axis : x y z
#
# Youngs Moduli (GPa) = 87.97145 87.97145 87.18858
#
# Poissons Ratio (x) = 0.27416 0.17412
# Poissons Ratio (y) = 0.27416 0.17412
# Poissons Ratio (z) = 0.17569 0.17569
#
# Static dielectric constant tensor:
#      x y z
#    x 3.613290 0.000000 0.000000 
#    y 0.000000 3.613290 0.000000 
#    z 0.000000 0.000000 3.427470 
# 
# 
# High freq. dielectric constant tensor:
#      x y z
#    x 1.761180 0.000000 0.000000 
#    y 0.000000 1.761180 0.000000 
#    z 0.000000 0.000000 1.762450 
# 
# From -- ./inp_files/3883.got.cif
#   From: 2010.03.12/outbox.cif.g09.slc.cpg/sg193_2_cif.got.tgz:3883.got - 2010.04.01 12:20:39.
