data_PCOD8330746
_publ_section_title
;
Structure prediction by ZEFSAII (Michael W. Deem and Ramdas Pophale) SiO2 
 PCOD8330746
Probable space group: P 63/M M C
;
_chemical_formula_sum "Si O2"
_cell_formula_units_Z 108
_cell_length_a 17.029438
_cell_length_b 17.029438
_cell_length_c 22.562312
_cell_angle_alpha 90.000000
_cell_angle_beta 90.000000
_cell_angle_gamma 120.000000
_cell_volume 5666.499617
_symmetry_space_group_name_H-M "P 63/M M C"
_symmetry_group_IT_number 194
_symmetry_cell_setting 'hexagonal'
loop_
_space_group_symop_operation_xyz
x,y,z
x-y,x,1/2+z
-y,x-y,z
-x,-y,1/2+z
-x+y,-x,z
y,-x+y,1/2+z
x-y,-y,-z
-x,-x+y,-z
y,x,-z
-y,-x,1/2-z
-x+y,y,1/2-z
x,x-y,1/2-z
-x,-y,-z
-x+y,-x,1/2-z
y,-x+y,-z
x,y,1/2-z
x-y,x,-z
-y,x-y,1/2-z
-x+y,y,z
x,x-y,z
-y,-x,z
y,x,1/2+z
x-y,-y,1/2+z
-x,-x+y,1/2+z
loop_
_atom_site_type_symbol
_atom_site_label
_atom_site_fract_x
_atom_site_fract_y
_atom_site_fract_z
Si Si1 0.535221 0.635119 0.523749
Si Si2 0.821875 0.822493 0.181676
Si Si3 0.514869 0.844517 0.102161
Si Si4 0.519128 0.665696 0.750000
Si Si5 0.037332 0.364176 0.861524
O O1 0.572877 0.572877 0.500000
O O2 0.431396 0.568605 0.544960
O O3 0.537693 0.694630 0.467695
O O4 0.592973 0.692614 0.580048
O O5 0.792902 0.799975 0.250000
O O6 0.926778 0.853555 0.173057
O O7 0.760964 0.733862 0.143665
O O8 0.807295 0.903648 0.158796
O O9 0.414886 0.829771 0.110600
O O10 0.519760 0.759880 0.131261
O O11 0.584845 0.938083 0.133948
O O12 0.416663 0.583338 0.750000
O O13 0.518698 0.759349 0.750000
O O14 0.571335 0.659833 0.806991
#
# Coordination Sequence:
#
# PCOD8330746 Si02
#       5
#    24  24  24  12  24
#     4   8  16  32  53  77 107 141 180 228 276 321
#     4  10  20  35  54  79 108 140 179 227 279 328
#     4  10  20  35  56  84 115 149 187 233 286 336
#     4  12  25  40  57  80 112 148 184 226 277 332
#     4  11  20  36  58  83 111 146 192 232 272 329
#
# _framework density 19.059386
#
# number of rings (size 3 to 8) (size 9 to 14) (size 15 to 20)
#    0.000    2.000    1.111    5.222    0.000    2.667 
#    0.000    0.000    0.000    2.667    0.000    1.556 
#    0.000   17.778    0.000    0.000    0.000    0.000 
#
# Total GULP energy -1338671.107992 kJ/mol
# GULP energy per Si atom -12395.102852 kJ/mol
# Density = 1.901601 g / cm^3
# Si number density = 19.059386 Si / 1000 Ang^3
#
#
#
# Elastic Constant Matrix: (Units=GPa)
#
#
# Indices 1 2 3 4 5 6 
#
# 1 108.6376 51.7290 43.8056 0.0000 0.0000 0.0000
# 2 51.7290 108.6376 43.8056 0.0000 0.0000 0.0000
# 3 43.8056 43.8056 92.7938 0.0000 0.0000 0.0000
# 4 0.0000 0.0000 0.0000 28.7487 0.0000 0.0000
# 5 0.0000 0.0000 0.0000 0.0000 28.7487 0.0000
# 6 0.0000 0.0000 0.0000 0.0000 0.0000 28.4543
#
#
#
# Elastic Compliance Matrix: (Units=1/GPa)
#
#
# Indices 1 2 3 4 5 6 
#
# 1 0.012987 -0.004585 -0.003967 0.000000 0.000000 0.000000
# 2 -0.004585 0.012987 -0.003967 0.000000 0.000000 0.000000
# 3 -0.003967 -0.003967 0.014522 0.000000 0.000000 0.000000
# 4 0.000000 0.000000 0.000000 0.034784 0.000000 0.000000
# 5 0.000000 0.000000 0.000000 0.000000 0.034784 0.000000
# 6 0.000000 0.000000 0.000000 0.000000 0.000000 0.035144
#
#
# Mechanical properties :
#
#
# Convention : Reuss Voigt Hill
#
# Bulk Modulus (GPa) = 64.68133 65.41658 65.04895
# Shear Modulus (GPa) = 28.50646 28.57226 28.53936
#
# Velocity S-wave (km/s) = 3.87158 3.87604 3.87381
# Velocity P-wave (km/s) = 7.34819 7.37758 7.36290
#
# Compressibility (1/GPa) = 0.01546041
#
# Stress axis : x y z
#
# Youngs Moduli (GPa) = 76.99752 76.99752 68.86200
#
# Poissons Ratio (x) = 0.35300 0.27316
# Poissons Ratio (y) = 0.35300 0.27316
# Poissons Ratio (z) = 0.30543 0.30543
#
# Static dielectric constant tensor:
#      x y z
#    x 3.556410 0.000000 0.000000 
#    y 0.000000 3.556410 0.000000 
#    z 0.000000 0.000000 3.765540 
# 
# 
# High freq. dielectric constant tensor:
#      x y z
#    x 1.744920 0.000000 0.000000 
#    y 0.000000 1.744920 0.000000 
#    z 0.000000 0.000000 1.723920 
# 
# From -- ./inp_files/7962.got.cif
#   From: 2010.03.12/outbox.cif.g09.slc.cpg/sg194_4_cif.got.tgz:7962.got - 2010.04.01 12:26:19.
