data_PCOD8330586
_publ_section_title
;
Structure prediction by ZEFSAII (Michael W. Deem and Ramdas Pophale) SiO2 
 PCOD8330586
Probable space group: P 63/M M C
;
_chemical_formula_sum "Si O2"
_cell_formula_units_Z 120
_cell_length_a 17.845272
_cell_length_b 17.845272
_cell_length_c 24.323059
_cell_angle_alpha 90.000000
_cell_angle_beta 90.000000
_cell_angle_gamma 120.000000
_cell_volume 6708.032666
_symmetry_space_group_name_H-M "P 63/M M C"
_symmetry_group_IT_number 194
_symmetry_cell_setting 'hexagonal'
loop_
_space_group_symop_operation_xyz
x,y,z
x-y,x,1/2+z
-y,x-y,z
-x,-y,1/2+z
-x+y,-x,z
y,-x+y,1/2+z
x-y,-y,-z
-x,-x+y,-z
y,x,-z
-y,-x,1/2-z
-x+y,y,1/2-z
x,x-y,1/2-z
-x,-y,-z
-x+y,-x,1/2-z
y,-x+y,-z
x,y,1/2-z
x-y,x,-z
-y,x-y,1/2-z
-x+y,y,z
x,x-y,z
-y,-x,z
y,x,1/2+z
x-y,-y,1/2+z
-x,-x+y,1/2+z
loop_
_atom_site_type_symbol
_atom_site_label
_atom_site_fract_x
_atom_site_fract_y
_atom_site_fract_z
Si Si1 0.411779 0.414071 0.063490
Si Si2 0.329981 0.494022 0.632834
Si Si3 0.474133 0.114121 0.250000
Si Si4 0.000428 0.172113 0.684965
Si Si5 0.733540 0.094232 0.853356
Si Si6 0.910713 0.540229 0.750000
O O1 0.486993 0.513008 0.071805
O O2 0.437294 0.348227 0.090390
O O3 0.326243 0.399911 0.093445
O O4 0.390623 0.390623 0.000000
O O5 0.249887 0.499773 0.608718
O O6 0.411236 0.588765 0.637520
O O7 0.304976 0.449266 0.693597
O O8 0.577402 0.154803 0.250000
O O9 0.429050 0.012415 0.250000
O O10 0.003054 0.183016 0.750000
O O11 0.091965 0.183930 0.663344
O O12 0.983315 0.246532 0.660361
O O13 0.923465 0.076536 0.668278
O O14 0.822212 0.177789 0.868874
O O15 0.689911 0.117798 0.803411
O O16 0.870760 0.435380 0.750000
#
# Coordination Sequence:
#
# PCOD8330586 Si02
#       6
#    24  24  12  24  24  12
#     4  10  22  40  58  75  99 137 182 223 270 324
#     4  10  19  32  52  80 112 141 170 206 255 318
#     4   9  17  30  50  77 107 140 170 196 242 315
#     4   9  17  30  49  77 114 150 179 208 251 308
#     4  11  21  35  55  81 108 137 177 226 272 313
#     4  11  19  34  56  77 108 144 176 212 269 333
#
# _framework density 17.888999999999999
#
# number of rings (size 3 to 8) (size 9 to 14) (size 15 to 20)
#    0.000    2.000    3.000    1.600    0.000    2.400 
#    0.000    1.000    0.000    5.600    0.000    0.000 
#    0.000    4.000    0.000    0.000    0.000    0.000 
#
# Total GULP energy -1487556.532155 kJ/mol
# GULP energy per Si atom -12396.304435 kJ/mol
# Density = 1.784828 g / cm^3
# Si number density = 17.889000 Si / 1000 Ang^3
#
#
#
# Elastic Constant Matrix: (Units=GPa)
#
#
# Indices 1 2 3 4 5 6 
#
# 1 84.9036 39.5626 49.7265 0.0000 0.0000 0.0000
# 2 39.5626 84.9036 49.7265 0.0000 0.0000 0.0000
# 3 49.7265 49.7265 127.4680 0.0000 0.0000 0.0000
# 4 0.0000 0.0000 0.0000 22.5265 0.0000 0.0000
# 5 0.0000 0.0000 0.0000 0.0000 22.5265 0.0000
# 6 0.0000 0.0000 0.0000 0.0000 0.0000 22.6705
#
#
#
# Elastic Compliance Matrix: (Units=1/GPa)
#
#
# Indices 1 2 3 4 5 6 
#
# 1 0.016864 -0.005191 -0.004554 0.000000 0.000000 0.000000
# 2 -0.005191 0.016864 -0.004554 0.000000 0.000000 0.000000
# 3 -0.004554 -0.004554 0.011398 0.000000 0.000000 0.000000
# 4 0.000000 0.000000 0.000000 0.044392 0.000000 0.000000
# 5 0.000000 0.000000 0.000000 0.000000 0.044392 0.000000
# 6 0.000000 0.000000 0.000000 0.000000 0.000000 0.044110
#
#
# Mechanical properties :
#
#
# Convention : Reuss Voigt Hill
#
# Bulk Modulus (GPa) = 60.49991 63.92293 62.21142
# Shear Modulus (GPa) = 23.57078 24.09535 23.83306
#
# Velocity S-wave (km/s) = 3.63383 3.67404 3.65399
# Velocity P-wave (km/s) = 7.17630 7.33545 7.25631
#
# Compressibility (1/GPa) = 0.01652895
#
# Stress axis : x y z
#
# Youngs Moduli (GPa) = 59.29791 59.29791 87.73463
#
# Poissons Ratio (x) = 0.30782 0.39952
# Poissons Ratio (y) = 0.30782 0.39952
# Poissons Ratio (z) = 0.27003 0.27003
#
# Static dielectric constant tensor:
#      x y z
#    x 3.364020 0.000000 0.000000 
#    y 0.000000 3.364020 0.000000 
#    z 0.000000 0.000000 3.127450 
# 
# 
# High freq. dielectric constant tensor:
#      x y z
#    x 1.689890 0.000000 0.000000 
#    y 0.000000 1.689890 0.000000 
#    z 0.000000 0.000000 1.668640 
# 
# From -- ./inp_files/9434.got.cif
#   From: 2010.03.12/outbox.cif.g09.slc.cpg/sg194_5_cif.got.tgz:9434.got - 2010.04.01 12:26:19.
