data_PCOD8330144
_publ_section_title
;
Structure prediction by ZEFSAII (Michael W. Deem and Ramdas Pophale) SiO2 
 PCOD8330144
Probable space group: P 63/M C M
;
_chemical_formula_sum "Si O2"
_cell_formula_units_Z 144
_cell_length_a 31.360361
_cell_length_b 31.360361
_cell_length_c 8.676638
_cell_angle_alpha 90.000000
_cell_angle_beta 90.000000
_cell_angle_gamma 120.000000
_cell_volume 7389.996232
_symmetry_space_group_name_H-M "P 63/M C M"
_symmetry_group_IT_number 193
_symmetry_cell_setting 'hexagonal'
loop_
_space_group_symop_operation_xyz
x,y,z
x-y,x,1/2+z
-y,x-y,z
-x,-y,1/2+z
-x+y,-x,z
y,-x+y,1/2+z
x-y,-y,1/2-z
-x,-x+y,1/2-z
y,x,1/2-z
-y,-x,-z
-x+y,y,-z
x,x-y,-z
-x,-y,-z
-x+y,-x,1/2-z
y,-x+y,-z
x,y,1/2-z
x-y,x,-z
-y,x-y,1/2-z
-x+y,y,1/2+z
x,x-y,1/2+z
-y,-x,1/2+z
y,x,z
x-y,-y,z
-x,-x+y,z
loop_
_atom_site_type_symbol
_atom_site_label
_atom_site_fract_x
_atom_site_fract_y
_atom_site_fract_z
Si Si1 0.148016 0.662102 0.931889
Si Si2 0.054989 0.199881 0.068757
Si Si3 0.666835 0.241861 0.432885
Si Si4 0.759237 0.705051 0.433450
Si Si5 0.240851 0.851146 0.068044
Si Si6 0.574177 0.056005 0.430202
O O1 0.153220 0.657841 0.750000
O O2 0.158949 0.715866 0.982734
O O3 0.186514 0.650847 0.017770
O O4 0.092513 0.624562 0.984181
O O5 0.060596 0.202210 0.250000
O O6 0.066089 0.253179 0.006784
O O7 0.000000 0.158741 0.019120
O O8 0.092278 0.184555 0.000000
O O9 0.720634 0.279367 0.500000
O O10 0.628117 0.256233 0.500000
O O11 0.667896 0.245915 0.250000
O O12 0.758997 0.705343 0.250000
O O13 0.717694 0.717694 0.493734
O O14 0.747876 0.652095 0.496996
O O15 0.235992 0.850108 0.250000
O O16 0.190024 0.809977 0.000000
O O17 0.532542 0.065083 0.500000
O O18 0.578760 0.068105 0.250000
O O19 0.561408 0.000000 0.460931
#
# Coordination Sequence:
#
# PCOD8330144 Si02
#       6
#    24  24  24  24  24  24
#     4  11  23  38  57  84 115 150 191 230 272 323
#     4   9  17  29  47  71  98 129 166 209 257 308
#     4  12  25  43  65  89 117 148 184 227 278 334
#     4   8  15  30  51  75 103 135 173 216 261 310
#     4  10  21  35  54  78 106 143 182 220 264 315
#     4  10  21  38  60  85 113 146 184 229 281 331
#
# _framework density 19.485802
#
# number of rings (size 3 to 8) (size 9 to 14) (size 15 to 20)
#    0.000    2.000    0.000    5.167    0.000    4.667 
#    0.000    1.667    0.000    1.667    0.000    0.000 
#    0.000    0.000    0.000    0.000    0.000    0.000 
#
# Total GULP energy -1785755.800817 kJ/mol
# GULP energy per Si atom -12401.081950 kJ/mol
# Density = 1.944145 g / cm^3
# Si number density = 19.485802 Si / 1000 Ang^3
#
#
#
# Elastic Constant Matrix: (Units=GPa)
#
#
# Indices 1 2 3 4 5 6 
#
# 1 110.1458 41.5694 35.6802 0.0000 0.0000 0.0000
# 2 41.5694 110.1458 35.6802 0.0000 0.0000 0.0000
# 3 35.6802 35.6802 73.9652 0.0000 0.0000 0.0000
# 4 0.0000 0.0000 0.0000 27.8055 0.0000 0.0000
# 5 0.0000 0.0000 0.0000 0.0000 27.8055 0.0000
# 6 0.0000 0.0000 0.0000 0.0000 0.0000 34.2882
#
#
#
# Elastic Compliance Matrix: (Units=1/GPa)
#
#
# Indices 1 2 3 4 5 6 
#
# 1 0.011554 -0.003028 -0.004113 0.000000 0.000000 0.000000
# 2 -0.003028 0.011554 -0.004113 0.000000 0.000000 0.000000
# 3 -0.004113 -0.004113 0.017488 0.000000 0.000000 0.000000
# 4 0.000000 0.000000 0.000000 0.035964 0.000000 0.000000
# 5 0.000000 0.000000 0.000000 0.000000 0.035964 0.000000
# 6 0.000000 0.000000 0.000000 0.000000 0.000000 0.029165
#
#
# Mechanical properties :
#
#
# Convention : Reuss Voigt Hill
#
# Bulk Modulus (GPa) = 55.28437 57.79069 56.53753
# Shear Modulus (GPa) = 29.37282 30.06833 29.72058
#
# Velocity S-wave (km/s) = 3.88673 3.93248 3.90967
# Velocity P-wave (km/s) = 6.96961 7.09517 7.03267
#
# Compressibility (1/GPa) = 0.01808830
#
# Stress axis : x y z
#
# Youngs Moduli (GPa) = 86.55001 86.55001 57.18275
#
# Poissons Ratio (x) = 0.26210 0.23518
# Poissons Ratio (y) = 0.26210 0.23518
# Poissons Ratio (z) = 0.35596 0.35596
#
# Static dielectric constant tensor:
#      x y z
#    x 4.019430 0.000000 0.000000 
#    y 0.000000 4.019430 0.000000 
#    z 0.000000 0.000000 3.381540 
# 
# 
# High freq. dielectric constant tensor:
#      x y z
#    x 1.763990 0.000000 0.000000 
#    y 0.000000 1.763990 0.000000 
#    z 0.000000 0.000000 1.744710 
# 
# From -- ./inp_files/1506.got.cif
#   From: 2010.03.12/outbox.cif.g09.slc.cpg/sg193_1_cif.got.tgz:1506.got - 2010.04.01 12:20:39.
