data_PCOD8330138
_publ_section_title
;
Structure prediction by ZEFSAII (Michael W. Deem and Ramdas Pophale) SiO2 
 PCOD8330138
Probable space group: P 63/M C M
;
_chemical_formula_sum "Si O2"
_cell_formula_units_Z 96
_cell_length_a 16.976783
_cell_length_b 16.976783
_cell_length_c 20.563360
_cell_angle_alpha 90.000000
_cell_angle_beta 90.000000
_cell_angle_gamma 120.000000
_cell_volume 5132.577377
_symmetry_space_group_name_H-M "P 63/M C M"
_symmetry_group_IT_number 193
_symmetry_cell_setting 'hexagonal'
loop_
_space_group_symop_operation_xyz
x,y,z
x-y,x,1/2+z
-y,x-y,z
-x,-y,1/2+z
-x+y,-x,z
y,-x+y,1/2+z
x-y,-y,1/2-z
-x,-x+y,1/2-z
y,x,1/2-z
-y,-x,-z
-x+y,y,-z
x,x-y,-z
-x,-y,-z
-x+y,-x,1/2-z
y,-x+y,-z
x,y,1/2-z
x-y,x,-z
-y,x-y,1/2-z
-x+y,y,1/2+z
x,x-y,1/2+z
-y,-x,1/2+z
y,x,z
x-y,-y,z
-x,-x+y,z
loop_
_atom_site_type_symbol
_atom_site_label
_atom_site_fract_x
_atom_site_fract_y
_atom_site_fract_z
Si Si1 0.324915 0.217781 0.440162
Si Si2 0.892625 0.396622 0.939519
Si Si3 0.782696 0.395203 0.178363
Si Si4 0.106008 0.894569 0.824196
O O1 0.299185 0.149593 0.500000
O O2 0.269986 0.269986 0.450175
O O3 0.432785 0.289026 0.440353
O O4 0.296770 0.162310 0.372222
O O5 0.861754 0.424979 0.874264
O O6 0.000000 0.451957 0.940873
O O7 0.852406 0.426203 0.000000
O O8 0.714487 0.436262 0.170424
O O9 0.827985 0.419632 0.250000
O O10 0.124749 0.876581 0.750000
O O11 0.000000 0.835752 0.841499
O O12 0.136436 0.000000 0.834020
#
# Coordination Sequence:
#
# PCOD8330138 Si02
#       4
#    24  24  24  24
#     4  10  21  34  51  76 107 143 178 217 263 313
#     4  10  22  36  53  80 107 137 178 218 263 320
#     4   8  18  35  56  81 102 126 168 212 255 312
#     4   9  17  31  52  78 107 141 181 220 259 308
#
# _framework density 18.704052999999998
#
# number of rings (size 3 to 8) (size 9 to 14) (size 15 to 20)
#    0.500    2.250    0.000    1.000    3.500    2.500 
#    0.000    2.500    0.000    4.000    0.000    0.000 
#    0.000    0.000    0.000    0.000    0.000    0.000 
#
# Total GULP energy -1189896.242412 kJ/mol
# GULP energy per Si atom -12394.752525 kJ/mol
# Density = 1.866148 g / cm^3
# Si number density = 18.704053 Si / 1000 Ang^3
#
#
#
# Elastic Constant Matrix: (Units=GPa)
#
#
# Indices 1 2 3 4 5 6 
#
# 1 54.5091 35.2370 54.2406 0.0000 0.0000 0.0000
# 2 35.2370 54.5091 54.2406 0.0000 0.0000 0.0000
# 3 54.2406 54.2406 164.9166 0.0000 0.0000 0.0000
# 4 0.0000 0.0000 0.0000 28.3785 0.0000 0.0000
# 5 0.0000 0.0000 0.0000 0.0000 28.3785 0.0000
# 6 0.0000 0.0000 0.0000 0.0000 0.0000 9.6360
#
#
#
# Elastic Compliance Matrix: (Units=1/GPa)
#
#
# Indices 1 2 3 4 5 6 
#
# 1 0.035192 -0.016696 -0.006083 0.000000 0.000000 0.000000
# 2 -0.016696 0.035192 -0.006083 0.000000 0.000000 0.000000
# 3 -0.006083 -0.006083 0.010065 0.000000 0.000000 0.000000
# 4 0.000000 0.000000 0.000000 0.035238 0.000000 0.000000
# 5 0.000000 0.000000 0.000000 0.000000 0.035238 0.000000
# 6 0.000000 0.000000 0.000000 0.000000 0.000000 0.103777
#
#
# Mechanical properties :
#
#
# Convention : Reuss Voigt Hill
#
# Bulk Modulus (GPa) = 44.00691 62.37460 53.19075
# Shear Modulus (GPa) = 15.62489 21.95972 18.79230
#
# Velocity S-wave (km/s) = 2.89342 3.43018 3.17317
# Velocity P-wave (km/s) = 5.89420 7.00776 6.47496
#
# Compressibility (1/GPa) = 0.02272371
#
# Stress axis : x y z
#
# Youngs Moduli (GPa) = 28.41549 28.41549 99.35286
#
# Poissons Ratio (x) = 0.47444 0.60438
# Poissons Ratio (y) = 0.47444 0.60438
# Poissons Ratio (z) = 0.17286 0.17286
#
# Static dielectric constant tensor:
#      x y z
#    x 3.290310 0.000000 0.000000 
#    y 0.000000 3.290310 0.000000 
#    z 0.000000 0.000000 3.513480 
# 
# 
# High freq. dielectric constant tensor:
#      x y z
#    x 1.709160 0.000000 0.000000 
#    y 0.000000 1.709160 0.000000 
#    z 0.000000 0.000000 1.738390 
# 
# From -- ./inp_files/6143.got.cif
#   From: 2010.03.12/outbox.cif.g09.slc.cpg/sg193_4_cif.got.tgz:6143.got - 2010.04.01 12:20:39.
