data_PCOD8330828
_publ_section_title
;
Structure prediction by ZEFSAII (Michael W. Deem and Ramdas Pophale) SiO2 
 PCOD8330828
Probable space group: P 63/M M C
;
_chemical_formula_sum "Si O2"
_cell_formula_units_Z 64
_cell_length_a 14.002558
_cell_length_b 14.002558
_cell_length_c 19.239366
_cell_angle_alpha 90.000000
_cell_angle_beta 90.000000
_cell_angle_gamma 120.000000
_cell_volume 3266.902315
_symmetry_space_group_name_H-M "P 63/M M C"
_symmetry_group_IT_number 194
_symmetry_cell_setting 'hexagonal'
loop_
_space_group_symop_operation_xyz
x,y,z
x-y,x,1/2+z
-y,x-y,z
-x,-y,1/2+z
-x+y,-x,z
y,-x+y,1/2+z
x-y,-y,-z
-x,-x+y,-z
y,x,-z
-y,-x,1/2-z
-x+y,y,1/2-z
x,x-y,1/2-z
-x,-y,-z
-x+y,-x,1/2-z
y,-x+y,-z
x,y,1/2-z
x-y,x,-z
-y,x-y,1/2-z
-x+y,y,z
x,x-y,z
-y,-x,z
y,x,1/2+z
x-y,-y,1/2+z
-x,-x+y,1/2+z
loop_
_atom_site_type_symbol
_atom_site_label
_atom_site_fract_x
_atom_site_fract_y
_atom_site_fract_z
Si Si1 0.787465 0.574930 0.831468
Si Si2 0.333334 0.666667 0.166132
Si Si3 0.551166 0.667973 0.531885
Si Si4 0.398826 0.382443 0.172240
O O1 0.777777 0.555553 0.750000
O O2 0.727659 0.455318 0.866705
O O3 0.721690 0.638445 0.851388
O O4 0.333334 0.666667 0.250000
O O5 0.642551 0.642551 0.500000
O O6 0.568590 0.784295 0.503113
O O7 0.429334 0.570667 0.511616
O O8 0.564950 0.677921 0.615876
O O9 0.394934 0.335217 0.250000
O O10 0.485908 0.514093 0.171247
#
# Coordination Sequence:
#
# PCOD8330828 Si02
#       4
#    12   4  24  24
#     4   9  14  22  40  72 111 144 175 213 261 314
#     4   9  12  18  36  66 111 150 168 207 259 314
#     4  10  22  39  58  81 111 146 183 225 274 329
#     4   9  17  29  48  77 109 142 182 223 268 322
#
# _framework density 19.590423999999999
#
# number of rings (size 3 to 8) (size 9 to 14) (size 15 to 20)
#    0.000    2.625    1.875    0.375    2.625    0.750 
#    0.000    0.000    0.000    2.625    0.000    0.000 
#    0.000    0.000    0.000    0.000    0.000    0.000 
#
# Total GULP energy -793017.595826 kJ/mol
# GULP energy per Si atom -12390.899935 kJ/mol
# Density = 1.954584 g / cm^3
# Si number density = 19.590424 Si / 1000 Ang^3
#
#
#
# Elastic Constant Matrix: (Units=GPa)
#
#
# Indices 1 2 3 4 5 6 
#
# 1 84.1862 44.9876 21.6607 0.0000 0.0000 0.0001
# 2 44.9876 84.1861 21.6607 0.0000 0.0000 -0.0001
# 3 21.6607 21.6607 60.3235 0.0000 0.0000 0.0000
# 4 0.0000 0.0000 0.0000 20.6670 0.0000 0.0000
# 5 0.0000 0.0000 0.0000 0.0000 20.6671 0.0000
# 6 0.0001 -0.0001 0.0000 0.0000 0.0000 19.5993
#
#
#
# Elastic Compliance Matrix: (Units=1/GPa)
#
#
# Indices 1 2 3 4 5 6 
#
# 1 0.017156 -0.008355 -0.003160 0.000000 0.000000 0.000000
# 2 -0.008355 0.017156 -0.003160 0.000000 0.000000 0.000000
# 3 -0.003160 -0.003160 0.018847 0.000000 0.000000 0.000000
# 4 0.000000 0.000000 0.000000 0.048386 0.000000 0.000000
# 5 0.000000 0.000000 0.000000 0.000000 0.048386 0.000000
# 6 0.000000 0.000000 0.000000 0.000000 0.000000 0.051022
#
#
# Mechanical properties :
#
#
# Convention : Reuss Voigt Hill
#
# Bulk Modulus (GPa) = 42.00223 45.03486 43.51855
# Shear Modulus (GPa) = 20.98712 21.54581 21.26647
#
# Velocity S-wave (km/s) = 3.27662 3.31994 3.29835
# Velocity P-wave (km/s) = 5.98345 6.14281 6.06365
#
# Compressibility (1/GPa) = 0.02380826
#
# Stress axis : x y z
#
# Youngs Moduli (GPa) = 58.28775 58.28768 53.05912
#
# Poissons Ratio (x) = 0.48699 0.16769
# Poissons Ratio (y) = 0.48699 0.16769
# Poissons Ratio (z) = 0.18421 0.18421
#
# Static dielectric constant tensor:
#      x y z
#    x 3.432880 -0.000010 0.000000 
#    y -0.000010 3.432880 0.000000 
#    z 0.000000 0.000000 3.772320 
# 
# 
# High freq. dielectric constant tensor:
#      x y z
#    x 1.721710 0.000000 0.000000 
#    y 0.000000 1.721710 0.000000 
#    z 0.000000 0.000000 1.781930 
# 
# From -- ./inp_files/7471.got.cif
#   From: 2010.03.12/outbox.cif.g09.slc.cpg/sg194_4_cif.got.tgz:7471.got - 2010.04.01 12:26:19.
