data_PCOD8330198
_publ_section_title
;
Structure prediction by ZEFSAII (Michael W. Deem and Ramdas Pophale) SiO2 
 PCOD8330198
Probable space group: P 63/M C M
;
_chemical_formula_sum "Si O2"
_cell_formula_units_Z 132
_cell_length_a 24.626651
_cell_length_b 24.626651
_cell_length_c 13.789553
_cell_angle_alpha 90.000000
_cell_angle_beta 90.000000
_cell_angle_gamma 120.000000
_cell_volume 7242.550492
_symmetry_space_group_name_H-M "P 63/M C M"
_symmetry_group_IT_number 193
_symmetry_cell_setting 'hexagonal'
loop_
_space_group_symop_operation_xyz
x,y,z
x-y,x,1/2+z
-y,x-y,z
-x,-y,1/2+z
-x+y,-x,z
y,-x+y,1/2+z
x-y,-y,1/2-z
-x,-x+y,1/2-z
y,x,1/2-z
-y,-x,-z
-x+y,y,-z
x,x-y,-z
-x,-y,-z
-x+y,-x,1/2-z
y,-x+y,-z
x,y,1/2-z
x-y,x,-z
-y,x-y,1/2-z
-x+y,y,1/2+z
x,x-y,1/2+z
-y,-x,1/2+z
y,x,z
x-y,-y,z
-x,-x+y,z
loop_
_atom_site_type_symbol
_atom_site_label
_atom_site_fract_x
_atom_site_fract_y
_atom_site_fract_z
Si Si1 0.073377 0.396576 0.357164
Si Si2 0.514133 0.439982 0.642006
Si Si3 0.757121 0.626959 0.969239
Si Si4 0.756413 0.828722 0.860908
Si Si5 0.370663 0.442010 0.365968
Si Si6 0.926938 0.073063 0.000000
O O1 0.103730 0.403007 0.250000
O O2 0.093732 0.465697 0.405228
O O3 0.092533 0.358728 0.429892
O O4 0.000000 0.359164 0.343354
O O5 0.526061 0.423678 0.750000
O O6 0.481425 0.481425 0.647765
O O7 0.581729 0.486987 0.591563
O O8 0.803562 0.691365 0.916125
O O9 0.699443 0.581373 0.901168
O O10 0.796715 0.593429 0.000000
O O11 0.748396 0.843307 0.750000
O O12 0.774910 0.774910 0.867589
O O13 0.810158 0.893181 0.907374
O O14 0.372134 0.445169 0.250000
O O15 0.393175 0.393175 0.401177
O O16 0.000000 0.102506 0.025777
#
# Coordination Sequence:
#
# PCOD8330198 Si02
#       6
#    24  24  24  24  24  12
#     4   9  18  33  52  74 102 132 164 209 262 310
#     4   7  12  26  49  77 102 121 149 197 255 305
#     4  12  23  33  45  69 106 147 183 208 241 300
#     4  10  21  39  59  77 102 136 175 220 265 315
#     4   9  17  31  53  76  98 127 166 214 262 307
#     4  10  21  40  64  88 106 126 166 226 292 346
#
# _framework density 18.225622999999999
#
# number of rings (size 3 to 8) (size 9 to 14) (size 15 to 20)
#    0.000    2.545    0.909    4.455    0.000    4.000 
#    0.000    2.727    0.000    1.091    0.000    0.000 
#    7.273    0.000    2.182    0.000    0.000    0.000 
#
# Total GULP energy -1635244.287471 kJ/mol
# GULP energy per Si atom -12388.214299 kJ/mol
# Density = 1.818414 g / cm^3
# Si number density = 18.225623 Si / 1000 Ang^3
#
#
#
# Elastic Constant Matrix: (Units=GPa)
#
#
# Indices 1 2 3 4 5 6 
#
# 1 76.9007 50.5351 35.8191 0.0000 0.0000 0.0000
# 2 50.5351 76.9007 35.8191 0.0000 0.0000 0.0000
# 3 35.8191 35.8191 80.5139 0.0000 0.0000 0.0000
# 4 0.0000 0.0000 0.0000 16.2571 0.0000 0.0000
# 5 0.0000 0.0000 0.0000 0.0000 16.2571 0.0000
# 6 0.0000 0.0000 0.0000 0.0000 0.0000 13.1828
#
#
#
# Elastic Compliance Matrix: (Units=1/GPa)
#
#
# Indices 1 2 3 4 5 6 
#
# 1 0.024196 -0.013732 -0.004655 0.000000 0.000000 0.000000
# 2 -0.013732 0.024196 -0.004655 0.000000 0.000000 0.000000
# 3 -0.004655 -0.004655 0.016562 0.000000 0.000000 0.000000
# 4 0.000000 0.000000 0.000000 0.061512 0.000000 0.000000
# 5 0.000000 0.000000 0.000000 0.000000 0.061512 0.000000
# 6 0.000000 0.000000 0.000000 0.000000 0.000000 0.075856
#
#
# Mechanical properties :
#
#
# Convention : Reuss Voigt Hill
#
# Bulk Modulus (GPa) = 52.99600 53.18467 53.09033
# Shear Modulus (GPa) = 15.81232 16.61553 16.21392
#
# Velocity S-wave (km/s) = 2.94868 3.02264 2.98589
# Velocity P-wave (km/s) = 6.38230 6.43634 6.40938
#
# Compressibility (1/GPa) = 0.01886935
#
# Stress axis : x y z
#
# Youngs Moduli (GPa) = 41.32894 41.32894 60.37813
#
# Poissons Ratio (x) = 0.56753 0.28108
# Poissons Ratio (y) = 0.56753 0.28108
# Poissons Ratio (z) = 0.19240 0.19240
#
# Static dielectric constant tensor:
#      x y z
#    x 3.346020 0.000000 0.000000 
#    y 0.000000 3.346020 0.000000 
#    z 0.000000 0.000000 3.738940 
# 
# 
# High freq. dielectric constant tensor:
#      x y z
#    x 1.679270 0.000000 0.000000 
#    y 0.000000 1.679270 0.000000 
#    z 0.000000 0.000000 1.721450 
# 
# From -- ./inp_files/4174.got.cif
#   From: 2010.03.12/outbox.cif.g09.slc.cpg/sg193_3_cif.got.tgz:4174.got - 2010.04.01 12:20:39.
