data_PCOD8330607
_publ_section_title
;
Structure prediction by ZEFSAII (Michael W. Deem and Ramdas Pophale) SiO2 
 PCOD8330607
Probable space group: P 63/M M C
;
_chemical_formula_sum "Si O2"
_cell_formula_units_Z 144
_cell_length_a 31.554671
_cell_length_b 31.554671
_cell_length_c 8.752237
_cell_angle_alpha 90.000000
_cell_angle_beta 90.000000
_cell_angle_gamma 120.000000
_cell_volume 7547.046292
_symmetry_space_group_name_H-M "P 63/M M C"
_symmetry_group_IT_number 194
_symmetry_cell_setting 'hexagonal'
loop_
_space_group_symop_operation_xyz
x,y,z
x-y,x,1/2+z
-y,x-y,z
-x,-y,1/2+z
-x+y,-x,z
y,-x+y,1/2+z
x-y,-y,-z
-x,-x+y,-z
y,x,-z
-y,-x,1/2-z
-x+y,y,1/2-z
x,x-y,1/2-z
-x,-y,-z
-x+y,-x,1/2-z
y,-x+y,-z
x,y,1/2-z
x-y,x,-z
-y,x-y,1/2-z
-x+y,y,z
x,x-y,z
-y,-x,z
y,x,1/2+z
x-y,-y,1/2+z
-x,-x+y,1/2+z
loop_
_atom_site_type_symbol
_atom_site_label
_atom_site_fract_x
_atom_site_fract_y
_atom_site_fract_z
Si Si1 0.950207 0.803224 0.071569
Si Si2 0.573559 0.523237 0.070125
Si Si3 0.145214 0.384934 0.431326
Si Si4 0.520103 0.856642 0.070161
Si Si5 0.333227 0.764423 0.927324
Si Si6 0.051172 0.763198 0.068532
O O1 0.957743 0.797886 0.250000
O O2 0.908227 0.816454 0.040777
O O3 0.936121 0.752488 0.989833
O O4 0.000000 0.846848 0.000000
O O5 0.576034 0.528944 0.250000
O O6 0.529224 0.470777 0.017602
O O7 0.566335 0.566335 0.000000
O O8 0.623111 0.528165 0.010509
O O9 0.146676 0.383457 0.250000
O O10 0.189873 0.379745 0.500241
O O11 0.151838 0.436293 0.487459
O O12 0.093804 0.340471 0.490514
O O13 0.521717 0.864677 0.250000
O O14 0.468712 0.810335 0.026206
O O15 0.332259 0.776773 0.750000
O O16 0.376774 0.753547 0.961577
O O17 0.282990 0.717011 0.977734
O O18 0.047440 0.762028 0.250000
O O19 0.000000 0.721079 0.000000
#
# Coordination Sequence:
#
# PCOD8330607 Si02
#       6
#    24  24  24  24  24  24
#     4  10  20  33  51  77 106 135 171 215 260 307
#     4  10  21  38  59  82 109 141 179 223 269 319
#     4   9  19  35  53  74 103 141 181 217 258 310
#     4  11  22  36  56  82 112 144 179 222 270 323
#     4  10  21  38  59  82 109 142 181 225 274 327
#     4  10  19  33  54  77 103 136 173 214 259 307
#
# _framework density 19.080310999999998
#
# number of rings (size 3 to 8) (size 9 to 14) (size 15 to 20)
#    0.000    2.000    0.000    4.667    0.000    7.667 
#    0.000    5.000    0.000    7.167    0.000    0.000 
#    0.000    0.000    0.000    0.000    0.000    0.000 
#
# Total GULP energy -1786030.133397 kJ/mol
# GULP energy per Si atom -12402.987037 kJ/mol
# Density = 1.903688 g / cm^3
# Si number density = 19.080311 Si / 1000 Ang^3
#
#
#
# Elastic Constant Matrix: (Units=GPa)
#
#
# Indices 1 2 3 4 5 6 
#
# 1 128.8802 42.8163 29.0857 0.0000 0.0000 0.0000
# 2 42.8163 128.8802 29.0857 0.0000 0.0000 0.0000
# 3 29.0857 29.0857 63.0406 0.0000 0.0000 0.0000
# 4 0.0000 0.0000 0.0000 28.3884 0.0000 0.0000
# 5 0.0000 0.0000 0.0000 0.0000 28.3884 0.0000
# 6 0.0000 0.0000 0.0000 0.0000 0.0000 43.0320
#
#
#
# Elastic Compliance Matrix: (Units=1/GPa)
#
#
# Indices 1 2 3 4 5 6 
#
# 1 0.009261 -0.002358 -0.003185 0.000000 0.000000 0.000000
# 2 -0.002358 0.009261 -0.003185 0.000000 0.000000 0.000000
# 3 -0.003185 -0.003185 0.018802 0.000000 0.000000 0.000000
# 4 0.000000 0.000000 0.000000 0.035226 0.000000 0.000000
# 5 0.000000 0.000000 0.000000 0.000000 0.035226 0.000000
# 6 0.000000 0.000000 0.000000 0.000000 0.000000 0.023239
#
#
# Mechanical properties :
#
#
# Convention : Reuss Voigt Hill
#
# Bulk Modulus (GPa) = 50.33152 58.08626 54.20889
# Shear Modulus (GPa) = 32.23868 34.61599 33.42733
#
# Velocity S-wave (km/s) = 4.11497 4.26399 4.19014
# Velocity P-wave (km/s) = 7.00095 7.39941 7.20294
#
# Compressibility (1/GPa) = 0.01986827
#
# Stress axis : x y z
#
# Youngs Moduli (GPa) = 107.97610 107.97610 53.18622
#
# Poissons Ratio (x) = 0.25460 0.16940
# Poissons Ratio (y) = 0.25460 0.16940
# Poissons Ratio (z) = 0.34391 0.34391
#
# Static dielectric constant tensor:
#      x y z
#    x 3.772610 0.000000 0.000000 
#    y 0.000000 3.772610 0.000000 
#    z 0.000000 0.000000 3.412470 
# 
# 
# High freq. dielectric constant tensor:
#      x y z
#    x 1.748060 0.000000 0.000000 
#    y 0.000000 1.748060 0.000000 
#    z 0.000000 0.000000 1.736020 
# 
# From -- ./inp_files/2147.got.cif
#   From: 2010.03.12/outbox.cif.g09.slc.cpg/sg194_2_cif.got.tgz:2147.got - 2010.04.01 12:26:19.
