data_PCOD8330162
_publ_section_title
;
Structure prediction by ZEFSAII (Michael W. Deem and Ramdas Pophale) SiO2 
 PCOD8330162
Probable space group: P 63/M C M
;
_chemical_formula_sum "Si O2"
_cell_formula_units_Z 168
_cell_length_a 19.649020
_cell_length_b 19.649020
_cell_length_c 24.872122
_cell_angle_alpha 90.000000
_cell_angle_beta 90.000000
_cell_angle_gamma 120.000000
_cell_volume 8316.206416
_symmetry_space_group_name_H-M "P 63/M C M"
_symmetry_group_IT_number 193
_symmetry_cell_setting 'hexagonal'
loop_
_space_group_symop_operation_xyz
x,y,z
x-y,x,1/2+z
-y,x-y,z
-x,-y,1/2+z
-x+y,-x,z
y,-x+y,1/2+z
x-y,-y,1/2-z
-x,-x+y,1/2-z
y,x,1/2-z
-y,-x,-z
-x+y,y,-z
x,x-y,-z
-x,-y,-z
-x+y,-x,1/2-z
y,-x+y,-z
x,y,1/2-z
x-y,x,-z
-y,x-y,1/2-z
-x+y,y,1/2+z
x,x-y,1/2+z
-y,-x,1/2+z
y,x,z
x-y,-y,z
-x,-x+y,z
loop_
_atom_site_type_symbol
_atom_site_label
_atom_site_fract_x
_atom_site_fract_y
_atom_site_fract_z
Si Si1 0.693209 0.914703 0.481890
Si Si2 0.677028 0.911138 0.144134
Si Si3 0.780418 0.514665 0.310500
Si Si4 0.909368 0.451140 0.921291
Si Si5 0.911084 0.822589 0.313662
Si Si6 0.442501 0.601049 0.311429
Si Si7 0.481359 0.316616 0.498877
O O1 0.737910 0.868955 0.500000
O O2 0.685030 0.915828 0.418899
O O3 0.609960 0.874624 0.511567
O O4 0.743730 0.000000 0.506590
O O5 0.586457 0.848963 0.156523
O O6 0.733337 0.880065 0.167423
O O7 0.704459 0.000000 0.166308
O O8 0.794246 0.545836 0.250000
O O9 0.692369 0.489975 0.328499
O O10 0.783812 0.434712 0.315002
O O11 0.907530 0.461985 0.856887
O O12 0.866758 0.360136 0.940979
O O13 0.000000 0.494693 0.939487
O O14 0.861002 0.484478 0.952097
O O15 0.909976 0.823544 0.250000
O O16 0.855127 0.855127 0.336240
O O17 0.000000 0.878676 0.335047
O O18 0.465042 0.589184 0.250000
O O19 0.519716 0.259858 0.500000
#
# Coordination Sequence:
#
# PCOD8330162 Si02
#       7
#    24  24  24  24  24  24  24
#     4  10  21  36  57  81 112 148 194 239 285 352
#     4  10  21  36  58  87 115 151 202 255 299 348
#     4  10  21  39  59  85 119 155 198 248 295 352
#     4  11  23  40  63  90 129 161 195 254 320 374
#     4   9  17  31  53  83 117 151 187 231 290 358
#     4  10  23  39  61  89 121 162 208 250 304 374
#     4  10  22  40  61  90 117 153 202 251 307 360
#
# _framework density 20.201518
#
# number of rings (size 3 to 8) (size 9 to 14) (size 15 to 20)
#    0.000    2.000    0.000    3.429    6.000    5.143 
#    3.429    2.143    0.000    1.000    0.000    0.000 
#    0.000    0.000    0.000    0.000    0.000    0.000 
#
# Total GULP energy -2082023.367397 kJ/mol
# GULP energy per Si atom -12392.996235 kJ/mol
# Density = 2.015554 g / cm^3
# Si number density = 20.201518 Si / 1000 Ang^3
#
#
#
# Elastic Constant Matrix: (Units=GPa)
#
#
# Indices 1 2 3 4 5 6 
#
# 1 115.9313 62.9041 24.1236 0.0000 0.0000 0.0000
# 2 62.9041 115.9313 24.1236 0.0000 0.0000 0.0000
# 3 24.1236 24.1236 69.8459 0.0000 0.0000 0.0000
# 4 0.0000 0.0000 0.0000 25.5101 0.0000 0.0000
# 5 0.0000 0.0000 0.0000 0.0000 25.5101 0.0000
# 6 0.0000 0.0000 0.0000 0.0000 0.0000 26.5136
#
#
#
# Elastic Compliance Matrix: (Units=1/GPa)
#
#
# Indices 1 2 3 4 5 6 
#
# 1 0.012512 -0.006346 -0.002130 0.000000 0.000000 0.000000
# 2 -0.006346 0.012512 -0.002130 0.000000 0.000000 0.000000
# 3 -0.002130 -0.002130 0.015788 0.000000 0.000000 0.000000
# 4 0.000000 0.000000 0.000000 0.039200 0.000000 0.000000
# 5 0.000000 0.000000 0.000000 0.000000 0.039200 0.000000
# 6 0.000000 0.000000 0.000000 0.000000 0.000000 0.037717
#
#
# Mechanical properties :
#
#
# Convention : Reuss Voigt Hill
#
# Bulk Modulus (GPa) = 51.01508 58.22343 54.61926
# Shear Modulus (GPa) = 27.07463 28.21057 27.64260
#
# Velocity S-wave (km/s) = 3.66488 3.74097 3.70312
# Velocity P-wave (km/s) = 6.57392 6.89520 6.73647
#
# Compressibility (1/GPa) = 0.01960205
#
# Stress axis : x y z
#
# Youngs Moduli (GPa) = 79.92148 79.92148 63.33776
#
# Poissons Ratio (x) = 0.50718 0.13489
# Poissons Ratio (y) = 0.50718 0.13489
# Poissons Ratio (z) = 0.17021 0.17021
#
# Static dielectric constant tensor:
#      x y z
#    x 3.960630 0.000000 0.000000 
#    y 0.000000 3.960630 0.000000 
#    z 0.000000 0.000000 3.588260 
# 
# 
# High freq. dielectric constant tensor:
#      x y z
#    x 1.785870 0.000000 0.000000 
#    y 0.000000 1.785870 0.000000 
#    z 0.000000 0.000000 1.784890 
# 
# From -- ./inp_files/7729.got.cif
#   From: 2010.03.12/outbox.cif.g09.slc.cpg/sg193_4_cif.got.tgz:7729.got - 2010.04.01 12:20:39.
