data_PCOD8330288
_publ_section_title
;
Structure prediction by ZEFSAII (Michael W. Deem and Ramdas Pophale) SiO2 
 PCOD8330288
Probable space group: P 63/M M C
;
_chemical_formula_sum "Si O2"
_cell_formula_units_Z 144
_cell_length_a 21.418485
_cell_length_b 21.418485
_cell_length_c 26.266360
_cell_angle_alpha 90.000000
_cell_angle_beta 90.000000
_cell_angle_gamma 120.000000
_cell_volume 10435.374057
_symmetry_space_group_name_H-M "P 63/M M C"
_symmetry_group_IT_number 194
_symmetry_cell_setting 'hexagonal'
loop_
_space_group_symop_operation_xyz
x,y,z
x-y,x,1/2+z
-y,x-y,z
-x,-y,1/2+z
-x+y,-x,z
y,-x+y,1/2+z
x-y,-y,-z
-x,-x+y,-z
y,x,-z
-y,-x,1/2-z
-x+y,y,1/2-z
x,x-y,1/2-z
-x,-y,-z
-x+y,-x,1/2-z
y,-x+y,-z
x,y,1/2-z
x-y,x,-z
-y,x-y,1/2-z
-x+y,y,z
x,x-y,z
-y,-x,z
y,x,1/2+z
x-y,-y,1/2+z
-x,-x+y,1/2+z
loop_
_atom_site_type_symbol
_atom_site_label
_atom_site_fract_x
_atom_site_fract_y
_atom_site_fract_z
Si Si1 0.916369 0.224790 0.107650
Si Si2 0.000000 0.139494 0.500000
Si Si3 0.263829 0.199810 0.581682
Si Si4 0.665075 0.187233 0.459360
Si Si5 0.335396 0.524641 0.750000
Si Si6 0.080775 0.372324 0.999428
Si Si7 0.303288 0.842481 0.853066
O O1 0.860055 0.139946 0.117758
O O2 0.908145 0.240332 0.048642
O O3 0.898056 0.273834 0.143811
O O4 0.999461 0.248631 0.120917
O O5 0.972643 0.168563 0.545011
O O6 0.064132 0.128264 0.521218
O O7 0.266956 0.133478 0.609393
O O8 0.338167 0.245431 0.550540
O O9 0.594245 0.188489 0.477855
O O10 0.732038 0.267963 0.459792
O O11 0.680670 0.137993 0.498089
O O12 0.650121 0.151610 0.402961
O O13 0.390375 0.609626 0.750000
O O14 0.254984 0.509968 0.750000
O O15 0.348659 0.489796 0.699195
O O16 0.000000 0.360126 0.000000
O O17 0.238614 0.761387 0.852052
#
# Coordination Sequence:
#
# PCOD8330288 Si02
#       7
#    24  12  24  24  12  24  24
#     4   9  14  24  37  50  69  93 120 150 179 208
#     4  10  17  22  30  48  73  98 120 146 182 224
#     4  10  16  22  35  52  68  93 125 154 183 215
#     4  10  18  27  37  50  69  93 119 147 180 214
#     4  10  17  26  38  56  77  94 112 136 172 216
#     4   9  16  25  37  50  66  89 121 156 183 207
#     4   8  16  26  38  52  68  91 117 142 167 203
#
# _framework density 13.799217000000001
#
# number of rings (size 3 to 8) (size 9 to 14) (size 15 to 20)
#    0.000    2.667    2.500    3.833    0.000    0.333 
#    0.000    1.667    0.000    0.333    0.000    0.583 
#    0.000    0.000    0.000    0.000    0.000    0.333 
#
# Total GULP energy -1784405.923484 kJ/mol
# GULP energy per Si atom -12391.707802 kJ/mol
# Density = 1.376781 g / cm^3
# Si number density = 13.799217 Si / 1000 Ang^3
#
#
#
# Elastic Constant Matrix: (Units=GPa)
#
#
# Indices 1 2 3 4 5 6 
#
# 1 85.1107 39.6629 16.2061 0.0000 0.0000 0.0000
# 2 39.6629 85.1107 16.2061 0.0000 0.0000 0.0000
# 3 16.2061 16.2061 28.2020 0.0000 0.0000 0.0000
# 4 0.0000 0.0000 0.0000 10.2369 0.0000 0.0000
# 5 0.0000 0.0000 0.0000 0.0000 10.2369 0.0000
# 6 0.0000 0.0000 0.0000 0.0000 0.0000 22.7239
#
#
#
# Elastic Compliance Matrix: (Units=1/GPa)
#
#
# Indices 1 2 3 4 5 6 
#
# 1 0.015712 -0.006291 -0.005414 0.000000 0.000000 0.000000
# 2 -0.006291 0.015712 -0.005414 0.000000 0.000000 0.000000
# 3 -0.005414 -0.005414 0.041680 0.000000 0.000000 0.000000
# 4 0.000000 0.000000 0.000000 0.097685 0.000000 0.000000
# 5 0.000000 0.000000 0.000000 0.000000 0.097685 0.000000
# 6 0.000000 0.000000 0.000000 0.000000 0.000000 0.044007
#
#
# Mechanical properties :
#
#
# Convention : Reuss Voigt Hill
#
# Bulk Modulus (GPa) = 25.72850 38.06374 31.89612
# Shear Modulus (GPa) = 13.90147 17.06277 15.48212
#
# Velocity S-wave (km/s) = 3.17742 3.52021 3.35320
# Velocity P-wave (km/s) = 5.66980 6.64578 6.17710
#
# Compressibility (1/GPa) = 0.03886741
#
# Stress axis : x y z
#
# Youngs Moduli (GPa) = 63.64546 63.64546 23.99222
#
# Poissons Ratio (x) = 0.40041 0.12988
# Poissons Ratio (y) = 0.40041 0.12988
# Poissons Ratio (z) = 0.34455 0.34455
#
# Static dielectric constant tensor:
#      x y z
#    x 2.902620 0.000000 0.000000 
#    y 0.000000 2.902620 0.000000 
#    z 0.000000 0.000000 2.513660 
# 
# 
# High freq. dielectric constant tensor:
#      x y z
#    x 1.523450 0.000000 0.000000 
#    y 0.000000 1.523450 0.000000 
#    z 0.000000 0.000000 1.466820 
# 
# From -- ./inp_files/11039.got.cif
#   From: 2010.03.12/outbox.cif.g09.slc.cpg/sg194_6_cif.got.tgz:11039.got - 2010.04.01 12:26:19.
