data_PCOD8330666
_publ_section_title
;
Structure prediction by ZEFSAII (Michael W. Deem and Ramdas Pophale) SiO2 
 PCOD8330666
Probable space group: P 63/M M C
;
_chemical_formula_sum "Si O2"
_cell_formula_units_Z 108
_cell_length_a 16.964545
_cell_length_b 16.964545
_cell_length_c 25.425851
_cell_angle_alpha 90.000000
_cell_angle_beta 90.000000
_cell_angle_gamma 120.000000
_cell_volume 6337.100016
_symmetry_space_group_name_H-M "P 63/M M C"
_symmetry_group_IT_number 194
_symmetry_cell_setting 'hexagonal'
loop_
_space_group_symop_operation_xyz
x,y,z
x-y,x,1/2+z
-y,x-y,z
-x,-y,1/2+z
-x+y,-x,z
y,-x+y,1/2+z
x-y,-y,-z
-x,-x+y,-z
y,x,-z
-y,-x,1/2-z
-x+y,y,1/2-z
x,x-y,1/2-z
-x,-y,-z
-x+y,-x,1/2-z
y,-x+y,-z
x,y,1/2-z
x-y,x,-z
-y,x-y,1/2-z
-x+y,y,z
x,x-y,z
-y,-x,z
y,x,1/2+z
x-y,-y,1/2+z
-x,-x+y,1/2+z
loop_
_atom_site_type_symbol
_atom_site_label
_atom_site_fract_x
_atom_site_fract_y
_atom_site_fract_z
Si Si1 0.000388 0.824899 0.557984
Si Si2 0.397044 0.421380 0.583492
Si Si3 0.933767 0.243288 0.152399
Si Si4 0.812733 0.999486 0.750000
Si Si5 0.852633 0.334267 0.515473
O O1 0.901136 0.802271 0.576456
O O2 0.000000 0.785553 0.500000
O O3 0.038284 0.780371 0.597361
O O4 0.065977 0.934024 0.556742
O O5 0.490276 0.509725 0.597840
O O6 0.344059 0.391627 0.639792
O O7 0.340297 0.445301 0.542000
O O8 0.419317 0.346124 0.559488
O O9 0.827947 0.172054 0.165551
O O10 0.996060 0.241403 0.199235
O O11 0.834202 0.917101 0.750000
O O12 0.907439 0.092562 0.750000
O O13 0.827246 0.413623 0.521629
O O14 0.763413 0.236587 0.523255
#
# Coordination Sequence:
#
# PCOD8330666 Si02
#       5
#    24  24  24  12  24
#     4   9  17  27  41  64  95 129 161 192 229 277
#     4   9  19  33  47  69  97 125 158 200 250 293
#     4  10  20  33  49  70  95 126 166 205 241 284
#     4  10  21  36  53  74 102 136 170 200 229 268
#     4   9  17  29  47  70  98 130 161 193 235 292
#
# _framework density 17.042496
#
# number of rings (size 3 to 8) (size 9 to 14) (size 15 to 20)
#    0.000    2.667    0.000    3.222    3.111    2.667 
#    0.000    2.778    0.000    0.444    0.000    0.000 
#    0.000    0.000    0.000    0.000    0.000    0.000 
#
# Total GULP energy -1338680.539493 kJ/mol
# GULP energy per Si atom -12395.190180 kJ/mol
# Density = 1.700371 g / cm^3
# Si number density = 17.042496 Si / 1000 Ang^3
#
#
#
# Elastic Constant Matrix: (Units=GPa)
#
#
# Indices 1 2 3 4 5 6 
#
# 1 86.5850 43.2977 35.7981 0.0000 0.0000 0.0000
# 2 43.2977 86.5850 35.7981 0.0000 0.0000 0.0000
# 3 35.7981 35.7981 86.0148 0.0000 0.0000 0.0000
# 4 0.0000 0.0000 0.0000 25.3446 0.0000 0.0000
# 5 0.0000 0.0000 0.0000 0.0000 25.3446 0.0000
# 6 0.0000 0.0000 0.0000 0.0000 0.0000 21.6436
#
#
#
# Elastic Compliance Matrix: (Units=1/GPa)
#
#
# Indices 1 2 3 4 5 6 
#
# 1 0.016546 -0.006555 -0.004158 0.000000 0.000000 0.000000
# 2 -0.006555 0.016546 -0.004158 0.000000 0.000000 0.000000
# 3 -0.004158 -0.004158 0.015087 0.000000 0.000000 0.000000
# 4 0.000000 0.000000 0.000000 0.039456 0.000000 0.000000
# 5 0.000000 0.000000 0.000000 0.000000 0.039456 0.000000
# 6 0.000000 0.000000 0.000000 0.000000 0.000000 0.046203
#
#
# Mechanical properties :
#
#
# Convention : Reuss Voigt Hill
#
# Bulk Modulus (GPa) = 54.23912 54.33029 54.28471
# Shear Modulus (GPa) = 23.90237 24.08595 23.99416
#
# Velocity S-wave (km/s) = 3.74908 3.76345 3.75627
# Velocity P-wave (km/s) = 7.11588 7.12974 7.12281
#
# Compressibility (1/GPa) = 0.01843688
#
# Stress axis : x y z
#
# Youngs Moduli (GPa) = 60.43586 60.43586 66.28160
#
# Poissons Ratio (x) = 0.39616 0.27562
# Poissons Ratio (y) = 0.39616 0.27562
# Poissons Ratio (z) = 0.25131 0.25131
#
# Static dielectric constant tensor:
#      x y z
#    x 3.205940 0.000000 0.000000 
#    y 0.000000 3.205940 0.000000 
#    z 0.000000 0.000000 3.068580 
# 
# 
# High freq. dielectric constant tensor:
#      x y z
#    x 1.654090 0.000000 0.000000 
#    y 0.000000 1.654090 0.000000 
#    z 0.000000 0.000000 1.631560 
# 
# From -- ./inp_files/9287.got.cif
#   From: 2010.03.12/outbox.cif.g09.slc.cpg/sg194_5_cif.got.tgz:9287.got - 2010.04.01 12:26:19.
