data_PCOD8330496
_publ_section_title
;
Structure prediction by ZEFSAII (Michael W. Deem and Ramdas Pophale) SiO2 
 PCOD8330496
Probable space group: P 63/M M C
;
_chemical_formula_sum "Si O2"
_cell_formula_units_Z 192
_cell_length_a 23.165360
_cell_length_b 23.165360
_cell_length_c 24.246907
_cell_angle_alpha 90.000000
_cell_angle_beta 90.000000
_cell_angle_gamma 120.000000
_cell_volume 11268.473452
_symmetry_space_group_name_H-M "P 63/M M C"
_symmetry_group_IT_number 194
_symmetry_cell_setting 'hexagonal'
loop_
_space_group_symop_operation_xyz
x,y,z
x-y,x,1/2+z
-y,x-y,z
-x,-y,1/2+z
-x+y,-x,z
y,-x+y,1/2+z
x-y,-y,-z
-x,-x+y,-z
y,x,-z
-y,-x,1/2-z
-x+y,y,1/2-z
x,x-y,1/2-z
-x,-y,-z
-x+y,-x,1/2-z
y,-x+y,-z
x,y,1/2-z
x-y,x,-z
-y,x-y,1/2-z
-x+y,y,z
x,x-y,z
-y,-x,z
y,x,1/2+z
x-y,-y,1/2+z
-x,-x+y,1/2+z
loop_
_atom_site_type_symbol
_atom_site_label
_atom_site_fract_x
_atom_site_fract_y
_atom_site_fract_z
Si Si1 0.503972 0.878828 0.608824
Si Si2 0.867483 0.602796 0.687408
Si Si3 0.640444 0.493749 0.890172
Si Si4 0.132899 0.999981 0.184347
Si Si5 0.667616 0.206319 0.493499
Si Si6 0.265159 0.869426 0.686409
Si Si7 0.733779 0.997847 0.184415
Si Si8 0.014753 0.441686 0.441418
O O1 0.428376 0.856751 0.628319
O O2 0.504780 0.856753 0.545536
O O3 0.538071 0.852951 0.652075
O O4 0.547723 0.957911 0.604607
O O5 0.881565 0.591062 0.750000
O O6 0.812555 0.625109 0.683651
O O7 0.837470 0.529970 0.658905
O O8 0.934598 0.665312 0.662071
O O9 0.572590 0.427411 0.869547
O O10 0.672181 0.476314 0.941621
O O11 0.631832 0.554652 0.911418
O O12 0.133843 0.000550 0.250000
O O13 0.134272 0.067136 0.162755
O O14 0.197967 0.997767 0.161685
O O15 0.065515 0.934486 0.163073
O O16 0.616135 0.232270 0.484371
O O17 0.738499 0.261502 0.471413
O O18 0.287945 0.877796 0.750000
O O19 0.190808 0.809192 0.678716
O O20 0.265730 0.935359 0.664341
O O21 0.735680 0.995684 0.250000
O O22 0.035690 0.517845 0.455817
O O23 0.000000 0.402858 0.500000
#
# Coordination Sequence:
#
# PCOD8330496 Si02
#       8
#    24  24  24  24  24  24  24  24
#     4  10  19  31  49  70  92 119 153 192 237 290
#     4  10  20  33  48  68  96 128 163 202 240 284
#     4  10  19  31  49  70  92 119 153 192 237 290
#     4   9  15  23  38  62  91 122 157 196 235 275
#     4  10  19  31  47  67  89 113 144 185 231 279
#     4  10  20  33  48  68  96 128 163 202 240 284
#     4   9  17  30  46  63  87 124 165 199 236 280
#     4   9  15  28  47  69  93 116 144 181 233 287
#
# _framework density 17.038688
#
# number of rings (size 3 to 8) (size 9 to 14) (size 15 to 20)
#    0.000    2.375    1.250    2.500    0.000    4.000 
#    0.000    0.000    0.000    5.000    0.000    0.000 
#    0.000    0.000    0.000    0.000    0.000    0.375 
#
# Total GULP energy -2379147.169964 kJ/mol
# GULP energy per Si atom -12391.391510 kJ/mol
# Density = 1.699991 g / cm^3
# Si number density = 17.038688 Si / 1000 Ang^3
#
#
#
# Elastic Constant Matrix: (Units=GPa)
#
#
# Indices 1 2 3 4 5 6 
#
# 1 94.2399 35.8083 25.4874 0.0000 0.0000 0.0000
# 2 35.8083 94.2399 25.4874 0.0000 0.0000 0.0000
# 3 25.4874 25.4874 45.7432 0.0000 0.0000 0.0000
# 4 0.0000 0.0000 0.0000 14.7151 0.0000 0.0000
# 5 0.0000 0.0000 0.0000 0.0000 14.7151 0.0000
# 6 0.0000 0.0000 0.0000 0.0000 0.0000 29.2158
#
#
#
# Elastic Compliance Matrix: (Units=1/GPa)
#
#
# Indices 1 2 3 4 5 6 
#
# 1 0.013476 -0.003638 -0.005482 0.000000 0.000000 0.000000
# 2 -0.003638 0.013476 -0.005482 0.000000 0.000000 0.000000
# 3 -0.005482 -0.005482 0.027970 0.000000 0.000000 0.000000
# 4 0.000000 0.000000 0.000000 0.067957 0.000000 0.000000
# 5 0.000000 0.000000 0.000000 0.000000 0.067957 0.000000
# 6 0.000000 0.000000 0.000000 0.000000 0.000000 0.034228
#
#
# Mechanical properties :
#
#
# Convention : Reuss Voigt Hill
#
# Bulk Modulus (GPa) = 38.88120 45.30993 42.09557
# Shear Modulus (GPa) = 19.02298 21.55853 20.29076
#
# Velocity S-wave (km/s) = 3.34497 3.56092 3.45463
# Velocity P-wave (km/s) = 6.14714 6.59977 6.37747
#
# Compressibility (1/GPa) = 0.02571937
#
# Stress axis : x y z
#
# Youngs Moduli (GPa) = 74.20563 74.20563 35.75293
#
# Poissons Ratio (x) = 0.26996 0.19598
# Poissons Ratio (y) = 0.26996 0.19598
# Poissons Ratio (z) = 0.40677 0.40677
#
# Static dielectric constant tensor:
#      x y z
#    x 3.208640 0.000000 0.000000 
#    y 0.000000 3.208640 0.000000 
#    z 0.000000 0.000000 2.983960 
# 
# 
# High freq. dielectric constant tensor:
#      x y z
#    x 1.659750 0.000000 0.000000 
#    y 0.000000 1.659750 0.000000 
#    z 0.000000 0.000000 1.612710 
# 
# From -- ./inp_files/8718.got.cif
#   From: 2010.03.12/outbox.cif.g09.slc.cpg/sg194_5_cif.got.tgz:8718.got - 2010.04.01 12:26:19.
