data_PCOD8330566
_publ_section_title
;
Structure prediction by ZEFSAII (Michael W. Deem and Ramdas Pophale) SiO2 
 PCOD8330566
Probable space group: P 63/M M C
;
_chemical_formula_sum "Si O2"
_cell_formula_units_Z 156
_cell_length_a 22.199815
_cell_length_b 22.199815
_cell_length_c 21.289658
_cell_angle_alpha 90.000000
_cell_angle_beta 90.000000
_cell_angle_gamma 120.000000
_cell_volume 9086.529215
_symmetry_space_group_name_H-M "P 63/M M C"
_symmetry_group_IT_number 194
_symmetry_cell_setting 'hexagonal'
loop_
_space_group_symop_operation_xyz
x,y,z
x-y,x,1/2+z
-y,x-y,z
-x,-y,1/2+z
-x+y,-x,z
y,-x+y,1/2+z
x-y,-y,-z
-x,-x+y,-z
y,x,-z
-y,-x,1/2-z
-x+y,y,1/2-z
x,x-y,1/2-z
-x,-y,-z
-x+y,-x,1/2-z
y,-x+y,-z
x,y,1/2-z
x-y,x,-z
-y,x-y,1/2-z
-x+y,y,z
x,x-y,z
-y,-x,z
y,x,1/2+z
x-y,-y,1/2+z
-x,-x+y,1/2+z
loop_
_atom_site_type_symbol
_atom_site_label
_atom_site_fract_x
_atom_site_fract_y
_atom_site_fract_z
Si Si1 0.472980 0.082140 0.003106
Si Si2 0.614851 0.521543 0.637408
Si Si3 0.666733 0.191149 0.750000
Si Si4 0.220214 0.179278 0.438120
Si Si5 0.243125 0.052333 0.820381
Si Si6 0.336177 0.348368 0.679916
Si Si7 0.118766 0.377431 0.918230
O O1 0.547950 0.095899 0.028957
O O2 0.440422 0.118111 0.045556
O O3 0.484743 0.118265 0.934500
O O4 0.419917 0.000000 0.000000
O O5 0.537892 0.462109 0.654805
O O6 0.667379 0.517480 0.687419
O O7 0.612917 0.592485 0.642029
O O8 0.735557 0.264444 0.750000
O O9 0.602139 0.204277 0.750000
O O10 0.180319 0.180319 0.500000
O O11 0.205205 0.102603 0.427098
O O12 0.187460 0.192664 0.375739
O O13 0.302391 0.232056 0.450845
O O14 0.209280 0.028712 0.750000
O O15 0.265054 0.132527 0.832462
O O16 0.311093 0.044555 0.823487
O O17 0.349073 0.376562 0.750000
O O18 0.282119 0.369066 0.651161
O O19 0.198086 0.396171 0.912473
#
# Coordination Sequence:
#
# PCOD8330566 Si02
#       7
#    24  24  12  24  24  24  24
#     4  10  19  33  55  77 103 138 175 216 261 306
#     4  10  20  33  51  77 105 137 177 218 258 306
#     4  10  21  36  52  74 107 146 184 218 258 308
#     4  10  20  33  51  75 102 133 166 207 258 309
#     4   9  19  34  51  72  99 132 170 210 254 304
#     4  10  19  32  51  74 103 135 166 212 260 307
#     4  10  21  34  51  77 106 135 170 211 261 316
#
# _framework density 17.168272000000002
#
# number of rings (size 3 to 8) (size 9 to 14) (size 15 to 20)
#    0.000    2.154    2.308    1.000    2.154    1.846 
#    0.000    3.077    0.000    3.077    0.000    0.000 
#    0.000    0.000    0.000    0.000    0.000    0.000 
#
# Total GULP energy -1933629.108581 kJ/mol
# GULP energy per Si atom -12395.058388 kJ/mol
# Density = 1.712920 g / cm^3
# Si number density = 17.168272 Si / 1000 Ang^3
#
#
#
# Elastic Constant Matrix: (Units=GPa)
#
#
# Indices 1 2 3 4 5 6 
#
# 1 88.5793 45.2790 42.9657 0.0000 0.0000 0.0000
# 2 45.2790 88.5793 42.9657 0.0000 0.0000 0.0000
# 3 42.9657 42.9657 99.2685 0.0000 0.0000 0.0000
# 4 0.0000 0.0000 0.0000 23.4929 0.0000 0.0000
# 5 0.0000 0.0000 0.0000 0.0000 23.4929 0.0000
# 6 0.0000 0.0000 0.0000 0.0000 0.0000 21.6502
#
#
#
# Elastic Compliance Matrix: (Units=1/GPa)
#
#
# Indices 1 2 3 4 5 6 
#
# 1 0.016720 -0.006375 -0.004478 0.000000 0.000000 0.000000
# 2 -0.006375 0.016720 -0.004478 0.000000 0.000000 0.000000
# 3 -0.004478 -0.004478 0.013950 0.000000 0.000000 0.000000
# 4 0.000000 0.000000 0.000000 0.042566 0.000000 0.000000
# 5 0.000000 0.000000 0.000000 0.000000 0.042566 0.000000
# 6 0.000000 0.000000 0.000000 0.000000 0.000000 0.046189
#
#
# Mechanical properties :
#
#
# Convention : Reuss Voigt Hill
#
# Bulk Modulus (GPa) = 59.77486 59.87198 59.82342
# Shear Modulus (GPa) = 23.26161 23.40832 23.33496
#
# Velocity S-wave (km/s) = 3.68492 3.69652 3.69072
# Velocity P-wave (km/s) = 7.27993 7.29166 7.28580
#
# Compressibility (1/GPa) = 0.01672944
#
# Stress axis : x y z
#
# Youngs Moduli (GPa) = 59.80952 59.80952 71.68637
#
# Poissons Ratio (x) = 0.38127 0.32098
# Poissons Ratio (y) = 0.38127 0.32098
# Poissons Ratio (z) = 0.26780 0.26780
#
# Static dielectric constant tensor:
#      x y z
#    x 3.097150 0.000000 0.000000 
#    y 0.000000 3.097150 0.000000 
#    z 0.000000 0.000000 3.464020 
# 
# 
# High freq. dielectric constant tensor:
#      x y z
#    x 1.647840 0.000000 0.000000 
#    y 0.000000 1.647840 0.000000 
#    z 0.000000 0.000000 1.674280 
# 
# From -- ./inp_files/8363.got.cif
#   From: 2010.03.12/outbox.cif.g09.slc.cpg/sg194_5_cif.got.tgz:8363.got - 2010.04.01 12:26:19.
