data_PCOD8330404
_publ_section_title
;
Structure prediction by ZEFSAII (Michael W. Deem and Ramdas Pophale) SiO2 
 PCOD8330404
Probable space group: P 63/M M C
;
_chemical_formula_sum "Si O2"
_cell_formula_units_Z 132
_cell_length_a 17.292139
_cell_length_b 17.292139
_cell_length_c 27.841434
_cell_angle_alpha 90.000000
_cell_angle_beta 90.000000
_cell_angle_gamma 120.000000
_cell_volume 7209.741069
_symmetry_space_group_name_H-M "P 63/M M C"
_symmetry_group_IT_number 194
_symmetry_cell_setting 'hexagonal'
loop_
_space_group_symop_operation_xyz
x,y,z
x-y,x,1/2+z
-y,x-y,z
-x,-y,1/2+z
-x+y,-x,z
y,-x+y,1/2+z
x-y,-y,-z
-x,-x+y,-z
y,x,-z
-y,-x,1/2-z
-x+y,y,1/2-z
x,x-y,1/2-z
-x,-y,-z
-x+y,-x,1/2-z
y,-x+y,-z
x,y,1/2-z
x-y,x,-z
-y,x-y,1/2-z
-x+y,y,z
x,x-y,z
-y,-x,z
y,x,1/2+z
x-y,-y,1/2+z
-x,-x+y,1/2+z
loop_
_atom_site_type_symbol
_atom_site_label
_atom_site_fract_x
_atom_site_fract_y
_atom_site_fract_z
Si Si1 0.631078 0.899875 0.424057
Si Si2 0.533030 0.896367 0.511663
Si Si3 0.394538 0.969713 0.160735
Si Si4 0.827431 0.827821 0.556658
Si Si5 0.520103 0.853432 0.250000
Si Si6 0.667656 0.514733 0.119838
O O1 0.642762 0.821381 0.401056
O O2 0.577381 0.860148 0.473936
O O3 0.572832 0.922316 0.388859
O O4 0.730241 0.985702 0.430569
O O5 0.425978 0.851955 0.504152
O O6 0.551847 0.878131 0.565846
O O7 0.578733 0.000000 0.500000
O O8 0.483116 0.966232 0.165391
O O9 0.332662 0.913114 0.205212
O O10 0.421201 0.074123 0.157334
O O11 0.836281 0.836281 0.500000
O O12 0.809357 0.904679 0.577926
O O13 0.920494 0.840987 0.577878
O O14 0.419482 0.838964 0.250000
O O15 0.513034 0.756517 0.250000
O O16 0.758755 0.517510 0.134150
O O17 0.586412 0.413589 0.123692
#
# Coordination Sequence:
#
# PCOD8330404 Si02
#       6
#    24  24  24  24  12  24
#     4  11  20  30  47  74 103 134 175 218 260 311
#     4  10  18  31  48  69 102 142 183 220 261 309
#     4  10  21  37  56  78 105 138 170 211 271 323
#     4   9  18  30  44  64  95 134 175 216 258 302
#     4  10  21  40  65  88 108 132 168 210 259 320
#     4  10  20  34  54  78 107 146 188 226 261 309
#
# _framework density 18.308561999999998
#
# number of rings (size 3 to 8) (size 9 to 14) (size 15 to 20)
#    0.000    2.000    1.818    2.636    0.000    1.455 
#    0.000    0.455    0.000    5.091    0.000    1.273 
#    0.000    0.000    0.000    1.091    0.000    0.000 
#
# Total GULP energy -1635452.996436 kJ/mol
# GULP energy per Si atom -12389.795428 kJ/mol
# Density = 1.826689 g / cm^3
# Si number density = 18.308562 Si / 1000 Ang^3
#
#
#
# Elastic Constant Matrix: (Units=GPa)
#
#
# Indices 1 2 3 4 5 6 
#
# 1 76.5435 30.8314 36.1720 0.0000 0.0000 0.0000
# 2 30.8314 76.5435 36.1720 0.0000 0.0000 0.0000
# 3 36.1720 36.1720 76.2134 0.0000 0.0000 0.0000
# 4 0.0000 0.0000 0.0000-1408.7363 0.0007 0.0000
# 5 0.0000 0.0000 0.0000 0.0007-1408.7370 0.0000
# 6 0.0000 0.0000 0.0000 0.0000 0.0000 22.8561
#
#
#
# Elastic Compliance Matrix: (Units=1/GPa)
#
#
# Indices 1 2 3 4 5 6 
#
# 1 0.017784 -0.004092 -0.006498 0.000000 0.000000 0.000000
# 2 -0.004092 0.017784 -0.006498 0.000000 0.000000 0.000000
# 3 -0.006498 -0.006498 0.019289 0.000000 0.000000 0.000000
# 4 0.000000 0.000000 0.000000 -0.000710 0.000000 0.000000
# 5 0.000000 0.000000 0.000000 0.000000 -0.000710 0.000000
# 6 0.000000 0.000000 0.000000 0.000000 0.000000 0.043752
#
#
# Mechanical properties :
#
#
# Convention : Reuss Voigt Hill
#
# Bulk Modulus (GPa) = 48.35721 48.40568 48.38145
# Shear Modulus (GPa) = 36.16397 -550.51512 -257.17557
#
# Velocity S-wave (km/s) = 4.44920 -17.35915 -11.86475
# Velocity P-wave (km/s) = 7.27073 19.37242 12.69699
#
# Compressibility (1/GPa) = 0.02067944
#
# Stress axis : x y z
#
# Youngs Moduli (GPa) = 56.23141 56.23141 51.84239
#
# Poissons Ratio (x) = 0.23012 0.33688
# Poissons Ratio (y) = 0.23012 0.33688
# Poissons Ratio (z) = 0.36540 0.36540
#
# Static dielectric constant tensor:
#      x y z
#    x 3.536980 0.000000 0.000000 
#    y 0.000000 3.536980 0.000000 
#    z 0.000000 0.000000 3.275580 
# 
# 
# High freq. dielectric constant tensor:
#      x y z
#    x 1.713030 0.000000 0.000000 
#    y 0.000000 1.713030 0.000000 
#    z 0.000000 0.000000 1.664680 
# 
# From -- ./inp_files/9530.got.cif
#   From: 2010.03.12/outbox.cif.g09.slc.cpg/sg194_5_cif.got.tgz:9530.got - 2010.04.01 12:26:19.
