data_PCOD8330650
_publ_section_title
;
Structure prediction by ZEFSAII (Michael W. Deem and Ramdas Pophale) SiO2 
 PCOD8330650
Probable space group: P 63/M M C
;
_chemical_formula_sum "Si O2"
_cell_formula_units_Z 132
_cell_length_a 17.668309
_cell_length_b 17.668309
_cell_length_c 26.279045
_cell_angle_alpha 90.000000
_cell_angle_beta 90.000000
_cell_angle_gamma 120.000000
_cell_volume 7104.445423
_symmetry_space_group_name_H-M "P 63/M M C"
_symmetry_group_IT_number 194
_symmetry_cell_setting 'hexagonal'
loop_
_space_group_symop_operation_xyz
x,y,z
x-y,x,1/2+z
-y,x-y,z
-x,-y,1/2+z
-x+y,-x,z
y,-x+y,1/2+z
x-y,-y,-z
-x,-x+y,-z
y,x,-z
-y,-x,1/2-z
-x+y,y,1/2-z
x,x-y,1/2-z
-x,-y,-z
-x+y,-x,1/2-z
y,-x+y,-z
x,y,1/2-z
x-y,x,-z
-y,x-y,1/2-z
-x+y,y,z
x,x-y,z
-y,-x,z
y,x,1/2+z
x-y,-y,1/2+z
-x,-x+y,1/2+z
loop_
_atom_site_type_symbol
_atom_site_label
_atom_site_fract_x
_atom_site_fract_y
_atom_site_fract_z
Si Si1 0.500136 0.166966 0.928753
Si Si2 0.696788 0.936994 0.841843
Si Si3 0.666619 0.506331 0.190239
Si Si4 0.675781 0.998228 0.557855
Si Si5 0.497677 0.666292 0.952996
Si Si6 0.999829 0.818713 0.750000
O O1 0.574570 0.149139 0.904602
O O2 0.506173 0.253087 0.902906
O O3 0.402874 0.087602 0.922044
O O4 0.519348 0.185037 0.987860
O O5 0.696725 0.848363 0.835460
O O6 0.597090 0.916481 0.833703
O O7 0.726791 0.974630 0.899415
O O8 0.764799 0.001870 0.799679
O O9 0.667955 0.517797 0.250000
O O10 0.743817 0.487634 0.173532
O O11 0.573929 0.426072 0.171676
O O12 0.574019 0.927962 0.557963
O O13 0.711679 0.000000 0.500000
O O14 0.520234 0.760117 0.929379
O O15 0.410053 0.589948 0.926756
O O16 0.913209 0.826418 0.750000
O O17 0.083887 0.916114 0.750000
#
# Coordination Sequence:
#
# PCOD8330650 Si02
#       6
#    24  24  24  24  24  12
#     4   9  17  29  45  64  90 128 177 226 266 299
#     4  10  20  36  56  79 108 139 170 210 259 307
#     4   9  16  28  48  76 110 147 182 212 246 296
#     4  10  20  32  48  73 106 141 174 209 253 309
#     4   9  16  27  43  65  95 134 178 219 254 292
#     4  10  21  40  65  88 104 124 160 212 267 314
#
# _framework density 18.579916999999998
#
# number of rings (size 3 to 8) (size 9 to 14) (size 15 to 20)
#    0.000    2.545    0.909    1.727    0.000    7.273 
#    0.000    0.000    0.000    2.182    0.000    0.000 
#    0.000    3.636    0.000    0.727    0.000    0.727 
#
# Total GULP energy -1635372.608798 kJ/mol
# GULP energy per Si atom -12389.186430 kJ/mol
# Density = 1.853763 g / cm^3
# Si number density = 18.579917 Si / 1000 Ang^3
#
#
#
# Elastic Constant Matrix: (Units=GPa)
#
#
# Indices 1 2 3 4 5 6 
#
# 1 49.8798 49.5415 26.2839 0.0000 0.0000 0.0000
# 2 49.5415 49.8798 26.2839 0.0000 0.0000 0.0000
# 3 26.2839 26.2839 92.5475 0.0000 0.0000 0.0000
# 4 0.0000 0.0000 0.0000 0.1397 0.0000 0.0000
# 5 0.0000 0.0000 0.0000 0.0000 0.1397 0.0000
# 6 0.0000 0.0000 0.0000 0.0000 0.0000 0.1692
#
#
#
# Elastic Compliance Matrix: (Units=1/GPa)
#
#
# Indices 1 2 3 4 5 6 
#
# 1 1.483809 -1.471973 -0.003361 0.000000 0.000000 0.000000
# 2 -1.471973 1.483809 -0.003361 0.000000 0.000000 0.000000
# 3 -0.003361 -0.003361 0.012715 0.000000 0.000000 0.000000
# 4 0.000000 0.000000 0.000000 7.158533 0.000000 0.000000
# 5 0.000000 0.000000 0.000000 0.000000 7.158533 0.000000
# 6 0.000000 0.000000 0.000000 0.000000 0.000000 5.911565
#
#
# Mechanical properties :
#
#
# Convention : Reuss Voigt Hill
#
# Bulk Modulus (GPa) = 43.59170 44.05843 43.82507
# Shear Modulus (GPa) = 0.19103 6.10289 3.14696
#
# Velocity S-wave (km/s) = 0.32100 1.81433 1.30285
# Velocity P-wave (km/s) = 4.86313 5.30599 5.08938
#
# Compressibility (1/GPa) = 0.02294015
#
# Stress axis : x y z
#
# Youngs Moduli (GPa) = 0.67394 0.67394 78.65013
#
# Poissons Ratio (x) = 0.99202 0.26437
# Poissons Ratio (y) = 0.99202 0.26437
# Poissons Ratio (z) = 0.00227 0.00227
#
# Static dielectric constant tensor:
#      x y z
#    x 3.407470 0.000000 0.000000 
#    y 0.000000 3.407470 0.000000 
#    z 0.000000 0.000000 3.451990 
# 
# 
# High freq. dielectric constant tensor:
#      x y z
#    x 1.705600 0.000000 0.000000 
#    y 0.000000 1.705600 0.000000 
#    z 0.000000 0.000000 1.708600 
# 
# From -- ./inp_files/12073.got.cif
#   From: 2010.03.12/outbox.cif.g09.slc.cpg/sg194_7_cif.got.tgz:12073.got - 2010.04.01 12:26:19.
