data_PCOD8330817
_publ_section_title
;
Structure prediction by ZEFSAII (Michael W. Deem and Ramdas Pophale) SiO2 
 PCOD8330817
Probable space group: P 63/M M C
;
_chemical_formula_sum "Si O2"
_cell_formula_units_Z 156
_cell_length_a 21.076988
_cell_length_b 21.076988
_cell_length_c 20.637215
_cell_angle_alpha 90.000000
_cell_angle_beta 90.000000
_cell_angle_gamma 120.000000
_cell_volume 7939.603544
_symmetry_space_group_name_H-M "P 63/M M C"
_symmetry_group_IT_number 194
_symmetry_cell_setting 'hexagonal'
loop_
_space_group_symop_operation_xyz
x,y,z
x-y,x,1/2+z
-y,x-y,z
-x,-y,1/2+z
-x+y,-x,z
y,-x+y,1/2+z
x-y,-y,-z
-x,-x+y,-z
y,x,-z
-y,-x,1/2-z
-x+y,y,1/2-z
x,x-y,1/2-z
-x,-y,-z
-x+y,-x,1/2-z
y,-x+y,-z
x,y,1/2-z
x-y,x,-z
-y,x-y,1/2-z
-x+y,y,z
x,x-y,z
-y,-x,z
y,x,1/2+z
x-y,-y,1/2+z
-x,-x+y,1/2+z
loop_
_atom_site_type_symbol
_atom_site_label
_atom_site_fract_x
_atom_site_fract_y
_atom_site_fract_z
Si Si1 0.148338 0.000000 0.000000
Si Si2 0.299954 0.456193 0.250000
Si Si3 0.874665 0.270106 0.521691
Si Si4 0.892295 0.516747 0.617604
Si Si5 0.053604 0.796394 0.107718
Si Si6 0.543237 0.940250 0.916815
Si Si7 0.717338 0.929888 0.250000
Si Si8 0.523842 0.332247 0.324697
O O1 0.187119 0.995445 0.933676
O O2 0.139831 0.069916 0.998650
O O3 0.243365 0.486729 0.250000
O O4 0.354522 0.486658 0.309500
O O5 0.255086 0.369290 0.250000
O O6 0.806315 0.193686 0.494054
O O7 0.842997 0.305190 0.572736
O O8 0.932253 0.257615 0.563120
O O9 0.919492 0.333033 0.469056
O O10 0.874729 0.437365 0.595285
O O11 0.978555 0.575092 0.608863
O O12 0.129817 0.870184 0.116375
O O13 0.023860 0.767049 0.181505
O O14 0.466561 0.933122 0.943692
O O15 0.527599 0.885663 0.857728
O O16 0.749131 0.874566 0.250000
O O17 0.502304 0.322917 0.250000
O O18 0.510302 0.255151 0.353846
O O19 0.608982 0.391019 0.335188
#
# Coordination Sequence:
#
# PCOD8330817 Si02
#       8
#    12  12  24  24  24  24  12  24
#     4  10  21  38  60  90 125 160 194 232 284 350
#     4  11  21  37  61  86 111 148 196 242 294 349
#     4  11  21  36  58  82 110 148 193 242 295 349
#     4  11  23  37  57  84 116 153 194 240 295 356
#     4   9  19  33  56  85 111 146 191 237 285 341
#     4  10  22  36  54  81 115 151 190 238 294 356
#     4   9  16  33  56  84 112 140 186 240 286 333
#     4   9  17  31  52  77 108 148 195 241 287 344
#
# _framework density 19.648337000000001
#
# number of rings (size 3 to 8) (size 9 to 14) (size 15 to 20)
#    0.000    2.000    1.538    2.308    3.231    1.846 
#    0.000    0.385    0.000    8.308    0.000    1.077 
#    0.000    0.000    0.000    0.000    0.000    0.000 
#
# Total GULP energy -1932774.251228 kJ/mol
# GULP energy per Si atom -12389.578534 kJ/mol
# Density = 1.960362 g / cm^3
# Si number density = 19.648337 Si / 1000 Ang^3
#
#
#
# Elastic Constant Matrix: (Units=GPa)
#
#
# Indices 1 2 3 4 5 6 
#
# 1 71.6635 30.9569 37.0274 0.0000 0.0000 0.0000
# 2 30.9569 71.6635 37.0274 0.0000 0.0000 0.0000
# 3 37.0274 37.0274 102.1645 0.0000 0.0000 0.0000
# 4 0.0000 0.0000 0.0000 24.1816 0.0000 0.0000
# 5 0.0000 0.0000 0.0000 0.0000 24.1816 0.0000
# 6 0.0000 0.0000 0.0000 0.0000 0.0000 20.3533
#
#
#
# Elastic Compliance Matrix: (Units=1/GPa)
#
#
# Indices 1 2 3 4 5 6 
#
# 1 0.018881 -0.005685 -0.004783 0.000000 0.000000 0.000000
# 2 -0.005685 0.018881 -0.004783 0.000000 0.000000 0.000000
# 3 -0.004783 -0.004783 0.013255 0.000000 0.000000 0.000000
# 4 0.000000 0.000000 0.000000 0.041354 0.000000 0.000000
# 5 0.000000 0.000000 0.000000 0.000000 0.041354 0.000000
# 6 0.000000 0.000000 0.000000 0.000000 0.000000 0.049132
#
#
# Mechanical properties :
#
#
# Convention : Reuss Voigt Hill
#
# Bulk Modulus (GPa) = 48.74158 50.61276 49.67717
# Shear Modulus (GPa) = 22.70706 23.10861 22.90784
#
# Velocity S-wave (km/s) = 3.40321 3.43317 3.41822
# Velocity P-wave (km/s) = 6.34848 6.44444 6.39664
#
# Compressibility (1/GPa) = 0.02051636
#
# Stress axis : x y z
#
# Youngs Moduli (GPa) = 52.96325 52.96325 75.44402
#
# Poissons Ratio (x) = 0.30110 0.36082
# Poissons Ratio (y) = 0.30110 0.36082
# Poissons Ratio (z) = 0.25330 0.25330
#
# Static dielectric constant tensor:
#      x y z
#    x 3.547380 0.000000 0.000000 
#    y 0.000000 3.547380 0.000000 
#    z 0.000000 0.000000 3.976550 
# 
# 
# High freq. dielectric constant tensor:
#      x y z
#    x 1.753530 0.000000 0.000000 
#    y 0.000000 1.753530 0.000000 
#    z 0.000000 0.000000 1.774410 
# 
# From -- ./inp_files/8420.got.cif
#   From: 2010.03.12/outbox.cif.g09.slc.cpg/sg194_5_cif.got.tgz:8420.got - 2010.04.01 12:26:19.
