data_PCOD8330530
_publ_section_title
;
Structure prediction by ZEFSAII (Michael W. Deem and Ramdas Pophale) SiO2 
 PCOD8330530
Probable space group: P 63/M M C
;
_chemical_formula_sum "Si O2"
_cell_formula_units_Z 144
_cell_length_a 20.313930
_cell_length_b 20.313930
_cell_length_c 22.357274
_cell_angle_alpha 90.000000
_cell_angle_beta 90.000000
_cell_angle_gamma 120.000000
_cell_volume 7989.827154
_symmetry_space_group_name_H-M "P 63/M M C"
_symmetry_group_IT_number 194
_symmetry_cell_setting 'hexagonal'
loop_
_space_group_symop_operation_xyz
x,y,z
x-y,x,1/2+z
-y,x-y,z
-x,-y,1/2+z
-x+y,-x,z
y,-x+y,1/2+z
x-y,-y,-z
-x,-x+y,-z
y,x,-z
-y,-x,1/2-z
-x+y,y,1/2-z
x,x-y,1/2-z
-x,-y,-z
-x+y,-x,1/2-z
y,-x+y,-z
x,y,1/2-z
x-y,x,-z
-y,x-y,1/2-z
-x+y,y,z
x,x-y,z
-y,-x,z
y,x,1/2+z
x-y,-y,1/2+z
-x,-x+y,1/2+z
loop_
_atom_site_type_symbol
_atom_site_label
_atom_site_fract_x
_atom_site_fract_y
_atom_site_fract_z
Si Si1 0.479012 0.666745 0.065944
Si Si2 0.942910 0.545439 0.318907
Si Si3 0.071842 0.783749 0.370989
Si Si4 0.364860 0.281647 0.993021
Si Si5 0.241422 0.336675 0.624844
Si Si6 0.670182 0.557399 0.682783
O O1 0.447213 0.723607 0.055700
O O2 0.416332 0.583669 0.045773
O O3 0.497547 0.668943 0.136139
O O4 0.549052 0.689879 0.022446
O O5 0.920299 0.544097 0.250000
O O6 0.917006 0.458503 0.340292
O O7 0.904809 0.586494 0.355289
O O8 0.032982 0.594158 0.327524
O O9 0.124124 0.875877 0.358910
O O10 0.082599 0.771739 0.440546
O O11 0.105392 0.744097 0.328590
O O12 0.981285 0.742635 0.356645
O O13 0.340590 0.233955 0.053714
O O14 0.355704 0.355704 0.000000
O O15 0.167471 0.334942 0.653859
O O16 0.673625 0.530615 0.750000
#
# Coordination Sequence:
#
# PCOD8330530 Si02
#       6
#    24  24  24  24  24  24
#     4  11  22  33  44  61  91 126 154 183 223 274
#     4   9  18  32  49  70  95 121 150 190 243 292
#     4   9  17  30  48  70  98 127 153 190 243 293
#     4   9  18  32  50  70  89 114 153 200 244 279
#     4  10  19  31  50  74  97 124 162 204 242 288
#     4   9  17  30  49  69  88 115 154 196 232 269
#
# _framework density 18.022918000000001
#
# number of rings (size 3 to 8) (size 9 to 14) (size 15 to 20)
#    0.000    2.500    0.000    4.667    0.000    3.667 
#    0.000    0.000    0.000    1.667    0.000    0.000 
#    0.000    4.000    0.000    8.333    0.000    0.000 
#
# Total GULP energy -1784283.961342 kJ/mol
# GULP energy per Si atom -12390.860843 kJ/mol
# Density = 1.798190 g / cm^3
# Si number density = 18.022918 Si / 1000 Ang^3
#
#
#
# Elastic Constant Matrix: (Units=GPa)
#
#
# Indices 1 2 3 4 5 6 
#
# 1 97.7553 56.8635 11.8115 0.0000 0.0000 0.0000
# 2 56.8635 97.7553 11.8115 0.0000 0.0000 0.0000
# 3 11.8115 11.8115 32.4915 0.0000 0.0000 0.0000
# 4 0.0000 0.0000 0.0000 3.7245 0.0000 0.0000
# 5 0.0000 0.0000 0.0000 0.0000 3.7245 0.0000
# 6 0.0000 0.0000 0.0000 0.0000 0.0000 20.4459
#
#
#
# Elastic Compliance Matrix: (Units=1/GPa)
#
#
# Indices 1 2 3 4 5 6 
#
# 1 0.015651 -0.008803 -0.002489 0.000000 0.000000 0.000000
# 2 -0.008803 0.015651 -0.002489 0.000000 0.000000 0.000000
# 3 -0.002489 -0.002489 0.032587 0.000000 0.000000 0.000000
# 4 0.000000 0.000000 0.000000 0.268494 0.000000 0.000000
# 5 0.000000 0.000000 0.000000 0.000000 0.268494 0.000000
# 6 0.000000 0.000000 0.000000 0.000000 0.000000 0.048910
#
#
# Mechanical properties :
#
#
# Convention : Reuss Voigt Hill
#
# Bulk Modulus (GPa) = 27.52896 43.21948 35.37422
# Shear Modulus (GPa) = 7.25205 15.41334 11.33269
#
# Velocity S-wave (km/s) = 2.00812 2.92757 2.51030
# Velocity P-wave (km/s) = 4.54800 5.95482 5.29831
#
# Compressibility (1/GPa) = 0.03632539
#
# Stress axis : x y z
#
# Youngs Moduli (GPa) = 63.89243 63.89243 30.68688
#
# Poissons Ratio (x) = 0.56247 0.07639
# Poissons Ratio (y) = 0.56247 0.07639
# Poissons Ratio (z) = 0.15905 0.15905
#
# Static dielectric constant tensor:
#      x y z
#    x 3.299600 0.000000 0.000000 
#    y 0.000000 3.299600 0.000000 
#    z 0.000000 0.000000 3.359680 
# 
# 
# High freq. dielectric constant tensor:
#      x y z
#    x 1.678230 0.000000 0.000000 
#    y 0.000000 1.678230 0.000000 
#    z 0.000000 0.000000 1.694020 
# 
# From -- ./inp_files/8271.got.cif
#   From: 2010.03.12/outbox.cif.g09.slc.cpg/sg194_5_cif.got.tgz:8271.got - 2010.04.01 12:26:19.
