data_PCOD8330289
_publ_section_title
;
Structure prediction by ZEFSAII (Michael W. Deem and Ramdas Pophale) SiO2 
 PCOD8330289
Probable space group: P 63/M M C
;
_chemical_formula_sum "Si O2"
_cell_formula_units_Z 108
_cell_length_a 31.631288
_cell_length_b 31.631288
_cell_length_c 8.588445
_cell_angle_alpha 90.000000
_cell_angle_beta 90.000000
_cell_angle_gamma 120.000000
_cell_volume 7441.815922
_symmetry_space_group_name_H-M "P 63/M M C"
_symmetry_group_IT_number 194
_symmetry_cell_setting 'hexagonal'
loop_
_space_group_symop_operation_xyz
x,y,z
x-y,x,1/2+z
-y,x-y,z
-x,-y,1/2+z
-x+y,-x,z
y,-x+y,1/2+z
x-y,-y,-z
-x,-x+y,-z
y,x,-z
-y,-x,1/2-z
-x+y,y,1/2-z
x,x-y,1/2-z
-x,-y,-z
-x+y,-x,1/2-z
y,-x+y,-z
x,y,1/2-z
x-y,x,-z
-y,x-y,1/2-z
-x+y,y,z
x,x-y,z
-y,-x,z
y,x,1/2+z
x-y,-y,1/2+z
-x,-x+y,1/2+z
loop_
_atom_site_type_symbol
_atom_site_label
_atom_site_fract_x
_atom_site_fract_y
_atom_site_fract_z
Si Si1 0.388129 0.945644 0.065762
Si Si2 0.697451 0.053627 0.432682
Si Si3 0.699113 0.801019 0.431264
Si Si4 0.472682 0.945364 0.565857
Si Si5 0.146504 0.196644 0.930425
O O1 0.390388 0.945286 0.250000
O O2 0.332412 0.921698 0.007115
O O3 0.416694 0.918795 0.997107
O O4 0.414170 0.000000 0.000000
O O5 0.688356 0.048426 0.250000
O O6 0.753724 0.090579 0.470128
O O7 0.680641 0.000000 0.500000
O O8 0.691982 0.787856 0.250000
O O9 0.686672 0.843336 0.472450
O O10 0.754399 0.818114 0.476499
O O11 0.472925 0.945849 0.750000
O O12 0.500000 0.000000 0.500000
O O13 0.160915 0.205763 0.750000
O O14 0.090234 0.180468 0.957003
O O15 0.153459 0.153459 0.000000
#
# Coordination Sequence:
#
# PCOD8330289 Si02
#       5
#    24  24  24  12  24
#     4  10  17  26  38  54  75 100 131 164 199 233
#     4  11  20  30  43  59  80 104 132 166 203 240
#     4  10  20  33  47  62  81 105 132 163 199 239
#     4  10  16  24  36  52  74 100 130 162 198 232
#     4  10  20  33  49  68  87 106 128 155 190 234
#
# _framework density 14.512586000000001
#
# number of rings (size 3 to 8) (size 9 to 14) (size 15 to 20)
#    0.000    1.778    0.000    9.667    0.000    2.667 
#    0.000    0.000    0.000    0.222    0.000    0.000 
#    0.000    0.000    0.000    0.000    0.000    0.000 
#
# Total GULP energy -1339019.039573 kJ/mol
# GULP energy per Si atom -12398.324440 kJ/mol
# Density = 1.447956 g / cm^3
# Si number density = 14.512586 Si / 1000 Ang^3
#
#
#
# Elastic Constant Matrix: (Units=GPa)
#
#
# Indices 1 2 3 4 5 6 
#
# 1 77.3938 35.2064 32.8944 0.0000 0.0000 0.0000
# 2 35.2064 77.3938 32.8944 0.0000 0.0000 0.0000
# 3 32.8944 32.8944 119.4561 0.0000 0.0000 0.0000
# 4 0.0000 0.0000 0.0000 23.1555 0.0000 0.0000
# 5 0.0000 0.0000 0.0000 0.0000 23.1555 0.0000
# 6 0.0000 0.0000 0.0000 0.0000 0.0000 21.0937
#
#
#
# Elastic Compliance Matrix: (Units=1/GPa)
#
#
# Indices 1 2 3 4 5 6 
#
# 1 0.017144 -0.006560 -0.002914 0.000000 0.000000 0.000000
# 2 -0.006560 0.017144 -0.002914 0.000000 0.000000 0.000000
# 3 -0.002914 -0.002914 0.009976 0.000000 0.000000 0.000000
# 4 0.000000 0.000000 0.000000 0.043186 0.000000 0.000000
# 5 0.000000 0.000000 0.000000 0.000000 0.043186 0.000000
# 6 0.000000 0.000000 0.000000 0.000000 0.000000 0.047407
#
#
# Mechanical properties :
#
#
# Convention : Reuss Voigt Hill
#
# Bulk Modulus (GPa) = 51.31837 52.91489 52.11663
# Shear Modulus (GPa) = 23.88723 25.03087 24.45905
#
# Velocity S-wave (km/s) = 4.06145 4.15754 4.10978
# Velocity P-wave (km/s) = 7.57838 7.71929 7.64916
#
# Compressibility (1/GPa) = 0.01948620
#
# Stress axis : x y z
#
# Youngs Moduli (GPa) = 58.33026 58.33026 100.23690
#
# Poissons Ratio (x) = 0.38264 0.29213
# Poissons Ratio (y) = 0.38264 0.29213
# Poissons Ratio (z) = 0.17000 0.17000
#
# Static dielectric constant tensor:
#      x y z
#    x 2.981640 0.000000 0.000000 
#    y 0.000000 2.981640 0.000000 
#    z 0.000000 0.000000 2.839120 
# 
# 
# High freq. dielectric constant tensor:
#      x y z
#    x 1.526610 0.000000 0.000000 
#    y 0.000000 1.526610 0.000000 
#    z 0.000000 0.000000 1.581610 
# 
# From -- ./inp_files/1879.got.cif
#   From: 2010.03.12/outbox.cif.g09.slc.cpg/sg194_1_cif.got.tgz:1879.got - 2010.04.01 12:26:19.
