data_PCOD8330905
_publ_section_title
;
Structure prediction by ZEFSAII (Michael W. Deem and Ramdas Pophale) SiO2 
 PCOD8330905
Probable space group: I 21 3
;
_chemical_formula_sum "Si O2"
_cell_formula_units_Z 116
_cell_length_a 16.742865
_cell_length_b 16.742865
_cell_length_c 16.742865
_cell_angle_alpha 90.000000
_cell_angle_beta 90.000000
_cell_angle_gamma 90.000000
_cell_volume 4693.418992
_symmetry_space_group_name_H-M "I 21 3"
_symmetry_group_IT_number 199
_symmetry_cell_setting 'cubic'
loop_
_space_group_symop_operation_xyz
x,y,z
z,x,y
y,z,x
-y,1/2-z,x
z,-x,1/2-y
1/2-y,z,-x
-z,1/2-x,y
1/2-z,x,-y
y,-z,1/2-x
-x,1/2-y,z
x,-y,1/2-z
1/2-x,y,-z
1/2+x,1/2+y,1/2+z
1/2+z,1/2+x,1/2+y
1/2+y,1/2+z,1/2+x
1/2-y,-z,1/2+x
1/2+z,1/2-x,-y
-y,1/2+z,1/2-x
1/2-z,-x,1/2+y
-z,1/2+x,1/2-y
1/2+y,1/2-z,-x
1/2-x,-y,1/2+z
1/2+x,1/2-y,-z
-x,1/2+y,1/2-z
loop_
_atom_site_type_symbol
_atom_site_label
_atom_site_fract_x
_atom_site_fract_y
_atom_site_fract_z
Si Si1 0.144249 0.855753 0.355753
Si Si2 0.410233 0.255837 0.507231
Si Si3 0.000000 0.750000 0.314818
Si Si4 0.245638 0.745638 0.754364
Si Si5 0.675410 0.603015 0.186137
Si Si6 0.093706 0.406295 0.593706
Si Si7 0.484293 0.015709 0.984292
Si Si8 0.986220 0.158396 0.913981
O O1 0.133838 0.942991 0.311234
O O2 0.199049 0.800953 0.300953
O O3 0.500000 0.250000 0.473416
O O4 0.413599 0.253672 0.603797
O O5 0.373439 0.332506 0.460556
O O6 0.355066 0.179959 0.493744
O O7 0.941824 0.799975 0.258322
O O8 0.186402 0.694241 0.698288
O O9 0.638656 0.568413 0.105276
O O10 0.038848 0.461154 0.538847
O O11 0.530247 0.037463 0.901636
O O12 0.000000 0.250000 0.936426
#
# Coordination Sequence:
#
# PCOD8330905 Si02
#       8
#     8  24  12   8  24   8   8  24
#     4   9  21  45  74 110 147 196 266 322 409 482
#     4  12  22  41  71 104 151 205 259 322 399 485
#     4  10  22  44  76 102 146 204 258 326 406 484
#     4   9  21  37  64 100 136 184 248 313 391 461
#     4  11  21  42  68  98 145 193 249 319 389 471
#     4  12  24  43  70 112 158 206 256 321 412 470
#     4  12  24  54  77 107 160 203 262 339 412 497
#     4  12  27  47  77 115 150 206 268 331 411 491
#
# _framework density 24.715458999999999
#
# number of rings (size 3 to 8) (size 9 to 14) (size 15 to 20)
#    0.000    0.828    5.172    1.241    0.000    4.138 
#    1.862    0.000    0.000    0.000    0.000    0.000 
#    0.000    0.000    0.000    0.000    0.000    0.000 
#
# Total GULP energy -718610.712720 kJ/mol
# GULP energy per Si atom -12389.839874 kJ/mol
# Density = 2.465921 g / cm^3
# Si number density = 24.715459 Si / 1000 Ang^3
#
#
#
# Elastic Constant Matrix: (Units=GPa)
#
#
# Indices 1 2 3 4 5 6 
#
# 1 118.9214 38.3951 38.3962 0.0000 0.0000 0.0000
# 2 38.3951 118.9209 38.3963 0.0000 0.0000 0.0000
# 3 38.3962 38.3963 118.9215 0.0000 0.0000 0.0000
# 4 0.0000 0.0000 0.0000 43.0457 0.0000 0.0000
# 5 0.0000 0.0000 0.0000 0.0000 43.0545 0.0000
# 6 0.0000 0.0000 0.0000 0.0000 0.0000 43.0444
#
#
#
# Elastic Compliance Matrix: (Units=1/GPa)
#
#
# Indices 1 2 3 4 5 6 
#
# 1 0.009982 -0.002436 -0.002436 0.000000 0.000000 0.000000
# 2 -0.002436 0.009982 -0.002436 0.000000 0.000000 0.000000
# 3 -0.002436 -0.002436 0.009982 0.000000 0.000000 0.000000
# 4 0.000000 0.000000 0.000000 0.023231 0.000000 0.000000
# 5 0.000000 0.000000 0.000000 0.000000 0.023226 0.000000
# 6 0.000000 0.000000 0.000000 0.000000 0.000000 0.023232
#
#
# Mechanical properties :
#
#
# Convention : Reuss Voigt Hill
#
# Bulk Modulus (GPa) = 65.23768 65.23768 65.23768
# Shear Modulus (GPa) = 41.88900 41.93401 41.91150
#
# Velocity S-wave (km/s) = 4.12132 4.12354 4.12243
# Velocity P-wave (km/s) = 7.00713 7.00887 7.00800
#
# Compressibility (1/GPa) = 0.01532857
#
# Stress axis : x y z
#
# Youngs Moduli (GPa) = 100.17931 100.17878 100.17874
#
# Poissons Ratio (x) = 0.24406 0.24407
# Poissons Ratio (y) = 0.24406 0.24407
# Poissons Ratio (z) = 0.24407 0.24407
#
# Static dielectric constant tensor:
#      x y z
#    x 4.352550 0.000000 0.000000 
#    y 0.000000 4.352500 0.000000 
#    z 0.000000 0.000000 4.352500 
# 
# 
# High freq. dielectric constant tensor:
#      x y z
#    x 1.982920 0.000000 0.000000 
#    y 0.000000 1.982920 0.000000 
#    z 0.000000 0.000000 1.982920 
# 
# From -- ./inp_files/658.got.cif
#   From: 2010.03.12/outbox.cif.g09.slc.cpg/sg199_cif.got.tgz:658.got - 2010.04.01 12:34:00.
