data_PCOD8330181
_publ_section_title
;
Structure prediction by ZEFSAII (Michael W. Deem and Ramdas Pophale) SiO2 
 PCOD8330181
Probable space group: P 63/M C M
;
_chemical_formula_sum "Si O2"
_cell_formula_units_Z 128
_cell_length_a 21.370370
_cell_length_b 21.370370
_cell_length_c 18.495981
_cell_angle_alpha 90.000000
_cell_angle_beta 90.000000
_cell_angle_gamma 120.000000
_cell_volume 7315.299057
_symmetry_space_group_name_H-M "P 63/M C M"
_symmetry_group_IT_number 193
_symmetry_cell_setting 'hexagonal'
loop_
_space_group_symop_operation_xyz
x,y,z
x-y,x,1/2+z
-y,x-y,z
-x,-y,1/2+z
-x+y,-x,z
y,-x+y,1/2+z
x-y,-y,1/2-z
-x,-x+y,1/2-z
y,x,1/2-z
-y,-x,-z
-x+y,y,-z
x,x-y,-z
-x,-y,-z
-x+y,-x,1/2-z
y,-x+y,-z
x,y,1/2-z
x-y,x,-z
-y,x-y,1/2-z
-x+y,y,1/2+z
x,x-y,1/2+z
-y,-x,1/2+z
y,x,z
x-y,-y,z
-x,-x+y,z
loop_
_atom_site_type_symbol
_atom_site_label
_atom_site_fract_x
_atom_site_fract_y
_atom_site_fract_z
Si Si1 0.917787 0.342910 0.083783
Si Si2 0.080533 0.299894 0.665460
Si Si3 0.333334 0.666668 0.663254
Si Si4 0.700105 0.780639 0.165461
Si Si5 0.917787 0.342912 0.583786
Si Si6 0.409112 0.590885 0.915049
O O1 0.893872 0.269796 0.127147
O O2 0.865097 0.372334 0.106099
O O3 0.000000 0.403611 0.102611
O O4 0.910033 0.322876 0.999998
O O5 0.081832 0.314417 0.750000
O O6 0.136001 0.272002 0.644927
O O7 0.106127 0.375925 0.627151
O O8 0.000000 0.239525 0.639984
O O9 0.333334 0.666668 0.750000
O O10 0.252259 0.626136 0.633828
O O11 0.685579 0.767414 0.250000
O O12 0.760476 0.760476 0.139987
O O13 0.865093 0.372333 0.606102
O O14 0.000000 0.403615 0.602613
O O15 0.398879 0.601122 0.000000
#
# Coordination Sequence:
#
# PCOD8330181 Si02
#       6
#    24  24   8  24  24  24
#     4   9  18  33  55  80 101 125 161 206 255 304
#     4   9  18  32  50  73 102 134 166 202 247 295
#     4  12  28  41  49  69 100 140 184 216 247 293
#     4   9  18  32  50  73 102 134 166 202 247 295
#     4   9  18  33  55  80 101 125 161 206 255 304
#     4  10  21  38  56  72  98 132 168 210 258 307
#
# _framework density 17.497575999999999
#
# number of rings (size 3 to 8) (size 9 to 14) (size 15 to 20)
#    0.000    2.625    0.000    1.125    2.625    4.500 
#    0.000    0.000    0.000    6.000    0.000    2.625 
#    0.000    0.000    0.000    9.375    0.000    9.750 
#
# Total GULP energy -1587115.584828 kJ/mol
# GULP energy per Si atom -12399.340506 kJ/mol
# Density = 1.745775 g / cm^3
# Si number density = 17.497576 Si / 1000 Ang^3
#
#
#
# Elastic Constant Matrix: (Units=GPa)
#
#
# Indices 1 2 3 4 5 6 
#
# 1 136.6713 86.5748 49.5234 -0.0001 0.0000 0.0001
# 2 86.5748 136.6718 49.5235 -0.0001 0.0000 0.0000
# 3 49.5234 49.5235 47.2637 -0.0001 0.0000 0.0000
# 4 -0.0001 -0.0001 -0.0001 25.8393 0.0000 0.0000
# 5 0.0000 0.0000 0.0000 0.0000 25.8392 0.0000
# 6 0.0001 0.0000 0.0000 0.0000 0.0000 25.0482
#
#
#
# Elastic Compliance Matrix: (Units=1/GPa)
#
#
# Indices 1 2 3 4 5 6 
#
# 1 0.014166 -0.005795 -0.008771 0.000000 0.000000 0.000000
# 2 -0.005795 0.014166 -0.008771 0.000000 0.000000 0.000000
# 3 -0.008771 -0.008771 0.039539 0.000000 0.000000 0.000000
# 4 0.000000 0.000000 0.000000 0.038701 0.000000 0.000000
# 5 0.000000 0.000000 0.000000 0.000000 0.038701 0.000000
# 6 0.000000 0.000000 0.000000 0.000000 0.000000 0.039923
#
#
# Mechanical properties :
#
#
# Convention : Reuss Voigt Hill
#
# Bulk Modulus (GPa) = 47.17835 76.87225 62.02530
# Shear Modulus (GPa) = 20.92618 24.34434 22.63526
#
# Velocity S-wave (km/s) = 3.46200 3.73406 3.60060
# Velocity P-wave (km/s) = 6.55758 7.91324 7.26709
#
# Compressibility (1/GPa) = 0.02119616
#
# Stress axis : x y z
#
# Youngs Moduli (GPa) = 70.59117 70.59136 25.29178
#
# Poissons Ratio (x) = 0.40910 0.22183
# Poissons Ratio (y) = 0.40910 0.22183
# Poissons Ratio (z) = 0.61915 0.61915
#
# Static dielectric constant tensor:
#      x y z
#    x 3.413390 0.000000 0.000000 
#    y 0.000000 3.413380 0.000000 
#    z 0.000000 0.000000 3.183460 
# 
# 
# High freq. dielectric constant tensor:
#      x y z
#    x 1.676130 0.000000 0.000000 
#    y 0.000000 1.676130 0.000000 
#    z 0.000000 0.000000 1.668040 
# 
# From -- ./inp_files/6473.got.cif
#   From: 2010.03.12/outbox.cif.g09.slc.cpg/sg193_4_cif.got.tgz:6473.got - 2010.04.01 12:20:39.
