data_PCOD8330123
_publ_section_title
;
Structure prediction by ZEFSAII (Michael W. Deem and Ramdas Pophale) SiO2 
 PCOD8330123
Probable space group: P 63/M C M
;
_chemical_formula_sum "Si O2"
_cell_formula_units_Z 132
_cell_length_a 24.051271
_cell_length_b 24.051271
_cell_length_c 14.247664
_cell_angle_alpha 90.000000
_cell_angle_beta 90.000000
_cell_angle_gamma 120.000000
_cell_volume 7137.569663
_symmetry_space_group_name_H-M "P 63/M C M"
_symmetry_group_IT_number 193
_symmetry_cell_setting 'hexagonal'
loop_
_space_group_symop_operation_xyz
x,y,z
x-y,x,1/2+z
-y,x-y,z
-x,-y,1/2+z
-x+y,-x,z
y,-x+y,1/2+z
x-y,-y,1/2-z
-x,-x+y,1/2-z
y,x,1/2-z
-y,-x,-z
-x+y,y,-z
x,x-y,-z
-x,-y,-z
-x+y,-x,1/2-z
y,-x+y,-z
x,y,1/2-z
x-y,x,-z
-y,x-y,1/2-z
-x+y,y,1/2+z
x,x-y,1/2+z
-y,-x,1/2+z
y,x,z
x-y,-y,z
-x,-x+y,z
loop_
_atom_site_type_symbol
_atom_site_label
_atom_site_fract_x
_atom_site_fract_y
_atom_site_fract_z
Si Si1 0.597692 0.925655 0.641190
Si Si2 0.828471 0.477575 0.977483
Si Si3 0.825536 0.630064 0.605768
Si Si4 0.758423 0.492566 0.146365
Si Si5 0.925871 0.074130 0.000000
Si Si6 0.759610 0.929056 0.355802
O O1 0.574761 0.915822 0.750000
O O2 0.537443 0.890185 0.570215
O O3 0.647775 0.899303 0.623661
O O4 0.635008 0.000000 0.613994
O O5 0.768128 0.457239 0.906660
O O6 0.844033 0.422017 0.000000
O O7 0.812575 0.492429 0.081238
O O8 0.804048 0.608096 0.500000
O O9 0.784826 0.566988 0.667640
O O10 0.810498 0.685950 0.630776
O O11 0.752518 0.460926 0.250000
O O12 0.894304 0.088620 0.087992
O O13 0.000000 0.103591 0.022742
O O14 0.780245 0.930156 0.250000
O O15 0.771875 0.000000 0.385234
#
# Coordination Sequence:
#
# PCOD8330123 Si02
#       6
#    24  24  24  24  12  24
#     4  10  21  37  59  86 115 151 197 242 286 346
#     4  10  20  37  58  82 116 151 188 240 290 339
#     4  11  18  35  59  81 109 148 179 228 281 334
#     4  10  20  37  58  83 112 150 191 228 279 343
#     4  10  21  36  52  70  96 134 178 220 266 322
#     4  10  21  35  52  78 109 137 171 221 278 330
#
# _framework density 18.493690999999998
#
# number of rings (size 3 to 8) (size 9 to 14) (size 15 to 20)
#    0.000    1.818    4.545    3.364    0.000    3.636 
#    4.364    0.000    0.000    1.636    0.000    0.000 
#    0.000    0.000    0.000    0.000    0.000    0.000 
#
# Total GULP energy -1635584.990843 kJ/mol
# GULP energy per Si atom -12390.795385 kJ/mol
# Density = 1.845160 g / cm^3
# Si number density = 18.493691 Si / 1000 Ang^3
#
#
#
# Elastic Constant Matrix: (Units=GPa)
#
#
# Indices 1 2 3 4 5 6 
#
# 1 88.7728 54.1475 31.4116 0.0000 0.0000 0.0000
# 2 54.1475 88.7728 31.4116 0.0000 0.0000 0.0000
# 3 31.4116 31.4116 124.9963 0.0000 0.0000 0.0000
# 4 0.0000 0.0000 0.0000 17.1680 0.0000 0.0000
# 5 0.0000 0.0000 0.0000 0.0000 17.1680 0.0000
# 6 0.0000 0.0000 0.0000 0.0000 0.0000 17.3127
#
#
#
# Elastic Compliance Matrix: (Units=1/GPa)
#
#
# Indices 1 2 3 4 5 6 
#
# 1 0.018373 -0.010507 -0.001977 0.000000 0.000000 0.000000
# 2 -0.010507 0.018373 -0.001977 0.000000 0.000000 0.000000
# 3 -0.001977 -0.001977 0.008994 0.000000 0.000000 0.000000
# 4 0.000000 0.000000 0.000000 0.058248 0.000000 0.000000
# 5 0.000000 0.000000 0.000000 0.000000 0.058248 0.000000
# 6 0.000000 0.000000 0.000000 0.000000 0.000000 0.057761
#
#
# Mechanical properties :
#
#
# Convention : Reuss Voigt Hill
#
# Bulk Modulus (GPa) = 59.45799 59.60924 59.53362
# Shear Modulus (GPa) = 19.64447 22.70117 21.17282
#
# Velocity S-wave (km/s) = 3.26272 3.50738 3.38726
# Velocity P-wave (km/s) = 6.81278 6.97886 6.89632
#
# Compressibility (1/GPa) = 0.01681860
#
# Stress axis : x y z
#
# Youngs Moduli (GPa) = 54.42716 54.42716 111.18877
#
# Poissons Ratio (x) = 0.57189 0.21978
# Poissons Ratio (y) = 0.57189 0.21978
# Poissons Ratio (z) = 0.10758 0.10758
#
# Static dielectric constant tensor:
#      x y z
#    x 3.344920 0.000000 0.000000 
#    y 0.000000 3.344920 0.000000 
#    z 0.000000 0.000000 -28.665600 
# 
# 
# High freq. dielectric constant tensor:
#      x y z
#    x 1.703100 0.000000 0.000000 
#    y 0.000000 1.703100 0.000000 
#    z 0.000000 0.000000 1.736550 
# 
# From -- ./inp_files/4157.got.cif
#   From: 2010.03.12/outbox.cif.g09.slc.cpg/sg193_3_cif.got.tgz:4157.got - 2010.04.01 12:20:39.
