data_PCOD8330824
_publ_section_title
;
Structure prediction by ZEFSAII (Michael W. Deem and Ramdas Pophale) SiO2 
 PCOD8330824
Probable space group: P 63/M M C
;
_chemical_formula_sum "Si O2"
_cell_formula_units_Z 102
_cell_length_a 27.410434
_cell_length_b 27.410434
_cell_length_c 7.544498
_cell_angle_alpha 90.000000
_cell_angle_beta 90.000000
_cell_angle_gamma 120.000000
_cell_volume 4908.997414
_symmetry_space_group_name_H-M "P 63/M M C"
_symmetry_group_IT_number 194
_symmetry_cell_setting 'hexagonal'
loop_
_space_group_symop_operation_xyz
x,y,z
x-y,x,1/2+z
-y,x-y,z
-x,-y,1/2+z
-x+y,-x,z
y,-x+y,1/2+z
x-y,-y,-z
-x,-x+y,-z
y,x,-z
-y,-x,1/2-z
-x+y,y,1/2-z
x,x-y,1/2-z
-x,-y,-z
-x+y,-x,1/2-z
y,-x+y,-z
x,y,1/2-z
x-y,x,-z
-y,x-y,1/2-z
-x+y,y,z
x,x-y,z
-y,-x,z
y,x,1/2+z
x-y,-y,1/2+z
-x,-x+y,1/2+z
loop_
_atom_site_type_symbol
_atom_site_label
_atom_site_fract_x
_atom_site_fract_y
_atom_site_fract_z
Si Si1 0.414635 0.207318 0.541644
Si Si2 0.560485 0.621275 0.447181
Si Si3 0.228636 0.168455 0.042779
Si Si4 0.251563 0.503125 0.750000
Si Si5 0.484575 0.853984 0.750000
Si Si6 0.344813 0.079039 0.453962
O O1 0.426975 0.213488 0.750000
O O2 0.472482 0.236241 0.437397
O O3 0.380487 0.144865 0.474878
O O4 0.567627 0.567627 0.500000
O O5 0.534152 0.610969 0.250000
O O6 0.520921 0.632624 0.578303
O O7 0.623487 0.675592 0.441362
O O8 0.237741 0.166801 0.250000
O O9 0.221466 0.110733 0.958057
O O10 0.283143 0.223807 0.962293
O O11 0.173443 0.173443 0.000000
O O12 0.320385 0.533022 0.750000
O O13 0.427321 0.854642 0.750000
O O14 0.340766 0.061679 0.250000
#
# Coordination Sequence:
#
# PCOD8330824 Si02
#       6
#    12  24  24   6  12  24
#     4  12  20  32  62  94 124 168 207 251 315 377
#     4  12  23  41  66  99 137 178 216 259 318 399
#     4  10  22  37  55  80 117 158 198 252 309 363
#     4  12  24  48  70  94 134 166 222 290 316 380
#     4  12  28  48  70  98 132 175 223 280 341 385
#     4  11  19  36  59  88 131 169 204 251 305 372
#
# _framework density 20.778175000000001
#
# number of rings (size 3 to 8) (size 9 to 14) (size 15 to 20)
#    0.000    0.706    7.059    1.412    0.000    5.176 
#    0.353    0.000    0.000    0.235    0.000    0.000 
#    0.000    0.000    0.000    0.000    0.000    0.000 
#
# Total GULP energy -1263872.850967 kJ/mol
# GULP energy per Si atom -12390.910304 kJ/mol
# Density = 2.073088 g / cm^3
# Si number density = 20.778175 Si / 1000 Ang^3
#
#
#
# Elastic Constant Matrix: (Units=GPa)
#
#
# Indices 1 2 3 4 5 6 
#
# 1 99.6602 61.8959 23.5759 0.0000 0.0000 0.0000
# 2 61.8959 99.6602 23.5759 0.0000 0.0000 0.0000
# 3 23.5759 23.5759 105.0365 0.0000 0.0000 0.0000
# 4 0.0000 0.0000 0.0000 10.4640 0.0000 0.0000
# 5 0.0000 0.0000 0.0000 0.0000 10.4640 0.0000
# 6 0.0000 0.0000 0.0000 0.0000 0.0000 18.8821
#
#
#
# Elastic Compliance Matrix: (Units=1/GPa)
#
#
# Indices 1 2 3 4 5 6 
#
# 1 0.016552 -0.009928 -0.001487 0.000000 0.000000 0.000000
# 2 -0.009928 0.016552 -0.001487 0.000000 0.000000 0.000000
# 3 -0.001487 -0.001487 0.010188 0.000000 0.000000 0.000000
# 4 0.000000 0.000000 0.000000 0.095565 0.000000 0.000000
# 5 0.000000 0.000000 0.000000 0.000000 0.095565 0.000000
# 6 0.000000 0.000000 0.000000 0.000000 0.000000 0.052960
#
#
# Mechanical properties :
#
#
# Convention : Reuss Voigt Hill
#
# Bulk Modulus (GPa) = 57.18063 58.05028 57.61546
# Shear Modulus (GPa) = 15.67323 20.98265 18.32794
#
# Velocity S-wave (km/s) = 2.74945 3.18125 2.97320
# Velocity P-wave (km/s) = 6.13666 6.44147 6.29091
#
# Compressibility (1/GPa) = 0.01748844
#
# Stress axis : x y z
#
# Youngs Moduli (GPa) = 60.41610 60.41610 98.15559
#
# Poissons Ratio (x) = 0.59982 0.14593
# Poissons Ratio (y) = 0.59982 0.14593
# Poissons Ratio (z) = 0.08982 0.08982
#
# Static dielectric constant tensor:
#      x y z
#    x 3.818970 0.000000 0.000000 
#    y 0.000000 3.818970 0.000000 
#    z 0.000000 0.000000 3.743910 
# 
# 
# High freq. dielectric constant tensor:
#      x y z
#    x 1.797820 0.000000 0.000000 
#    y 0.000000 1.797820 0.000000 
#    z 0.000000 0.000000 1.816230 
# 
# From -- ./inp_files/1656.got.cif
#   From: 2010.03.12/outbox.cif.g09.slc.cpg/sg194_1_cif.got.tgz:1656.got - 2010.04.01 12:26:19.
