data_PCOD8330234
_publ_section_title
;
Structure prediction by ZEFSAII (Michael W. Deem and Ramdas Pophale) SiO2 
 PCOD8330234
Probable space group: P 63/M C M
;
_chemical_formula_sum "Si O2"
_cell_formula_units_Z 104
_cell_length_a 17.810555
_cell_length_b 17.810555
_cell_length_c 20.665151
_cell_angle_alpha 90.000000
_cell_angle_beta 90.000000
_cell_angle_gamma 120.000000
_cell_volume 5677.068316
_symmetry_space_group_name_H-M "P 63/M C M"
_symmetry_group_IT_number 193
_symmetry_cell_setting 'hexagonal'
loop_
_space_group_symop_operation_xyz
x,y,z
x-y,x,1/2+z
-y,x-y,z
-x,-y,1/2+z
-x+y,-x,z
y,-x+y,1/2+z
x-y,-y,1/2-z
-x,-x+y,1/2-z
y,x,1/2-z
-y,-x,-z
-x+y,y,-z
x,x-y,-z
-x,-y,-z
-x+y,-x,1/2-z
y,-x+y,-z
x,y,1/2-z
x-y,x,-z
-y,x-y,1/2-z
-x+y,y,1/2+z
x,x-y,1/2+z
-y,-x,1/2+z
y,x,z
x-y,-y,z
-x,-x+y,z
loop_
_atom_site_type_symbol
_atom_site_label
_atom_site_fract_x
_atom_site_fract_y
_atom_site_fract_z
Si Si1 0.356316 0.450964 0.250000
Si Si2 0.531174 0.897591 0.387396
Si Si3 0.494973 0.666420 0.114419
Si Si4 0.333334 0.666668 0.576809
Si Si5 0.899306 0.262597 0.493828
Si Si6 0.532650 0.903688 0.750000
O O1 0.364340 0.364340 0.250000
O O2 0.313888 0.456543 0.318644
O O3 0.450837 0.534652 0.250000
O O4 0.433200 0.867866 0.405615
O O5 0.573487 0.871946 0.444617
O O6 0.578102 0.000000 0.377471
O O7 0.432900 0.708638 0.103193
O O8 0.579176 0.705830 0.070063
O O9 0.530228 0.681375 0.187459
O O10 0.333334 0.666667 0.500000
O O11 0.842011 0.157990 0.500000
O O12 0.000000 0.290864 0.492843
O O13 0.618303 0.000000 0.750000
#
# Coordination Sequence:
#
# PCOD8330234 Si02
#       6
#    12  24  24   8  24  12
#     4   7  12  24  42  68  97 125 163 205 239 280
#     4   9  16  28  49  73  99 133 169 203 245 295
#     4  11  20  33  51  73 106 142 178 216 255 301
#     4  12  24  34  47  73 111 147 184 227 268 313
#     4  11  22  36  54  75  98 127 165 210 259 312
#     4   9  18  32  50  70  95 135 185 229 267 306
#
# _framework density 18.319315
#
# number of rings (size 3 to 8) (size 9 to 14) (size 15 to 20)
#    0.000    2.077    0.000    7.615    0.000    2.769 
#    0.000    3.462    0.000    0.231    0.000    0.000 
#    0.000    0.000    0.000    0.000    0.000   15.923 
#
# Total GULP energy -1288797.348526 kJ/mol
# GULP energy per Si atom -12392.282197 kJ/mol
# Density = 1.827762 g / cm^3
# Si number density = 18.319315 Si / 1000 Ang^3
#
#
#
# Elastic Constant Matrix: (Units=GPa)
#
#
# Indices 1 2 3 4 5 6 
#
# 1 70.0149 33.9221 35.6967 -0.0001 0.0000 0.0000
# 2 33.9221 70.0146 35.6965 0.0001 0.0001 0.0000
# 3 35.6967 35.6965 156.8567 0.0000 -0.0002 0.0000
# 4 -0.0001 0.0001 0.0000 3.3763 0.0000 -0.0001
# 5 0.0000 0.0001 -0.0002 0.0000 3.3769 0.0001
# 6 0.0000 0.0000 0.0000 -0.0001 0.0001 18.0459
#
#
#
# Elastic Compliance Matrix: (Units=1/GPa)
#
#
# Indices 1 2 3 4 5 6 
#
# 1 0.019555 -0.008151 -0.002595 0.000001 0.000000 0.000000
# 2 -0.008151 0.019555 -0.002595 -0.000001 -0.000001 0.000000
# 3 -0.002595 -0.002595 0.007556 0.000000 0.000001 0.000000
# 4 0.000001 -0.000001 0.000000 0.296180 0.000001 0.000001
# 5 0.000000 -0.000001 0.000001 0.000001 0.296128 -0.000002
# 6 0.000000 0.000000 0.000000 0.000001 -0.000002 0.055414
#
#
# Mechanical properties :
#
#
# Convention : Reuss Voigt Hill
#
# Bulk Modulus (GPa) = 50.04185 56.39074 53.21630
# Shear Modulus (GPa) = 6.87065 17.73122 12.30093
#
# Velocity S-wave (km/s) = 1.93872 3.11448 2.59409
# Velocity P-wave (km/s) = 5.69098 6.61682 6.17129
#
# Compressibility (1/GPa) = 0.01998327
#
# Stress axis : x y z
#
# Youngs Moduli (GPa) = 51.13746 51.13733 132.33705
#
# Poissons Ratio (x) = 0.41684 0.34345
# Poissons Ratio (y) = 0.41684 0.34344
# Poissons Ratio (z) = 0.13271 0.13271
#
# Static dielectric constant tensor:
#      x y z
#    x 3.216680 0.000000 0.000000 
#    y 0.000000 3.216680 0.000000 
#    z 0.000000 0.000000 4.142000 
# 
# 
# High freq. dielectric constant tensor:
#      x y z
#    x 1.676820 0.000000 0.000000 
#    y 0.000000 1.676820 0.000000 
#    z 0.000000 0.000000 1.738540 
# 
# From -- ./inp_files/6350.got.cif
#   From: 2010.03.12/outbox.cif.g09.slc.cpg/sg193_4_cif.got.tgz:6350.got - 2010.04.01 12:20:39.
