data_PCOD8330060
_publ_section_title
;
Structure prediction by ZEFSAII (Michael W. Deem and Ramdas Pophale) SiO2 
 PCOD8330060
Probable space group: P 63/M C M
;
_chemical_formula_sum "Si O2"
_cell_formula_units_Z 72
_cell_length_a 22.545599
_cell_length_b 22.545599
_cell_length_c 8.833591
_cell_angle_alpha 90.000000
_cell_angle_beta 90.000000
_cell_angle_gamma 120.000000
_cell_volume 3888.583917
_symmetry_space_group_name_H-M "P 63/M C M"
_symmetry_group_IT_number 193
_symmetry_cell_setting 'hexagonal'
loop_
_space_group_symop_operation_xyz
x,y,z
x-y,x,1/2+z
-y,x-y,z
-x,-y,1/2+z
-x+y,-x,z
y,-x+y,1/2+z
x-y,-y,1/2-z
-x,-x+y,1/2-z
y,x,1/2-z
-y,-x,-z
-x+y,y,-z
x,x-y,-z
-x,-y,-z
-x+y,-x,1/2-z
y,-x+y,-z
x,y,1/2-z
x-y,x,-z
-y,x-y,1/2-z
-x+y,y,1/2+z
x,x-y,1/2+z
-y,-x,1/2+z
y,x,z
x-y,-y,z
-x,-x+y,z
loop_
_atom_site_type_symbol
_atom_site_label
_atom_site_fract_x
_atom_site_fract_y
_atom_site_fract_z
Si Si1 0.543766 0.208715 0.425423
Si Si2 0.000000 0.131172 0.931027
Si Si3 0.268893 0.000000 0.571544
Si Si4 0.868730 0.612165 0.574271
O O1 0.591228 0.182455 0.500000
O O2 0.558799 0.279400 0.500000
O O3 0.561365 0.223472 0.250000
O O4 0.465742 0.148957 0.451456
O O5 0.000000 0.200196 0.981111
O O6 0.000000 0.123681 0.750000
O O7 0.067031 0.134062 0.000000
O O8 0.337355 0.062456 0.508728
O O9 0.271524 0.000000 0.750000
O O10 0.812191 0.624383 0.500000
O O11 0.874316 0.630890 0.750000
#
# Coordination Sequence:
#
# PCOD8330060 Si02
#       4
#    24  12  12  24
#     4  10  20  34  54  80 110 144 181 224 274 326
#     4  11  24  40  59  84 113 144 177 217 266 317
#     4  11  23  38  59  84 109 144 186 225 270 323
#     4  10  21  37  57  81 110 143 181 226 273 322
#
# _framework density 18.515737999999999
#
# number of rings (size 3 to 8) (size 9 to 14) (size 15 to 20)
#    0.000    1.667    0.000    4.500    0.000    9.333 
#    0.000    0.833    0.000    0.000    0.000    0.000 
#    0.000    0.000    0.000    0.000    0.000    0.000 
#
# Total GULP energy -892960.605223 kJ/mol
# GULP energy per Si atom -12402.230628 kJ/mol
# Density = 1.847360 g / cm^3
# Si number density = 18.515738 Si / 1000 Ang^3
#
#
#
# Elastic Constant Matrix: (Units=GPa)
#
#
# Indices 1 2 3 4 5 6 
#
# 1 14.3143 197.9082 73.5789 0.0000 0.0000 0.0000
# 2 197.9082 14.3143 73.5789 0.0000 0.0000 0.0000
# 3 73.5789 73.5789 121.3603 0.0000 0.0000 0.0000
# 4 0.0000 0.0000 0.0000 34.4091 0.0000 0.0000
# 5 0.0000 0.0000 0.0000 0.0000 34.4091 0.0000
# 6 0.0000 0.0000 0.0000 0.0000 0.0000 -91.7970
#
#
#
# Elastic Compliance Matrix: (Units=1/GPa)
#
#
# Indices 1 2 3 4 5 6 
#
# 1 0.001342 0.006788 -0.004929 0.000000 0.000000 0.000000
# 2 0.006788 0.001342 -0.004929 0.000000 0.000000 0.000000
# 3 -0.004929 -0.004929 0.014217 0.000000 0.000000 0.000000
# 4 0.000000 0.000000 0.000000 0.029062 0.000000 0.000000
# 5 0.000000 0.000000 0.000000 0.000000 0.029062 0.000000
# 6 0.000000 0.000000 0.000000 0.000000 0.000000 -0.010894
#
#
# Mechanical properties :
#
#
# Convention : Reuss Voigt Hill
#
# Bulk Modulus (GPa) = 92.93349 93.34675 93.14012
# Shear Modulus (GPa) = 67.69874 -17.60092 25.04891
#
# Velocity S-wave (km/s) = 6.05328 -3.08651 3.68209
# Velocity P-wave (km/s) = 9.95775 6.14997 8.27584
#
# Compressibility (1/GPa) = 0.01076038
#
# Stress axis : x y z
#
# Youngs Moduli (GPa) = 745.41191 745.41191 70.33978
#
# Poissons Ratio (x) = -5.06011 0.34671
# Poissons Ratio (y) = -5.06011 0.34671
# Poissons Ratio (z) = 3.67415 3.67415
#
# Static dielectric constant tensor:
#      x y z
#    x 3.497660 0.000000 0.000000 
#    y 0.000000 3.497660 0.000000 
#    z 0.000000 0.000000 3.640660 
# 
# 
# High freq. dielectric constant tensor:
#      x y z
#    x 1.721500 0.000000 0.000000 
#    y 0.000000 1.721500 0.000000 
#    z 0.000000 0.000000 1.740120 
# 
# From -- ./inp_files/800.got.cif
#   From: 2010.03.12/outbox.cif.g09.slc.cpg/sg193_1_cif.got.tgz:800.got - 2010.04.01 12:20:39.
