data_PCOD8330739
_publ_section_title
;
Structure prediction by ZEFSAII (Michael W. Deem and Ramdas Pophale) SiO2 
 PCOD8330739
Probable space group: P 63/M M C
;
_chemical_formula_sum "Si O2"
_cell_formula_units_Z 102
_cell_length_a 26.688850
_cell_length_b 26.688850
_cell_length_c 8.631153
_cell_angle_alpha 90.000000
_cell_angle_beta 90.000000
_cell_angle_gamma 120.000000
_cell_volume 5324.258936
_symmetry_space_group_name_H-M "P 63/M M C"
_symmetry_group_IT_number 194
_symmetry_cell_setting 'hexagonal'
loop_
_space_group_symop_operation_xyz
x,y,z
x-y,x,1/2+z
-y,x-y,z
-x,-y,1/2+z
-x+y,-x,z
y,-x+y,1/2+z
x-y,-y,-z
-x,-x+y,-z
y,x,-z
-y,-x,1/2-z
-x+y,y,1/2-z
x,x-y,1/2-z
-x,-y,-z
-x+y,-x,1/2-z
y,-x+y,-z
x,y,1/2-z
x-y,x,-z
-y,x-y,1/2-z
-x+y,y,z
x,x-y,z
-y,-x,z
y,x,1/2+z
x-y,-y,1/2+z
-x,-x+y,1/2+z
loop_
_atom_site_type_symbol
_atom_site_label
_atom_site_fract_x
_atom_site_fract_y
_atom_site_fract_z
Si Si1 0.935051 0.467526 0.433647
Si Si2 0.463444 0.335113 0.424017
Si Si3 0.232663 0.172445 0.933837
Si Si4 0.702744 0.405487 0.750000
Si Si5 0.655486 0.714426 0.430633
Si Si6 0.734544 0.265457 0.077852
O O1 0.939180 0.469590 0.250000
O O2 0.898751 0.498189 0.490608
O O3 0.000000 0.500000 0.500000
O O4 0.444212 0.339075 0.250000
O O5 0.407509 0.297325 0.527898
O O6 0.495414 0.298542 0.427519
O O7 0.230306 0.172089 0.750000
O O8 0.223904 0.111952 0.997751
O O9 0.294740 0.223613 0.995832
O O10 0.181373 0.181373 0.000000
O O11 0.633226 0.366775 0.750000
O O12 0.717948 0.435896 0.583921
O O13 0.662625 0.662625 0.500000
O O14 0.662261 0.713983 0.250000
O O15 0.718194 0.281807 0.250000
#
# Coordination Sequence:
#
# PCOD8330739 Si02
#       6
#    12  24  24   6  24  12
#     4  10  22  39  58  84 114 150 194 238 292 356
#     4  10  22  39  60  84 115 152 196 238 297 364
#     4   9  19  35  54  80 113 149 190 231 285 339
#     4  10  26  44  66  96 118 144 210 250 298 382
#     4  10  20  34  55  82 116 155 190 239 287 343
#     4  10  24  44  64  91 124 159 197 252 313 362
#
# _framework density 19.157596999999999
#
# number of rings (size 3 to 8) (size 9 to 14) (size 15 to 20)
#    0.118    2.118    0.000    1.412    4.941    4.706 
#    0.000    0.000    0.000    0.235    0.000    0.000 
#    0.000    0.000    0.000    0.000    0.000    0.000 
#
# Total GULP energy -1263914.698325 kJ/mol
# GULP energy per Si atom -12391.320572 kJ/mol
# Density = 1.911399 g / cm^3
# Si number density = 19.157597 Si / 1000 Ang^3
#
#
#
# Elastic Constant Matrix: (Units=GPa)
#
#
# Indices 1 2 3 4 5 6 
#
# 1 124.2174 66.7719 37.2556 0.0000 0.0000 0.0000
# 2 66.7719 124.2174 37.2556 0.0000 0.0000 0.0000
# 3 37.2556 37.2556 80.7595 0.0000 0.0000 0.0000
# 4 0.0000 0.0000 0.0000 22.0462 0.0000 0.0000
# 5 0.0000 0.0000 0.0000 0.0000 22.0462 0.0000
# 6 0.0000 0.0000 0.0000 0.0000 0.0000 28.7227
#
#
#
# Elastic Compliance Matrix: (Units=1/GPa)
#
#
# Indices 1 2 3 4 5 6 
#
# 1 0.011896 -0.005511 -0.002946 0.000000 0.000000 0.000000
# 2 -0.005511 0.011896 -0.002946 0.000000 0.000000 0.000000
# 3 -0.002946 -0.002946 0.015100 0.000000 0.000000 0.000000
# 4 0.000000 0.000000 0.000000 0.045359 0.000000 0.000000
# 5 0.000000 0.000000 0.000000 0.000000 0.045359 0.000000
# 6 0.000000 0.000000 0.000000 0.000000 0.000000 0.034816
#
#
# Mechanical properties :
#
#
# Convention : Reuss Voigt Hill
#
# Bulk Modulus (GPa) = 62.15781 67.97339 65.06560
# Shear Modulus (GPa) = 25.96123 27.09041 26.52582
#
# Velocity S-wave (km/s) = 3.68522 3.76451 3.72507
# Velocity P-wave (km/s) = 7.11503 7.37926 7.24835
#
# Compressibility (1/GPa) = 0.01608808
#
# Stress axis : x y z
#
# Youngs Moduli (GPa) = 84.05885 84.05885 66.22481
#
# Poissons Ratio (x) = 0.46328 0.19507
# Poissons Ratio (y) = 0.46328 0.19507
# Poissons Ratio (z) = 0.24760 0.24760
#
# Static dielectric constant tensor:
#      x y z
#    x 3.570640 0.000000 0.000000 
#    y 0.000000 3.570640 0.000000 
#    z 0.000000 0.000000 3.610820 
# 
# 
# High freq. dielectric constant tensor:
#      x y z
#    x 1.742710 0.000000 0.000000 
#    y 0.000000 1.742710 0.000000 
#    z 0.000000 0.000000 1.746810 
# 
# From -- ./inp_files/1700.got.cif
#   From: 2010.03.12/outbox.cif.g09.slc.cpg/sg194_1_cif.got.tgz:1700.got - 2010.04.01 12:26:19.
