data_PCOD8330618
_publ_section_title
;
Structure prediction by ZEFSAII (Michael W. Deem and Ramdas Pophale) SiO2 
 PCOD8330618
Probable space group: P 63/M M C
;
_chemical_formula_sum "Si O2"
_cell_formula_units_Z 144
_cell_length_a 21.562743
_cell_length_b 21.562743
_cell_length_c 19.753460
_cell_angle_alpha 90.000000
_cell_angle_beta 90.000000
_cell_angle_gamma 120.000000
_cell_volume 7953.931059
_symmetry_space_group_name_H-M "P 63/M M C"
_symmetry_group_IT_number 194
_symmetry_cell_setting 'hexagonal'
loop_
_space_group_symop_operation_xyz
x,y,z
x-y,x,1/2+z
-y,x-y,z
-x,-y,1/2+z
-x+y,-x,z
y,-x+y,1/2+z
x-y,-y,-z
-x,-x+y,-z
y,x,-z
-y,-x,1/2-z
-x+y,y,1/2-z
x,x-y,1/2-z
-x,-y,-z
-x+y,-x,1/2-z
y,-x+y,-z
x,y,1/2-z
x-y,x,-z
-y,x-y,1/2-z
-x+y,y,z
x,x-y,z
-y,-x,z
y,x,1/2+z
x-y,-y,1/2+z
-x,-x+y,1/2+z
loop_
_atom_site_type_symbol
_atom_site_label
_atom_site_fract_x
_atom_site_fract_y
_atom_site_fract_z
Si Si1 0.192489 0.669780 0.531613
Si Si2 0.389415 0.068488 0.543998
Si Si3 0.007776 0.375456 0.824616
Si Si4 0.504346 0.355355 0.323128
Si Si5 0.236505 0.046856 0.937979
Si Si6 0.064632 0.793672 0.672479
O O1 0.178952 0.589476 0.524486
O O2 0.272942 0.727059 0.508457
O O3 0.138131 0.679609 0.483611
O O4 0.183985 0.690184 0.609082
O O5 0.405367 0.055736 0.621278
O O6 0.320068 0.077917 0.543761
O O7 0.375149 0.000000 0.500000
O O8 0.972080 0.353262 0.750000
O O9 0.062472 0.460018 0.830160
O O10 0.060048 0.342527 0.838859
O O11 0.483152 0.312298 0.250000
O O12 0.587424 0.412577 0.318962
O O13 0.223061 0.111531 0.924543
O O14 0.208171 0.998590 0.871167
O O15 0.188191 0.000000 0.000000
O O16 0.050589 0.805129 0.750000
O O17 0.142791 0.857210 0.648602
#
# Coordination Sequence:
#
# PCOD8330618 Si02
#       6
#    24  24  24  24  24  24
#     4  11  23  37  54  75 106 146 186 223 261 311
#     4  10  19  34  53  82 106 134 171 221 271 318
#     4   9  17  31  51  79 111 138 168 208 263 320
#     4   9  18  32  50  75 107 142 177 211 250 302
#     4  10  20  33  51  74 102 133 167 210 260 310
#     4   9  18  32  51  75 102 133 170 210 253 307
#
# _framework density 18.104255999999999
#
# number of rings (size 3 to 8) (size 9 to 14) (size 15 to 20)
#    0.000    2.333    1.667    1.167    0.000    2.333 
#    0.000    1.667    0.000    5.500    0.000    0.000 
#    0.000    1.333    0.000    0.000    0.000    0.000 
#
# Total GULP energy -1784525.530971 kJ/mol
# GULP energy per Si atom -12392.538410 kJ/mol
# Density = 1.806305 g / cm^3
# Si number density = 18.104256 Si / 1000 Ang^3
#
#
#
# Elastic Constant Matrix: (Units=GPa)
#
#
# Indices 1 2 3 4 5 6 
#
# 1 68.6674 27.9897 44.4108 0.0000 0.0000 0.0000
# 2 27.9897 68.6674 44.4108 0.0000 0.0000 0.0000
# 3 44.4108 44.4108 113.6156 0.0000 0.0000 0.0000
# 4 0.0000 0.0000 0.0000 17.2841 0.0000 0.0000
# 5 0.0000 0.0000 0.0000 0.0000 17.2841 0.0000
# 6 0.0000 0.0000 0.0000 0.0000 0.0000 20.3388
#
#
#
# Elastic Compliance Matrix: (Units=1/GPa)
#
#
# Indices 1 2 3 4 5 6 
#
# 1 0.020364 -0.004219 -0.006311 0.000000 0.000000 0.000000
# 2 -0.004219 0.020364 -0.006311 0.000000 0.000000 0.000000
# 3 -0.006311 -0.006311 0.013735 0.000000 0.000000 0.000000
# 4 0.000000 0.000000 0.000000 0.057857 0.000000 0.000000
# 5 0.000000 0.000000 0.000000 0.000000 0.057857 0.000000
# 6 0.000000 0.000000 0.000000 0.000000 0.000000 0.049167
#
#
# Mechanical properties :
#
#
# Convention : Reuss Voigt Hill
#
# Bulk Modulus (GPa) = 48.11862 53.84144 50.98003
# Shear Modulus (GPa) = 19.23418 19.92400 19.57909
#
# Velocity S-wave (km/s) = 3.26300 3.32100 3.29213
# Velocity P-wave (km/s) = 6.39004 6.67155 6.53231
#
# Compressibility (1/GPa) = 0.02078198
#
# Stress axis : x y z
#
# Youngs Moduli (GPa) = 49.10538 49.10538 72.80487
#
# Poissons Ratio (x) = 0.20718 0.45947
# Poissons Ratio (y) = 0.20718 0.45947
# Poissons Ratio (z) = 0.30990 0.30990
#
# Static dielectric constant tensor:
#      x y z
#    x 3.113760 0.000000 0.000000 
#    y 0.000000 3.113760 0.000000 
#    z 0.000000 0.000000 3.662360 
# 
# 
# High freq. dielectric constant tensor:
#      x y z
#    x 1.678500 0.000000 0.000000 
#    y 0.000000 1.678500 0.000000 
#    z 0.000000 0.000000 1.713680 
# 
# From -- ./inp_files/8265.got.cif
#   From: 2010.03.12/outbox.cif.g09.slc.cpg/sg194_5_cif.got.tgz:8265.got - 2010.04.01 12:26:19.
