data_PCOD8330378
_publ_section_title
;
Structure prediction by ZEFSAII (Michael W. Deem and Ramdas Pophale) SiO2 
 PCOD8330378
Probable space group: P 63/M M C
;
_chemical_formula_sum "Si O2"
_cell_formula_units_Z 120
_cell_length_a 16.218829
_cell_length_b 16.218829
_cell_length_c 30.461479
_cell_angle_alpha 90.000000
_cell_angle_beta 90.000000
_cell_angle_gamma 120.000000
_cell_volume 6939.378999
_symmetry_space_group_name_H-M "P 63/M M C"
_symmetry_group_IT_number 194
_symmetry_cell_setting 'hexagonal'
loop_
_space_group_symop_operation_xyz
x,y,z
x-y,x,1/2+z
-y,x-y,z
-x,-y,1/2+z
-x+y,-x,z
y,-x+y,1/2+z
x-y,-y,-z
-x,-x+y,-z
y,x,-z
-y,-x,1/2-z
-x+y,y,1/2-z
x,x-y,1/2-z
-x,-y,-z
-x+y,-x,1/2-z
y,-x+y,-z
x,y,1/2-z
x-y,x,-z
-y,x-y,1/2-z
-x+y,y,z
x,x-y,z
-y,-x,z
y,x,1/2+z
x-y,-y,1/2+z
-x,-x+y,1/2+z
loop_
_atom_site_type_symbol
_atom_site_label
_atom_site_fract_x
_atom_site_fract_y
_atom_site_fract_z
Si Si1 0.296087 0.245197 0.701905
Si Si2 0.629182 0.964923 0.067391
Si Si3 0.332325 0.857345 0.517491
Si Si4 0.810498 0.809387 0.116926
Si Si5 0.142232 0.478201 0.349887
O O1 0.273875 0.273122 0.750000
O O2 0.283906 0.141953 0.704374
O O3 0.224066 0.241992 0.664574
O O4 0.404459 0.320839 0.688813
O O5 0.728510 0.972759 0.081051
O O6 0.552338 0.919367 0.105867
O O7 0.644444 0.069248 0.057431
O O8 0.590895 0.897051 0.025283
O O9 0.422899 0.845798 0.507328
O O10 0.244011 0.755990 0.531031
O O11 0.836926 0.918463 0.119604
O O12 0.902418 0.804835 0.101929
O O13 0.240403 0.480805 0.359694
O O14 0.162893 0.581447 0.334811
#
# Coordination Sequence:
#
# PCOD8330378 Si02
#       5
#    24  24  24  24  24
#     4   8  16  30  45  63  91 123 151 185 232 281
#     4  10  20  34  49  68  95 130 157 187 240 298
#     4  11  21  34  52  73  96 122 159 201 239 280
#     4  10  19  32  50  71  94 121 157 197 236 279
#     4  10  18  29  46  68  94 124 161 200 238 283
#
# _framework density 17.292612999999999
#
# number of rings (size 3 to 8) (size 9 to 14) (size 15 to 20)
#    0.000    2.200    0.000    6.600    0.000    0.800 
#    0.000    2.000    0.000    2.400    0.000    7.000 
#    0.000    0.000    0.000    0.000    0.000   67.200 
#
# Total GULP energy -1487868.704722 kJ/mol
# GULP energy per Si atom -12398.905873 kJ/mol
# Density = 1.725325 g / cm^3
# Si number density = 17.292613 Si / 1000 Ang^3
#
#
#
# Elastic Constant Matrix: (Units=GPa)
#
#
# Indices 1 2 3 4 5 6 
#
# 1 89.1065 34.6406 18.6951 0.0000 0.0000 0.0000
# 2 34.6406 89.1065 18.6951 0.0000 0.0000 0.0000
# 3 18.6951 18.6951 52.0186 0.0000 0.0000 0.0000
# 4 0.0000 0.0000 0.0000 13.1498 0.0000 0.0000
# 5 0.0000 0.0000 0.0000 0.0000 13.1498 0.0000
# 6 0.0000 0.0000 0.0000 0.0000 0.0000 27.2330
#
#
#
# Elastic Compliance Matrix: (Units=1/GPa)
#
#
# Indices 1 2 3 4 5 6 
#
# 1 0.013713 -0.004647 -0.003258 0.000000 0.000000 0.000000
# 2 -0.004647 0.013713 -0.003258 0.000000 0.000000 0.000000
# 3 -0.003258 -0.003258 0.021566 0.000000 0.000000 0.000000
# 4 0.000000 0.000000 0.000000 0.076047 0.000000 0.000000
# 5 0.000000 0.000000 0.000000 0.000000 0.076047 0.000000
# 6 0.000000 0.000000 0.000000 0.000000 0.000000 0.036720
#
#
# Mechanical properties :
#
#
# Convention : Reuss Voigt Hill
#
# Bulk Modulus (GPa) = 37.50320 41.58813 39.54567
# Shear Modulus (GPa) = 18.58596 21.25323 19.91959
#
# Velocity S-wave (km/s) = 3.28196 3.50956 3.39767
# Velocity P-wave (km/s) = 6.00801 6.36589 6.18954
#
# Compressibility (1/GPa) = 0.02666439
#
# Stress axis : x y z
#
# Youngs Moduli (GPa) = 72.92480 72.92480 46.36993
#
# Poissons Ratio (x) = 0.33891 0.15107
# Poissons Ratio (y) = 0.33891 0.15107
# Poissons Ratio (z) = 0.23759 0.23759
#
# Static dielectric constant tensor:
#      x y z
#    x 3.130140 0.000000 0.000000 
#    y 0.000000 3.130140 0.000000 
#    z 0.000000 0.000000 3.387480 
# 
# 
# High freq. dielectric constant tensor:
#      x y z
#    x 1.660500 0.000000 0.000000 
#    y 0.000000 1.660500 0.000000 
#    z 0.000000 0.000000 1.662070 
# 
# From -- ./inp_files/11713.got.cif
#   From: 2010.03.12/outbox.cif.g09.slc.cpg/sg194_6_cif.got.tgz:11713.got - 2010.04.01 12:26:19.
