data_PCOD8330584
_publ_section_title
;
Structure prediction by ZEFSAII (Michael W. Deem and Ramdas Pophale) SiO2 
 PCOD8330584
Probable space group: P 63/M M C
;
_chemical_formula_sum "Si O2"
_cell_formula_units_Z 156
_cell_length_a 21.761993
_cell_length_b 21.761993
_cell_length_c 20.640504
_cell_angle_alpha 90.000000
_cell_angle_beta 90.000000
_cell_angle_gamma 120.000000
_cell_volume 8465.415166
_symmetry_space_group_name_H-M "P 63/M M C"
_symmetry_group_IT_number 194
_symmetry_cell_setting 'hexagonal'
loop_
_space_group_symop_operation_xyz
x,y,z
x-y,x,1/2+z
-y,x-y,z
-x,-y,1/2+z
-x+y,-x,z
y,-x+y,1/2+z
x-y,-y,-z
-x,-x+y,-z
y,x,-z
-y,-x,1/2-z
-x+y,y,1/2-z
x,x-y,1/2-z
-x,-y,-z
-x+y,-x,1/2-z
y,-x+y,-z
x,y,1/2-z
x-y,x,-z
-y,x-y,1/2-z
-x+y,y,z
x,x-y,z
-y,-x,z
y,x,1/2+z
x-y,-y,1/2+z
-x,-x+y,1/2+z
loop_
_atom_site_type_symbol
_atom_site_label
_atom_site_fract_x
_atom_site_fract_y
_atom_site_fract_z
Si Si1 0.332857 0.526617 0.477868
Si Si2 0.187388 0.666261 0.250000
Si Si3 0.345464 0.949317 0.676197
Si Si4 0.475173 0.666920 0.627696
Si Si5 0.527058 0.911541 0.131793
Si Si6 0.799004 0.057155 0.176503
Si Si7 0.856714 0.856926 0.426515
O O1 0.258491 0.516981 0.453999
O O2 0.391700 0.608301 0.465554
O O3 0.329807 0.505683 0.552339
O O4 0.351386 0.475263 0.437168
O O5 0.261215 0.738786 0.250000
O O6 0.203433 0.601717 0.250000
O O7 0.142363 0.664223 0.187524
O O8 0.366261 0.973336 0.750000
O O9 0.347573 0.877544 0.666348
O O10 0.268135 0.935320 0.658675
O O11 0.400818 0.013736 0.632087
O O12 0.480537 0.740269 0.650649
O O13 0.395840 0.604161 0.642176
O O14 0.464445 0.928890 0.140626
O O15 0.794588 0.028585 0.250000
O O16 0.865312 0.134689 0.168317
O O17 0.803561 0.004152 0.125003
O O18 0.830514 0.830514 0.500000
O O19 0.936207 0.872414 0.416796
O O20 0.856997 0.928499 0.410824
#
# Coordination Sequence:
#
# PCOD8330584 Si02
#       7
#    24  12  24  24  24  24  24
#     4   9  18  34  55  80 109 141 177 222 277 329
#     4  10  19  32  52  78 107 140 182 230 274 316
#     4  11  22  38  57  75 106 150 188 218 270 327
#     4  10  21  37  59  85 110 137 176 229 285 336
#     4  10  20  34  53  77 107 143 181 221 265 321
#     4   9  19  36  56  75 102 142 188 227 261 317
#     4   9  17  32  55  83 112 140 172 217 275 328
#
# _framework density 18.427921000000001
#
# number of rings (size 3 to 8) (size 9 to 14) (size 15 to 20)
#    0.000    2.308    0.769    1.923    0.000    4.615 
#    2.769    5.385    0.000    1.846    0.000    0.000 
#    0.000    0.000    0.000    0.000    0.000    0.000 
#
# Total GULP energy -1934710.090691 kJ/mol
# GULP energy per Si atom -12401.987761 kJ/mol
# Density = 1.838598 g / cm^3
# Si number density = 18.427921 Si / 1000 Ang^3
#
#
#
# Elastic Constant Matrix: (Units=GPa)
#
#
# Indices 1 2 3 4 5 6 
#
# 1 94.0327 39.4771 32.3996 0.0000 0.0000 0.0000
# 2 39.4771 94.0327 32.3996 0.0000 0.0000 0.0000
# 3 32.3996 32.3996 57.3485 0.0000 0.0000 0.0000
# 4 0.0000 0.0000 0.0000 28.6126 0.0000 0.0000
# 5 0.0000 0.0000 0.0000 0.0000 28.6126 0.0000
# 6 0.0000 0.0000 0.0000 0.0000 0.0000 27.2778
#
#
#
# Elastic Compliance Matrix: (Units=1/GPa)
#
#
# Indices 1 2 3 4 5 6 
#
# 1 0.014325 -0.004005 -0.005830 0.000000 0.000000 0.000000
# 2 -0.004005 0.014325 -0.005830 0.000000 0.000000 0.000000
# 3 -0.005830 -0.005830 0.024025 0.000000 0.000000 0.000000
# 4 0.000000 0.000000 0.000000 0.034950 0.000000 0.000000
# 5 0.000000 0.000000 0.000000 0.000000 0.034950 0.000000
# 6 0.000000 0.000000 0.000000 0.000000 0.000000 0.036660
#
#
# Mechanical properties :
#
#
# Convention : Reuss Voigt Hill
#
# Bulk Modulus (GPa) = 46.85263 50.44069 48.64666
# Shear Modulus (GPa) = 25.29347 26.30980 25.80164
#
# Velocity S-wave (km/s) = 3.70883 3.78261 3.74590
# Velocity P-wave (km/s) = 6.61971 6.81974 6.72047
#
# Compressibility (1/GPa) = 0.02134352
#
# Stress axis : x y z
#
# Youngs Moduli (GPa) = 69.80868 69.80868 41.62329
#
# Poissons Ratio (x) = 0.27959 0.24268
# Poissons Ratio (y) = 0.27959 0.24268
# Poissons Ratio (z) = 0.40700 0.40700
#
# Static dielectric constant tensor:
#      x y z
#    x 3.303000 0.000000 0.000000 
#    y 0.000000 3.303000 0.000000 
#    z 0.000000 0.000000 3.525410 
# 
# 
# High freq. dielectric constant tensor:
#      x y z
#    x 1.710010 0.000000 0.000000 
#    y 0.000000 1.710010 0.000000 
#    z 0.000000 0.000000 1.718480 
# 
# From -- ./inp_files/8395.got.cif
#   From: 2010.03.12/outbox.cif.g09.slc.cpg/sg194_5_cif.got.tgz:8395.got - 2010.04.01 12:26:19.
