data_PCOD8330056
_publ_section_title
;
Structure prediction by ZEFSAII (Michael W. Deem and Ramdas Pophale) SiO2 
 PCOD8330056
Probable space group: P 63/M C M
;
_chemical_formula_sum "Si O2"
_cell_formula_units_Z 144
_cell_length_a 30.155704
_cell_length_b 30.155704
_cell_length_c 8.832674
_cell_angle_alpha 90.000000
_cell_angle_beta 90.000000
_cell_angle_gamma 120.000000
_cell_volume 6956.035293
_symmetry_space_group_name_H-M "P 63/M C M"
_symmetry_group_IT_number 193
_symmetry_cell_setting 'hexagonal'
loop_
_space_group_symop_operation_xyz
x,y,z
x-y,x,1/2+z
-y,x-y,z
-x,-y,1/2+z
-x+y,-x,z
y,-x+y,1/2+z
x-y,-y,1/2-z
-x,-x+y,1/2-z
y,x,1/2-z
-y,-x,-z
-x+y,y,-z
x,x-y,-z
-x,-y,-z
-x+y,-x,1/2-z
y,-x+y,-z
x,y,1/2-z
x-y,x,-z
-y,x-y,1/2-z
-x+y,y,1/2+z
x,x-y,1/2+z
-y,-x,1/2+z
y,x,z
x-y,-y,z
-x,-x+y,z
loop_
_atom_site_type_symbol
_atom_site_label
_atom_site_fract_x
_atom_site_fract_y
_atom_site_fract_z
Si Si1 0.427192 0.940837 0.417033
Si Si2 0.697463 0.942447 0.584258
Si Si3 0.814513 0.278215 0.078488
Si Si4 0.664507 0.422577 0.419233
Si Si5 0.322571 0.917667 0.572531
Si Si6 0.785721 0.939793 0.071122
O O1 0.457924 0.915848 0.500000
O O2 0.409106 0.915346 0.250000
O O3 0.378527 0.935946 0.505854
O O4 0.467295 0.000000 0.395990
O O5 0.679291 0.914858 0.750000
O O6 0.651459 0.944534 0.497942
O O7 0.727339 0.919787 0.488067
O O8 0.740136 0.000000 0.614444
O O9 0.822972 0.264847 0.250000
O O10 0.806836 0.327238 0.079210
O O11 0.765958 0.234043 0.000000
O O12 0.858835 0.286358 0.966339
O O13 0.610761 0.389239 0.500000
O O14 0.708687 0.417373 0.500000
O O15 0.662046 0.402861 0.250000
O O16 0.328588 0.928316 0.750000
O O17 0.782238 0.932256 0.250000
O O18 0.825376 0.000000 0.030729
O O19 0.805009 0.902505 0.000000
#
# Coordination Sequence:
#
# PCOD8330056 Si02
#       6
#    24  24  24  24  24  24
#     4  10  21  38  59  83 112 146 186 234 288 346
#     4  10  21  38  60  86 117 153 195 244 294 344
#     4  10  22  40  57  75 102 135 173 218 268 322
#     4  10  20  34  54  76  99 126 159 203 254 313
#     4  12  24  37  57  83 112 148 189 234 287 350
#     4  10  21  38  62  94 131 170 213 260 309 362
#
# _framework density 20.701449
#
# number of rings (size 3 to 8) (size 9 to 14) (size 15 to 20)
#    0.000    1.667    0.000    4.667    0.000    8.333 
#    0.000    5.000    0.000    0.167    0.000    0.000 
#    0.000    0.000    0.000    0.000    0.000    0.000 
#
# Total GULP energy -1784511.942782 kJ/mol
# GULP energy per Si atom -12392.444047 kJ/mol
# Density = 2.065433 g / cm^3
# Si number density = 20.701449 Si / 1000 Ang^3
#
#
#
# Elastic Constant Matrix: (Units=GPa)
#
#
# Indices 1 2 3 4 5 6 
#
# 1 84.5391 32.1749 46.4664 0.0000 0.0000 0.0000
# 2 32.1749 84.5391 46.4664 0.0000 0.0000 0.0000
# 3 46.4664 46.4664 179.9163 0.0000 0.0000 0.0000
# 4 0.0000 0.0000 0.0000 31.6694 0.0000 0.0000
# 5 0.0000 0.0000 0.0000 0.0000 31.6694 0.0000
# 6 0.0000 0.0000 0.0000 0.0000 0.0000 26.1821
#
#
#
# Elastic Compliance Matrix: (Units=1/GPa)
#
#
# Indices 1 2 3 4 5 6 
#
# 1 0.014942 -0.004155 -0.002786 0.000000 0.000000 0.000000
# 2 -0.004155 0.014942 -0.002786 0.000000 0.000000 0.000000
# 3 -0.002786 -0.002786 0.006997 0.000000 0.000000 0.000000
# 4 0.000000 0.000000 0.000000 0.031576 0.000000 0.000000
# 5 0.000000 0.000000 0.000000 0.000000 0.031576 0.000000
# 6 0.000000 0.000000 0.000000 0.000000 0.000000 0.038194
#
#
# Mechanical properties :
#
#
# Convention : Reuss Voigt Hill
#
# Bulk Modulus (GPa) = 57.38422 66.57888 61.98155
# Shear Modulus (GPa) = 30.58308 32.82996 31.70652
#
# Velocity S-wave (km/s) = 3.84779 3.98663 3.91782
# Velocity P-wave (km/s) = 6.89353 7.30905 7.10433
#
# Compressibility (1/GPa) = 0.01742639
#
# Stress axis : x y z
#
# Youngs Moduli (GPa) = 66.92760 66.92760 142.91770
#
# Poissons Ratio (x) = 0.27812 0.39812
# Poissons Ratio (y) = 0.27812 0.39812
# Poissons Ratio (z) = 0.18644 0.18644
#
# Static dielectric constant tensor:
#      x y z
#    x 3.724340 0.000000 0.000000 
#    y 0.000000 3.724340 0.000000 
#    z 0.000000 0.000000 4.211750 
# 
# 
# High freq. dielectric constant tensor:
#      x y z
#    x 1.800590 0.000000 0.000000 
#    y 0.000000 1.800590 0.000000 
#    z 0.000000 0.000000 1.829010 
# 
# From -- ./inp_files/1528.got.cif
#   From: 2010.03.12/outbox.cif.g09.slc.cpg/sg193_1_cif.got.tgz:1528.got - 2010.04.01 12:20:39.
