data_PCOD8330140
_publ_section_title
;
Structure prediction by ZEFSAII (Michael W. Deem and Ramdas Pophale) SiO2 
 PCOD8330140
Probable space group: P 63/M C M
;
_chemical_formula_sum "Si O2"
_cell_formula_units_Z 128
_cell_length_a 18.508674
_cell_length_b 18.508674
_cell_length_c 21.523256
_cell_angle_alpha 90.000000
_cell_angle_beta 90.000000
_cell_angle_gamma 120.000000
_cell_volume 6385.416280
_symmetry_space_group_name_H-M "P 63/M C M"
_symmetry_group_IT_number 193
_symmetry_cell_setting 'hexagonal'
loop_
_space_group_symop_operation_xyz
x,y,z
x-y,x,1/2+z
-y,x-y,z
-x,-y,1/2+z
-x+y,-x,z
y,-x+y,1/2+z
x-y,-y,1/2-z
-x,-x+y,1/2-z
y,x,1/2-z
-y,-x,-z
-x+y,y,-z
x,x-y,-z
-x,-y,-z
-x+y,-x,1/2-z
y,-x+y,-z
x,y,1/2-z
x-y,x,-z
-y,x-y,1/2-z
-x+y,y,1/2+z
x,x-y,1/2+z
-y,-x,1/2+z
y,x,z
x-y,-y,z
-x,-x+y,z
loop_
_atom_site_type_symbol
_atom_site_label
_atom_site_fract_x
_atom_site_fract_y
_atom_site_fract_z
Si Si1 0.581528 0.491131 0.320272
Si Si2 0.315712 0.510760 0.124386
Si Si3 0.466925 0.370809 0.009850
Si Si4 0.333334 0.666667 0.073191
Si Si5 0.321590 0.223801 0.551039
Si Si6 0.617085 0.844583 0.819008
O O1 0.554112 0.465123 0.250000
O O2 0.521384 0.521384 0.351790
O O3 0.569426 0.409974 0.354052
O O4 0.673591 0.568711 0.323690
O O5 0.312078 0.451302 0.068829
O O6 0.284768 0.572208 0.098635
O O7 0.254043 0.450433 0.177181
O O8 0.428808 0.428808 0.024860
O O9 0.567751 0.432250 0.000000
O O10 0.415803 0.304700 0.955171
O O11 0.333334 0.666667 0.000000
O O12 0.303691 0.151846 0.500000
O O13 0.252580 0.252580 0.541368
O O14 0.317842 0.191964 0.622658
O O15 0.660221 0.860001 0.750000
#
# Coordination Sequence:
#
# PCOD8330140 Si02
#       6
#    24  24  24   8  24  24
#     4  10  21  37  55  77 109 155 207 252 299 358
#     4  12  21  37  53  76 114 152 197 257 305 359
#     4  10  21  34  57  86 115 154 201 253 308 359
#     4  12  27  33  49  77 106 156 205 263 313 345
#     4  11  23  42  66  92 123 157 201 255 311 375
#     4  11  23  38  58  86 120 160 205 254 306 360
#
# _framework density 20.045677000000001
#
# number of rings (size 3 to 8) (size 9 to 14) (size 15 to 20)
#    0.000    1.125    3.750    3.375    2.625    2.625 
#    0.000    0.000    0.000    1.875    0.000    0.000 
#    0.000    0.000    0.000    0.000    0.000    0.000 
#
# Total GULP energy -1586151.909331 kJ/mol
# GULP energy per Si atom -12391.811792 kJ/mol
# Density = 2.000005 g / cm^3
# Si number density = 20.045677 Si / 1000 Ang^3
#
#
#
# Elastic Constant Matrix: (Units=GPa)
#
#
# Indices 1 2 3 4 5 6 
#
# 1 62.4379 24.8682 34.8081 0.0000 -0.0001 0.0001
# 2 24.8682 62.4375 34.8079 0.0002 0.0001 0.0000
# 3 34.8081 34.8079 144.2098 0.0001 0.0000 -0.0001
# 4 0.0000 0.0002 0.0001 25.6232 0.0001 -0.0001
# 5 -0.0001 0.0001 0.0000 0.0001 25.6237 0.0001
# 6 0.0001 0.0000 -0.0001 -0.0001 0.0001 18.7844
#
#
#
# Elastic Compliance Matrix: (Units=1/GPa)
#
#
# Indices 1 2 3 4 5 6 
#
# 1 0.020401 -0.006217 -0.003424 0.000000 0.000000 0.000000
# 2 -0.006217 0.020401 -0.003424 0.000000 0.000000 0.000000
# 3 -0.003424 -0.003424 0.008587 0.000000 0.000000 0.000000
# 4 0.000000 0.000000 0.000000 0.039027 0.000000 0.000000
# 5 0.000000 0.000000 0.000000 0.000000 0.039026 0.000000
# 6 0.000000 0.000000 0.000000 0.000000 0.000000 0.053236
#
#
# Mechanical properties :
#
#
# Convention : Reuss Voigt Hill
#
# Bulk Modulus (GPa) = 42.99134 50.89485 46.94309
# Shear Modulus (GPa) = 23.30366 25.64633 24.47499
#
# Velocity S-wave (km/s) = 3.41329 3.58074 3.49802
# Velocity P-wave (km/s) = 6.08500 6.52228 6.30743
#
# Compressibility (1/GPa) = 0.02326050
#
# Stress axis : x y z
#
# Youngs Moduli (GPa) = 49.01832 49.01805 116.45459
#
# Poissons Ratio (x) = 0.30473 0.39869
# Poissons Ratio (y) = 0.30473 0.39869
# Poissons Ratio (z) = 0.16782 0.16782
#
# Static dielectric constant tensor:
#      x y z
#    x 3.570900 0.000000 0.000000 
#    y 0.000000 3.570880 0.000000 
#    z 0.000000 0.000000 4.184290 
# 
# 
# High freq. dielectric constant tensor:
#      x y z
#    x 1.752640 0.000000 0.000000 
#    y 0.000000 1.752640 0.000000 
#    z 0.000000 0.000000 1.798400 
# 
# From -- ./inp_files/6468.got.cif
#   From: 2010.03.12/outbox.cif.g09.slc.cpg/sg193_4_cif.got.tgz:6468.got - 2010.04.01 12:20:39.
