data_PCOD8330003
_publ_section_title
;
Structure prediction by ZEFSAII (Michael W. Deem and Ramdas Pophale) SiO2 
 PCOD8330003
Probable space group: P 63/M C M
;
_chemical_formula_sum "Si O2"
_cell_formula_units_Z 128
_cell_length_a 21.524060
_cell_length_b 21.524060
_cell_length_c 18.299396
_cell_angle_alpha 90.000000
_cell_angle_beta 90.000000
_cell_angle_gamma 120.000000
_cell_volume 7342.023582
_symmetry_space_group_name_H-M "P 63/M C M"
_symmetry_group_IT_number 193
_symmetry_cell_setting 'hexagonal'
loop_
_space_group_symop_operation_xyz
x,y,z
x-y,x,1/2+z
-y,x-y,z
-x,-y,1/2+z
-x+y,-x,z
y,-x+y,1/2+z
x-y,-y,1/2-z
-x,-x+y,1/2-z
y,x,1/2-z
-y,-x,-z
-x+y,y,-z
x,x-y,-z
-x,-y,-z
-x+y,-x,1/2-z
y,-x+y,-z
x,y,1/2-z
x-y,x,-z
-y,x-y,1/2-z
-x+y,y,1/2+z
x,x-y,1/2+z
-y,-x,1/2+z
y,x,z
x-y,-y,z
-x,-x+y,z
loop_
_atom_site_type_symbol
_atom_site_label
_atom_site_fract_x
_atom_site_fract_y
_atom_site_fract_z
Si Si1 0.081659 0.789982 0.033176
Si Si2 0.083803 0.558944 0.580636
Si Si3 0.661397 0.191377 0.163909
Si Si4 0.666667 0.333334 0.337293
Si Si5 0.209305 0.377463 0.165744
Si Si6 0.918341 0.619098 0.598022
O O1 0.104053 0.784815 0.115826
O O2 0.000000 0.772853 0.033564
O O3 0.130414 0.869587 0.000000
O O4 0.091604 0.733744 0.983181
O O5 0.110228 0.555114 0.500000
O O6 0.123422 0.534824 0.637490
O O7 0.103383 0.639857 0.596320
O O8 0.000000 0.503852 0.590005
O O9 0.656869 0.192537 0.250000
O O10 0.669623 0.264807 0.131549
O O11 0.729606 0.185280 0.139391
O O12 0.666667 0.333334 0.250000
O O13 0.218565 0.362082 0.250000
O O14 0.132309 0.371585 0.155731
O O15 0.000000 0.668795 0.624909
#
# Coordination Sequence:
#
# PCOD8330003 Si02
#       6
#    24  24  24   8  24  24
#     4   9  18  34  55  77 102 132 164 198 240 290
#     4  10  20  33  49  68  91 121 159 205 254 299
#     4  10  20  33  48  66  92 126 163 202 246 298
#     4   9  18  33  49  62  85 126 166 200 241 288
#     4  10  20  32  49  74 101 129 161 201 249 298
#     4   9  18  33  52  71  94 127 165 206 249 294
#
# _framework density 17.433886000000001
#
# number of rings (size 3 to 8) (size 9 to 14) (size 15 to 20)
#    0.000    2.438    0.000    2.250    0.000    5.625 
#    0.000    6.562    0.000    0.188    0.000    0.000 
#    0.000    0.000    0.000    0.562    0.000    0.000 
#
# Total GULP energy -1587440.684634 kJ/mol
# GULP energy per Si atom -12401.880349 kJ/mol
# Density = 1.739421 g / cm^3
# Si number density = 17.433886 Si / 1000 Ang^3
#
#
#
# Elastic Constant Matrix: (Units=GPa)
#
#
# Indices 1 2 3 4 5 6 
#
# 1 100.2990 56.3785 35.3907 0.0000 0.0000 0.0000
# 2 56.3785 100.2993 35.3907 0.0000 0.0000 0.0001
# 3 35.3907 35.3907 49.8441 0.0001 0.0000 0.0000
# 4 0.0000 0.0000 0.0001 20.8704 0.0000 0.0000
# 5 0.0000 0.0000 0.0000 0.0000 20.8703 0.0000
# 6 0.0000 0.0001 0.0000 0.0000 0.0000 21.9604
#
#
#
# Elastic Compliance Matrix: (Units=1/GPa)
#
#
# Indices 1 2 3 4 5 6 
#
# 1 0.016083 -0.006686 -0.006672 0.000000 0.000000 0.000000
# 2 -0.006686 0.016082 -0.006672 0.000000 0.000000 0.000000
# 3 -0.006672 -0.006672 0.029537 0.000000 0.000000 0.000000
# 4 0.000000 0.000000 0.000000 0.047915 0.000000 0.000000
# 5 0.000000 0.000000 0.000000 0.000000 0.047915 0.000000
# 6 0.000000 0.000000 0.000000 0.000000 0.000000 0.045536
#
#
# Mechanical properties :
#
#
# Convention : Reuss Voigt Hill
#
# Bulk Modulus (GPa) = 46.20484 56.08471 51.14477
# Shear Modulus (GPa) = 19.97271 20.95906 20.46588
#
# Velocity S-wave (km/s) = 3.38838 3.47104 3.42996
# Velocity P-wave (km/s) = 6.47059 6.95010 6.71463
#
# Compressibility (1/GPa) = 0.02164276
#
# Stress axis : x y z
#
# Youngs Moduli (GPa) = 62.17930 62.17953 33.85587
#
# Poissons Ratio (x) = 0.41572 0.22588
# Poissons Ratio (y) = 0.41572 0.22588
# Poissons Ratio (z) = 0.41485 0.41485
#
# Static dielectric constant tensor:
#      x y z
#    x 3.250820 0.000000 0.000000 
#    y 0.000000 3.250810 0.000000 
#    z 0.000000 0.000000 3.082570 
# 
# 
# High freq. dielectric constant tensor:
#      x y z
#    x 1.670210 0.000000 0.000000 
#    y 0.000000 1.670210 0.000000 
#    z 0.000000 0.000000 1.664880 
# 
# From -- ./inp_files/6498.got.cif
#   From: 2010.03.12/outbox.cif.g09.slc.cpg/sg193_4_cif.got.tgz:6498.got - 2010.04.01 12:20:39.
