data_PCOD8330595
_publ_section_title
;
Structure prediction by ZEFSAII (Michael W. Deem and Ramdas Pophale) SiO2 
 PCOD8330595
Probable space group: P 63/M M C
;
_chemical_formula_sum "Si O2"
_cell_formula_units_Z 132
_cell_length_a 18.045401
_cell_length_b 18.045401
_cell_length_c 22.193596
_cell_angle_alpha 90.000000
_cell_angle_beta 90.000000
_cell_angle_gamma 120.000000
_cell_volume 6258.804446
_symmetry_space_group_name_H-M "P 63/M M C"
_symmetry_group_IT_number 194
_symmetry_cell_setting 'hexagonal'
loop_
_space_group_symop_operation_xyz
x,y,z
x-y,x,1/2+z
-y,x-y,z
-x,-y,1/2+z
-x+y,-x,z
y,-x+y,1/2+z
x-y,-y,-z
-x,-x+y,-z
y,x,-z
-y,-x,1/2-z
-x+y,y,1/2-z
x,x-y,1/2-z
-x,-y,-z
-x+y,-x,1/2-z
y,-x+y,-z
x,y,1/2-z
x-y,x,-z
-y,x-y,1/2-z
-x+y,y,z
x,x-y,z
-y,-x,z
y,x,1/2+z
x-y,-y,1/2+z
-x,-x+y,1/2+z
loop_
_atom_site_type_symbol
_atom_site_label
_atom_site_fract_x
_atom_site_fract_y
_atom_site_fract_z
Si Si1 0.138800 0.696777 0.183655
Si Si2 0.829920 0.334842 0.943668
Si Si3 0.839070 0.509632 0.250000
Si Si4 0.351552 0.301963 0.152584
Si Si5 0.913361 0.257451 0.022383
Si Si6 0.165463 0.000428 0.819579
O O1 0.151254 0.665492 0.250000
O O2 0.199400 0.800601 0.179604
O O3 0.164509 0.656011 0.129093
O O4 0.040731 0.667151 0.176513
O O5 0.851531 0.425766 0.971016
O O6 0.734282 0.265718 0.963487
O O7 0.894840 0.307236 0.969677
O O8 0.736980 0.473959 0.250000
O O9 0.855124 0.427562 0.250000
O O10 0.878916 0.571429 0.192223
O O11 0.383628 0.310276 0.083966
O O12 0.259672 0.215079 0.151857
O O13 0.840368 0.159633 0.028828
O O14 0.000000 0.260052 0.000000
O O15 0.191212 0.013871 0.750000
O O16 0.186273 0.093137 0.847066
O O17 0.064669 0.935332 0.828590
#
# Coordination Sequence:
#
# PCOD8330595 Si02
#       6
#    24  24  12  24  24  24
#     4  10  20  37  62  97 133 162 195 241 301 366
#     4  10  22  41  65  92 125 161 202 250 309 374
#     4  12  27  46  65  88 122 162 208 262 321 374
#     4  12  22  40  64  91 120 161 212 258 303 360
#     4  11  24  42  63  90 121 162 209 259 310 364
#     4  10  19  32  55  89 128 164 198 241 296 363
#
# _framework density 21.090291000000001
#
# number of rings (size 3 to 8) (size 9 to 14) (size 15 to 20)
#    0.000    1.273    3.636    2.636    0.000    5.091 
#    0.000    0.000    0.000    3.455    0.000    0.000 
#    0.000    0.000    0.000    0.000    0.000    0.000 
#
# Total GULP energy -1635467.705135 kJ/mol
# GULP energy per Si atom -12389.906857 kJ/mol
# Density = 2.104229 g / cm^3
# Si number density = 21.090291 Si / 1000 Ang^3
#
#
#
# Elastic Constant Matrix: (Units=GPa)
#
#
# Indices 1 2 3 4 5 6 
#
# 1 96.2103 55.0908 24.2043 0.0000 0.0000 0.0000
# 2 55.0908 96.2103 24.2043 0.0000 0.0000 0.0000
# 3 24.2043 24.2043 112.0260 0.0000 0.0000 0.0000
# 4 0.0000 0.0000 0.0000 7.2955 0.0000 0.0000
# 5 0.0000 0.0000 0.0000 0.0000 7.2955 0.0000
# 6 0.0000 0.0000 0.0000 0.0000 0.0000 20.5598
#
#
#
# Elastic Compliance Matrix: (Units=1/GPa)
#
#
# Indices 1 2 3 4 5 6 
#
# 1 0.015710 -0.008610 -0.001534 0.000000 0.000000 0.000000
# 2 -0.008610 0.015710 -0.001534 0.000000 0.000000 0.000000
# 3 -0.001534 -0.001534 0.009589 0.000000 0.000000 0.000000
# 4 0.000000 0.000000 0.000000 0.137071 0.000000 0.000000
# 5 0.000000 0.000000 0.000000 0.000000 0.137071 0.000000
# 6 0.000000 0.000000 0.000000 0.000000 0.000000 0.048639
#
#
# Mechanical properties :
#
#
# Convention : Reuss Voigt Hill
#
# Bulk Modulus (GPa) = 56.64608 56.82729 56.73668
# Shear Modulus (GPa) = 12.72166 20.42661 16.57414
#
# Velocity S-wave (km/s) = 2.45868 3.11550 2.80637
# Velocity P-wave (km/s) = 5.91416 6.32021 6.12055
#
# Compressibility (1/GPa) = 0.01765347
#
# Stress axis : x y z
#
# Youngs Moduli (GPa) = 63.65472 63.65472 104.28184
#
# Poissons Ratio (x) = 0.54804 0.15997
# Poissons Ratio (y) = 0.54804 0.15997
# Poissons Ratio (z) = 0.09765 0.09765
#
# Static dielectric constant tensor:
#      x y z
#    x 3.743170 0.000000 0.000000 
#    y 0.000000 3.743170 0.000000 
#    z 0.000000 0.000000 4.025730 
# 
# 
# High freq. dielectric constant tensor:
#      x y z
#    x 1.818990 0.000000 0.000000 
#    y 0.000000 1.818990 0.000000 
#    z 0.000000 0.000000 1.825530 
# 
# From -- ./inp_files/9495.got.cif
#   From: 2010.03.12/outbox.cif.g09.slc.cpg/sg194_5_cif.got.tgz:9495.got - 2010.04.01 12:26:19.
