data_PCOD8330713
_publ_section_title
;
Structure prediction by ZEFSAII (Michael W. Deem and Ramdas Pophale) SiO2 
 PCOD8330713
Probable space group: P 63/M M C
;
_chemical_formula_sum "Si O2"
_cell_formula_units_Z 144
_cell_length_a 22.433983
_cell_length_b 22.433983
_cell_length_c 19.081864
_cell_angle_alpha 90.000000
_cell_angle_beta 90.000000
_cell_angle_gamma 120.000000
_cell_volume 8316.952111
_symmetry_space_group_name_H-M "P 63/M M C"
_symmetry_group_IT_number 194
_symmetry_cell_setting 'hexagonal'
loop_
_space_group_symop_operation_xyz
x,y,z
x-y,x,1/2+z
-y,x-y,z
-x,-y,1/2+z
-x+y,-x,z
y,-x+y,1/2+z
x-y,-y,-z
-x,-x+y,-z
y,x,-z
-y,-x,1/2-z
-x+y,y,1/2-z
x,x-y,1/2-z
-x,-y,-z
-x+y,-x,1/2-z
y,-x+y,-z
x,y,1/2-z
x-y,x,-z
-y,x-y,1/2-z
-x+y,y,z
x,x-y,z
-y,-x,z
y,x,1/2+z
x-y,-y,1/2+z
-x,-x+y,1/2+z
loop_
_atom_site_type_symbol
_atom_site_label
_atom_site_fract_x
_atom_site_fract_y
_atom_site_fract_z
Si Si1 0.471754 0.666696 0.086766
Si Si2 0.334653 0.929117 0.332610
Si Si3 0.999755 0.862816 0.418497
Si Si4 0.534699 0.605102 0.670045
Si Si5 0.063400 0.266268 0.330304
Si Si6 0.803866 0.333060 0.423947
O O1 0.468823 0.734412 0.107785
O O2 0.398636 0.601365 0.106045
O O3 0.530513 0.663629 0.129994
O O4 0.488774 0.667145 0.005104
O O5 0.333634 0.916356 0.250000
O O6 0.268408 0.932982 0.357422
O O7 0.400150 0.000318 0.355793
O O8 0.060660 0.939341 0.400331
O O9 0.007984 0.805762 0.375750
O O10 0.000000 0.846661 0.500000
O O11 0.928800 0.857600 0.395142
O O12 0.543833 0.631267 0.750000
O O13 0.470084 0.529917 0.661393
O O14 0.526883 0.659152 0.621407
O O15 0.039135 0.251087 0.250000
O O16 0.138507 0.277014 0.341005
O O17 0.788416 0.394208 0.407052
O O18 0.737439 0.262562 0.401207
#
# Coordination Sequence:
#
# PCOD8330713 Si02
#       6
#    24  24  24  24  24  24
#     4  10  20  34  53  77 104 132 165 208 258 308
#     4  10  20  35  53  71  97 136 173 205 248 300
#     4   9  17  31  51  75 101 129 161 202 253 302
#     4   9  18  33  52  74 100 130 168 211 250 293
#     4   9  18  33  51  70  96 131 169 206 244 292
#     4   9  18  33  52  75 102 132 164 203 253 303
#
# _framework density 17.314033999999999
#
# number of rings (size 3 to 8) (size 9 to 14) (size 15 to 20)
#    0.000    2.667    0.000    1.500    0.000    5.333 
#    3.000    3.333    0.000    6.000    0.000    0.000 
#    0.000    0.000    0.000    0.000    0.000    0.000 
#
# Total GULP energy -1785948.156902 kJ/mol
# GULP energy per Si atom -12402.417756 kJ/mol
# Density = 1.727463 g / cm^3
# Si number density = 17.314034 Si / 1000 Ang^3
#
#
#
# Elastic Constant Matrix: (Units=GPa)
#
#
# Indices 1 2 3 4 5 6 
#
# 1 131.3522 75.7126 60.7537 0.0000 0.0000 0.0000
# 2 75.7126 131.3522 60.7537 0.0000 0.0000 0.0000
# 3 60.7537 60.7537 61.1967 0.0000 0.0000 0.0000
# 4 0.0000 0.0000 0.0000 31.8301 0.0000 0.0000
# 5 0.0000 0.0000 0.0000 0.0000 31.8301 0.0000
# 6 0.0000 0.0000 0.0000 0.0000 0.0000 27.8198
#
#
#
# Elastic Compliance Matrix: (Units=1/GPa)
#
#
# Indices 1 2 3 4 5 6 
#
# 1 0.014771 -0.003202 -0.011485 0.000000 0.000000 0.000000
# 2 -0.003202 0.014771 -0.011485 0.000000 0.000000 0.000000
# 3 -0.011485 -0.011485 0.039145 0.000000 0.000000 0.000000
# 4 0.000000 0.000000 0.000000 0.031417 0.000000 0.000000
# 5 0.000000 0.000000 0.000000 0.000000 0.031417 0.000000
# 6 0.000000 0.000000 0.000000 0.000000 0.000000 0.035946
#
#
# Mechanical properties :
#
#
# Convention : Reuss Voigt Hill
#
# Bulk Modulus (GPa) = 61.19214 79.81568 70.50391
# Shear Modulus (GPa) = 22.19667 26.74141 24.46904
#
# Velocity S-wave (km/s) = 3.58439 3.93427 3.76340
# Velocity P-wave (km/s) = 7.24912 8.17538 7.72614
#
# Compressibility (1/GPa) = 0.01634197
#
# Stress axis : x y z
#
# Youngs Moduli (GPa) = 67.70029 67.70029 25.54587
#
# Poissons Ratio (x) = 0.21677 0.29340
# Poissons Ratio (y) = 0.21677 0.29340
# Poissons Ratio (z) = 0.77756 0.77756
#
# Static dielectric constant tensor:
#      x y z
#    x 3.271100 0.000000 0.000000 
#    y 0.000000 3.271100 0.000000 
#    z 0.000000 0.000000 3.207880 
# 
# 
# High freq. dielectric constant tensor:
#      x y z
#    x 1.670660 0.000000 0.000000 
#    y 0.000000 1.670660 0.000000 
#    z 0.000000 0.000000 1.662890 
# 
# From -- ./inp_files/8213.got.cif
#   From: 2010.03.12/outbox.cif.g09.slc.cpg/sg194_5_cif.got.tgz:8213.got - 2010.04.01 12:26:19.
