data_PCOD8330364
_publ_section_title
;
Structure prediction by ZEFSAII (Michael W. Deem and Ramdas Pophale) SiO2 
 PCOD8330364
Probable space group: P 63/M M C
;
_chemical_formula_sum "Si O2"
_cell_formula_units_Z 192
_cell_length_a 26.985419
_cell_length_b 26.985419
_cell_length_c 18.341541
_cell_angle_alpha 90.000000
_cell_angle_beta 90.000000
_cell_angle_gamma 120.000000
_cell_volume 11567.107828
_symmetry_space_group_name_H-M "P 63/M M C"
_symmetry_group_IT_number 194
_symmetry_cell_setting 'hexagonal'
loop_
_space_group_symop_operation_xyz
x,y,z
x-y,x,1/2+z
-y,x-y,z
-x,-y,1/2+z
-x+y,-x,z
y,-x+y,1/2+z
x-y,-y,-z
-x,-x+y,-z
y,x,-z
-y,-x,1/2-z
-x+y,y,1/2-z
x,x-y,1/2-z
-x,-y,-z
-x+y,-x,1/2-z
y,-x+y,-z
x,y,1/2-z
x-y,x,-z
-y,x-y,1/2-z
-x+y,y,z
x,x-y,z
-y,-x,z
y,x,1/2+z
x-y,-y,1/2+z
-x,-x+y,1/2+z
loop_
_atom_site_type_symbol
_atom_site_label
_atom_site_fract_x
_atom_site_fract_y
_atom_site_fract_z
Si Si1 0.666692 0.223229 0.164175
Si Si2 0.386500 0.498744 0.164947
Si Si3 0.220731 0.327435 0.606215
Si Si4 0.552779 0.676641 0.597605
Si Si5 0.725562 0.010552 0.668937
Si Si6 0.216463 0.321671 0.439989
Si Si7 0.284101 0.831080 0.060999
Si Si8 0.608478 0.602404 0.166187
O O1 0.666873 0.230135 0.250000
O O2 0.611817 0.223634 0.130056
O O3 0.723879 0.276122 0.130000
O O4 0.663311 0.164041 0.146718
O O5 0.370565 0.491833 0.250000
O O6 0.438821 0.561180 0.146563
O O7 0.330974 0.490561 0.121606
O O8 0.404899 0.452202 0.142169
O O9 0.156449 0.312898 0.620409
O O10 0.263771 0.393732 0.625355
O O11 0.232782 0.286449 0.657094
O O12 0.232190 0.316765 0.523085
O O13 0.538610 0.681544 0.513918
O O14 0.565611 0.624709 0.611565
O O15 0.750105 0.030219 0.750000
O O16 0.771932 0.052583 0.611224
O O17 0.668551 0.013592 0.656799
O O18 0.149427 0.298853 0.433772
O O19 0.252684 0.387233 0.413924
O O20 0.236427 0.763574 0.052671
O O21 0.606879 0.582512 0.250000
#
# Coordination Sequence:
#
# PCOD8330364 Si02
#       8
#    24  24  24  24  24  24  24  24
#     4  10  20  33  48  65  87 118 155 193 234 282
#     4  10  21  37  54  72  99 131 163 203 253 309
#     4   9  18  31  46  66  94 130 165 192 231 286
#     4  10  19  32  51  72  98 122 156 199 241 287
#     4  10  18  28  45  68  95 124 158 199 238 276
#     4   9  17  30  48  68  93 125 159 196 236 281
#     4  10  20  34  53  75  97 122 158 202 244 291
#     4   9  18  32  48  70  98 128 159 190 234 292
#
# _framework density 16.598790000000001
#
# number of rings (size 3 to 8) (size 9 to 14) (size 15 to 20)
#    0.000    2.375    1.250    2.750    0.000    3.250 
#    0.000    3.125    0.000    0.250    0.000    0.000 
#    0.000    0.000    0.000    0.375    0.000    7.250 
#
# Total GULP energy -2380739.186054 kJ/mol
# GULP energy per Si atom -12399.683261 kJ/mol
# Density = 1.656101 g / cm^3
# Si number density = 16.598790 Si / 1000 Ang^3
#
#
#
# Elastic Constant Matrix: (Units=GPa)
#
#
# Indices 1 2 3 4 5 6 
#
# 1 65.6759 29.1071 31.2999 0.0000 0.0000 0.0000
# 2 29.1071 65.6759 31.2999 0.0000 0.0000 0.0000
# 3 31.2999 31.2999 54.8045 0.0000 0.0000 0.0000
# 4 0.0000 0.0000 0.0000 24.6307 0.0000 0.0000
# 5 0.0000 0.0000 0.0000 0.0000 24.6307 0.0000
# 6 0.0000 0.0000 0.0000 0.0000 0.0000 18.2844
#
#
#
# Elastic Compliance Matrix: (Units=1/GPa)
#
#
# Indices 1 2 3 4 5 6 
#
# 1 0.022143 -0.005203 -0.009675 0.000000 0.000000 0.000000
# 2 -0.005203 0.022143 -0.009675 0.000000 0.000000 0.000000
# 3 -0.009675 -0.009675 0.029298 0.000000 0.000000 0.000000
# 4 0.000000 0.000000 0.000000 0.040600 0.000000 0.000000
# 5 0.000000 0.000000 0.000000 0.000000 0.040600 0.000000
# 6 0.000000 0.000000 0.000000 0.000000 0.000000 0.054691
#
#
# Mechanical properties :
#
#
# Convention : Reuss Voigt Hill
#
# Bulk Modulus (GPa) = 40.85200 41.06335 40.95767
# Shear Modulus (GPa) = 18.74490 19.80579 19.27535
#
# Velocity S-wave (km/s) = 3.36414 3.45803 3.41141
# Velocity P-wave (km/s) = 6.30514 6.38251 6.34394
#
# Compressibility (1/GPa) = 0.02447861
#
# Stress axis : x y z
#
# Youngs Moduli (GPa) = 45.16103 45.16103 34.13235
#
# Poissons Ratio (x) = 0.23496 0.33023
# Poissons Ratio (y) = 0.23496 0.33023
# Poissons Ratio (z) = 0.43693 0.43693
#
# Static dielectric constant tensor:
#      x y z
#    x 2.996470 0.000000 0.000000 
#    y 0.000000 2.996470 0.000000 
#    z 0.000000 0.000000 3.063330 
# 
# 
# High freq. dielectric constant tensor:
#      x y z
#    x 1.620610 0.000000 0.000000 
#    y 0.000000 1.620610 0.000000 
#    z 0.000000 0.000000 1.635840 
# 
# From -- ./inp_files/8681.got.cif
#   From: 2010.03.12/outbox.cif.g09.slc.cpg/sg194_5_cif.got.tgz:8681.got - 2010.04.01 12:26:19.
