data_PCOD8330497
_publ_section_title
;
Structure prediction by ZEFSAII (Michael W. Deem and Ramdas Pophale) SiO2 
 PCOD8330497
Probable space group: P 63/M M C
;
_chemical_formula_sum "Si O2"
_cell_formula_units_Z 156
_cell_length_a 21.436283
_cell_length_b 21.436283
_cell_length_c 23.850714
_cell_angle_alpha 90.000000
_cell_angle_beta 90.000000
_cell_angle_gamma 120.000000
_cell_volume 9491.415382
_symmetry_space_group_name_H-M "P 63/M M C"
_symmetry_group_IT_number 194
_symmetry_cell_setting 'hexagonal'
loop_
_space_group_symop_operation_xyz
x,y,z
x-y,x,1/2+z
-y,x-y,z
-x,-y,1/2+z
-x+y,-x,z
y,-x+y,1/2+z
x-y,-y,-z
-x,-x+y,-z
y,x,-z
-y,-x,1/2-z
-x+y,y,1/2-z
x,x-y,1/2-z
-x,-y,-z
-x+y,-x,1/2-z
y,-x+y,-z
x,y,1/2-z
x-y,x,-z
-y,x-y,1/2-z
-x+y,y,z
x,x-y,z
-y,-x,z
y,x,1/2+z
x-y,-y,1/2+z
-x,-x+y,1/2+z
loop_
_atom_site_type_symbol
_atom_site_label
_atom_site_fract_x
_atom_site_fract_y
_atom_site_fract_z
Si Si1 0.853067 0.997991 0.872075
Si Si2 0.256579 0.368931 0.686596
Si Si3 0.113065 0.743376 0.020228
Si Si4 0.712229 0.733799 0.584420
Si Si5 0.334040 0.525288 0.981138
Si Si6 0.191527 0.525409 0.850502
Si Si7 0.140370 0.001404 0.250000
O O1 0.870887 0.935444 0.887010
O O2 0.794168 0.994578 0.914864
O O3 0.817162 0.985185 0.808966
O O4 0.926138 0.073863 0.877182
O O5 0.255610 0.342276 0.750000
O O6 0.177901 0.355802 0.669330
O O7 0.278989 0.325165 0.644732
O O8 0.314908 0.453577 0.683434
O O9 0.180064 0.819937 0.037954
O O10 0.137412 0.683814 0.014962
O O11 0.052366 0.714596 0.068073
O O12 0.083295 0.752830 0.960986
O O13 0.273695 0.547389 0.992099
O O14 0.410100 0.589901 0.002784
O O15 0.337212 0.509856 0.915847
O O16 0.274347 0.548694 0.839441
O O17 0.179460 0.589730 0.829027
O O18 0.104674 0.052337 0.250000
O O19 0.080273 0.919728 0.250000
#
# Coordination Sequence:
#
# PCOD8330497 Si02
#       7
#    24  24  24  24  24  24  12
#     4  10  19  31  47  67  90 115 151 197 246 289
#     4  10  20  33  49  68  94 129 169 208 240 277
#     4  10  20  35  52  70  97 127 159 200 242 287
#     4  11  21  33  50  70  92 128 168 198 236 292
#     4   9  16  29  51  77 102 126 155 196 242 287
#     4   9  16  28  47  72 100 129 161 198 240 283
#     4   8  15  26  42  64  88 112 137 180 238 290
#
# _framework density 16.435905000000002
#
# number of rings (size 3 to 8) (size 9 to 14) (size 15 to 20)
#    0.000    2.308    1.538    2.385    1.077    2.769 
#    0.000    2.308    0.000    0.923    0.000    5.385 
#    0.000    0.000    0.000    0.462    0.000    4.154 
#
# Total GULP energy -1933930.597221 kJ/mol
# GULP energy per Si atom -12396.991008 kJ/mol
# Density = 1.639850 g / cm^3
# Si number density = 16.435905 Si / 1000 Ang^3
#
#
#
# Elastic Constant Matrix: (Units=GPa)
#
#
# Indices 1 2 3 4 5 6 
#
# 1 88.3704 45.0793 44.1323 0.0000 0.0000 0.0000
# 2 45.0793 88.3704 44.1323 0.0000 0.0000 0.0000
# 3 44.1323 44.1323 69.8966 0.0000 0.0000 0.0000
# 4 0.0000 0.0000 0.0000 22.8930 0.0000 0.0000
# 5 0.0000 0.0000 0.0000 0.0000 22.8930 0.0000
# 6 0.0000 0.0000 0.0000 0.0000 0.0000 21.6455
#
#
#
# Elastic Compliance Matrix: (Units=1/GPa)
#
#
# Indices 1 2 3 4 5 6 
#
# 1 0.017983 -0.005116 -0.008124 0.000000 0.000000 0.000000
# 2 -0.005116 0.017983 -0.008124 0.000000 0.000000 0.000000
# 3 -0.008124 -0.008124 0.024566 0.000000 0.000000 0.000000
# 4 0.000000 0.000000 0.000000 0.043681 0.000000 0.000000
# 5 0.000000 0.000000 0.000000 0.000000 0.043681 0.000000
# 6 0.000000 0.000000 0.000000 0.000000 0.000000 0.046199
#
#
# Mechanical properties :
#
#
# Convention : Reuss Voigt Hill
#
# Bulk Modulus (GPa) = 56.16948 57.03611 56.60280
# Shear Modulus (GPa) = 20.59676 21.03921 20.81798
#
# Velocity S-wave (km/s) = 3.54384 3.58170 3.56282
# Velocity P-wave (km/s) = 7.14101 7.20293 7.17204
#
# Compressibility (1/GPa) = 0.01780326
#
# Stress axis : x y z
#
# Youngs Moduli (GPa) = 55.60782 55.60782 40.70720
#
# Poissons Ratio (x) = 0.28451 0.33070
# Poissons Ratio (y) = 0.28451 0.33070
# Poissons Ratio (z) = 0.45176 0.45176
#
# Static dielectric constant tensor:
#      x y z
#    x 3.032350 0.000000 0.000000 
#    y 0.000000 3.032350 0.000000 
#    z 0.000000 0.000000 3.019550 
# 
# 
# High freq. dielectric constant tensor:
#      x y z
#    x 1.625480 0.000000 0.000000 
#    y 0.000000 1.625480 0.000000 
#    z 0.000000 0.000000 1.613400 
# 
# From -- ./inp_files/8385.got.cif
#   From: 2010.03.12/outbox.cif.g09.slc.cpg/sg194_5_cif.got.tgz:8385.got - 2010.04.01 12:26:19.
