data_PCOD8330314
_publ_section_title
;
Structure prediction by ZEFSAII (Michael W. Deem and Ramdas Pophale) SiO2 
 PCOD8330314
Probable space group: P 63/M M C
;
_chemical_formula_sum "Si O2"
_cell_formula_units_Z 144
_cell_length_a 20.353994
_cell_length_b 20.353994
_cell_length_c 26.580463
_cell_angle_alpha 90.000000
_cell_angle_beta 90.000000
_cell_angle_gamma 120.000000
_cell_volume 9536.575636
_symmetry_space_group_name_H-M "P 63/M M C"
_symmetry_group_IT_number 194
_symmetry_cell_setting 'hexagonal'
loop_
_space_group_symop_operation_xyz
x,y,z
x-y,x,1/2+z
-y,x-y,z
-x,-y,1/2+z
-x+y,-x,z
y,-x+y,1/2+z
x-y,-y,-z
-x,-x+y,-z
y,x,-z
-y,-x,1/2-z
-x+y,y,1/2-z
x,x-y,1/2-z
-x,-y,-z
-x+y,-x,1/2-z
y,-x+y,-z
x,y,1/2-z
x-y,x,-z
-y,x-y,1/2-z
-x+y,y,z
x,x-y,z
-y,-x,z
y,x,1/2+z
x-y,-y,1/2+z
-x,-x+y,1/2+z
loop_
_atom_site_type_symbol
_atom_site_label
_atom_site_fract_x
_atom_site_fract_y
_atom_site_fract_z
Si Si1 0.937212 0.396447 0.956706
Si Si2 0.822819 0.332935 0.462251
Si Si3 0.190975 0.229303 0.552317
Si Si4 0.000943 0.150861 0.346876
Si Si5 0.920332 0.688770 0.306619
Si Si6 0.374824 0.323311 0.403376
O O1 0.923308 0.461654 0.934156
O O2 0.969306 0.368526 0.911010
O O3 0.859504 0.332427 0.983213
O O4 0.000000 0.429939 0.000000
O O5 0.816030 0.408015 0.456338
O O6 0.740504 0.259497 0.457914
O O7 0.877376 0.333851 0.417757
O O8 0.192961 0.192961 0.500000
O O9 0.121823 0.243646 0.554137
O O10 0.182845 0.171737 0.596405
O O11 0.262864 0.311766 0.559509
O O12 0.937392 0.062609 0.344492
O O13 0.979184 0.200680 0.310989
O O14 0.079998 0.159995 0.328171
O O15 0.923709 0.662527 0.250000
O O16 0.836634 0.673267 0.320406
O O17 0.940950 0.640930 0.344939
#
# Coordination Sequence:
#
# PCOD8330314 Si02
#       6
#    24  24  24  24  24  24
#     4   8  15  27  42  61  86 113 137 163 196 237
#     4  10  18  28  44  67  94 119 142 168 200 243
#     4  10  18  26  37  55  80 107 135 167 202 244
#     4   9  17  28  41  56  75 102 136 173 213 256
#     4   9  18  31  44  59  80 106 140 183 226 263
#     4  10  17  28  45  62  80 109 145 175 206 244
#
# _framework density 15.099759000000001
#
# number of rings (size 3 to 8) (size 9 to 14) (size 15 to 20)
#    0.000    2.667    0.000    6.333    0.000    0.333 
#    0.000    3.333    0.000    5.667    0.000    0.000 
#    0.000    1.333    0.000    0.500    0.000    4.500 
#
# Total GULP energy -1784834.394702 kJ/mol
# GULP energy per Si atom -12394.683297 kJ/mol
# Density = 1.506539 g / cm^3
# Si number density = 15.099759 Si / 1000 Ang^3
#
#
#
# Elastic Constant Matrix: (Units=GPa)
#
#
# Indices 1 2 3 4 5 6 
#
# 1 79.5034 26.7485 29.0978 0.0000 0.0000 0.0000
# 2 26.7485 79.5034 29.0978 0.0000 0.0000 0.0000
# 3 29.0978 29.0978 84.2499 0.0000 0.0000 0.0000
# 4 0.0000 0.0000 0.0000 21.5770 0.0000 0.0000
# 5 0.0000 0.0000 0.0000 0.0000 21.5770 0.0000
# 6 0.0000 0.0000 0.0000 0.0000 0.0000 26.3775
#
#
#
# Elastic Compliance Matrix: (Units=1/GPa)
#
#
# Indices 1 2 3 4 5 6 
#
# 1 0.015281 -0.003674 -0.004009 0.000000 0.000000 0.000000
# 2 -0.003674 0.015281 -0.004009 0.000000 0.000000 0.000000
# 3 -0.004009 -0.004009 0.014639 0.000000 0.000000 0.000000
# 4 0.000000 0.000000 0.000000 0.046346 0.000000 0.000000
# 5 0.000000 0.000000 0.000000 0.000000 0.046346 0.000000
# 6 0.000000 0.000000 0.000000 0.000000 0.000000 0.037911
#
#
# Mechanical properties :
#
#
# Convention : Reuss Voigt Hill
#
# Bulk Modulus (GPa) = 45.83432 45.90498 45.86965
# Shear Modulus (GPa) = 24.21775 24.46048 24.33911
#
# Velocity S-wave (km/s) = 4.00915 4.02920 4.01919
# Velocity P-wave (km/s) = 7.20079 7.21893 7.20987
#
# Compressibility (1/GPa) = 0.02181771
#
# Stress axis : x y z
#
# Youngs Moduli (GPa) = 65.43883 65.43883 68.31262
#
# Poissons Ratio (x) = 0.24043 0.27386
# Poissons Ratio (y) = 0.24043 0.27386
# Poissons Ratio (z) = 0.26234 0.26234
#
# Static dielectric constant tensor:
#      x y z
#    x 2.917600 0.000000 0.000000 
#    y 0.000000 2.917600 0.000000 
#    z 0.000000 0.000000 2.759600 
# 
# 
# High freq. dielectric constant tensor:
#      x y z
#    x 1.572410 0.000000 0.000000 
#    y 0.000000 1.572410 0.000000 
#    z 0.000000 0.000000 1.552980 
# 
# From -- ./inp_files/10949.got.cif
#   From: 2010.03.12/outbox.cif.g09.slc.cpg/sg194_6_cif.got.tgz:10949.got - 2010.04.01 12:26:19.
