data_PCOD8330331
_publ_section_title
;
Structure prediction by ZEFSAII (Michael W. Deem and Ramdas Pophale) SiO2 
 PCOD8330331
Probable space group: P 63/M M C
;
_chemical_formula_sum "Si O2"
_cell_formula_units_Z 144
_cell_length_a 28.891361
_cell_length_b 28.891361
_cell_length_c 20.674209
_cell_angle_alpha 90.000000
_cell_angle_beta 90.000000
_cell_angle_gamma 120.000000
_cell_volume 14944.986798
_symmetry_space_group_name_H-M "P 63/M M C"
_symmetry_group_IT_number 194
_symmetry_cell_setting 'hexagonal'
loop_
_space_group_symop_operation_xyz
x,y,z
x-y,x,1/2+z
-y,x-y,z
-x,-y,1/2+z
-x+y,-x,z
y,-x+y,1/2+z
x-y,-y,-z
-x,-x+y,-z
y,x,-z
-y,-x,1/2-z
-x+y,y,1/2-z
x,x-y,1/2-z
-x,-y,-z
-x+y,-x,1/2-z
y,-x+y,-z
x,y,1/2-z
x-y,x,-z
-y,x-y,1/2-z
-x+y,y,z
x,x-y,z
-y,-x,z
y,x,1/2+z
x-y,-y,1/2+z
-x,-x+y,1/2+z
loop_
_atom_site_type_symbol
_atom_site_label
_atom_site_fract_x
_atom_site_fract_y
_atom_site_fract_z
Si Si1 0.333430 0.774208 0.676695
Si Si2 0.366036 0.842018 0.178256
Si Si3 0.630850 0.152131 0.061552
Si Si4 0.775683 0.332722 0.557066
Si Si5 0.535871 0.961702 0.178233
Si Si6 0.032417 0.460942 0.938045
O O1 0.334441 0.793787 0.750000
O O2 0.380329 0.760658 0.665186
O O3 0.278825 0.721176 0.660445
O O4 0.339607 0.820629 0.628627
O O5 0.340319 0.823736 0.250000
O O6 0.421541 0.843081 0.175787
O O7 0.327057 0.801033 0.124338
O O8 0.377566 0.901841 0.163171
O O9 0.574115 0.148230 0.058146
O O10 0.621894 0.092406 0.059154
O O11 0.665929 0.186318 0.000782
O O12 0.769435 0.384718 0.556295
O O13 0.717822 0.282179 0.547681
O O14 0.560948 0.979598 0.250000
O O15 0.480665 0.961330 0.174399
O O16 0.576726 0.003159 0.125905
O O17 0.033554 0.516777 0.936794
O O18 0.000000 0.426651 0.000000
#
# Coordination Sequence:
#
# PCOD8330331 Si02
#       6
#    24  24  24  24  24  24
#     4   9  16  25  35  44  54  69  88 107 125 144
#     4   8  14  24  35  45  56  68  81  98 120 145
#     4   9  17  25  32  43  56  68  82 102 124 143
#     4  10  18  26  34  42  53  69  89 110 128 144
#     4   8  13  21  33  46  57  68  79  91 112 144
#     4   9  15  22  32  44  56  68  80  94 115 144
#
# _framework density 9.6353380000000008
#
# number of rings (size 3 to 8) (size 9 to 14) (size 15 to 20)
#    0.000    3.167    0.000    2.833    0.000    5.667 
#    0.000    5.000    0.000    1.000    0.000    0.000 
#    0.000    0.000    0.000    0.000    0.000    0.000 
#
# Total GULP energy -1784704.140043 kJ/mol
# GULP energy per Si atom -12393.778750 kJ/mol
# Density = 0.961341 g / cm^3
# Si number density = 9.635338 Si / 1000 Ang^3
#
#
#
# Elastic Constant Matrix: (Units=GPa)
#
#
# Indices 1 2 3 4 5 6 
#
# 1 30.6000 22.8069 30.2128 0.0000 0.0000 0.0000
# 2 22.8069 30.6000 30.2128 0.0000 0.0000 0.0000
# 3 30.2128 30.2128 85.3779 0.0000 0.0000 0.0000
# 4 0.0000 0.0000 0.0000 13.4825 0.0000 0.0000
# 5 0.0000 0.0000 0.0000 0.0000 13.4825 0.0000
# 6 0.0000 0.0000 0.0000 0.0000 0.0000 3.8966
#
#
#
# Elastic Compliance Matrix: (Units=1/GPa)
#
#
# Indices 1 2 3 4 5 6 
#
# 1 0.079772 -0.048546 -0.011050 0.000000 0.000000 0.000000
# 2 -0.048546 0.079772 -0.011050 0.000000 0.000000 0.000000
# 3 -0.011050 -0.011050 0.019533 0.000000 0.000000 0.000000
# 4 0.000000 0.000000 0.000000 0.074170 0.000000 0.000000
# 5 0.000000 0.000000 0.000000 0.000000 0.074170 0.000000
# 6 0.000000 0.000000 0.000000 0.000000 0.000000 0.256635
#
#
# Mechanical properties :
#
#
# Convention : Reuss Voigt Hill
#
# Bulk Modulus (GPa) = 26.46503 34.78253 30.62378
# Shear Modulus (GPa) = 6.77561 10.39533 8.58547
#
# Velocity S-wave (km/s) = 2.65468 3.28819 2.98827
# Velocity P-wave (km/s) = 6.07640 7.11291 6.61499
#
# Compressibility (1/GPa) = 0.03778571
#
# Stress axis : x y z
#
# Youngs Moduli (GPa) = 12.53571 12.53571 51.19458
#
# Poissons Ratio (x) = 0.60855 0.56571
# Poissons Ratio (y) = 0.60855 0.56571
# Poissons Ratio (z) = 0.13852 0.13852
#
# Static dielectric constant tensor:
#      x y z
#    x 1.985240 0.000000 0.000000 
#    y 0.000000 1.985240 0.000000 
#    z 0.000000 0.000000 2.460090 
# 
# 
# High freq. dielectric constant tensor:
#      x y z
#    x 1.321960 0.000000 0.000000 
#    y 0.000000 1.321960 0.000000 
#    z 0.000000 0.000000 1.384390 
# 
# From -- ./inp_files/9955.got.cif
#   From: 2010.03.12/outbox.cif.g09.slc.cpg/sg194_5_cif.got.tgz:9955.got - 2010.04.01 12:26:19.
