data_PCOD8330912
_publ_section_title
;
Structure prediction by ZEFSAII (Michael W. Deem and Ramdas Pophale) SiO2 
 PCOD8330912
Probable space group: P N 3
;
_chemical_formula_sum "Si O2"
_cell_formula_units_Z 120
_cell_length_a 18.354486
_cell_length_b 18.354486
_cell_length_c 18.354486
_cell_angle_alpha 90.000000
_cell_angle_beta 90.000000
_cell_angle_gamma 90.000000
_cell_volume 6183.390594
_symmetry_space_group_name_H-M "P N 3"
_symmetry_group_IT_number 201
_space_group.IT_coordinate_system_code '2'
_symmetry_cell_setting 'cubic'
loop_
_space_group_symop_operation_xyz
x,y,z
z,x,y
y,z,x
1/2-y,1/2-z,x
z,1/2-x,1/2-y
1/2-y,z,1/2-x
1/2-z,1/2-x,y
1/2-z,x,1/2-y
y,1/2-z,1/2-x
1/2-x,1/2-y,z
x,1/2-y,1/2-z
1/2-x,y,1/2-z
-x,-y,-z
-z,-x,-y
-y,-z,-x
1/2+y,1/2+z,-x
-z,1/2+x,1/2+y
1/2+y,-z,1/2+x
1/2+z,1/2+x,-y
1/2+z,-x,1/2+y
-y,1/2+z,1/2+x
1/2+x,1/2+y,-z
-x,1/2+y,1/2+z
1/2+x,-y,1/2+z
loop_
_atom_site_type_symbol
_atom_site_label
_atom_site_fract_x
_atom_site_fract_y
_atom_site_fract_z
Si Si1 0.028354 0.797661 0.177717
Si Si2 0.166152 0.327409 0.770541
Si Si3 0.303807 0.421905 0.956300
Si Si4 0.190852 0.190840 0.572084
Si Si5 0.576237 0.801303 0.456270
O O1 0.013394 0.750000 0.250000
O O2 0.102857 0.773313 0.135004
O O3 0.035946 0.880442 0.204790
O O4 0.962183 0.789438 0.121455
O O5 0.127683 0.250000 0.750000
O O6 0.250000 0.323237 0.750000
O O7 0.155205 0.343606 0.855757
O O8 0.232268 0.372116 0.972879
O O9 0.376814 0.374482 0.953170
O O10 0.310552 0.478830 0.020486
O O11 0.250000 0.250000 0.599609
O O12 0.127860 0.231342 0.526084
#
# Coordination Sequence:
#
# PCOD8330912 Si02
#       5
#    24  24  24  24  24
#     4  11  22  38  58  92 124 160 197 240 291 356
#     4  10  15  31  58  85 112 149 189 240 284 330
#     4  11  22  43  59  88 122 156 202 243 300 361
#     4  10  19  37  60  84 111 152 200 244 296 344
#     4  11  25  38  63  87 120 161 197 247 302 356
#
# _framework density 19.406828000000001
#
# number of rings (size 3 to 8) (size 9 to 14) (size 15 to 20)
#    0.000    1.400    6.000    2.800    0.000    4.000 
#    1.200    2.000    0.000    0.000    0.000    2.800 
#    0.000    0.000    0.000    0.000    0.000    0.000 
#
# Total GULP energy -1487410.967405 kJ/mol
# GULP energy per Si atom -12395.091395 kJ/mol
# Density = 1.936266 g / cm^3
# Si number density = 19.406828 Si / 1000 Ang^3
#
#
#
# Elastic Constant Matrix: (Units=GPa)
#
#
# Indices 1 2 3 4 5 6 
#
# 1 111.0273 49.9182 49.9182 0.0000 0.0000 0.0000
# 2 49.9182 111.0273 49.9182 0.0000 0.0000 0.0000
# 3 49.9182 49.9182 111.0273 0.0000 0.0000 0.0000
# 4 0.0000 0.0000 0.0000 32.1159 0.0000 0.0000
# 5 0.0000 0.0000 0.0000 0.0000 32.1159 0.0000
# 6 0.0000 0.0000 0.0000 0.0000 0.0000 32.1159
#
#
#
# Elastic Compliance Matrix: (Units=1/GPa)
#
#
# Indices 1 2 3 4 5 6 
#
# 1 0.012490 -0.003874 -0.003874 0.000000 0.000000 0.000000
# 2 -0.003874 0.012490 -0.003874 0.000000 0.000000 0.000000
# 3 -0.003874 -0.003874 0.012490 0.000000 0.000000 0.000000
# 4 0.000000 0.000000 0.000000 0.031137 0.000000 0.000000
# 5 0.000000 0.000000 0.000000 0.000000 0.031137 0.000000
# 6 0.000000 0.000000 0.000000 0.000000 0.000000 0.031137
#
#
# Mechanical properties :
#
#
# Convention : Reuss Voigt Hill
#
# Bulk Modulus (GPa) = 70.28789 70.28789 70.28789
# Shear Modulus (GPa) = 31.47257 31.49134 31.48195
#
# Velocity S-wave (km/s) = 4.03144 4.03264 4.03204
# Velocity P-wave (km/s) = 7.61359 7.61444 7.61401
#
# Compressibility (1/GPa) = 0.01422720
#
# Stress axis : x y z
#
# Youngs Moduli (GPa) = 80.06243 80.06243 80.06243
#
# Poissons Ratio (x) = 0.31016 0.31016
# Poissons Ratio (y) = 0.31016 0.31016
# Poissons Ratio (z) = 0.31016 0.31016
#
# Static dielectric constant tensor:
#      x y z
#    x 3.667040 0.000000 0.000000 
#    y 0.000000 3.667040 0.000000 
#    z 0.000000 0.000000 3.667040 
# 
# 
# High freq. dielectric constant tensor:
#      x y z
#    x 1.747700 0.000000 0.000000 
#    y 0.000000 1.747700 0.000000 
#    z 0.000000 0.000000 1.747700 
# 
# From -- ./inp_files/621.got.cif
#   From: 2010.03.12/outbox.cif.g09.slc.cpg/sg201_cif.got.tgz:621.got - 2010.03.30 09:02:05.
