data_PCOD8330468
_publ_section_title
;
Structure prediction by ZEFSAII (Michael W. Deem and Ramdas Pophale) SiO2 
 PCOD8330468
Probable space group: P 63/M M C
;
_chemical_formula_sum "Si O2"
_cell_formula_units_Z 120
_cell_length_a 17.227305
_cell_length_b 17.227305
_cell_length_c 27.792742
_cell_angle_alpha 90.000000
_cell_angle_beta 90.000000
_cell_angle_gamma 120.000000
_cell_volume 7143.264198
_symmetry_space_group_name_H-M "P 63/M M C"
_symmetry_group_IT_number 194
_symmetry_cell_setting 'hexagonal'
loop_
_space_group_symop_operation_xyz
x,y,z
x-y,x,1/2+z
-y,x-y,z
-x,-y,1/2+z
-x+y,-x,z
y,-x+y,1/2+z
x-y,-y,-z
-x,-x+y,-z
y,x,-z
-y,-x,1/2-z
-x+y,y,1/2-z
x,x-y,1/2-z
-x,-y,-z
-x+y,-x,1/2-z
y,-x+y,-z
x,y,1/2-z
x-y,x,-z
-y,x-y,1/2-z
-x+y,y,z
x,x-y,z
-y,-x,z
y,x,1/2+z
x-y,-y,1/2+z
-x,-x+y,1/2+z
loop_
_atom_site_type_symbol
_atom_site_label
_atom_site_fract_x
_atom_site_fract_y
_atom_site_fract_z
Si Si1 0.667517 0.511368 0.428573
Si Si2 0.276703 0.905215 0.194969
Si Si3 0.570818 0.964747 0.107604
Si Si4 0.271302 0.904945 0.018178
Si Si5 0.000342 0.829360 0.692822
O O1 0.760499 0.520998 0.409662
O O2 0.592764 0.407237 0.429727
O O3 0.639262 0.567365 0.393174
O O4 0.677766 0.549658 0.482395
O O5 0.310602 0.923422 0.250000
O O6 0.196296 0.803705 0.189530
O O7 0.359396 0.925065 0.160781
O O8 0.244907 0.974619 0.177307
O O9 0.472285 0.944570 0.093199
O O10 0.600701 0.913180 0.070764
O O11 0.165345 0.834656 0.020208
O O12 0.284772 0.000000 0.000000
O O13 0.999405 0.833144 0.750000
O O14 0.097761 0.902240 0.672078
O O15 0.926189 0.852377 0.672653
#
# Coordination Sequence:
#
# PCOD8330468 Si02
#       5
#    24  24  24  24  24
#     4   9  17  29  46  69  95 120 146 180 225 275
#     4   9  18  31  45  62  86 118 154 189 226 266
#     4  10  19  30  46  67  89 116 151 188 226 268
#     4   9  17  30  49  72  96 121 149 181 219 264
#     4   8  13  22  38  60  84 109 138 174 216 259
#
# _framework density 16.799042
#
# number of rings (size 3 to 8) (size 9 to 14) (size 15 to 20)
#    0.000    3.000    0.000    2.800    0.000    4.400 
#    0.000    0.000    0.000    4.600    0.000    0.000 
#    0.000    1.600    0.000    0.000    0.000    0.000 
#
# Total GULP energy -1487544.258466 kJ/mol
# GULP energy per Si atom -12396.202154 kJ/mol
# Density = 1.676081 g / cm^3
# Si number density = 16.799042 Si / 1000 Ang^3
#
#
#
# Elastic Constant Matrix: (Units=GPa)
#
#
# Indices 1 2 3 4 5 6 
#
# 1 80.4270 43.8969 33.8961 0.0000 0.0000 0.0000
# 2 43.8969 80.4270 33.8961 0.0000 0.0000 0.0000
# 3 33.8961 33.8961 75.4283 0.0000 0.0000 0.0000
# 4 0.0000 0.0000 0.0000 19.7544 0.0000 0.0000
# 5 0.0000 0.0000 0.0000 0.0000 19.7544 0.0000
# 6 0.0000 0.0000 0.0000 0.0000 0.0000 18.2650
#
#
#
# Elastic Compliance Matrix: (Units=1/GPa)
#
#
# Indices 1 2 3 4 5 6 
#
# 1 0.019014 -0.008360 -0.004788 0.000000 0.000000 0.000000
# 2 -0.008360 0.019014 -0.004788 0.000000 0.000000 0.000000
# 3 -0.004788 -0.004788 0.017561 0.000000 0.000000 0.000000
# 4 0.000000 0.000000 0.000000 0.050622 0.000000 0.000000
# 5 0.000000 0.000000 0.000000 0.000000 0.050622 0.000000
# 6 0.000000 0.000000 0.000000 0.000000 0.000000 0.054749
#
#
# Mechanical properties :
#
#
# Convention : Reuss Voigt Hill
#
# Bulk Modulus (GPa) = 50.71526 51.07341 50.89434
# Shear Modulus (GPa) = 19.68294 19.86095 19.77195
#
# Velocity S-wave (km/s) = 3.42668 3.44214 3.43442
# Velocity P-wave (km/s) = 6.77577 6.80194 6.78887
#
# Compressibility (1/GPa) = 0.01971793
#
# Stress axis : x y z
#
# Youngs Moduli (GPa) = 52.59152 52.59152 56.94514
#
# Poissons Ratio (x) = 0.43968 0.27264
# Poissons Ratio (y) = 0.43968 0.27264
# Poissons Ratio (z) = 0.25180 0.25180
#
# Static dielectric constant tensor:
#      x y z
#    x 3.175970 0.000000 0.000000 
#    y 0.000000 3.175970 0.000000 
#    z 0.000000 0.000000 2.857700 
# 
# 
# High freq. dielectric constant tensor:
#      x y z
#    x 1.641330 0.000000 0.000000 
#    y 0.000000 1.641330 0.000000 
#    z 0.000000 0.000000 1.620390 
# 
# From -- ./inp_files/11724.got.cif
#   From: 2010.03.12/outbox.cif.g09.slc.cpg/sg194_6_cif.got.tgz:11724.got - 2010.04.01 12:26:19.
