data_PCOD8330520
_publ_section_title
;
Structure prediction by ZEFSAII (Michael W. Deem and Ramdas Pophale) SiO2 
 PCOD8330520
Probable space group: P 63/M M C
;
_chemical_formula_sum "Si O2"
_cell_formula_units_Z 132
_cell_length_a 17.557764
_cell_length_b 17.557764
_cell_length_c 26.368243
_cell_angle_alpha 90.000000
_cell_angle_beta 90.000000
_cell_angle_gamma 120.000000
_cell_volume 7039.636566
_symmetry_space_group_name_H-M "P 63/M M C"
_symmetry_group_IT_number 194
_symmetry_cell_setting 'hexagonal'
loop_
_space_group_symop_operation_xyz
x,y,z
x-y,x,1/2+z
-y,x-y,z
-x,-y,1/2+z
-x+y,-x,z
y,-x+y,1/2+z
x-y,-y,-z
-x,-x+y,-z
y,x,-z
-y,-x,1/2-z
-x+y,y,1/2-z
x,x-y,1/2-z
-x,-y,-z
-x+y,-x,1/2-z
y,-x+y,-z
x,y,1/2-z
x-y,x,-z
-y,x-y,1/2-z
-x+y,y,z
x,x-y,z
-y,-x,z
y,x,1/2+z
x-y,-y,1/2+z
-x,-x+y,1/2+z
loop_
_atom_site_type_symbol
_atom_site_label
_atom_site_fract_x
_atom_site_fract_y
_atom_site_fract_z
Si Si1 0.334043 0.832249 0.138456
Si Si2 0.696185 0.137997 0.750000
Si Si3 0.623421 0.724780 0.652309
Si Si4 0.673098 0.000000 0.000000
Si Si5 0.617589 0.052868 0.250000
Si Si6 0.667795 0.513602 0.448445
Si Si7 0.242390 0.934258 0.397071
O O1 0.430426 0.860851 0.117460
O O2 0.268561 0.731440 0.123892
O O3 0.339435 0.840206 0.199362
O O4 0.304182 0.892527 0.110224
O O5 0.803688 0.196313 0.750000
O O6 0.660020 0.034973 0.750000
O O7 0.647925 0.823963 0.660388
O O8 0.565260 0.668380 0.699774
O O9 0.558621 0.677932 0.605684
O O10 0.718995 0.732267 0.644044
O O11 0.741887 0.025032 0.953481
O O12 0.577859 0.915854 0.989652
O O13 0.518278 0.036556 0.250000
O O14 0.750912 0.501823 0.461151
O O15 0.580822 0.419179 0.449741
O O16 0.139165 0.860836 0.387925
#
# Coordination Sequence:
#
# PCOD8330520 Si02
#       7
#    24  12  24  12  12  24  24
#     4  10  19  31  48  75 111 149 185 218 256 305
#     4  10  20  31  48  78 113 148 185 216 248 298
#     4  10  22  37  55  80 109 141 182 228 276 322
#     4  10  21  36  54  78 105 134 176 224 275 332
#     4  12  21  33  56  82 112 152 191 222 253 298
#     4  10  20  35  53  75 103 139 181 226 273 323
#     4  10  21  37  58  80 105 139 178 223 276 338
#
# _framework density 18.750968
#
# number of rings (size 3 to 8) (size 9 to 14) (size 15 to 20)
#    0.000    1.818    1.818    2.818    0.000    4.364 
#    0.000    0.909    0.000    5.273    0.000    0.636 
#    0.000    0.000    0.000    0.000    0.000    0.000 
#
# Total GULP energy -1635874.617154 kJ/mol
# GULP energy per Si atom -12392.989524 kJ/mol
# Density = 1.870829 g / cm^3
# Si number density = 18.750968 Si / 1000 Ang^3
#
#
#
# Elastic Constant Matrix: (Units=GPa)
#
#
# Indices 1 2 3 4 5 6 
#
# 1 87.1367 45.7769 21.5318 0.0000 0.0000 0.0000
# 2 45.7769 87.1367 21.5318 0.0000 0.0000 0.0000
# 3 21.5318 21.5318 76.0692 0.0000 0.0000 0.0000
# 4 0.0000 0.0000 0.0000 16.5000 0.0000 0.0000
# 5 0.0000 0.0000 0.0000 0.0000 16.5000 0.0000
# 6 0.0000 0.0000 0.0000 0.0000 0.0000 20.6799
#
#
#
# Elastic Compliance Matrix: (Units=1/GPa)
#
#
# Indices 1 2 3 4 5 6 
#
# 1 0.016231 -0.007947 -0.002345 0.000000 0.000000 0.000000
# 2 -0.007947 0.016231 -0.002345 0.000000 0.000000 0.000000
# 3 -0.002345 -0.002345 0.014473 0.000000 0.000000 0.000000
# 4 0.000000 0.000000 0.000000 0.060606 0.000000 0.000000
# 5 0.000000 0.000000 0.000000 0.000000 0.060606 0.000000
# 6 0.000000 0.000000 0.000000 0.000000 0.000000 0.048356
#
#
# Mechanical properties :
#
#
# Convention : Reuss Voigt Hill
#
# Bulk Modulus (GPa) = 46.16515 47.55818 46.86167
# Shear Modulus (GPa) = 20.08059 21.50280 20.79169
#
# Velocity S-wave (km/s) = 3.27603 3.39005 3.33353
# Velocity P-wave (km/s) = 6.24367 6.38290 6.31367
#
# Compressibility (1/GPa) = 0.02166136
#
# Stress axis : x y z
#
# Youngs Moduli (GPa) = 61.61169 61.61169 69.09299
#
# Poissons Ratio (x) = 0.48965 0.16200
# Poissons Ratio (y) = 0.48965 0.16200
# Poissons Ratio (z) = 0.14446 0.14446
#
# Static dielectric constant tensor:
#      x y z
#    x 3.444110 0.000000 0.000000 
#    y 0.000000 3.444110 0.000000 
#    z 0.000000 0.000000 3.677600 
# 
# 
# High freq. dielectric constant tensor:
#      x y z
#    x 1.714920 0.000000 0.000000 
#    y 0.000000 1.714920 0.000000 
#    z 0.000000 0.000000 1.738070 
# 
# From -- ./inp_files/9565.got.cif
#   From: 2010.03.12/outbox.cif.g09.slc.cpg/sg194_5_cif.got.tgz:9565.got - 2010.04.01 12:26:19.
