data_PCOD8330402
_publ_section_title
;
Structure prediction by ZEFSAII (Michael W. Deem and Ramdas Pophale) SiO2 
 PCOD8330402
Probable space group: P 63/M M C
;
_chemical_formula_sum "Si O2"
_cell_formula_units_Z 168
_cell_length_a 18.252430
_cell_length_b 18.252430
_cell_length_c 30.056464
_cell_angle_alpha 90.000000
_cell_angle_beta 90.000000
_cell_angle_gamma 120.000000
_cell_volume 8671.812945
_symmetry_space_group_name_H-M "P 63/M M C"
_symmetry_group_IT_number 194
_symmetry_cell_setting 'hexagonal'
loop_
_space_group_symop_operation_xyz
x,y,z
x-y,x,1/2+z
-y,x-y,z
-x,-y,1/2+z
-x+y,-x,z
y,-x+y,1/2+z
x-y,-y,-z
-x,-x+y,-z
y,x,-z
-y,-x,1/2-z
-x+y,y,1/2-z
x,x-y,1/2-z
-x,-y,-z
-x+y,-x,1/2-z
y,-x+y,-z
x,y,1/2-z
x-y,x,-z
-y,x-y,1/2-z
-x+y,y,z
x,x-y,z
-y,-x,z
y,x,1/2+z
x-y,-y,1/2+z
-x,-x+y,1/2+z
loop_
_atom_site_type_symbol
_atom_site_label
_atom_site_fract_x
_atom_site_fract_y
_atom_site_fract_z
Si Si1 0.254172 0.002383 0.048559
Si Si2 0.166050 0.997349 0.134445
Si Si3 0.296059 0.866002 0.932314
Si Si4 0.680348 0.756176 0.801027
Si Si5 0.572411 0.595075 0.853128
Si Si6 0.700009 0.134340 0.970820
Si Si7 0.498122 0.664967 0.379055
O O1 0.304250 0.950856 0.045657
O O2 0.183286 0.969741 0.086319
O O3 0.328672 0.095116 0.062618
O O4 0.213406 0.000000 0.000000
O O5 0.152217 0.076109 0.128691
O O6 0.239677 0.015258 0.168959
O O7 0.080713 0.919288 0.153604
O O8 0.232972 0.767029 0.918711
O O9 0.368494 0.917320 0.896296
O O10 0.341637 0.873467 0.980368
O O11 0.705043 0.755101 0.750000
O O12 0.652385 0.826193 0.809192
O O13 0.603215 0.664832 0.814399
O O14 0.487442 0.512559 0.836941
O O15 0.645407 0.570251 0.861312
O O16 0.798862 0.201139 0.975892
O O17 0.657201 0.162750 0.932896
O O18 0.517610 0.758805 0.363813
O O19 0.405671 0.594330 0.361458
#
# Coordination Sequence:
#
# PCOD8330402 Si02
#       7
#    24  24  24  24  24  24  24
#     4  10  18  30  51  78 109 151 197 237 275 319
#     4  11  22  36  55  82 117 155 196 238 277 320
#     4  10  18  31  50  75 109 146 186 229 279 332
#     4  10  22  42  66  88 112 145 182 222 276 339
#     4  11  22  35  57  86 111 136 175 229 283 335
#     4   9  17  28  46  73 106 144 190 240 278 315
#     4  10  20  34  51  75 109 149 189 230 278 331
#
# _framework density 19.373111000000002
#
# number of rings (size 3 to 8) (size 9 to 14) (size 15 to 20)
#    0.000    1.857    2.857    1.571    0.000    4.571 
#    0.000    1.429    0.000    4.000    0.000    0.000 
#    0.000    1.143    0.000    0.000    0.000    0.000 
#
# Total GULP energy -2082005.283107 kJ/mol
# GULP energy per Si atom -12392.888590 kJ/mol
# Density = 1.932902 g / cm^3
# Si number density = 19.373111 Si / 1000 Ang^3
#
#
#
# Elastic Constant Matrix: (Units=GPa)
#
#
# Indices 1 2 3 4 5 6 
#
# 1 85.2037 44.4214 37.7064 0.0000 0.0000 0.0000
# 2 44.4214 85.2037 37.7064 0.0000 0.0000 0.0000
# 3 37.7064 37.7064 100.4480 0.0000 0.0000 0.0000
# 4 0.0000 0.0000 0.0000 14.2787 0.0000 0.0000
# 5 0.0000 0.0000 0.0000 0.0000 14.2787 0.0000
# 6 0.0000 0.0000 0.0000 0.0000 0.0000 20.3912
#
#
#
# Elastic Compliance Matrix: (Units=1/GPa)
#
#
# Indices 1 2 3 4 5 6 
#
# 1 0.017195 -0.007325 -0.003705 0.000000 0.000000 0.000000
# 2 -0.007325 0.017195 -0.003705 0.000000 0.000000 0.000000
# 3 -0.003705 -0.003705 0.012737 0.000000 0.000000 0.000000
# 4 0.000000 0.000000 0.000000 0.070034 0.000000 0.000000
# 5 0.000000 0.000000 0.000000 0.000000 0.070034 0.000000
# 6 0.000000 0.000000 0.000000 0.000000 0.000000 0.049041
#
#
# Mechanical properties :
#
#
# Convention : Reuss Voigt Hill
#
# Bulk Modulus (GPa) = 56.63491 56.72487 56.67989
# Shear Modulus (GPa) = 18.40991 19.85781 19.13386
#
# Velocity S-wave (km/s) = 3.08601 3.20507 3.14610
# Velocity P-wave (km/s) = 6.48037 6.56052 6.52056
#
# Compressibility (1/GPa) = 0.01765696
#
# Stress axis : x y z
#
# Youngs Moduli (GPa) = 58.15562 58.15562 78.51133
#
# Poissons Ratio (x) = 0.42600 0.29089
# Poissons Ratio (y) = 0.42600 0.29089
# Poissons Ratio (z) = 0.21547 0.21547
#
# Static dielectric constant tensor:
#      x y z
#    x 3.365140 0.000000 0.000000 
#    y 0.000000 3.365140 0.000000 
#    z 0.000000 0.000000 3.416330 
# 
# 
# High freq. dielectric constant tensor:
#      x y z
#    x 1.743490 0.000000 0.000000 
#    y 0.000000 1.743490 0.000000 
#    z 0.000000 0.000000 1.732030 
# 
# From -- ./inp_files/12234.got.cif
#   From: 2010.03.12/outbox.cif.g09.slc.cpg/sg194_7_cif.got.tgz:12234.got - 2010.04.01 12:26:19.
