data_PCOD8330996
_publ_section_title
;
Structure prediction by ZEFSAII (Michael W. Deem and Ramdas Pophale) SiO2 
 PCOD8330996
Probable space group: I 4 3 2
;
_chemical_formula_sum "Si O2"
_cell_formula_units_Z 64
_cell_length_a 13.383452
_cell_length_b 13.383452
_cell_length_c 13.383452
_cell_angle_alpha 90.000000
_cell_angle_beta 90.000000
_cell_angle_gamma 90.000000
_cell_volume 2397.200927
_symmetry_space_group_name_H-M "I 4 3 2"
_symmetry_group_IT_number 211
_symmetry_cell_setting 'cubic'
loop_
_space_group_symop_operation_xyz
x,y,z
-y,x,z
-x,-y,z
y,-x,z
x,-z,y
x,-y,-z
x,z,-y
z,y,-x
-x,y,-z
-z,y,x
z,x,y
y,z,x
-y,-z,x
z,-x,-y
-y,z,-x
-z,-x,y
-z,x,-y
y,-z,-x
y,x,-z
-y,-x,-z
-x,z,y
-x,-z,-y
z,-y,x
-z,-y,-x
1/2+x,1/2+y,1/2+z
1/2-y,1/2+x,1/2+z
1/2-x,1/2-y,1/2+z
1/2+y,1/2-x,1/2+z
1/2+x,1/2-z,1/2+y
1/2+x,1/2-y,1/2-z
1/2+x,1/2+z,1/2-y
1/2+z,1/2+y,1/2-x
1/2-x,1/2+y,1/2-z
1/2-z,1/2+y,1/2+x
1/2+z,1/2+x,1/2+y
1/2+y,1/2+z,1/2+x
1/2-y,1/2-z,1/2+x
1/2+z,1/2-x,1/2-y
1/2-y,1/2+z,1/2-x
1/2-z,1/2-x,1/2+y
1/2-z,1/2+x,1/2-y
1/2+y,1/2-z,1/2-x
1/2+y,1/2+x,1/2-z
1/2-y,1/2-x,1/2-z
1/2-x,1/2+z,1/2+y
1/2-x,1/2-z,1/2-y
1/2+z,1/2-y,1/2+x
1/2-z,1/2-y,1/2-x
loop_
_atom_site_type_symbol
_atom_site_label
_atom_site_fract_x
_atom_site_fract_y
_atom_site_fract_z
Si Si1 0.680860 0.319140 0.680861
Si Si2 0.555370 0.858158 0.651207
O O1 0.750000 0.250000 0.750000
O O2 0.738924 0.424388 0.665439
O O3 0.626963 0.887654 0.558314
O O4 0.581887 0.918114 0.750000
#
# Coordination Sequence:
#
# PCOD8330996 Si02
#       2
#    16  48
#     4   9  18  36  66 102 136 182 232 291 363 438
#     4  10  21  40  69 106 146 192 246 304 372 448
#
# _framework density 26.697804000000001
#
# number of rings (size 3 to 8) (size 9 to 14) (size 15 to 20)
#    0.000    2.250    0.000    2.250    0.000    0.000 
#    0.000   11.250    0.000   42.750    0.000  199.500 
#    0.000    0.000    0.000    0.000    0.000    0.000 
#
# Total GULP energy -396512.543748 kJ/mol
# GULP energy per Si atom -12391.016992 kJ/mol
# Density = 2.663704 g / cm^3
# Si number density = 26.697804 Si / 1000 Ang^3
#
#
#
# Elastic Constant Matrix: (Units=GPa)
#
#
# Indices 1 2 3 4 5 6 
#
# 1 164.7003 78.9774 78.9772 0.0000 0.0000 0.0000
# 2 78.9774 164.7003 78.9772 0.0000 0.0000 0.0000
# 3 78.9772 78.9772 164.6995 0.0000 0.0000 0.0000
# 4 0.0000 0.0000 0.0000 34.0076 0.0000 0.0000
# 5 0.0000 0.0000 0.0000 0.0000 34.0076 0.0000
# 6 0.0000 0.0000 0.0000 0.0000 0.0000 34.0087
#
#
#
# Elastic Compliance Matrix: (Units=1/GPa)
#
#
# Indices 1 2 3 4 5 6 
#
# 1 0.008810 -0.002855 -0.002855 0.000000 0.000000 0.000000
# 2 -0.002855 0.008810 -0.002855 0.000000 0.000000 0.000000
# 3 -0.002855 -0.002855 0.008810 0.000000 0.000000 0.000000
# 4 0.000000 0.000000 0.000000 0.029405 0.000000 0.000000
# 5 0.000000 0.000000 0.000000 0.000000 0.029405 0.000000
# 6 0.000000 0.000000 0.000000 0.000000 0.000000 0.029404
#
#
# Mechanical properties :
#
#
# Convention : Reuss Voigt Hill
#
# Bulk Modulus (GPa) = 107.55150 107.55150 107.55150
# Shear Modulus (GPa) = 37.07089 37.54933 37.31011
#
# Velocity S-wave (km/s) = 3.73035 3.75435 3.74237
# Velocity P-wave (km/s) = 7.67634 7.69192 7.68414
#
# Compressibility (1/GPa) = 0.00929787
#
# Stress axis : x y z
#
# Youngs Moduli (GPa) = 113.50621 113.50621 113.50570
#
# Poissons Ratio (x) = 0.32411 0.32411
# Poissons Ratio (y) = 0.32411 0.32411
# Poissons Ratio (z) = 0.32411 0.32411
#
# Static dielectric constant tensor:
#      x y z
#    x 4.889720 0.000000 0.000000 
#    y 0.000000 4.889720 0.000000 
#    z 0.000000 0.000000 4.889730 
# 
# 
# High freq. dielectric constant tensor:
#      x y z
#    x 2.073350 0.000000 0.000000 
#    y 0.000000 2.073350 0.000000 
#    z 0.000000 0.000000 2.073350 
# 
# From -- ./inp_files/45.got.cif
#   From: 2010.03.12/outbox.cif.g09.slc.cpg/sg211_cif.got.tgz:45.got - 2010.03.30 09:04:38.
