data_PCOD8330292
_publ_section_title
;
Structure prediction by ZEFSAII (Michael W. Deem and Ramdas Pophale) SiO2 
 PCOD8330292
Probable space group: P 63/M M C
;
_chemical_formula_sum "Si O2"
_cell_formula_units_Z 88
_cell_length_a 26.012306
_cell_length_b 26.012306
_cell_length_c 9.122860
_cell_angle_alpha 90.000000
_cell_angle_beta 90.000000
_cell_angle_gamma 120.000000
_cell_volume 5345.881780
_symmetry_space_group_name_H-M "P 63/M M C"
_symmetry_group_IT_number 194
_symmetry_cell_setting 'hexagonal'
loop_
_space_group_symop_operation_xyz
x,y,z
x-y,x,1/2+z
-y,x-y,z
-x,-y,1/2+z
-x+y,-x,z
y,-x+y,1/2+z
x-y,-y,-z
-x,-x+y,-z
y,x,-z
-y,-x,1/2-z
-x+y,y,1/2-z
x,x-y,1/2-z
-x,-y,-z
-x+y,-x,1/2-z
y,-x+y,-z
x,y,1/2-z
x-y,x,-z
-y,x-y,1/2-z
-x+y,y,z
x,x-y,z
-y,-x,z
y,x,1/2+z
x-y,-y,1/2+z
-x,-x+y,1/2+z
loop_
_atom_site_type_symbol
_atom_site_label
_atom_site_fract_x
_atom_site_fract_y
_atom_site_fract_z
Si Si1 0.480162 0.297308 0.423011
Si Si2 0.604288 0.395713 0.077543
Si Si3 0.666667 0.333334 0.924225
Si Si4 0.822558 0.058412 0.921514
Si Si5 0.114940 0.352019 0.586537
O O1 0.474261 0.289067 0.250000
O O2 0.493153 0.246577 0.488174
O O3 0.534242 0.362854 0.464292
O O4 0.416355 0.287750 0.477778
O O5 0.612689 0.387312 0.250000
O O6 0.633560 0.366441 0.982659
O O7 0.666667 0.333334 0.750000
O O8 0.814097 0.047125 0.750000
O O9 0.887401 0.112600 0.961304
O O10 0.770871 0.070573 0.979405
O O11 0.815884 0.000000 0.000000
O O12 0.086661 0.339697 0.750000
O O13 0.177335 0.354670 0.593569
#
# Coordination Sequence:
#
# PCOD8330292 Si02
#       5
#    24  12   4  24  24
#     4   8  13  21  38  61  79 106 151 196 234 275
#     4  10  16  26  42  54  73 113 160 198 233 288
#     4  12  22  26  28  48  82 113 151 198 250 296
#     4  10  20  33  51  76 102 128 156 181 214 256
#     4   8  14  26  43  64  91 118 148 188 231 272
#
# _framework density 16.461268
#
# number of rings (size 3 to 8) (size 9 to 14) (size 15 to 20)
#    0.000    3.000    1.364    2.864    0.000    1.636 
#    0.000    1.364    0.000    0.273    0.000    0.955 
#    0.000    0.000    0.000    0.000    0.000    0.000 
#
# Total GULP energy -1090267.855354 kJ/mol
# GULP energy per Si atom -12389.407447 kJ/mol
# Density = 1.642380 g / cm^3
# Si number density = 16.461268 Si / 1000 Ang^3
#
#
#
# Elastic Constant Matrix: (Units=GPa)
#
#
# Indices 1 2 3 4 5 6 
#
# 1 88.1095 50.1865 39.6975 0.0000 0.0000 0.0000
# 2 50.1865 88.1093 39.6974 0.0000 0.0000 0.0000
# 3 39.6975 39.6974 66.4155 0.0001 0.0000 0.0000
# 4 0.0000 0.0000 0.0001 12.1587 0.0000 0.0000
# 5 0.0000 0.0000 0.0000 0.0000 12.1585 0.0000
# 6 0.0000 0.0000 0.0000 0.0000 0.0000 18.9614
#
#
#
# Elastic Compliance Matrix: (Units=1/GPa)
#
#
# Indices 1 2 3 4 5 6 
#
# 1 0.018689 -0.007681 -0.006580 0.000000 0.000000 0.000000
# 2 -0.007681 0.018689 -0.006580 0.000000 0.000000 0.000000
# 3 -0.006580 -0.006580 0.022922 0.000000 0.000000 0.000000
# 4 0.000000 0.000000 0.000000 0.082246 0.000000 0.000000
# 5 0.000000 0.000000 0.000000 0.000000 0.082247 0.000000
# 6 0.000000 0.000000 0.000000 0.000000 0.000000 0.052739
#
#
# Mechanical properties :
#
#
# Convention : Reuss Voigt Hill
#
# Bulk Modulus (GPa) = 53.70637 55.75525 54.73081
# Shear Modulus (GPa) = 15.36485 16.19259 15.77872
#
# Velocity S-wave (km/s) = 3.05846 3.13977 3.09938
# Velocity P-wave (km/s) = 6.72079 6.86209 6.79181
#
# Compressibility (1/GPa) = 0.01861977
#
# Stress axis : x y z
#
# Youngs Moduli (GPa) = 53.50804 53.50793 43.62549
#
# Poissons Ratio (x) = 0.41097 0.28705
# Poissons Ratio (y) = 0.41097 0.28705
# Poissons Ratio (z) = 0.35207 0.35207
#
# Static dielectric constant tensor:
#      x y z
#    x 3.191930 0.000000 0.000000 
#    y 0.000000 3.191930 0.000000 
#    z 0.000000 0.000000 2.887740 
# 
# 
# High freq. dielectric constant tensor:
#      x y z
#    x 1.612910 0.000000 0.000000 
#    y 0.000000 1.612910 0.000000 
#    z 0.000000 0.000000 1.607870 
# 
# From -- ./inp_files/1495.got.cif
#   From: 2010.03.12/outbox.cif.g09.slc.cpg/sg194_1_cif.got.tgz:1495.got - 2010.04.01 12:26:19.
