data_PCOD8330581
_publ_section_title
;
Structure prediction by ZEFSAII (Michael W. Deem and Ramdas Pophale) SiO2 
 PCOD8330581
Probable space group: P 63/M M C
;
_chemical_formula_sum "Si O2"
_cell_formula_units_Z 168
_cell_length_a 17.482662
_cell_length_b 17.482662
_cell_length_c 30.727086
_cell_angle_alpha 90.000000
_cell_angle_beta 90.000000
_cell_angle_gamma 120.000000
_cell_volume 8133.306337
_symmetry_space_group_name_H-M "P 63/M M C"
_symmetry_group_IT_number 194
_symmetry_cell_setting 'hexagonal'
loop_
_space_group_symop_operation_xyz
x,y,z
x-y,x,1/2+z
-y,x-y,z
-x,-y,1/2+z
-x+y,-x,z
y,-x+y,1/2+z
x-y,-y,-z
-x,-x+y,-z
y,x,-z
-y,-x,1/2-z
-x+y,y,1/2-z
x,x-y,1/2-z
-x,-y,-z
-x+y,-x,1/2-z
y,-x+y,-z
x,y,1/2-z
x-y,x,-z
-y,x-y,1/2-z
-x+y,y,z
x,x-y,z
-y,-x,z
y,x,1/2+z
x-y,-y,1/2+z
-x,-x+y,1/2+z
loop_
_atom_site_type_symbol
_atom_site_label
_atom_site_fract_x
_atom_site_fract_y
_atom_site_fract_z
Si Si1 0.769162 0.052317 0.458134
Si Si2 0.318546 0.044748 0.298886
Si Si3 0.667184 0.160764 0.156274
Si Si4 0.427913 0.399446 0.076394
Si Si5 0.693197 0.555349 0.797089
Si Si6 0.499090 0.163910 0.890051
Si Si7 0.002440 0.176767 0.871807
O O1 0.847808 0.152192 0.459711
O O2 0.677119 0.054142 0.459218
O O3 0.774106 0.000000 0.500000
O O4 0.773564 0.002711 0.414911
O O5 0.291211 0.055226 0.250000
O O6 0.415069 0.127524 0.308675
O O7 0.329799 0.960816 0.303807
O O8 0.243303 0.036923 0.331191
O O9 0.579305 0.158609 0.174933
O O10 0.738989 0.261012 0.143247
O O11 0.642352 0.098848 0.114543
O O12 0.514814 0.485187 0.056649
O O13 0.356662 0.425183 0.093687
O O14 0.655531 0.507645 0.750000
O O15 0.799371 0.598741 0.797590
O O16 0.652680 0.489504 0.837619
O O17 0.594542 0.189083 0.909607
O O18 0.473209 0.236605 0.905070
O O19 0.904375 0.095626 0.863460
O O20 0.069977 0.139954 0.878218
#
# Coordination Sequence:
#
# PCOD8330581 Si02
#       7
#    24  24  24  24  24  24  24
#     4  11  23  41  67  98 128 161 202 251 309 373
#     4  11  22  37  60  86 117 158 206 255 304 361
#     4  11  22  39  60  86 118 156 202 255 314 372
#     4  10  21  38  62  90 122 160 205 252 301 361
#     4   9  17  29  47  73 105 145 195 247 298 351
#     4  10  19  32  51  79 114 154 197 246 300 355
#     4  11  23  40  61  88 124 164 206 253 305 364
#
# _framework density 20.655805999999998
#
# number of rings (size 3 to 8) (size 9 to 14) (size 15 to 20)
#    0.000    1.571    2.857    2.143    0.000    5.143 
#    0.000    1.429    0.000    5.143    0.000    1.000 
#    0.000    0.000    0.000    0.000    0.000    0.000 
#
# Total GULP energy -2082329.674857 kJ/mol
# GULP energy per Si atom -12394.819493 kJ/mol
# Density = 2.060879 g / cm^3
# Si number density = 20.655806 Si / 1000 Ang^3
#
#
#
# Elastic Constant Matrix: (Units=GPa)
#
#
# Indices 1 2 3 4 5 6 
#
# 1 123.7898 63.2221 34.5678 0.0000 0.0000 0.0000
# 2 63.2221 123.7898 34.5678 0.0000 0.0000 0.0000
# 3 34.5678 34.5678 88.5672 0.0000 0.0000 0.0000
# 4 0.0000 0.0000 0.0000 15.7996 0.0000 0.0000
# 5 0.0000 0.0000 0.0000 0.0000 15.7996 0.0000
# 6 0.0000 0.0000 0.0000 0.0000 0.0000 30.2838
#
#
#
# Elastic Compliance Matrix: (Units=1/GPa)
#
#
# Indices 1 2 3 4 5 6 
#
# 1 0.011380 -0.005131 -0.002439 0.000000 0.000000 0.000000
# 2 -0.005131 0.011380 -0.002439 0.000000 0.000000 0.000000
# 3 -0.002439 -0.002439 0.013195 0.000000 0.000000 0.000000
# 4 0.000000 0.000000 0.000000 0.063293 0.000000 0.000000
# 5 0.000000 0.000000 0.000000 0.000000 0.063293 0.000000
# 6 0.000000 0.000000 0.000000 0.000000 0.000000 0.033021
#
#
# Mechanical properties :
#
#
# Convention : Reuss Voigt Hill
#
# Bulk Modulus (GPa) = 62.74821 66.76247 64.75534
# Shear Modulus (GPa) = 22.63572 25.96255 24.29914
#
# Velocity S-wave (km/s) = 3.31396 3.54914 3.43356
# Velocity P-wave (km/s) = 6.71469 7.01333 6.86563
#
# Compressibility (1/GPa) = 0.01593671
#
# Stress axis : x y z
#
# Youngs Moduli (GPa) = 87.87593 87.87593 75.78799
#
# Poissons Ratio (x) = 0.45087 0.18484
# Poissons Ratio (y) = 0.45087 0.18484
# Poissons Ratio (z) = 0.21432 0.21432
#
# Static dielectric constant tensor:
#      x y z
#    x 3.776790 0.000000 0.000000 
#    y 0.000000 3.776790 0.000000 
#    z 0.000000 0.000000 3.601770 
# 
# 
# High freq. dielectric constant tensor:
#      x y z
#    x 1.812320 0.000000 0.000000 
#    y 0.000000 1.812320 0.000000 
#    z 0.000000 0.000000 1.785950 
# 
# From -- ./inp_files/12279.got.cif
#   From: 2010.03.12/outbox.cif.g09.slc.cpg/sg194_7_cif.got.tgz:12279.got - 2010.04.01 12:26:19.
