data_PCOD8330272
_publ_section_title
;
Structure prediction by ZEFSAII (Michael W. Deem and Ramdas Pophale) SiO2 
 PCOD8330272
Probable space group: P 63/M C M
;
_chemical_formula_sum "Si O2"
_cell_formula_units_Z 96
_cell_length_a 18.233484
_cell_length_b 18.233484
_cell_length_c 20.015214
_cell_angle_alpha 90.000000
_cell_angle_beta 90.000000
_cell_angle_gamma 120.000000
_cell_volume 5762.755450
_symmetry_space_group_name_H-M "P 63/M C M"
_symmetry_group_IT_number 193
_symmetry_cell_setting 'hexagonal'
loop_
_space_group_symop_operation_xyz
x,y,z
x-y,x,1/2+z
-y,x-y,z
-x,-y,1/2+z
-x+y,-x,z
y,-x+y,1/2+z
x-y,-y,1/2-z
-x,-x+y,1/2-z
y,x,1/2-z
-y,-x,-z
-x+y,y,-z
x,x-y,-z
-x,-y,-z
-x+y,-x,1/2-z
y,-x+y,-z
x,y,1/2-z
x-y,x,-z
-y,x-y,1/2-z
-x+y,y,1/2+z
x,x-y,1/2+z
-y,-x,1/2+z
y,x,z
x-y,-y,z
-x,-x+y,z
loop_
_atom_site_type_symbol
_atom_site_label
_atom_site_fract_x
_atom_site_fract_y
_atom_site_fract_z
Si Si1 0.902084 0.388039 0.172761
Si Si2 0.389751 0.615113 0.425454
Si Si3 0.221531 0.321990 0.824033
Si Si4 0.901886 0.098659 0.576768
O O1 0.884632 0.396936 0.250000
O O2 0.849272 0.418874 0.128425
O O3 0.872712 0.290447 0.155604
O O4 0.000000 0.448498 0.155200
O O5 0.429233 0.717069 0.416119
O O6 0.407078 0.592923 0.500000
O O7 0.184536 0.320460 0.750000
O O8 0.268743 0.268743 0.821941
O O9 0.145871 0.280950 0.877782
O O10 0.886773 0.113228 0.500000
O O11 0.000000 0.149161 0.596209
O O12 0.867938 0.000000 0.590583
#
# Coordination Sequence:
#
# PCOD8330272 Si02
#       4
#    24  24  24  24
#     4   9  17  30  50  73  94 122 160 195 228 276
#     4   8  17  33  49  72 102 126 153 191 233 275
#     4   8  15  28  43  61  85 112 149 194 231 271
#     4   9  16  26  39  58  84 116 155 198 242 284
#
# _framework density 16.658697
#
# number of rings (size 3 to 8) (size 9 to 14) (size 15 to 20)
#    0.500    3.000    0.000    1.750    0.000    3.000 
#    4.500    0.000    0.000    3.000    0.000    0.000 
#    0.000    0.000    0.000    0.000    0.000    0.000 
#
# Total GULP energy -1189510.321683 kJ/mol
# GULP energy per Si atom -12390.732518 kJ/mol
# Density = 1.662078 g / cm^3
# Si number density = 16.658697 Si / 1000 Ang^3
#
#
#
# Elastic Constant Matrix: (Units=GPa)
#
#
# Indices 1 2 3 4 5 6 
#
# 1 53.8569 25.3880 49.6505 0.0000 0.0000 0.0000
# 2 25.3880 53.8569 49.6505 0.0000 0.0000 0.0000
# 3 49.6505 49.6505 103.8455 0.0000 0.0000 0.0000
# 4 0.0000 0.0000 0.0000 31.5903 0.0000 0.0000
# 5 0.0000 0.0000 0.0000 0.0000 31.5903 0.0000
# 6 0.0000 0.0000 0.0000 0.0000 0.0000 14.2345
#
#
#
# Elastic Compliance Matrix: (Units=1/GPa)
#
#
# Indices 1 2 3 4 5 6 
#
# 1 0.033302 -0.001824 -0.015051 0.000000 0.000000 0.000000
# 2 -0.001824 0.033302 -0.015051 0.000000 0.000000 0.000000
# 3 -0.015051 -0.015051 0.024022 0.000000 0.000000 0.000000
# 4 0.000000 0.000000 0.000000 0.031655 0.000000 0.000000
# 5 0.000000 0.000000 0.000000 0.000000 0.031655 0.000000
# 6 0.000000 0.000000 0.000000 0.000000 0.000000 0.070252
#
#
# Mechanical properties :
#
#
# Convention : Reuss Voigt Hill
#
# Bulk Modulus (GPa) = 37.34567 51.21526 44.28046
# Shear Modulus (GPa) = 16.83702 21.27436 19.05569
#
# Velocity S-wave (km/s) = 3.18261 3.57749 3.38581
# Velocity P-wave (km/s) = 5.99767 6.91919 6.47485
#
# Compressibility (1/GPa) = 0.02677687
#
# Stress axis : x y z
#
# Youngs Moduli (GPa) = 30.02781 30.02781 41.62906
#
# Poissons Ratio (x) = 0.05476 0.62654
# Poissons Ratio (y) = 0.05476 0.62654
# Poissons Ratio (z) = 0.45194 0.45194
#
# Static dielectric constant tensor:
#      x y z
#    x 2.879810 0.000000 0.000000 
#    y 0.000000 2.879810 0.000000 
#    z 0.000000 0.000000 3.223140 
# 
# 
# High freq. dielectric constant tensor:
#      x y z
#    x 1.614100 0.000000 0.000000 
#    y 0.000000 1.614100 0.000000 
#    z 0.000000 0.000000 1.647120 
# 
# From -- ./inp_files/3565.got.cif
#   From: 2010.03.12/outbox.cif.g09.slc.cpg/sg193_2_cif.got.tgz:3565.got - 2010.04.01 12:20:39.
