data_PCOD8330963
_publ_section_title
;
Structure prediction by ZEFSAII (Michael W. Deem and Ramdas Pophale) SiO2 
 PCOD8330963
Probable space group: I A 3
;
_chemical_formula_sum "Si O2"
_cell_formula_units_Z 312
_cell_length_a 25.499644
_cell_length_b 25.499644
_cell_length_c 25.499644
_cell_angle_alpha 90.000000
_cell_angle_beta 90.000000
_cell_angle_gamma 90.000000
_cell_volume 16580.680543
_symmetry_space_group_name_H-M "I A 3"
_symmetry_group_IT_number 206
_symmetry_cell_setting 'cubic'
loop_
_space_group_symop_operation_xyz
x,y,z
z,x,y
y,z,x
-y,1/2-z,x
z,-x,1/2-y
1/2-y,z,-x
-z,1/2-x,y
1/2-z,x,-y
y,-z,1/2-x
-x,1/2-y,z
x,-y,1/2-z
1/2-x,y,-z
-x,-y,-z
-z,-x,-y
-y,-z,-x
y,1/2+z,-x
-z,x,1/2+y
1/2+y,-z,x
z,1/2+x,-y
1/2+z,-x,y
-y,z,1/2+x
x,1/2+y,-z
-x,y,1/2+z
1/2+x,-y,z
1/2+x,1/2+y,1/2+z
1/2+z,1/2+x,1/2+y
1/2+y,1/2+z,1/2+x
1/2-y,-z,1/2+x
1/2+z,1/2-x,-y
-y,1/2+z,1/2-x
1/2-z,-x,1/2+y
-z,1/2+x,1/2-y
1/2+y,1/2-z,-x
1/2-x,-y,1/2+z
1/2+x,1/2-y,-z
-x,1/2+y,1/2-z
1/2-x,1/2-y,1/2-z
1/2-z,1/2-x,1/2-y
1/2-y,1/2-z,1/2-x
1/2+y,z,1/2-x
1/2-z,1/2+x,y
y,1/2-z,1/2+x
1/2+z,x,1/2-y
z,1/2-x,1/2+y
1/2-y,1/2+z,x
1/2+x,y,1/2-z
1/2-x,1/2+y,z
x,1/2-y,1/2+z
loop_
_atom_site_type_symbol
_atom_site_label
_atom_site_fract_x
_atom_site_fract_y
_atom_site_fract_z
Si Si1 0.893075 0.727375 0.928627
Si Si2 0.130464 0.867130 0.641993
Si Si3 0.958625 0.211434 0.979181
Si Si4 0.250000 0.123043 0.000000
Si Si5 0.101381 0.448629 0.045797
Si Si6 0.380344 0.254944 0.594873
Si Si7 0.691190 0.277095 0.998950
O O1 0.874976 0.688727 0.883034
O O2 0.843882 0.763822 0.946926
O O3 0.945660 0.757386 0.909220
O O4 0.911745 0.696034 0.980683
O O5 0.088136 0.904095 0.613072
O O6 0.131010 0.870012 0.704702
O O7 0.118439 0.807359 0.628322
O O8 0.983247 0.156759 0.959920
O O9 0.937108 0.246380 0.931214
O O10 0.000000 0.250000 0.007521
O O11 0.302349 0.159596 0.002040
O O12 0.077169 0.504003 0.063088
O O13 0.336040 0.256488 0.550826
O O14 0.750000 0.251337 0.000000
#
# Coordination Sequence:
#
# PCOD8330963 Si02
#       7
#    48  48  48  24  48  48  48
#     4  11  20  38  63  83 120 166 201 263 323 375
#     4  11  22  39  59  88 122 158 211 254 320 377
#     4  10  20  37  58  85 112 156 200 243 306 376
#     4  10  20  40  66  88 126 162 214 276 318 398
#     4  11  22  37  56  84 120 157 196 249 305 374
#     4  10  22  36  60  87 119 157 202 259 307 375
#     4   9  21  39  59  89 121 161 212 265 324 388
#
# _framework density 18.817080000000001
#
# number of rings (size 3 to 8) (size 9 to 14) (size 15 to 20)
#    0.462    1.231    3.846    1.077    2.154    0.000 
#    0.923    0.000    0.000    0.308    0.000    0.000 
#    0.000    0.000    0.000    0.000    0.000    0.000 
#
# Total GULP energy -1932659.437132 kJ/mol
# GULP energy per Si atom -12388.842546 kJ/mol
# Density = 1.877425 g / cm^3
# Si number density = 18.817080 Si / 1000 Ang^3
#
#
#
# Elastic Constant Matrix: (Units=GPa)
#
#
# Indices 1 2 3 4 5 6 
#
# 1 96.5861 43.0856 43.0856 0.0000 0.0000 0.0000
# 2 43.0856 96.5861 43.0856 0.0000 0.0000 0.0000
# 3 43.0856 43.0856 96.5861 0.0000 0.0000 0.0000
# 4 0.0000 0.0000 0.0000 29.6309 0.0000 0.0000
# 5 0.0000 0.0000 0.0000 0.0000 29.6309 0.0000
# 6 0.0000 0.0000 0.0000 0.0000 0.0000 29.6309
#
#
#
# Elastic Compliance Matrix: (Units=1/GPa)
#
#
# Indices 1 2 3 4 5 6 
#
# 1 0.014285 -0.004407 -0.004407 0.000000 0.000000 0.000000
# 2 -0.004407 0.014285 -0.004407 0.000000 0.000000 0.000000
# 3 -0.004407 -0.004407 0.014285 0.000000 0.000000 0.000000
# 4 0.000000 0.000000 0.000000 0.033749 0.000000 0.000000
# 5 0.000000 0.000000 0.000000 0.000000 0.033749 0.000000
# 6 0.000000 0.000000 0.000000 0.000000 0.000000 0.033749
#
#
# Mechanical properties :
#
#
# Convention : Reuss Voigt Hill
#
# Bulk Modulus (GPa) = 60.91907 60.91907 60.91907
# Shear Modulus (GPa) = 28.40724 28.47862 28.44293
#
# Velocity S-wave (km/s) = 3.88964 3.89452 3.89208
# Velocity P-wave (km/s) = 7.25376 7.25725 7.25551
#
# Compressibility (1/GPa) = 0.01641522
#
# Stress axis : x y z
#
# Youngs Moduli (GPa) = 70.00419 70.00419 70.00419
#
# Poissons Ratio (x) = 0.30848 0.30848
# Poissons Ratio (y) = 0.30848 0.30848
# Poissons Ratio (z) = 0.30848 0.30848
#
# Static dielectric constant tensor:
#      x y z
#    x 3.419020 0.000000 0.000000 
#    y 0.000000 3.419020 0.000000 
#    z 0.000000 0.000000 3.419020 
# 
# 
# High freq. dielectric constant tensor:
#      x y z
#    x 1.727660 0.000000 0.000000 
#    y 0.000000 1.727660 0.000000 
#    z 0.000000 0.000000 1.727660 
# 
# From -- ./inp_files/617.got.cif
#   From: 2010.03.12/outbox.cif.g09.slc.cpg/sg206_cif.got.tgz:617.got - 2010.03.30 09:03:11.
