data_PCOD8330418
_publ_section_title
;
Structure prediction by ZEFSAII (Michael W. Deem and Ramdas Pophale) SiO2 
 PCOD8330418
Probable space group: P 63/M M C
;
_chemical_formula_sum "Si O2"
_cell_formula_units_Z 112
_cell_length_a 29.447823
_cell_length_b 29.447823
_cell_length_c 9.291021
_cell_angle_alpha 90.000000
_cell_angle_beta 90.000000
_cell_angle_gamma 120.000000
_cell_volume 6977.509902
_symmetry_space_group_name_H-M "P 63/M M C"
_symmetry_group_IT_number 194
_symmetry_cell_setting 'hexagonal'
loop_
_space_group_symop_operation_xyz
x,y,z
x-y,x,1/2+z
-y,x-y,z
-x,-y,1/2+z
-x+y,-x,z
y,-x+y,1/2+z
x-y,-y,-z
-x,-x+y,-z
y,x,-z
-y,-x,1/2-z
-x+y,y,1/2-z
x,x-y,1/2-z
-x,-y,-z
-x+y,-x,1/2-z
y,-x+y,-z
x,y,1/2-z
x-y,x,-z
-y,x-y,1/2-z
-x+y,y,z
x,x-y,z
-y,-x,z
y,x,1/2+z
x-y,-y,1/2+z
-x,-x+y,1/2+z
loop_
_atom_site_type_symbol
_atom_site_label
_atom_site_fract_x
_atom_site_fract_y
_atom_site_fract_z
Si Si1 0.049459 0.399612 0.415072
Si Si2 0.607490 0.214979 0.919833
Si Si3 0.666667 0.333334 0.577815
Si Si4 0.782256 0.217745 0.422046
Si Si5 0.163683 0.836318 0.082945
Si Si6 0.703815 0.753682 0.415803
Si Si7 0.673802 0.162258 0.918420
O O1 0.033405 0.392573 0.250000
O O2 0.061595 0.353926 0.464033
O O3 0.099942 0.455946 0.445034
O O4 0.000000 0.395286 0.500000
O O5 0.609428 0.218855 0.750000
O O6 0.636989 0.273977 0.983220
O O7 0.635842 0.183387 0.971338
O O8 0.666667 0.333334 0.750000
O O9 0.782187 0.217814 0.250000
O O10 0.811748 0.188253 0.478246
O O11 0.810891 0.276179 0.481069
O O12 0.173397 0.826604 0.250000
O O13 0.101648 0.809336 0.051029
O O14 0.749069 0.749069 0.500000
O O15 0.713648 0.748495 0.250000
O O16 0.689932 0.175173 0.750000
#
# Coordination Sequence:
#
# PCOD8330418 Si02
#       7
#    24  12   4  12  12  24  24
#     4   9  17  29  47  67  93 125 156 193 238 281
#     4   9  18  31  55  77  90 112 151 193 230 282
#     4   9  15  27  45  78 100 104 130 189 247 275
#     4  12  23  31  47  75  99 123 152 193 242 289
#     4  10  18  33  51  70  97 133 170 201 236 282
#     4   9  17  29  46  68  96 130 164 199 243 284
#     4  10  19  35  53  71  93 122 157 196 237 284
#
# _framework density 16.051570999999999
#
# number of rings (size 3 to 8) (size 9 to 14) (size 15 to 20)
#    0.000    2.357    2.143    1.607    0.000    3.429 
#    0.000    1.071    0.000    0.000    0.000    0.000 
#    0.000    0.000    0.000    0.321    0.000    3.857 
#
# Total GULP energy -1388663.267386 kJ/mol
# GULP energy per Si atom -12398.779173 kJ/mol
# Density = 1.601504 g / cm^3
# Si number density = 16.051571 Si / 1000 Ang^3
#
#
#
# Elastic Constant Matrix: (Units=GPa)
#
#
# Indices 1 2 3 4 5 6 
#
# 1 118.2235 65.3315 47.9886 0.0000 0.0000 0.0000
# 2 65.3315 118.2233 47.9886 -0.0001 0.0000 0.0000
# 3 47.9886 47.9886 66.1564 0.0000 0.0000 0.0000
# 4 0.0000 -0.0001 0.0000 13.8899 0.0000 0.0000
# 5 0.0000 0.0000 0.0000 0.0000 13.8898 0.0000
# 6 0.0000 0.0000 0.0000 0.0000 0.0000 26.4461
#
#
#
# Elastic Compliance Matrix: (Units=1/GPa)
#
#
# Indices 1 2 3 4 5 6 
#
# 1 0.013842 -0.005065 -0.006367 0.000000 0.000000 0.000000
# 2 -0.005065 0.013842 -0.006367 0.000000 0.000000 0.000000
# 3 -0.006367 -0.006367 0.024352 0.000000 0.000000 0.000000
# 4 0.000000 0.000000 0.000000 0.071995 0.000000 0.000000
# 5 0.000000 0.000000 0.000000 0.000000 0.071995 0.000000
# 6 0.000000 0.000000 0.000000 0.000000 0.000000 0.037813
#
#
# Mechanical properties :
#
#
# Convention : Reuss Voigt Hill
#
# Bulk Modulus (GPa) = 60.82902 69.46897 65.14899
# Shear Modulus (GPa) = 18.18747 20.26478 19.22613
#
# Velocity S-wave (km/s) = 3.36975 3.55699 3.46464
# Velocity P-wave (km/s) = 7.28825 7.76158 7.52864
#
# Compressibility (1/GPa) = 0.01643952
#
# Stress axis : x y z
#
# Youngs Moduli (GPa) = 72.24549 72.24530 41.06412
#
# Poissons Ratio (x) = 0.36590 0.26144
# Poissons Ratio (y) = 0.36591 0.26144
# Poissons Ratio (z) = 0.45996 0.45996
#
# Static dielectric constant tensor:
#      x y z
#    x 3.066020 0.000000 0.000000 
#    y 0.000000 3.066020 0.000000 
#    z 0.000000 0.000000 2.890420 
# 
# 
# High freq. dielectric constant tensor:
#      x y z
#    x 1.604670 0.000000 0.000000 
#    y 0.000000 1.604670 0.000000 
#    z 0.000000 0.000000 1.599210 
# 
# From -- ./inp_files/1983.got.cif
#   From: 2010.03.12/outbox.cif.g09.slc.cpg/sg194_1_cif.got.tgz:1983.got - 2010.04.01 12:26:19.
