data_PCOD8330016
_publ_section_title
;
Structure prediction by ZEFSAII (Michael W. Deem and Ramdas Pophale) SiO2 
 PCOD8330016
Probable space group: P 63/M C M
;
_chemical_formula_sum "Si O2"
_cell_formula_units_Z 144
_cell_length_a 32.354787
_cell_length_b 32.354787
_cell_length_c 8.758874
_cell_angle_alpha 90.000000
_cell_angle_beta 90.000000
_cell_angle_gamma 120.000000
_cell_volume 7940.649026
_symmetry_space_group_name_H-M "P 63/M C M"
_symmetry_group_IT_number 193
_symmetry_cell_setting 'hexagonal'
loop_
_space_group_symop_operation_xyz
x,y,z
x-y,x,1/2+z
-y,x-y,z
-x,-y,1/2+z
-x+y,-x,z
y,-x+y,1/2+z
x-y,-y,1/2-z
-x,-x+y,1/2-z
y,x,1/2-z
-y,-x,-z
-x+y,y,-z
x,x-y,-z
-x,-y,-z
-x+y,-x,1/2-z
y,-x+y,-z
x,y,1/2-z
x-y,x,-z
-y,x-y,1/2-z
-x+y,y,1/2+z
x,x-y,1/2+z
-y,-x,1/2+z
y,x,z
x-y,-y,z
-x,-x+y,z
loop_
_atom_site_type_symbol
_atom_site_label
_atom_site_fract_x
_atom_site_fract_y
_atom_site_fract_z
Si Si1 0.144811 0.617878 0.570040
Si Si2 0.051256 0.480951 0.572386
Si Si3 0.804810 0.521777 0.070880
Si Si4 0.630722 0.859633 0.429050
Si Si5 0.054564 0.771555 0.570467
Si Si6 0.054591 0.195077 0.929482
O O1 0.151441 0.575721 0.500000
O O2 0.147157 0.615764 0.750000
O O3 0.094638 0.613949 0.515813
O O4 0.185147 0.668296 0.508403
O O5 0.046105 0.523053 0.500000
O O6 0.064684 0.491595 0.750000
O O7 0.000000 0.432043 0.551895
O O8 0.799279 0.512377 0.250000
O O9 0.845224 0.576259 0.033838
O O10 0.755378 0.510756 0.000000
O O11 0.643351 0.821676 0.500000
O O12 0.639802 0.861360 0.250000
O O13 0.664700 0.911598 0.500822
O O14 0.062340 0.778000 0.750000
O O15 0.068901 0.822682 0.499875
O O16 0.000000 0.732846 0.528631
O O17 0.062593 0.201470 0.750000
O O18 0.000000 0.156396 0.970782
O O19 0.088244 0.176488 0.000000
#
# Coordination Sequence:
#
# PCOD8330016 Si02
#       6
#    24  24  24  24  24  24
#     4  11  21  34  55  81 109 141 176 216 260 307
#     4   9  16  27  45  70 101 135 170 208 248 292
#     4  10  21  38  58  81 107 137 175 217 261 307
#     4  10  20  34  54  76 101 134 171 212 254 302
#     4  10  20  33  50  73 103 137 172 212 256 304
#     4  10  20  33  50  72  98 129 166 210 261 316
#
# _framework density 18.134537000000002
#
# number of rings (size 3 to 8) (size 9 to 14) (size 15 to 20)
#    0.000    2.000    0.000    5.500    0.000    5.000 
#    0.000    0.833    0.000    1.500    0.000    2.333 
#    0.000    0.000    0.000    0.000    0.000    0.000 
#
# Total GULP energy -1785311.170089 kJ/mol
# GULP energy per Si atom -12397.994237 kJ/mol
# Density = 1.809326 g / cm^3
# Si number density = 18.134537 Si / 1000 Ang^3
#
#
#
# Elastic Constant Matrix: (Units=GPa)
#
#
# Indices 1 2 3 4 5 6 
#
# 1 105.2581 61.0990 61.0977 0.0000 0.0000 0.0000
# 2 61.0990 105.2581 61.0977 0.0000 0.0000 0.0000
# 3 61.0977 61.0977 133.7668 0.0000 0.0000 0.0000
# 4 0.0000 0.0000 0.0000 30.8489 0.0000 0.0000
# 5 0.0000 0.0000 0.0000 0.0000 30.8489 0.0000
# 6 0.0000 0.0000 0.0000 0.0000 0.0000 22.0795
#
#
#
# Elastic Compliance Matrix: (Units=1/GPa)
#
#
# Indices 1 2 3 4 5 6 
#
# 1 0.015846 -0.006800 -0.004132 0.000000 0.000000 0.000000
# 2 -0.006800 0.015846 -0.004132 0.000000 0.000000 0.000000
# 3 -0.004132 -0.004132 0.011250 0.000000 0.000000 0.000000
# 4 0.000000 0.000000 0.000000 0.032416 0.000000 0.000000
# 5 0.000000 0.000000 0.000000 0.000000 0.032416 0.000000
# 6 0.000000 0.000000 0.000000 0.000000 0.000000 0.045291
#
#
# Mechanical properties :
#
#
# Convention : Reuss Voigt Hill
#
# Bulk Modulus (GPa) = 78.03275 78.98576 78.50926
# Shear Modulus (GPa) = 26.67198 27.48805 27.08002
#
# Velocity S-wave (km/s) = 3.83924 3.89753 3.86850
# Velocity P-wave (km/s) = 7.92315 7.99402 7.95866
#
# Compressibility (1/GPa) = 0.01281513
#
# Stress axis : x y z
#
# Youngs Moduli (GPa) = 63.10834 63.10834 88.88822
#
# Poissons Ratio (x) = 0.42911 0.36727
# Poissons Ratio (y) = 0.42911 0.36727
# Poissons Ratio (z) = 0.26075 0.26075
#
# Static dielectric constant tensor:
#      x y z
#    x 3.373140 0.000000 0.000000 
#    y 0.000000 3.373140 0.000000 
#    z 0.000000 0.000000 3.498760 
# 
# 
# High freq. dielectric constant tensor:
#      x y z
#    x 1.687970 0.000000 0.000000 
#    y 0.000000 1.687970 0.000000 
#    z 0.000000 0.000000 1.723910 
# 
# From -- ./inp_files/1494.got.cif
#   From: 2010.03.12/outbox.cif.g09.slc.cpg/sg193_1_cif.got.tgz:1494.got - 2010.04.01 12:20:39.
