data_PCOD8330464
_publ_section_title
;
Structure prediction by ZEFSAII (Michael W. Deem and Ramdas Pophale) SiO2 
 PCOD8330464
Probable space group: P 63/M M C
;
_chemical_formula_sum "Si O2"
_cell_formula_units_Z 108
_cell_length_a 17.583619
_cell_length_b 17.583619
_cell_length_c 25.613757
_cell_angle_alpha 90.000000
_cell_angle_beta 90.000000
_cell_angle_gamma 120.000000
_cell_volume 6858.362666
_symmetry_space_group_name_H-M "P 63/M M C"
_symmetry_group_IT_number 194
_symmetry_cell_setting 'hexagonal'
loop_
_space_group_symop_operation_xyz
x,y,z
x-y,x,1/2+z
-y,x-y,z
-x,-y,1/2+z
-x+y,-x,z
y,-x+y,1/2+z
x-y,-y,-z
-x,-x+y,-z
y,x,-z
-y,-x,1/2-z
-x+y,y,1/2-z
x,x-y,1/2-z
-x,-y,-z
-x+y,-x,1/2-z
y,-x+y,-z
x,y,1/2-z
x-y,x,-z
-y,x-y,1/2-z
-x+y,y,z
x,x-y,z
-y,-x,z
y,x,1/2+z
x-y,-y,1/2+z
-x,-x+y,1/2+z
loop_
_atom_site_type_symbol
_atom_site_label
_atom_site_fract_x
_atom_site_fract_y
_atom_site_fract_z
Si Si1 0.929901 0.683883 0.308628
Si Si2 0.703333 0.940155 0.399638
Si Si3 0.584740 0.999854 0.939727
Si Si4 0.822049 0.822049 0.500000
Si Si5 0.157810 0.491977 0.632714
O O1 0.967649 0.697609 0.250000
O O2 0.854362 0.708724 0.312532
O O3 0.890833 0.581589 0.323005
O O4 0.006562 0.751308 0.346615
O O5 0.685375 0.842688 0.392365
O O6 0.610604 0.935784 0.409724
O O7 0.765997 0.989997 0.448474
O O8 0.518022 0.036044 0.929190
O O9 0.542628 0.899465 0.920041
O O10 0.605405 0.000000 0.000000
O O11 0.916624 0.833247 0.491205
O O12 0.254162 0.508323 0.619946
O O13 0.165112 0.582556 0.652482
#
# Coordination Sequence:
#
# PCOD8330464 Si02
#       5
#    24  24  24  12  24
#     4   9  18  32  47  64  91 125 155 186 228 274
#     4  10  19  30  48  71  91 117 156 197 231 271
#     4   9  17  30  45  64  92 125 155 188 232 278
#     4  10  19  30  45  68  96 122 148 184 231 276
#     4   9  17  28  45  68  94 123 154 188 228 275
#
# _framework density 15.747197999999999
#
# number of rings (size 3 to 8) (size 9 to 14) (size 15 to 20)
#    0.000    2.667    1.111    1.000    0.000    2.667 
#    0.000    0.000    0.000    2.222    0.000    0.000 
#    0.000    0.000    0.000    0.667    0.000    0.889 
#
# Total GULP energy -1338974.823580 kJ/mol
# GULP energy per Si atom -12397.915033 kJ/mol
# Density = 1.571136 g / cm^3
# Si number density = 15.747198 Si / 1000 Ang^3
#
#
#
# Elastic Constant Matrix: (Units=GPa)
#
#
# Indices 1 2 3 4 5 6 
#
# 1 94.8780 51.7832 49.7661 0.0000 0.0000 0.0000
# 2 51.7832 94.8780 49.7661 0.0000 0.0000 0.0000
# 3 49.7661 49.7661 122.4947 0.0000 0.0000 0.0000
# 4 0.0000 0.0000 0.0000 19.5011 0.0000 0.0000
# 5 0.0000 0.0000 0.0000 0.0000 19.5011 0.0000
# 6 0.0000 0.0000 0.0000 0.0000 0.0000 21.5474
#
#
#
# Elastic Compliance Matrix: (Units=1/GPa)
#
#
# Indices 1 2 3 4 5 6 
#
# 1 0.016309 -0.006895 -0.003825 0.000000 0.000000 0.000000
# 2 -0.006895 0.016309 -0.003825 0.000000 0.000000 0.000000
# 3 -0.003825 -0.003825 0.011271 0.000000 0.000000 0.000000
# 4 0.000000 0.000000 0.000000 0.051279 0.000000 0.000000
# 5 0.000000 0.000000 0.000000 0.000000 0.051279 0.000000
# 6 0.000000 0.000000 0.000000 0.000000 0.000000 0.046409
#
#
# Mechanical properties :
#
#
# Convention : Reuss Voigt Hill
#
# Bulk Modulus (GPa) = 67.56396 68.32014 67.94205
# Shear Modulus (GPa) = 22.03803 22.83894 22.43848
#
# Velocity S-wave (km/s) = 3.74503 3.81248 3.77891
# Velocity P-wave (km/s) = 7.85486 7.92841 7.89172
#
# Compressibility (1/GPa) = 0.01480079
#
# Stress axis : x y z
#
# Youngs Moduli (GPa) = 61.31448 61.31448 88.72073
#
# Poissons Ratio (x) = 0.42278 0.33933
# Poissons Ratio (y) = 0.42278 0.33933
# Poissons Ratio (z) = 0.23451 0.23451
#
# Static dielectric constant tensor:
#      x y z
#    x 3.007340 0.000000 0.000000 
#    y 0.000000 3.007340 0.000000 
#    z 0.000000 0.000000 3.023280 
# 
# 
# High freq. dielectric constant tensor:
#      x y z
#    x 1.599860 0.000000 0.000000 
#    y 0.000000 1.599860 0.000000 
#    z 0.000000 0.000000 1.602660 
# 
# From -- ./inp_files/9240.got.cif
#   From: 2010.03.12/outbox.cif.g09.slc.cpg/sg194_5_cif.got.tgz:9240.got - 2010.04.01 12:26:19.
