data_PCOD8330304
_publ_section_title
;
Structure prediction by ZEFSAII (Michael W. Deem and Ramdas Pophale) SiO2 
 PCOD8330304
Probable space group: P 63/M M C
;
_chemical_formula_sum "Si O2"
_cell_formula_units_Z 192
_cell_length_a 24.386200
_cell_length_b 24.386200
_cell_length_c 23.170473
_cell_angle_alpha 90.000000
_cell_angle_beta 90.000000
_cell_angle_gamma 120.000000
_cell_volume 11933.114116
_symmetry_space_group_name_H-M "P 63/M M C"
_symmetry_group_IT_number 194
_symmetry_cell_setting 'hexagonal'
loop_
_space_group_symop_operation_xyz
x,y,z
x-y,x,1/2+z
-y,x-y,z
-x,-y,1/2+z
-x+y,-x,z
y,-x+y,1/2+z
x-y,-y,-z
-x,-x+y,-z
y,x,-z
-y,-x,1/2-z
-x+y,y,1/2-z
x,x-y,1/2-z
-x,-y,-z
-x+y,-x,1/2-z
y,-x+y,-z
x,y,1/2-z
x-y,x,-z
-y,x-y,1/2-z
-x+y,y,z
x,x-y,z
-y,-x,z
y,x,1/2+z
x-y,-y,1/2+z
-x,-x+y,1/2+z
loop_
_atom_site_type_symbol
_atom_site_label
_atom_site_fract_x
_atom_site_fract_y
_atom_site_fract_z
Si Si1 0.817685 0.055334 0.315838
Si Si2 0.369781 0.064284 0.314243
Si Si3 0.257083 0.066504 0.615049
Si Si4 0.540575 0.207508 0.496020
Si Si5 0.626730 0.707172 0.316327
Si Si6 0.851672 0.272472 0.417274
Si Si7 0.662220 0.930882 0.014944
Si Si8 0.160439 0.448731 0.408782
O O1 0.818100 0.032446 0.250000
O O2 0.885499 0.114502 0.332478
O O3 0.765047 0.076018 0.320398
O O4 0.801072 0.999499 0.361760
O O5 0.399366 0.084097 0.250000
O O6 0.420634 0.107937 0.362100
O O7 0.349282 0.991316 0.325812
O O8 0.233321 0.116660 0.618192
O O9 0.317781 0.089049 0.655994
O O10 0.276241 0.062591 0.548426
O O11 0.598569 0.197137 0.481565
O O12 0.562056 0.281028 0.487786
O O13 0.482775 0.163818 0.453968
O O14 0.517709 0.186491 0.562533
O O15 0.622718 0.720546 0.250000
O O16 0.558562 0.690770 0.344162
O O17 0.787585 0.212416 0.395123
O O18 0.889590 0.246474 0.456065
O O19 0.602558 0.900340 0.056705
O O20 0.674407 0.000000 0.000000
O O21 0.214949 0.429897 0.411959
#
# Coordination Sequence:
#
# PCOD8330304 Si02
#       8
#    24  24  24  24  24  24  24  24
#     4   9  17  28  41  59  84 113 145 180 218 262
#     4   9  17  28  44  66  91 119 145 171 210 260
#     4  10  18  27  40  60  85 111 142 180 222 267
#     4   9  18  32  50  70  90 114 144 180 220 255
#     4   9  16  26  42  65  93 122 145 169 208 258
#     4  10  18  28  45  67  90 115 144 180 216 253
#     4  10  17  26  40  60  89 119 140 168 213 265
#     4   9  17  28  43  66  92 115 144 181 215 251
#
# _framework density 16.089680000000001
#
# number of rings (size 3 to 8) (size 9 to 14) (size 15 to 20)
#    0.000    2.625    0.000    6.875    0.000    2.500 
#    0.000    1.250    0.000   14.500    0.000    1.750 
#    0.000    2.500    0.000    0.000    0.000    0.000 
#
# Total GULP energy -2379391.474426 kJ/mol
# GULP energy per Si atom -12392.663929 kJ/mol
# Density = 1.605306 g / cm^3
# Si number density = 16.089680 Si / 1000 Ang^3
#
#
#
# Elastic Constant Matrix: (Units=GPa)
#
#
# Indices 1 2 3 4 5 6 
#
# 1 72.6829 37.5420 40.2840 0.0000 0.0000 0.0000
# 2 37.5420 72.6829 40.2840 0.0000 0.0000 0.0000
# 3 40.2840 40.2840 99.6107 0.0000 0.0000 0.0000
# 4 0.0000 0.0000 0.0000 14.8531 0.0000 0.0000
# 5 0.0000 0.0000 0.0000 0.0000 14.8531 0.0000
# 6 0.0000 0.0000 0.0000 0.0000 0.0000 17.5704
#
#
#
# Elastic Compliance Matrix: (Units=1/GPa)
#
#
# Indices 1 2 3 4 5 6 
#
# 1 0.020668 -0.007789 -0.005209 0.000000 0.000000 0.000000
# 2 -0.007789 0.020668 -0.005209 0.000000 0.000000 0.000000
# 3 -0.005209 -0.005209 0.014252 0.000000 0.000000 0.000000
# 4 0.000000 0.000000 0.000000 0.067326 0.000000 0.000000
# 5 0.000000 0.000000 0.000000 0.000000 0.067326 0.000000
# 6 0.000000 0.000000 0.000000 0.000000 0.000000 0.056914
#
#
# Mechanical properties :
#
#
# Convention : Reuss Voigt Hill
#
# Bulk Modulus (GPa) = 52.14730 53.46630 52.80680
# Shear Modulus (GPa) = 17.24383 17.91308 17.57845
#
# Velocity S-wave (km/s) = 3.27728 3.34028 3.30893
# Velocity P-wave (km/s) = 6.84117 6.94110 6.89132
#
# Compressibility (1/GPa) = 0.01917645
#
# Stress axis : x y z
#
# Youngs Moduli (GPa) = 48.38338 48.38338 70.16541
#
# Poissons Ratio (x) = 0.37684 0.36547
# Poissons Ratio (y) = 0.37684 0.36547
# Poissons Ratio (z) = 0.25201 0.25201
#
# Static dielectric constant tensor:
#      x y z
#    x 2.811380 0.000000 0.000000 
#    y 0.000000 2.811380 0.000000 
#    z 0.000000 0.000000 3.369460 
# 
# 
# High freq. dielectric constant tensor:
#      x y z
#    x 1.588120 0.000000 0.000000 
#    y 0.000000 1.588120 0.000000 
#    z 0.000000 0.000000 1.626870 
# 
# From -- ./inp_files/10173.got.cif
#   From: 2010.03.12/outbox.cif.g09.slc.cpg/sg194_6_cif.got.tgz:10173.got - 2010.04.01 12:26:19.
