data_PCOD8330175
_publ_section_title
;
Structure prediction by ZEFSAII (Michael W. Deem and Ramdas Pophale) SiO2 
 PCOD8330175
Probable space group: P 63/M C M
;
_chemical_formula_sum "Si O2"
_cell_formula_units_Z 156
_cell_length_a 19.970420
_cell_length_b 19.970420
_cell_length_c 23.754012
_cell_angle_alpha 90.000000
_cell_angle_beta 90.000000
_cell_angle_gamma 120.000000
_cell_volume 8204.308842
_symmetry_space_group_name_H-M "P 63/M C M"
_symmetry_group_IT_number 193
_symmetry_cell_setting 'hexagonal'
loop_
_space_group_symop_operation_xyz
x,y,z
x-y,x,1/2+z
-y,x-y,z
-x,-y,1/2+z
-x+y,-x,z
y,-x+y,1/2+z
x-y,-y,1/2-z
-x,-x+y,1/2-z
y,x,1/2-z
-y,-x,-z
-x+y,y,-z
x,x-y,-z
-x,-y,-z
-x+y,-x,1/2-z
y,-x+y,-z
x,y,1/2-z
x-y,x,-z
-y,x-y,1/2-z
-x+y,y,1/2+z
x,x-y,1/2+z
-y,-x,1/2+z
y,x,z
x-y,-y,z
-x,-x+y,z
loop_
_atom_site_type_symbol
_atom_site_label
_atom_site_fract_x
_atom_site_fract_y
_atom_site_fract_z
Si Si1 0.909825 0.470523 0.316402
Si Si2 0.309832 0.221393 0.688009
Si Si3 0.535481 0.914099 0.999079
Si Si4 0.908742 0.817484 0.500000
Si Si5 0.462885 0.313362 0.621903
Si Si6 0.293256 0.447656 0.391607
Si Si7 0.268680 0.179960 0.391050
O O1 0.894548 0.463787 0.250000
O O2 0.858563 0.386910 0.344791
O O3 0.884082 0.528641 0.341742
O O4 0.000000 0.502758 0.330211
O O5 0.340219 0.215801 0.750000
O O6 0.247315 0.247315 0.693099
O O7 0.381181 0.283564 0.651657
O O8 0.264762 0.137038 0.660965
O O9 0.521358 0.854158 0.048468
O O10 0.610145 0.000000 0.008570
O O11 0.461768 0.923536 0.000000
O O12 0.545524 0.879528 0.941471
O O13 0.871628 0.871628 0.490167
O O14 0.889705 0.761099 0.447111
O O15 0.483811 0.245072 0.622320
O O16 0.247021 0.356037 0.398635
O O17 0.214918 0.214918 0.375233
#
# Coordination Sequence:
#
# PCOD8330175 Si02
#       7
#    24  24  24  12  24  24  24
#     4  11  23  42  67  90 117 161 219 265 303 370
#     4  10  21  37  59  87 118 152 195 248 302 357
#     4  11  21  37  64  89 116 155 203 253 301 362
#     4  10  21  38  60  90 126 166 206 248 300 366
#     4  11  23  39  61  89 123 156 201 255 310 368
#     4  11  24  40  58  91 127 158 198 253 316 369
#     4  10  22  37  58  87 122 157 198 247 302 366
#
# _framework density 19.014398
#
# number of rings (size 3 to 8) (size 9 to 14) (size 15 to 20)
#    0.000    1.385    1.538    4.231    4.308    4.615 
#    0.923    0.000    0.000    0.308    0.000    0.000 
#    0.000    0.000    0.000    0.000    0.000    0.000 
#
# Total GULP energy -1934719.861545 kJ/mol
# GULP energy per Si atom -12402.050395 kJ/mol
# Density = 1.897112 g / cm^3
# Si number density = 19.014398 Si / 1000 Ang^3
#
#
#
# Elastic Constant Matrix: (Units=GPa)
#
#
# Indices 1 2 3 4 5 6 
#
# 1 103.3800 47.0754 54.1921 0.0000 0.0000 0.0000
# 2 47.0754 103.3800 54.1921 0.0000 0.0000 0.0000
# 3 54.1921 54.1921 132.7319 0.0000 0.0000 0.0000
# 4 0.0000 0.0000 0.0000 37.5372 0.0000 0.0000
# 5 0.0000 0.0000 0.0000 0.0000 37.5372 0.0000
# 6 0.0000 0.0000 0.0000 0.0000 0.0000 28.1523
#
#
#
# Elastic Compliance Matrix: (Units=1/GPa)
#
#
# Indices 1 2 3 4 5 6 
#
# 1 0.013588 -0.004172 -0.003844 0.000000 0.000000 0.000000
# 2 -0.004172 0.013588 -0.003844 0.000000 0.000000 0.000000
# 3 -0.003844 -0.003844 0.010673 0.000000 0.000000 0.000000
# 4 0.000000 0.000000 0.000000 0.026640 0.000000 0.000000
# 5 0.000000 0.000000 0.000000 0.000000 0.026640 0.000000
# 6 0.000000 0.000000 0.000000 0.000000 0.000000 0.035521
#
#
# Mechanical properties :
#
#
# Convention : Reuss Voigt Hill
#
# Bulk Modulus (GPa) = 70.78386 72.26789 71.52588
# Shear Modulus (GPa) = 32.24097 32.91416 32.57757
#
# Velocity S-wave (km/s) = 4.12224 4.16506 4.14371
# Velocity P-wave (km/s) = 7.74367 7.82430 7.78409
#
# Compressibility (1/GPa) = 0.01412751
#
# Stress axis : x y z
#
# Youngs Moduli (GPa) = 73.59336 73.59336 93.69336
#
# Poissons Ratio (x) = 0.30706 0.36019
# Poissons Ratio (y) = 0.30706 0.36019
# Poissons Ratio (z) = 0.28292 0.28292
#
# Static dielectric constant tensor:
#      x y z
#    x 3.540020 0.000000 0.000000 
#    y 0.000000 3.540020 0.000000 
#    z 0.000000 0.000000 3.602340 
# 
# 
# High freq. dielectric constant tensor:
#      x y z
#    x 1.742040 0.000000 0.000000 
#    y 0.000000 1.742040 0.000000 
#    z 0.000000 0.000000 1.753830 
# 
# From -- ./inp_files/6695.got.cif
#   From: 2010.03.12/outbox.cif.g09.slc.cpg/sg193_4_cif.got.tgz:6695.got - 2010.04.01 12:20:39.
