data_PCOD8330656
_publ_section_title
;
Structure prediction by ZEFSAII (Michael W. Deem and Ramdas Pophale) SiO2 
 PCOD8330656
Probable space group: P 63/M M C
;
_chemical_formula_sum "Si O2"
_cell_formula_units_Z 120
_cell_length_a 25.188086
_cell_length_b 25.188086
_cell_length_c 13.942701
_cell_angle_alpha 90.000000
_cell_angle_beta 90.000000
_cell_angle_gamma 120.000000
_cell_volume 7660.689864
_symmetry_space_group_name_H-M "P 63/M M C"
_symmetry_group_IT_number 194
_symmetry_cell_setting 'hexagonal'
loop_
_space_group_symop_operation_xyz
x,y,z
x-y,x,1/2+z
-y,x-y,z
-x,-y,1/2+z
-x+y,-x,z
y,-x+y,1/2+z
x-y,-y,-z
-x,-x+y,-z
y,x,-z
-y,-x,1/2-z
-x+y,y,1/2-z
x,x-y,1/2-z
-x,-y,-z
-x+y,-x,1/2-z
y,-x+y,-z
x,y,1/2-z
x-y,x,-z
-y,x-y,1/2-z
-x+y,y,z
x,x-y,z
-y,-x,z
y,x,1/2+z
x-y,-y,1/2+z
-x,-x+y,1/2+z
loop_
_atom_site_type_symbol
_atom_site_label
_atom_site_fract_x
_atom_site_fract_y
_atom_site_fract_z
Si Si1 0.903829 0.559396 0.461223
Si Si2 0.210795 0.543991 0.640512
Si Si3 0.218659 0.315127 0.962572
Si Si4 0.976103 0.721254 0.855543
Si Si5 0.974677 0.379933 0.644142
O O1 0.843235 0.498353 0.431391
O O2 0.892545 0.616603 0.454321
O O3 0.921211 0.550984 0.570210
O O4 0.958947 0.567665 0.392421
O O5 0.191227 0.521598 0.750000
O O6 0.270188 0.540375 0.611000
O O7 0.227094 0.613547 0.627934
O O8 0.158223 0.316445 0.932654
O O9 0.226285 0.269275 0.890794
O O10 0.211201 0.288102 0.070380
O O11 0.962536 0.738507 0.750000
O O12 0.977120 0.658840 0.851977
O O13 0.961340 0.397241 0.750000
#
# Coordination Sequence:
#
# PCOD8330656 Si02
#       5
#    24  24  24  24  24
#     4   9  16  27  45  66  88 113 141 173 207 250
#     4  10  20  33  48  65  85 109 139 178 223 265
#     4   9  16  25  39  60  82 106 141 177 203 237
#     4   8  15  26  37  53  82 115 139 164 204 246
#     4   8  14  26  43  64  92 119 137 161 203 251
#
# _framework density 15.664386
#
# number of rings (size 3 to 8) (size 9 to 14) (size 15 to 20)
#    0.000    3.200    0.000    3.800    0.000    2.400 
#    0.000    2.000    0.000    3.600    0.000    0.000 
#    0.000    1.600    0.000   19.200    0.000   41.600 
#
# Total GULP energy -1487235.392151 kJ/mol
# GULP energy per Si atom -12393.628268 kJ/mol
# Density = 1.562873 g / cm^3
# Si number density = 15.664386 Si / 1000 Ang^3
#
#
#
# Elastic Constant Matrix: (Units=GPa)
#
#
# Indices 1 2 3 4 5 6 
#
# 1 59.8015 31.6037 32.7242 0.0000 0.0000 0.0000
# 2 31.6037 59.8015 32.7242 0.0000 0.0000 0.0000
# 3 32.7242 32.7242 115.9076 0.0000 0.0000 0.0000
# 4 0.0000 0.0000 0.0000 16.1851 0.0000 0.0000
# 5 0.0000 0.0000 0.0000 0.0000 16.1851 0.0000
# 6 0.0000 0.0000 0.0000 0.0000 0.0000 14.0989
#
#
#
# Elastic Compliance Matrix: (Units=1/GPa)
#
#
# Indices 1 2 3 4 5 6 
#
# 1 0.024588 -0.010876 -0.003871 0.000000 0.000000 0.000000
# 2 -0.010876 0.024588 -0.003871 0.000000 0.000000 0.000000
# 3 -0.003871 -0.003871 0.010814 0.000000 0.000000 0.000000
# 4 0.000000 0.000000 0.000000 0.061785 0.000000 0.000000
# 5 0.000000 0.000000 0.000000 0.000000 0.061785 0.000000
# 6 0.000000 0.000000 0.000000 0.000000 0.000000 0.070928
#
#
# Mechanical properties :
#
#
# Convention : Reuss Voigt Hill
#
# Bulk Modulus (GPa) = 43.95098 47.73499 45.84298
# Shear Modulus (GPa) = 16.70515 18.52439 17.61477
#
# Velocity S-wave (km/s) = 3.26918 3.44260 3.35701
# Velocity P-wave (km/s) = 6.50914 6.80747 6.65998
#
# Compressibility (1/GPa) = 0.02275262
#
# Stress axis : x y z
#
# Youngs Moduli (GPa) = 40.67014 40.67014 92.47620
#
# Poissons Ratio (x) = 0.44232 0.35801
# Poissons Ratio (y) = 0.44232 0.35801
# Poissons Ratio (z) = 0.15745 0.15745
#
# Static dielectric constant tensor:
#      x y z
#    x 2.707800 0.000000 0.000000 
#    y 0.000000 2.707800 0.000000 
#    z 0.000000 0.000000 3.534110 
# 
# 
# High freq. dielectric constant tensor:
#      x y z
#    x 1.574240 0.000000 0.000000 
#    y 0.000000 1.574240 0.000000 
#    z 0.000000 0.000000 1.607190 
# 
# From -- ./inp_files/5042.got.cif
#   From: 2010.03.12/outbox.cif.g09.slc.cpg/sg194_3_cif.got.tgz:5042.got - 2010.04.01 12:26:19.
