data_PCOD8330767
_publ_section_title
;
Structure prediction by ZEFSAII (Michael W. Deem and Ramdas Pophale) SiO2 
 PCOD8330767
Probable space group: P 63/M M C
;
_chemical_formula_sum "Si O2"
_cell_formula_units_Z 136
_cell_length_a 30.319696
_cell_length_b 30.319696
_cell_length_c 9.172228
_cell_angle_alpha 90.000000
_cell_angle_beta 90.000000
_cell_angle_gamma 120.000000
_cell_volume 7302.224125
_symmetry_space_group_name_H-M "P 63/M M C"
_symmetry_group_IT_number 194
_symmetry_cell_setting 'hexagonal'
loop_
_space_group_symop_operation_xyz
x,y,z
x-y,x,1/2+z
-y,x-y,z
-x,-y,1/2+z
-x+y,-x,z
y,-x+y,1/2+z
x-y,-y,-z
-x,-x+y,-z
y,x,-z
-y,-x,1/2-z
-x+y,y,1/2-z
x,x-y,1/2-z
-x,-y,-z
-x+y,-x,1/2-z
y,-x+y,-z
x,y,1/2-z
x-y,x,-z
-y,x-y,1/2-z
-x+y,y,z
x,x-y,z
-y,-x,z
y,x,1/2+z
x-y,-y,1/2+z
-x,-x+y,1/2+z
loop_
_atom_site_type_symbol
_atom_site_label
_atom_site_fract_x
_atom_site_fract_y
_atom_site_fract_z
Si Si1 0.496120 0.341705 0.421881
Si Si2 0.393345 0.247030 0.419774
Si Si3 0.305540 0.253665 0.578021
Si Si4 0.796611 0.948721 0.420736
Si Si5 0.047768 0.576177 0.914158
Si Si6 0.333334 0.666667 0.923954
Si Si7 0.219589 0.609795 0.924336
O O1 0.503075 0.350601 0.250000
O O2 0.453033 0.284130 0.460286
O O3 0.477336 0.378853 0.487193
O O4 0.551919 0.358609 0.486364
O O5 0.384090 0.253497 0.250000
O O6 0.379919 0.189960 0.455227
O O7 0.357966 0.260388 0.516906
O O8 0.294824 0.294824 0.500000
O O9 0.310648 0.263924 0.750000
O O10 0.260129 0.196927 0.540447
O O11 0.806966 0.957577 0.250000
O O12 0.802182 0.901091 0.475134
O O13 0.838648 0.000000 0.500000
O O14 0.041797 0.589950 0.750000
O O15 0.050550 0.525275 0.923181
O O16 0.000000 0.571768 0.000000
O O17 0.333334 0.666667 0.750000
O O18 0.276420 0.638210 0.986007
O O19 0.219178 0.609589 0.750000
#
# Coordination Sequence:
#
# PCOD8330767 Si02
#       7
#    24  24  24  24  24   4  12
#     4   9  17  30  47  67  97 136 172 209 259 312
#     4  10  21  34  50  75 107 143 179 214 258 315
#     4  10  20  36  57  79 106 139 176 219 266 315
#     4   9  18  32  51  76 104 135 173 216 261 306
#     4   9  16  28  46  67  90 122 161 201 249 302
#     4   9  18  24  42  75  99 126 166 212 262 318
#     4   9  16  28  45  69 100 132 168 212 264 316
#
# _framework density 18.624464
#
# number of rings (size 3 to 8) (size 9 to 14) (size 15 to 20)
#    0.000    2.647    0.882    1.059    1.235    2.824 
#    0.000    2.647    0.000    0.176    0.000    0.000 
#    0.000    0.000    0.000    0.706    0.000    0.000 
#
# Total GULP energy -1686078.329074 kJ/mol
# GULP energy per Si atom -12397.634773 kJ/mol
# Density = 1.858207 g / cm^3
# Si number density = 18.624464 Si / 1000 Ang^3
#
#
#
# Elastic Constant Matrix: (Units=GPa)
#
#
# Indices 1 2 3 4 5 6 
#
# 1 120.1045 70.0437 37.3557 0.0001 0.0000 0.0000
# 2 70.0437 120.1047 37.3557 0.0001 0.0000 0.0000
# 3 37.3557 37.3557 48.6935 0.0000 0.0000 0.0000
# 4 0.0001 0.0001 0.0000 18.3727 0.0000 0.0000
# 5 0.0000 0.0000 0.0000 0.0000 18.3728 0.0000
# 6 0.0000 0.0000 0.0000 0.0000 0.0000 25.0304
#
#
#
# Elastic Compliance Matrix: (Units=1/GPa)
#
#
# Indices 1 2 3 4 5 6 
#
# 1 0.013752 -0.006224 -0.005775 0.000000 0.000000 0.000000
# 2 -0.006224 0.013752 -0.005775 0.000000 0.000000 0.000000
# 3 -0.005775 -0.005775 0.029398 0.000000 0.000000 0.000000
# 4 0.000000 0.000000 0.000000 0.054429 0.000000 0.000000
# 5 0.000000 0.000000 0.000000 0.000000 0.054428 0.000000
# 6 0.000000 0.000000 0.000000 0.000000 0.000000 0.039951
#
#
# Mechanical properties :
#
#
# Convention : Reuss Voigt Hill
#
# Bulk Modulus (GPa) = 46.83204 64.26808 55.55006
# Shear Modulus (GPa) = 20.13071 21.96501 21.04786
#
# Velocity S-wave (km/s) = 3.29123 3.43791 3.36537
# Velocity P-wave (km/s) = 6.29627 7.09516 6.70762
#
# Compressibility (1/GPa) = 0.02135290
#
# Stress axis : x y z
#
# Youngs Moduli (GPa) = 72.71686 72.71705 34.01607
#
# Poissons Ratio (x) = 0.45257 0.19646
# Poissons Ratio (y) = 0.45257 0.19645
# Poissons Ratio (z) = 0.41997 0.41997
#
# Static dielectric constant tensor:
#      x y z
#    x 3.492090 0.000000 0.000000 
#    y 0.000000 3.492090 0.000000 
#    z 0.000000 0.000000 3.105000 
# 
# 
# High freq. dielectric constant tensor:
#      x y z
#    x 1.725680 0.000000 0.000000 
#    y 0.000000 1.725680 0.000000 
#    z 0.000000 0.000000 1.680820 
# 
# From -- ./inp_files/2212.got.cif
#   From: 2010.03.12/outbox.cif.g09.slc.cpg/sg194_2_cif.got.tgz:2212.got - 2010.04.01 12:26:19.
