data_PCOD8330192
_publ_section_title
;
Structure prediction by ZEFSAII (Michael W. Deem and Ramdas Pophale) SiO2 
 PCOD8330192
Probable space group: P 63/M C M
;
_chemical_formula_sum "Si O2"
_cell_formula_units_Z 144
_cell_length_a 31.187190
_cell_length_b 31.187190
_cell_length_c 8.852276
_cell_angle_alpha 90.000000
_cell_angle_beta 90.000000
_cell_angle_gamma 120.000000
_cell_volume 7456.552329
_symmetry_space_group_name_H-M "P 63/M C M"
_symmetry_group_IT_number 193
_symmetry_cell_setting 'hexagonal'
loop_
_space_group_symop_operation_xyz
x,y,z
x-y,x,1/2+z
-y,x-y,z
-x,-y,1/2+z
-x+y,-x,z
y,-x+y,1/2+z
x-y,-y,1/2-z
-x,-x+y,1/2-z
y,x,1/2-z
-y,-x,-z
-x+y,y,-z
x,x-y,-z
-x,-y,-z
-x+y,-x,1/2-z
y,-x+y,-z
x,y,1/2-z
x-y,x,-z
-y,x-y,1/2-z
-x+y,y,1/2+z
x,x-y,1/2+z
-y,-x,1/2+z
y,x,z
x-y,-y,z
-x,-x+y,z
loop_
_atom_site_type_symbol
_atom_site_label
_atom_site_fract_x
_atom_site_fract_y
_atom_site_fract_z
Si Si1 0.055893 0.200400 0.073356
Si Si2 0.575778 0.332641 0.426594
Si Si3 0.295252 0.054271 0.429303
Si Si4 0.144037 0.477679 0.926404
Si Si5 0.150483 0.759254 0.929621
Si Si6 0.056731 0.482887 0.426489
O O1 0.065260 0.204593 0.250000
O O2 0.066153 0.253469 0.009162
O O3 0.000000 0.158587 0.033806
O O4 0.092140 0.184279 0.000000
O O5 0.626595 0.373406 0.500000
O O6 0.558966 0.279483 0.500000
O O7 0.584200 0.329556 0.250000
O O8 0.534026 0.347610 0.457043
O O9 0.292412 0.053177 0.250000
O O10 0.349502 0.095674 0.483179
O O11 0.283246 0.000000 0.488340
O O12 0.135860 0.465747 0.750000
O O13 0.162251 0.443477 0.004190
O O14 0.092234 0.465623 0.999820
O O15 0.156119 0.761268 0.750000
O O16 0.188050 0.811951 0.000000
O O17 0.068422 0.534211 0.500000
O O18 0.068204 0.491999 0.250000
O O19 0.000000 0.440650 0.456565
#
# Coordination Sequence:
#
# PCOD8330192 Si02
#       6
#    24  24  24  24  24  24
#     4   9  17  30  49  73 101 133 170 214 263 315
#     4  11  24  41  62  86 113 144 179 222 273 328
#     4   8  16  32  53  77 105 138 177 221 270 323
#     4  11  24  40  59  84 114 150 191 234 278 325
#     4  11  22  36  56  80 110 148 187 228 275 331
#     4  10  21  38  61  88 117 150 188 231 281 334
#
# _framework density 19.311872999999999
#
# number of rings (size 3 to 8) (size 9 to 14) (size 15 to 20)
#    0.000    2.000    0.000    4.667    0.000    7.333 
#    0.000    2.500    0.000    3.667    0.000    0.000 
#    0.000    0.000    0.000    0.000    0.000    0.000 
#
# Total GULP energy -1785859.385890 kJ/mol
# GULP energy per Si atom -12401.801291 kJ/mol
# Density = 1.926792 g / cm^3
# Si number density = 19.311873 Si / 1000 Ang^3
#
#
#
# Elastic Constant Matrix: (Units=GPa)
#
#
# Indices 1 2 3 4 5 6 
#
# 1 99.9583 39.4579 47.9392 0.0000 0.0000 0.0000
# 2 39.4579 99.9583 47.9392 0.0000 0.0000 0.0000
# 3 47.9392 47.9392 93.8168 0.0000 0.0000 0.0000
# 4 0.0000 0.0000 0.0000 31.0122 0.0000 0.0000
# 5 0.0000 0.0000 0.0000 0.0000 31.0122 0.0000
# 6 0.0000 0.0000 0.0000 0.0000 0.0000 30.2502
#
#
#
# Elastic Compliance Matrix: (Units=1/GPa)
#
#
# Indices 1 2 3 4 5 6 
#
# 1 0.013794 -0.002735 -0.005651 0.000000 0.000000 0.000000
# 2 -0.002735 0.013794 -0.005651 0.000000 0.000000 0.000000
# 3 -0.005651 -0.005651 0.016434 0.000000 0.000000 0.000000
# 4 0.000000 0.000000 0.000000 0.032245 0.000000 0.000000
# 5 0.000000 0.000000 0.000000 0.000000 0.032245 0.000000
# 6 0.000000 0.000000 0.000000 0.000000 0.000000 0.033058
#
#
# Mechanical properties :
#
#
# Convention : Reuss Voigt Hill
#
# Bulk Modulus (GPa) = 62.70279 62.71178 62.70729
# Shear Modulus (GPa) = 28.57788 29.01474 28.79631
#
# Velocity S-wave (km/s) = 3.85100 3.88032 3.86569
# Velocity P-wave (km/s) = 7.23275 7.25393 7.24335
#
# Compressibility (1/GPa) = 0.01594825
#
# Stress axis : x y z
#
# Youngs Moduli (GPa) = 72.49563 72.49563 60.84837
#
# Poissons Ratio (x) = 0.19827 0.34386
# Poissons Ratio (y) = 0.19827 0.34386
# Poissons Ratio (z) = 0.40968 0.40968
#
# Static dielectric constant tensor:
#      x y z
#    x 3.616140 0.000000 0.000000 
#    y 0.000000 3.616140 0.000000 
#    z 0.000000 0.000000 3.426020 
# 
# 
# High freq. dielectric constant tensor:
#      x y z
#    x 1.755600 0.000000 0.000000 
#    y 0.000000 1.755600 0.000000 
#    z 0.000000 0.000000 1.744570 
# 
# From -- ./inp_files/1526.got.cif
#   From: 2010.03.12/outbox.cif.g09.slc.cpg/sg193_1_cif.got.tgz:1526.got - 2010.04.01 12:20:39.
