data_PCOD8330831
_publ_section_title
;
Structure prediction by ZEFSAII (Michael W. Deem and Ramdas Pophale) SiO2 
 PCOD8330831
Probable space group: P 63/M M C
;
_chemical_formula_sum "Si O2"
_cell_formula_units_Z 102
_cell_length_a 26.670341
_cell_length_b 26.670341
_cell_length_c 8.861427
_cell_angle_alpha 90.000000
_cell_angle_beta 90.000000
_cell_angle_gamma 120.000000
_cell_volume 5458.727726
_symmetry_space_group_name_H-M "P 63/M M C"
_symmetry_group_IT_number 194
_symmetry_cell_setting 'hexagonal'
loop_
_space_group_symop_operation_xyz
x,y,z
x-y,x,1/2+z
-y,x-y,z
-x,-y,1/2+z
-x+y,-x,z
y,-x+y,1/2+z
x-y,-y,-z
-x,-x+y,-z
y,x,-z
-y,-x,1/2-z
-x+y,y,1/2-z
x,x-y,1/2-z
-x,-y,-z
-x+y,-x,1/2-z
y,-x+y,-z
x,y,1/2-z
x-y,x,-z
-y,x-y,1/2-z
-x+y,y,z
x,x-y,z
-y,-x,z
y,x,1/2+z
x-y,-y,1/2+z
-x,-x+y,1/2+z
loop_
_atom_site_type_symbol
_atom_site_label
_atom_site_fract_x
_atom_site_fract_y
_atom_site_fract_z
Si Si1 0.295668 0.591335 0.250000
Si Si2 0.843776 0.367337 0.412968
Si Si3 0.178825 0.821176 0.075238
Si Si4 0.055364 0.624360 0.073928
Si Si5 0.753410 0.506820 0.501027
Si Si6 0.674633 0.734258 0.930269
O O1 0.366175 0.633826 0.250000
O O2 0.273458 0.546916 0.113877
O O3 0.875829 0.382889 0.250000
O O4 0.814361 0.407181 0.439559
O O5 0.888643 0.381952 0.549579
O O6 0.797803 0.299893 0.401275
O O7 0.170272 0.829729 0.250000
O O8 0.213963 0.786038 0.067184
O O9 0.210645 0.883659 0.995869
O O10 0.047054 0.631951 0.250000
O O11 0.064251 0.679124 0.979222
O O12 0.000000 0.568774 0.000000
O O13 0.680217 0.738612 0.750000
O O14 0.727617 0.727617 0.000000
#
# Coordination Sequence:
#
# PCOD8330831 Si02
#       6
#     6  24  12  24  12  24
#     4  10  24  42  60  84 116 144 182 244 312 372
#     4  11  25  42  61  82 108 139 180 232 290 354
#     4  12  23  37  62  94 122 160 204 250 295 359
#     4  11  22  38  60  84 113 146 183 229 285 350
#     4  12  23  40  62  82 109 144 187 231 292 361
#     4  11  22  38  60  88 125 162 201 248 299 353
#
# _framework density 18.685673000000001
#
# number of rings (size 3 to 8) (size 9 to 14) (size 15 to 20)
#    0.118    0.706    2.941    7.059    1.647    1.882 
#    0.706    0.000    0.000    0.000    0.000    0.000 
#    0.000    0.000    0.000    0.353    0.000    4.941 
#
# Total GULP energy -1263869.815380 kJ/mol
# GULP energy per Si atom -12390.880543 kJ/mol
# Density = 1.864314 g / cm^3
# Si number density = 18.685673 Si / 1000 Ang^3
#
#
#
# Elastic Constant Matrix: (Units=GPa)
#
#
# Indices 1 2 3 4 5 6 
#
# 1 105.4012 53.4048 47.6836 0.0000 0.0000 0.0000
# 2 53.4048 105.4012 47.6836 0.0000 0.0000 0.0000
# 3 47.6836 47.6836 160.1258 0.0000 0.0000 0.0000
# 4 0.0000 0.0000 0.0000 29.1649 0.0000 0.0000
# 5 0.0000 0.0000 0.0000 0.0000 29.1649 0.0000
# 6 0.0000 0.0000 0.0000 0.0000 0.0000 25.9982
#
#
#
# Elastic Compliance Matrix: (Units=1/GPa)
#
#
# Indices 1 2 3 4 5 6 
#
# 1 0.013450 -0.005782 -0.002284 0.000000 0.000000 0.000000
# 2 -0.005782 0.013450 -0.002284 0.000000 0.000000 0.000000
# 3 -0.002284 -0.002284 0.007605 0.000000 0.000000 0.000000
# 4 0.000000 0.000000 0.000000 0.034288 0.000000 0.000000
# 5 0.000000 0.000000 0.000000 0.000000 0.034288 0.000000
# 6 0.000000 0.000000 0.000000 0.000000 0.000000 0.038464
#
#
# Mechanical properties :
#
#
# Convention : Reuss Voigt Hill
#
# Bulk Modulus (GPa) = 72.42389 74.27470 73.34929
# Shear Modulus (GPa) = 29.96778 31.67600 30.82189
#
# Velocity S-wave (km/s) = 4.00907 4.12175 4.06580
# Velocity P-wave (km/s) = 7.76359 7.90491 7.83457
#
# Compressibility (1/GPa) = 0.01380760
#
# Stress axis : x y z
#
# Youngs Moduli (GPa) = 74.34832 74.34832 131.49057
#
# Poissons Ratio (x) = 0.42987 0.30026
# Poissons Ratio (y) = 0.42987 0.30026
# Poissons Ratio (z) = 0.16978 0.16978
#
# Static dielectric constant tensor:
#      x y z
#    x 3.638460 0.000000 0.000000 
#    y 0.000000 3.638460 0.000000 
#    z 0.000000 0.000000 3.630970 
# 
# 
# High freq. dielectric constant tensor:
#      x y z
#    x 1.706060 0.000000 0.000000 
#    y 0.000000 1.706060 0.000000 
#    z 0.000000 0.000000 1.745500 
# 
# From -- ./inp_files/1677.got.cif
#   From: 2010.03.12/outbox.cif.g09.slc.cpg/sg194_1_cif.got.tgz:1677.got - 2010.04.01 12:26:19.
