data_PCOD8330984
_publ_section_title
;
Structure prediction by ZEFSAII (Michael W. Deem and Ramdas Pophale) SiO2 
 PCOD8330984
Probable space group: P 42 3 2
;
_chemical_formula_sum "Si O2"
_cell_formula_units_Z 106
_cell_length_a 17.771774
_cell_length_b 17.771774
_cell_length_c 17.771774
_cell_angle_alpha 90.000000
_cell_angle_beta 90.000000
_cell_angle_gamma 90.000000
_cell_volume 5612.965144
_symmetry_space_group_name_H-M "P 42 3 2"
_symmetry_group_IT_number 208
_symmetry_cell_setting 'cubic'
loop_
_space_group_symop_operation_xyz
x,y,z
1/2-y,1/2+x,1/2+z
-x,-y,z
1/2+y,1/2-x,1/2+z
1/2+x,1/2-z,1/2+y
x,-y,-z
1/2+x,1/2+z,1/2-y
1/2+z,1/2+y,1/2-x
-x,y,-z
1/2-z,1/2+y,1/2+x
z,x,y
y,z,x
-y,-z,x
z,-x,-y
-y,z,-x
-z,-x,y
-z,x,-y
y,-z,-x
1/2+y,1/2+x,1/2-z
1/2-y,1/2-x,1/2-z
1/2-x,1/2+z,1/2+y
1/2-x,1/2-z,1/2-y
1/2+z,1/2-y,1/2+x
1/2-z,1/2-y,1/2-x
loop_
_atom_site_type_symbol
_atom_site_label
_atom_site_fract_x
_atom_site_fract_y
_atom_site_fract_z
Si Si1 0.250000 0.367792 0.132209
Si Si2 0.223398 0.039852 0.659532
Si Si3 0.632208 0.250000 0.867793
Si Si4 0.000000 0.000000 0.000000
Si Si5 0.603389 0.603388 0.603389
Si Si6 0.564057 0.564056 0.774967
Si Si7 0.159529 0.276603 0.539850
O O1 0.176704 0.336817 0.176705
O O2 0.255188 0.455243 0.144908
O O3 0.250000 0.088262 0.588262
O O4 0.135675 0.037870 0.677630
O O5 0.268264 0.071898 0.731738
O O6 0.244813 0.955245 0.644906
O O7 0.051696 0.051695 0.948306
O O8 0.585066 0.585056 0.689784
O O9 0.500000 0.500000 0.776311
O O10 0.635672 0.537871 0.822377
O O11 0.088257 0.250000 0.588257
#
# Coordination Sequence:
#
# PCOD8330984 Si02
#       7
#    12  24  12   2   8  24  24
#     4  10  22  40  62  88 120 164 208 266 330 396
#     4  11  22  39  63  87 124 166 212 266 324 388
#     4  10  22  40  62  88 120 164 208 266 330 396
#     4  12  24  48  60  88 136 196 190 276 324 396
#     4  12  24  39  64  94 135 171 220 256 330 399
#     4  12  24  39  63  98 127 168 219 270 319 401
#     4  11  22  39  63  87 124 166 212 266 324 388
#
# _framework density 18.884848999999999
#
# number of rings (size 3 to 8) (size 9 to 14) (size 15 to 20)
#    0.000    0.906    5.660    2.264    0.000    0.000 
#    0.000    2.264    0.000    0.000    0.000    0.000 
#    0.000    0.000    0.000    0.000    0.000    0.000 
#
# Total GULP energy -1313826.894157 kJ/mol
# GULP energy per Si atom -12394.593341 kJ/mol
# Density = 1.884187 g / cm^3
# Si number density = 18.884849 Si / 1000 Ang^3
#
#
#
# Elastic Constant Matrix: (Units=GPa)
#
#
# Indices 1 2 3 4 5 6 
#
# 1 107.8547 58.6880 58.6880 0.0000 0.0000 0.0000
# 2 58.6880 107.8547 58.6880 0.0000 0.0000 0.0000
# 3 58.6880 58.6880 107.8543 0.0000 0.0000 0.0000
# 4 0.0000 0.0000 0.0000 29.3676 0.0000 0.0000
# 5 0.0000 0.0000 0.0000 0.0000 29.3676 0.0000
# 6 0.0000 0.0000 0.0000 0.0000 0.0000 29.3676
#
#
#
# Elastic Compliance Matrix: (Units=1/GPa)
#
#
# Indices 1 2 3 4 5 6 
#
# 1 0.015039 -0.005300 -0.005300 0.000000 0.000000 0.000000
# 2 -0.005300 0.015039 -0.005300 0.000000 0.000000 0.000000
# 3 -0.005300 -0.005300 0.015039 0.000000 0.000000 0.000000
# 4 0.000000 0.000000 0.000000 0.034051 0.000000 0.000000
# 5 0.000000 0.000000 0.000000 0.000000 0.034051 0.000000
# 6 0.000000 0.000000 0.000000 0.000000 0.000000 0.034051
#
#
# Mechanical properties :
#
#
# Convention : Reuss Voigt Hill
#
# Bulk Modulus (GPa) = 75.07686 75.07686 75.07686
# Shear Modulus (GPa) = 27.24655 27.45388 27.35021
#
# Velocity S-wave (km/s) = 3.80251 3.81695 3.80973
# Velocity P-wave (km/s) = 7.68896 7.69849 7.69373
#
# Compressibility (1/GPa) = 0.01331968
#
# Stress axis : x y z
#
# Youngs Moduli (GPa) = 66.49249 66.49249 66.49218
#
# Poissons Ratio (x) = 0.35239 0.35239
# Poissons Ratio (y) = 0.35239 0.35239
# Poissons Ratio (z) = 0.35239 0.35239
#
# Static dielectric constant tensor:
#      x y z
#    x 3.724160 0.000000 0.000000 
#    y 0.000000 3.724160 0.000000 
#    z 0.000000 0.000000 3.724160 
# 
# 
# High freq. dielectric constant tensor:
#      x y z
#    x 1.745500 0.000000 0.000000 
#    y 0.000000 1.745500 0.000000 
#    z 0.000000 0.000000 1.745500 
# 
# From -- ./inp_files/943.got.cif
#   From: 2010.03.12/outbox.cif.g09.slc.cpg/sg208_cif.got.tgz:943.got - 2010.03.30 09:03:42.
