data_PCOD8330737
_publ_section_title
;
Structure prediction by ZEFSAII (Michael W. Deem and Ramdas Pophale) SiO2 
 PCOD8330737
Probable space group: P 63/M M C
;
_chemical_formula_sum "Si O2"
_cell_formula_units_Z 132
_cell_length_a 23.573783
_cell_length_b 23.573783
_cell_length_c 15.243778
_cell_angle_alpha 90.000000
_cell_angle_beta 90.000000
_cell_angle_gamma 120.000000
_cell_volume 7336.379861
_symmetry_space_group_name_H-M "P 63/M M C"
_symmetry_group_IT_number 194
_symmetry_cell_setting 'hexagonal'
loop_
_space_group_symop_operation_xyz
x,y,z
x-y,x,1/2+z
-y,x-y,z
-x,-y,1/2+z
-x+y,-x,z
y,-x+y,1/2+z
x-y,-y,-z
-x,-x+y,-z
y,x,-z
-y,-x,1/2-z
-x+y,y,1/2-z
x,x-y,1/2-z
-x,-y,-z
-x+y,-x,1/2-z
y,-x+y,-z
x,y,1/2-z
x-y,x,-z
-y,x-y,1/2-z
-x+y,y,z
x,x-y,z
-y,-x,z
y,x,1/2+z
x-y,-y,1/2+z
-x,-x+y,1/2+z
loop_
_atom_site_type_symbol
_atom_site_label
_atom_site_fract_x
_atom_site_fract_y
_atom_site_fract_z
Si Si1 0.457065 0.162590 0.750000
Si Si2 0.985136 0.333554 0.750000
Si Si3 0.536286 0.203822 0.922502
Si Si4 0.886915 0.773829 0.144891
Si Si5 0.549999 0.840083 0.592215
Si Si6 0.479589 0.385287 0.250000
Si Si7 0.040551 0.081102 0.646750
Si Si8 0.260155 0.954874 0.915061
O O1 0.435275 0.217638 0.750000
O O2 0.499474 0.168184 0.834383
O O3 0.393862 0.092101 0.750000
O O4 0.023783 0.413040 0.750000
O O5 0.002248 0.305740 0.834790
O O6 0.596535 0.193069 0.936657
O O7 0.561659 0.280830 0.916655
O O8 0.488699 0.170724 0.003251
O O9 0.883968 0.767936 0.250000
O O10 0.923704 0.847407 0.105096
O O11 0.815054 0.742046 0.106210
O O12 0.547649 0.773825 0.625459
O O13 0.517902 0.863937 0.665534
O O14 0.623289 0.893961 0.569217
O O15 0.541470 0.458531 0.250000
O O16 0.045907 0.091814 0.750000
O O17 0.074294 0.037147 0.620192
O O18 0.280279 0.000000 0.000000
#
# Coordination Sequence:
#
# PCOD8330737 Si02
#       8
#    12  12  24  12  24  12  12  24
#     4  10  21  38  57  79 110 147 188 231 291 350
#     4  10  22  40  58  83 115 154 189 238 303 345
#     4  10  20  34  55  81 110 146 188 236 286 349
#     4  11  20  38  65  88 116 156 205 240 298 359
#     4  10  20  36  58  80 114 160 195 238 304 358
#     4  10  21  35  58  87 115 146 201 253 294 355
#     4   7  14  32  55  79 110 146 179 225 281 343
#     4  11  22  38  60  87 119 150 198 251 289 351
#
# _framework density 17.992526000000002
#
# number of rings (size 3 to 8) (size 9 to 14) (size 15 to 20)
#    0.182    1.818    1.818    2.364    0.000    0.727 
#    3.273    0.909    0.000    9.091    0.000    0.000 
#    0.000    0.000    0.000    0.000    0.000    0.000 
#
# Total GULP energy -1636546.642539 kJ/mol
# GULP energy per Si atom -12398.080625 kJ/mol
# Density = 1.795157 g / cm^3
# Si number density = 17.992526 Si / 1000 Ang^3
#
#
#
# Elastic Constant Matrix: (Units=GPa)
#
#
# Indices 1 2 3 4 5 6 
#
# 1 161.0230 28.8594 46.7672 0.0000 0.0000 0.0000
# 2 28.8594 161.0230 46.7672 0.0000 0.0000 0.0000
# 3 46.7672 46.7672 110.5649 0.0000 0.0000 0.0000
# 4 0.0000 0.0000 0.0000 15.0918 0.0000 0.0000
# 5 0.0000 0.0000 0.0000 0.0000 15.0918 0.0000
# 6 0.0000 0.0000 0.0000 0.0000 0.0000 66.0818
#
#
#
# Elastic Compliance Matrix: (Units=1/GPa)
#
#
# Indices 1 2 3 4 5 6 
#
# 1 0.007109 -0.000457 -0.002814 0.000000 0.000000 0.000000
# 2 -0.000457 0.007109 -0.002814 0.000000 0.000000 0.000000
# 3 -0.002814 -0.002814 0.011425 0.000000 0.000000 0.000000
# 4 0.000000 0.000000 0.000000 0.066261 0.000000 0.000000
# 5 0.000000 0.000000 0.000000 0.000000 0.066261 0.000000
# 6 0.000000 0.000000 0.000000 0.000000 0.000000 0.015133
#
#
# Mechanical properties :
#
#
# Convention : Reuss Voigt Hill
#
# Bulk Modulus (GPa) = 74.21511 75.26649 74.74080
# Shear Modulus (GPa) = 26.32133 39.93422 33.12778
#
# Velocity S-wave (km/s) = 3.82894 4.71626 4.29557
# Velocity P-wave (km/s) = 7.80289 8.46052 8.13835
#
# Compressibility (1/GPa) = 0.01347434
#
# Stress axis : x y z
#
# Youngs Moduli (GPa) = 140.65781 140.65781 87.52784
#
# Poissons Ratio (x) = 0.06427 0.24630
# Poissons Ratio (y) = 0.06427 0.24630
# Poissons Ratio (z) = 0.39580 0.39580
#
# Static dielectric constant tensor:
#      x y z
#    x 3.495200 0.000000 0.000000 
#    y 0.000000 3.495200 0.000000 
#    z 0.000000 0.000000 3.369660 
# 
# 
# High freq. dielectric constant tensor:
#      x y z
#    x 1.700930 0.000000 0.000000 
#    y 0.000000 1.700930 0.000000 
#    z 0.000000 0.000000 1.706820 
# 
# From -- ./inp_files/5346.got.cif
#   From: 2010.03.12/outbox.cif.g09.slc.cpg/sg194_3_cif.got.tgz:5346.got - 2010.04.01 12:26:19.
