data_PCOD8330643
_publ_section_title
;
Structure prediction by ZEFSAII (Michael W. Deem and Ramdas Pophale) SiO2 
 PCOD8330643
Probable space group: P 63/M M C
;
_chemical_formula_sum "Si O2"
_cell_formula_units_Z 112
_cell_length_a 30.074497
_cell_length_b 30.074497
_cell_length_c 8.862271
_cell_angle_alpha 90.000000
_cell_angle_beta 90.000000
_cell_angle_gamma 120.000000
_cell_volume 6941.804887
_symmetry_space_group_name_H-M "P 63/M M C"
_symmetry_group_IT_number 194
_symmetry_cell_setting 'hexagonal'
loop_
_space_group_symop_operation_xyz
x,y,z
x-y,x,1/2+z
-y,x-y,z
-x,-y,1/2+z
-x+y,-x,z
y,-x+y,1/2+z
x-y,-y,-z
-x,-x+y,-z
y,x,-z
-y,-x,1/2-z
-x+y,y,1/2-z
x,x-y,1/2-z
-x,-y,-z
-x+y,-x,1/2-z
y,-x+y,-z
x,y,1/2-z
x-y,x,-z
-y,x-y,1/2-z
-x+y,y,z
x,x-y,z
-y,-x,z
y,x,1/2+z
x-y,-y,1/2+z
-x,-x+y,1/2+z
loop_
_atom_site_type_symbol
_atom_site_label
_atom_site_fract_x
_atom_site_fract_y
_atom_site_fract_z
Si Si1 0.388686 0.777372 0.928459
Si Si2 0.666667 0.333334 0.570813
Si Si3 0.204966 0.152681 0.428513
Si Si4 0.204918 0.513222 0.426392
Si Si5 0.306064 0.052138 0.428114
Si Si6 0.255019 0.847621 0.924724
O O1 0.384979 0.769957 0.750000
O O2 0.361933 0.723866 0.013182
O O3 0.447863 0.807111 0.980998
O O4 0.666667 0.333334 0.750000
O O5 0.159769 0.159769 0.500000
O O6 0.200164 0.152284 0.250000
O O7 0.198931 0.099466 0.488252
O O8 0.260232 0.198685 0.482526
O O9 0.199288 0.520006 0.250000
O O10 0.261945 0.523890 0.466116
O O11 0.162875 0.456210 0.476226
O O12 0.305523 0.047131 0.250000
O O13 0.359756 0.099440 0.483529
O O14 0.299232 0.000000 0.500000
O O15 0.270586 0.850680 0.750000
O O16 0.196398 0.803603 0.949536
#
# Coordination Sequence:
#
# PCOD8330643 Si02
#       6
#    12   4  24  24  24  24
#     4  12  22  32  48  68  91 125 164 194 226 274
#     4  12  22  32  46  66  94 125 157 198 238 266
#     4   9  17  29  45  66  92 121 153 188 230 274
#     4  10  20  32  46  65  93 123 153 192 234 270
#     4   9  17  29  46  68  93 121 151 187 227 273
#     4   9  17  30  47  66  91 122 156 188 223 271
#
# _framework density 16.134132000000001
#
# number of rings (size 3 to 8) (size 9 to 14) (size 15 to 20)
#    0.000    2.357    1.071    2.571    0.000    4.714 
#    0.000    0.000    0.000    4.071    0.000    0.750 
#    0.000    0.000    0.000    0.000    0.000    0.000 
#
# Total GULP energy -1388947.066201 kJ/mol
# GULP energy per Si atom -12401.313091 kJ/mol
# Density = 1.609741 g / cm^3
# Si number density = 16.134132 Si / 1000 Ang^3
#
#
#
# Elastic Constant Matrix: (Units=GPa)
#
#
# Indices 1 2 3 4 5 6 
#
# 1 112.7117 55.1468 38.6455 0.0000 0.0000 0.0002
# 2 55.1468 112.7119 38.6460 0.0000 0.0000 0.0001
# 3 38.6455 38.6460 62.5889 -0.0001 0.0000 0.0003
# 4 0.0000 0.0000 -0.0001 25.7211 0.0000 0.0000
# 5 0.0000 0.0000 0.0000 0.0000 25.7211 0.0000
# 6 0.0002 0.0001 0.0003 0.0000 0.0000 28.7821
#
#
#
# Elastic Compliance Matrix: (Units=1/GPa)
#
#
# Indices 1 2 3 4 5 6 
#
# 1 0.012848 -0.004524 -0.005140 0.000000 0.000000 0.000000
# 2 -0.004524 0.012848 -0.005140 0.000000 0.000000 0.000000
# 3 -0.005140 -0.005140 0.022324 0.000000 0.000000 0.000000
# 4 0.000000 0.000000 0.000000 0.038879 0.000000 0.000000
# 5 0.000000 0.000000 0.000000 0.000000 0.038879 0.000000
# 6 0.000000 0.000000 0.000000 0.000000 0.000000 0.034744
#
#
# Mechanical properties :
#
#
# Convention : Reuss Voigt Hill
#
# Bulk Modulus (GPa) = 54.30777 61.43212 57.86994
# Shear Modulus (GPa) = 25.47573 26.41647 25.94610
#
# Velocity S-wave (km/s) = 3.97797 4.05075 4.01452
# Velocity P-wave (km/s) = 7.40488 7.74833 7.57855
#
# Compressibility (1/GPa) = 0.01841357
#
# Stress axis : x y z
#
# Youngs Moduli (GPa) = 77.83429 77.83395 44.79421
#
# Poissons Ratio (x) = 0.35211 0.23022
# Poissons Ratio (y) = 0.35211 0.23023
# Poissons Ratio (z) = 0.40004 0.40005
#
# Static dielectric constant tensor:
#      x y z
#    x 3.042540 0.000000 0.000000 
#    y 0.000000 3.042540 0.000000 
#    z 0.000000 0.000000 2.988450 
# 
# 
# High freq. dielectric constant tensor:
#      x y z
#    x 1.605550 0.000000 0.000000 
#    y 0.000000 1.605550 0.000000 
#    z 0.000000 0.000000 1.621900 
# 
# From -- ./inp_files/1916.got.cif
#   From: 2010.03.12/outbox.cif.g09.slc.cpg/sg194_1_cif.got.tgz:1916.got - 2010.04.01 12:26:19.
