data_PCOD8330357
_publ_section_title
;
Structure prediction by ZEFSAII (Michael W. Deem and Ramdas Pophale) SiO2 
 PCOD8330357
Probable space group: P 63/M M C
;
_chemical_formula_sum "Si O2"
_cell_formula_units_Z 168
_cell_length_a 18.093336
_cell_length_b 18.093336
_cell_length_c 30.579933
_cell_angle_alpha 90.000000
_cell_angle_beta 90.000000
_cell_angle_gamma 120.000000
_cell_volume 8669.707747
_symmetry_space_group_name_H-M "P 63/M M C"
_symmetry_group_IT_number 194
_symmetry_cell_setting 'hexagonal'
loop_
_space_group_symop_operation_xyz
x,y,z
x-y,x,1/2+z
-y,x-y,z
-x,-y,1/2+z
-x+y,-x,z
y,-x+y,1/2+z
x-y,-y,-z
-x,-x+y,-z
y,x,-z
-y,-x,1/2-z
-x+y,y,1/2-z
x,x-y,1/2-z
-x,-y,-z
-x+y,-x,1/2-z
y,-x+y,-z
x,y,1/2-z
x-y,x,-z
-y,x-y,1/2-z
-x+y,y,z
x,x-y,z
-y,-x,z
y,x,1/2+z
x-y,-y,1/2+z
-x,-x+y,1/2+z
loop_
_atom_site_type_symbol
_atom_site_label
_atom_site_fract_x
_atom_site_fract_y
_atom_site_fract_z
Si Si1 0.200554 0.237710 0.953578
Si Si2 0.864987 0.567813 0.442024
Si Si3 0.333501 0.501930 0.697911
Si Si4 0.068790 0.756125 0.799079
Si Si5 0.168713 0.503302 0.466052
Si Si6 0.595541 0.569867 0.601573
Si Si7 0.232273 0.936961 0.130623
O O1 0.104620 0.209240 0.937737
O O2 0.253434 0.338097 0.962289
O O3 0.246828 0.213336 0.915843
O O4 0.192858 0.192858 0.000000
O O5 0.776467 0.552933 0.419660
O O6 0.843612 0.503405 0.481904
O O7 0.924122 0.555784 0.406748
O O8 0.332043 0.504351 0.750000
O O9 0.260070 0.520139 0.679829
O O10 0.425621 0.574380 0.679545
O O11 0.314482 0.407673 0.683664
O O12 0.030815 0.733712 0.750000
O O13 0.153131 0.846870 0.799455
O O14 0.001160 0.761433 0.830981
O O15 0.238511 0.477021 0.450890
O O16 0.203770 0.601885 0.453440
O O17 0.077305 0.444296 0.443715
O O18 0.520236 0.479765 0.620857
O O19 0.677929 0.615109 0.632818
O O20 0.156896 0.843105 0.141781
#
# Coordination Sequence:
#
# PCOD8330357 Si02
#       7
#    24  24  24  24  24  24  24
#     4  10  19  32  52  77 105 137 172 211 257 311
#     4   9  17  28  45  70  97 129 172 218 262 312
#     4   8  13  23  44  77 115 150 179 207 244 296
#     4   9  19  36  57  81 109 140 173 211 257 307
#     4  10  18  28  43  65  96 134 179 229 275 314
#     4  10  20  33  49  70  99 135 174 217 265 316
#     4  11  22  36  56  80 105 136 177 222 265 311
#
# _framework density 19.377815999999999
#
# number of rings (size 3 to 8) (size 9 to 14) (size 15 to 20)
#    0.000    2.429    0.000    5.000    0.000    4.286 
#    0.000    0.000    0.000    6.000    0.000    1.000 
#    0.000    0.000    0.000    0.000    0.000    0.000 
#
# Total GULP energy -2082196.420822 kJ/mol
# GULP energy per Si atom -12394.026314 kJ/mol
# Density = 1.933371 g / cm^3
# Si number density = 19.377816 Si / 1000 Ang^3
#
#
#
# Elastic Constant Matrix: (Units=GPa)
#
#
# Indices 1 2 3 4 5 6 
#
# 1 91.8521 44.3612 24.6516 0.0000 0.0000 0.0000
# 2 44.3612 91.8521 24.6516 0.0000 0.0000 0.0000
# 3 24.6516 24.6516 62.7444 0.0000 0.0000 0.0000
# 4 0.0000 0.0000 0.0000 22.0648 0.0000 0.0000
# 5 0.0000 0.0000 0.0000 0.0000 22.0648 0.0000
# 6 0.0000 0.0000 0.0000 0.0000 0.0000 23.7455
#
#
#
# Elastic Compliance Matrix: (Units=1/GPa)
#
#
# Indices 1 2 3 4 5 6 
#
# 1 0.014808 -0.006249 -0.003363 0.000000 0.000000 0.000000
# 2 -0.006249 0.014808 -0.003363 0.000000 0.000000 0.000000
# 3 -0.003363 -0.003363 0.018580 0.000000 0.000000 0.000000
# 4 0.000000 0.000000 0.000000 0.045321 0.000000 0.000000
# 5 0.000000 0.000000 0.000000 0.000000 0.045321 0.000000
# 6 0.000000 0.000000 0.000000 0.000000 0.000000 0.042113
#
#
# Mechanical properties :
#
#
# Convention : Reuss Voigt Hill
#
# Bulk Modulus (GPa) = 44.95041 48.19748 46.57395
# Shear Modulus (GPa) = 23.33020 23.76062 23.54541
#
# Velocity S-wave (km/s) = 3.47358 3.50548 3.48957
# Velocity P-wave (km/s) = 6.27175 6.42736 6.35004
#
# Compressibility (1/GPa) = 0.02224674
#
# Stress axis : x y z
#
# Youngs Moduli (GPa) = 67.53294 67.53294 53.82164
#
# Poissons Ratio (x) = 0.42202 0.18098
# Poissons Ratio (y) = 0.42202 0.18098
# Poissons Ratio (z) = 0.22708 0.22708
#
# Static dielectric constant tensor:
#      x y z
#    x 3.594280 0.000000 0.000000 
#    y 0.000000 3.594280 0.000000 
#    z 0.000000 0.000000 3.197350 
# 
# 
# High freq. dielectric constant tensor:
#      x y z
#    x 1.746590 0.000000 0.000000 
#    y 0.000000 1.746590 0.000000 
#    z 0.000000 0.000000 1.723160 
# 
# From -- ./inp_files/12289.got.cif
#   From: 2010.03.12/outbox.cif.g09.slc.cpg/sg194_7_cif.got.tgz:12289.got - 2010.04.01 12:26:19.
