data_PCOD8330254
_publ_section_title
;
Structure prediction by ZEFSAII (Michael W. Deem and Ramdas Pophale) SiO2 
 PCOD8330254
Probable space group: P 63/M C M
;
_chemical_formula_sum "Si O2"
_cell_formula_units_Z 120
_cell_length_a 15.122611
_cell_length_b 15.122611
_cell_length_c 28.382389
_cell_angle_alpha 90.000000
_cell_angle_beta 90.000000
_cell_angle_gamma 120.000000
_cell_volume 5621.253119
_symmetry_space_group_name_H-M "P 63/M C M"
_symmetry_group_IT_number 193
_symmetry_cell_setting 'hexagonal'
loop_
_space_group_symop_operation_xyz
x,y,z
x-y,x,1/2+z
-y,x-y,z
-x,-y,1/2+z
-x+y,-x,z
y,-x+y,1/2+z
x-y,-y,1/2-z
-x,-x+y,1/2-z
y,x,1/2-z
-y,-x,-z
-x+y,y,-z
x,x-y,-z
-x,-y,-z
-x+y,-x,1/2-z
y,-x+y,-z
x,y,1/2-z
x-y,x,-z
-y,x-y,1/2-z
-x+y,y,1/2+z
x,x-y,1/2+z
-y,-x,1/2+z
y,x,z
x-y,-y,z
-x,-x+y,z
loop_
_atom_site_type_symbol
_atom_site_label
_atom_site_fract_x
_atom_site_fract_y
_atom_site_fract_z
Si Si1 0.885365 0.118955 0.897535
Si Si2 0.878945 0.390133 0.199081
Si Si3 0.120399 0.568697 0.400320
Si Si4 0.808326 0.687244 0.198651
Si Si5 0.771819 0.556445 0.055492
O O1 0.888147 0.159811 0.844231
O O2 0.807961 0.135822 0.929803
O O3 0.000000 0.181640 0.917722
O O4 0.849831 0.000000 0.898052
O O5 0.839019 0.407466 0.250000
O O6 0.843822 0.431471 0.154667
O O7 0.836449 0.269628 0.191464
O O8 0.000000 0.447173 0.200643
O O9 0.178177 0.520210 0.427698
O O10 0.148794 0.676220 0.422272
O O11 0.000000 0.492310 0.405181
O O12 0.863384 0.706123 0.250000
O O13 0.744671 0.744671 0.196764
O O14 0.774247 0.548493 0.000000
#
# Coordination Sequence:
#
# PCOD8330254 Si02
#       5
#    24  24  24  24  24
#     4  11  23  40  61  90 128 171 216 263 314 373
#     4   8  14  30  60  93 124 160 198 241 301 372
#     4  11  23  43  68  94 126 163 201 254 323 382
#     4   8  14  29  56  87 119 159 204 249 303 365
#     4  12  26  43  65  93 122 157 212 272 324 382
#
# _framework density 21.347555
#
# number of rings (size 3 to 8) (size 9 to 14) (size 15 to 20)
#    0.000    2.000    2.000    3.600    0.000    4.400 
#    0.000    2.000    0.000    4.800    0.000    0.000 
#    0.000    0.000    0.000    0.000    0.000    0.000 
#
# Total GULP energy -1487470.765912 kJ/mol
# GULP energy per Si atom -12395.589716 kJ/mol
# Density = 2.129897 g / cm^3
# Si number density = 21.347555 Si / 1000 Ang^3
#
#
#
# Elastic Constant Matrix: (Units=GPa)
#
#
# Indices 1 2 3 4 5 6 
#
# 1 62.0840 10.5686 36.3433 0.0000 0.0000 0.0000
# 2 10.5686 62.0840 36.3433 0.0000 0.0000 0.0000
# 3 36.3433 36.3433 157.5971 0.0000 0.0000 0.0000
# 4 0.0000 0.0000 0.0000 1.1223 0.0000 0.0000
# 5 0.0000 0.0000 0.0000 0.0000 1.1223 0.0000
# 6 0.0000 0.0000 0.0000 0.0000 0.0000 25.7577
#
#
#
# Elastic Compliance Matrix: (Units=1/GPa)
#
#
# Indices 1 2 3 4 5 6 
#
# 1 0.018652 -0.000760 -0.004126 0.000000 0.000000 0.000000
# 2 -0.000760 0.018652 -0.004126 0.000000 0.000000 0.000000
# 3 -0.004126 -0.004126 0.008248 0.000000 0.000000 0.000000
# 4 0.000000 0.000000 0.000000 0.891024 0.000000 0.000000
# 5 0.000000 0.000000 0.000000 0.000000 0.891024 0.000000
# 6 0.000000 0.000000 0.000000 0.000000 0.000000 0.038823
#
#
# Mechanical properties :
#
#
# Convention : Reuss Voigt Hill
#
# Bulk Modulus (GPa) = 36.32631 49.80838 43.06735
# Shear Modulus (GPa) = 2.64044 18.83445 10.73744
#
# Velocity S-wave (km/s) = 1.11336 2.97354 2.24516
# Velocity P-wave (km/s) = 4.32508 5.93060 5.19029
#
# Compressibility (1/GPa) = 0.02752826
#
# Stress axis : x y z
#
# Youngs Moduli (GPa) = 53.61381 53.61381 121.23679
#
# Poissons Ratio (x) = 0.04073 0.50023
# Poissons Ratio (y) = 0.04073 0.50023
# Poissons Ratio (z) = 0.22122 0.22122
#
# Static dielectric constant tensor:
#      x y z
#    x 3.557940 0.000000 0.000000 
#    y 0.000000 3.557940 0.000000 
#    z 0.000000 0.000000 4.414580 
# 
# 
# High freq. dielectric constant tensor:
#      x y z
#    x 1.818290 0.000000 0.000000 
#    y 0.000000 1.818290 0.000000 
#    z 0.000000 0.000000 1.852170 
# 
# From -- ./inp_files/8959.got.cif
#   From: 2010.03.12/outbox.cif.g09.slc.cpg/sg193_5_cif.got.tgz:8959.got - 2010.04.01 12:20:39.
