data_PCOD8330220
_publ_section_title
;
Structure prediction by ZEFSAII (Michael W. Deem and Ramdas Pophale) SiO2 
 PCOD8330220
Probable space group: P 63/M C M
;
_chemical_formula_sum "Si O2"
_cell_formula_units_Z 168
_cell_length_a 18.478330
_cell_length_b 18.478330
_cell_length_c 28.960295
_cell_angle_alpha 90.000000
_cell_angle_beta 90.000000
_cell_angle_gamma 120.000000
_cell_volume 8563.652791
_symmetry_space_group_name_H-M "P 63/M C M"
_symmetry_group_IT_number 193
_symmetry_cell_setting 'hexagonal'
loop_
_space_group_symop_operation_xyz
x,y,z
x-y,x,1/2+z
-y,x-y,z
-x,-y,1/2+z
-x+y,-x,z
y,-x+y,1/2+z
x-y,-y,1/2-z
-x,-x+y,1/2-z
y,x,1/2-z
-y,-x,-z
-x+y,y,-z
x,x-y,-z
-x,-y,-z
-x+y,-x,1/2-z
y,-x+y,-z
x,y,1/2-z
x-y,x,-z
-y,x-y,1/2-z
-x+y,y,1/2+z
x,x-y,1/2+z
-y,-x,1/2+z
y,x,z
x-y,-y,z
-x,-x+y,z
loop_
_atom_site_type_symbol
_atom_site_label
_atom_site_fract_x
_atom_site_fract_y
_atom_site_fract_z
Si Si1 0.909547 0.579265 0.448383
Si Si2 0.191125 0.524830 0.478729
Si Si3 0.840212 0.745833 0.951093
Si Si4 0.785404 0.095860 0.634502
Si Si5 0.167258 0.659835 0.356793
Si Si6 0.247113 0.903704 0.802934
Si Si7 0.819975 0.494332 0.871567
O O1 0.899307 0.531018 0.496880
O O2 0.900647 0.658606 0.458797
O O3 0.843941 0.519986 0.410295
O O4 0.000000 0.605790 0.427869
O O5 0.240449 0.480897 0.500000
O O6 0.234644 0.617322 0.500000
O O7 0.189129 0.529977 0.424698
O O8 0.815552 0.815552 0.934982
O O9 0.894932 0.729937 0.913107
O O10 0.887873 0.775745 0.000000
O O11 0.850840 0.158520 0.671792
O O12 0.709358 0.115865 0.631387
O O13 0.744993 0.000000 0.651060
O O14 0.108209 0.678872 0.324402
O O15 0.263415 0.731164 0.347560
O O16 0.149270 0.565505 0.347462
O O17 0.235391 0.875104 0.750000
O O18 0.273408 0.000000 0.808197
#
# Coordination Sequence:
#
# PCOD8330220 Si02
#       7
#    24  24  24  24  24  24  24
#     4  11  21  32  50  74 109 154 203 252 291 341
#     4  12  20  32  46  72 108 154 205 249 291 342
#     4  11  21  37  60  85 120 169 216 254 296 360
#     4  11  23  39  62  94 128 159 198 250 312 372
#     4  11  21  38  58  85 117 154 203 248 298 357
#     4  10  22  44  72  94 115 151 199 247 304 375
#     4  11  21  36  56  83 122 167 205 251 302 352
#
# _framework density 19.617796999999999
#
# number of rings (size 3 to 8) (size 9 to 14) (size 15 to 20)
#    0.000    1.000    5.714    3.000    0.000    3.429 
#    0.000    2.857    0.000    5.429    0.000    0.000 
#    0.000    0.000    0.000    0.000    0.000    0.000 
#
# Total GULP energy -2081893.538762 kJ/mol
# GULP energy per Si atom -12392.223445 kJ/mol
# Density = 1.957315 g / cm^3
# Si number density = 19.617797 Si / 1000 Ang^3
#
#
#
# Elastic Constant Matrix: (Units=GPa)
#
#
# Indices 1 2 3 4 5 6 
#
# 1 97.5813 57.1632 30.7585 0.0000 0.0000 0.0000
# 2 57.1632 97.5813 30.7585 0.0000 0.0000 0.0000
# 3 30.7585 30.7585 80.2293 0.0000 0.0000 0.0000
# 4 0.0000 0.0000 0.0000 19.1862 0.0000 0.0000
# 5 0.0000 0.0000 0.0000 0.0000 19.1862 0.0000
# 6 0.0000 0.0000 0.0000 0.0000 0.0000 20.2091
#
#
#
# Elastic Compliance Matrix: (Units=1/GPa)
#
#
# Indices 1 2 3 4 5 6 
#
# 1 0.016183 -0.008559 -0.002923 0.000000 0.000000 0.000000
# 2 -0.008559 0.016183 -0.002923 0.000000 0.000000 0.000000
# 3 -0.002923 -0.002923 0.014706 0.000000 0.000000 0.000000
# 4 0.000000 0.000000 0.000000 0.052121 0.000000 0.000000
# 5 0.000000 0.000000 0.000000 0.000000 0.052121 0.000000
# 6 0.000000 0.000000 0.000000 0.000000 0.000000 0.049483
#
#
# Mechanical properties :
#
#
# Convention : Reuss Voigt Hill
#
# Bulk Modulus (GPa) = 54.75838 56.97245 55.86541
# Shear Modulus (GPa) = 21.21412 22.16374 21.68893
#
# Velocity S-wave (km/s) = 3.29199 3.36486 3.32862
# Velocity P-wave (km/s) = 6.51328 6.64836 6.58116
#
# Compressibility (1/GPa) = 0.01826205
#
# Stress axis : x y z
#
# Youngs Moduli (GPa) = 61.79388 61.79388 68.00166
#
# Poissons Ratio (x) = 0.52887 0.19877
# Poissons Ratio (y) = 0.52887 0.19877
# Poissons Ratio (z) = 0.18062 0.18062
#
# Static dielectric constant tensor:
#      x y z
#    x 3.713740 0.000000 0.000000 
#    y 0.000000 3.713740 0.000000 
#    z 0.000000 0.000000 3.359680 
# 
# 
# High freq. dielectric constant tensor:
#      x y z
#    x 1.764280 0.000000 0.000000 
#    y 0.000000 1.764280 0.000000 
#    z 0.000000 0.000000 1.736170 
# 
# From -- ./inp_files/9317.got.cif
#   From: 2010.03.12/outbox.cif.g09.slc.cpg/sg193_5_cif.got.tgz:9317.got - 2010.04.01 12:20:39.
