data_PCOD8330083
_publ_section_title
;
Structure prediction by ZEFSAII (Michael W. Deem and Ramdas Pophale) SiO2 
 PCOD8330083
Probable space group: P 63/M C M
;
_chemical_formula_sum "Si O2"
_cell_formula_units_Z 144
_cell_length_a 32.446358
_cell_length_b 32.446358
_cell_length_c 8.726851
_cell_angle_alpha 90.000000
_cell_angle_beta 90.000000
_cell_angle_gamma 120.000000
_cell_volume 7956.464037
_symmetry_space_group_name_H-M "P 63/M C M"
_symmetry_group_IT_number 193
_symmetry_cell_setting 'hexagonal'
loop_
_space_group_symop_operation_xyz
x,y,z
x-y,x,1/2+z
-y,x-y,z
-x,-y,1/2+z
-x+y,-x,z
y,-x+y,1/2+z
x-y,-y,1/2-z
-x,-x+y,1/2-z
y,x,1/2-z
-y,-x,-z
-x+y,y,-z
x,x-y,-z
-x,-y,-z
-x+y,-x,1/2-z
y,-x+y,-z
x,y,1/2-z
x-y,x,-z
-y,x-y,1/2-z
-x+y,y,1/2+z
x,x-y,1/2+z
-y,-x,1/2+z
y,x,z
x-y,-y,z
-x,-x+y,z
loop_
_atom_site_type_symbol
_atom_site_label
_atom_site_fract_x
_atom_site_fract_y
_atom_site_fract_z
Si Si1 0.616235 0.145250 0.432181
Si Si2 0.439057 0.387050 0.069214
Si Si3 0.945564 0.721020 0.070912
Si Si4 0.525384 0.806318 0.931651
Si Si5 0.806943 0.860746 0.430264
Si Si6 0.720426 0.107722 0.068946
O O1 0.580423 0.160846 0.500000
O O2 0.618830 0.150144 0.250000
O O3 0.598822 0.090881 0.485009
O O4 0.667905 0.179668 0.500294
O O5 0.438309 0.390935 0.250000
O O6 0.422170 0.422170 0.994815
O O7 0.402090 0.333084 0.019569
O O8 0.939861 0.726689 0.250000
O O9 0.912181 0.666867 0.017331
O O10 0.000000 0.737137 0.029735
O O11 0.928430 0.753070 0.982501
O O12 0.521686 0.803980 0.750000
O O13 0.510067 0.755034 0.000000
O O14 0.579466 0.843179 0.981725
O O15 0.825466 0.912733 0.500000
O O16 0.808183 0.864864 0.250000
O O17 0.841600 0.841600 0.489344
O O18 0.723162 0.117530 0.250000
#
# Coordination Sequence:
#
# PCOD8330083 Si02
#       6
#    24  24  24  24  24  24
#     4  10  20  35  55  79 106 136 171 210 255 306
#     4   8  14  26  46  72 103 139 177 215 251 288
#     4   9  17  30  50  75 104 140 179 217 257 300
#     4  11  22  37  56  77 102 133 170 212 260 310
#     4  10  21  36  54  76 101 130 165 206 253 305
#     4   9  17  30  49  74 104 139 179 218 256 298
#
# _framework density 18.098490999999999
#
# number of rings (size 3 to 8) (size 9 to 14) (size 15 to 20)
#    0.000    2.500    0.000    4.000    0.000    4.667 
#    0.000    0.000    0.000   16.500    0.000    2.333 
#    0.000    0.000    0.000    0.000    0.000    0.000 
#
# Total GULP energy -1785505.400810 kJ/mol
# GULP energy per Si atom -12399.343061 kJ/mol
# Density = 1.805730 g / cm^3
# Si number density = 18.098491 Si / 1000 Ang^3
#
#
#
# Elastic Constant Matrix: (Units=GPa)
#
#
# Indices 1 2 3 4 5 6 
#
# 1 121.4050 74.1492 44.9244 0.0000 0.0000 0.0000
# 2 74.1492 121.4050 44.9244 0.0000 0.0000 0.0000
# 3 44.9244 44.9244 78.0960 0.0000 0.0000 0.0000
# 4 0.0000 0.0000 0.0000 25.0450 0.0000 0.0000
# 5 0.0000 0.0000 0.0000 0.0000 25.0450 0.0000
# 6 0.0000 0.0000 0.0000 0.0000 0.0000 23.6279
#
#
#
# Elastic Compliance Matrix: (Units=1/GPa)
#
#
# Indices 1 2 3 4 5 6 
#
# 1 0.014056 -0.007105 -0.003998 0.000000 0.000000 0.000000
# 2 -0.007105 0.014056 -0.003998 0.000000 0.000000 0.000000
# 3 -0.003998 -0.003998 0.017405 0.000000 0.000000 0.000000
# 4 0.000000 0.000000 0.000000 0.039928 0.000000 0.000000
# 5 0.000000 0.000000 0.000000 0.000000 0.039928 0.000000
# 6 0.000000 0.000000 0.000000 0.000000 0.000000 0.042323
#
#
# Mechanical properties :
#
#
# Convention : Reuss Voigt Hill
#
# Bulk Modulus (GPa) = 65.30476 72.10021 68.70249
# Shear Modulus (GPa) = 24.62994 25.20409 24.91702
#
# Velocity S-wave (km/s) = 3.69302 3.73581 3.71448
# Velocity P-wave (km/s) = 7.37196 7.65066 7.51260
#
# Compressibility (1/GPa) = 0.01531282
#
# Stress axis : x y z
#
# Youngs Moduli (GPa) = 71.14344 71.14344 57.45512
#
# Poissons Ratio (x) = 0.50550 0.22973
# Poissons Ratio (y) = 0.50550 0.22973
# Poissons Ratio (z) = 0.28446 0.28446
#
# Static dielectric constant tensor:
#      x y z
#    x 3.471660 0.000000 0.000000 
#    y 0.000000 3.471660 0.000000 
#    z 0.000000 0.000000 3.169670 
# 
# 
# High freq. dielectric constant tensor:
#      x y z
#    x 1.694450 0.000000 0.000000 
#    y 0.000000 1.694450 0.000000 
#    z 0.000000 0.000000 1.689600 
# 
# From -- ./inp_files/1582.got.cif
#   From: 2010.03.12/outbox.cif.g09.slc.cpg/sg193_1_cif.got.tgz:1582.got - 2010.04.01 12:20:39.
