data_PCOD8330278
_publ_section_title
;
Structure prediction by ZEFSAII (Michael W. Deem and Ramdas Pophale) SiO2 
 PCOD8330278
Probable space group: P 63/M C M
;
_chemical_formula_sum "Si O2"
_cell_formula_units_Z 168
_cell_length_a 24.601340
_cell_length_b 24.601340
_cell_length_c 19.318111
_cell_angle_alpha 90.000000
_cell_angle_beta 90.000000
_cell_angle_gamma 120.000000
_cell_volume 10125.414602
_symmetry_space_group_name_H-M "P 63/M C M"
_symmetry_group_IT_number 193
_symmetry_cell_setting 'hexagonal'
loop_
_space_group_symop_operation_xyz
x,y,z
x-y,x,1/2+z
-y,x-y,z
-x,-y,1/2+z
-x+y,-x,z
y,-x+y,1/2+z
x-y,-y,1/2-z
-x,-x+y,1/2-z
y,x,1/2-z
-y,-x,-z
-x+y,y,-z
x,x-y,-z
-x,-y,-z
-x+y,-x,1/2-z
y,-x+y,-z
x,y,1/2-z
x-y,x,-z
-y,x-y,1/2-z
-x+y,y,1/2+z
x,x-y,1/2+z
-y,-x,1/2+z
y,x,z
x-y,-y,z
-x,-x+y,z
loop_
_atom_site_type_symbol
_atom_site_label
_atom_site_fract_x
_atom_site_fract_y
_atom_site_fract_z
Si Si1 0.354659 0.260858 0.327848
Si Si2 0.527853 0.234655 0.332391
Si Si3 0.196963 0.626793 0.332650
Si Si4 0.819620 0.067354 0.074827
Si Si5 0.611331 0.765657 0.328636
Si Si6 0.927797 0.198791 0.419321
Si Si7 0.607198 0.538848 0.832232
O O1 0.337413 0.268931 0.250000
O O2 0.291253 0.231853 0.370403
O O3 0.385150 0.217106 0.330671
O O4 0.403745 0.327812 0.360469
O O5 0.528794 0.237539 0.250000
O O6 0.580846 0.220564 0.361639
O O7 0.543637 0.302665 0.361551
O O8 0.459400 0.177504 0.355471
O O9 0.199078 0.627649 0.250000
O O10 0.125637 0.599262 0.360448
O O11 0.888336 0.123724 0.097183
O O12 0.817719 0.000000 0.072508
O O13 0.795783 0.079164 0.001294
O O14 0.622496 0.749806 0.250000
O O15 0.662814 0.763896 0.378921
O O16 0.000000 0.226749 0.396013
O O17 0.611571 0.538407 0.750000
O O18 0.549743 0.549743 0.855686
#
# Coordination Sequence:
#
# PCOD8330278 Si02
#       7
#    24  24  24  24  24  24  24
#     4   9  15  25  42  65  91 111 132 171 224 271
#     4   9  15  24  38  57  83 115 148 186 222 261
#     4   9  15  23  35  54  80 111 145 178 220 262
#     4   9  17  29  46  67  89 113 146 183 221 264
#     4   9  16  27  43  62  87 117 148 184 220 256
#     4   9  18  31  45  63  90 120 149 182 218 261
#     4   9  15  22  33  52  81 109 129 160 211 263
#
# _framework density 16.591913999999999
#
# number of rings (size 3 to 8) (size 9 to 14) (size 15 to 20)
#    0.000    3.000    1.429    0.714    0.000    2.286 
#    0.000    0.714    0.000    2.857    0.000    3.000 
#    0.000    3.429    0.000    7.143    0.000    7.429 
#
# Total GULP energy -2081454.054945 kJ/mol
# GULP energy per Si atom -12389.607470 kJ/mol
# Density = 1.655415 g / cm^3
# Si number density = 16.591914 Si / 1000 Ang^3
#
#
#
# Elastic Constant Matrix: (Units=GPa)
#
#
# Indices 1 2 3 4 5 6 
#
# 1 115.4799 73.9403 22.5528 0.0000 0.0000 0.0000
# 2 73.9403 115.4799 22.5528 0.0000 0.0000 0.0000
# 3 22.5528 22.5528 29.3468 0.0000 0.0000 0.0000
# 4 0.0000 0.0000 0.0000 11.8364 0.0000 0.0000
# 5 0.0000 0.0000 0.0000 0.0000 11.8364 0.0000
# 6 0.0000 0.0000 0.0000 0.0000 0.0000 20.7698
#
#
#
# Elastic Compliance Matrix: (Units=1/GPa)
#
#
# Indices 1 2 3 4 5 6 
#
# 1 0.015268 -0.008806 -0.004966 0.000000 0.000000 0.000000
# 2 -0.008806 0.015268 -0.004966 0.000000 0.000000 0.000000
# 3 -0.004966 -0.004966 0.041708 0.000000 0.000000 0.000000
# 4 0.000000 0.000000 0.000000 0.084485 0.000000 0.000000
# 5 0.000000 0.000000 0.000000 0.000000 0.084485 0.000000
# 6 0.000000 0.000000 0.000000 0.000000 0.000000 0.048147
#
#
# Mechanical properties :
#
#
# Convention : Reuss Voigt Hill
#
# Bulk Modulus (GPa) = 28.76218 55.37762 42.06990
# Shear Modulus (GPa) = 14.77437 18.30589 16.54013
#
# Velocity S-wave (km/s) = 2.98729 3.32520 3.16076
# Velocity P-wave (km/s) = 5.41029 6.94200 6.22345
#
# Compressibility (1/GPa) = 0.03476788
#
# Stress axis : x y z
#
# Youngs Moduli (GPa) = 65.49816 65.49816 23.97644
#
# Poissons Ratio (x) = 0.57677 0.11906
# Poissons Ratio (y) = 0.57677 0.11906
# Poissons Ratio (z) = 0.32525 0.32525
#
# Static dielectric constant tensor:
#      x y z
#    x 3.235300 0.000000 0.000000 
#    y 0.000000 3.235300 0.000000 
#    z 0.000000 0.000000 2.746270 
# 
# 
# High freq. dielectric constant tensor:
#      x y z
#    x 1.636380 0.000000 0.000000 
#    y 0.000000 1.636380 0.000000 
#    z 0.000000 0.000000 1.584150 
# 
# From -- ./inp_files/6841.got.cif
#   From: 2010.03.12/outbox.cif.g09.slc.cpg/sg193_4_cif.got.tgz:6841.got - 2010.04.01 12:20:39.
