data_PCOD8330843
_publ_section_title
;
Structure prediction by ZEFSAII (Michael W. Deem and Ramdas Pophale) SiO2 
 PCOD8330843
Probable space group: P 63/M M C
;
_chemical_formula_sum "Si O2"
_cell_formula_units_Z 168
_cell_length_a 21.984437
_cell_length_b 21.984437
_cell_length_c 21.403165
_cell_angle_alpha 90.000000
_cell_angle_beta 90.000000
_cell_angle_gamma 120.000000
_cell_volume 8958.583124
_symmetry_space_group_name_H-M "P 63/M M C"
_symmetry_group_IT_number 194
_symmetry_cell_setting 'hexagonal'
loop_
_space_group_symop_operation_xyz
x,y,z
x-y,x,1/2+z
-y,x-y,z
-x,-y,1/2+z
-x+y,-x,z
y,-x+y,1/2+z
x-y,-y,-z
-x,-x+y,-z
y,x,-z
-y,-x,1/2-z
-x+y,y,1/2-z
x,x-y,1/2-z
-x,-y,-z
-x+y,-x,1/2-z
y,-x+y,-z
x,y,1/2-z
x-y,x,-z
-y,x-y,1/2-z
-x+y,y,z
x,x-y,z
-y,-x,z
y,x,1/2+z
x-y,-y,1/2+z
-x,-x+y,1/2+z
loop_
_atom_site_type_symbol
_atom_site_label
_atom_site_fract_x
_atom_site_fract_y
_atom_site_fract_z
Si Si1 0.802339 0.333848 0.823997
Si Si2 0.280006 0.019606 0.319151
Si Si3 0.430077 0.284308 0.180208
Si Si4 0.802065 0.057886 0.053270
Si Si5 0.523173 0.189860 0.435378
Si Si6 0.619210 0.738057 0.362949
Si Si7 0.609520 0.688263 0.001165
O O1 0.799064 0.334029 0.750000
O O2 0.813277 0.406639 0.851863
O O3 0.729453 0.270548 0.850923
O O4 0.867302 0.325230 0.845715
O O5 0.258657 0.034687 0.250000
O O6 0.264906 0.940412 0.318132
O O7 0.363059 0.069670 0.329857
O O8 0.235512 0.029241 0.375183
O O9 0.460976 0.307679 0.250000
O O10 0.405200 0.202600 0.168490
O O11 0.492167 0.333332 0.132797
O O12 0.881104 0.118897 0.042598
O O13 0.746677 0.085956 0.048629
O O14 0.786109 0.000000 0.000000
O O15 0.598275 0.196549 0.443201
O O16 0.531499 0.265750 0.446394
O O17 0.470808 0.135993 0.487483
O O18 0.624035 0.812018 0.352024
O O19 0.635896 0.728151 0.433446
O O20 0.620795 0.620795 0.000000
#
# Coordination Sequence:
#
# PCOD8330843 Si02
#       7
#    24  24  24  24  24  24  24
#     4   9  18  33  53  75 101 139 187 236 286 342
#     4  11  21  34  56  87 119 150 190 238 292 345
#     4   9  18  34  55  75  99 137 185 235 286 341
#     4  11  21  37  62  90 119 154 196 236 282 340
#     4  11  22  36  54  78 110 146 187 238 296 357
#     4  11  21  35  54  80 114 149 184 230 290 348
#     4  11  21  38  60  81 105 145 193 240 287 341
#
# _framework density 18.752966000000001
#
# number of rings (size 3 to 8) (size 9 to 14) (size 15 to 20)
#    0.000    1.571    4.286    2.429    0.000    3.429 
#    0.000    2.143    0.000    3.571    0.000    0.000 
#    0.000    0.000    0.000    0.000    0.000    0.000 
#
# Total GULP energy -2083063.134951 kJ/mol
# GULP energy per Si atom -12399.185327 kJ/mol
# Density = 1.871028 g / cm^3
# Si number density = 18.752966 Si / 1000 Ang^3
#
#
#
# Elastic Constant Matrix: (Units=GPa)
#
#
# Indices 1 2 3 4 5 6 
#
# 1 99.1222 58.5233 30.4499 0.0000 0.0000 0.0000
# 2 58.5233 99.1222 30.4499 0.0000 0.0000 0.0000
# 3 30.4499 30.4499 101.0281 0.0000 0.0000 0.0000
# 4 0.0000 0.0000 0.0000 22.2558 0.0000 0.0000
# 5 0.0000 0.0000 0.0000 0.0000 22.2558 0.0000
# 6 0.0000 0.0000 0.0000 0.0000 0.0000 20.2994
#
#
#
# Elastic Compliance Matrix: (Units=1/GPa)
#
#
# Indices 1 2 3 4 5 6 
#
# 1 0.015905 -0.008726 -0.002164 0.000000 0.000000 0.000000
# 2 -0.008726 0.015905 -0.002164 0.000000 0.000000 0.000000
# 3 -0.002164 -0.002164 0.011203 0.000000 0.000000 0.000000
# 4 0.000000 0.000000 0.000000 0.044932 0.000000 0.000000
# 5 0.000000 0.000000 0.000000 0.000000 0.044932 0.000000
# 6 0.000000 0.000000 0.000000 0.000000 0.000000 0.049263
#
#
# Mechanical properties :
#
#
# Convention : Reuss Voigt Hill
#
# Bulk Modulus (GPa) = 59.15134 59.79095 59.47114
# Shear Modulus (GPa) = 23.37732 24.95214 24.16473
#
# Velocity S-wave (km/s) = 3.53454 3.65166 3.59358
# Velocity P-wave (km/s) = 6.94753 7.05210 7.00001
#
# Compressibility (1/GPa) = 0.01690579
#
# Stress axis : x y z
#
# Youngs Moduli (GPa) = 62.87232 62.87232 89.26506
#
# Poissons Ratio (x) = 0.54862 0.19315
# Poissons Ratio (y) = 0.54862 0.19315
# Poissons Ratio (z) = 0.13604 0.13604
#
# Static dielectric constant tensor:
#      x y z
#    x 3.347610 0.000000 0.000000 
#    y 0.000000 3.347610 0.000000 
#    z 0.000000 0.000000 3.642690 
# 
# 
# High freq. dielectric constant tensor:
#      x y z
#    x 1.708760 0.000000 0.000000 
#    y 0.000000 1.708760 0.000000 
#    z 0.000000 0.000000 1.745310 
# 
# From -- ./inp_files/9789.got.cif
#   From: 2010.03.12/outbox.cif.g09.slc.cpg/sg194_5_cif.got.tgz:9789.got - 2010.04.01 12:26:19.
