data_PCOD8330344
_publ_section_title
;
Structure prediction by ZEFSAII (Michael W. Deem and Ramdas Pophale) SiO2 
 PCOD8330344
Probable space group: P 63/M M C
;
_chemical_formula_sum "Si O2"
_cell_formula_units_Z 144
_cell_length_a 21.184701
_cell_length_b 21.184701
_cell_length_c 21.936090
_cell_angle_alpha 90.000000
_cell_angle_beta 90.000000
_cell_angle_gamma 120.000000
_cell_volume 8525.787983
_symmetry_space_group_name_H-M "P 63/M M C"
_symmetry_group_IT_number 194
_symmetry_cell_setting 'hexagonal'
loop_
_space_group_symop_operation_xyz
x,y,z
x-y,x,1/2+z
-y,x-y,z
-x,-y,1/2+z
-x+y,-x,z
y,-x+y,1/2+z
x-y,-y,-z
-x,-x+y,-z
y,x,-z
-y,-x,1/2-z
-x+y,y,1/2-z
x,x-y,1/2-z
-x,-y,-z
-x+y,-x,1/2-z
y,-x+y,-z
x,y,1/2-z
x-y,x,-z
-y,x-y,1/2-z
-x+y,y,z
x,x-y,z
-y,-x,z
y,x,1/2+z
x-y,-y,1/2+z
-x,-x+y,1/2+z
loop_
_atom_site_type_symbol
_atom_site_label
_atom_site_fract_x
_atom_site_fract_y
_atom_site_fract_z
Si Si1 0.853700 0.998416 0.884908
Si Si2 0.000000 0.771889 0.500000
Si Si3 0.632864 0.743352 0.068003
Si Si4 0.614419 0.528210 0.496420
Si Si5 0.523420 0.190944 0.250000
Si Si6 0.713586 0.782493 0.316136
Si Si7 0.332458 0.814517 0.616719
O O1 0.866603 0.933302 0.864031
O O2 0.811375 0.013244 0.831038
O O3 0.930513 0.069488 0.899667
O O4 0.804216 0.975803 0.944850
O O5 0.931437 0.693592 0.516366
O O6 0.619172 0.809586 0.076603
O O7 0.660677 0.726939 0.132013
O O8 0.555898 0.675394 0.048563
O O9 0.581185 0.581185 0.500000
O O10 0.553990 0.446011 0.512973
O O11 0.649432 0.529820 0.430213
O O12 0.585620 0.171239 0.250000
O O13 0.555914 0.277957 0.250000
O O14 0.481269 0.160161 0.314998
O O15 0.695458 0.743396 0.250000
O O16 0.700705 0.850353 0.314593
O O17 0.398305 0.796610 0.618038
O O18 0.258528 0.741473 0.596163
#
# Coordination Sequence:
#
# PCOD8330344 Si02
#       7
#    24  12  24  24  12  24  24
#     4  10  18  27  41  63  95 130 163 202 250 300
#     4  10  18  30  44  68  94 122 162 210 246 282
#     4  10  18  31  53  73  91 121 161 199 243 294
#     4  10  20  33  48  68  97 128 158 197 243 289
#     4   8  13  22  40  68 100 132 161 186 216 264
#     4   8  16  30  47  67  89 116 155 201 242 285
#     4   9  16  27  46  72 101 131 162 195 232 279
#
# _framework density 16.889935000000001
#
# number of rings (size 3 to 8) (size 9 to 14) (size 15 to 20)
#    0.000    2.667    0.833    3.417    0.000    1.667 
#    0.000    0.833    1.833    1.833    0.000    0.000 
#    0.000    0.000    0.000    0.000    0.000    0.000 
#
# Total GULP energy -1784234.704929 kJ/mol
# GULP energy per Si atom -12390.518784 kJ/mol
# Density = 1.685149 g / cm^3
# Si number density = 16.889935 Si / 1000 Ang^3
#
#
#
# Elastic Constant Matrix: (Units=GPa)
#
#
# Indices 1 2 3 4 5 6 
#
# 1 72.7560 28.3557 53.6105 0.0000 0.0000 0.0000
# 2 28.3557 72.7560 53.6105 0.0000 0.0000 0.0000
# 3 53.6105 53.6105 140.2297 0.0000 0.0000 0.0000
# 4 0.0000 0.0000 0.0000 19.2887 0.0000 0.0000
# 5 0.0000 0.0000 0.0000 0.0000 19.2887 0.0000
# 6 0.0000 0.0000 0.0000 0.0000 0.0000 22.2002
#
#
#
# Elastic Compliance Matrix: (Units=1/GPa)
#
#
# Indices 1 2 3 4 5 6 
#
# 1 0.019578 -0.002945 -0.006359 0.000000 0.000000 0.000000
# 2 -0.002945 0.019578 -0.006359 0.000000 0.000000 0.000000
# 3 -0.006359 -0.006359 0.011993 0.000000 0.000000 0.000000
# 4 0.000000 0.000000 0.000000 0.051844 0.000000 0.000000
# 5 0.000000 0.000000 0.000000 0.000000 0.051844 0.000000
# 6 0.000000 0.000000 0.000000 0.000000 0.000000 0.045045
#
#
# Mechanical properties :
#
#
# Convention : Reuss Voigt Hill
#
# Bulk Modulus (GPa) = 50.44420 61.87721 56.16070
# Shear Modulus (GPa) = 21.02482 22.16651 21.59567
#
# Velocity S-wave (km/s) = 3.53202 3.62665 3.57965
# Velocity P-wave (km/s) = 6.82384 7.36559 7.09988
#
# Compressibility (1/GPa) = 0.01982389
#
# Stress axis : x y z
#
# Youngs Moduli (GPa) = 51.07828 51.07828 83.38004
#
# Poissons Ratio (x) = 0.15040 0.53021
# Poissons Ratio (y) = 0.15040 0.53021
# Poissons Ratio (z) = 0.32480 0.32480
#
# Static dielectric constant tensor:
#      x y z
#    x 3.031950 0.000000 0.000000 
#    y 0.000000 3.031950 0.000000 
#    z 0.000000 0.000000 3.711210 
# 
# 
# High freq. dielectric constant tensor:
#      x y z
#    x 1.631130 0.000000 0.000000 
#    y 0.000000 1.631130 0.000000 
#    z 0.000000 0.000000 1.653070 
# 
# From -- ./inp_files/9741.got.cif
#   From: 2010.03.12/outbox.cif.g09.slc.cpg/sg194_5_cif.got.tgz:9741.got - 2010.04.01 12:26:19.
