data_PCOD8330084
_publ_section_title
;
Structure prediction by ZEFSAII (Michael W. Deem and Ramdas Pophale) SiO2 
 PCOD8330084
Probable space group: P 63/M C M
;
_chemical_formula_sum "Si O2"
_cell_formula_units_Z 60
_cell_length_a 16.760963
_cell_length_b 16.760963
_cell_length_c 13.633139
_cell_angle_alpha 90.000000
_cell_angle_beta 90.000000
_cell_angle_gamma 120.000000
_cell_volume 3316.839289
_symmetry_space_group_name_H-M "P 63/M C M"
_symmetry_group_IT_number 193
_symmetry_cell_setting 'hexagonal'
loop_
_space_group_symop_operation_xyz
x,y,z
x-y,x,1/2+z
-y,x-y,z
-x,-y,1/2+z
-x+y,-x,z
y,-x+y,1/2+z
x-y,-y,1/2-z
-x,-x+y,1/2-z
y,x,1/2-z
-y,-x,-z
-x+y,y,-z
x,x-y,-z
-x,-y,-z
-x+y,-x,1/2-z
y,-x+y,-z
x,y,1/2-z
x-y,x,-z
-y,x-y,1/2-z
-x+y,y,1/2+z
x,x-y,1/2+z
-y,-x,1/2+z
y,x,z
x-y,-y,z
-x,-x+y,z
loop_
_atom_site_type_symbol
_atom_site_label
_atom_site_fract_x
_atom_site_fract_y
_atom_site_fract_z
Si Si1 0.642584 0.536096 0.485817
Si Si2 0.817611 0.615901 0.365265
Si Si3 0.783091 0.891546 0.500000
O O1 0.572281 0.427719 0.500000
O O2 0.588127 0.588127 0.456112
O O3 0.711734 0.549281 0.397220
O O4 0.698072 0.578257 0.586650
O O5 0.828407 0.616744 0.250000
O O6 0.852010 0.719118 0.403623
O O7 0.847224 0.847224 0.508875
#
# Coordination Sequence:
#
# PCOD8330084 Si02
#       3
#    24  24  12
#     4   9  19  36  55  75 103 137 174 214 257 312
#     4  10  20  35  55  79 106 138 174 219 268 313
#     4  10  21  36  54  78 110 146 182 220 263 314
#
# _framework density 18.089509
#
# number of rings (size 3 to 8) (size 9 to 14) (size 15 to 20)
#    0.000    2.800    0.000    5.000    0.000    8.000 
#    9.600    4.000    0.000    2.400    0.000    0.000 
#    0.000    0.000    0.000    0.000    0.000    0.000 
#
# Total GULP energy -743965.955605 kJ/mol
# GULP energy per Si atom -12399.432593 kJ/mol
# Density = 1.804834 g / cm^3
# Si number density = 18.089509 Si / 1000 Ang^3
#
#
#
# Elastic Constant Matrix: (Units=GPa)
#
#
# Indices 1 2 3 4 5 6 
#
# 1 94.7305 19.7729 0.2412 0.0000 0.0000 0.0000
# 2 19.7729 94.7305 0.2412 0.0000 0.0000 0.0000
# 3 0.2412 0.2412 122.3943 0.0000 0.0000 0.0000
# 4 0.0000 0.0000 0.0000 9.8589 0.0000 0.0000
# 5 0.0000 0.0000 0.0000 0.0000 9.8589 0.0000
# 6 0.0000 0.0000 0.0000 0.0000 0.0000 37.4788
#
#
#
# Elastic Compliance Matrix: (Units=1/GPa)
#
#
# Indices 1 2 3 4 5 6 
#
# 1 0.011037 -0.002304 -0.000017 0.000000 0.000000 0.000000
# 2 -0.002304 0.011037 -0.000017 0.000000 0.000000 0.000000
# 3 -0.000017 -0.000017 0.008170 0.000000 0.000000 0.000000
# 4 0.000000 0.000000 0.000000 0.101431 0.000000 0.000000
# 5 0.000000 0.000000 0.000000 0.000000 0.101431 0.000000
# 6 0.000000 0.000000 0.000000 0.000000 0.000000 0.026682
#
#
# Mechanical properties :
#
#
# Convention : Reuss Voigt Hill
#
# Bulk Modulus (GPa) = 39.11077 39.15178 39.13127
# Shear Modulus (GPa) = 18.31589 30.87932 24.59761
#
# Velocity S-wave (km/s) = 3.18546 4.13610 3.69151
# Velocity P-wave (km/s) = 5.93272 6.67084 6.31258
#
# Compressibility (1/GPa) = 0.02556841
#
# Stress axis : x y z
#
# Youngs Moduli (GPa) = 90.60302 90.60302 122.39324
#
# Poissons Ratio (x) = 0.20872 0.00211
# Poissons Ratio (y) = 0.20872 0.00211
# Poissons Ratio (z) = 0.00156 0.00156
#
# Static dielectric constant tensor:
#      x y z
#    x 3.454250 0.000000 0.000000 
#    y 0.000000 3.454250 0.000000 
#    z 0.000000 0.000000 3.090130 
# 
# 
# High freq. dielectric constant tensor:
#      x y z
#    x 1.708930 0.000000 0.000000 
#    y 0.000000 1.708930 0.000000 
#    z 0.000000 0.000000 1.678260 
# 
# From -- ./inp_files/1913.got.cif
#   From: 2010.03.12/outbox.cif.g09.slc.cpg/sg193_1_cif.got.tgz:1913.got - 2010.04.01 12:20:39.
