data_PCOD8330758
_publ_section_title
;
Structure prediction by ZEFSAII (Michael W. Deem and Ramdas Pophale) SiO2 
 PCOD8330758
Probable space group: P 63/M M C
;
_chemical_formula_sum "Si O2"
_cell_formula_units_Z 144
_cell_length_a 21.952855
_cell_length_b 21.952855
_cell_length_c 18.971631
_cell_angle_alpha 90.000000
_cell_angle_beta 90.000000
_cell_angle_gamma 120.000000
_cell_volume 7918.033200
_symmetry_space_group_name_H-M "P 63/M M C"
_symmetry_group_IT_number 194
_symmetry_cell_setting 'hexagonal'
loop_
_space_group_symop_operation_xyz
x,y,z
x-y,x,1/2+z
-y,x-y,z
-x,-y,1/2+z
-x+y,-x,z
y,-x+y,1/2+z
x-y,-y,-z
-x,-x+y,-z
y,x,-z
-y,-x,1/2-z
-x+y,y,1/2-z
x,x-y,1/2-z
-x,-y,-z
-x+y,-x,1/2-z
y,-x+y,-z
x,y,1/2-z
x-y,x,-z
-y,x-y,1/2-z
-x+y,y,z
x,x-y,z
-y,-x,z
y,x,1/2+z
x-y,-y,1/2+z
-x,-x+y,1/2+z
loop_
_atom_site_type_symbol
_atom_site_label
_atom_site_fract_x
_atom_site_fract_y
_atom_site_fract_z
Si Si1 0.471422 0.804731 0.029666
Si Si2 0.405177 0.452331 0.827419
Si Si3 0.660518 0.610323 0.933888
Si Si4 0.530847 0.197979 0.363578
Si Si5 0.290831 0.217588 0.669842
Si Si6 0.134434 0.134119 0.333234
O O1 0.403254 0.806508 0.061264
O O2 0.474664 0.737332 0.061442
O O3 0.542679 0.876838 0.045309
O O4 0.463078 0.796294 0.946931
O O5 0.398322 0.418909 0.750000
O O6 0.471380 0.528621 0.833542
O O7 0.415770 0.406744 0.885179
O O8 0.338114 0.462439 0.841547
O O9 0.728227 0.660918 0.888611
O O10 0.651785 0.651785 0.000000
O O11 0.602633 0.205266 0.332146
O O12 0.520571 0.260286 0.332090
O O13 0.309297 0.248172 0.750000
O O14 0.298692 0.149346 0.665275
O O15 0.211678 0.198204 0.649406
O O16 0.125162 0.125756 0.250000
O O17 0.061492 0.122984 0.366025
O O18 0.150947 0.075474 0.365036
#
# Coordination Sequence:
#
# PCOD8330758 Si02
#       6
#    24  24  24  24  24  24
#     4  10  20  35  57  83 109 136 173 222 274 322
#     4  10  21  36  53  76 106 138 177 220 261 315
#     4  12  22  35  55  80 109 143 181 220 268 327
#     4   9  17  31  51  76 105 138 174 214 260 311
#     4   9  19  36  55  76 106 144 187 232 275 324
#     4   8  13  24  46  75 103 131 168 216 267 316
#
# _framework density 18.186335
#
# number of rings (size 3 to 8) (size 9 to 14) (size 15 to 20)
#    0.000    2.333    1.667    3.000    0.000    3.000 
#    0.000    2.500    0.000    3.000    0.000    0.000 
#    0.000   11.333    0.000    0.000    0.000    0.000 
#
# Total GULP energy -1784577.178322 kJ/mol
# GULP energy per Si atom -12392.897072 kJ/mol
# Density = 1.814494 g / cm^3
# Si number density = 18.186335 Si / 1000 Ang^3
#
#
#
# Elastic Constant Matrix: (Units=GPa)
#
#
# Indices 1 2 3 4 5 6 
#
# 1 107.4486 53.8223 33.0982 0.0000 0.0000 0.0000
# 2 53.8223 107.4486 33.0982 0.0000 0.0000 0.0000
# 3 33.0982 33.0982 66.7895 0.0000 0.0000 0.0000
# 4 0.0000 0.0000 0.0000 11.6641 0.0000 0.0000
# 5 0.0000 0.0000 0.0000 0.0000 11.6641 0.0000
# 6 0.0000 0.0000 0.0000 0.0000 0.0000 26.8131
#
#
#
# Elastic Compliance Matrix: (Units=1/GPa)
#
#
# Indices 1 2 3 4 5 6 
#
# 1 0.013216 -0.005432 -0.003857 0.000000 0.000000 0.000000
# 2 -0.005432 0.013216 -0.003857 0.000000 0.000000 0.000000
# 3 -0.003857 -0.003857 0.018796 0.000000 0.000000 0.000000
# 4 0.000000 0.000000 0.000000 0.085733 0.000000 0.000000
# 5 0.000000 0.000000 0.000000 0.000000 0.085733 0.000000
# 6 0.000000 0.000000 0.000000 0.000000 0.000000 0.037295
#
#
# Mechanical properties :
#
#
# Convention : Reuss Voigt Hill
#
# Bulk Modulus (GPa) = 52.81529 57.96933 55.39231
# Shear Modulus (GPa) = 17.44631 20.80613 19.12622
#
# Velocity S-wave (km/s) = 3.10063 3.38605 3.24648
# Velocity P-wave (km/s) = 6.47478 6.87252 6.67661
#
# Compressibility (1/GPa) = 0.01893391
#
# Stress axis : x y z
#
# Youngs Moduli (GPa) = 75.66671 75.66671 53.20380
#
# Poissons Ratio (x) = 0.41100 0.20523
# Poissons Ratio (y) = 0.41100 0.20523
# Poissons Ratio (z) = 0.29188 0.29188
#
# Static dielectric constant tensor:
#      x y z
#    x 3.546110 0.000000 0.000000 
#    y 0.000000 3.546110 0.000000 
#    z 0.000000 0.000000 3.155750 
# 
# 
# High freq. dielectric constant tensor:
#      x y z
#    x 1.707400 0.000000 0.000000 
#    y 0.000000 1.707400 0.000000 
#    z 0.000000 0.000000 1.677860 
# 
# From -- ./inp_files/8242.got.cif
#   From: 2010.03.12/outbox.cif.g09.slc.cpg/sg194_5_cif.got.tgz:8242.got - 2010.04.01 12:26:19.
