data_PCOD8330165
_publ_section_title
;
Structure prediction by ZEFSAII (Michael W. Deem and Ramdas Pophale) SiO2 
 PCOD8330165
Probable space group: P 63/M C M
;
_chemical_formula_sum "Si O2"
_cell_formula_units_Z 120
_cell_length_a 13.906246
_cell_length_b 13.906246
_cell_length_c 35.812396
_cell_angle_alpha 90.000000
_cell_angle_beta 90.000000
_cell_angle_gamma 120.000000
_cell_volume 5997.687383
_symmetry_space_group_name_H-M "P 63/M C M"
_symmetry_group_IT_number 193
_symmetry_cell_setting 'hexagonal'
loop_
_space_group_symop_operation_xyz
x,y,z
x-y,x,1/2+z
-y,x-y,z
-x,-y,1/2+z
-x+y,-x,z
y,-x+y,1/2+z
x-y,-y,1/2-z
-x,-x+y,1/2-z
y,x,1/2-z
-y,-x,-z
-x+y,y,-z
x,x-y,-z
-x,-y,-z
-x+y,-x,1/2-z
y,-x+y,-z
x,y,1/2-z
x-y,x,-z
-y,x-y,1/2-z
-x+y,y,1/2+z
x,x-y,1/2+z
-y,-x,1/2+z
y,x,z
x-y,-y,z
-x,-x+y,z
loop_
_atom_site_type_symbol
_atom_site_label
_atom_site_fract_x
_atom_site_fract_y
_atom_site_fract_z
Si Si1 0.587924 0.124307 0.175379
Si Si2 0.578241 0.815539 0.792622
Si Si3 0.317069 0.446910 0.398024
Si Si4 0.871284 0.743344 0.355534
Si Si5 0.462162 0.331099 0.481524
O O1 0.475761 0.120784 0.186623
O O2 0.684131 0.193631 0.205430
O O3 0.630658 0.174895 0.133635
O O4 0.568047 0.000000 0.175728
O O5 0.605941 0.854471 0.750000
O O6 0.692406 0.848680 0.813770
O O7 0.395383 0.395383 0.400935
O O8 0.193332 0.354459 0.385509
O O9 0.316490 0.492738 0.438981
O O10 0.800822 0.800822 0.366429
O O11 0.000000 0.834826 0.357047
O O12 0.575202 0.424799 0.500000
O O13 0.420115 0.210058 0.500000
O O14 0.366123 0.366123 0.484516
#
# Coordination Sequence:
#
# PCOD8330165 Si02
#       5
#    24  24  24  24  24
#     4  10  21  37  55  74 103 141 176 219 271 321
#     4  11  22  35  54  81 108 138 182 232 284 342
#     4   8  18  37  56  79 109 140 182 227 267 323
#     4  10  21  37  57  80 110 150 193 236 280 330
#     4  10  21  37  59  88 121 154 188 232 288 351
#
# _framework density 20.007712999999999
#
# number of rings (size 3 to 8) (size 9 to 14) (size 15 to 20)
#    0.000    2.200    0.000    3.800    0.000    8.000 
#    0.000    2.000    0.000    1.400    0.000    0.000 
#    0.000    0.000    0.000    0.000    0.000    0.000 
#
# Total GULP energy -1487555.887544 kJ/mol
# GULP energy per Si atom -12396.299063 kJ/mol
# Density = 1.996217 g / cm^3
# Si number density = 20.007713 Si / 1000 Ang^3
#
#
#
# Elastic Constant Matrix: (Units=GPa)
#
#
# Indices 1 2 3 4 5 6 
#
# 1 79.9947 20.0638 44.8488 0.0000 0.0000 0.0000
# 2 20.0638 79.9947 44.8488 0.0000 0.0000 0.0000
# 3 44.8488 44.8488 169.5254 0.0000 0.0000 0.0000
# 4 0.0000 0.0000 0.0000 19.8849 0.0000 0.0000
# 5 0.0000 0.0000 0.0000 0.0000 19.8849 0.0000
# 6 0.0000 0.0000 0.0000 0.0000 0.0000 29.9655
#
#
#
# Elastic Compliance Matrix: (Units=1/GPa)
#
#
# Indices 1 2 3 4 5 6 
#
# 1 0.014894 -0.001792 -0.003466 0.000000 0.000000 0.000000
# 2 -0.001792 0.014894 -0.003466 0.000000 0.000000 0.000000
# 3 -0.003466 -0.003466 0.007733 0.000000 0.000000 0.000000
# 4 0.000000 0.000000 0.000000 0.050289 0.000000 0.000000
# 5 0.000000 0.000000 0.000000 0.000000 0.050289 0.000000
# 6 0.000000 0.000000 0.000000 0.000000 0.000000 0.033372
#
#
# Mechanical properties :
#
#
# Convention : Reuss Voigt Hill
#
# Bulk Modulus (GPa) = 49.82259 61.00419 55.41339
# Shear Modulus (GPa) = 25.56115 28.59729 27.07922
#
# Velocity S-wave (km/s) = 3.57818 3.78473 3.68290
# Velocity P-wave (km/s) = 6.48282 7.04666 6.77061
#
# Compressibility (1/GPa) = 0.02007122
#
# Stress axis : x y z
#
# Youngs Moduli (GPa) = 67.14309 67.14309 129.32059
#
# Poissons Ratio (x) = 0.12034 0.44823
# Poissons Ratio (y) = 0.12034 0.44823
# Poissons Ratio (z) = 0.23272 0.23272
#
# Static dielectric constant tensor:
#      x y z
#    x 3.544230 0.000000 0.000000 
#    y 0.000000 3.544230 0.000000 
#    z 0.000000 0.000000 3.921770 
# 
# 
# High freq. dielectric constant tensor:
#      x y z
#    x 1.774510 0.000000 0.000000 
#    y 0.000000 1.774510 0.000000 
#    z 0.000000 0.000000 1.779620 
# 
# From -- ./inp_files/8967.got.cif
#   From: 2010.03.12/outbox.cif.g09.slc.cpg/sg193_5_cif.got.tgz:8967.got - 2010.04.01 12:20:39.
