data_PCOD8330786
_publ_section_title
;
Structure prediction by ZEFSAII (Michael W. Deem and Ramdas Pophale) SiO2 
 PCOD8330786
Probable space group: P 63/M M C
;
_chemical_formula_sum "Si O2"
_cell_formula_units_Z 136
_cell_length_a 28.006562
_cell_length_b 28.006562
_cell_length_c 10.605430
_cell_angle_alpha 90.000000
_cell_angle_beta 90.000000
_cell_angle_gamma 120.000000
_cell_volume 7204.079758
_symmetry_space_group_name_H-M "P 63/M M C"
_symmetry_group_IT_number 194
_symmetry_cell_setting 'hexagonal'
loop_
_space_group_symop_operation_xyz
x,y,z
x-y,x,1/2+z
-y,x-y,z
-x,-y,1/2+z
-x+y,-x,z
y,-x+y,1/2+z
x-y,-y,-z
-x,-x+y,-z
y,x,-z
-y,-x,1/2-z
-x+y,y,1/2-z
x,x-y,1/2-z
-x,-y,-z
-x+y,-x,1/2-z
y,-x+y,-z
x,y,1/2-z
x-y,x,-z
-y,x-y,1/2-z
-x+y,y,z
x,x-y,z
-y,-x,z
y,x,1/2+z
x-y,-y,1/2+z
-x,-x+y,1/2+z
loop_
_atom_site_type_symbol
_atom_site_label
_atom_site_fract_x
_atom_site_fract_y
_atom_site_fract_z
Si Si1 0.961752 0.704246 0.389857
Si Si2 0.596332 0.743843 0.604749
Si Si3 0.333334 0.666668 0.597630
Si Si4 0.050839 0.525420 0.100899
Si Si5 0.497895 0.354865 0.528005
Si Si6 0.778430 0.446171 0.750000
Si Si7 0.145526 0.182372 0.611290
Si Si8 0.605542 0.394459 0.391439
O O1 0.980314 0.694997 0.250000
O O2 0.898466 0.659556 0.414925
O O3 0.966202 0.762762 0.394808
O O4 0.000000 0.700645 0.500000
O O5 0.578422 0.730420 0.750000
O O6 0.588158 0.794079 0.557609
O O7 0.561862 0.689329 0.521603
O O8 0.333334 0.666667 0.750000
O O9 0.270950 0.635475 0.538219
O O10 0.031468 0.515734 0.250000
O O11 0.087944 0.496949 0.076940
O O12 0.000000 0.500000 0.000000
O O13 0.516119 0.326653 0.632851
O O14 0.541005 0.367688 0.416352
O O15 0.715256 0.430511 0.750000
O O16 0.783454 0.391727 0.750000
O O17 0.141032 0.141032 0.500000
O O18 0.138251 0.154562 0.750000
O O19 0.099341 0.198682 0.587554
O O20 0.614873 0.385128 0.250000
#
# Coordination Sequence:
#
# PCOD8330786 Si02
#       8
#    24  24   4  12  24  12  24  12
#     4   9  18  35  56  80 112 145 186 236 283 338
#     4  10  21  36  58  86 115 151 193 233 293 362
#     4   9  21  33  48  82 116 151 180 228 292 356
#     4  11  24  46  69  88 116 158 206 264 308 360
#     4  11  22  41  59  82 120 147 190 246 291 351
#     4  12  23  40  62  88 120 156 192 230 298 364
#     4   9  17  30  51  77 107 144 181 224 275 323
#     4  10  21  34  54  80 113 142 178 228 284 342
#
# _framework density 18.878191000000001
#
# number of rings (size 3 to 8) (size 9 to 14) (size 15 to 20)
#    0.000    1.941    2.647    1.676    2.471    5.294 
#    1.588    1.765    0.000    1.235    0.000    0.000 
#    0.000    0.000    0.000    0.000    0.000    0.000 
#
# Total GULP energy -1685519.153776 kJ/mol
# GULP energy per Si atom -12393.523190 kJ/mol
# Density = 1.883522 g / cm^3
# Si number density = 18.878191 Si / 1000 Ang^3
#
#
#
# Elastic Constant Matrix: (Units=GPa)
#
#
# Indices 1 2 3 4 5 6 
#
# 1 68.3859 14.9787 42.8076 0.0000 0.0000 0.0000
# 2 14.9787 68.3861 42.8076 0.0000 0.0000 0.0000
# 3 42.8076 42.8076 113.2851 0.0000 0.0000 0.0000
# 4 0.0000 0.0000 0.0000 27.6995 0.0000 0.0000
# 5 0.0000 0.0000 0.0000 0.0000 27.6995 0.0000
# 6 0.0000 0.0000 0.0000 0.0000 0.0000 26.7036
#
#
#
# Elastic Compliance Matrix: (Units=1/GPa)
#
#
# Indices 1 2 3 4 5 6 
#
# 1 0.019164 0.000439 -0.007407 0.000000 0.000000 0.000000
# 2 0.000439 0.019163 -0.007407 0.000000 0.000000 0.000000
# 3 -0.007407 -0.007407 0.014425 0.000000 0.000000 0.000000
# 4 0.000000 0.000000 0.000000 0.036102 0.000000 0.000000
# 5 0.000000 0.000000 0.000000 0.000000 0.036102 0.000000
# 6 0.000000 0.000000 0.000000 0.000000 0.000000 0.037448
#
#
# Mechanical properties :
#
#
# Convention : Reuss Voigt Hill
#
# Bulk Modulus (GPa) = 41.66412 50.13833 45.90122
# Shear Modulus (GPa) = 25.10603 26.38474 25.74539
#
# Velocity S-wave (km/s) = 3.65073 3.74255 3.69692
# Velocity P-wave (km/s) = 6.31572 6.72994 6.52612
#
# Compressibility (1/GPa) = 0.02400147
#
# Stress axis : x y z
#
# Youngs Moduli (GPa) = 52.18252 52.18276 69.32191
#
# Poissons Ratio (x) = -0.02293 0.51350
# Poissons Ratio (y) = -0.02293 0.51350
# Poissons Ratio (z) = 0.38654 0.38654
#
# Static dielectric constant tensor:
#      x y z
#    x 3.330790 0.000000 0.000000 
#    y 0.000000 3.330790 0.000000 
#    z 0.000000 0.000000 3.897580 
# 
# 
# High freq. dielectric constant tensor:
#      x y z
#    x 1.722190 0.000000 0.000000 
#    y 0.000000 1.722190 0.000000 
#    z 0.000000 0.000000 1.743820 
# 
# From -- ./inp_files/3502.got.cif
#   From: 2010.03.12/outbox.cif.g09.slc.cpg/sg194_2_cif.got.tgz:3502.got - 2010.04.01 12:26:19.
