data_PCOD8330218
_publ_section_title
;
Structure prediction by ZEFSAII (Michael W. Deem and Ramdas Pophale) SiO2 
 PCOD8330218
Probable space group: P 63/M C M
;
_chemical_formula_sum "Si O2"
_cell_formula_units_Z 114
_cell_length_a 20.406603
_cell_length_b 20.406603
_cell_length_c 14.590602
_cell_angle_alpha 90.000000
_cell_angle_beta 90.000000
_cell_angle_gamma 120.000000
_cell_volume 5261.932515
_symmetry_space_group_name_H-M "P 63/M C M"
_symmetry_group_IT_number 193
_symmetry_cell_setting 'hexagonal'
loop_
_space_group_symop_operation_xyz
x,y,z
x-y,x,1/2+z
-y,x-y,z
-x,-y,1/2+z
-x+y,-x,z
y,-x+y,1/2+z
x-y,-y,1/2-z
-x,-x+y,1/2-z
y,x,1/2-z
-y,-x,-z
-x+y,y,-z
x,x-y,-z
-x,-y,-z
-x+y,-x,1/2-z
y,-x+y,-z
x,y,1/2-z
x-y,x,-z
-y,x-y,1/2-z
-x+y,y,1/2+z
x,x-y,1/2+z
-y,-x,1/2+z
y,x,z
x-y,-y,z
-x,-x+y,z
loop_
_atom_site_type_symbol
_atom_site_label
_atom_site_fract_x
_atom_site_fract_y
_atom_site_fract_z
Si Si1 0.000000 0.326951 0.069762
Si Si2 0.421361 0.584837 0.392324
Si Si3 0.753051 0.916005 0.250000
Si Si4 0.000000 0.766217 0.750000
Si Si5 0.749906 0.239940 0.149821
Si Si6 0.000000 0.523932 0.897034
Si Si7 0.879410 0.660737 0.433438
O O1 0.000000 0.276258 0.156020
O O2 0.000000 0.397903 0.113979
O O3 0.932260 0.287862 0.998047
O O4 0.420792 0.579209 0.500000
O O5 0.471414 0.671719 0.366909
O O6 0.337959 0.553210 0.354234
O O7 0.458926 0.536775 0.350196
O O8 0.774384 0.849647 0.250000
O O9 0.705628 0.913806 0.160220
O O10 0.828431 0.000000 0.250000
O O11 0.769013 0.222311 0.250000
O O12 0.772197 0.193442 0.082244
O O13 0.000000 0.500000 0.000000
O O14 0.854042 0.708084 0.500000
#
# Coordination Sequence:
#
# PCOD8330218 Si02
#       7
#    12  24  12   6  24  12  24
#     4  12  24  43  75 102 146 192 237 303 363 432
#     4  11  23  43  66  93 132 187 243 304 374 435
#     4  12  26  48  74 113 145 184 237 287 362 447
#     4  12  28  48  76 116 148 190 244 292 360 456
#     4  12  25  42  64  98 140 187 252 307 370 445
#     4  10  22  42  66  99 136 181 248 302 370 431
#     4  12  23  42  71 103 142 188 237 296 359 431
#
# _framework density 21.665044000000002
#
# number of rings (size 3 to 8) (size 9 to 14) (size 15 to 20)
#    0.000    0.421    4.211    6.737    0.000    0.000 
#    2.211    1.053    0.000    0.000    0.000    2.211 
#    0.000    0.000    0.000    0.000    0.000    0.000 
#
# Total GULP energy -1412414.221086 kJ/mol
# GULP energy per Si atom -12389.598431 kJ/mol
# Density = 2.161573 g / cm^3
# Si number density = 21.665044 Si / 1000 Ang^3
#
#
#
# Elastic Constant Matrix: (Units=GPa)
#
#
# Indices 1 2 3 4 5 6 
#
# 1 105.7513 35.5925 28.9760 0.0000 0.0000 0.0000
# 2 35.5925 105.7513 28.9760 0.0000 0.0000 0.0000
# 3 28.9760 28.9760 133.3240 0.0000 0.0000 0.0000
# 4 0.0000 0.0000 0.0000 -26.4618 0.0000 0.0000
# 5 0.0000 0.0000 0.0000 0.0000 -26.4618 0.0000
# 6 0.0000 0.0000 0.0000 0.0000 0.0000 35.0794
#
#
#
# Elastic Compliance Matrix: (Units=1/GPa)
#
#
# Indices 1 2 3 4 5 6 
#
# 1 0.011010 -0.003243 -0.001688 0.000000 0.000000 0.000000
# 2 -0.003243 0.011010 -0.001688 0.000000 0.000000 0.000000
# 3 -0.001688 -0.001688 0.008234 0.000000 0.000000 0.000000
# 4 0.000000 0.000000 0.000000 -0.037790 0.000000 0.000000
# 5 0.000000 0.000000 0.000000 0.000000 -0.037790 0.000000
# 6 0.000000 0.000000 0.000000 0.000000 0.000000 0.028507
#
#
# Mechanical properties :
#
#
# Convention : Reuss Voigt Hill
#
# Bulk Modulus (GPa) = 58.76763 59.10174 58.93469
# Shear Modulus (GPa) = 2390.61056 13.18329 1201.89693
#
# Velocity S-wave (km/s) = 33.25413 2.46947 23.57896
# Velocity P-wave (km/s) = 38.75092 5.95567 27.72277
#
# Compressibility (1/GPa) = 0.01701617
#
# Stress axis : x y z
#
# Youngs Moduli (GPa) = 90.82472 90.82472 121.44362
#
# Poissons Ratio (x) = 0.29456 0.20500
# Poissons Ratio (y) = 0.29456 0.20500
# Poissons Ratio (z) = 0.15332 0.15332
#
# Static dielectric constant tensor:
#      x y z
#    x 4.210380 0.000000 0.000000 
#    y 0.000000 4.210380 0.000000 
#    z 0.000000 0.000000 4.336660 
# 
# 
# High freq. dielectric constant tensor:
#      x y z
#    x 1.851320 0.000000 0.000000 
#    y 0.000000 1.851320 0.000000 
#    z 0.000000 0.000000 1.872930 
# 
# From -- ./inp_files/3857.got.cif
#   From: 2010.03.12/outbox.cif.g09.slc.cpg/sg193_2_cif.got.tgz:3857.got - 2010.04.01 12:20:39.
