data_PCOD8330876
_publ_section_title
;
Structure prediction by ZEFSAII (Michael W. Deem and Ramdas Pophale) SiO2 
 PCOD8330876
Probable space group: I 2 3
;
_chemical_formula_sum "Si O2"
_cell_formula_units_Z 120
_cell_length_a 17.839516
_cell_length_b 17.839516
_cell_length_c 17.839516
_cell_angle_alpha 90.000000
_cell_angle_beta 90.000000
_cell_angle_gamma 90.000000
_cell_volume 5677.396195
_symmetry_space_group_name_H-M "I 2 3"
_symmetry_group_IT_number 197
_symmetry_cell_setting 'cubic'
loop_
_space_group_symop_operation_xyz
x,y,z
z,x,y
y,z,x
-y,-z,x
z,-x,-y
-y,z,-x
-z,-x,y
-z,x,-y
y,-z,-x
-x,-y,z
x,-y,-z
-x,y,-z
1/2+x,1/2+y,1/2+z
1/2+z,1/2+x,1/2+y
1/2+y,1/2+z,1/2+x
1/2-y,1/2-z,1/2+x
1/2+z,1/2-x,1/2-y
1/2-y,1/2+z,1/2-x
1/2-z,1/2-x,1/2+y
1/2-z,1/2+x,1/2-y
1/2+y,1/2-z,1/2-x
1/2-x,1/2-y,1/2+z
1/2+x,1/2-y,1/2-z
1/2-x,1/2+y,1/2-z
loop_
_atom_site_type_symbol
_atom_site_label
_atom_site_fract_x
_atom_site_fract_y
_atom_site_fract_z
Si Si1 0.419694 0.312227 0.795401
Si Si2 0.416260 0.913045 0.019130
Si Si3 0.055888 0.934530 0.822881
Si Si4 0.679377 0.078607 0.542155
Si Si5 0.696268 0.586931 0.835684
O O1 0.421365 0.392802 0.752834
O O2 0.483917 0.304465 0.855793
O O3 0.423331 0.242976 0.739247
O O4 0.339924 0.328352 0.837367
O O5 0.403184 0.905574 0.108120
O O6 0.500000 0.883312 0.000000
O O7 0.351615 0.866357 0.977121
O O8 0.407892 0.000000 0.000000
O O9 0.024314 0.867352 0.876002
O O10 0.000000 0.000000 0.801706
O O11 0.749194 0.076458 0.595654
O O12 0.666495 0.000000 0.500000
#
# Coordination Sequence:
#
# PCOD8330876 Si02
#       5
#    24  24  24  24  24
#     4  12  26  46  68 101 148 191 229 299 367 431
#     4  11  22  47  77 107 144 180 245 311 363 441
#     4  10  21  40  67 104 138 189 231 286 348 421
#     4  12  28  44  74 109 136 188 249 303 372 442
#     4  12  27  46  71 104 148 189 240 298 370 441
#
# _framework density 21.136448999999999
#
# number of rings (size 3 to 8) (size 9 to 14) (size 15 to 20)
#    0.400    0.200    6.000    1.400   11.200    0.000 
#    0.000    0.000    0.000    0.800    0.000    0.000 
#    0.000    0.000    0.000    0.000    0.000    0.000 
#
# Total GULP energy -743460.080400 kJ/mol
# GULP energy per Si atom -12391.001340 kJ/mol
# Density = 2.108834 g / cm^3
# Si number density = 21.136449 Si / 1000 Ang^3
#
#
#
# Elastic Constant Matrix: (Units=GPa)
#
#
# Indices 1 2 3 4 5 6 
#
# 1 106.9706 47.1308 47.1308 0.0000 0.0000 0.0000
# 2 47.1308 106.9706 47.1309 0.0000 0.0000 0.0000
# 3 47.1308 47.1309 106.9706 0.0000 0.0000 0.0000
# 4 0.0000 0.0000 0.0000 20.1653 0.0000 0.0000
# 5 0.0000 0.0000 0.0000 0.0000 20.1653 0.0000
# 6 0.0000 0.0000 0.0000 0.0000 0.0000 20.1653
#
#
#
# Elastic Compliance Matrix: (Units=1/GPa)
#
#
# Indices 1 2 3 4 5 6 
#
# 1 0.012797 -0.003914 -0.003914 0.000000 0.000000 0.000000
# 2 -0.003914 0.012797 -0.003914 0.000000 0.000000 0.000000
# 3 -0.003914 -0.003914 0.012797 0.000000 0.000000 0.000000
# 4 0.000000 0.000000 0.000000 0.049590 0.000000 0.000000
# 5 0.000000 0.000000 0.000000 0.000000 0.049590 0.000000
# 6 0.000000 0.000000 0.000000 0.000000 0.000000 0.049590
#
#
# Mechanical properties :
#
#
# Convention : Reuss Voigt Hill
#
# Bulk Modulus (GPa) = 67.07742 67.07742 67.07742
# Shear Modulus (GPa) = 23.18944 24.06714 23.62829
#
# Velocity S-wave (km/s) = 3.31589 3.37806 3.34712
# Velocity P-wave (km/s) = 6.81649 6.85707 6.83681
#
# Compressibility (1/GPa) = 0.01490815
#
# Stress axis : x y z
#
# Youngs Moduli (GPa) = 78.14127 78.14127 78.14127
#
# Poissons Ratio (x) = 0.30584 0.30584
# Poissons Ratio (y) = 0.30584 0.30584
# Poissons Ratio (z) = 0.30584 0.30584
#
# Static dielectric constant tensor:
#      x y z
#    x 4.463130 0.000000 0.000000 
#    y 0.000000 4.463130 0.000000 
#    z 0.000000 0.000000 4.463130 
# 
# 
# High freq. dielectric constant tensor:
#      x y z
#    x 1.832290 0.000000 0.000000 
#    y 0.000000 1.832290 0.000000 
#    z 0.000000 0.000000 1.832290 
# 
# From -- ./inp_files/595.got.cif
#   From: 2010.03.12/outbox.cif.g09.slc.cpg/sg197_cif.got.tgz:595.got - 2010.04.01 12:33:32.
