data_PCOD8330892
_publ_section_title
;
Structure prediction by ZEFSAII (Michael W. Deem and Ramdas Pophale) SiO2 
 PCOD8330892
Probable space group: P 21 3
;
_chemical_formula_sum "Si O2"
_cell_formula_units_Z 52
_cell_length_a 13.621888
_cell_length_b 13.621888
_cell_length_c 13.621888
_cell_angle_alpha 90.000000
_cell_angle_beta 90.000000
_cell_angle_gamma 90.000000
_cell_volume 2527.620771
_symmetry_space_group_name_H-M "P 21 3"
_symmetry_group_IT_number 198
_symmetry_cell_setting 'cubic'
loop_
_space_group_symop_operation_xyz
x,y,z
z,x,y
y,z,x
1/2-y,-z,1/2+x
1/2+z,1/2-x,-y
-y,1/2+z,1/2-x
1/2-z,-x,1/2+y
-z,1/2+x,1/2-y
1/2+y,1/2-z,-x
1/2-x,-y,1/2+z
1/2+x,1/2-y,-z
-x,1/2+y,1/2-z
loop_
_atom_site_type_symbol
_atom_site_label
_atom_site_fract_x
_atom_site_fract_y
_atom_site_fract_z
Si Si1 0.331246 0.831246 0.668756
Si Si2 0.464132 0.964132 0.535870
Si Si3 0.206801 0.793201 0.293201
Si Si4 0.882475 0.825485 0.477953
Si Si5 0.425466 0.074534 0.925467
Si Si6 0.996256 0.098875 0.682186
Si Si7 0.367873 0.421762 0.834872
O O1 0.397536 0.897535 0.602466
O O2 0.393673 0.817349 0.770034
O O3 0.435963 0.939454 0.423211
O O4 0.140486 0.859514 0.359514
O O5 0.317751 0.821726 0.315366
O O6 0.816703 0.900159 0.541055
O O7 0.937426 0.751208 0.552889
O O8 0.963897 0.887284 0.420978
O O9 0.995428 0.163505 0.781907
O O10 0.982137 0.175333 0.591410
#
# Coordination Sequence:
#
# PCOD8330892 Si02
#       7
#     4   4   4  12   4  12  12
#     4   9  21  36  57 100 137 148 210 264 315 388
#     4   9  21  42  58  91 132 160 202 273 321 367
#     4  12  21  30  67  97 120 163 214 252 313 398
#     4  11  20  39  64  93 129 166 207 267 323 383
#     4  12  21  36  66  94 128 172 204 270 334 374
#     4  10  22  44  60  89 129 168 219 263 315 385
#     4  11  22  41  64  94 127 167 216 265 317 393
#
# _framework density 20.572709
#
# number of rings (size 3 to 8) (size 9 to 14) (size 15 to 20)
#    0.462    0.923    4.615    4.154    0.000    0.000 
#    4.154    0.000    0.000    0.000    0.000    0.000 
#    0.000    0.000    0.000    0.000    0.000    0.000 
#
# Total GULP energy -644253.111679 kJ/mol
# GULP energy per Si atom -12389.482917 kJ/mol
# Density = 2.052588 g / cm^3
# Si number density = 20.572709 Si / 1000 Ang^3
#
#
#
# Elastic Constant Matrix: (Units=GPa)
#
#
# Indices 1 2 3 4 5 6 
#
# 1 89.7097 20.1643 20.1652 0.0000 0.0000 0.0000
# 2 20.1643 89.7072 20.1638 0.0000 0.0000 0.0000
# 3 20.1652 20.1638 89.7095 0.0000 0.0000 0.0000
# 4 0.0000 0.0000 0.0000 25.9985 0.0000 0.0000
# 5 0.0000 0.0000 0.0000 0.0000 26.0005 0.0000
# 6 0.0000 0.0000 0.0000 0.0000 0.0000 25.9993
#
#
#
# Elastic Compliance Matrix: (Units=1/GPa)
#
#
# Indices 1 2 3 4 5 6 
#
# 1 0.012149 -0.002230 -0.002230 0.000000 0.000000 0.000000
# 2 -0.002230 0.012150 -0.002230 0.000000 0.000000 0.000000
# 3 -0.002230 -0.002230 0.012149 0.000000 0.000000 0.000000
# 4 0.000000 0.000000 0.000000 0.038464 0.000000 0.000000
# 5 0.000000 0.000000 0.000000 0.000000 0.038461 0.000000
# 6 0.000000 0.000000 0.000000 0.000000 0.000000 0.038463
#
#
# Mechanical properties :
#
#
# Convention : Reuss Voigt Hill
#
# Bulk Modulus (GPa) = 43.34590 43.34590 43.34590
# Shear Modulus (GPa) = 28.91769 29.50851 29.21310
#
# Velocity S-wave (km/s) = 3.75325 3.79139 3.77237
# Velocity P-wave (km/s) = 6.31647 6.34678 6.33164
#
# Compressibility (1/GPa) = 0.02307023
#
# Stress axis : x y z
#
# Youngs Moduli (GPa) = 82.30804 82.30630 82.30807
#
# Poissons Ratio (x) = 0.18352 0.18353
# Poissons Ratio (y) = 0.18353 0.18352
# Poissons Ratio (z) = 0.18353 0.18352
#
# Static dielectric constant tensor:
#      x y z
#    x 3.870090 0.000000 0.000000 
#    y 0.000000 3.870130 0.000000 
#    z 0.000000 0.000000 3.870140 
# 
# 
# High freq. dielectric constant tensor:
#      x y z
#    x 1.795650 0.000000 0.000000 
#    y 0.000000 1.795650 0.000000 
#    z 0.000000 0.000000 1.795650 
# 
# From -- ./inp_files/274.got.cif
#   From: 2010.03.12/outbox.cif.g09.slc.cpg/sg198_cif.got.tgz:274.got - 2010.04.01 12:33:50.
