data_PCOD8330151
_publ_section_title
;
Structure prediction by ZEFSAII (Michael W. Deem and Ramdas Pophale) SiO2 
 PCOD8330151
Probable space group: P 63/M C M
;
_chemical_formula_sum "Si O2"
_cell_formula_units_Z 144
_cell_length_a 22.204694
_cell_length_b 22.204694
_cell_length_c 19.384277
_cell_angle_alpha 90.000000
_cell_angle_beta 90.000000
_cell_angle_gamma 120.000000
_cell_volume 8276.940326
_symmetry_space_group_name_H-M "P 63/M C M"
_symmetry_group_IT_number 193
_symmetry_cell_setting 'hexagonal'
loop_
_space_group_symop_operation_xyz
x,y,z
x-y,x,1/2+z
-y,x-y,z
-x,-y,1/2+z
-x+y,-x,z
y,-x+y,1/2+z
x-y,-y,1/2-z
-x,-x+y,1/2-z
y,x,1/2-z
-y,-x,-z
-x+y,y,-z
x,x-y,-z
-x,-y,-z
-x+y,-x,1/2-z
y,-x+y,-z
x,y,1/2-z
x-y,x,-z
-y,x-y,1/2-z
-x+y,y,1/2+z
x,x-y,1/2+z
-y,-x,1/2+z
y,x,z
x-y,-y,z
-x,-x+y,z
loop_
_atom_site_type_symbol
_atom_site_label
_atom_site_fract_x
_atom_site_fract_y
_atom_site_fract_z
Si Si1 0.373083 0.917072 0.327048
Si Si2 0.078955 0.862154 0.925230
Si Si3 0.304119 0.917085 0.580181
Si Si4 0.801648 0.080577 0.173930
Si Si5 0.078924 0.721583 0.931427
Si Si6 0.521580 0.082497 0.925006
O O1 0.356148 0.885213 0.250000
O O2 0.300468 0.887716 0.369154
O O3 0.419463 0.890465 0.366439
O O4 0.413573 0.000000 0.322353
O O5 0.131319 0.912395 0.866899
O O6 0.082403 0.792910 0.914532
O O7 0.000000 0.846173 0.913597
O O8 0.104100 0.895901 0.000000
O O9 0.238712 0.885877 0.633044
O O10 0.272990 0.885019 0.504967
O O11 0.360004 0.893154 0.598123
O O12 0.338853 0.000000 0.579508
O O13 0.823976 0.115270 0.250000
O O14 0.748404 0.000000 0.182840
O O15 0.000000 0.659175 0.938508
O O16 0.481916 0.000000 0.929653
O O17 0.556288 0.112577 0.000000
#
# Coordination Sequence:
#
# PCOD8330151 Si02
#       6
#    24  24  24  24  24  24
#     4   9  16  24  35  58  92 124 155 191 220 247
#     4  11  21  34  55  76  93 118 158 206 262 328
#     4   9  15  26  44  64  88 120 158 191 226 274
#     4  10  21  36  52  71  95 121 155 206 262 319
#     4   9  16  27  44  64  87 118 152 190 234 285
#     4   9  14  21  37  59  86 124 163 188 210 246
#
# _framework density 17.397734
#
# number of rings (size 3 to 8) (size 9 to 14) (size 15 to 20)
#    0.000    2.500    3.333    0.500    0.000    1.667 
#    0.000    5.000    0.000    3.000    0.000    0.000 
#    0.000    0.000    0.000    1.000    7.333    5.000 
#
# Total GULP energy -1784359.795027 kJ/mol
# GULP energy per Si atom -12391.387465 kJ/mol
# Density = 1.735814 g / cm^3
# Si number density = 17.397734 Si / 1000 Ang^3
#
#
#
# Elastic Constant Matrix: (Units=GPa)
#
#
# Indices 1 2 3 4 5 6 
#
# 1 51.2027 6.4598 29.6691 0.0000 0.0000 0.0000
# 2 6.4598 51.2027 29.6691 0.0000 0.0000 0.0000
# 3 29.6691 29.6691 158.9075 0.0000 0.0000 0.0000
# 4 0.0000 0.0000 0.0000 18.2555 0.0000 0.0000
# 5 0.0000 0.0000 0.0000 0.0000 18.2555 0.0000
# 6 0.0000 0.0000 0.0000 0.0000 0.0000 22.3715
#
#
#
# Elastic Compliance Matrix: (Units=1/GPa)
#
#
# Indices 1 2 3 4 5 6 
#
# 1 0.021908 -0.000442 -0.004008 0.000000 0.000000 0.000000
# 2 -0.000442 0.021908 -0.004008 0.000000 0.000000 0.000000
# 3 -0.004008 -0.004008 0.007790 0.000000 0.000000 0.000000
# 4 0.000000 0.000000 0.000000 0.054778 0.000000 0.000000
# 5 0.000000 0.000000 0.000000 0.000000 0.054778 0.000000
# 6 0.000000 0.000000 0.000000 0.000000 0.000000 0.044700
#
#
# Mechanical properties :
#
#
# Convention : Reuss Voigt Hill
#
# Bulk Modulus (GPa) = 28.82578 43.65653 36.24115
# Shear Modulus (GPa) = 21.33641 24.81080 23.07361
#
# Velocity S-wave (km/s) = 3.50578 3.78046 3.64571
# Velocity P-wave (km/s) = 5.74387 6.64858 6.21271
#
# Compressibility (1/GPa) = 0.03469117
#
# Stress axis : x y z
#
# Youngs Moduli (GPa) = 45.64474 45.64474 128.37620
#
# Poissons Ratio (x) = 0.02016 0.51453
# Poissons Ratio (y) = 0.02016 0.51453
# Poissons Ratio (z) = 0.18294 0.18294
#
# Static dielectric constant tensor:
#      x y z
#    x 3.018000 0.000000 0.000000 
#    y 0.000000 3.018000 0.000000 
#    z 0.000000 0.000000 3.569030 
# 
# 
# High freq. dielectric constant tensor:
#      x y z
#    x 1.631080 0.000000 0.000000 
#    y 0.000000 1.631080 0.000000 
#    z 0.000000 0.000000 1.683030 
# 
# From -- ./inp_files/5593.got.cif
#   From: 2010.03.12/outbox.cif.g09.slc.cpg/sg193_3_cif.got.tgz:5593.got - 2010.04.01 12:20:39.
