data_PCOD8330182
_publ_section_title
;
Structure prediction by ZEFSAII (Michael W. Deem and Ramdas Pophale) SiO2 
 PCOD8330182
Probable space group: P 63/M C M
;
_chemical_formula_sum "Si O2"
_cell_formula_units_Z 144
_cell_length_a 32.268315
_cell_length_b 32.268315
_cell_length_c 8.910446
_cell_angle_alpha 90.000000
_cell_angle_beta 90.000000
_cell_angle_gamma 120.000000
_cell_volume 8034.940220
_symmetry_space_group_name_H-M "P 63/M C M"
_symmetry_group_IT_number 193
_symmetry_cell_setting 'hexagonal'
loop_
_space_group_symop_operation_xyz
x,y,z
x-y,x,1/2+z
-y,x-y,z
-x,-y,1/2+z
-x+y,-x,z
y,-x+y,1/2+z
x-y,-y,1/2-z
-x,-x+y,1/2-z
y,x,1/2-z
-y,-x,-z
-x+y,y,-z
x,x-y,-z
-x,-y,-z
-x+y,-x,1/2-z
y,-x+y,-z
x,y,1/2-z
x-y,x,-z
-y,x-y,1/2-z
-x+y,y,1/2+z
x,x-y,1/2+z
-y,-x,1/2+z
y,x,z
x-y,-y,z
-x,-x+y,z
loop_
_atom_site_type_symbol
_atom_site_label
_atom_site_fract_x
_atom_site_fract_y
_atom_site_fract_z
Si Si1 0.611420 0.556388 0.425488
Si Si2 0.479924 0.196257 0.425743
Si Si3 0.141859 0.527705 0.928642
Si Si4 0.860502 0.806438 0.573560
Si Si5 0.053202 0.285707 0.927306
Si Si6 0.719580 0.103181 0.578572
O O1 0.610462 0.543643 0.250000
O O2 0.574736 0.574736 0.463414
O O3 0.596417 0.509086 0.521818
O O4 0.664809 0.597113 0.470865
O O5 0.491804 0.245902 0.500000
O O6 0.492795 0.203229 0.250000
O O7 0.511980 0.178277 0.508127
O O8 0.424151 0.157825 0.450299
O O9 0.144904 0.530955 0.750000
O O10 0.158037 0.579019 0.000000
O O11 0.911147 0.822294 0.500000
O O12 0.866029 0.805505 0.750000
O O13 0.845002 0.845002 0.527195
O O14 0.820195 0.753830 0.515803
O O15 0.053295 0.286208 0.750000
O O16 0.000000 0.271210 0.986027
O O17 0.092638 0.337567 0.983591
O O18 0.726566 0.094039 0.750000
#
# Coordination Sequence:
#
# PCOD8330182 Si02
#       6
#    24  24  24  24  24  24
#     4   9  18  33  51  73 105 143 182 224 264 302
#     4  10  21  38  57  79 106 136 171 211 258 309
#     4  11  22  37  57  80 106 137 173 214 261 313
#     4   9  19  35  52  72  98 126 159 201 248 298
#     4   9  18  31  46  67  99 137 174 212 251 291
#     4   9  18  31  48  72 103 138 176 216 254 294
#
# _framework density 17.921726
#
# number of rings (size 3 to 8) (size 9 to 14) (size 15 to 20)
#    0.000    2.500    0.000    4.500    0.000    6.667 
#    0.000    5.000    0.000    0.500    0.000    2.333 
#    0.000    0.000    0.000    0.000    0.000    0.000 
#
# Total GULP energy -1785634.194961 kJ/mol
# GULP energy per Si atom -12400.237465 kJ/mol
# Density = 1.788093 g / cm^3
# Si number density = 17.921726 Si / 1000 Ang^3
#
#
#
# Elastic Constant Matrix: (Units=GPa)
#
#
# Indices 1 2 3 4 5 6 
#
# 1 100.9311 67.4972 52.1551 0.0000 0.0000 0.0000
# 2 67.4972 100.9311 52.1551 0.0000 0.0000 0.0000
# 3 52.1551 52.1551 91.9920 0.0000 0.0000 0.0000
# 4 0.0000 0.0000 0.0000 31.1747 0.0000 0.0000
# 5 0.0000 0.0000 0.0000 0.0000 31.1747 0.0000
# 6 0.0000 0.0000 0.0000 0.0000 0.0000 16.7170
#
#
#
# Elastic Compliance Matrix: (Units=1/GPa)
#
#
# Indices 1 2 3 4 5 6 
#
# 1 0.019530 -0.010380 -0.005188 0.000000 0.000000 0.000000
# 2 -0.010380 0.019530 -0.005188 0.000000 0.000000 0.000000
# 3 -0.005188 -0.005188 0.016753 0.000000 0.000000 0.000000
# 4 0.000000 0.000000 0.000000 0.032077 0.000000 0.000000
# 5 0.000000 0.000000 0.000000 0.000000 0.032077 0.000000
# 6 0.000000 0.000000 0.000000 0.000000 0.000000 0.059819
#
#
# Mechanical properties :
#
#
# Convention : Reuss Voigt Hill
#
# Bulk Modulus (GPa) = 69.91871 70.82987 70.37429
# Shear Modulus (GPa) = 22.11762 23.94974 23.03368
#
# Velocity S-wave (km/s) = 3.51682 3.65958 3.58891
# Velocity P-wave (km/s) = 7.45579 7.58052 7.51841
#
# Compressibility (1/GPa) = 0.01430232
#
# Stress axis : x y z
#
# Youngs Moduli (GPa) = 51.20366 51.20366 59.69157
#
# Poissons Ratio (x) = 0.53149 0.30966
# Poissons Ratio (y) = 0.53149 0.30966
# Poissons Ratio (z) = 0.26563 0.26563
#
# Static dielectric constant tensor:
#      x y z
#    x 3.292480 0.000000 0.000000 
#    y 0.000000 3.292480 0.000000 
#    z 0.000000 0.000000 3.214990 
# 
# 
# High freq. dielectric constant tensor:
#      x y z
#    x 1.685720 0.000000 0.000000 
#    y 0.000000 1.685720 0.000000 
#    z 0.000000 0.000000 1.692220 
# 
# From -- ./inp_files/1549.got.cif
#   From: 2010.03.12/outbox.cif.g09.slc.cpg/sg193_1_cif.got.tgz:1549.got - 2010.04.01 12:20:39.
