data_PCOD8330940
_publ_section_title
;
Structure prediction by ZEFSAII (Michael W. Deem and Ramdas Pophale) SiO2 
 PCOD8330940
Probable space group: I M 3
;
_chemical_formula_sum "Si O2"
_cell_formula_units_Z 352
_cell_length_a 26.458126
_cell_length_b 26.458126
_cell_length_c 26.458126
_cell_angle_alpha 90.000000
_cell_angle_beta 90.000000
_cell_angle_gamma 90.000000
_cell_volume 18521.546275
_symmetry_space_group_name_H-M "I M 3"
_symmetry_group_IT_number 204
_symmetry_cell_setting 'cubic'
loop_
_space_group_symop_operation_xyz
x,y,z
z,x,y
y,z,x
-y,-z,x
z,-x,-y
-y,z,-x
-z,-x,y
-z,x,-y
y,-z,-x
-x,-y,z
x,-y,-z
-x,y,-z
-x,-y,-z
-z,-x,-y
-y,-z,-x
y,z,-x
-z,x,y
y,-z,x
z,x,-y
z,-x,y
-y,z,x
x,y,-z
-x,y,z
x,-y,z
1/2+x,1/2+y,1/2+z
1/2+z,1/2+x,1/2+y
1/2+y,1/2+z,1/2+x
1/2-y,1/2-z,1/2+x
1/2+z,1/2-x,1/2-y
1/2-y,1/2+z,1/2-x
1/2-z,1/2-x,1/2+y
1/2-z,1/2+x,1/2-y
1/2+y,1/2-z,1/2-x
1/2-x,1/2-y,1/2+z
1/2+x,1/2-y,1/2-z
1/2-x,1/2+y,1/2-z
1/2-x,1/2-y,1/2-z
1/2-z,1/2-x,1/2-y
1/2-y,1/2-z,1/2-x
1/2+y,1/2+z,1/2-x
1/2-z,1/2+x,1/2+y
1/2+y,1/2-z,1/2+x
1/2+z,1/2+x,1/2-y
1/2+z,1/2-x,1/2+y
1/2-y,1/2+z,1/2+x
1/2+x,1/2+y,1/2-z
1/2-x,1/2+y,1/2+z
1/2+x,1/2-y,1/2+z
loop_
_atom_site_type_symbol
_atom_site_label
_atom_site_fract_x
_atom_site_fract_y
_atom_site_fract_z
Si Si1 0.786211 0.441803 0.192200
Si Si2 0.889424 0.377774 0.642885
Si Si3 0.941534 0.803192 0.315789
Si Si4 0.056790 0.862030 0.220572
Si Si5 0.556515 0.279685 0.364713
Si Si6 0.808574 0.875614 0.706375
Si Si7 0.441055 0.058042 0.058748
Si Si8 0.215778 0.784223 0.784224
O O1 0.766037 0.500000 0.191541
O O2 0.828028 0.435988 0.148277
O O3 0.813090 0.428183 0.244663
O O4 0.743379 0.399419 0.185424
O O5 0.869806 0.424488 0.676165
O O6 0.843402 0.337973 0.641951
O O7 0.908226 0.400878 0.589751
O O8 0.916536 0.834084 0.268620
O O9 0.000000 0.812183 0.309470
O O10 0.085698 0.912591 0.206074
O O11 0.059248 0.825949 0.173073
O O12 0.000000 0.877963 0.233522
O O13 0.500000 0.267641 0.381887
O O14 0.577745 0.229945 0.338432
O O15 0.801771 0.831905 0.749522
O O16 0.500000 0.066272 0.070891
O O17 0.425992 0.000000 0.072232
O O18 0.429980 0.068489 0.000000
O O19 0.250000 0.750000 0.750000
#
# Coordination Sequence:
#
# PCOD8330940 Si02
#       8
#    48  48  48  48  48  48  48  16
#     4  11  23  39  56  77 113 156 194 234 286 346
#     4  12  22  36  58  87 114 145 190 240 296 348
#     4  10  20  37  55  76 110 150 188 230 284 347
#     4  10  20  37  58  80 113 156 196 240 295 357
#     4  11  21  36  58  83 113 155 198 241 300 358
#     4  12  22  36  56  84 120 153 196 245 291 342
#     4   9  20  41  66  89 114 147 192 248 310 376
#     4  12  24  39  60  87 120 165 213 249 283 347
#
# _framework density 19.004892999999999
#
# number of rings (size 3 to 8) (size 9 to 14) (size 15 to 20)
#    0.000    1.227    2.727    5.182    0.000    1.364 
#    0.000    0.000    0.000    0.000    0.000    5.727 
#    0.000    0.000    0.000    8.455    0.000    0.000 
#
# Total GULP energy -2181869.737289 kJ/mol
# GULP energy per Si atom -12396.987144 kJ/mol
# Density = 1.896164 g / cm^3
# Si number density = 19.004893 Si / 1000 Ang^3
#
#
#
# Elastic Constant Matrix: (Units=GPa)
#
#
# Indices 1 2 3 4 5 6 
#
# 1 42.1428 19.2456 19.2457 0.0000 0.0000 0.0000
# 2 19.2456 42.1437 19.2452 0.0000 0.0000 0.0000
# 3 19.2457 19.2452 42.1414 0.0000 0.0000 0.0000
# 4 0.0000 0.0000 0.0000 25.7010 0.0000 0.0000
# 5 0.0000 0.0000 0.0000 0.0000 25.7017 0.0000
# 6 0.0000 0.0000 0.0000 0.0000 0.0000 25.7012
#
#
#
# Elastic Compliance Matrix: (Units=1/GPa)
#
#
# Indices 1 2 3 4 5 6 
#
# 1 0.033250 -0.010424 -0.010425 0.000000 0.000000 0.000000
# 2 -0.010424 0.033248 -0.010424 0.000000 0.000000 0.000000
# 3 -0.010425 -0.010424 0.033251 0.000000 0.000000 0.000000
# 4 0.000000 0.000000 0.000000 0.038909 0.000000 0.000000
# 5 0.000000 0.000000 0.000000 0.000000 0.038908 0.000000
# 6 0.000000 0.000000 0.000000 0.000000 0.000000 0.038909
#
#
# Mechanical properties :
#
#
# Convention : Reuss Voigt Hill
#
# Bulk Modulus (GPa) = 26.87788 26.87788 26.87788
# Shear Modulus (GPa) = 17.15736 20.00019 18.57877
#
# Velocity S-wave (km/s) = 3.00790 3.24755 3.13002
# Velocity P-wave (km/s) = 5.12217 5.31370 5.21881
#
# Compressibility (1/GPa) = 0.03720531
#
# Stress axis : x y z
#
# Youngs Moduli (GPa) = 30.07539 30.07664 30.07444
#
# Poissons Ratio (x) = 0.31350 0.31352
# Poissons Ratio (y) = 0.31349 0.31348
# Poissons Ratio (z) = 0.31353 0.31351
#
# Static dielectric constant tensor:
#      x y z
#    x 3.727560 0.000000 0.000000 
#    y 0.000000 3.727410 0.000000 
#    z 0.000000 0.000000 3.727580 
# 
# 
# High freq. dielectric constant tensor:
#      x y z
#    x 1.739420 0.000000 0.000000 
#    y 0.000000 1.739420 0.000000 
#    z 0.000000 0.000000 1.739420 
# 
# From -- ./inp_files/691.got.cif
#   From: 2010.03.12/outbox.cif.g09.slc.cpg/sg204_cif.got.tgz:691.got - 2010.03.30 09:02:39.
