data_PCOD8330997
_publ_section_title
;
Structure prediction by ZEFSAII (Michael W. Deem and Ramdas Pophale) SiO2 
 PCOD8330997
Probable space group: I 4 3 2
;
_chemical_formula_sum "Si O2"
_cell_formula_units_Z 352
_cell_length_a 25.564862
_cell_length_b 25.564862
_cell_length_c 25.564862
_cell_angle_alpha 90.000000
_cell_angle_beta 90.000000
_cell_angle_gamma 90.000000
_cell_volume 16708.226661
_symmetry_space_group_name_H-M "I 4 3 2"
_symmetry_group_IT_number 211
_symmetry_cell_setting 'cubic'
loop_
_space_group_symop_operation_xyz
x,y,z
-y,x,z
-x,-y,z
y,-x,z
x,-z,y
x,-y,-z
x,z,-y
z,y,-x
-x,y,-z
-z,y,x
z,x,y
y,z,x
-y,-z,x
z,-x,-y
-y,z,-x
-z,-x,y
-z,x,-y
y,-z,-x
y,x,-z
-y,-x,-z
-x,z,y
-x,-z,-y
z,-y,x
-z,-y,-x
1/2+x,1/2+y,1/2+z
1/2-y,1/2+x,1/2+z
1/2-x,1/2-y,1/2+z
1/2+y,1/2-x,1/2+z
1/2+x,1/2-z,1/2+y
1/2+x,1/2-y,1/2-z
1/2+x,1/2+z,1/2-y
1/2+z,1/2+y,1/2-x
1/2-x,1/2+y,1/2-z
1/2-z,1/2+y,1/2+x
1/2+z,1/2+x,1/2+y
1/2+y,1/2+z,1/2+x
1/2-y,1/2-z,1/2+x
1/2+z,1/2-x,1/2-y
1/2-y,1/2+z,1/2-x
1/2-z,1/2-x,1/2+y
1/2-z,1/2+x,1/2-y
1/2+y,1/2-z,1/2-x
1/2+y,1/2+x,1/2-z
1/2-y,1/2-x,1/2-z
1/2-x,1/2+z,1/2+y
1/2-x,1/2-z,1/2-y
1/2+z,1/2-y,1/2+x
1/2-z,1/2-y,1/2-x
loop_
_atom_site_type_symbol
_atom_site_label
_atom_site_fract_x
_atom_site_fract_y
_atom_site_fract_z
Si Si1 0.760139 0.498461 0.084776
Si Si2 0.667350 0.415098 0.497455
Si Si3 0.555652 0.977409 0.368064
Si Si4 0.937244 0.234483 0.844283
Si Si5 0.485374 0.184438 0.314418
Si Si6 0.522470 0.584170 0.873252
Si Si7 0.754458 0.171478 0.108415
Si Si8 0.714841 0.285161 0.285161
O O1 0.750000 0.441432 0.058569
O O2 0.822241 0.506776 0.096946
O O3 0.724318 0.505625 0.135754
O O4 0.750000 0.544398 0.044398
O O5 0.674189 0.450033 0.446335
O O6 0.610287 0.389714 0.500000
O O7 0.713635 0.373363 0.489594
O O8 0.542390 0.917128 0.375655
O O9 0.500000 0.000000 0.351674
O O10 0.577066 0.000000 0.422935
O O11 0.961612 0.280576 0.808095
O O12 0.914133 0.185312 0.811923
O O13 0.891164 0.253857 0.883597
O O14 0.478993 0.175416 0.376951
O O15 0.430599 0.212819 0.300986
O O16 0.463431 0.562816 0.875140
O O17 0.750115 0.198254 0.165123
O O18 0.750000 0.250000 0.250000
#
# Coordination Sequence:
#
# PCOD8330997 Si02
#       8
#    48  48  48  48  48  48  48  16
#     4  11  23  44  65  89 130 175 211 258 319 391
#     4  11  22  35  56  87 125 171 218 269 327 395
#     4  12  22  38  64  90 120 163 218 265 311 380
#     4  11  22  42  68  94 127 168 221 282 333 396
#     4  12  23  40  67  96 135 172 215 270 335 403
#     4  11  23  36  57  93 131 168 214 271 327 383
#     4  10  23  42  69  97 125 169 221 274 341 399
#     4   9  21  45  69  93 129 165 217 293 343 396
#
# _framework density 21.067467000000001
#
# number of rings (size 3 to 8) (size 9 to 14) (size 15 to 20)
#    0.000    0.955    4.091    4.227    0.000    1.773 
#    0.000    4.091    0.000    1.091    0.000    0.000 
#    0.000    0.000    0.000    0.000    0.000    0.000 
#
# Total GULP energy -2180533.562313 kJ/mol
# GULP energy per Si atom -12389.395240 kJ/mol
# Density = 2.101952 g / cm^3
# Si number density = 21.067467 Si / 1000 Ang^3
#
#
#
# Elastic Constant Matrix: (Units=GPa)
#
#
# Indices 1 2 3 4 5 6 
#
# 1 102.2457 46.2400 46.2403 0.0000 0.0000 0.0000
# 2 46.2400 102.2457 46.2403 0.0000 0.0000 0.0000
# 3 46.2403 46.2403 102.2458 0.0000 0.0000 0.0000
# 4 0.0000 0.0000 0.0000 39.5401 0.0000 0.0000
# 5 0.0000 0.0000 0.0000 0.0000 39.5401 0.0000
# 6 0.0000 0.0000 0.0000 0.0000 0.0000 39.5399
#
#
#
# Elastic Compliance Matrix: (Units=1/GPa)
#
#
# Indices 1 2 3 4 5 6 
#
# 1 0.013615 -0.004240 -0.004240 0.000000 0.000000 0.000000
# 2 -0.004240 0.013615 -0.004240 0.000000 0.000000 0.000000
# 3 -0.004240 -0.004240 0.013615 0.000000 0.000000 0.000000
# 4 0.000000 0.000000 0.000000 0.025291 0.000000 0.000000
# 5 0.000000 0.000000 0.000000 0.000000 0.025291 0.000000
# 6 0.000000 0.000000 0.000000 0.000000 0.000000 0.025291
#
#
# Mechanical properties :
#
#
# Convention : Reuss Voigt Hill
#
# Bulk Modulus (GPa) = 64.90870 64.90870 64.90870
# Shear Modulus (GPa) = 33.94572 34.92512 34.43542
#
# Velocity S-wave (km/s) = 4.01844 4.07600 4.04732
# Velocity P-wave (km/s) = 7.23929 7.28206 7.26071
#
# Compressibility (1/GPa) = 0.01540625
#
# Stress axis : x y z
#
# Youngs Moduli (GPa) = 73.44638 73.44638 73.44628
#
# Poissons Ratio (x) = 0.31141 0.31141
# Poissons Ratio (y) = 0.31141 0.31141
# Poissons Ratio (z) = 0.31141 0.31141
#
# Static dielectric constant tensor:
#      x y z
#    x 3.971980 0.000000 0.000000 
#    y 0.000000 3.971980 0.000000 
#    z 0.000000 0.000000 3.971990 
# 
# 
# High freq. dielectric constant tensor:
#      x y z
#    x 1.825530 0.000000 0.000000 
#    y 0.000000 1.825530 0.000000 
#    z 0.000000 0.000000 1.825530 
# 
# From -- ./inp_files/839.got.cif
#   From: 2010.03.12/outbox.cif.g09.slc.cpg/sg211_cif.got.tgz:839.got - 2010.03.30 09:04:38.
