data_PCOD8330582
_publ_section_title
;
Structure prediction by ZEFSAII (Michael W. Deem and Ramdas Pophale) SiO2 
 PCOD8330582
Probable space group: P 63/M M C
;
_chemical_formula_sum "Si O2"
_cell_formula_units_Z 120
_cell_length_a 17.334962
_cell_length_b 17.334962
_cell_length_c 23.324127
_cell_angle_alpha 90.000000
_cell_angle_beta 90.000000
_cell_angle_gamma 120.000000
_cell_volume 6069.903926
_symmetry_space_group_name_H-M "P 63/M M C"
_symmetry_group_IT_number 194
_symmetry_cell_setting 'hexagonal'
loop_
_space_group_symop_operation_xyz
x,y,z
x-y,x,1/2+z
-y,x-y,z
-x,-y,1/2+z
-x+y,-x,z
y,-x+y,1/2+z
x-y,-y,-z
-x,-x+y,-z
y,x,-z
-y,-x,1/2-z
-x+y,y,1/2-z
x,x-y,1/2-z
-x,-y,-z
-x+y,-x,1/2-z
y,-x+y,-z
x,y,1/2-z
x-y,x,-z
-y,x-y,1/2-z
-x+y,y,z
x,x-y,z
-y,-x,z
y,x,1/2+z
x-y,-y,1/2+z
-x,-x+y,1/2+z
loop_
_atom_site_type_symbol
_atom_site_label
_atom_site_fract_x
_atom_site_fract_y
_atom_site_fract_z
Si Si1 0.002016 0.168970 0.868884
Si Si2 0.667376 0.512680 0.317180
Si Si3 0.026879 0.800823 0.250000
Si Si4 0.431736 0.036708 0.863069
Si Si5 0.671306 0.923428 0.047098
Si Si6 0.304517 0.435006 0.250000
O O1 0.090698 0.181397 0.898832
O O2 0.030230 0.222976 0.808362
O O3 0.956221 0.204262 0.910443
O O4 0.934973 0.065028 0.857333
O O5 0.672253 0.534176 0.250000
O O6 0.760639 0.521277 0.338518
O O7 0.587716 0.412285 0.329332
O O8 0.649011 0.584980 0.349292
O O9 0.093897 0.906104 0.250000
O O10 0.082993 0.752548 0.250000
O O11 0.514456 0.028911 0.885582
O O12 0.409252 0.084043 0.914660
O O13 0.464054 0.099681 0.807019
O O14 0.649291 0.824646 0.023679
O O15 0.696917 0.000000 0.000000
O O16 0.237855 0.475709 0.250000
#
# Coordination Sequence:
#
# PCOD8330582 Si02
#       6
#    24  24  12  24  24  12
#     4  10  19  32  51  79 115 155 196 239 286 339
#     4   9  17  30  50  81 122 163 199 236 286 350
#     4   9  17  30  50  77 111 150 186 226 280 337
#     4  11  22  38  61  89 120 153 192 240 293 352
#     4  11  24  42  62  84 111 150 198 246 295 346
#     4  11  19  36  60  87 122 158 192 230 283 347
#
# _framework density 19.769670000000001
#
# number of rings (size 3 to 8) (size 9 to 14) (size 15 to 20)
#    0.000    1.800    3.000    2.200    0.000    2.800 
#    0.000    1.000    0.000    8.800    0.000    1.400 
#    0.000    0.000    0.000    0.000    0.000    0.000 
#
# Total GULP energy -1486824.478263 kJ/mol
# GULP energy per Si atom -12390.203986 kJ/mol
# Density = 1.972467 g / cm^3
# Si number density = 19.769670 Si / 1000 Ang^3
#
#
#
# Elastic Constant Matrix: (Units=GPa)
#
#
# Indices 1 2 3 4 5 6 
#
# 1 76.9557 34.8750 22.4537 0.0000 0.0000 0.0000
# 2 34.8750 76.9557 22.4537 0.0000 0.0000 0.0000
# 3 22.4537 22.4537 78.1936 0.0000 0.0000 0.0000
# 4 0.0000 0.0000 0.0000 33.8945 0.0000 0.0000
# 5 0.0000 0.0000 0.0000 0.0000 33.8945 0.0000
# 6 0.0000 0.0000 0.0000 0.0000 0.0000 21.0403
#
#
#
# Elastic Compliance Matrix: (Units=1/GPa)
#
#
# Indices 1 2 3 4 5 6 
#
# 1 0.016936 -0.006828 -0.002902 0.000000 0.000000 0.000000
# 2 -0.006828 0.016936 -0.002902 0.000000 0.000000 0.000000
# 3 -0.002902 -0.002902 0.014456 0.000000 0.000000 0.000000
# 4 0.000000 0.000000 0.000000 0.029503 0.000000 0.000000
# 5 0.000000 0.000000 0.000000 0.000000 0.029503 0.000000
# 6 0.000000 0.000000 0.000000 0.000000 0.000000 0.047528
#
#
# Mechanical properties :
#
#
# Convention : Reuss Voigt Hill
#
# Bulk Modulus (GPa) = 43.36309 43.51888 43.44099
# Shear Modulus (GPa) = 26.62197 27.92068 27.27133
#
# Velocity S-wave (km/s) = 3.67359 3.76213 3.71813
# Velocity P-wave (km/s) = 6.32262 6.39783 6.36034
#
# Compressibility (1/GPa) = 0.02306108
#
# Stress axis : x y z
#
# Youngs Moduli (GPa) = 59.04668 59.04668 69.17688
#
# Poissons Ratio (x) = 0.40318 0.20078
# Poissons Ratio (y) = 0.40318 0.20078
# Poissons Ratio (z) = 0.17138 0.17138
#
# Static dielectric constant tensor:
#      x y z
#    x 3.756210 0.000000 0.000000 
#    y 0.000000 3.756210 0.000000 
#    z 0.000000 0.000000 3.505620 
# 
# 
# High freq. dielectric constant tensor:
#      x y z
#    x 1.766210 0.000000 0.000000 
#    y 0.000000 1.766210 0.000000 
#    z 0.000000 0.000000 1.743810 
# 
# From -- ./inp_files/9438.got.cif
#   From: 2010.03.12/outbox.cif.g09.slc.cpg/sg194_5_cif.got.tgz:9438.got - 2010.04.01 12:26:19.
