data_PCOD8330230
_publ_section_title
;
Structure prediction by ZEFSAII (Michael W. Deem and Ramdas Pophale) SiO2 
 PCOD8330230
Probable space group: P 63/M C M
;
_chemical_formula_sum "Si O2"
_cell_formula_units_Z 72
_cell_length_a 17.170963
_cell_length_b 17.170963
_cell_length_c 15.404137
_cell_angle_alpha 90.000000
_cell_angle_beta 90.000000
_cell_angle_gamma 120.000000
_cell_volume 3933.302145
_symmetry_space_group_name_H-M "P 63/M C M"
_symmetry_group_IT_number 193
_symmetry_cell_setting 'hexagonal'
loop_
_space_group_symop_operation_xyz
x,y,z
x-y,x,1/2+z
-y,x-y,z
-x,-y,1/2+z
-x+y,-x,z
y,-x+y,1/2+z
x-y,-y,1/2-z
-x,-x+y,1/2-z
y,x,1/2-z
-y,-x,-z
-x+y,y,-z
x,x-y,-z
-x,-y,-z
-x+y,-x,1/2-z
y,-x+y,-z
x,y,1/2-z
x-y,x,-z
-y,x-y,1/2-z
-x+y,y,1/2+z
x,x-y,1/2+z
-y,-x,1/2+z
y,x,z
x-y,-y,z
-x,-x+y,z
loop_
_atom_site_type_symbol
_atom_site_label
_atom_site_fract_x
_atom_site_fract_y
_atom_site_fract_z
Si Si1 0.322752 0.216422 0.750000
Si Si2 0.387905 0.781551 0.096233
Si Si3 0.895046 0.790359 0.901309
Si Si4 0.498590 0.106010 0.250000
O O1 0.273912 0.273912 0.750000
O O2 0.294387 0.155276 0.836692
O O3 0.429450 0.285359 0.750000
O O4 0.279770 0.714699 0.107985
O O5 0.422510 0.860566 0.165701
O O6 0.412420 0.824839 0.000000
O O7 0.841072 0.841072 0.878427
O O8 0.000000 0.861386 0.887487
O O9 0.876798 0.753596 0.000000
O O10 0.448083 0.000000 0.250000
#
# Coordination Sequence:
#
# PCOD8330230 Si02
#       4
#    12  24  24  12
#     4   9  19  31  41  65 101 138 167 197 259 324
#     4   8  17  36  61  83 100 131 179 216 251 290
#     4   9  16  28  46  66  90 127 181 233 265 294
#     4  11  20  31  53  81 113 142 161 201 262 322
#
# _framework density 18.305230000000002
#
# number of rings (size 3 to 8) (size 9 to 14) (size 15 to 20)
#    0.667    2.333    0.000    1.833    0.000    2.000 
#    6.000    1.667    0.000    8.000    0.000    0.000 
#    0.000    0.000    0.000    0.000    0.000    0.000 
#
# Total GULP energy -892200.178588 kJ/mol
# GULP energy per Si atom -12391.669147 kJ/mol
# Density = 1.826357 g / cm^3
# Si number density = 18.305230 Si / 1000 Ang^3
#
#
#
# Elastic Constant Matrix: (Units=GPa)
#
#
# Indices 1 2 3 4 5 6 
#
# 1 57.0107 22.8817 52.2000 0.0000 0.0000 0.0000
# 2 22.8817 57.0107 52.2000 0.0000 0.0000 0.0000
# 3 52.2000 52.2000 162.7726 0.0000 0.0000 0.0000
# 4 0.0000 0.0000 0.0000 6.2021 0.0000 0.0000
# 5 0.0000 0.0000 0.0000 0.0000 6.2021 0.0000
# 6 0.0000 0.0000 0.0000 0.0000 0.0000 17.0645
#
#
#
# Elastic Compliance Matrix: (Units=1/GPa)
#
#
# Indices 1 2 3 4 5 6 
#
# 1 0.025423 -0.003877 -0.006910 0.000000 0.000000 0.000000
# 2 -0.003877 0.025423 -0.006910 0.000000 0.000000 0.000000
# 3 -0.006910 -0.006910 0.010575 0.000000 0.000000 0.000000
# 4 0.000000 0.000000 0.000000 0.161235 0.000000 0.000000
# 5 0.000000 0.000000 0.000000 0.000000 0.161235 0.000000
# 6 0.000000 0.000000 0.000000 0.000000 0.000000 0.058601
#
#
# Mechanical properties :
#
#
# Convention : Reuss Voigt Hill
#
# Bulk Modulus (GPa) = 38.41898 59.03973 48.72935
# Shear Modulus (GPa) = 10.27619 15.86123 13.06871
#
# Velocity S-wave (km/s) = 2.37192 2.94681 2.67485
# Velocity P-wave (km/s) = 5.34180 6.62580 6.01814
#
# Compressibility (1/GPa) = 0.02602880
#
# Stress axis : x y z
#
# Youngs Moduli (GPa) = 39.33388 39.33388 94.55979
#
# Poissons Ratio (x) = 0.15251 0.65338
# Poissons Ratio (y) = 0.15251 0.65338
# Poissons Ratio (z) = 0.27178 0.27178
#
# Static dielectric constant tensor:
#      x y z
#    x 3.089740 0.000000 0.000000 
#    y 0.000000 3.089740 0.000000 
#    z 0.000000 0.000000 3.523840 
# 
# 
# High freq. dielectric constant tensor:
#      x y z
#    x 1.677530 0.000000 0.000000 
#    y 0.000000 1.677530 0.000000 
#    z 0.000000 0.000000 1.727290 
# 
# From -- ./inp_files/3257.got.cif
#   From: 2010.03.12/outbox.cif.g09.slc.cpg/sg193_2_cif.got.tgz:3257.got - 2010.04.01 12:20:39.
