data_PCOD8330472
_publ_section_title
;
Structure prediction by ZEFSAII (Michael W. Deem and Ramdas Pophale) SiO2 
 PCOD8330472
Probable space group: P 63/M M C
;
_chemical_formula_sum "Si O2"
_cell_formula_units_Z 120
_cell_length_a 17.324088
_cell_length_b 17.324088
_cell_length_c 26.305356
_cell_angle_alpha 90.000000
_cell_angle_beta 90.000000
_cell_angle_gamma 120.000000
_cell_volume 6837.157393
_symmetry_space_group_name_H-M "P 63/M M C"
_symmetry_group_IT_number 194
_symmetry_cell_setting 'hexagonal'
loop_
_space_group_symop_operation_xyz
x,y,z
x-y,x,1/2+z
-y,x-y,z
-x,-y,1/2+z
-x+y,-x,z
y,-x+y,1/2+z
x-y,-y,-z
-x,-x+y,-z
y,x,-z
-y,-x,1/2-z
-x+y,y,1/2-z
x,x-y,1/2-z
-x,-y,-z
-x+y,-x,1/2-z
y,-x+y,-z
x,y,1/2-z
x-y,x,-z
-y,x-y,1/2-z
-x+y,y,z
x,x-y,z
-y,-x,z
y,x,1/2+z
x-y,-y,1/2+z
-x,-x+y,1/2+z
loop_
_atom_site_type_symbol
_atom_site_label
_atom_site_fract_x
_atom_site_fract_y
_atom_site_fract_z
Si Si1 0.493514 0.333122 0.860908
Si Si2 0.841762 0.508454 0.521597
Si Si3 0.179123 0.000000 0.000000
Si Si4 0.737383 0.650604 0.060846
Si Si5 0.394117 0.428030 0.846081
Si Si6 0.848735 0.514725 0.250000
O O1 0.472101 0.236051 0.841787
O O2 0.598911 0.401090 0.854100
O O3 0.466645 0.331681 0.919625
O O4 0.436216 0.366642 0.829120
O O5 0.738800 0.477600 0.511291
O O6 0.857569 0.428785 0.504345
O O7 0.907884 0.595742 0.489887
O O8 0.221213 0.976655 0.951425
O O9 0.167946 0.083973 0.984702
O O10 0.815408 0.630817 0.076198
O O11 0.670056 0.619089 0.107084
O O12 0.473757 0.526244 0.861954
O O13 0.338346 0.433393 0.799305
O O14 0.757649 0.515298 0.250000
O O15 0.826907 0.413454 0.250000
#
# Coordination Sequence:
#
# PCOD8330472 Si02
#       6
#    24  24  12  24  24  12
#     4   9  17  29  46  68  96 130 162 190 223 271
#     4   9  16  26  42  67 101 137 166 188 216 265
#     4  10  21  36  53  72  96 128 166 206 249 300
#     4  10  19  30  46  69  96 126 160 201 246 288
#     4  10  20  33  50  72  98 128 162 202 246 289
#     4  10  21  38  57  74  94 124 164 206 247 292
#
# _framework density 17.551154
#
# number of rings (size 3 to 8) (size 9 to 14) (size 15 to 20)
#    0.000    2.400    0.000    3.000    0.000    4.000 
#    0.000    4.500    0.000    6.400    0.000    1.400 
#    0.000    0.000    0.000    1.200    0.000    0.000 
#
# Total GULP energy -1487855.808900 kJ/mol
# GULP energy per Si atom -12398.798407 kJ/mol
# Density = 1.751121 g / cm^3
# Si number density = 17.551154 Si / 1000 Ang^3
#
#
#
# Elastic Constant Matrix: (Units=GPa)
#
#
# Indices 1 2 3 4 5 6 
#
# 1 107.7146 49.7719 35.7772 0.0000 0.0000 0.0000
# 2 49.7719 107.7146 35.7772 0.0000 0.0000 0.0000
# 3 35.7772 35.7772 48.5691 0.0000 0.0000 0.0000
# 4 0.0000 0.0000 0.0000 20.4097 0.0000 0.0000
# 5 0.0000 0.0000 0.0000 0.0000 20.4097 0.0000
# 6 0.0000 0.0000 0.0000 0.0000 0.0000 28.9714
#
#
#
# Elastic Compliance Matrix: (Units=1/GPa)
#
#
# Indices 1 2 3 4 5 6 
#
# 1 0.013401 -0.003857 -0.007030 0.000000 0.000000 0.000000
# 2 -0.003857 0.013401 -0.007030 0.000000 0.000000 0.000000
# 3 -0.007030 -0.007030 0.030947 0.000000 0.000000 0.000000
# 4 0.000000 0.000000 0.000000 0.048996 0.000000 0.000000
# 5 0.000000 0.000000 0.000000 0.000000 0.048996 0.000000
# 6 0.000000 0.000000 0.000000 0.000000 0.000000 0.034517
#
#
# Mechanical properties :
#
#
# Convention : Reuss Voigt Hill
#
# Bulk Modulus (GPa) = 45.63440 56.29456 50.96448
# Shear Modulus (GPa) = 21.42256 23.46963 22.44610
#
# Velocity S-wave (km/s) = 3.49747 3.66076 3.58004
# Velocity P-wave (km/s) = 6.50899 7.07194 6.79630
#
# Compressibility (1/GPa) = 0.02191330
#
# Stress axis : x y z
#
# Youngs Moduli (GPa) = 74.62006 74.62006 32.31357
#
# Poissons Ratio (x) = 0.28782 0.22718
# Poissons Ratio (y) = 0.28782 0.22718
# Poissons Ratio (z) = 0.52461 0.52461
#
# Static dielectric constant tensor:
#      x y z
#    x 3.329380 0.000000 0.000000 
#    y 0.000000 3.329380 0.000000 
#    z 0.000000 0.000000 2.981900 
# 
# 
# High freq. dielectric constant tensor:
#      x y z
#    x 1.684810 0.000000 0.000000 
#    y 0.000000 1.684810 0.000000 
#    z 0.000000 0.000000 1.642220 
# 
# From -- ./inp_files/9407.got.cif
#   From: 2010.03.12/outbox.cif.g09.slc.cpg/sg194_5_cif.got.tgz:9407.got - 2010.04.01 12:26:19.
