data_PCOD8330377
_publ_section_title
;
Structure prediction by ZEFSAII (Michael W. Deem and Ramdas Pophale) SiO2 
 PCOD8330377
Probable space group: P 63/M M C
;
_chemical_formula_sum "Si O2"
_cell_formula_units_Z 108
_cell_length_a 30.890333
_cell_length_b 30.890333
_cell_length_c 8.008084
_cell_angle_alpha 90.000000
_cell_angle_beta 90.000000
_cell_angle_gamma 120.000000
_cell_volume 6617.659717
_symmetry_space_group_name_H-M "P 63/M M C"
_symmetry_group_IT_number 194
_symmetry_cell_setting 'hexagonal'
loop_
_space_group_symop_operation_xyz
x,y,z
x-y,x,1/2+z
-y,x-y,z
-x,-y,1/2+z
-x+y,-x,z
y,-x+y,1/2+z
x-y,-y,-z
-x,-x+y,-z
y,x,-z
-y,-x,1/2-z
-x+y,y,1/2-z
x,x-y,1/2-z
-x,-y,-z
-x+y,-x,1/2-z
y,-x+y,-z
x,y,1/2-z
x-y,x,-z
-y,x-y,1/2-z
-x+y,y,z
x,x-y,z
-y,-x,z
y,x,1/2+z
x-y,-y,1/2+z
-x,-x+y,1/2+z
loop_
_atom_site_type_symbol
_atom_site_label
_atom_site_fract_x
_atom_site_fract_y
_atom_site_fract_z
Si Si1 0.053974 0.301116 0.946687
Si Si2 0.149595 0.203114 0.946934
Si Si3 0.247291 0.849879 0.442292
Si Si4 0.800023 0.497288 0.434802
Si Si5 0.230898 0.665858 0.250000
O O1 0.061128 0.306324 0.750000
O O2 0.059546 0.254918 0.016676
O O3 0.095189 0.351447 0.031602
O O4 0.000000 0.292532 0.000000
O O5 0.148508 0.205794 0.750000
O O6 0.097664 0.195327 0.022869
O O7 0.156763 0.156763 0.000000
O O8 0.254002 0.841050 0.250000
O O9 0.191459 0.808542 0.503201
O O10 0.289408 0.844000 0.541595
O O11 0.806248 0.478914 0.250000
O O12 0.748116 0.496232 0.447061
O O13 0.800989 0.462237 0.582721
O O14 0.282991 0.717010 0.250000
O O15 0.242528 0.621264 0.250000
#
# Coordination Sequence:
#
# PCOD8330377 Si02
#       5
#    24  24  24  24  12
#     4  10  19  30  43  63  92 123 151 186 228 277
#     4   9  18  31  45  62  85 112 145 183 225 273
#     4  10  18  29  46  67  91 123 160 195 233 279
#     4   9  17  30  47  67  93 126 162 201 241 280
#     4  10  19  32  48  70 100 132 166 202 241 282
#
# _framework density 16.319969
#
# number of rings (size 3 to 8) (size 9 to 14) (size 15 to 20)
#    0.000    2.444    1.111    2.111    0.000    4.000 
#    0.000    0.000    0.000    1.556    0.000    0.000 
#    0.000    0.889    0.444    0.000    0.000    0.000 
#
# Total GULP energy -1338907.048372 kJ/mol
# GULP energy per Si atom -12397.287485 kJ/mol
# Density = 1.628282 g / cm^3
# Si number density = 16.319969 Si / 1000 Ang^3
#
#
#
# Elastic Constant Matrix: (Units=GPa)
#
#
# Indices 1 2 3 4 5 6 
#
# 1 71.0849 26.8448 28.3917 0.0000 0.0000 0.0000
# 2 26.8448 71.0849 28.3917 0.0000 0.0000 0.0000
# 3 28.3917 28.3917 85.3554 0.0000 0.0000 0.0000
# 4 0.0000 0.0000 0.0000 18.6646 0.0000 0.0000
# 5 0.0000 0.0000 0.0000 0.0000 18.6646 0.0000
# 6 0.0000 0.0000 0.0000 0.0000 0.0000 22.1201
#
#
#
# Elastic Compliance Matrix: (Units=1/GPa)
#
#
# Indices 1 2 3 4 5 6 
#
# 1 0.017628 -0.004976 -0.004208 0.000000 0.000000 0.000000
# 2 -0.004976 0.017628 -0.004208 0.000000 0.000000 0.000000
# 3 -0.004208 -0.004208 0.014515 0.000000 0.000000 0.000000
# 4 0.000000 0.000000 0.000000 0.053577 0.000000 0.000000
# 5 0.000000 0.000000 0.000000 0.000000 0.053577 0.000000
# 6 0.000000 0.000000 0.000000 0.000000 0.000000 0.045208
#
#
# Mechanical properties :
#
#
# Convention : Reuss Voigt Hill
#
# Bulk Modulus (GPa) = 43.50610 43.86463 43.68536
# Shear Modulus (GPa) = 21.13445 21.48299 21.30872
#
# Velocity S-wave (km/s) = 3.60252 3.63211 3.61734
# Velocity P-wave (km/s) = 6.63478 6.67277 6.65380
#
# Compressibility (1/GPa) = 0.02298528
#
# Stress axis : x y z
#
# Youngs Moduli (GPa) = 56.72887 56.72887 68.89278
#
# Poissons Ratio (x) = 0.28229 0.28992
# Poissons Ratio (y) = 0.28229 0.28992
# Poissons Ratio (z) = 0.23873 0.23873
#
# Static dielectric constant tensor:
#      x y z
#    x 2.939250 0.000000 0.000000 
#    y 0.000000 2.939250 0.000000 
#    z 0.000000 0.000000 3.242720 
# 
# 
# High freq. dielectric constant tensor:
#      x y z
#    x 1.599050 0.000000 0.000000 
#    y 0.000000 1.599050 0.000000 
#    z 0.000000 0.000000 1.642760 
# 
# From -- ./inp_files/1890.got.cif
#   From: 2010.03.12/outbox.cif.g09.slc.cpg/sg194_1_cif.got.tgz:1890.got - 2010.04.01 12:26:19.
