data_PCOD8330955
_publ_section_title
;
Structure prediction by ZEFSAII (Michael W. Deem and Ramdas Pophale) SiO2 
 PCOD8330955
Probable space group: P A 3
;
_chemical_formula_sum "Si O2"
_cell_formula_units_Z 168
_cell_length_a 20.013113
_cell_length_b 20.013113
_cell_length_c 20.013113
_cell_angle_alpha 90.000000
_cell_angle_beta 90.000000
_cell_angle_gamma 90.000000
_cell_volume 8015.745919
_symmetry_space_group_name_H-M "P A 3"
_symmetry_group_IT_number 205
_symmetry_cell_setting 'cubic'
loop_
_space_group_symop_operation_xyz
x,y,z
z,x,y
y,z,x
1/2-y,-z,1/2+x
1/2+z,1/2-x,-y
-y,1/2+z,1/2-x
1/2-z,-x,1/2+y
-z,1/2+x,1/2-y
1/2+y,1/2-z,-x
1/2-x,-y,1/2+z
1/2+x,1/2-y,-z
-x,1/2+y,1/2-z
-x,-y,-z
-z,-x,-y
-y,-z,-x
1/2+y,z,1/2-x
1/2-z,1/2+x,y
y,1/2-z,1/2+x
1/2+z,x,1/2-y
z,1/2-x,1/2+y
1/2-y,1/2+z,x
1/2+x,y,1/2-z
1/2-x,1/2+y,z
x,1/2-y,1/2+z
loop_
_atom_site_type_symbol
_atom_site_label
_atom_site_fract_x
_atom_site_fract_y
_atom_site_fract_z
Si Si1 0.619825 0.423280 0.434466
Si Si2 0.531447 0.885369 0.402413
Si Si3 0.266467 0.541066 0.191410
Si Si4 0.905812 0.328748 0.665365
Si Si5 0.629064 0.550856 0.243508
Si Si6 0.927362 0.309222 0.122594
Si Si7 0.575779 0.210829 0.875967
O O1 0.587689 0.406428 0.505519
O O2 0.700095 0.428277 0.441089
O O3 0.601690 0.365709 0.379674
O O4 0.476921 0.941768 0.390482
O O5 0.588332 0.899867 0.348720
O O6 0.501798 0.811464 0.393819
O O7 0.307467 0.480295 0.160089
O O8 0.193459 0.521543 0.218463
O O9 0.260355 0.588004 0.127028
O O10 0.301992 0.572579 0.257206
O O11 0.857250 0.375663 0.710205
O O12 0.892711 0.249281 0.667473
O O13 0.935983 0.374596 0.171226
O O14 0.999719 0.288255 0.093829
#
# Coordination Sequence:
#
# PCOD8330955 Si02
#       7
#    24  24  24  24  24  24  24
#     4  11  25  41  64  97 137 181 227 282 347 416
#     4  10  23  40  65  96 127 171 223 285 345 405
#     4  10  22  41  64  95 131 172 230 268 344 403
#     4  10  22  41  64  92 131 174 221 279 339 405
#     4  10  22  41  60  92 133 177 220 274 344 416
#     4   9  22  39  62  99 132 174 229 281 340 398
#     4  10  22  41  65  94 134 179 224 287 329 414
#
# _framework density 20.958748
#
# number of rings (size 3 to 8) (size 9 to 14) (size 15 to 20)
#    0.286    1.714    0.000    2.286    6.000    9.143 
#    5.143    0.000    0.000    0.000    0.000    0.000 
#    0.000    0.000    0.000    0.000    0.000    0.000 
#
# Total GULP energy -2081467.927437 kJ/mol
# GULP energy per Si atom -12389.690044 kJ/mol
# Density = 2.091104 g / cm^3
# Si number density = 20.958748 Si / 1000 Ang^3
#
#
#
# Elastic Constant Matrix: (Units=GPa)
#
#
# Indices 1 2 3 4 5 6 
#
# 1 105.2388 39.4227 39.4227 0.0000 0.0000 0.0000
# 2 39.4227 105.2388 39.4227 0.0000 0.0000 0.0000
# 3 39.4227 39.4227 105.2388 0.0000 0.0000 0.0000
# 4 0.0000 0.0000 0.0000 27.8564 0.0000 0.0000
# 5 0.0000 0.0000 0.0000 0.0000 27.8564 0.0000
# 6 0.0000 0.0000 0.0000 0.0000 0.0000 27.8564
#
#
#
# Elastic Compliance Matrix: (Units=1/GPa)
#
#
# Indices 1 2 3 4 5 6 
#
# 1 0.011940 -0.003254 -0.003254 0.000000 0.000000 0.000000
# 2 -0.003254 0.011940 -0.003254 0.000000 0.000000 0.000000
# 3 -0.003254 -0.003254 0.011940 0.000000 0.000000 0.000000
# 4 0.000000 0.000000 0.000000 0.035898 0.000000 0.000000
# 5 0.000000 0.000000 0.000000 0.000000 0.035898 0.000000
# 6 0.000000 0.000000 0.000000 0.000000 0.000000 0.035898
#
#
# Mechanical properties :
#
#
# Convention : Reuss Voigt Hill
#
# Bulk Modulus (GPa) = 61.36139 61.36139 61.36139
# Shear Modulus (GPa) = 29.67878 29.87707 29.77793
#
# Velocity S-wave (km/s) = 3.76714 3.77970 3.77342
# Velocity P-wave (km/s) = 6.94712 6.95622 6.95167
#
# Compressibility (1/GPa) = 0.01629689
#
# Stress axis : x y z
#
# Youngs Moduli (GPa) = 83.75217 83.75217 83.75217
#
# Poissons Ratio (x) = 0.27252 0.27252
# Poissons Ratio (y) = 0.27252 0.27252
# Poissons Ratio (z) = 0.27252 0.27252
#
# Static dielectric constant tensor:
#      x y z
#    x 3.848870 0.000000 0.000000 
#    y 0.000000 3.848870 0.000000 
#    z 0.000000 0.000000 3.848870 
# 
# 
# High freq. dielectric constant tensor:
#      x y z
#    x 1.821140 0.000000 0.000000 
#    y 0.000000 1.821140 0.000000 
#    z 0.000000 0.000000 1.821140 
# 
# From -- ./inp_files/588.got.cif
#   From: 2010.03.12/outbox.cif.g09.slc.cpg/sg205_cif.got.tgz:588.got - 2010.03.30 09:02:58.
