data_PCOD8330616
_publ_section_title
;
Structure prediction by ZEFSAII (Michael W. Deem and Ramdas Pophale) SiO2 
 PCOD8330616
Probable space group: P 63/M M C
;
_chemical_formula_sum "Si O2"
_cell_formula_units_Z 112
_cell_length_a 29.329445
_cell_length_b 29.329445
_cell_length_c 8.787603
_cell_angle_alpha 90.000000
_cell_angle_beta 90.000000
_cell_angle_gamma 120.000000
_cell_volume 6546.493635
_symmetry_space_group_name_H-M "P 63/M M C"
_symmetry_group_IT_number 194
_symmetry_cell_setting 'hexagonal'
loop_
_space_group_symop_operation_xyz
x,y,z
x-y,x,1/2+z
-y,x-y,z
-x,-y,1/2+z
-x+y,-x,z
y,-x+y,1/2+z
x-y,-y,-z
-x,-x+y,-z
y,x,-z
-y,-x,1/2-z
-x+y,y,1/2-z
x,x-y,1/2-z
-x,-y,-z
-x+y,-x,1/2-z
y,-x+y,-z
x,y,1/2-z
x-y,x,-z
-y,x-y,1/2-z
-x+y,y,z
x,x-y,z
-y,-x,z
y,x,1/2+z
x-y,-y,1/2+z
-x,-x+y,1/2+z
loop_
_atom_site_type_symbol
_atom_site_label
_atom_site_fract_x
_atom_site_fract_y
_atom_site_fract_z
Si Si1 0.053300 0.402300 0.428096
Si Si2 0.609531 0.219061 0.073063
Si Si3 0.666667 0.333334 0.570392
Si Si4 0.784778 0.215222 0.576700
Si Si5 0.159751 0.840250 0.929223
Si Si6 0.700677 0.755859 0.430792
Si Si7 0.662160 0.160477 0.925620
O O1 0.045615 0.397303 0.250000
O O2 0.065428 0.356808 0.483208
O O3 0.099994 0.459963 0.474041
O O4 0.000000 0.395122 0.500000
O O5 0.616235 0.232470 0.250000
O O6 0.636739 0.273477 0.983344
O O7 0.636573 0.184987 0.033205
O O8 0.666667 0.333334 0.750000
O O9 0.795711 0.204290 0.750000
O O10 0.809252 0.190749 0.464281
O O11 0.809609 0.276230 0.545163
O O12 0.155353 0.844648 0.750000
O O13 0.101559 0.809890 0.000913
O O14 0.745523 0.745523 0.500000
O O15 0.706226 0.760457 0.250000
O O16 0.649086 0.165247 0.750000
#
# Coordination Sequence:
#
# PCOD8330616 Si02
#       7
#    24  12   4  12  12  24  24
#     4   9  18  32  53  77 104 138 176 216 261 310
#     4  12  26  41  60  87 110 127 158 213 262 310
#     4  12  25  47  70  84 103 140 166 189 250 335
#     4  10  19  35  56  77 102 132 171 216 259 310
#     4  12  22  31  49  80 112 147 185 222 267 319
#     4  10  19  34  52  76 109 146 185 229 273 317
#     4  10  20  37  58  79 103 140 177 208 259 325
#
# _framework density 17.108395999999999
#
# number of rings (size 3 to 8) (size 9 to 14) (size 15 to 20)
#    0.000    1.714    2.143    3.536    0.000    3.429 
#    0.000    0.536    0.000    0.000    0.000    0.000 
#    0.000    0.000    0.000    0.321    0.000    4.500 
#
# Total GULP energy -1389080.765577 kJ/mol
# GULP energy per Si atom -12402.506836 kJ/mol
# Density = 1.706946 g / cm^3
# Si number density = 17.108396 Si / 1000 Ang^3
#
#
#
# Elastic Constant Matrix: (Units=GPa)
#
#
# Indices 1 2 3 4 5 6 
#
# 1 116.7126 53.0521 48.7184 0.0000 0.0000 0.0003
# 2 53.0521 116.7125 48.7186 0.0000 0.0000 0.0001
# 3 48.7184 48.7186 91.0431 0.0001 0.0000 0.0002
# 4 0.0000 0.0000 0.0001 28.6098 0.0000 0.0000
# 5 0.0000 0.0000 0.0000 0.0000 28.6097 0.0000
# 6 0.0003 0.0001 0.0002 0.0000 0.0000 31.8303
#
#
#
# Elastic Compliance Matrix: (Units=1/GPa)
#
#
# Indices 1 2 3 4 5 6 
#
# 1 0.012105 -0.003603 -0.004549 0.000000 0.000000 0.000000
# 2 -0.003603 0.012105 -0.004549 0.000000 0.000000 0.000000
# 3 -0.004549 -0.004549 0.015853 0.000000 0.000000 0.000000
# 4 0.000000 0.000000 0.000000 0.034953 0.000000 0.000000
# 5 0.000000 0.000000 0.000000 0.000000 0.034953 0.000000
# 6 0.000000 0.000000 0.000000 0.000000 0.000000 0.031417
#
#
# Mechanical properties :
#
#
# Convention : Reuss Voigt Hill
#
# Bulk Modulus (GPa) = 68.21970 69.49404 68.85687
# Shear Modulus (GPa) = 29.12467 29.40856 29.26661
#
# Velocity S-wave (km/s) = 4.13044 4.15053 4.14050
# Velocity P-wave (km/s) = 7.91890 7.97980 7.94941
#
# Compressibility (1/GPa) = 0.01465852
#
# Stress axis : x y z
#
# Youngs Moduli (GPa) = 82.61073 82.61050 63.08088
#
# Poissons Ratio (x) = 0.29768 0.28698
# Poissons Ratio (y) = 0.29768 0.28698
# Poissons Ratio (z) = 0.37582 0.37583
#
# Static dielectric constant tensor:
#      x y z
#    x 3.208880 0.000000 0.000000 
#    y 0.000000 3.208880 0.000000 
#    z 0.000000 0.000000 3.171980 
# 
# 
# High freq. dielectric constant tensor:
#      x y z
#    x 1.650290 0.000000 0.000000 
#    y 0.000000 1.650290 0.000000 
#    z 0.000000 0.000000 1.662300 
# 
# From -- ./inp_files/1981.got.cif
#   From: 2010.03.12/outbox.cif.g09.slc.cpg/sg194_1_cif.got.tgz:1981.got - 2010.04.01 12:26:19.
