data_PCOD8330868
_publ_section_title
;
Structure prediction by ZEFSAII (Michael W. Deem and Ramdas Pophale) SiO2 
 PCOD8330868
Probable space group: P 2 3
;
_chemical_formula_sum "Si O2"
_cell_formula_units_Z 96
_cell_length_a 18.022748
_cell_length_b 18.022748
_cell_length_c 18.022748
_cell_angle_alpha 90.000000
_cell_angle_beta 90.000000
_cell_angle_gamma 90.000000
_cell_volume 5854.139011
_symmetry_space_group_name_H-M "P 2 3"
_symmetry_group_IT_number 195
_symmetry_cell_setting 'cubic'
loop_
_space_group_symop_operation_xyz
x,y,z
z,x,y
y,z,x
-y,-z,x
z,-x,-y
-y,z,-x
-z,-x,y
-z,x,-y
y,-z,-x
-x,-y,z
x,-y,-z
-x,y,-z
loop_
_atom_site_type_symbol
_atom_site_label
_atom_site_fract_x
_atom_site_fract_y
_atom_site_fract_z
Si Si1 0.578241 0.039802 0.161628
Si Si2 0.716942 0.838152 0.593548
Si Si3 0.331029 0.211696 0.092206
Si Si4 0.907794 0.211696 0.668971
Si Si5 0.809582 0.689372 0.429892
Si Si6 0.429892 0.689372 0.809582
Si Si7 0.593548 0.838152 0.716942
Si Si8 0.578241 0.838372 0.960198
O O1 0.581100 0.087657 0.236291
O O2 0.593396 0.089987 0.089987
O O3 0.500000 0.000000 0.153090
O O4 0.642479 0.978575 0.165181
O O5 0.674570 0.820727 0.516912
O O6 0.657597 0.851561 0.657597
O O7 0.770118 0.770118 0.616021
O O8 0.763709 0.912343 0.581100
O O9 0.304497 0.155817 0.155817
O O10 0.261277 0.261277 0.068916
O O11 0.398463 0.262849 0.121608
O O12 0.357521 0.165181 0.021425
O O13 0.878392 0.262849 0.601537
O O14 0.733757 0.733757 0.415016
O O15 0.804087 0.610231 0.389769
O O16 0.820727 0.674570 0.516912
O O17 0.500000 0.846910 0.000000
#
# Coordination Sequence:
#
# PCOD8330868 Si02
#       8
#    12  12  12  12  12  12  12  12
#     4  11  21  34  51  74 102 131 165 206 250 298
#     4  10  20  34  51  71  99 136 173 209 248 296
#     4  10  19  33  52  75 101 130 163 202 247 295
#     4  10  19  33  52  75 101 130 163 202 247 295
#     4   9  17  30  49  72  99 130 167 209 253 295
#     4   9  17  30  49  72  99 130 167 209 253 295
#     4  10  20  34  51  71  99 136 173 209 248 296
#     4  11  21  34  51  74 102 131 165 206 250 298
#
# _framework density 16.398652999999999
#
# number of rings (size 3 to 8) (size 9 to 14) (size 15 to 20)
#    0.000    2.000    2.500    2.250    0.000    4.250 
#    0.000    0.000    0.000    0.500    0.000    0.000 
#    0.000    0.000    0.000   15.500    0.000    0.500 
#
# Total GULP energy -1190564.986195 kJ/mol
# GULP energy per Si atom -12401.718606 kJ/mol
# Density = 1.636133 g / cm^3
# Si number density = 16.398653 Si / 1000 Ang^3
#
#
#
# Elastic Constant Matrix: (Units=GPa)
#
#
# Indices 1 2 3 4 5 6 
#
# 1 73.8162 30.5988 30.5988 0.0000 0.0000 0.0000
# 2 30.5988 73.8162 30.5988 0.0000 0.0000 0.0000
# 3 30.5988 30.5988 73.8162 0.0000 0.0000 0.0000
# 4 0.0000 0.0000 0.0000 21.8010 0.0000 0.0000
# 5 0.0000 0.0000 0.0000 0.0000 21.8010 0.0000
# 6 0.0000 0.0000 0.0000 0.0000 0.0000 21.8010
#
#
#
# Elastic Compliance Matrix: (Units=1/GPa)
#
#
# Indices 1 2 3 4 5 6 
#
# 1 0.017895 -0.005244 -0.005244 0.000000 0.000000 0.000000
# 2 -0.005244 0.017895 -0.005244 0.000000 0.000000 0.000000
# 3 -0.005244 -0.005244 0.017895 0.000000 0.000000 0.000000
# 4 0.000000 0.000000 0.000000 0.045870 0.000000 0.000000
# 5 0.000000 0.000000 0.000000 0.000000 0.045870 0.000000
# 6 0.000000 0.000000 0.000000 0.000000 0.000000 0.045870
#
#
# Mechanical properties :
#
#
# Convention : Reuss Voigt Hill
#
# Bulk Modulus (GPa) = 45.00462 45.00462 45.00462
# Shear Modulus (GPa) = 21.72362 21.72403 21.72383
#
# Velocity S-wave (km/s) = 3.64362 3.64365 3.64364
# Velocity P-wave (km/s) = 6.72346 6.72349 6.72348
#
# Compressibility (1/GPa) = 0.02221994
#
# Stress axis : x y z
#
# Youngs Moduli (GPa) = 55.88216 55.88216 55.88216
#
# Poissons Ratio (x) = 0.29305 0.29305
# Poissons Ratio (y) = 0.29305 0.29305
# Poissons Ratio (z) = 0.29305 0.29305
#
# Static dielectric constant tensor:
#      x y z
#    x 3.043000 0.000000 0.000000 
#    y 0.000000 3.043000 0.000000 
#    z 0.000000 0.000000 3.043000 
# 
# 
# High freq. dielectric constant tensor:
#      x y z
#    x 1.626250 0.000000 0.000000 
#    y 0.000000 1.626250 0.000000 
#    z 0.000000 0.000000 1.626250 
# 
# From -- ./inp_files/484.got.cif
#   From: 2010.03.12/outbox.cif.g09.slc.cpg/sg195_cif.got.tgz:484.got - 2010.04.01 12:33:13.
