data_PCOD8330491
_publ_section_title
;
Structure prediction by ZEFSAII (Michael W. Deem and Ramdas Pophale) SiO2 
 PCOD8330491
Probable space group: P 63/M M C
;
_chemical_formula_sum "Si O2"
_cell_formula_units_Z 192
_cell_length_a 21.382898
_cell_length_b 21.382898
_cell_length_c 28.446286
_cell_angle_alpha 90.000000
_cell_angle_beta 90.000000
_cell_angle_gamma 120.000000
_cell_volume 11263.914168
_symmetry_space_group_name_H-M "P 63/M M C"
_symmetry_group_IT_number 194
_symmetry_cell_setting 'hexagonal'
loop_
_space_group_symop_operation_xyz
x,y,z
x-y,x,1/2+z
-y,x-y,z
-x,-y,1/2+z
-x+y,-x,z
y,-x+y,1/2+z
x-y,-y,-z
-x,-x+y,-z
y,x,-z
-y,-x,1/2-z
-x+y,y,1/2-z
x,x-y,1/2-z
-x,-y,-z
-x+y,-x,1/2-z
y,-x+y,-z
x,y,1/2-z
x-y,x,-z
-y,x-y,1/2-z
-x+y,y,z
x,x-y,z
-y,-x,z
y,x,1/2+z
x-y,-y,1/2+z
-x,-x+y,1/2+z
loop_
_atom_site_type_symbol
_atom_site_label
_atom_site_fract_x
_atom_site_fract_y
_atom_site_fract_z
Si Si1 0.053389 0.244312 0.882589
Si Si2 0.745783 0.943782 0.462977
Si Si3 0.545846 0.951650 0.393984
Si Si4 0.985680 0.634223 0.697453
Si Si5 0.729954 0.597365 0.346958
Si Si6 0.675546 0.080547 0.984441
Si Si7 0.370740 0.487422 0.924837
Si Si8 0.951498 0.191911 0.696947
O O1 0.109845 0.219690 0.901227
O O2 0.095941 0.329911 0.877411
O O3 0.987158 0.229802 0.915405
O O4 0.017874 0.200188 0.834614
O O5 0.766455 0.883228 0.453942
O O6 0.663993 0.908283 0.482001
O O7 0.802143 0.000000 0.500000
O O8 0.460692 0.921384 0.390427
O O9 0.558158 0.903182 0.432720
O O10 0.572844 0.946844 0.341924
O O11 0.587647 0.032889 0.412026
O O12 0.971147 0.600259 0.750000
O O13 0.073322 0.678819 0.691322
O O14 0.949261 0.683673 0.692387
O O15 0.793734 0.587467 0.322909
O O16 0.686544 0.530449 0.382836
O O17 0.670166 0.131414 0.024623
O O18 0.618867 0.000000 0.000000
O O19 0.426696 0.573305 0.927168
O O20 0.968682 0.179815 0.750000
O O21 0.874759 0.125242 0.680256
#
# Coordination Sequence:
#
# PCOD8330491 Si02
#       8
#    24  24  24  24  24  24  24  24
#     4  10  19  31  47  65  86 113 147 189 233 276
#     4  11  21  32  47  65  87 116 150 187 228 275
#     4   9  16  26  40  60  88 117 139 165 207 258
#     4   9  17  28  42  64  91 118 152 187 223 274
#     4   9  17  29  45  65  90 118 149 188 229 267
#     4   9  16  27  43  63  85 109 140 175 212 259
#     4   9  16  26  42  63  85 111 141 172 210 258
#     4   9  17  30  48  67  87 113 146 188 237 282
#
# _framework density 17.045584000000002
#
# number of rings (size 3 to 8) (size 9 to 14) (size 15 to 20)
#    0.000    2.625    0.000    4.875    0.000    3.750 
#    0.000    2.500    0.000    5.000    0.000    0.000 
#    0.000    0.000    0.000    2.375    0.000   12.875 
#
# Total GULP energy -2379343.576682 kJ/mol
# GULP energy per Si atom -12392.414462 kJ/mol
# Density = 1.700679 g / cm^3
# Si number density = 17.045584 Si / 1000 Ang^3
#
#
#
# Elastic Constant Matrix: (Units=GPa)
#
#
# Indices 1 2 3 4 5 6 
#
# 1 44.9863 23.4999 20.5297 0.0000 0.0000 0.0000
# 2 23.4999 44.9863 20.5297 0.0000 0.0000 0.0000
# 3 20.5297 20.5297 90.4095 0.0000 0.0000 0.0000
# 4 0.0000 0.0000 0.0000 15.2920 0.0000 0.0000
# 5 0.0000 0.0000 0.0000 0.0000 15.2920 0.0000
# 6 0.0000 0.0000 0.0000 0.0000 0.0000 10.7432
#
#
#
# Elastic Compliance Matrix: (Units=1/GPa)
#
#
# Indices 1 2 3 4 5 6 
#
# 1 0.031722 -0.014819 -0.003838 0.000000 0.000000 0.000000
# 2 -0.014819 0.031722 -0.003838 0.000000 0.000000 0.000000
# 3 -0.003838 -0.003838 0.012804 0.000000 0.000000 0.000000
# 4 0.000000 0.000000 0.000000 0.065394 0.000000 0.000000
# 5 0.000000 0.000000 0.000000 0.000000 0.065394 0.000000
# 6 0.000000 0.000000 0.000000 0.000000 0.000000 0.093082
#
#
# Mechanical properties :
#
#
# Convention : Reuss Voigt Hill
#
# Bulk Modulus (GPa) = 31.99339 34.38893 33.19116
# Shear Modulus (GPa) = 14.06365 15.98697 15.02531
#
# Velocity S-wave (km/s) = 2.87550 3.06583 2.97219
# Velocity P-wave (km/s) = 5.46212 5.72284 5.59400
#
# Compressibility (1/GPa) = 0.03125645
#
# Stress axis : x y z
#
# Youngs Moduli (GPa) = 31.52408 31.52408 78.10139
#
# Poissons Ratio (x) = 0.46716 0.29976
# Poissons Ratio (y) = 0.46716 0.29976
# Poissons Ratio (z) = 0.12099 0.12099
#
# Static dielectric constant tensor:
#      x y z
#    x 3.038700 0.000000 0.000000 
#    y 0.000000 3.038700 0.000000 
#    z 0.000000 0.000000 1.252270 
# 
# 
# High freq. dielectric constant tensor:
#      x y z
#    x 1.623760 0.000000 0.000000 
#    y 0.000000 1.623760 0.000000 
#    z 0.000000 0.000000 1.666820 
# 
# From -- ./inp_files/11216.got.cif
#   From: 2010.03.12/outbox.cif.g09.slc.cpg/sg194_6_cif.got.tgz:11216.got - 2010.04.01 12:26:19.
