data_PCOD8330975
_publ_section_title
;
Structure prediction by ZEFSAII (Michael W. Deem and Ramdas Pophale) SiO2 
 PCOD8330975
Probable space group: I A 3
;
_chemical_formula_sum "Si O2"
_cell_formula_units_Z 128
_cell_length_a 20.066678
_cell_length_b 20.066678
_cell_length_c 20.066678
_cell_angle_alpha 90.000000
_cell_angle_beta 90.000000
_cell_angle_gamma 90.000000
_cell_volume 8080.280654
_symmetry_space_group_name_H-M "I A 3"
_symmetry_group_IT_number 206
_symmetry_cell_setting 'cubic'
loop_
_space_group_symop_operation_xyz
x,y,z
z,x,y
y,z,x
-y,1/2-z,x
z,-x,1/2-y
1/2-y,z,-x
-z,1/2-x,y
1/2-z,x,-y
y,-z,1/2-x
-x,1/2-y,z
x,-y,1/2-z
1/2-x,y,-z
-x,-y,-z
-z,-x,-y
-y,-z,-x
y,1/2+z,-x
-z,x,1/2+y
1/2+y,-z,x
z,1/2+x,-y
1/2+z,-x,y
-y,z,1/2+x
x,1/2+y,-z
-x,y,1/2+z
1/2+x,-y,z
1/2+x,1/2+y,1/2+z
1/2+z,1/2+x,1/2+y
1/2+y,1/2+z,1/2+x
1/2-y,-z,1/2+x
1/2+z,1/2-x,-y
-y,1/2+z,1/2-x
1/2-z,-x,1/2+y
-z,1/2+x,1/2-y
1/2+y,1/2-z,-x
1/2-x,-y,1/2+z
1/2+x,1/2-y,-z
-x,1/2+y,1/2-z
1/2-x,1/2-y,1/2-z
1/2-z,1/2-x,1/2-y
1/2-y,1/2-z,1/2-x
1/2+y,z,1/2-x
1/2-z,1/2+x,y
y,1/2-z,1/2+x
1/2+z,x,1/2-y
z,1/2-x,1/2+y
1/2-y,1/2+z,x
1/2+x,y,1/2-z
1/2-x,1/2+y,z
x,1/2-y,1/2+z
loop_
_atom_site_type_symbol
_atom_site_label
_atom_site_fract_x
_atom_site_fract_y
_atom_site_fract_z
Si Si1 0.295712 0.204290 0.795712
Si Si2 0.697735 0.045800 0.447524
Si Si3 0.454290 0.045712 0.954289
Si Si4 0.447736 0.802478 0.704200
O O1 0.250000 0.250000 0.750000
O O2 0.271126 0.127579 0.788119
O O3 0.750000 0.014908 0.500000
O O4 0.622421 0.021125 0.461883
O O5 0.725203 0.024798 0.375001
O O6 0.698300 0.125000 0.448304
O O7 0.500000 0.000000 0.000000
O O8 0.500000 0.750000 0.735092
#
# Coordination Sequence:
#
# PCOD8330975 Si02
#       4
#    16  48  16  48
#     4   9  16  26  46  69  85 110 145 183 220 251
#     4   8  14  26  47  67  82 111 150 180 208 255
#     4   9  16  26  46  69  85 110 145 183 220 251
#     4   8  14  26  47  67  82 111 150 180 208 255
#
# _framework density 15.841032999999999
#
# number of rings (size 3 to 8) (size 9 to 14) (size 15 to 20)
#    0.000    3.750    0.000    3.000    0.000    0.000 
#    0.000    0.000   33.000    0.000    0.000    0.000 
#    0.000    0.000    0.000    0.000    0.000    0.000 
#
# Total GULP energy -792932.930860 kJ/mol
# GULP energy per Si atom -12389.577045 kJ/mol
# Density = 1.580498 g / cm^3
# Si number density = 15.841033 Si / 1000 Ang^3
#
#
#
# Elastic Constant Matrix: (Units=GPa)
#
#
# Indices 1 2 3 4 5 6 
#
# 1 88.6992 51.2611 51.2607 0.0000 0.0000 0.0000
# 2 51.2611 88.6988 51.2605 0.0000 0.0000 0.0000
# 3 51.2607 51.2605 88.6988 0.0000 0.0000 0.0000
# 4 0.0000 0.0000 0.0000 23.2955 0.0000 0.0000
# 5 0.0000 0.0000 0.0000 0.0000 23.2955 0.0000
# 6 0.0000 0.0000 0.0000 0.0000 0.0000 23.2953
#
#
#
# Elastic Compliance Matrix: (Units=1/GPa)
#
#
# Indices 1 2 3 4 5 6 
#
# 1 0.019550 -0.007161 -0.007160 0.000000 0.000000 0.000000
# 2 -0.007161 0.019550 -0.007160 0.000000 0.000000 0.000000
# 3 -0.007160 -0.007160 0.019550 0.000000 0.000000 0.000000
# 4 0.000000 0.000000 0.000000 0.042927 0.000000 0.000000
# 5 0.000000 0.000000 0.000000 0.000000 0.042927 0.000000
# 6 0.000000 0.000000 0.000000 0.000000 0.000000 0.042927
#
#
# Mechanical properties :
#
#
# Convention : Reuss Voigt Hill
#
# Bulk Modulus (GPa) = 63.74015 63.74015 63.74015
# Shear Modulus (GPa) = 21.22030 21.46490 21.34260
#
# Velocity S-wave (km/s) = 3.66400 3.68505 3.67454
# Velocity P-wave (km/s) = 7.63050 7.64401 7.63726
#
# Compressibility (1/GPa) = 0.01568870
#
# Stress axis : x y z
#
# Youngs Moduli (GPa) = 51.14995 51.14983 51.15025
#
# Poissons Ratio (x) = 0.36626 0.36625
# Poissons Ratio (y) = 0.36626 0.36625
# Poissons Ratio (z) = 0.36625 0.36625
#
# Static dielectric constant tensor:
#      x y z
#    x 3.113600 0.000000 0.000000 
#    y 0.000000 3.113610 0.000000 
#    z 0.000000 0.000000 3.113610 
# 
# 
# High freq. dielectric constant tensor:
#      x y z
#    x 1.589350 0.000000 0.000000 
#    y 0.000000 1.589350 0.000000 
#    z 0.000000 0.000000 1.589350 
# 
# From -- ./inp_files/434.got.cif
#   From: 2010.03.12/outbox.cif.g09.slc.cpg/sg206_cif.got.tgz:434.got - 2010.03.30 09:03:11.
