data_PCOD8330375
_publ_section_title
;
Structure prediction by ZEFSAII (Michael W. Deem and Ramdas Pophale) SiO2 
 PCOD8330375
Probable space group: P 63/M M C
;
_chemical_formula_sum "Si O2"
_cell_formula_units_Z 120
_cell_length_a 17.578293
_cell_length_b 17.578293
_cell_length_c 30.073381
_cell_angle_alpha 90.000000
_cell_angle_beta 90.000000
_cell_angle_gamma 120.000000
_cell_volume 8047.598229
_symmetry_space_group_name_H-M "P 63/M M C"
_symmetry_group_IT_number 194
_symmetry_cell_setting 'hexagonal'
loop_
_space_group_symop_operation_xyz
x,y,z
x-y,x,1/2+z
-y,x-y,z
-x,-y,1/2+z
-x+y,-x,z
y,-x+y,1/2+z
x-y,-y,-z
-x,-x+y,-z
y,x,-z
-y,-x,1/2-z
-x+y,y,1/2-z
x,x-y,1/2-z
-x,-y,-z
-x+y,-x,1/2-z
y,-x+y,-z
x,y,1/2-z
x-y,x,-z
-y,x-y,1/2-z
-x+y,y,z
x,x-y,z
-y,-x,z
y,x,1/2+z
x-y,-y,1/2+z
-x,-x+y,1/2+z
loop_
_atom_site_type_symbol
_atom_site_label
_atom_site_fract_x
_atom_site_fract_y
_atom_site_fract_z
Si Si1 0.064831 0.764274 0.458609
Si Si2 0.696209 0.936064 0.622069
Si Si3 0.174646 0.174746 0.199242
Si Si4 0.667575 0.160949 0.094688
Si Si5 0.102859 0.469503 0.495421
O O1 0.132535 0.867466 0.460289
O O2 0.118797 0.710813 0.461256
O O3 0.000000 0.738612 0.500000
O O4 0.012692 0.744755 0.413233
O O5 0.708880 0.854440 0.608150
O O6 0.739633 0.975500 0.669728
O O7 0.592413 0.903629 0.623769
O O8 0.201044 0.205279 0.250000
O O9 0.145460 0.072730 0.193438
O O10 0.092934 0.185868 0.184079
O O11 0.570860 0.141719 0.107697
O O12 0.737927 0.262074 0.105226
O O13 0.675486 0.143982 0.042865
O O14 0.142263 0.571132 0.478780
O O15 0.000000 0.428748 0.500000
#
# Coordination Sequence:
#
# PCOD8330375 Si02
#       5
#    24  24  24  24  24
#     4  11  19  28  42  60  85 117 147 175 209 253
#     4  10  19  30  44  63  87 115 147 180 215 259
#     4   9  17  30  48  68  88 111 142 182 223 258
#     4  10  18  29  44  64  87 114 149 187 223 259
#     4   9  16  26  41  59  80 109 147 187 220 250
#
# _framework density 14.911281000000001
#
# number of rings (size 3 to 8) (size 9 to 14) (size 15 to 20)
#    0.000    2.200    4.000    2.200    0.000    0.800 
#    0.000    0.000    0.000    5.800    0.000    0.000 
#    0.000    1.600    0.000    0.000    0.000    2.000 
#
# Total GULP energy -1487231.969723 kJ/mol
# GULP energy per Si atom -12393.599748 kJ/mol
# Density = 1.487734 g / cm^3
# Si number density = 14.911281 Si / 1000 Ang^3
#
#
#
# Elastic Constant Matrix: (Units=GPa)
#
#
# Indices 1 2 3 4 5 6 
#
# 1 90.7465 49.7788 43.4509 0.0000 0.0000 0.0000
# 2 49.7788 90.7465 43.4509 0.0000 0.0000 0.0000
# 3 43.4509 43.4509 71.9504 0.0000 0.0000 0.0000
# 4 0.0000 0.0000 0.0000 20.4587 0.0000 0.0000
# 5 0.0000 0.0000 0.0000 0.0000 20.4587 0.0000
# 6 0.0000 0.0000 0.0000 0.0000 0.0000 20.4839
#
#
#
# Elastic Compliance Matrix: (Units=1/GPa)
#
#
# Indices 1 2 3 4 5 6 
#
# 1 0.017884 -0.006526 -0.006859 0.000000 0.000000 0.000000
# 2 -0.006526 0.017884 -0.006859 0.000000 0.000000 0.000000
# 3 -0.006859 -0.006859 0.022183 0.000000 0.000000 0.000000
# 4 0.000000 0.000000 0.000000 0.048879 0.000000 0.000000
# 5 0.000000 0.000000 0.000000 0.000000 0.048879 0.000000
# 6 0.000000 0.000000 0.000000 0.000000 0.000000 0.048819
#
#
# Mechanical properties :
#
#
# Convention : Reuss Voigt Hill
#
# Bulk Modulus (GPa) = 57.26582 58.53384 57.89983
# Shear Modulus (GPa) = 19.93341 20.06445 19.99893
#
# Velocity S-wave (km/s) = 3.66020 3.67221 3.66621
# Velocity P-wave (km/s) = 7.50669 7.57100 7.53892
#
# Compressibility (1/GPa) = 0.01746242
#
# Stress axis : x y z
#
# Youngs Moduli (GPa) = 55.91710 55.91710 45.08007
#
# Poissons Ratio (x) = 0.36491 0.30920
# Poissons Ratio (y) = 0.36491 0.30920
# Poissons Ratio (z) = 0.38353 0.38353
#
# Static dielectric constant tensor:
#      x y z
#    x 3.185940 0.000000 0.000000 
#    y 0.000000 3.185940 0.000000 
#    z 0.000000 0.000000 2.719900 
# 
# 
# High freq. dielectric constant tensor:
#      x y z
#    x 1.571830 0.000000 0.000000 
#    y 0.000000 1.571830 0.000000 
#    z 0.000000 0.000000 1.534500 
# 
# From -- ./inp_files/11856.got.cif
#   From: 2010.03.12/outbox.cif.g09.slc.cpg/sg194_6_cif.got.tgz:11856.got - 2010.04.01 12:26:19.
