data_PCOD8330526
_publ_section_title
;
Structure prediction by ZEFSAII (Michael W. Deem and Ramdas Pophale) SiO2 
 PCOD8330526
Probable space group: P 63/M M C
;
_chemical_formula_sum "Si O2"
_cell_formula_units_Z 192
_cell_length_a 23.647214
_cell_length_b 23.647214
_cell_length_c 20.756190
_cell_angle_alpha 90.000000
_cell_angle_beta 90.000000
_cell_angle_gamma 120.000000
_cell_volume 10051.670240
_symmetry_space_group_name_H-M "P 63/M M C"
_symmetry_group_IT_number 194
_symmetry_cell_setting 'hexagonal'
loop_
_space_group_symop_operation_xyz
x,y,z
x-y,x,1/2+z
-y,x-y,z
-x,-y,1/2+z
-x+y,-x,z
y,-x+y,1/2+z
x-y,-y,-z
-x,-x+y,-z
y,x,-z
-y,-x,1/2-z
-x+y,y,1/2-z
x,x-y,1/2-z
-x,-y,-z
-x+y,-x,1/2-z
y,-x+y,-z
x,y,1/2-z
x-y,x,-z
-y,x-y,1/2-z
-x+y,y,z
x,x-y,z
-y,-x,z
y,x,1/2+z
x-y,-y,1/2+z
-x,-x+y,1/2+z
loop_
_atom_site_type_symbol
_atom_site_label
_atom_site_fract_x
_atom_site_fract_y
_atom_site_fract_z
Si Si1 0.999209 0.350156 0.676682
Si Si2 0.130242 0.130487 0.324808
Si Si3 0.026566 0.766040 0.604257
Si Si4 0.461132 0.667485 0.405378
Si Si5 0.413095 0.452223 0.933062
Si Si6 0.684577 0.781714 0.479764
Si Si7 0.165790 0.708614 0.525354
Si Si8 0.580127 0.852624 0.177853
O O1 0.017095 0.377729 0.750000
O O2 0.043750 0.318524 0.655910
O O3 0.926322 0.287452 0.673476
O O4 0.004272 0.406229 0.628527
O O5 0.144880 0.148837 0.250000
O O6 0.068378 0.136756 0.347957
O O7 0.194179 0.178988 0.364370
O O8 0.113015 0.056508 0.337396
O O9 0.964535 0.712927 0.565265
O O10 0.084375 0.797193 0.552667
O O11 0.441323 0.720662 0.383873
O O12 0.403603 0.596398 0.390940
O O13 0.479199 0.675441 0.480513
O O14 0.521152 0.674515 0.364364
O O15 0.478637 0.521364 0.922797
O O16 0.349467 0.461726 0.930316
O O17 0.418909 0.418909 0.000000
O O18 0.702639 0.851320 0.449608
O O19 0.606813 0.734546 0.480854
O O20 0.227771 0.772230 0.560652
O O21 0.553377 0.835119 0.250000
O O22 0.604002 0.802001 0.154284
#
# Coordination Sequence:
#
# PCOD8330526 Si02
#       8
#    24  24  24  24  24  24  24  24
#     4  11  23  37  56  84 119 152 187 237 292 344
#     4  10  21  37  56  78 107 146 191 238 289 346
#     4  11  20  34  55  79 113 142 185 233 284 344
#     4  10  19  31  49  74 103 135 176 226 277 326
#     4  11  22  38  61  87 118 156 198 240 290 356
#     4  10  20  33  54  80 107 142 182 231 282 336
#     4  10  20  35  55  78 105 141 185 232 285 341
#     4   9  19  34  50  70 102 146 191 228 266 324
#
# _framework density 19.101303000000001
#
# number of rings (size 3 to 8) (size 9 to 14) (size 15 to 20)
#    0.000    1.750    1.250    4.000    0.000    4.500 
#    0.000    2.500    0.000    2.125    0.000    4.375 
#    0.000    0.000    0.000    0.000    0.000    0.000 
#
# Total GULP energy -2379383.142545 kJ/mol
# GULP energy per Si atom -12392.620534 kJ/mol
# Density = 1.905783 g / cm^3
# Si number density = 19.101303 Si / 1000 Ang^3
#
#
#
# Elastic Constant Matrix: (Units=GPa)
#
#
# Indices 1 2 3 4 5 6 
#
# 1 77.4561 22.6934 30.3065 0.0000 0.0000 0.0000
# 2 22.6934 77.4561 30.3065 0.0000 0.0000 0.0000
# 3 30.3065 30.3065 89.5513 0.0000 0.0000 0.0000
# 4 0.0000 0.0000 0.0000 22.8469 0.0000 0.0000
# 5 0.0000 0.0000 0.0000 0.0000 22.8469 0.0000
# 6 0.0000 0.0000 0.0000 0.0000 0.0000 27.3813
#
#
#
# Elastic Compliance Matrix: (Units=1/GPa)
#
#
# Indices 1 2 3 4 5 6 
#
# 1 0.015409 -0.002852 -0.004250 0.000000 0.000000 0.000000
# 2 -0.002852 0.015409 -0.004250 0.000000 0.000000 0.000000
# 3 -0.004250 -0.004250 0.014043 0.000000 0.000000 0.000000
# 4 0.000000 0.000000 0.000000 0.043770 0.000000 0.000000
# 5 0.000000 0.000000 0.000000 0.000000 0.043770 0.000000
# 6 0.000000 0.000000 0.000000 0.000000 0.000000 0.036521
#
#
# Mechanical properties :
#
#
# Convention : Reuss Voigt Hill
#
# Bulk Modulus (GPa) = 45.12892 45.67513 45.40203
# Shear Modulus (GPa) = 25.12441 25.35883 25.24162
#
# Velocity S-wave (km/s) = 3.63067 3.64757 3.63913
# Velocity P-wave (km/s) = 6.42286 6.45784 6.44037
#
# Compressibility (1/GPa) = 0.02215874
#
# Stress axis : x y z
#
# Youngs Moduli (GPa) = 64.89780 64.89780 71.20902
#
# Poissons Ratio (x) = 0.18507 0.30261
# Poissons Ratio (y) = 0.18507 0.30261
# Poissons Ratio (z) = 0.27579 0.27579
#
# Static dielectric constant tensor:
#      x y z
#    x 3.530520 0.000000 0.000000 
#    y 0.000000 3.530520 0.000000 
#    z 0.000000 0.000000 3.513680 
# 
# 
# High freq. dielectric constant tensor:
#      x y z
#    x 1.742240 0.000000 0.000000 
#    y 0.000000 1.742240 0.000000 
#    z 0.000000 0.000000 1.724910 
# 
# From -- ./inp_files/8694.got.cif
#   From: 2010.03.12/outbox.cif.g09.slc.cpg/sg194_5_cif.got.tgz:8694.got - 2010.04.01 12:26:19.
