data_PCOD8330904
_publ_section_title
;
Structure prediction by ZEFSAII (Michael W. Deem and Ramdas Pophale) SiO2 
 PCOD8330904
Probable space group: I 21 3
;
_chemical_formula_sum "Si O2"
_cell_formula_units_Z 120
_cell_length_a 17.816066
_cell_length_b 17.816066
_cell_length_c 17.816066
_cell_angle_alpha 90.000000
_cell_angle_beta 90.000000
_cell_angle_gamma 90.000000
_cell_volume 5655.036842
_symmetry_space_group_name_H-M "I 21 3"
_symmetry_group_IT_number 199
_symmetry_cell_setting 'cubic'
loop_
_space_group_symop_operation_xyz
x,y,z
z,x,y
y,z,x
-y,1/2-z,x
z,-x,1/2-y
1/2-y,z,-x
-z,1/2-x,y
1/2-z,x,-y
y,-z,1/2-x
-x,1/2-y,z
x,-y,1/2-z
1/2-x,y,-z
1/2+x,1/2+y,1/2+z
1/2+z,1/2+x,1/2+y
1/2+y,1/2+z,1/2+x
1/2-y,-z,1/2+x
1/2+z,1/2-x,-y
-y,1/2+z,1/2-x
1/2-z,-x,1/2+y
-z,1/2+x,1/2-y
1/2+y,1/2-z,-x
1/2-x,-y,1/2+z
1/2+x,1/2-y,-z
-x,1/2+y,1/2-z
loop_
_atom_site_type_symbol
_atom_site_label
_atom_site_fract_x
_atom_site_fract_y
_atom_site_fract_z
Si Si1 0.280831 0.416992 0.347984
Si Si2 0.745815 0.075977 0.911251
Si Si3 0.805936 0.623159 0.861356
Si Si4 0.330593 0.006360 0.474676
Si Si5 0.415758 0.614224 0.638580
O O1 0.290009 0.351207 0.411103
O O2 0.284334 0.498471 0.385597
O O3 0.203691 0.402578 0.302492
O O4 0.783046 0.149406 0.872168
O O5 0.660905 0.074476 0.884198
O O6 0.750000 0.083749 0.000000
O O7 0.855664 0.564120 0.909613
O O8 0.721229 0.591054 0.848917
O O9 0.250000 0.036213 0.500000
O O10 0.376758 0.019697 0.551085
O O11 0.323984 0.922052 0.442077
#
# Coordination Sequence:
#
# PCOD8330904 Si02
#       5
#    24  24  24  24  24
#     4  10  25  42  66  99 143 190 227 277 344 435
#     4  12  25  42  70 106 141 181 237 296 342 423
#     4  11  23  42  68  96 136 183 231 279 356 416
#     4  10  22  42  66  93 125 175 229 285 352 413
#     4  11  23  44  70  96 136 181 228 298 354 421
#
# _framework density 21.220020000000002
#
# number of rings (size 3 to 8) (size 9 to 14) (size 15 to 20)
#    0.400    0.800    4.000    1.600    2.800    2.400 
#    1.200    0.000    0.000    0.000    0.000    0.000 
#    0.000    0.000    0.000    0.000    0.000    0.000 
#
# Total GULP energy -743542.973255 kJ/mol
# GULP energy per Si atom -12392.382888 kJ/mol
# Density = 2.117172 g / cm^3
# Si number density = 21.220020 Si / 1000 Ang^3
#
#
#
# Elastic Constant Matrix: (Units=GPa)
#
#
# Indices 1 2 3 4 5 6 
#
# 1 113.3897 28.9477 28.9477 0.0000 0.0000 0.0000
# 2 28.9477 113.3897 28.9477 0.0000 0.0000 0.0000
# 3 28.9477 28.9477 113.3897 0.0000 0.0000 0.0000
# 4 0.0000 0.0000 0.0000 31.0741 0.0000 0.0000
# 5 0.0000 0.0000 0.0000 0.0000 31.0741 0.0000
# 6 0.0000 0.0000 0.0000 0.0000 0.0000 31.0741
#
#
#
# Elastic Compliance Matrix: (Units=1/GPa)
#
#
# Indices 1 2 3 4 5 6 
#
# 1 0.009841 -0.002001 -0.002001 0.000000 0.000000 0.000000
# 2 -0.002001 0.009841 -0.002001 0.000000 0.000000 0.000000
# 3 -0.002001 -0.002001 0.009841 0.000000 0.000000 0.000000
# 4 0.000000 0.000000 0.000000 0.032181 0.000000 0.000000
# 5 0.000000 0.000000 0.000000 0.000000 0.032181 0.000000
# 6 0.000000 0.000000 0.000000 0.000000 0.000000 0.032181
#
#
# Mechanical properties :
#
#
# Convention : Reuss Voigt Hill
#
# Bulk Modulus (GPa) = 57.09503 57.09503 57.09503
# Shear Modulus (GPa) = 34.74313 35.53284 35.13799
#
# Velocity S-wave (km/s) = 4.05072 4.09650 4.07368
# Velocity P-wave (km/s) = 6.98874 7.02422 7.00650
#
# Compressibility (1/GPa) = 0.01751466
#
# Stress axis : x y z
#
# Youngs Moduli (GPa) = 101.61532 101.61532 101.61531
#
# Poissons Ratio (x) = 0.20337 0.20337
# Poissons Ratio (y) = 0.20337 0.20337
# Poissons Ratio (z) = 0.20337 0.20337
#
# Static dielectric constant tensor:
#      x y z
#    x 3.785470 0.000000 0.000000 
#    y 0.000000 3.785470 0.000000 
#    z 0.000000 0.000000 3.785470 
# 
# 
# High freq. dielectric constant tensor:
#      x y z
#    x 1.830180 0.000000 0.000000 
#    y 0.000000 1.830180 0.000000 
#    z 0.000000 0.000000 1.830180 
# 
# From -- ./inp_files/641.got.cif
#   From: 2010.03.12/outbox.cif.g09.slc.cpg/sg199_cif.got.tgz:641.got - 2010.04.01 12:34:00.
