data_PCOD8330784
_publ_section_title
;
Structure prediction by ZEFSAII (Michael W. Deem and Ramdas Pophale) SiO2 
 PCOD8330784
Probable space group: P 63/M M C
;
_chemical_formula_sum "Si O2"
_cell_formula_units_Z 132
_cell_length_a 17.587516
_cell_length_b 17.587516
_cell_length_c 27.682800
_cell_angle_alpha 90.000000
_cell_angle_beta 90.000000
_cell_angle_gamma 120.000000
_cell_volume 7415.657408
_symmetry_space_group_name_H-M "P 63/M M C"
_symmetry_group_IT_number 194
_symmetry_cell_setting 'hexagonal'
loop_
_space_group_symop_operation_xyz
x,y,z
x-y,x,1/2+z
-y,x-y,z
-x,-y,1/2+z
-x+y,-x,z
y,-x+y,1/2+z
x-y,-y,-z
-x,-x+y,-z
y,x,-z
-y,-x,1/2-z
-x+y,y,1/2-z
x,x-y,1/2-z
-x,-y,-z
-x+y,-x,1/2-z
y,-x+y,-z
x,y,1/2-z
x-y,x,-z
-y,x-y,1/2-z
-x+y,y,z
x,x-y,z
-y,-x,z
y,x,1/2+z
x-y,-y,1/2+z
-x,-x+y,1/2+z
loop_
_atom_site_type_symbol
_atom_site_label
_atom_site_fract_x
_atom_site_fract_y
_atom_site_fract_z
Si Si1 0.666679 0.505975 0.966155
Si Si2 0.161742 0.666349 0.574994
Si Si3 0.570869 0.602599 0.660534
Si Si4 0.348144 0.087185 0.612263
Si Si5 0.175148 0.175042 0.445052
Si Si6 0.511735 0.846248 0.750000
O O1 0.735730 0.471459 0.962468
O O2 0.572078 0.427923 0.950070
O O3 0.692015 0.587317 0.932074
O O4 0.666057 0.537432 0.020797
O O5 0.199433 0.599717 0.578727
O O6 0.238256 0.761744 0.590996
O O7 0.079611 0.636194 0.609538
O O8 0.501019 0.498982 0.668197
O O9 0.671060 0.622345 0.657420
O O10 0.561647 0.658444 0.703328
O O11 0.353122 0.176561 0.630587
O O12 0.251428 0.018686 0.592933
O O13 0.206728 0.206728 0.500000
O O14 0.187318 0.093659 0.430619
O O15 0.072985 0.145969 0.440822
O O16 0.410020 0.820039 0.750000
O O17 0.516794 0.758397 0.750000
#
# Coordination Sequence:
#
# PCOD8330784 Si02
#       6
#    24  24  24  24  24  12
#     4   9  17  29  46  69 101 139 176 207 239 287
#     4   9  17  28  45  70 101 138 173 205 242 292
#     4  10  21  35  52  74 102 134 168 209 257 304
#     4  10  21  34  49  73 101 131 169 210 253 300
#     4   9  18  31  47  66  91 126 166 208 251 296
#     4  10  21  38  59  84 110 138 168 200 241 294
#
# _framework density 17.800174999999999
#
# number of rings (size 3 to 8) (size 9 to 14) (size 15 to 20)
#    0.000    2.545    0.000    1.727    2.545    3.636 
#    0.000    5.000    0.000    0.364    0.000    0.000 
#    0.000    0.000    0.000    0.000    0.000    0.000 
#
# Total GULP energy -1636762.689993 kJ/mol
# GULP energy per Si atom -12399.717348 kJ/mol
# Density = 1.775966 g / cm^3
# Si number density = 17.800175 Si / 1000 Ang^3
#
#
#
# Elastic Constant Matrix: (Units=GPa)
#
#
# Indices 1 2 3 4 5 6 
#
# 1 102.1123 56.2600 44.5942 0.0000 0.0000 0.0000
# 2 56.2600 102.1123 44.5942 0.0000 0.0000 0.0000
# 3 44.5942 44.5942 68.7995 0.0000 0.0000 0.0000
# 4 0.0000 0.0000 0.0000 20.6566 0.0000 0.0000
# 5 0.0000 0.0000 0.0000 0.0000 20.6566 0.0000
# 6 0.0000 0.0000 0.0000 0.0000 0.0000 22.9262
#
#
#
# Elastic Compliance Matrix: (Units=1/GPa)
#
#
# Indices 1 2 3 4 5 6 
#
# 1 0.015877 -0.005933 -0.006446 0.000000 0.000000 0.000000
# 2 -0.005933 0.015877 -0.006446 0.000000 0.000000 0.000000
# 3 -0.006446 -0.006446 0.022891 0.000000 0.000000 0.000000
# 4 0.000000 0.000000 0.000000 0.048411 0.000000 0.000000
# 5 0.000000 0.000000 0.000000 0.000000 0.048411 0.000000
# 6 0.000000 0.000000 0.000000 0.000000 0.000000 0.043618
#
#
# Mechanical properties :
#
#
# Convention : Reuss Voigt Hill
#
# Bulk Modulus (GPa) = 58.83480 62.65787 60.74634
# Shear Modulus (GPa) = 20.97348 21.35291 21.16319
#
# Velocity S-wave (km/s) = 3.43632 3.46727 3.45183
# Velocity P-wave (km/s) = 6.99064 7.16285 7.07727
#
# Compressibility (1/GPa) = 0.01699674
#
# Stress axis : x y z
#
# Youngs Moduli (GPa) = 62.98572 62.98572 43.68591
#
# Poissons Ratio (x) = 0.37366 0.28158
# Poissons Ratio (y) = 0.37366 0.28158
# Poissons Ratio (z) = 0.40598 0.40598
#
# Static dielectric constant tensor:
#      x y z
#    x 3.314390 0.000000 0.000000 
#    y 0.000000 3.314390 0.000000 
#    z 0.000000 0.000000 3.053760 
# 
# 
# High freq. dielectric constant tensor:
#      x y z
#    x 1.690310 0.000000 0.000000 
#    y 0.000000 1.690310 0.000000 
#    z 0.000000 0.000000 1.652580 
# 
# From -- ./inp_files/9484.got.cif
#   From: 2010.03.12/outbox.cif.g09.slc.cpg/sg194_5_cif.got.tgz:9484.got - 2010.04.01 12:26:19.
