data_PCOD8330722
_publ_section_title
;
Structure prediction by ZEFSAII (Michael W. Deem and Ramdas Pophale) SiO2 
 PCOD8330722
Probable space group: P 63/M M C
;
_chemical_formula_sum "Si O2"
_cell_formula_units_Z 126
_cell_length_a 30.888409
_cell_length_b 30.888409
_cell_length_c 9.172801
_cell_angle_alpha 90.000000
_cell_angle_beta 90.000000
_cell_angle_gamma 120.000000
_cell_volume 7579.205490
_symmetry_space_group_name_H-M "P 63/M M C"
_symmetry_group_IT_number 194
_symmetry_cell_setting 'hexagonal'
loop_
_space_group_symop_operation_xyz
x,y,z
x-y,x,1/2+z
-y,x-y,z
-x,-y,1/2+z
-x+y,-x,z
y,-x+y,1/2+z
x-y,-y,-z
-x,-x+y,-z
y,x,-z
-y,-x,1/2-z
-x+y,y,1/2-z
x,x-y,1/2-z
-x,-y,-z
-x+y,-x,1/2-z
y,-x+y,-z
x,y,1/2-z
x-y,x,-z
-y,x-y,1/2-z
-x+y,y,z
x,x-y,z
-y,-x,z
y,x,1/2+z
x-y,-y,1/2+z
-x,-x+y,1/2+z
loop_
_atom_site_type_symbol
_atom_site_label
_atom_site_fract_x
_atom_site_fract_y
_atom_site_fract_z
Si Si1 0.051244 0.354702 0.420109
Si Si2 0.199756 0.599878 0.501053
Si Si3 0.594389 0.847910 0.921738
Si Si4 0.951684 0.406755 0.916884
Si Si5 0.301927 0.505458 0.088307
Si Si6 0.549124 0.098247 0.092509
Si Si7 0.727812 0.363906 0.250000
O O1 0.049638 0.339614 0.250000
O O2 0.101485 0.362100 0.499472
O O3 0.055383 0.408031 0.435989
O O4 0.000000 0.312875 0.500000
O O5 0.197616 0.554426 0.408795
O O6 0.156723 0.578362 0.622557
O O7 0.248281 0.624141 0.594624
O O8 0.596160 0.858780 0.750000
O O9 0.605554 0.802777 0.954295
O O10 0.539066 0.833259 0.979105
O O11 0.954808 0.422305 0.750000
O O12 0.908263 0.410966 0.996503
O O13 0.000000 0.448273 0.000000
O O14 0.293369 0.481803 0.250000
O O15 0.260821 0.521641 0.051840
O O16 0.535139 0.070278 0.250000
O O17 0.695887 0.391774 0.250000
#
# Coordination Sequence:
#
# PCOD8330722 Si02
#       7
#    24  12  24  24  24  12   6
#     4  10  20  34  54  77 101 129 164 201 239 283
#     4  12  23  37  55  73  91 116 146 185 233 284
#     4  10  21  36  55  77 104 135 165 200 243 291
#     4  10  21  36  52  70  95 126 155 182 219 266
#     4  10  22  38  55  73  95 119 149 188 235 287
#     4  12  24  34  47  69  93 115 145 179 219 265
#     4  10  24  42  58  72  90 110 140 184 234 290
#
# _framework density 16.624434000000001
#
# number of rings (size 3 to 8) (size 9 to 14) (size 15 to 20)
#    0.095    1.524    0.476    4.286    1.333    8.000 
#    0.571    0.000    0.000    0.000    0.000    0.000 
#    0.000    0.000    0.000    0.000    0.000    0.000 
#
# Total GULP energy -1561064.963698 kJ/mol
# GULP energy per Si atom -12389.404474 kJ/mol
# Density = 1.658660 g / cm^3
# Si number density = 16.624434 Si / 1000 Ang^3
#
#
#
# Elastic Constant Matrix: (Units=GPa)
#
#
# Indices 1 2 3 4 5 6 
#
# 1 65.5112 37.0096 36.6664 0.0000 0.0000 0.0000
# 2 37.0096 65.5112 36.6664 0.0000 0.0000 0.0000
# 3 36.6664 36.6664 129.0101 0.0000 0.0000 0.0000
# 4 0.0000 0.0000 0.0000 21.7627 0.0000 0.0000
# 5 0.0000 0.0000 0.0000 0.0000 21.7627 0.0000
# 6 0.0000 0.0000 0.0000 0.0000 0.0000 14.2508
#
#
#
# Elastic Compliance Matrix: (Units=1/GPa)
#
#
# Indices 1 2 3 4 5 6 
#
# 1 0.023664 -0.011421 -0.003480 0.000000 0.000000 0.000000
# 2 -0.011421 0.023664 -0.003480 0.000000 0.000000 0.000000
# 3 -0.003480 -0.003480 0.009729 0.000000 0.000000 0.000000
# 4 0.000000 0.000000 0.000000 0.045950 0.000000 0.000000
# 5 0.000000 0.000000 0.000000 0.000000 0.045950 0.000000
# 6 0.000000 0.000000 0.000000 0.000000 0.000000 0.070171
#
#
# Mechanical properties :
#
#
# Convention : Reuss Voigt Hill
#
# Bulk Modulus (GPa) = 49.26872 53.41302 51.34087
# Shear Modulus (GPa) = 19.03626 21.53459 20.28542
#
# Velocity S-wave (km/s) = 3.38757 3.60301 3.49695
# Velocity P-wave (km/s) = 6.70832 7.03619 6.87421
#
# Compressibility (1/GPa) = 0.02029685
#
# Stress axis : x y z
#
# Youngs Moduli (GPa) = 42.25760 42.25760 102.78284
#
# Poissons Ratio (x) = 0.48264 0.35765
# Poissons Ratio (y) = 0.48264 0.35765
# Poissons Ratio (z) = 0.14704 0.14704
#
# Static dielectric constant tensor:
#      x y z
#    x 3.042660 0.000000 0.000000 
#    y 0.000000 3.042660 0.000000 
#    z 0.000000 0.000000 3.268030 
# 
# 
# High freq. dielectric constant tensor:
#      x y z
#    x 1.610730 0.000000 0.000000 
#    y 0.000000 1.610730 0.000000 
#    z 0.000000 0.000000 1.661160 
# 
# From -- ./inp_files/2057.got.cif
#   From: 2010.03.12/outbox.cif.g09.slc.cpg/sg194_2_cif.got.tgz:2057.got - 2010.04.01 12:26:19.
