data_PCOD8330093
_publ_section_title
;
Structure prediction by ZEFSAII (Michael W. Deem and Ramdas Pophale) SiO2 
 PCOD8330093
Probable space group: P 63/M C M
;
_chemical_formula_sum "Si O2"
_cell_formula_units_Z 128
_cell_length_a 20.878518
_cell_length_b 20.878518
_cell_length_c 18.508727
_cell_angle_alpha 90.000000
_cell_angle_beta 90.000000
_cell_angle_gamma 120.000000
_cell_volume 6987.253792
_symmetry_space_group_name_H-M "P 63/M C M"
_symmetry_group_IT_number 193
_symmetry_cell_setting 'hexagonal'
loop_
_space_group_symop_operation_xyz
x,y,z
x-y,x,1/2+z
-y,x-y,z
-x,-y,1/2+z
-x+y,-x,z
y,-x+y,1/2+z
x-y,-y,1/2-z
-x,-x+y,1/2-z
y,x,1/2-z
-y,-x,-z
-x+y,y,-z
x,x-y,-z
-x,-y,-z
-x+y,-x,1/2-z
y,-x+y,-z
x,y,1/2-z
x-y,x,-z
-y,x-y,1/2-z
-x+y,y,1/2+z
x,x-y,1/2+z
-y,-x,1/2+z
y,x,z
x-y,-y,z
-x,-x+y,z
loop_
_atom_site_type_symbol
_atom_site_label
_atom_site_fract_x
_atom_site_fract_y
_atom_site_fract_z
Si Si1 0.916165 0.355335 0.087183
Si Si2 0.084541 0.303382 0.667192
Si Si3 0.333334 0.666667 0.665244
Si Si4 0.686219 0.768287 0.167111
Si Si5 0.847903 0.279149 0.550968
Si Si6 0.395247 0.808082 0.916992
O O1 0.881529 0.275658 0.128050
O O2 0.878130 0.404115 0.104493
O O3 0.000000 0.404812 0.112317
O O4 0.910318 0.338814 0.001976
O O5 0.090600 0.332473 0.750000
O O6 0.142874 0.274307 0.656303
O O7 0.109638 0.367649 0.609081
O O8 0.000000 0.238552 0.651700
O O9 0.333334 0.666668 0.750000
O O10 0.353937 0.607511 0.635509
O O11 0.669608 0.746661 0.250000
O O12 0.742163 0.742163 0.135699
O O13 0.786341 0.213660 0.500000
O O14 0.816928 0.323769 0.596646
O O15 0.392092 0.784183 0.000000
#
# Coordination Sequence:
#
# PCOD8330093 Si02
#       6
#    24  24   8  24  24  24
#     4  10  20  35  57  81 106 141 185 227 274 323
#     4  10  21  36  56  82 114 146 175 215 271 330
#     4  12  25  38  55  78 100 140 190 231 271 323
#     4   9  18  34  56  80 109 143 182 225 267 319
#     4  11  20  35  56  82 108 144 181 227 275 322
#     4  10  22  38  56  76 106 140 181 230 279 323
#
# _framework density 18.319071000000001
#
# number of rings (size 3 to 8) (size 9 to 14) (size 15 to 20)
#    0.000    1.875    1.875    3.375    0.000    5.625 
#    0.000    0.000    0.000    2.625    0.000    2.625 
#    0.000    0.750    0.000    0.000    0.000    0.000 
#
# Total GULP energy -1586019.377171 kJ/mol
# GULP energy per Si atom -12390.776384 kJ/mol
# Density = 1.827738 g / cm^3
# Si number density = 18.319071 Si / 1000 Ang^3
#
#
#
# Elastic Constant Matrix: (Units=GPa)
#
#
# Indices 1 2 3 4 5 6 
#
# 1 106.9444 45.5639 40.5651 -0.0001 0.0004 -0.0005
# 2 45.5639 106.9458 40.5635 0.0000 -0.0003 0.0011
# 3 40.5651 40.5635 60.2418 -0.0001 0.0001 -0.0003
# 4 -0.0001 0.0000 -0.0001 21.7930 0.0000 0.0004
# 5 0.0004 -0.0003 0.0001 0.0000 21.7931 0.0000
# 6 -0.0005 0.0011 -0.0003 0.0004 0.0000 30.6868
#
#
#
# Elastic Compliance Matrix: (Units=1/GPa)
#
#
# Indices 1 2 3 4 5 6 
#
# 1 0.013254 -0.003038 -0.006880 0.000000 0.000000 0.000000
# 2 -0.003038 0.013254 -0.006879 0.000000 0.000000 -0.000001
# 3 -0.006880 -0.006879 0.025864 0.000000 0.000000 0.000000
# 4 0.000000 0.000000 0.000000 0.045886 0.000000 -0.000001
# 5 0.000000 0.000000 0.000000 0.000000 0.045886 0.000000
# 6 0.000000 -0.000001 0.000000 -0.000001 0.000000 0.032587
#
#
# Mechanical properties :
#
#
# Convention : Reuss Voigt Hill
#
# Bulk Modulus (GPa) = 53.24845 58.61297 55.93071
# Shear Modulus (GPa) = 23.08564 24.68389 23.88477
#
# Velocity S-wave (km/s) = 3.55378 3.67473 3.61476
# Velocity P-wave (km/s) = 6.78008 7.07601 6.92962
#
# Compressibility (1/GPa) = 0.01877989
#
# Stress axis : x y z
#
# Youngs Moduli (GPa) = 75.44673 75.45009 38.66323
#
# Poissons Ratio (x) = 0.22918 0.26600
# Poissons Ratio (y) = 0.22917 0.26596
# Poissons Ratio (z) = 0.51906 0.51902
#
# Static dielectric constant tensor:
#      x y z
#    x 3.439570 0.000000 -0.000010 
#    y 0.000000 3.439560 0.000000 
#    z -0.000010 0.000000 3.362170 
# 
# 
# High freq. dielectric constant tensor:
#      x y z
#    x 1.704730 0.000000 0.000000 
#    y 0.000000 1.704730 0.000000 
#    z 0.000000 0.000000 1.703800 
# 
# From -- ./inp_files/6472.got.cif
#   From: 2010.03.12/outbox.cif.g09.slc.cpg/sg193_4_cif.got.tgz:6472.got - 2010.04.01 12:20:39.
