data_PCOD8330989
_publ_section_title
;
Structure prediction by ZEFSAII (Michael W. Deem and Ramdas Pophale) SiO2 
 PCOD8330989
Probable space group: P 42 3 2
;
_chemical_formula_sum "Si O2"
_cell_formula_units_Z 114
_cell_length_a 17.194568
_cell_length_b 17.194568
_cell_length_c 17.194568
_cell_angle_alpha 90.000000
_cell_angle_beta 90.000000
_cell_angle_gamma 90.000000
_cell_volume 5083.628514
_symmetry_space_group_name_H-M "P 42 3 2"
_symmetry_group_IT_number 208
_symmetry_cell_setting 'cubic'
loop_
_space_group_symop_operation_xyz
x,y,z
1/2-y,1/2+x,1/2+z
-x,-y,z
1/2+y,1/2-x,1/2+z
1/2+x,1/2-z,1/2+y
x,-y,-z
1/2+x,1/2+z,1/2-y
1/2+z,1/2+y,1/2-x
-x,y,-z
1/2-z,1/2+y,1/2+x
z,x,y
y,z,x
-y,-z,x
z,-x,-y
-y,z,-x
-z,-x,y
-z,x,-y
y,-z,-x
1/2+y,1/2+x,1/2-z
1/2-y,1/2-x,1/2-z
1/2-x,1/2+z,1/2+y
1/2-x,1/2-z,1/2-y
1/2+z,1/2-y,1/2+x
1/2-z,1/2-y,1/2-x
loop_
_atom_site_type_symbol
_atom_site_label
_atom_site_fract_x
_atom_site_fract_y
_atom_site_fract_z
Si Si1 0.302201 0.302201 0.302200
Si Si2 0.500000 0.500000 0.500000
Si Si3 0.415652 0.456865 0.778671
Si Si4 0.394520 0.394520 0.605481
Si Si5 0.920338 0.532699 0.165270
Si Si6 0.165154 0.669359 0.597356
Si Si7 0.665593 0.124128 0.336246
O O1 0.250000 0.250000 0.250000
O O2 0.244535 0.351270 0.356403
O O3 0.447254 0.447253 0.552748
O O4 0.500000 0.500000 0.785317
O O5 0.398471 0.428376 0.691947
O O6 0.341677 0.509143 0.807086
O O7 0.406340 0.382920 0.835170
O O8 0.932067 0.567934 0.250000
O O9 0.896956 0.601890 0.108986
O O10 0.854142 0.467388 0.169886
O O11 0.000000 0.500000 0.130350
O O12 0.124779 0.750000 0.624779
O O13 0.631224 0.131224 0.250000
O O14 0.750000 0.163024 0.336977
#
# Coordination Sequence:
#
# PCOD8330989 Si02
#       7
#     8   2  24   8  24  24  24
#     4   9  21  40  68 106 141 186 238 305 382 438
#     4  12  24  52  76 112 140 226 228 316 388 460
#     4  12  28  45  76 113 150 201 264 316 387 472
#     4  12  27  51  74 107 162 202 251 319 396 469
#     4  11  22  43  72 100 144 200 243 305 388 460
#     4  11  24  43  71 109 148 190 248 318 380 453
#     4  12  25  46  73 107 153 205 261 317 395 470
#
# _framework density 22.424925999999999
#
# number of rings (size 3 to 8) (size 9 to 14) (size 15 to 20)
#    0.000    0.632    3.158    5.895    2.947    0.842 
#    0.000    4.211    0.000    0.000    0.000    0.000 
#    0.000    0.000    0.000    0.000    0.000    0.000 
#
# Total GULP energy -1412864.456084 kJ/mol
# GULP energy per Si atom -12393.547860 kJ/mol
# Density = 2.237389 g / cm^3
# Si number density = 22.424926 Si / 1000 Ang^3
#
#
#
# Elastic Constant Matrix: (Units=GPa)
#
#
# Indices 1 2 3 4 5 6 
#
# 1 120.8040 54.6748 54.6752 0.0000 0.0000 0.0000
# 2 54.6748 120.8040 54.6752 0.0000 0.0000 0.0000
# 3 54.6752 54.6752 120.8050 0.0000 0.0000 0.0000
# 4 0.0000 0.0000 0.0000 35.4877 0.0000 0.0000
# 5 0.0000 0.0000 0.0000 0.0000 35.4877 0.0000
# 6 0.0000 0.0000 0.0000 0.0000 0.0000 35.4874
#
#
#
# Elastic Compliance Matrix: (Units=1/GPa)
#
#
# Indices 1 2 3 4 5 6 
#
# 1 0.011530 -0.003592 -0.003592 0.000000 0.000000 0.000000
# 2 -0.003592 0.011530 -0.003592 0.000000 0.000000 0.000000
# 3 -0.003592 -0.003592 0.011530 0.000000 0.000000 0.000000
# 4 0.000000 0.000000 0.000000 0.028179 0.000000 0.000000
# 5 0.000000 0.000000 0.000000 0.000000 0.028179 0.000000
# 6 0.000000 0.000000 0.000000 0.000000 0.000000 0.028179
#
#
# Mechanical properties :
#
#
# Convention : Reuss Voigt Hill
#
# Bulk Modulus (GPa) = 76.71816 76.71816 76.71816
# Shear Modulus (GPa) = 34.47702 34.51842 34.49772
#
# Velocity S-wave (km/s) = 3.92528 3.92763 3.92645
# Velocity P-wave (km/s) = 7.40467 7.40633 7.40550
#
# Compressibility (1/GPa) = 0.01303472
#
# Stress axis : x y z
#
# Youngs Moduli (GPa) = 86.73330 86.73330 86.73394
#
# Poissons Ratio (x) = 0.31157 0.31158
# Poissons Ratio (y) = 0.31157 0.31158
# Poissons Ratio (z) = 0.31157 0.31157
#
# Static dielectric constant tensor:
#      x y z
#    x 3.857670 0.000000 0.000000 
#    y 0.000000 3.857670 0.000000 
#    z 0.000000 0.000000 3.857690 
# 
# 
# High freq. dielectric constant tensor:
#      x y z
#    x 1.891910 0.000000 0.000000 
#    y 0.000000 1.891910 0.000000 
#    z 0.000000 0.000000 1.891910 
# 
# From -- ./inp_files/1009.got.cif
#   From: 2010.03.12/outbox.cif.g09.slc.cpg/sg208_cif.got.tgz:1009.got - 2010.03.30 09:03:42.
