data_PCOD8330512
_publ_section_title
;
Structure prediction by ZEFSAII (Michael W. Deem and Ramdas Pophale) SiO2 
 PCOD8330512
Probable space group: P 63/M M C
;
_chemical_formula_sum "Si O2"
_cell_formula_units_Z 144
_cell_length_a 32.251628
_cell_length_b 32.251628
_cell_length_c 9.131560
_cell_angle_alpha 90.000000
_cell_angle_beta 90.000000
_cell_angle_gamma 120.000000
_cell_volume 8225.814139
_symmetry_space_group_name_H-M "P 63/M M C"
_symmetry_group_IT_number 194
_symmetry_cell_setting 'hexagonal'
loop_
_space_group_symop_operation_xyz
x,y,z
x-y,x,1/2+z
-y,x-y,z
-x,-y,1/2+z
-x+y,-x,z
y,-x+y,1/2+z
x-y,-y,-z
-x,-x+y,-z
y,x,-z
-y,-x,1/2-z
-x+y,y,1/2-z
x,x-y,1/2-z
-x,-y,-z
-x+y,-x,1/2-z
y,-x+y,-z
x,y,1/2-z
x-y,x,-z
-y,x-y,1/2-z
-x+y,y,z
x,x-y,z
-y,-x,z
y,x,1/2+z
x-y,-y,1/2+z
-x,-x+y,1/2+z
loop_
_atom_site_type_symbol
_atom_site_label
_atom_site_fract_x
_atom_site_fract_y
_atom_site_fract_z
Si Si1 0.191966 0.477601 0.578889
Si Si2 0.048795 0.857983 0.078744
Si Si3 0.285206 0.381905 0.578535
Si Si4 0.898163 0.699813 0.582039
Si Si5 0.617844 0.570452 0.922533
Si Si6 0.475397 0.856877 0.421361
O O1 0.194435 0.487758 0.750000
O O2 0.241493 0.482986 0.520509
O O3 0.150090 0.424175 0.541508
O O4 0.183157 0.516889 0.499930
O O5 0.041352 0.859906 0.250000
O O6 0.090299 0.909702 0.022699
O O7 0.063843 0.818386 0.043368
O O8 0.000000 0.845582 0.000000
O O9 0.294261 0.379438 0.750000
O O10 0.240906 0.332173 0.527622
O O11 0.331575 0.390166 0.489917
O O12 0.904000 0.688111 0.750000
O O13 0.844781 0.689561 0.555454
O O14 0.617918 0.578807 0.750000
O O15 0.607510 0.517519 0.961065
O O16 0.576193 0.576193 0.000000
O O17 0.474213 0.847585 0.250000
O O18 0.425802 0.851603 0.477516
#
# Coordination Sequence:
#
# PCOD8330512 Si02
#       6
#    24  24  24  24  24  24
#     4   9  18  32  50  74 102 129 160 200 244 291
#     4   9  19  35  53  74  99 126 158 196 237 282
#     4  10  19  31  48  71 100 133 168 206 244 284
#     4   9  18  32  48  68  98 133 166 201 240 283
#     4  10  20  34  50  69  96 130 167 206 248 292
#     4   9  19  35  53  74  99 126 160 203 248 296
#
# _framework density 17.505866000000001
#
# number of rings (size 3 to 8) (size 9 to 14) (size 15 to 20)
#    0.000    2.667    0.000    2.500    0.000    5.000 
#    0.000    3.333    0.000    0.500    0.000    0.000 
#    0.000    0.000    0.000    0.000    0.000    0.000 
#
# Total GULP energy -1785867.036938 kJ/mol
# GULP energy per Si atom -12401.854423 kJ/mol
# Density = 1.746602 g / cm^3
# Si number density = 17.505866 Si / 1000 Ang^3
#
#
#
# Elastic Constant Matrix: (Units=GPa)
#
#
# Indices 1 2 3 4 5 6 
#
# 1 101.3201 57.9763 43.1192 0.0000 0.0000 0.0000
# 2 57.9763 101.3201 43.1192 0.0000 0.0000 0.0000
# 3 43.1192 43.1192 61.4793 0.0000 0.0000 0.0000
# 4 0.0000 0.0000 0.0000 30.9828 0.0000 0.0000
# 5 0.0000 0.0000 0.0000 0.0000 30.9828 0.0000
# 6 0.0000 0.0000 0.0000 0.0000 0.0000 21.6719
#
#
#
# Elastic Compliance Matrix: (Units=1/GPa)
#
#
# Indices 1 2 3 4 5 6 
#
# 1 0.016596 -0.006476 -0.007098 0.000000 0.000000 0.000000
# 2 -0.006476 0.016596 -0.007098 0.000000 0.000000 0.000000
# 3 -0.007098 -0.007098 0.026222 0.000000 0.000000 0.000000
# 4 0.000000 0.000000 0.000000 0.032276 0.000000 0.000000
# 5 0.000000 0.000000 0.000000 0.000000 0.032276 0.000000
# 6 0.000000 0.000000 0.000000 0.000000 0.000000 0.046143
#
#
# Mechanical properties :
#
#
# Convention : Reuss Voigt Hill
#
# Bulk Modulus (GPa) = 55.33798 61.39434 58.36616
# Shear Modulus (GPa) = 22.99118 24.72117 23.85617
#
# Velocity S-wave (km/s) = 3.62794 3.76195 3.69555
# Velocity P-wave (km/s) = 7.01634 7.34960 7.18490
#
# Compressibility (1/GPa) = 0.01807077
#
# Stress axis : x y z
#
# Youngs Moduli (GPa) = 60.25624 60.25624 38.13582
#
# Poissons Ratio (x) = 0.39019 0.27069
# Poissons Ratio (y) = 0.39019 0.27069
# Poissons Ratio (z) = 0.42769 0.42769
#
# Static dielectric constant tensor:
#      x y z
#    x 3.233200 0.000000 0.000000 
#    y 0.000000 3.233200 0.000000 
#    z 0.000000 0.000000 3.179160 
# 
# 
# High freq. dielectric constant tensor:
#      x y z
#    x 1.668160 0.000000 0.000000 
#    y 0.000000 1.668160 0.000000 
#    z 0.000000 0.000000 1.677400 
# 
# From -- ./inp_files/2077.got.cif
#   From: 2010.03.12/outbox.cif.g09.slc.cpg/sg194_2_cif.got.tgz:2077.got - 2010.04.01 12:26:19.
