data_PCOD8330692
_publ_section_title
;
Structure prediction by ZEFSAII (Michael W. Deem and Ramdas Pophale) SiO2 
 PCOD8330692
Probable space group: P 63/M M C
;
_chemical_formula_sum "Si O2"
_cell_formula_units_Z 88
_cell_length_a 25.772795
_cell_length_b 25.772795
_cell_length_c 8.995666
_cell_angle_alpha 90.000000
_cell_angle_beta 90.000000
_cell_angle_gamma 120.000000
_cell_volume 5174.721633
_symmetry_space_group_name_H-M "P 63/M M C"
_symmetry_group_IT_number 194
_symmetry_cell_setting 'hexagonal'
loop_
_space_group_symop_operation_xyz
x,y,z
x-y,x,1/2+z
-y,x-y,z
-x,-y,1/2+z
-x+y,-x,z
y,-x+y,1/2+z
x-y,-y,-z
-x,-x+y,-z
y,x,-z
-y,-x,1/2-z
-x+y,y,1/2-z
x,x-y,1/2-z
-x,-y,-z
-x+y,-x,1/2-z
y,-x+y,-z
x,y,1/2-z
x-y,x,-z
-y,x-y,1/2-z
-x+y,y,z
x,x-y,z
-y,-x,z
y,x,1/2+z
x-y,-y,1/2+z
-x,-x+y,1/2+z
loop_
_atom_site_type_symbol
_atom_site_label
_atom_site_fract_x
_atom_site_fract_y
_atom_site_fract_z
Si Si1 0.602506 0.397494 0.073737
Si Si2 0.820928 0.060142 0.075977
Si Si3 0.510460 0.694943 0.424877
Si Si4 0.116895 0.760246 0.086092
Si Si5 0.333334 0.666667 0.072563
O O1 0.607140 0.392860 0.250000
O O2 0.533379 0.363349 0.021757
O O3 0.633368 0.366633 0.986332
O O4 0.817086 0.050911 0.250000
O O5 0.885481 0.114520 0.026105
O O6 0.767911 0.072865 0.026516
O O7 0.812229 0.000000 0.000000
O O8 0.498191 0.681559 0.250000
O O9 0.501071 0.750535 0.469188
O O10 0.577519 0.708753 0.465971
O O11 0.086925 0.745493 0.250000
O O12 0.179799 0.820202 0.095313
O O13 0.333334 0.666667 0.250000
#
# Coordination Sequence:
#
# PCOD8330692 Si02
#       5
#    12  24  24  24   4
#     4  12  22  28  38  60  85 115 158 208 256 300
#     4  10  20  33  52  79 108 137 165 196 234 271
#     4   9  17  29  44  59  82 121 159 195 244 302
#     4   8  15  29  48  69  92 122 160 198 239 286
#     4  12  22  32  40  48  76 119 163 204 250 314
#
# _framework density 17.005745000000001
#
# number of rings (size 3 to 8) (size 9 to 14) (size 15 to 20)
#    0.000    2.455    1.364    4.091    0.000    2.727 
#    0.000    2.727    0.000    0.273    0.000    0.955 
#    0.000    0.000    0.000    0.000    0.000    0.000 
#
# Total GULP energy -1090836.331169 kJ/mol
# GULP energy per Si atom -12395.867400 kJ/mol
# Density = 1.696704 g / cm^3
# Si number density = 17.005745 Si / 1000 Ang^3
#
#
#
# Elastic Constant Matrix: (Units=GPa)
#
#
# Indices 1 2 3 4 5 6 
#
# 1 83.7671 46.8559 47.3437 0.0001 0.0000 0.0001
# 2 46.8559 83.7673 47.3439 -0.0001 0.0000 0.0000
# 3 47.3437 47.3439 93.2251 0.0001 0.0000 0.0001
# 4 0.0001 -0.0001 0.0001 23.2813 0.0000 0.0000
# 5 0.0000 0.0000 0.0000 0.0000 23.2814 -0.0001
# 6 0.0001 0.0000 0.0001 0.0000 -0.0001 18.4559
#
#
#
# Elastic Compliance Matrix: (Units=1/GPa)
#
#
# Indices 1 2 3 4 5 6 
#
# 1 0.019604 -0.007488 -0.006153 0.000000 0.000000 0.000000
# 2 -0.007488 0.019604 -0.006153 0.000000 0.000000 0.000000
# 3 -0.006153 -0.006153 0.016976 0.000000 0.000000 0.000000
# 4 0.000000 0.000000 0.000000 0.042953 0.000000 0.000000
# 5 0.000000 0.000000 0.000000 0.000000 0.042953 0.000000
# 6 0.000000 0.000000 0.000000 0.000000 0.000000 0.054183
#
#
# Mechanical properties :
#
#
# Convention : Reuss Voigt Hill
#
# Bulk Modulus (GPa) = 60.25525 60.42739 60.34132
# Shear Modulus (GPa) = 20.71311 20.95144 20.83227
#
# Velocity S-wave (km/s) = 3.49378 3.51382 3.50382
# Velocity P-wave (km/s) = 7.19615 7.21618 7.20617
#
# Compressibility (1/GPa) = 0.01659606
#
# Stress axis : x y z
#
# Youngs Moduli (GPa) = 51.01019 51.01019 58.90594
#
# Poissons Ratio (x) = 0.38197 0.36244
# Poissons Ratio (y) = 0.38197 0.36245
# Poissons Ratio (z) = 0.31386 0.31387
#
# Static dielectric constant tensor:
#      x y z
#    x 3.163450 0.000000 0.000000 
#    y 0.000000 3.163450 0.000000 
#    z 0.000000 0.000000 3.159950 
# 
# 
# High freq. dielectric constant tensor:
#      x y z
#    x 1.631650 0.000000 0.000000 
#    y 0.000000 1.631650 0.000000 
#    z 0.000000 0.000000 1.657340 
# 
# From -- ./inp_files/1462.got.cif
#   From: 2010.03.12/outbox.cif.g09.slc.cpg/sg194_1_cif.got.tgz:1462.got - 2010.04.01 12:26:19.
