data_PCOD8330229
_publ_section_title
;
Structure prediction by ZEFSAII (Michael W. Deem and Ramdas Pophale) SiO2 
 PCOD8330229
Probable space group: P 63/M C M
;
_chemical_formula_sum "Si O2"
_cell_formula_units_Z 144
_cell_length_a 21.599458
_cell_length_b 21.599458
_cell_length_c 20.125728
_cell_angle_alpha 90.000000
_cell_angle_beta 90.000000
_cell_angle_gamma 120.000000
_cell_volume 8131.448906
_symmetry_space_group_name_H-M "P 63/M C M"
_symmetry_group_IT_number 193
_symmetry_cell_setting 'hexagonal'
loop_
_space_group_symop_operation_xyz
x,y,z
x-y,x,1/2+z
-y,x-y,z
-x,-y,1/2+z
-x+y,-x,z
y,-x+y,1/2+z
x-y,-y,1/2-z
-x,-x+y,1/2-z
y,x,1/2-z
-y,-x,-z
-x+y,y,-z
x,x-y,-z
-x,-y,-z
-x+y,-x,1/2-z
y,-x+y,-z
x,y,1/2-z
x-y,x,-z
-y,x-y,1/2-z
-x+y,y,1/2+z
x,x-y,1/2+z
-y,-x,1/2+z
y,x,z
x-y,-y,z
-x,-x+y,z
loop_
_atom_site_type_symbol
_atom_site_label
_atom_site_fract_x
_atom_site_fract_y
_atom_site_fract_z
Si Si1 0.787574 0.705927 0.970297
Si Si2 0.747762 0.252239 0.500000
Si Si3 0.816935 0.221673 0.624606
Si Si4 0.778933 0.276432 0.750000
Si Si5 0.171160 0.609112 0.750000
Si Si6 0.919565 0.483129 0.882015
Si Si7 0.922977 0.296623 0.403926
Si Si8 0.169417 0.584709 0.000000
O O1 0.770981 0.770981 0.961823
O O2 0.774778 0.665494 0.898805
O O3 0.867985 0.735969 0.000000
O O4 0.733492 0.647103 0.021699
O O5 0.787094 0.244514 0.563006
O O6 0.666129 0.219992 0.520593
O O7 0.822507 0.270122 0.687279
O O8 0.760553 0.138985 0.643856
O O9 0.781784 0.352170 0.750000
O O10 0.694901 0.219095 0.750000
O O11 0.120298 0.583106 0.687206
O O12 0.919265 0.551363 0.912357
O O13 0.000000 0.498226 0.871889
O O14 0.879226 0.420766 0.936410
O O15 0.000000 0.315139 0.373626
#
# Coordination Sequence:
#
# PCOD8330229 Si02
#       8
#    24  12  24  12  12  24  24  12
#     4   9  17  32  59  88 117 146 180 225 271 335
#     4  12  21  36  52  73 100 138 180 240 278 337
#     4  11  19  37  53  79 108 137 184 226 281 326
#     4  12  25  38  56  73 102 149 189 243 281 348
#     4  12  24  42  54  73 104 143 191 227 287 332
#     4  11  22  37  56  77 102 132 173 229 286 341
#     4   9  16  31  56  81 101 132 172 218 280 330
#     4  12  22  36  54  77 102 134 182 226 284 331
#
# _framework density 17.709021
#
# number of rings (size 3 to 8) (size 9 to 14) (size 15 to 20)
#    0.000    1.333    5.833    1.833    0.000    0.000 
#    0.000   10.000    0.000    0.167    0.000    0.000 
#    0.000    0.000    0.000    0.000    0.000    2.000 
#
# Total GULP energy -1784940.205689 kJ/mol
# GULP energy per Si atom -12395.418095 kJ/mol
# Density = 1.766871 g / cm^3
# Si number density = 17.709021 Si / 1000 Ang^3
#
#
#
# Elastic Constant Matrix: (Units=GPa)
#
#
# Indices 1 2 3 4 5 6 
#
# 1 83.8373 40.3356 31.4243 0.0000 0.0000 0.0000
# 2 40.3356 83.8373 31.4243 0.0000 0.0000 0.0000
# 3 31.4243 31.4243 101.6069 0.0000 0.0000 0.0000
# 4 0.0000 0.0000 0.0000 16.5637 0.0000 0.0000
# 5 0.0000 0.0000 0.0000 0.0000 16.5637 0.0000
# 6 0.0000 0.0000 0.0000 0.0000 0.0000 21.7508
#
#
#
# Elastic Compliance Matrix: (Units=1/GPa)
#
#
# Indices 1 2 3 4 5 6 
#
# 1 0.016268 -0.006720 -0.002953 0.000000 0.000000 0.000000
# 2 -0.006720 0.016268 -0.002953 0.000000 0.000000 0.000000
# 3 -0.002953 -0.002953 0.011668 0.000000 0.000000 0.000000
# 4 0.000000 0.000000 0.000000 0.060373 0.000000 0.000000
# 5 0.000000 0.000000 0.000000 0.000000 0.060373 0.000000
# 6 0.000000 0.000000 0.000000 0.000000 0.000000 0.045975
#
#
# Mechanical properties :
#
#
# Convention : Reuss Voigt Hill
#
# Bulk Modulus (GPa) = 52.76356 52.85002 52.80679
# Shear Modulus (GPa) = 20.61908 22.04880 21.33394
#
# Velocity S-wave (km/s) = 3.41592 3.53237 3.47464
# Velocity P-wave (km/s) = 6.73925 6.82240 6.78095
#
# Compressibility (1/GPa) = 0.01895247
#
# Stress axis : x y z
#
# Youngs Moduli (GPa) = 61.47137 61.47137 85.70186
#
# Poissons Ratio (x) = 0.41308 0.25307
# Poissons Ratio (y) = 0.41308 0.25307
# Poissons Ratio (z) = 0.18152 0.18152
#
# Static dielectric constant tensor:
#      x y z
#    x 3.535490 0.000000 0.000000 
#    y 0.000000 3.535490 0.000000 
#    z 0.000000 0.000000 3.068990 
# 
# 
# High freq. dielectric constant tensor:
#      x y z
#    x 1.677320 0.000000 0.000000 
#    y 0.000000 1.677320 0.000000 
#    z 0.000000 0.000000 1.671790 
# 
# From -- ./inp_files/6678.got.cif
#   From: 2010.03.12/outbox.cif.g09.slc.cpg/sg193_4_cif.got.tgz:6678.got - 2010.04.01 12:20:39.
