data_PCOD8330652
_publ_section_title
;
Structure prediction by ZEFSAII (Michael W. Deem and Ramdas Pophale) SiO2 
 PCOD8330652
Probable space group: P 63/M M C
;
_chemical_formula_sum "Si O2"
_cell_formula_units_Z 168
_cell_length_a 17.971383
_cell_length_b 17.971383
_cell_length_c 30.638836
_cell_angle_alpha 90.000000
_cell_angle_beta 90.000000
_cell_angle_gamma 120.000000
_cell_volume 8569.705417
_symmetry_space_group_name_H-M "P 63/M M C"
_symmetry_group_IT_number 194
_symmetry_cell_setting 'hexagonal'
loop_
_space_group_symop_operation_xyz
x,y,z
x-y,x,1/2+z
-y,x-y,z
-x,-y,1/2+z
-x+y,-x,z
y,-x+y,1/2+z
x-y,-y,-z
-x,-x+y,-z
y,x,-z
-y,-x,1/2-z
-x+y,y,1/2-z
x,x-y,1/2-z
-x,-y,-z
-x+y,-x,1/2-z
y,-x+y,-z
x,y,1/2-z
x-y,x,-z
-y,x-y,1/2-z
-x+y,y,z
x,x-y,z
-y,-x,z
y,x,1/2+z
x-y,-y,1/2+z
-x,-x+y,1/2+z
loop_
_atom_site_type_symbol
_atom_site_label
_atom_site_fract_x
_atom_site_fract_y
_atom_site_fract_z
Si Si1 0.002034 0.172625 0.632940
Si Si2 0.425485 0.024833 0.143729
Si Si3 0.835672 0.500878 0.615249
Si Si4 0.868542 0.302097 0.522978
Si Si5 0.664084 0.159889 0.069841
Si Si6 0.789411 0.038944 0.544155
Si Si7 0.925181 0.679416 0.199933
O O1 0.907864 0.092137 0.637308
O O2 0.019041 0.223214 0.586660
O O3 0.070022 0.140044 0.637017
O O4 0.013617 0.237030 0.671685
O O5 0.515038 0.030076 0.154820
O O6 0.434353 0.083859 0.102387
O O7 0.398512 0.060638 0.185196
O O8 0.352118 0.925902 0.135061
O O9 0.760021 0.520042 0.629535
O O10 0.812811 0.406406 0.631690
O O11 0.843606 0.500022 0.562737
O O12 0.793458 0.206543 0.512349
O O13 0.882084 0.354891 0.478607
O O14 0.951464 0.294618 0.536864
O O15 0.595432 0.190863 0.078961
O O16 0.759159 0.240842 0.076161
O O17 0.870556 0.129445 0.555093
O O18 0.805950 0.000000 0.500000
O O19 0.952930 0.701741 0.250000
O O20 0.825552 0.651103 0.193059
#
# Coordination Sequence:
#
# PCOD8330652 Si02
#       7
#    24  24  24  24  24  24  24
#     4  10  21  37  58  84 116 153 196 243 286 333
#     4  10  22  37  57  85 112 141 182 234 290 343
#     4  10  20  35  53  76 108 148 192 236 284 338
#     4   9  19  30  45  70 101 141 188 233 274 322
#     4  10  20  34  52  76 108 148 190 234 285 342
#     4  10  20  32  48  74 107 148 192 232 278 329
#     4  10  22  40  62  87 114 147 185 227 282 348
#
# _framework density 19.603942
#
# number of rings (size 3 to 8) (size 9 to 14) (size 15 to 20)
#    0.000    2.143    0.000    2.571    4.000    2.286 
#    0.000    3.571    0.000    3.429    0.000    0.000 
#    0.000    1.143    0.000    0.000    0.000    0.000 
#
# Total GULP energy -2082731.930209 kJ/mol
# GULP energy per Si atom -12397.213870 kJ/mol
# Density = 1.955932 g / cm^3
# Si number density = 19.603942 Si / 1000 Ang^3
#
#
#
# Elastic Constant Matrix: (Units=GPa)
#
#
# Indices 1 2 3 4 5 6 
#
# 1 94.8827 55.6941 47.5130 0.0000 0.0000 0.0000
# 2 55.6941 94.8827 47.5130 0.0000 0.0000 0.0000
# 3 47.5130 47.5130 127.2394 0.0000 0.0000 0.0000
# 4 0.0000 0.0000 0.0000 25.9910 0.0000 0.0000
# 5 0.0000 0.0000 0.0000 0.0000 25.9910 0.0000
# 6 0.0000 0.0000 0.0000 0.0000 0.0000 19.5943
#
#
#
# Elastic Compliance Matrix: (Units=1/GPa)
#
#
# Indices 1 2 3 4 5 6 
#
# 1 0.017103 -0.008414 -0.003244 0.000000 0.000000 0.000000
# 2 -0.008414 0.017103 -0.003244 0.000000 0.000000 0.000000
# 3 -0.003244 -0.003244 0.010282 0.000000 0.000000 0.000000
# 4 0.000000 0.000000 0.000000 0.038475 0.000000 0.000000
# 5 0.000000 0.000000 0.000000 0.000000 0.038475 0.000000
# 6 0.000000 0.000000 0.000000 0.000000 0.000000 0.051035
#
#
# Mechanical properties :
#
#
# Convention : Reuss Voigt Hill
#
# Bulk Modulus (GPa) = 68.11204 68.71612 68.41408
# Shear Modulus (GPa) = 24.13429 25.40092 24.76760
#
# Velocity S-wave (km/s) = 3.51250 3.60349 3.55829
# Velocity P-wave (km/s) = 7.16029 7.24168 7.20110
#
# Compressibility (1/GPa) = 0.01468169
#
# Stress axis : x y z
#
# Youngs Moduli (GPa) = 58.46885 58.46885 97.25491
#
# Poissons Ratio (x) = 0.49198 0.31554
# Poissons Ratio (y) = 0.49198 0.31554
# Poissons Ratio (z) = 0.18970 0.18970
#
# Static dielectric constant tensor:
#      x y z
#    x 3.522550 0.000000 0.000000 
#    y 0.000000 3.522550 0.000000 
#    z 0.000000 0.000000 3.454810 
# 
# 
# High freq. dielectric constant tensor:
#      x y z
#    x 1.764240 0.000000 0.000000 
#    y 0.000000 1.764240 0.000000 
#    z 0.000000 0.000000 1.738580 
# 
# From -- ./inp_files/12287.got.cif
#   From: 2010.03.12/outbox.cif.g09.slc.cpg/sg194_7_cif.got.tgz:12287.got - 2010.04.01 12:26:19.
