data_PCOD8330558
_publ_section_title
;
Structure prediction by ZEFSAII (Michael W. Deem and Ramdas Pophale) SiO2 
 PCOD8330558
Probable space group: P 63/M M C
;
_chemical_formula_sum "Si O2"
_cell_formula_units_Z 144
_cell_length_a 22.543437
_cell_length_b 22.543437
_cell_length_c 15.721984
_cell_angle_alpha 90.000000
_cell_angle_beta 90.000000
_cell_angle_gamma 120.000000
_cell_volume 6919.556205
_symmetry_space_group_name_H-M "P 63/M M C"
_symmetry_group_IT_number 194
_symmetry_cell_setting 'hexagonal'
loop_
_space_group_symop_operation_xyz
x,y,z
x-y,x,1/2+z
-y,x-y,z
-x,-y,1/2+z
-x+y,-x,z
y,-x+y,1/2+z
x-y,-y,-z
-x,-x+y,-z
y,x,-z
-y,-x,1/2-z
-x+y,y,1/2-z
x,x-y,1/2-z
-x,-y,-z
-x+y,-x,1/2-z
y,-x+y,-z
x,y,1/2-z
x-y,x,-z
-y,x-y,1/2-z
-x+y,y,z
x,x-y,z
-y,-x,z
y,x,1/2+z
x-y,-y,1/2+z
-x,-x+y,1/2+z
loop_
_atom_site_type_symbol
_atom_site_label
_atom_site_fract_x
_atom_site_fract_y
_atom_site_fract_z
Si Si1 0.546095 0.593197 0.081206
Si Si2 0.333937 0.534065 0.648459
Si Si3 0.869037 0.869516 0.099602
Si Si4 0.334098 0.930731 0.654401
Si Si5 0.194159 0.527792 0.349720
Si Si6 0.203955 0.929141 0.649436
O O1 0.478356 0.521645 0.089188
O O2 0.596512 0.600295 0.157676
O O3 0.525059 0.652405 0.092496
O O4 0.591500 0.591500 0.000000
O O5 0.337115 0.536557 0.750000
O O6 0.262678 0.525356 0.615149
O O7 0.395764 0.604237 0.610696
O O8 0.343401 0.472567 0.610086
O O9 0.936515 0.873029 0.141232
O O10 0.802577 0.796760 0.120645
O O11 0.858404 0.929202 0.139798
O O12 0.879738 0.879738 0.000000
O O13 0.310784 0.905316 0.750000
O O14 0.273028 0.936612 0.609000
O O15 0.176575 0.509527 0.250000
O O16 0.260580 0.521160 0.375553
O O17 0.211490 0.605745 0.366235
O O18 0.206107 0.927492 0.750000
O O19 0.140283 0.859718 0.612603
#
# Coordination Sequence:
#
# PCOD8330558 Si02
#       6
#    24  24  24  24  24  24
#     4  10  21  36  53  76 109 144 176 214 266 333
#     4   9  16  26  43  68  96 124 158 203 248 285
#     4   9  17  30  49  72  97 125 158 197 243 298
#     4  10  19  32  51  72  95 130 174 213 253 308
#     4   9  17  32  57  86 113 143 185 240 298 351
#     4   9  18  32  48  67  93 124 160 204 250 295
#
# _framework density 20.810583999999999
#
# number of rings (size 3 to 8) (size 9 to 14) (size 15 to 20)
#    0.000    2.667    0.000    2.000    0.000    6.667 
#    0.000    2.500    0.000    2.000    0.000    2.333 
#    0.000    0.000    0.000    0.000    0.000    0.333 
#
# Total GULP energy -1784035.061615 kJ/mol
# GULP energy per Si atom -12389.132372 kJ/mol
# Density = 2.076322 g / cm^3
# Si number density = 20.810584 Si / 1000 Ang^3
#
#
#
# Elastic Constant Matrix: (Units=GPa)
#
#
# Indices 1 2 3 4 5 6 
#
# 1 148.9667 90.0967 19.3564 0.0000 0.0000 0.0000
# 2 90.0967 148.9667 19.3564 0.0000 0.0000 0.0000
# 3 19.3564 19.3564 29.4399 0.0000 0.0000 0.0000
# 4 0.0000 0.0000 0.0000 19.3423 0.0000 0.0000
# 5 0.0000 0.0000 0.0000 0.0000 19.3423 0.0000
# 6 0.0000 0.0000 0.0000 0.0000 0.0000 29.4350
#
#
#
# Elastic Compliance Matrix: (Units=1/GPa)
#
#
# Indices 1 2 3 4 5 6 
#
# 1 0.010834 -0.006153 -0.003078 0.000000 0.000000 0.000000
# 2 -0.006153 0.010834 -0.003078 0.000000 0.000000 0.000000
# 3 -0.003078 -0.003078 0.038015 0.000000 0.000000 0.000000
# 4 0.000000 0.000000 0.000000 0.051700 0.000000 0.000000
# 5 0.000000 0.000000 0.000000 0.000000 0.051700 0.000000
# 6 0.000000 0.000000 0.000000 0.000000 0.000000 0.033973
#
#
# Mechanical properties :
#
#
# Convention : Reuss Voigt Hill
#
# Bulk Modulus (GPa) = 28.51775 64.99914 46.75845
# Shear Modulus (GPa) = 21.42590 26.86148 24.14369
#
# Velocity S-wave (km/s) = 3.21217 3.59661 3.40981
# Velocity P-wave (km/s) = 5.24315 6.96771 6.16602
#
# Compressibility (1/GPa) = 0.03506588
#
# Stress axis : x y z
#
# Youngs Moduli (GPa) = 92.30196 92.30196 26.30543
#
# Poissons Ratio (x) = 0.56790 0.08097
# Poissons Ratio (y) = 0.56790 0.08097
# Poissons Ratio (z) = 0.28410 0.28410
#
# Static dielectric constant tensor:
#      x y z
#    x 3.979570 0.000000 0.000000 
#    y 0.000000 3.979570 0.000000 
#    z 0.000000 0.000000 3.424760 
# 
# 
# High freq. dielectric constant tensor:
#      x y z
#    x 1.815890 0.000000 0.000000 
#    y 0.000000 1.815890 0.000000 
#    z 0.000000 0.000000 1.776070 
# 
# From -- ./inp_files/8195.got.cif
#   From: 2010.03.12/outbox.cif.g09.slc.cpg/sg194_5_cif.got.tgz:8195.got - 2010.04.01 12:26:19.
