data_PCOD8330838
_publ_section_title
;
Structure prediction by ZEFSAII (Michael W. Deem and Ramdas Pophale) SiO2 
 PCOD8330838
Probable space group: P 63/M M C
;
_chemical_formula_sum "Si O2"
_cell_formula_units_Z 132
_cell_length_a 17.865391
_cell_length_b 17.865391
_cell_length_c 24.896542
_cell_angle_alpha 90.000000
_cell_angle_beta 90.000000
_cell_angle_gamma 120.000000
_cell_volume 6881.683786
_symmetry_space_group_name_H-M "P 63/M M C"
_symmetry_group_IT_number 194
_symmetry_cell_setting 'hexagonal'
loop_
_space_group_symop_operation_xyz
x,y,z
x-y,x,1/2+z
-y,x-y,z
-x,-y,1/2+z
-x+y,-x,z
y,-x+y,1/2+z
x-y,-y,-z
-x,-x+y,-z
y,x,-z
-y,-x,1/2-z
-x+y,y,1/2-z
x,x-y,1/2-z
-x,-y,-z
-x+y,-x,1/2-z
y,-x+y,-z
x,y,1/2-z
x-y,x,-z
-y,x-y,1/2-z
-x+y,y,z
x,x-y,z
-y,-x,z
y,x,1/2+z
x-y,-y,1/2+z
-x,-x+y,1/2+z
loop_
_atom_site_type_symbol
_atom_site_label
_atom_site_fract_x
_atom_site_fract_y
_atom_site_fract_z
Si Si1 0.498310 0.665236 0.168055
Si Si2 0.834922 0.500665 0.064458
Si Si3 0.971423 0.692076 0.414308
Si Si4 0.171185 0.000000 0.000000
Si Si5 0.758418 0.066950 0.690316
Si Si6 0.305876 0.445026 0.447705
O O1 0.479291 0.739646 0.187856
O O2 0.425528 0.574473 0.192546
O O3 0.590849 0.685121 0.189670
O O4 0.492622 0.657597 0.103439
O O5 0.734127 0.468254 0.073977
O O6 0.855047 0.427524 0.089027
O O7 0.888767 0.596144 0.090403
O O8 0.855225 0.503338 0.001189
O O9 0.959858 0.758526 0.451914
O O10 0.993522 0.733542 0.354440
O O11 0.044165 0.678134 0.441250
O O12 0.158413 0.079207 0.979492
O O13 0.761038 0.031983 0.750000
O O14 0.850509 0.149492 0.675071
O O15 0.202533 0.405065 0.452290
#
# Coordination Sequence:
#
# PCOD8330838 Si02
#       6
#    24  24  24  12  24  24
#     4   9  16  25  40  63  97 139 182 224 272 329
#     4  11  22  35  51  75 110 152 194 238 285 332
#     4  11  20  34  58  82 112 144 183 226 276 329
#     4  12  23  38  59  88 122 150 174 206 263 340
#     4   9  19  35  53  76 105 138 178 226 276 322
#     4   9  17  30  47  73 106 142 181 227 279 330
#
# _framework density 19.181353000000001
#
# number of rings (size 3 to 8) (size 9 to 14) (size 15 to 20)
#    0.000    2.000    1.818    4.273    0.000    4.727 
#    0.000    1.818    0.000    3.273    0.000    0.000 
#    0.000    2.909    0.000    0.000    0.000    0.000 
#
# Total GULP energy -1635963.249511 kJ/mol
# GULP energy per Si atom -12393.660981 kJ/mol
# Density = 1.913770 g / cm^3
# Si number density = 19.181353 Si / 1000 Ang^3
#
#
#
# Elastic Constant Matrix: (Units=GPa)
#
#
# Indices 1 2 3 4 5 6 
#
# 1 76.5282 28.1827 21.9528 0.0000 0.0000 0.0000
# 2 28.1827 76.5282 21.9528 0.0000 0.0000 0.0000
# 3 21.9528 21.9528 103.0173 0.0000 0.0000 0.0000
# 4 0.0000 0.0000 0.0000 11.7461 0.0000 0.0000
# 5 0.0000 0.0000 0.0000 0.0000 11.7461 0.0000
# 6 0.0000 0.0000 0.0000 0.0000 0.0000 24.1728
#
#
#
# Elastic Compliance Matrix: (Units=1/GPa)
#
#
# Indices 1 2 3 4 5 6 
#
# 1 0.015586 -0.005099 -0.002235 0.000000 0.000000 0.000000
# 2 -0.005099 0.015586 -0.002235 0.000000 0.000000 0.000000
# 3 -0.002235 -0.002235 0.010660 0.000000 0.000000 0.000000
# 4 0.000000 0.000000 0.000000 0.085135 0.000000 0.000000
# 5 0.000000 0.000000 0.000000 0.000000 0.085135 0.000000
# 6 0.000000 0.000000 0.000000 0.000000 0.000000 0.041369
#
#
# Mechanical properties :
#
#
# Convention : Reuss Voigt Hill
#
# Bulk Modulus (GPa) = 44.06312 44.47224 44.26768
# Shear Modulus (GPa) = 17.84628 21.79871 19.82250
#
# Velocity S-wave (km/s) = 3.05355 3.37479 3.21818
# Velocity P-wave (km/s) = 5.95432 6.19847 6.07762
#
# Compressibility (1/GPa) = 0.02269472
#
# Stress axis : x y z
#
# Youngs Moduli (GPa) = 64.16101 64.16101 93.81250
#
# Poissons Ratio (x) = 0.32713 0.20965
# Poissons Ratio (y) = 0.32713 0.20965
# Poissons Ratio (z) = 0.14339 0.14339
#
# Static dielectric constant tensor:
#      x y z
#    x 3.317960 0.000000 0.000000 
#    y 0.000000 3.317960 0.000000 
#    z 0.000000 0.000000 3.488070 
# 
# 
# High freq. dielectric constant tensor:
#      x y z
#    x 1.730710 0.000000 0.000000 
#    y 0.000000 1.730710 0.000000 
#    z 0.000000 0.000000 1.723130 
# 
# From -- ./inp_files/10783.got.cif
#   From: 2010.03.12/outbox.cif.g09.slc.cpg/sg194_6_cif.got.tgz:10783.got - 2010.04.01 12:26:19.
