data_PCOD8330524
_publ_section_title
;
Structure prediction by ZEFSAII (Michael W. Deem and Ramdas Pophale) SiO2 
 PCOD8330524
Probable space group: P 63/M M C
;
_chemical_formula_sum "Si O2"
_cell_formula_units_Z 144
_cell_length_a 31.820361
_cell_length_b 31.820361
_cell_length_c 9.030234
_cell_angle_alpha 90.000000
_cell_angle_beta 90.000000
_cell_angle_gamma 120.000000
_cell_volume 7918.443837
_symmetry_space_group_name_H-M "P 63/M M C"
_symmetry_group_IT_number 194
_symmetry_cell_setting 'hexagonal'
loop_
_space_group_symop_operation_xyz
x,y,z
x-y,x,1/2+z
-y,x-y,z
-x,-y,1/2+z
-x+y,-x,z
y,-x+y,1/2+z
x-y,-y,-z
-x,-x+y,-z
y,x,-z
-y,-x,1/2-z
-x+y,y,1/2-z
x,x-y,1/2-z
-x,-y,-z
-x+y,-x,1/2-z
y,-x+y,-z
x,y,1/2-z
x-y,x,-z
-y,x-y,1/2-z
-x+y,y,z
x,x-y,z
-y,-x,z
y,x,1/2+z
x-y,-y,1/2+z
-x,-x+y,1/2+z
loop_
_atom_site_type_symbol
_atom_site_label
_atom_site_fract_x
_atom_site_fract_y
_atom_site_fract_z
Si Si1 0.476215 0.048568 0.923982
Si Si2 0.904509 0.195226 0.916649
Si Si3 0.761525 0.333427 0.926190
Si Si4 0.145157 0.952133 0.576396
Si Si5 0.331056 0.475000 0.074355
Si Si6 0.856917 0.242856 0.080832
O O1 0.468848 0.041589 0.750000
O O2 0.528804 0.057608 0.972220
O O3 0.472480 0.094522 0.978326
O O4 0.433955 0.000000 0.000000
O O5 0.923875 0.212376 0.750000
O O6 0.853426 0.146575 0.913070
O O7 0.942602 0.186167 0.006828
O O8 0.898598 0.236746 0.999088
O O9 0.760150 0.333748 0.750000
O O10 0.759503 0.379752 0.989417
O O11 0.715521 0.284480 0.988261
O O12 0.810978 0.336515 0.981183
O O13 0.154707 0.960273 0.750000
O O14 0.091525 0.908476 0.541298
O O15 0.149801 0.000000 0.500000
O O16 0.324400 0.469817 0.250000
O O17 0.284268 0.432480 0.999071
O O18 0.872961 0.257213 0.250000
O O19 0.805847 0.194154 0.070014
#
# Coordination Sequence:
#
# PCOD8330524 Si02
#       6
#    24  24  24  24  24  24
#     4   9  18  33  52  72  94 121 155 198 248 300
#     4   9  17  31  52  75  99 130 168 208 251 301
#     4   9  16  26  43  69 100 131 164 206 256 307
#     4  10  20  34  54  81 112 145 182 224 268 314
#     4  10  19  31  49  73  99 128 165 207 250 301
#     4  10  20  33  49  71 101 134 167 205 249 299
#
# _framework density 18.185390999999999
#
# number of rings (size 3 to 8) (size 9 to 14) (size 15 to 20)
#    0.000    2.500    0.000    2.667    0.000    8.000 
#    0.000    0.833    0.000    3.667    0.000    0.000 
#    0.000    1.333    0.000    0.000    0.000    0.000 
#
# Total GULP energy -1785732.074254 kJ/mol
# GULP energy per Si atom -12400.917182 kJ/mol
# Density = 1.814400 g / cm^3
# Si number density = 18.185391 Si / 1000 Ang^3
#
#
#
# Elastic Constant Matrix: (Units=GPa)
#
#
# Indices 1 2 3 4 5 6 
#
# 1 105.4627 57.9179 42.6328 0.0000 0.0000 0.0000
# 2 57.9179 105.4627 42.6328 0.0000 0.0000 0.0000
# 3 42.6328 42.6328 70.0583 0.0000 0.0000 0.0000
# 4 0.0000 0.0000 0.0000 25.0550 0.0000 0.0000
# 5 0.0000 0.0000 0.0000 0.0000 25.0550 0.0000
# 6 0.0000 0.0000 0.0000 0.0000 0.0000 23.7724
#
#
#
# Elastic Compliance Matrix: (Units=1/GPa)
#
#
# Indices 1 2 3 4 5 6 
#
# 1 0.015001 -0.006032 -0.005458 0.000000 0.000000 0.000000
# 2 -0.006032 0.015001 -0.005458 0.000000 0.000000 0.000000
# 3 -0.005458 -0.005458 0.020917 0.000000 0.000000 0.000000
# 4 0.000000 0.000000 0.000000 0.039912 0.000000 0.000000
# 5 0.000000 0.000000 0.000000 0.000000 0.039912 0.000000
# 6 0.000000 0.000000 0.000000 0.000000 0.000000 0.042066
#
#
# Mechanical properties :
#
#
# Convention : Reuss Voigt Hill
#
# Bulk Modulus (GPa) = 58.74477 63.03895 60.89186
# Shear Modulus (GPa) = 23.54288 23.96316 23.75302
#
# Velocity S-wave (km/s) = 3.60196 3.63397 3.61800
# Velocity P-wave (km/s) = 7.04786 7.23516 7.14212
#
# Compressibility (1/GPa) = 0.01702279
#
# Stress axis : x y z
#
# Youngs Moduli (GPa) = 66.66240 66.66240 47.80898
#
# Poissons Ratio (x) = 0.40210 0.26094
# Poissons Ratio (y) = 0.40210 0.26094
# Poissons Ratio (z) = 0.36384 0.36384
#
# Static dielectric constant tensor:
#      x y z
#    x 3.382250 0.000000 0.000000 
#    y 0.000000 3.382250 0.000000 
#    z 0.000000 0.000000 3.269620 
# 
# 
# High freq. dielectric constant tensor:
#      x y z
#    x 1.700290 0.000000 0.000000 
#    y 0.000000 1.700290 0.000000 
#    z 0.000000 0.000000 1.691370 
# 
# From -- ./inp_files/2094.got.cif
#   From: 2010.03.12/outbox.cif.g09.slc.cpg/sg194_2_cif.got.tgz:2094.got - 2010.04.01 12:26:19.
