data_PCOD8330918
_publ_section_title
;
Structure prediction by ZEFSAII (Michael W. Deem and Ramdas Pophale) SiO2 
 PCOD8330918
Probable space group: P N 3
;
_chemical_formula_sum "Si O2"
_cell_formula_units_Z 96
_cell_length_a 17.256251
_cell_length_b 17.256251
_cell_length_c 17.256251
_cell_angle_alpha 90.000000
_cell_angle_beta 90.000000
_cell_angle_gamma 90.000000
_cell_volume 5138.535337
_symmetry_space_group_name_H-M "P N 3"
_symmetry_group_IT_number 201
_space_group.IT_coordinate_system_code '2'
_symmetry_cell_setting 'cubic'
loop_
_space_group_symop_operation_xyz
x,y,z
z,x,y
y,z,x
1/2-y,1/2-z,x
z,1/2-x,1/2-y
1/2-y,z,1/2-x
1/2-z,1/2-x,y
1/2-z,x,1/2-y
y,1/2-z,1/2-x
1/2-x,1/2-y,z
x,1/2-y,1/2-z
1/2-x,y,1/2-z
-x,-y,-z
-z,-x,-y
-y,-z,-x
1/2+y,1/2+z,-x
-z,1/2+x,1/2+y
1/2+y,-z,1/2+x
1/2+z,1/2+x,-y
1/2+z,-x,1/2+y
-y,1/2+z,1/2+x
1/2+x,1/2+y,-z
-x,1/2+y,1/2+z
1/2+x,-y,1/2+z
loop_
_atom_site_type_symbol
_atom_site_label
_atom_site_fract_x
_atom_site_fract_y
_atom_site_fract_z
Si Si1 0.790241 0.913006 0.327145
Si Si2 0.506126 0.251632 0.123219
Si Si3 0.006126 0.876781 0.751632
Si Si4 0.790241 0.172855 0.586994
O O1 0.750000 0.878299 0.250000
O O2 0.737875 0.903837 0.404290
O O3 0.869506 0.869506 0.343007
O O4 0.812489 1.000000 0.312489
O O5 0.451509 0.246198 0.048491
O O6 0.483248 0.326841 0.173159
O O7 0.495053 0.174578 0.174578
O O8 0.095710 0.903837 0.762125
O O9 0.750000 0.250000 0.621701
#
# Coordination Sequence:
#
# PCOD8330918 Si02
#       4
#    24  24  24  24
#     4  10  20  34  53  76 102 133 170 212 258 307
#     4  10  20  34  53  77 106 139 174 212 254 302
#     4  10  20  34  53  77 106 139 174 212 254 302
#     4  10  20  34  53  76 102 133 170 212 258 307
#
# _framework density 18.682365999999998
#
# number of rings (size 3 to 8) (size 9 to 14) (size 15 to 20)
#    0.000    2.000    0.000    4.000    0.000    2.500 
#    0.000    0.000    0.000   12.000    0.000   17.500 
#    0.000    0.000    0.000    0.000    0.000    0.000 
#
# Total GULP energy -1190060.451761 kJ/mol
# GULP energy per Si atom -12396.463039 kJ/mol
# Density = 1.863984 g / cm^3
# Si number density = 18.682366 Si / 1000 Ang^3
#
#
#
# Elastic Constant Matrix: (Units=GPa)
#
#
# Indices 1 2 3 4 5 6 
#
# 1 104.5719 46.4212 46.4212 0.0000 0.0000 0.0000
# 2 46.4212 104.5719 46.4212 0.0000 0.0000 0.0000
# 3 46.4212 46.4212 104.5719 0.0000 0.0000 0.0000
# 4 0.0000 0.0000 0.0000 24.9335 0.0000 0.0000
# 5 0.0000 0.0000 0.0000 0.0000 24.9335 0.0000
# 6 0.0000 0.0000 0.0000 0.0000 0.0000 24.9335
#
#
#
# Elastic Compliance Matrix: (Units=1/GPa)
#
#
# Indices 1 2 3 4 5 6 
#
# 1 0.013153 -0.004044 -0.004044 0.000000 0.000000 0.000000
# 2 -0.004044 0.013153 -0.004044 0.000000 0.000000 0.000000
# 3 -0.004044 -0.004044 0.013153 0.000000 0.000000 0.000000
# 4 0.000000 0.000000 0.000000 0.040107 0.000000 0.000000
# 5 0.000000 0.000000 0.000000 0.000000 0.040107 0.000000
# 6 0.000000 0.000000 0.000000 0.000000 0.000000 0.040107
#
#
# Mechanical properties :
#
#
# Convention : Reuss Voigt Hill
#
# Bulk Modulus (GPa) = 65.80476 65.80476 65.80476
# Shear Modulus (GPa) = 26.44006 26.59023 26.51514
#
# Velocity S-wave (km/s) = 3.76605 3.77673 3.77139
# Velocity P-wave (km/s) = 7.36276 7.37005 7.36641
#
# Compressibility (1/GPa) = 0.01519647
#
# Stress axis : x y z
#
# Youngs Moduli (GPa) = 76.02849 76.02849 76.02849
#
# Poissons Ratio (x) = 0.30744 0.30744
# Poissons Ratio (y) = 0.30744 0.30744
# Poissons Ratio (z) = 0.30744 0.30744
#
# Static dielectric constant tensor:
#      x y z
#    x 3.460690 0.000000 0.000000 
#    y 0.000000 3.460690 0.000000 
#    z 0.000000 0.000000 3.460690 
# 
# 
# High freq. dielectric constant tensor:
#      x y z
#    x 1.727710 0.000000 0.000000 
#    y 0.000000 1.727710 0.000000 
#    z 0.000000 0.000000 1.727710 
# 
# From -- ./inp_files/488.got.cif
#   From: 2010.03.12/outbox.cif.g09.slc.cpg/sg201_cif.got.tgz:488.got - 2010.03.30 09:02:05.
