data_PCOD8330090
_publ_section_title
;
Structure prediction by ZEFSAII (Michael W. Deem and Ramdas Pophale) SiO2 
 PCOD8330090
Probable space group: P 63/M C M
;
_chemical_formula_sum "Si O2"
_cell_formula_units_Z 104
_cell_length_a 18.775144
_cell_length_b 18.775144
_cell_length_c 16.601045
_cell_angle_alpha 90.000000
_cell_angle_beta 90.000000
_cell_angle_gamma 120.000000
_cell_volume 5067.953386
_symmetry_space_group_name_H-M "P 63/M C M"
_symmetry_group_IT_number 193
_symmetry_cell_setting 'hexagonal'
loop_
_space_group_symop_operation_xyz
x,y,z
x-y,x,1/2+z
-y,x-y,z
-x,-y,1/2+z
-x+y,-x,z
y,-x+y,1/2+z
x-y,-y,1/2-z
-x,-x+y,1/2-z
y,x,1/2-z
-y,-x,-z
-x+y,y,-z
x,x-y,-z
-x,-y,-z
-x+y,-x,1/2-z
y,-x+y,-z
x,y,1/2-z
x-y,x,-z
-y,x-y,1/2-z
-x+y,y,1/2+z
x,x-y,1/2+z
-y,-x,1/2+z
y,x,z
x-y,-y,z
-x,-x+y,z
loop_
_atom_site_type_symbol
_atom_site_label
_atom_site_fract_x
_atom_site_fract_y
_atom_site_fract_z
Si Si1 0.669572 0.176440 0.154146
Si Si2 0.370054 0.000000 0.346113
Si Si3 0.000000 0.529460 0.345828
Si Si4 0.157105 0.365311 0.345878
Si Si5 0.333334 0.666667 0.594690
Si Si6 0.092626 0.184422 0.345988
O O1 0.667958 0.177170 0.250000
O O2 0.758802 0.199173 0.119671
O O3 0.645275 0.243129 0.124871
O O4 0.607470 0.084089 0.121892
O O5 0.449607 0.000000 0.379108
O O6 0.372558 0.081141 0.380320
O O7 0.366779 0.000000 0.250000
O O8 0.000000 0.531160 0.250000
O O9 0.158492 0.369192 0.250000
O O10 0.146085 0.278541 0.375261
O O11 0.333334 0.666667 0.500000
O O12 0.090189 0.180474 0.250000
O O13 0.134931 0.134931 0.381469
O O14 0.000000 0.143829 0.379758
#
# Coordination Sequence:
#
# PCOD8330090 Si02
#       6
#    24  12  12  24   8  24
#     4  10  20  35  56  82 108 135 171 223 277 324
#     4   9  14  24  38  59  90 126 162 201 248 305
#     4   9  18  30  51  81 106 128 164 215 277 335
#     4   9  16  25  42  66  96 130 168 212 257 300
#     4  12  25  41  58  78 106 146 187 219 262 326
#     4   9  15  22  33  56  96 143 180 208 247 306
#
# _framework density 20.521104999999999
#
# number of rings (size 3 to 8) (size 9 to 14) (size 15 to 20)
#    0.000    2.538    1.154    2.308    1.615    4.615 
#    0.000    0.577    0.000    0.000    0.000    0.000 
#    0.000    0.000    0.000    0.000    0.000    2.769 
#
# Total GULP energy -1289249.217752 kJ/mol
# GULP energy per Si atom -12396.627094 kJ/mol
# Density = 2.047440 g / cm^3
# Si number density = 20.521105 Si / 1000 Ang^3
#
#
#
# Elastic Constant Matrix: (Units=GPa)
#
#
# Indices 1 2 3 4 5 6 
#
# 1 176.3690 81.3549 11.4799 0.0001 -0.0002 0.0000
# 2 81.3549 176.3704 11.4798 0.0000 -0.0001 -0.0002
# 3 11.4799 11.4798 12.8404 0.0001 0.0000 -0.0001
# 4 0.0001 0.0000 0.0001 1.9073 -0.0001 0.0000
# 5 -0.0002 -0.0001 0.0000 -0.0001 1.9071 0.0000
# 6 0.0000 -0.0002 -0.0001 0.0000 0.0000 47.5069
#
#
#
# Elastic Compliance Matrix: (Units=1/GPa)
#
#
# Indices 1 2 3 4 5 6 
#
# 1 0.007370 -0.003154 -0.003769 0.000000 0.000000 0.000000
# 2 -0.003154 0.007370 -0.003769 0.000000 0.000000 0.000000
# 3 -0.003769 -0.003769 0.084619 -0.000005 -0.000002 0.000000
# 4 0.000000 0.000000 -0.000005 0.524312 0.000018 0.000000
# 5 0.000000 0.000000 -0.000002 0.000018 0.524368 0.000000
# 6 0.000000 0.000000 0.000000 0.000000 0.000000 0.021050
#
#
# Mechanical properties :
#
#
# Convention : Reuss Voigt Hill
#
# Bulk Modulus (GPa) = 12.82480 63.80098 38.31289
# Shear Modulus (GPa) = 4.11027 27.68194 15.89610
#
# Velocity S-wave (km/s) = 1.41679 3.67679 2.78622
# Velocity P-wave (km/s) = 2.98990 7.01306 5.39085
#
# Compressibility (1/GPa) = 0.07797392
#
# Stress axis : x y z
#
# Youngs Moduli (GPa) = 135.67944 135.68062 11.81770
#
# Poissons Ratio (x) = 0.42799 0.04454
# Poissons Ratio (y) = 0.42799 0.04454
# Poissons Ratio (z) = 0.51141 0.51140
#
# Static dielectric constant tensor:
#      x y z
#    x 4.058700 0.000000 0.000000 
#    y 0.000000 4.058710 0.000000 
#    z 0.000000 0.000000 2.834200 
# 
# 
# High freq. dielectric constant tensor:
#      x y z
#    x 1.819770 0.000000 0.000000 
#    y 0.000000 1.819770 0.000000 
#    z 0.000000 0.000000 1.715300 
# 
# From -- ./inp_files/6329.got.cif
#   From: 2010.03.12/outbox.cif.g09.slc.cpg/sg193_4_cif.got.tgz:6329.got - 2010.04.01 12:20:39.
