data_PCOD8330237
_publ_section_title
;
Structure prediction by ZEFSAII (Michael W. Deem and Ramdas Pophale) SiO2 
 PCOD8330237
Probable space group: P 63/M C M
;
_chemical_formula_sum "Si O2"
_cell_formula_units_Z 80
_cell_length_a 17.375147
_cell_length_b 17.375147
_cell_length_c 17.063064
_cell_angle_alpha 90.000000
_cell_angle_beta 90.000000
_cell_angle_gamma 120.000000
_cell_volume 4461.127407
_symmetry_space_group_name_H-M "P 63/M C M"
_symmetry_group_IT_number 193
_symmetry_cell_setting 'hexagonal'
loop_
_space_group_symop_operation_xyz
x,y,z
x-y,x,1/2+z
-y,x-y,z
-x,-y,1/2+z
-x+y,-x,z
y,-x+y,1/2+z
x-y,-y,1/2-z
-x,-x+y,1/2-z
y,x,1/2-z
-y,-x,-z
-x+y,y,-z
x,x-y,-z
-x,-y,-z
-x+y,-x,1/2-z
y,-x+y,-z
x,y,1/2-z
x-y,x,-z
-y,x-y,1/2-z
-x+y,y,1/2+z
x,x-y,1/2+z
-y,-x,1/2+z
y,x,z
x-y,-y,z
-x,-x+y,z
loop_
_atom_site_type_symbol
_atom_site_label
_atom_site_fract_x
_atom_site_fract_y
_atom_site_fract_z
Si Si1 0.666668 0.333334 0.592868
Si Si2 0.516954 0.614492 0.554674
Si Si3 0.336410 0.099310 0.051778
Si Si4 0.237896 0.755607 0.342355
O O1 0.666668 0.333334 0.500000
O O2 0.678348 0.251366 0.624731
O O3 0.428545 0.571456 0.500000
O O4 0.536934 0.536934 0.581735
O O5 0.596488 0.686625 0.504272
O O6 0.508973 0.662285 0.631644
O O7 0.392697 0.159342 0.125447
O O8 0.260019 0.000000 0.079117
O O9 0.292410 0.146205 0.000000
O O10 0.241809 0.763854 0.250000
#
# Coordination Sequence:
#
# PCOD8330237 Si02
#       4
#     8  24  24  24
#     4  12  22  35  49  63  94 140 187 219 247 293
#     4   9  17  31  50  69  93 129 171 211 252 304
#     4   9  18  33  52  73  97 129 167 204 250 310
#     4  11  21  31  47  72 100 129 165 214 266 309
#
# _framework density 17.932687000000001
#
# number of rings (size 3 to 8) (size 9 to 14) (size 15 to 20)
#    0.000    2.100    0.000    6.300    0.000    1.200 
#    0.000    0.000    0.000    9.300    0.000    0.000 
#    0.000    0.000    0.000    0.900    0.000    0.000 
#
# Total GULP energy -991184.406627 kJ/mol
# GULP energy per Si atom -12389.805083 kJ/mol
# Density = 1.789187 g / cm^3
# Si number density = 17.932687 Si / 1000 Ang^3
#
#
#
# Elastic Constant Matrix: (Units=GPa)
#
#
# Indices 1 2 3 4 5 6 
#
# 1 85.3191 52.7667 47.4827 -0.0004 -0.0004 0.0007
# 2 52.7667 85.3182 47.4829 0.0004 0.0001 -0.0007
# 3 47.4827 47.4829 145.7196 -0.0001 -0.0002 0.0004
# 4 -0.0004 0.0004 -0.0001 9.2699 -0.0001 -0.0002
# 5 -0.0004 0.0001 -0.0002 -0.0001 9.2698 0.0004
# 6 0.0007 -0.0007 0.0004 -0.0002 0.0004 16.2760
#
#
#
# Elastic Compliance Matrix: (Units=1/GPa)
#
#
# Indices 1 2 3 4 5 6 
#
# 1 0.020027 -0.010693 -0.003041 0.000001 0.000001 -0.000001
# 2 -0.010693 0.020027 -0.003041 -0.000001 -0.000001 0.000001
# 3 -0.003041 -0.003041 0.008845 0.000000 0.000000 0.000000
# 4 0.000001 -0.000001 0.000000 0.107876 0.000001 0.000002
# 5 0.000001 -0.000001 0.000000 0.000001 0.107878 -0.000003
# 6 -0.000001 0.000001 0.000000 0.000002 -0.000003 0.061440
#
#
# Mechanical properties :
#
#
# Convention : Reuss Voigt Hill
#
# Bulk Modulus (GPa) = 65.16255 67.98018 66.57136
# Shear Modulus (GPa) = 13.70769 18.20478 15.95623
#
# Velocity S-wave (km/s) = 2.76777 3.18963 2.98616
# Velocity P-wave (km/s) = 6.82864 7.18024 7.00664
#
# Compressibility (1/GPa) = 0.01534624
#
# Stress axis : x y z
#
# Youngs Moduli (GPa) = 49.93335 49.93261 113.06423
#
# Poissons Ratio (x) = 0.53395 0.34386
# Poissons Ratio (y) = 0.53395 0.34387
# Poissons Ratio (z) = 0.15186 0.15187
#
# Static dielectric constant tensor:
#      x y z
#    x 4.046700 0.000000 0.000000 
#    y 0.000000 4.046690 0.000000 
#    z 0.000000 0.000000 3.015500 
# 
# 
# High freq. dielectric constant tensor:
#      x y z
#    x 1.684500 0.000000 0.000000 
#    y 0.000000 1.684500 0.000000 
#    z 0.000000 0.000000 1.673060 
# 
# From -- ./inp_files/4980.got.cif
#   From: 2010.03.12/outbox.cif.g09.slc.cpg/sg193_3_cif.got.tgz:4980.got - 2010.04.01 12:20:39.
