data_PCOD8330649
_publ_section_title
;
Structure prediction by ZEFSAII (Michael W. Deem and Ramdas Pophale) SiO2 
 PCOD8330649
Probable space group: P 63/M M C
;
_chemical_formula_sum "Si O2"
_cell_formula_units_Z 120
_cell_length_a 17.156408
_cell_length_b 17.156408
_cell_length_c 27.196975
_cell_angle_alpha 90.000000
_cell_angle_beta 90.000000
_cell_angle_gamma 120.000000
_cell_volume 6932.724869
_symmetry_space_group_name_H-M "P 63/M M C"
_symmetry_group_IT_number 194
_symmetry_cell_setting 'hexagonal'
loop_
_space_group_symop_operation_xyz
x,y,z
x-y,x,1/2+z
-y,x-y,z
-x,-y,1/2+z
-x+y,-x,z
y,-x+y,1/2+z
x-y,-y,-z
-x,-x+y,-z
y,x,-z
-y,-x,1/2-z
-x+y,y,1/2-z
x,x-y,1/2-z
-x,-y,-z
-x+y,-x,1/2-z
y,-x+y,-z
x,y,1/2-z
x-y,x,-z
-y,x-y,1/2-z
-x+y,y,z
x,x-y,z
-y,-x,z
y,x,1/2+z
x-y,-y,1/2+z
-x,-x+y,1/2+z
loop_
_atom_site_type_symbol
_atom_site_label
_atom_site_fract_x
_atom_site_fract_y
_atom_site_fract_z
Si Si1 0.371246 0.096321 0.103095
Si Si2 0.428104 0.039544 0.194211
Si Si3 0.155783 0.488063 0.990180
Si Si4 0.062971 0.757329 0.044524
Si Si5 0.504718 0.667040 0.308295
O O1 0.340736 0.170368 0.098682
O O2 0.412398 0.102883 0.157193
O O3 0.447845 0.114965 0.063208
O O4 0.283818 0.998759 0.092901
O O5 0.410004 0.058718 0.250000
O O6 0.528919 0.057838 0.189779
O O7 0.356838 0.937782 0.177638
O O8 0.262377 0.524753 0.990324
O O9 0.137505 0.568753 0.002689
O O10 0.106701 0.410947 0.031039
O O11 0.140235 0.859766 0.054823
O O12 0.000000 0.755846 0.000000
O O13 0.496687 0.666453 0.250000
O O14 0.528924 0.764462 0.330130
O O15 0.408542 0.591459 0.330037
#
# Coordination Sequence:
#
# PCOD8330649 Si02
#       5
#    24  24  24  24  24
#     4  10  20  32  48  69  91 120 158 198 240 283
#     4   9  18  31  46  66  93 125 161 198 232 268
#     4   9  17  29  47  72 100 128 155 182 216 264
#     4   9  18  32  50  72  97 124 153 190 238 288
#     4   8  13  22  38  61  88 117 148 180 214 254
#
# _framework density 17.309211999999999
#
# number of rings (size 3 to 8) (size 9 to 14) (size 15 to 20)
#    0.000    3.000    0.000    4.000    0.000    6.400 
#    0.000    0.000    0.000    4.000    0.000    7.000 
#    0.000    0.000    0.000    0.000    0.000    0.000 
#
# Total GULP energy -1487459.750078 kJ/mol
# GULP energy per Si atom -12395.497917 kJ/mol
# Density = 1.726982 g / cm^3
# Si number density = 17.309212 Si / 1000 Ang^3
#
#
#
# Elastic Constant Matrix: (Units=GPa)
#
#
# Indices 1 2 3 4 5 6 
#
# 1 77.2467 47.6837 25.7436 0.0000 0.0000 0.0000
# 2 47.6837 77.2467 25.7436 0.0000 0.0000 0.0000
# 3 25.7436 25.7436 64.6113 0.0000 0.0000 0.0000
# 4 0.0000 0.0000 0.0000 20.5806 0.0000 0.0000
# 5 0.0000 0.0000 0.0000 0.0000 20.5806 0.0000
# 6 0.0000 0.0000 0.0000 0.0000 0.0000 14.7815
#
#
#
# Elastic Compliance Matrix: (Units=1/GPa)
#
#
# Indices 1 2 3 4 5 6 
#
# 1 0.021702 -0.012124 -0.003816 0.000000 0.000000 0.000000
# 2 -0.012124 0.021702 -0.003816 0.000000 0.000000 0.000000
# 3 -0.003816 -0.003816 0.018518 0.000000 0.000000 0.000000
# 4 0.000000 0.000000 0.000000 0.048589 0.000000 0.000000
# 5 0.000000 0.000000 0.000000 0.000000 0.048589 0.000000
# 6 0.000000 0.000000 0.000000 0.000000 0.000000 0.067652
#
#
# Mechanical properties :
#
#
# Convention : Reuss Voigt Hill
#
# Bulk Modulus (GPa) = 44.62568 46.38293 45.50431
# Shear Modulus (GPa) = 18.26590 19.18413 18.72502
#
# Velocity S-wave (km/s) = 3.25202 3.33275 3.29263
# Velocity P-wave (km/s) = 6.31967 6.45481 6.38760
#
# Compressibility (1/GPa) = 0.02240862
#
# Stress axis : x y z
#
# Youngs Moduli (GPa) = 46.07960 46.07960 54.00163
#
# Poissons Ratio (x) = 0.55869 0.20606
# Poissons Ratio (y) = 0.55869 0.20606
# Poissons Ratio (z) = 0.17583 0.17583
#
# Static dielectric constant tensor:
#      x y z
#    x 3.229300 0.000000 0.000000 
#    y 0.000000 3.229300 0.000000 
#    z 0.000000 0.000000 3.013140 
# 
# 
# High freq. dielectric constant tensor:
#      x y z
#    x 1.655690 0.000000 0.000000 
#    y 0.000000 1.655690 0.000000 
#    z 0.000000 0.000000 1.648670 
# 
# From -- ./inp_files/11891.got.cif
#   From: 2010.03.12/outbox.cif.g09.slc.cpg/sg194_6_cif.got.tgz:11891.got - 2010.04.01 12:26:19.
