data_PCOD8330363
_publ_section_title
;
Structure prediction by ZEFSAII (Michael W. Deem and Ramdas Pophale) SiO2 
 PCOD8330363
Probable space group: P 63/M M C
;
_chemical_formula_sum "Si O2"
_cell_formula_units_Z 168
_cell_length_a 21.463077
_cell_length_b 21.463077
_cell_length_c 25.064940
_cell_angle_alpha 90.000000
_cell_angle_beta 90.000000
_cell_angle_gamma 120.000000
_cell_volume 9999.568696
_symmetry_space_group_name_H-M "P 63/M M C"
_symmetry_group_IT_number 194
_symmetry_cell_setting 'hexagonal'
loop_
_space_group_symop_operation_xyz
x,y,z
x-y,x,1/2+z
-y,x-y,z
-x,-y,1/2+z
-x+y,-x,z
y,-x+y,1/2+z
x-y,-y,-z
-x,-x+y,-z
y,x,-z
-y,-x,1/2-z
-x+y,y,1/2-z
x,x-y,1/2-z
-x,-y,-z
-x+y,-x,1/2-z
y,-x+y,-z
x,y,1/2-z
x-y,x,-z
-y,x-y,1/2-z
-x+y,y,z
x,x-y,z
-y,-x,z
y,x,1/2+z
x-y,-y,1/2+z
-x,-x+y,1/2+z
loop_
_atom_site_type_symbol
_atom_site_label
_atom_site_fract_x
_atom_site_fract_y
_atom_site_fract_z
Si Si1 0.529389 0.915710 0.493006
Si Si2 0.614918 0.878476 0.086264
Si Si3 0.790421 0.069219 0.135212
Si Si4 0.712344 0.566052 0.406063
Si Si5 0.966469 0.313683 0.809378
Si Si6 0.386428 0.470464 0.810350
Si Si7 0.775402 0.959374 0.054509
O O1 0.447112 0.894223 0.483610
O O2 0.554000 0.889433 0.441338
O O3 0.534256 0.877495 0.546047
O O4 0.579895 0.000000 0.500000
O O5 0.588877 0.794438 0.085109
O O6 0.625690 0.903046 0.147791
O O7 0.689109 0.924098 0.053837
O O8 0.863306 0.136695 0.158191
O O9 0.749421 0.096786 0.095625
O O10 0.737597 0.025015 0.183635
O O11 0.810095 0.017374 0.101889
O O12 0.771084 0.542168 0.415265
O O13 0.672938 0.531631 0.350218
O O14 0.933532 0.291188 0.750000
O O15 0.006266 0.399523 0.816894
O O16 0.363444 0.476664 0.750000
O O17 0.463586 0.536415 0.825605
O O18 0.797066 0.898533 0.063955
O O19 0.809004 0.000000 0.000000
#
# Coordination Sequence:
#
# PCOD8330363 Si02
#       7
#    24  24  24  24  24  24  24
#     4  11  21  32  50  73  96 123 157 198 241 287
#     4  10  20  33  49  69  95 125 154 190 240 292
#     4   9  17  29  46  68  96 128 157 188 231 280
#     4  10  19  31  49  72  98 129 164 199 234 276
#     4   9  18  31  48  73  99 120 151 194 236 284
#     4   9  17  30  49  73 102 133 162 196 237 276
#     4  10  18  28  45  67  92 123 158 195 234 278
#
# _framework density 16.800723999999999
#
# number of rings (size 3 to 8) (size 9 to 14) (size 15 to 20)
#    0.000    2.286    0.000    5.143    0.000    4.857 
#    0.000    2.857    0.000    7.714    0.000    0.000 
#    0.000    0.000    0.000    0.857    0.000    0.000 
#
# Total GULP energy -2083286.377311 kJ/mol
# GULP energy per Si atom -12400.514151 kJ/mol
# Density = 1.676249 g / cm^3
# Si number density = 16.800724 Si / 1000 Ang^3
#
#
#
# Elastic Constant Matrix: (Units=GPa)
#
#
# Indices 1 2 3 4 5 6 
#
# 1 86.3193 50.8918 43.0925 0.0000 0.0000 0.0000
# 2 50.8918 86.3193 43.0925 0.0000 0.0000 0.0000
# 3 43.0925 43.0925 96.3282 0.0000 0.0000 0.0000
# 4 0.0000 0.0000 0.0000 13.9022 0.0000 0.0000
# 5 0.0000 0.0000 0.0000 0.0000 13.9022 0.0000
# 6 0.0000 0.0000 0.0000 0.0000 0.0000 17.7137
#
#
#
# Elastic Compliance Matrix: (Units=1/GPa)
#
#
# Indices 1 2 3 4 5 6 
#
# 1 0.019181 -0.009045 -0.004534 0.000000 0.000000 0.000000
# 2 -0.009045 0.019181 -0.004534 0.000000 0.000000 0.000000
# 3 -0.004534 -0.004534 0.014438 0.000000 0.000000 0.000000
# 4 0.000000 0.000000 0.000000 0.071931 0.000000 0.000000
# 5 0.000000 0.000000 0.000000 0.000000 0.071931 0.000000
# 6 0.000000 0.000000 0.000000 0.000000 0.000000 0.056453
#
#
# Mechanical properties :
#
#
# Convention : Reuss Voigt Hill
#
# Bulk Modulus (GPa) = 60.33982 60.34671 60.34326
# Shear Modulus (GPa) = 16.95670 17.89630 17.42650
#
# Velocity S-wave (km/s) = 3.18037 3.26730 3.22413
# Velocity P-wave (km/s) = 7.03415 7.08736 7.06081
#
# Compressibility (1/GPa) = 0.01657280
#
# Stress axis : x y z
#
# Youngs Moduli (GPa) = 52.13367 52.13367 69.26095
#
# Poissons Ratio (x) = 0.47156 0.31406
# Poissons Ratio (y) = 0.47156 0.31406
# Poissons Ratio (z) = 0.23640 0.23640
#
# Static dielectric constant tensor:
#      x y z
#    x 3.110530 0.000000 0.000000 
#    y 0.000000 3.110530 0.000000 
#    z 0.000000 0.000000 3.148210 
# 
# 
# High freq. dielectric constant tensor:
#      x y z
#    x 1.633400 0.000000 0.000000 
#    y 0.000000 1.633400 0.000000 
#    z 0.000000 0.000000 1.648360 
# 
# From -- ./inp_files/9835.got.cif
#   From: 2010.03.12/outbox.cif.g09.slc.cpg/sg194_5_cif.got.tgz:9835.got - 2010.04.01 12:26:19.
