data_PCOD8330345
_publ_section_title
;
Structure prediction by ZEFSAII (Michael W. Deem and Ramdas Pophale) SiO2 
 PCOD8330345
Probable space group: P 63/M M C
;
_chemical_formula_sum "Si O2"
_cell_formula_units_Z 96
_cell_length_a 32.263388
_cell_length_b 32.263388
_cell_length_c 7.675027
_cell_angle_alpha 90.000000
_cell_angle_beta 90.000000
_cell_angle_gamma 120.000000
_cell_volume 6918.795363
_symmetry_space_group_name_H-M "P 63/M M C"
_symmetry_group_IT_number 194
_symmetry_cell_setting 'hexagonal'
loop_
_space_group_symop_operation_xyz
x,y,z
x-y,x,1/2+z
-y,x-y,z
-x,-y,1/2+z
-x+y,-x,z
y,-x+y,1/2+z
x-y,-y,-z
-x,-x+y,-z
y,x,-z
-y,-x,1/2-z
-x+y,y,1/2-z
x,x-y,1/2-z
-x,-y,-z
-x+y,-x,1/2-z
y,-x+y,-z
x,y,1/2-z
x-y,x,-z
-y,x-y,1/2-z
-x+y,y,z
x,x-y,z
-y,-x,z
y,x,1/2+z
x-y,-y,1/2+z
-x,-x+y,1/2+z
loop_
_atom_site_type_symbol
_atom_site_label
_atom_site_fract_x
_atom_site_fract_y
_atom_site_fract_z
Si Si1 0.674496 0.944834 0.549035
Si Si2 0.573690 0.520367 0.953634
Si Si3 0.678457 0.114275 0.057145
Si Si4 0.884200 0.675811 0.750000
Si Si5 0.172945 0.437595 0.250000
O O1 0.683744 0.936977 0.750000
O O2 0.618632 0.925676 0.512083
O O3 0.692771 0.916765 0.424503
O O4 0.702746 0.000000 0.500000
O O5 0.582793 0.520552 0.750000
O O6 0.530926 0.469075 0.017763
O O7 0.561342 0.561342 0.000000
O O8 0.621427 0.531194 0.052910
O O9 0.696543 0.135367 0.250000
O O10 0.702450 0.157980 0.921892
O O11 0.849222 0.698443 0.750000
O O12 0.852032 0.619112 0.750000
O O13 0.230268 0.460535 0.250000
#
# Coordination Sequence:
#
# PCOD8330345 Si02
#       5
#    24  24  24  12  12
#     4  10  18  27  42  61  78 102 138 175 210 248
#     4  10  19  29  41  59  85 115 146 177 208 245
#     4  10  19  29  44  62  81 108 139 172 211 253
#     4   9  18  30  42  57  80 104 128 169 219 252
#     4   9  18  32  45  59  81 104 133 173 212 252
#
# _framework density 13.875247
#
# number of rings (size 3 to 8) (size 9 to 14) (size 15 to 20)
#    0.000    2.250    2.500    1.500    0.000    4.500 
#    0.000    5.000    0.000    0.000    0.000    0.000 
#    0.000    0.000    0.000    3.000    0.000    6.500 
#
# Total GULP energy -1190319.241595 kJ/mol
# GULP energy per Si atom -12399.158767 kJ/mol
# Density = 1.384367 g / cm^3
# Si number density = 13.875247 Si / 1000 Ang^3
#
#
#
# Elastic Constant Matrix: (Units=GPa)
#
#
# Indices 1 2 3 4 5 6 
#
# 1 72.8188 27.7114 37.2862 0.0000 0.0000 0.0000
# 2 27.7114 72.8188 37.2862 0.0000 0.0000 0.0000
# 3 37.2862 37.2862 105.9471 0.0000 0.0000 0.0000
# 4 0.0000 0.0000 0.0000 16.1894 0.0000 0.0000
# 5 0.0000 0.0000 0.0000 0.0000 16.1894 0.0000
# 6 0.0000 0.0000 0.0000 0.0000 0.0000 22.5537
#
#
#
# Elastic Compliance Matrix: (Units=1/GPa)
#
#
# Indices 1 2 3 4 5 6 
#
# 1 0.017815 -0.004354 -0.004738 0.000000 0.000000 0.000000
# 2 -0.004354 0.017815 -0.004738 0.000000 0.000000 0.000000
# 3 -0.004738 -0.004738 0.012773 0.000000 0.000000 0.000000
# 4 0.000000 0.000000 0.000000 0.061769 0.000000 0.000000
# 5 0.000000 0.000000 0.000000 0.000000 0.061769 0.000000
# 6 0.000000 0.000000 0.000000 0.000000 0.000000 0.044339
#
#
# Mechanical properties :
#
#
# Convention : Reuss Voigt Hill
#
# Bulk Modulus (GPa) = 48.20178 50.68362 49.44270
# Shear Modulus (GPa) = 19.93195 20.93990 20.43592
#
# Velocity S-wave (km/s) = 3.79425 3.88900 3.84191
# Velocity P-wave (km/s) = 7.34914 7.53479 7.44255
#
# Compressibility (1/GPa) = 0.02074612
#
# Stress axis : x y z
#
# Youngs Moduli (GPa) = 56.13114 56.13114 78.28847
#
# Poissons Ratio (x) = 0.24439 0.37090
# Poissons Ratio (y) = 0.24439 0.37090
# Poissons Ratio (z) = 0.26592 0.26592
#
# Static dielectric constant tensor:
#      x y z
#    x 2.537290 0.000000 0.000000 
#    y 0.000000 2.537290 0.000000 
#    z 0.000000 0.000000 3.021980 
# 
# 
# High freq. dielectric constant tensor:
#      x y z
#    x 1.492980 0.000000 0.000000 
#    y 0.000000 1.492980 0.000000 
#    z 0.000000 0.000000 1.553260 
# 
# From -- ./inp_files/1745.got.cif
#   From: 2010.03.12/outbox.cif.g09.slc.cpg/sg194_1_cif.got.tgz:1745.got - 2010.04.01 12:26:19.
