data_PCOD8330883
_publ_section_title
;
Structure prediction by ZEFSAII (Michael W. Deem and Ramdas Pophale) SiO2 
 PCOD8330883
Probable space group: I 2 3
;
_chemical_formula_sum "Si O2"
_cell_formula_units_Z 118
_cell_length_a 17.398054
_cell_length_b 17.398054
_cell_length_c 17.398054
_cell_angle_alpha 90.000000
_cell_angle_beta 90.000000
_cell_angle_gamma 90.000000
_cell_volume 5266.256685
_symmetry_space_group_name_H-M "I 2 3"
_symmetry_group_IT_number 197
_symmetry_cell_setting 'cubic'
loop_
_space_group_symop_operation_xyz
x,y,z
z,x,y
y,z,x
-y,-z,x
z,-x,-y
-y,z,-x
-z,-x,y
-z,x,-y
y,-z,-x
-x,-y,z
x,-y,-z
-x,y,-z
1/2+x,1/2+y,1/2+z
1/2+z,1/2+x,1/2+y
1/2+y,1/2+z,1/2+x
1/2-y,1/2-z,1/2+x
1/2+z,1/2-x,1/2-y
1/2-y,1/2+z,1/2-x
1/2-z,1/2-x,1/2+y
1/2-z,1/2+x,1/2-y
1/2+y,1/2-z,1/2-x
1/2-x,1/2-y,1/2+z
1/2+x,1/2-y,1/2-z
1/2-x,1/2+y,1/2-z
loop_
_atom_site_type_symbol
_atom_site_label
_atom_site_fract_x
_atom_site_fract_y
_atom_site_fract_z
Si Si1 0.003668 0.203721 0.205395
Si Si2 0.542963 0.925139 0.144411
Si Si3 0.715824 0.659190 0.071612
Si Si4 0.500000 0.500000 0.500000
Si Si5 0.500000 0.500000 0.898421
Si Si6 0.104196 0.300705 0.893342
Si Si7 0.103996 0.896005 0.896006
O O1 0.933249 0.172953 0.255589
O O2 0.965012 0.247128 0.134492
O O3 0.059205 0.261523 0.251862
O O4 0.054620 0.133321 0.175740
O O5 0.614696 0.923356 0.202745
O O6 0.496743 0.844695 0.141751
O O7 0.500000 0.000000 0.177546
O O8 0.556178 0.938364 0.052592
O O9 0.675092 0.644644 0.152691
O O10 0.552010 0.447991 0.447992
O O11 0.456232 0.566315 0.854073
#
# Coordination Sequence:
#
# PCOD8330883 Si02
#       7
#    24  24  24   2  12  24   8
#     4  12  26  48  70 109 144 196 246 317 393 467
#     4  12  26  45  72 112 147 199 254 313 379 453
#     4  12  26  45  73 106 154 196 253 310 385 464
#     4  12  24  54  84 118 128 184 258 348 396 474
#     4  12  25  45  74 103 142 195 252 312 382 450
#     4  12  26  45  74 102 145 194 246 317 380 469
#     4  12  27  48  81 106 146 187 255 327 396 480
#
# _framework density 22.406808000000002
#
# number of rings (size 3 to 8) (size 9 to 14) (size 15 to 20)
#    0.000    0.000    6.102    3.153    2.847    3.254 
#    0.000    0.000    0.000    0.000    0.000    0.000 
#    0.000    0.000    0.000    0.000    0.000    0.000 
#
# Total GULP energy -731285.920699 kJ/mol
# GULP energy per Si atom -12394.676622 kJ/mol
# Density = 2.235581 g / cm^3
# Si number density = 22.406808 Si / 1000 Ang^3
#
#
#
# Elastic Constant Matrix: (Units=GPa)
#
#
# Indices 1 2 3 4 5 6 
#
# 1 104.8856 37.9607 37.9603 0.0000 0.0000 0.0000
# 2 37.9607 104.8859 37.9604 0.0000 0.0000 0.0000
# 3 37.9603 37.9604 104.8849 0.0000 0.0000 0.0000
# 4 0.0000 0.0000 0.0000 34.6839 0.0000 0.0000
# 5 0.0000 0.0000 0.0000 0.0000 34.6835 0.0000
# 6 0.0000 0.0000 0.0000 0.0000 0.0000 34.6839
#
#
#
# Elastic Compliance Matrix: (Units=1/GPa)
#
#
# Indices 1 2 3 4 5 6 
#
# 1 0.011805 -0.003137 -0.003137 0.000000 0.000000 0.000000
# 2 -0.003137 0.011805 -0.003137 0.000000 0.000000 0.000000
# 3 -0.003137 -0.003137 0.011805 0.000000 0.000000 0.000000
# 4 0.000000 0.000000 0.000000 0.028832 0.000000 0.000000
# 5 0.000000 0.000000 0.000000 0.000000 0.028832 0.000000
# 6 0.000000 0.000000 0.000000 0.000000 0.000000 0.028832
#
#
# Mechanical properties :
#
#
# Convention : Reuss Voigt Hill
#
# Bulk Modulus (GPa) = 60.26882 60.26882 60.26882
# Shear Modulus (GPa) = 34.18472 34.19527 34.18999
#
# Velocity S-wave (km/s) = 3.91018 3.91078 3.91048
# Velocity P-wave (km/s) = 6.88055 6.88101 6.88078
#
# Compressibility (1/GPa) = 0.01659233
#
# Stress axis : x y z
#
# Youngs Moduli (GPa) = 84.71003 84.71019 84.70953
#
# Poissons Ratio (x) = 0.26575 0.26574
# Poissons Ratio (y) = 0.26575 0.26574
# Poissons Ratio (z) = 0.26574 0.26575
#
# Static dielectric constant tensor:
#      x y z
#    x 4.160250 0.000000 0.000000 
#    y 0.000000 4.160240 0.000000 
#    z 0.000000 0.000000 4.160240 
# 
# 
# High freq. dielectric constant tensor:
#      x y z
#    x 1.892990 0.000000 0.000000 
#    y 0.000000 1.892990 0.000000 
#    z 0.000000 0.000000 1.892990 
# 
# From -- ./inp_files/635.got.cif
#   From: 2010.03.12/outbox.cif.g09.slc.cpg/sg197_cif.got.tgz:635.got - 2010.04.01 12:33:32.
