data_PCOD8330510
_publ_section_title
;
Structure prediction by ZEFSAII (Michael W. Deem and Ramdas Pophale) SiO2 
 PCOD8330510
Probable space group: P 63/M M C
;
_chemical_formula_sum "Si O2"
_cell_formula_units_Z 144
_cell_length_a 32.085867
_cell_length_b 32.085867
_cell_length_c 9.163483
_cell_angle_alpha 90.000000
_cell_angle_beta 90.000000
_cell_angle_gamma 120.000000
_cell_volume 8169.938138
_symmetry_space_group_name_H-M "P 63/M M C"
_symmetry_group_IT_number 194
_symmetry_cell_setting 'hexagonal'
loop_
_space_group_symop_operation_xyz
x,y,z
x-y,x,1/2+z
-y,x-y,z
-x,-y,1/2+z
-x+y,-x,z
y,-x+y,1/2+z
x-y,-y,-z
-x,-x+y,-z
y,x,-z
-y,-x,1/2-z
-x+y,y,1/2-z
x,x-y,1/2-z
-x,-y,-z
-x+y,-x,1/2-z
y,-x+y,-z
x,y,1/2-z
x-y,x,-z
-y,x-y,1/2-z
-x+y,y,z
x,x-y,z
-y,-x,z
y,x,1/2+z
x-y,-y,1/2+z
-x,-x+y,1/2+z
loop_
_atom_site_type_symbol
_atom_site_label
_atom_site_fract_x
_atom_site_fract_y
_atom_site_fract_z
Si Si1 0.140950 0.522583 0.420428
Si Si2 0.808848 0.951853 0.421035
Si Si3 0.136472 0.767380 0.581681
Si Si4 0.191965 0.712033 0.582767
Si Si5 0.287262 0.238793 0.921490
Si Si6 0.427769 0.954490 0.586462
O O1 0.132650 0.511941 0.250000
O O2 0.153309 0.576655 0.456849
O O3 0.184165 0.515555 0.477974
O O4 0.093256 0.483358 0.502803
O O5 0.818116 0.959931 0.250000
O O6 0.814020 0.907010 0.476111
O O7 0.755504 0.940930 0.461726
O O8 0.848985 0.000000 0.500000
O O9 0.120753 0.763514 0.750000
O O10 0.179013 0.820988 0.546947
O O11 0.154146 0.729619 0.546694
O O12 0.091980 0.754775 0.477637
O O13 0.186181 0.694976 0.750000
O O14 0.245590 0.754411 0.552184
O O15 0.290837 0.248341 0.750000
O O16 0.278234 0.278234 0.000000
O O17 0.408740 0.953565 0.750000
O O18 0.479292 0.958583 0.592211
O O19 0.431708 0.000000 0.500000
#
# Coordination Sequence:
#
# PCOD8330510 Si02
#       6
#    24  24  24  24  24  24
#     4  10  20  33  51  77 106 134 166 204 247 296
#     4   9  18  31  46  67  94 122 156 199 245 295
#     4   9  18  33  52  73  98 128 162 201 244 289
#     4   9  19  36  56  77 101 130 166 208 250 292
#     4  10  19  31  48  71 100 132 165 202 245 292
#     4   9  16  27  45  69  98 131 164 198 236 279
#
# _framework density 17.625592000000001
#
# number of rings (size 3 to 8) (size 9 to 14) (size 15 to 20)
#    0.000    2.667    0.000    3.000    0.000    6.000 
#    0.000    2.500    0.000    4.500    0.000    0.000 
#    0.000    0.000    0.000    0.000    0.000    0.000 
#
# Total GULP energy -1785814.783355 kJ/mol
# GULP energy per Si atom -12401.491551 kJ/mol
# Density = 1.758547 g / cm^3
# Si number density = 17.625592 Si / 1000 Ang^3
#
#
#
# Elastic Constant Matrix: (Units=GPa)
#
#
# Indices 1 2 3 4 5 6 
#
# 1 87.3323 44.1378 53.1688 0.0000 0.0000 0.0000
# 2 44.1378 87.3323 53.1688 0.0000 0.0000 0.0000
# 3 53.1688 53.1688 102.7472 0.0000 0.0000 0.0000
# 4 0.0000 0.0000 0.0000 31.1581 0.0000 0.0000
# 5 0.0000 0.0000 0.0000 0.0000 31.1581 0.0000
# 6 0.0000 0.0000 0.0000 0.0000 0.0000 21.5972
#
#
#
# Elastic Compliance Matrix: (Units=1/GPa)
#
#
# Indices 1 2 3 4 5 6 
#
# 1 0.018116 -0.005035 -0.006769 0.000000 0.000000 0.000000
# 2 -0.005035 0.018116 -0.006769 0.000000 0.000000 0.000000
# 3 -0.006769 -0.006769 0.016739 0.000000 0.000000 0.000000
# 4 0.000000 0.000000 0.000000 0.032094 0.000000 0.000000
# 5 0.000000 0.000000 0.000000 0.000000 0.032094 0.000000
# 6 0.000000 0.000000 0.000000 0.000000 0.000000 0.046302
#
#
# Mechanical properties :
#
#
# Convention : Reuss Voigt Hill
#
# Bulk Modulus (GPa) = 63.19406 64.26253 63.72829
# Shear Modulus (GPa) = 24.28553 25.24512 24.76532
#
# Velocity S-wave (km/s) = 3.71598 3.78868 3.75250
# Velocity P-wave (km/s) = 7.37175 7.46175 7.41689
#
# Compressibility (1/GPa) = 0.01582427
#
# Stress axis : x y z
#
# Youngs Moduli (GPa) = 55.19873 55.19873 59.74235
#
# Poissons Ratio (x) = 0.27791 0.40442
# Poissons Ratio (y) = 0.27791 0.40442
# Poissons Ratio (z) = 0.37366 0.37366
#
# Static dielectric constant tensor:
#      x y z
#    x 3.129970 0.000000 0.000000 
#    y 0.000000 3.129970 0.000000 
#    z 0.000000 0.000000 3.287000 
# 
# 
# High freq. dielectric constant tensor:
#      x y z
#    x 1.666750 0.000000 0.000000 
#    y 0.000000 1.666750 0.000000 
#    z 0.000000 0.000000 1.688150 
# 
# From -- ./inp_files/2107.got.cif
#   From: 2010.03.12/outbox.cif.g09.slc.cpg/sg194_2_cif.got.tgz:2107.got - 2010.04.01 12:26:19.
