data_PCOD8330082
_publ_section_title
;
Structure prediction by ZEFSAII (Michael W. Deem and Ramdas Pophale) SiO2 
 PCOD8330082
Probable space group: P 63/M C M
;
_chemical_formula_sum "Si O2"
_cell_formula_units_Z 120
_cell_length_a 13.889412
_cell_length_b 13.889412
_cell_length_c 35.008386
_cell_angle_alpha 90.000000
_cell_angle_beta 90.000000
_cell_angle_gamma 120.000000
_cell_volume 5848.849435
_symmetry_space_group_name_H-M "P 63/M C M"
_symmetry_group_IT_number 193
_symmetry_cell_setting 'hexagonal'
loop_
_space_group_symop_operation_xyz
x,y,z
x-y,x,1/2+z
-y,x-y,z
-x,-y,1/2+z
-x+y,-x,z
y,-x+y,1/2+z
x-y,-y,1/2-z
-x,-x+y,1/2-z
y,x,1/2-z
-y,-x,-z
-x+y,y,-z
x,x-y,-z
-x,-y,-z
-x+y,-x,1/2-z
y,-x+y,-z
x,y,1/2-z
x-y,x,-z
-y,x-y,1/2-z
-x+y,y,1/2+z
x,x-y,1/2+z
-y,-x,1/2+z
y,x,z
x-y,-y,z
-x,-x+y,z
loop_
_atom_site_type_symbol
_atom_site_label
_atom_site_fract_x
_atom_site_fract_y
_atom_site_fract_z
Si Si1 0.447193 0.271240 0.915541
Si Si2 0.474168 0.596569 0.959175
Si Si3 0.121196 0.244139 0.458527
Si Si4 0.543072 0.867954 0.828830
Si Si5 0.464003 0.125942 0.794197
O O1 0.495263 0.392684 0.932454
O O2 0.502715 0.208757 0.936979
O O3 0.317363 0.203069 0.924803
O O4 0.464663 0.282002 0.870560
O O5 0.584969 0.584969 0.964305
O O6 0.415088 0.584913 0.000000
O O7 0.153999 0.307998 0.500000
O O8 0.208682 0.208682 0.445414
O O9 0.000000 0.136372 0.464116
O O10 0.422098 0.848211 0.817917
O O11 0.574696 0.790996 0.802874
O O12 0.635883 0.000000 0.825292
O O13 0.496704 0.134772 0.750000
O O14 0.364548 0.000000 0.803724
#
# Coordination Sequence:
#
# PCOD8330082 Si02
#       5
#    24  24  24  24  24
#     4  12  23  37  55  80 115 151 188 234 290 349
#     4  11  23  38  56  78 108 151 201 248 291 337
#     4  10  20  35  55  78 106 145 196 250 297 340
#     4  11  23  39  62  93 127 160 196 245 307 373
#     4  10  22  41  65  92 121 155 197 245 300 367
#
# _framework density 20.516856000000001
#
# number of rings (size 3 to 8) (size 9 to 14) (size 15 to 20)
#    0.000    1.200    0.000    7.000    0.000    8.400 
#    0.000    0.000    0.000    0.400    0.000    0.000 
#    0.000    0.000    0.000    0.000    0.000    0.000 
#
# Total GULP energy -1487246.836917 kJ/mol
# GULP energy per Si atom -12393.723641 kJ/mol
# Density = 2.047016 g / cm^3
# Si number density = 20.516856 Si / 1000 Ang^3
#
#
#
# Elastic Constant Matrix: (Units=GPa)
#
#
# Indices 1 2 3 4 5 6 
#
# 1 97.5658 65.0839 39.9562 0.0000 0.0000 0.0000
# 2 65.0839 97.5658 39.9562 0.0000 0.0000 0.0000
# 3 39.9562 39.9562 118.4736 0.0000 0.0000 0.0000
# 4 0.0000 0.0000 0.0000 79.3470 0.0000 0.0000
# 5 0.0000 0.0000 0.0000 0.0000 79.3470 0.0000
# 6 0.0000 0.0000 0.0000 0.0000 0.0000 16.2409
#
#
#
# Elastic Compliance Matrix: (Units=1/GPa)
#
#
# Indices 1 2 3 4 5 6 
#
# 1 0.019078 -0.011709 -0.002485 0.000000 0.000000 0.000000
# 2 -0.011709 0.019078 -0.002485 0.000000 0.000000 0.000000
# 3 -0.002485 -0.002485 0.010117 0.000000 0.000000 0.000000
# 4 0.000000 0.000000 0.000000 0.012603 0.000000 0.000000
# 5 0.000000 0.000000 0.000000 0.000000 0.012603 0.000000
# 6 0.000000 0.000000 0.000000 0.000000 0.000000 0.061573
#
#
# Mechanical properties :
#
#
# Convention : Reuss Voigt Hill
#
# Bulk Modulus (GPa) = 67.04993 67.06643 67.05818
# Shear Modulus (GPa) = 28.83815 46.22756 37.53286
#
# Velocity S-wave (km/s) = 3.75318 4.75189 4.28175
# Velocity P-wave (km/s) = 7.17866 7.92885 7.56306
#
# Compressibility (1/GPa) = 0.01491426
#
# Stress axis : x y z
#
# Youngs Moduli (GPa) = 52.41679 52.41679 98.84248
#
# Poissons Ratio (x) = 0.61373 0.24566
# Poissons Ratio (y) = 0.61373 0.24566
# Poissons Ratio (z) = 0.13027 0.13027
#
# Static dielectric constant tensor:
#      x y z
#    x 3.788150 0.000000 0.000000 
#    y 0.000000 3.788150 0.000000 
#    z 0.000000 0.000000 3.689560 
# 
# 
# High freq. dielectric constant tensor:
#      x y z
#    x 1.805750 0.000000 0.000000 
#    y 0.000000 1.805750 0.000000 
#    z 0.000000 0.000000 1.796040 
# 
# From -- ./inp_files/8926.got.cif
#   From: 2010.03.12/outbox.cif.g09.slc.cpg/sg193_5_cif.got.tgz:8926.got - 2010.04.01 12:20:39.
