data_PCOD8330153
_publ_section_title
;
Structure prediction by ZEFSAII (Michael W. Deem and Ramdas Pophale) SiO2 
 PCOD8330153
Probable space group: P 63/M C M
;
_chemical_formula_sum "Si O2"
_cell_formula_units_Z 104
_cell_length_a 21.293057
_cell_length_b 21.293057
_cell_length_c 13.341404
_cell_angle_alpha 90.000000
_cell_angle_beta 90.000000
_cell_angle_gamma 120.000000
_cell_volume 5238.515106
_symmetry_space_group_name_H-M "P 63/M C M"
_symmetry_group_IT_number 193
_symmetry_cell_setting 'hexagonal'
loop_
_space_group_symop_operation_xyz
x,y,z
x-y,x,1/2+z
-y,x-y,z
-x,-y,1/2+z
-x+y,-x,z
y,-x+y,1/2+z
x-y,-y,1/2-z
-x,-x+y,1/2-z
y,x,1/2-z
-y,-x,-z
-x+y,y,-z
x,x-y,-z
-x,-y,-z
-x+y,-x,1/2-z
y,-x+y,-z
x,y,1/2-z
x-y,x,-z
-y,x-y,1/2-z
-x+y,y,1/2+z
x,x-y,1/2+z
-y,-x,1/2+z
y,x,z
x-y,-y,z
-x,-x+y,z
loop_
_atom_site_type_symbol
_atom_site_label
_atom_site_fract_x
_atom_site_fract_y
_atom_site_fract_z
Si Si1 0.189849 0.534298 0.632198
Si Si2 0.333334 0.666668 0.131242
Si Si3 0.586533 0.503774 0.134246
Si Si4 0.775132 0.625954 0.636869
Si Si5 0.359028 0.277091 0.561356
O O1 0.188293 0.542573 0.750000
O O2 0.266409 0.594013 0.587433
O O3 0.127422 0.549681 0.590264
O O4 0.182467 0.457706 0.606283
O O5 0.333334 0.666668 0.250000
O O6 0.612191 0.509843 0.250000
O O7 0.524204 0.524204 0.123945
O O8 0.657321 0.557921 0.069396
O O9 0.760351 0.643127 0.750000
O O10 0.859669 0.649533 0.628006
O O11 0.751043 0.664714 0.553501
O O12 0.304875 0.304875 0.600678
#
# Coordination Sequence:
#
# PCOD8330153 Si02
#       5
#    24   8  24  24  24
#     4   9  17  29  46  69  97 129 168 215 270 325
#     4   9  15  24  42  64  86 118 160 209 262 316
#     4   9  17  30  49  72  99 134 177 224 268 311
#     4  10  21  36  53  75 104 135 169 217 272 317
#     4  10  21  36  55  78 102 135 181 223 262 316
#
# _framework density 19.852955000000001
#
# number of rings (size 3 to 8) (size 9 to 14) (size 15 to 20)
#    0.000    2.538    0.000    2.077    0.000    7.385 
#    0.000    4.615    0.000    2.769    0.000    0.000 
#    0.000    0.000    0.000   22.154    0.000   48.000 
#
# Total GULP energy -1288891.109668 kJ/mol
# GULP energy per Si atom -12393.183747 kJ/mol
# Density = 1.980777 g / cm^3
# Si number density = 19.852955 Si / 1000 Ang^3
#
#
#
# Elastic Constant Matrix: (Units=GPa)
#
#
# Indices 1 2 3 4 5 6 
#
# 1 66.5568 33.7862 8.1390 0.0000 0.0001 0.0003
# 2 33.7862 66.5576 8.1388 -0.0001 -0.0001 0.0002
# 3 8.1390 8.1388 81.8959 0.0000 0.0000 -0.0001
# 4 0.0000 -0.0001 0.0000 15.5783 0.0000 0.0001
# 5 0.0001 -0.0001 0.0000 0.0000 15.5783 0.0000
# 6 0.0003 0.0002 -0.0001 0.0001 0.0000 16.3856
#
#
#
# Elastic Compliance Matrix: (Units=1/GPa)
#
#
# Indices 1 2 3 4 5 6 
#
# 1 0.020322 -0.010193 -0.001007 0.000000 0.000000 0.000000
# 2 -0.010193 0.020322 -0.001007 0.000000 0.000000 0.000000
# 3 -0.001007 -0.001007 0.012411 0.000000 0.000000 0.000000
# 4 0.000000 0.000000 0.000000 0.064192 0.000000 0.000000
# 5 0.000000 0.000000 0.000000 0.000000 0.064192 0.000000
# 6 0.000000 0.000000 0.000000 0.000000 0.000000 0.061029
#
#
# Mechanical properties :
#
#
# Convention : Reuss Voigt Hill
#
# Bulk Modulus (GPa) = 34.91340 35.01537 34.96438
# Shear Modulus (GPa) = 18.08792 20.50484 19.29638
#
# Velocity S-wave (km/s) = 3.02171 3.21726 3.12102
# Velocity P-wave (km/s) = 5.45880 5.61041 5.53512
#
# Compressibility (1/GPa) = 0.02864230
#
# Stress axis : x y z
#
# Youngs Moduli (GPa) = 49.20761 49.20821 80.57556
#
# Poissons Ratio (x) = 0.50157 0.08111
# Poissons Ratio (y) = 0.50157 0.08111
# Poissons Ratio (z) = 0.04954 0.04953
#
# Static dielectric constant tensor:
#      x y z
#    x 3.433870 0.000000 0.000000 
#    y 0.000000 3.433870 0.000000 
#    z 0.000000 0.000000 3.654930 
# 
# 
# High freq. dielectric constant tensor:
#      x y z
#    x 1.742280 0.000000 0.000000 
#    y 0.000000 1.742280 0.000000 
#    z 0.000000 0.000000 1.794460 
# 
# From -- ./inp_files/3683.got.cif
#   From: 2010.03.12/outbox.cif.g09.slc.cpg/sg193_2_cif.got.tgz:3683.got - 2010.04.01 12:20:39.
