data_PCOD8330953
_publ_section_title
;
Structure prediction by ZEFSAII (Michael W. Deem and Ramdas Pophale) SiO2 
 PCOD8330953
Probable space group: P A 3
;
_chemical_formula_sum "Si O2"
_cell_formula_units_Z 120
_cell_length_a 17.964728
_cell_length_b 17.964728
_cell_length_c 17.964728
_cell_angle_alpha 90.000000
_cell_angle_beta 90.000000
_cell_angle_gamma 90.000000
_cell_volume 5797.782754
_symmetry_space_group_name_H-M "P A 3"
_symmetry_group_IT_number 205
_symmetry_cell_setting 'cubic'
loop_
_space_group_symop_operation_xyz
x,y,z
z,x,y
y,z,x
1/2-y,-z,1/2+x
1/2+z,1/2-x,-y
-y,1/2+z,1/2-x
1/2-z,-x,1/2+y
-z,1/2+x,1/2-y
1/2+y,1/2-z,-x
1/2-x,-y,1/2+z
1/2+x,1/2-y,-z
-x,1/2+y,1/2-z
-x,-y,-z
-z,-x,-y
-y,-z,-x
1/2+y,z,1/2-x
1/2-z,1/2+x,y
y,1/2-z,1/2+x
1/2+z,x,1/2-y
z,1/2-x,1/2+y
1/2-y,1/2+z,x
1/2+x,y,1/2-z
1/2-x,1/2+y,z
x,1/2-y,1/2+z
loop_
_atom_site_type_symbol
_atom_site_label
_atom_site_fract_x
_atom_site_fract_y
_atom_site_fract_z
Si Si1 0.059651 0.383714 0.251879
Si Si2 0.810714 0.587512 0.660696
Si Si3 0.398190 0.726751 0.210690
Si Si4 0.062866 0.806113 0.773207
Si Si5 0.391031 0.880834 0.945644
O O1 0.112240 0.438257 0.299905
O O2 0.091768 0.299039 0.263103
O O3 0.062511 0.405327 0.165543
O O4 0.976386 0.394426 0.281751
O O5 0.750771 0.596873 0.726490
O O6 0.831761 0.661531 0.616671
O O7 0.344891 0.750901 0.140834
O O8 0.481307 0.701395 0.189254
O O9 0.062089 0.864632 0.705045
O O10 0.468438 0.894075 0.904270
#
# Coordination Sequence:
#
# PCOD8330953 Si02
#       5
#    24  24  24  24  24
#     4  10  23  40  62  95 128 175 217 276 329 403
#     4  10  23  38  61  91 131 168 223 271 331 392
#     4   9  20  36  62  92 126 162 222 275 325 387
#     4  10  22  39  64  96 128 179 219 279 331 397
#     4  11  25  43  69  96 133 176 219 276 350 416
#
# _framework density 20.697568
#
# number of rings (size 3 to 8) (size 9 to 14) (size 15 to 20)
#    0.400    1.600    0.000    1.800   14.000    4.800 
#    0.000    0.000    0.000    0.400    0.000    0.000 
#    0.000    0.000    0.000    0.000    0.000    0.000 
#
# Total GULP energy -1486932.414536 kJ/mol
# GULP energy per Si atom -12391.103454 kJ/mol
# Density = 2.065046 g / cm^3
# Si number density = 20.697568 Si / 1000 Ang^3
#
#
#
# Elastic Constant Matrix: (Units=GPa)
#
#
# Indices 1 2 3 4 5 6 
#
# 1 105.4374 45.3874 45.3874 0.0000 0.0000 0.0000
# 2 45.3874 105.4374 45.3874 0.0000 0.0000 0.0000
# 3 45.3874 45.3874 105.4374 0.0000 0.0000 0.0000
# 4 0.0000 0.0000 0.0000 30.6464 0.0000 0.0000
# 5 0.0000 0.0000 0.0000 0.0000 30.6464 0.0000
# 6 0.0000 0.0000 0.0000 0.0000 0.0000 30.6464
#
#
#
# Elastic Compliance Matrix: (Units=1/GPa)
#
#
# Indices 1 2 3 4 5 6 
#
# 1 0.012801 -0.003852 -0.003852 0.000000 0.000000 0.000000
# 2 -0.003852 0.012801 -0.003852 0.000000 0.000000 0.000000
# 3 -0.003852 -0.003852 0.012801 0.000000 0.000000 0.000000
# 4 0.000000 0.000000 0.000000 0.032630 0.000000 0.000000
# 5 0.000000 0.000000 0.000000 0.000000 0.032630 0.000000
# 6 0.000000 0.000000 0.000000 0.000000 0.000000 0.032630
#
#
# Mechanical properties :
#
#
# Convention : Reuss Voigt Hill
#
# Bulk Modulus (GPa) = 65.40409 65.40409 65.40409
# Shear Modulus (GPa) = 30.39477 30.39783 30.39630
#
# Velocity S-wave (km/s) = 3.83628 3.83648 3.83638
# Velocity P-wave (km/s) = 7.16179 7.16193 7.16186
#
# Compressibility (1/GPa) = 0.01528956
#
# Stress axis : x y z
#
# Youngs Moduli (GPa) = 78.12064 78.12064 78.12064
#
# Poissons Ratio (x) = 0.30093 0.30093
# Poissons Ratio (y) = 0.30093 0.30093
# Poissons Ratio (z) = 0.30093 0.30093
#
# Static dielectric constant tensor:
#      x y z
#    x 3.692650 0.000000 0.000000 
#    y 0.000000 3.692650 0.000000 
#    z 0.000000 0.000000 3.692650 
# 
# 
# High freq. dielectric constant tensor:
#      x y z
#    x 1.804410 0.000000 0.000000 
#    y 0.000000 1.804410 0.000000 
#    z 0.000000 0.000000 1.804410 
# 
# From -- ./inp_files/498.got.cif
#   From: 2010.03.12/outbox.cif.g09.slc.cpg/sg205_cif.got.tgz:498.got - 2010.03.30 09:02:58.
