data_PCOD8330579
_publ_section_title
;
Structure prediction by ZEFSAII (Michael W. Deem and Ramdas Pophale) SiO2 
 PCOD8330579
Probable space group: P 63/M M C
;
_chemical_formula_sum "Si O2"
_cell_formula_units_Z 72
_cell_length_a 18.112877
_cell_length_b 18.112877
_cell_length_c 14.181596
_cell_angle_alpha 90.000000
_cell_angle_beta 90.000000
_cell_angle_gamma 120.000000
_cell_volume 4029.309398
_symmetry_space_group_name_H-M "P 63/M M C"
_symmetry_group_IT_number 194
_symmetry_cell_setting 'hexagonal'
loop_
_space_group_symop_operation_xyz
x,y,z
x-y,x,1/2+z
-y,x-y,z
-x,-y,1/2+z
-x+y,-x,z
y,-x+y,1/2+z
x-y,-y,-z
-x,-x+y,-z
y,x,-z
-y,-x,1/2-z
-x+y,y,1/2-z
x,x-y,1/2-z
-x,-y,-z
-x+y,-x,1/2-z
y,-x+y,-z
x,y,1/2-z
x-y,x,-z
-y,x-y,1/2-z
-x+y,y,z
x,x-y,z
-y,-x,z
y,x,1/2+z
x-y,-y,1/2+z
-x,-x+y,1/2+z
loop_
_atom_site_type_symbol
_atom_site_label
_atom_site_fract_x
_atom_site_fract_y
_atom_site_fract_z
Si Si1 0.831382 0.497990 0.389066
Si Si2 0.378225 0.454756 0.068641
Si Si3 0.268497 0.905795 0.250000
Si Si4 0.261923 0.907192 0.750000
O O1 0.736144 0.472287 0.359374
O O2 0.850239 0.425120 0.351474
O O3 0.840082 0.505989 0.502067
O O4 0.897640 0.587703 0.340963
O O5 0.471316 0.528684 0.104089
O O6 0.316700 0.414373 0.157107
O O7 0.389346 0.389346 0.000000
O O8 0.170729 0.829272 0.250000
O O9 0.272542 0.997641 0.250000
O O10 0.161118 0.838883 0.750000
#
# Coordination Sequence:
#
# PCOD8330579 Si02
#       4
#    24  24  12  12
#     4  10  19  32  51  78 110 147 185 227 272 322
#     4  10  20  34  55  80 111 150 190 228 272 328
#     4  12  23  37  57  84 111 141 188 238 283 337
#     4  10  21  35  53  76 107 139 178 228 285 337
#
# _framework density 17.869066
#
# number of rings (size 3 to 8) (size 9 to 14) (size 15 to 20)
#    0.000    1.667    3.333    2.333    0.000    1.333 
#    0.000    1.667    0.000    5.000    0.000    0.000 
#    0.000    1.333    0.000    0.000    0.000    0.000 
#
# Total GULP energy -892189.025531 kJ/mol
# GULP energy per Si atom -12391.514243 kJ/mol
# Density = 1.782840 g / cm^3
# Si number density = 17.869066 Si / 1000 Ang^3
#
#
#
# Elastic Constant Matrix: (Units=GPa)
#
#
# Indices 1 2 3 4 5 6 
#
# 1 104.0926 62.8905 39.0529 0.0000 0.0000 0.0000
# 2 62.8905 104.0926 39.0529 0.0000 0.0000 0.0000
# 3 39.0529 39.0529 104.0813 0.0000 0.0000 0.0000
# 4 0.0000 0.0000 0.0000 20.6562 0.0000 0.0000
# 5 0.0000 0.0000 0.0000 0.0000 20.6562 0.0000
# 6 0.0000 0.0000 0.0000 0.0000 0.0000 20.6010
#
#
#
# Elastic Compliance Matrix: (Units=1/GPa)
#
#
# Indices 1 2 3 4 5 6 
#
# 1 0.015767 -0.008504 -0.002725 0.000000 0.000000 0.000000
# 2 -0.008504 0.015767 -0.002725 0.000000 0.000000 0.000000
# 3 -0.002725 -0.002725 0.011653 0.000000 0.000000 0.000000
# 4 0.000000 0.000000 0.000000 0.048412 0.000000 0.000000
# 5 0.000000 0.000000 0.000000 0.000000 0.048412 0.000000
# 6 0.000000 0.000000 0.000000 0.000000 0.000000 0.048541
#
#
# Mechanical properties :
#
#
# Convention : Reuss Voigt Hill
#
# Bulk Modulus (GPa) = 65.45149 66.02880 65.74014
# Shear Modulus (GPa) = 22.56799 23.80071 23.18435
#
# Velocity S-wave (km/s) = 3.55768 3.65355 3.60593
# Velocity P-wave (km/s) = 7.32011 7.40470 7.36252
#
# Compressibility (1/GPa) = 0.01527849
#
# Stress axis : x y z
#
# Youngs Moduli (GPa) = 63.42356 63.42356 85.81440
#
# Poissons Ratio (x) = 0.53933 0.23387
# Poissons Ratio (y) = 0.53933 0.23387
# Poissons Ratio (z) = 0.17285 0.17285
#
# Static dielectric constant tensor:
#      x y z
#    x 3.193160 0.000000 0.000000 
#    y 0.000000 3.193160 0.000000 
#    z 0.000000 0.000000 3.503370 
# 
# 
# High freq. dielectric constant tensor:
#      x y z
#    x 1.668740 0.000000 0.000000 
#    y 0.000000 1.668740 0.000000 
#    z 0.000000 0.000000 1.707780 
# 
# From -- ./inp_files/4232.got.cif
#   From: 2010.03.12/outbox.cif.g09.slc.cpg/sg194_3_cif.got.tgz:4232.got - 2010.04.01 12:26:19.
