data_PCOD8330849
_publ_section_title
;
Structure prediction by ZEFSAII (Michael W. Deem and Ramdas Pophale) SiO2 
 PCOD8330849
Probable space group: P 63/M M C
;
_chemical_formula_sum "Si O2"
_cell_formula_units_Z 108
_cell_length_a 17.592657
_cell_length_b 17.592657
_cell_length_c 20.432549
_cell_angle_alpha 90.000000
_cell_angle_beta 90.000000
_cell_angle_gamma 120.000000
_cell_volume 5476.663425
_symmetry_space_group_name_H-M "P 63/M M C"
_symmetry_group_IT_number 194
_symmetry_cell_setting 'hexagonal'
loop_
_space_group_symop_operation_xyz
x,y,z
x-y,x,1/2+z
-y,x-y,z
-x,-y,1/2+z
-x+y,-x,z
y,-x+y,1/2+z
x-y,-y,-z
-x,-x+y,-z
y,x,-z
-y,-x,1/2-z
-x+y,y,1/2-z
x,x-y,1/2-z
-x,-y,-z
-x+y,-x,1/2-z
y,-x+y,-z
x,y,1/2-z
x-y,x,-z
-y,x-y,1/2-z
-x+y,y,z
x,x-y,z
-y,-x,z
y,x,1/2+z
x-y,-y,1/2+z
-x,-x+y,1/2+z
loop_
_atom_site_type_symbol
_atom_site_label
_atom_site_fract_x
_atom_site_fract_y
_atom_site_fract_z
Si Si1 0.760055 0.695943 0.560368
Si Si2 0.666377 0.165378 0.327836
Si Si3 0.240828 0.302651 0.824887
Si Si4 0.665579 0.163932 0.750000
Si Si5 0.843724 0.335365 0.891673
O O1 0.735616 0.735616 0.500000
O O2 0.857892 0.715784 0.549559
O O3 0.761014 0.744269 0.627707
O O4 0.692244 0.591304 0.561838
O O5 0.667467 0.169198 0.250000
O O6 0.570961 0.141922 0.355733
O O7 0.739179 0.260821 0.354962
O O8 0.691430 0.093036 0.349732
O O9 0.260347 0.287962 0.750000
O O10 0.141780 0.283560 0.830739
O O11 0.766681 0.233320 0.750000
O O12 0.604364 0.208727 0.750000
O O13 0.647089 0.110961 0.681455
O O14 0.847616 0.423808 0.918441
O O15 0.742013 0.257988 0.887404
#
# Coordination Sequence:
#
# PCOD8330849 Si02
#       5
#    24  24  24  12  24
#     4  11  24  40  60  83 109 145 186 229 283 345
#     4   8  13  23  43  75 114 155 193 226 259 302
#     4   9  19  36  58  83 112 144 180 229 290 345
#     4   8  13  24  44  74 111 148 186 224 262 300
#     4   9  18  32  53  82 118 158 195 230 266 310
#
# _framework density 19.720034999999999
#
# number of rings (size 3 to 8) (size 9 to 14) (size 15 to 20)
#    0.000    2.889    0.000    2.556    1.556    4.444 
#    0.000    0.000    0.000    4.000    0.000    3.111 
#    0.000    0.000    0.000    0.000    0.000    0.000 
#
# Total GULP energy -1338307.113013 kJ/mol
# GULP energy per Si atom -12391.732528 kJ/mol
# Density = 1.967515 g / cm^3
# Si number density = 19.720035 Si / 1000 Ang^3
#
#
#
# Elastic Constant Matrix: (Units=GPa)
#
#
# Indices 1 2 3 4 5 6 
#
# 1 94.2531 57.0374 54.5263 0.0000 0.0000 0.0000
# 2 57.0374 94.2531 54.5263 0.0000 0.0000 0.0000
# 3 54.5263 54.5263 87.4276 0.0000 0.0000 0.0000
# 4 0.0000 0.0000 0.0000 28.1557 0.0000 0.0000
# 5 0.0000 0.0000 0.0000 0.0000 28.1557 0.0000
# 6 0.0000 0.0000 0.0000 0.0000 0.0000 18.6079
#
#
#
# Elastic Compliance Matrix: (Units=1/GPa)
#
#
# Indices 1 2 3 4 5 6 
#
# 1 0.019439 -0.007431 -0.007489 0.000000 0.000000 0.000000
# 2 -0.007431 0.019439 -0.007489 0.000000 0.000000 0.000000
# 3 -0.007489 -0.007489 0.020780 0.000000 0.000000 0.000000
# 4 0.000000 0.000000 0.000000 0.035517 0.000000 0.000000
# 5 0.000000 0.000000 0.000000 0.000000 0.035517 0.000000
# 6 0.000000 0.000000 0.000000 0.000000 0.000000 0.053741
#
#
# Mechanical properties :
#
#
# Convention : Reuss Voigt Hill
#
# Bulk Modulus (GPa) = 67.38889 67.56818 67.47854
# Shear Modulus (GPa) = 21.34950 22.30678 21.82814
#
# Velocity S-wave (km/s) = 3.29390 3.36694 3.33062
# Velocity P-wave (km/s) = 6.97950 7.03229 7.00595
#
# Compressibility (1/GPa) = 0.01483924
#
# Stress axis : x y z
#
# Youngs Moduli (GPa) = 51.44239 51.44239 48.12420
#
# Poissons Ratio (x) = 0.38228 0.36041
# Poissons Ratio (y) = 0.38228 0.36041
# Poissons Ratio (z) = 0.38526 0.38526
#
# Static dielectric constant tensor:
#      x y z
#    x 3.532290 0.000000 0.000000 
#    y 0.000000 3.532290 0.000000 
#    z 0.000000 0.000000 3.354170 
# 
# 
# High freq. dielectric constant tensor:
#      x y z
#    x 1.757540 0.000000 0.000000 
#    y 0.000000 1.757540 0.000000 
#    z 0.000000 0.000000 1.740380 
# 
# From -- ./inp_files/7906.got.cif
#   From: 2010.03.12/outbox.cif.g09.slc.cpg/sg194_4_cif.got.tgz:7906.got - 2010.04.01 12:26:19.
