data_PCOD8330807
_publ_section_title
;
Structure prediction by ZEFSAII (Michael W. Deem and Ramdas Pophale) SiO2 
 PCOD8330807
Probable space group: P 63/M M C
;
_chemical_formula_sum "Si O2"
_cell_formula_units_Z 156
_cell_length_a 21.273454
_cell_length_b 21.273454
_cell_length_c 20.737879
_cell_angle_alpha 90.000000
_cell_angle_beta 90.000000
_cell_angle_gamma 120.000000
_cell_volume 8127.762130
_symmetry_space_group_name_H-M "P 63/M M C"
_symmetry_group_IT_number 194
_symmetry_cell_setting 'hexagonal'
loop_
_space_group_symop_operation_xyz
x,y,z
x-y,x,1/2+z
-y,x-y,z
-x,-y,1/2+z
-x+y,-x,z
y,-x+y,1/2+z
x-y,-y,-z
-x,-x+y,-z
y,x,-z
-y,-x,1/2-z
-x+y,y,1/2-z
x,x-y,1/2-z
-x,-y,-z
-x+y,-x,1/2-z
y,-x+y,-z
x,y,1/2-z
x-y,x,-z
-y,x-y,1/2-z
-x+y,y,z
x,x-y,z
-y,-x,z
y,x,1/2+z
x-y,-y,1/2+z
-x,-x+y,1/2+z
loop_
_atom_site_type_symbol
_atom_site_label
_atom_site_fract_x
_atom_site_fract_y
_atom_site_fract_z
Si Si1 0.198775 0.250262 0.556488
Si Si2 0.331737 0.521144 0.584676
Si Si3 0.682916 0.083075 0.847976
Si Si4 0.517421 0.184814 0.750000
Si Si5 0.947324 0.751915 0.822219
Si Si6 0.461025 0.399376 0.177031
Si Si7 0.872128 0.269112 0.512568
O O1 0.197615 0.197615 0.500000
O O2 0.119476 0.238951 0.563891
O O3 0.218129 0.229090 0.625056
O O4 0.258259 0.333073 0.536668
O O5 0.267290 0.534579 0.607260
O O6 0.402605 0.597396 0.571659
O O7 0.341475 0.473271 0.638653
O O8 0.311787 0.475555 0.519290
O O9 0.669773 0.143699 0.814593
O O10 0.757746 0.092947 0.820905
O O11 0.684407 0.086632 0.925269
O O12 0.619354 0.003564 0.830829
O O13 0.593113 0.186225 0.750000
O O14 0.533112 0.266556 0.750000
O O15 0.978598 0.780848 0.750000
O O16 0.887471 0.774942 0.840068
O O17 0.475595 0.387874 0.250000
O O18 0.518533 0.481468 0.154083
O O19 0.810482 0.189519 0.535912
#
# Coordination Sequence:
#
# PCOD8330807 Si02
#       7
#    24  24  24  12  24  24  24
#     4  11  22  38  63  92 127 166 206 258 314 376
#     4  10  22  39  59  83 116 157 200 247 302 365
#     4  12  21  37  62  86 118 158 200 251 317 368
#     4  12  25  40  60  88 125 170 216 258 308 378
#     4  11  22  37  60  92 125 162 208 257 310 376
#     4  10  21  37  56  84 115 146 192 248 299 359
#     4  10  22  38  58  87 118 150 196 250 302 358
#
# _framework density 19.193476
#
# number of rings (size 3 to 8) (size 9 to 14) (size 15 to 20)
#    0.000    1.231    3.077    3.462    0.000    1.846 
#    0.000    1.538    0.000   10.154    0.000    0.000 
#    0.000    0.000    0.000    0.000    0.000    0.000 
#
# Total GULP energy -1934398.912383 kJ/mol
# GULP energy per Si atom -12399.993028 kJ/mol
# Density = 1.914979 g / cm^3
# Si number density = 19.193476 Si / 1000 Ang^3
#
#
#
# Elastic Constant Matrix: (Units=GPa)
#
#
# Indices 1 2 3 4 5 6 
#
# 1 105.4693 47.0920 49.6128 0.0000 0.0000 0.0000
# 2 47.0920 105.4693 49.6128 0.0000 0.0000 0.0000
# 3 49.6128 49.6128 124.4762 0.0000 0.0000 0.0000
# 4 0.0000 0.0000 0.0000 27.6223 0.0000 0.0000
# 5 0.0000 0.0000 0.0000 0.0000 27.6223 0.0000
# 6 0.0000 0.0000 0.0000 0.0000 0.0000 29.1887
#
#
#
# Elastic Compliance Matrix: (Units=1/GPa)
#
#
# Indices 1 2 3 4 5 6 
#
# 1 0.012989 -0.004141 -0.003527 0.000000 0.000000 0.000000
# 2 -0.004141 0.012989 -0.003527 0.000000 0.000000 0.000000
# 3 -0.003527 -0.003527 0.010845 0.000000 0.000000 0.000000
# 4 0.000000 0.000000 0.000000 0.036203 0.000000 0.000000
# 5 0.000000 0.000000 0.000000 0.000000 0.036203 0.000000
# 6 0.000000 0.000000 0.000000 0.000000 0.000000 0.034260
#
#
# Mechanical properties :
#
#
# Convention : Reuss Voigt Hill
#
# Bulk Modulus (GPa) = 69.27614 69.78331 69.52973
# Shear Modulus (GPa) = 29.29305 29.49313 29.39309
#
# Velocity S-wave (km/s) = 3.91090 3.92423 3.91757
# Velocity P-wave (km/s) = 7.52100 7.54782 7.53442
#
# Compressibility (1/GPa) = 0.01443498
#
# Stress axis : x y z
#
# Youngs Moduli (GPa) = 76.98673 76.98673 92.20816
#
# Poissons Ratio (x) = 0.31878 0.32520
# Poissons Ratio (y) = 0.31878 0.32520
# Poissons Ratio (z) = 0.27152 0.27152
#
# Static dielectric constant tensor:
#      x y z
#    x 3.530910 0.000000 0.000000 
#    y 0.000000 3.530910 0.000000 
#    z 0.000000 0.000000 3.646870 
# 
# 
# High freq. dielectric constant tensor:
#      x y z
#    x 1.744940 0.000000 0.000000 
#    y 0.000000 1.744940 0.000000 
#    z 0.000000 0.000000 1.754620 
# 
# From -- ./inp_files/8406.got.cif
#   From: 2010.03.12/outbox.cif.g09.slc.cpg/sg194_5_cif.got.tgz:8406.got - 2010.04.01 12:26:19.
