data_PCOD8330866
_publ_section_title
;
Structure prediction by ZEFSAII (Michael W. Deem and Ramdas Pophale) SiO2 
 PCOD8330866
Probable space group: P 2 3
;
_chemical_formula_sum "Si O2"
_cell_formula_units_Z 96
_cell_length_a 18.606315
_cell_length_b 18.606315
_cell_length_c 18.606315
_cell_angle_alpha 90.000000
_cell_angle_beta 90.000000
_cell_angle_gamma 90.000000
_cell_volume 6441.412438
_symmetry_space_group_name_H-M "P 2 3"
_symmetry_group_IT_number 195
_symmetry_cell_setting 'cubic'
loop_
_space_group_symop_operation_xyz
x,y,z
z,x,y
y,z,x
-y,-z,x
z,-x,-y
-y,z,-x
-z,-x,y
-z,x,-y
y,-z,-x
-x,-y,z
x,-y,-z
-x,y,-z
loop_
_atom_site_type_symbol
_atom_site_label
_atom_site_fract_x
_atom_site_fract_y
_atom_site_fract_z
Si Si1 0.625699 0.739467 0.853393
Si Si2 0.903211 0.327938 0.789316
Si Si3 0.724524 0.161742 0.048469
Si Si4 0.509371 0.083301 0.799065
Si Si5 0.799065 0.916699 0.490629
Si Si6 0.625699 0.146607 0.260533
Si Si7 0.838258 0.275476 0.048469
Si Si8 0.327938 0.096789 0.210684
O O1 0.675482 0.788639 0.902320
O O2 0.546661 0.737982 0.889718
O O3 0.659069 0.659069 0.848759
O O4 0.621983 0.773394 0.773394
O O5 0.902158 0.411495 0.768282
O O6 0.909824 0.284380 0.715620
O O7 0.830641 0.306346 0.830641
O O8 0.969735 0.310654 0.842265
O O9 0.804269 0.195731 0.044186
O O10 0.729828 0.081837 0.081837
O O11 0.495390 0.127265 0.872735
O O12 0.453339 0.110282 0.737982
O O13 0.588505 0.097842 0.768282
O O14 0.500000 0.000000 0.817451
O O15 0.817451 0.000000 0.500000
O O16 0.675482 0.097680 0.211361
O O17 0.842265 0.310654 0.969735
#
# Coordination Sequence:
#
# PCOD8330866 Si02
#       8
#    12  12  12  12  12  12  12  12
#     4   9  16  27  43  63  85 108 135 168 209 255
#     4  10  20  32  45  60  82 114 148 178 206 243
#     4   9  16  26  41  61  83 108 138 175 216 252
#     4  10  19  29  42  62  85 110 139 171 211 252
#     4  10  19  29  42  62  85 110 139 171 211 252
#     4   9  16  27  43  63  85 108 135 168 209 255
#     4   9  16  26  41  61  83 108 138 175 216 252
#     4  10  20  32  45  60  82 114 148 178 206 243
#
# _framework density 14.903563999999999
#
# number of rings (size 3 to 8) (size 9 to 14) (size 15 to 20)
#    0.000    2.500    2.500    0.750    0.000    2.750 
#    0.000    2.500    0.000    0.750    0.000    1.750 
#    0.000    0.000    0.000   15.500    0.000    0.250 
#
# Total GULP energy -1190057.371839 kJ/mol
# GULP energy per Si atom -12396.430957 kJ/mol
# Density = 1.486964 g / cm^3
# Si number density = 14.903564 Si / 1000 Ang^3
#
#
#
# Elastic Constant Matrix: (Units=GPa)
#
#
# Indices 1 2 3 4 5 6 
#
# 1 75.8001 43.4719 43.4719 0.0000 0.0000 0.0000
# 2 43.4719 75.8001 43.4719 0.0000 0.0000 0.0000
# 3 43.4719 43.4719 75.8001 0.0000 0.0000 0.0000
# 4 0.0000 0.0000 0.0000 18.6702 0.0000 0.0000
# 5 0.0000 0.0000 0.0000 0.0000 18.6702 0.0000
# 6 0.0000 0.0000 0.0000 0.0000 0.0000 18.6702
#
#
#
# Elastic Compliance Matrix: (Units=1/GPa)
#
#
# Indices 1 2 3 4 5 6 
#
# 1 0.022670 -0.008263 -0.008263 0.000000 0.000000 0.000000
# 2 -0.008263 0.022670 -0.008263 0.000000 0.000000 0.000000
# 3 -0.008263 -0.008263 0.022670 0.000000 0.000000 0.000000
# 4 0.000000 0.000000 0.000000 0.053561 0.000000 0.000000
# 5 0.000000 0.000000 0.000000 0.000000 0.053561 0.000000
# 6 0.000000 0.000000 0.000000 0.000000 0.000000 0.053561
#
#
# Mechanical properties :
#
#
# Convention : Reuss Voigt Hill
#
# Bulk Modulus (GPa) = 54.24794 54.24794 54.24794
# Shear Modulus (GPa) = 17.57998 17.66778 17.62388
#
# Velocity S-wave (km/s) = 3.43823 3.44681 3.44252
# Velocity P-wave (km/s) = 7.22774 7.23318 7.23046
#
# Compressibility (1/GPa) = 0.01843388
#
# Stress axis : x y z
#
# Youngs Moduli (GPa) = 44.11110 44.11110 44.11110
#
# Poissons Ratio (x) = 0.36448 0.36448
# Poissons Ratio (y) = 0.36448 0.36448
# Poissons Ratio (z) = 0.36448 0.36448
#
# Static dielectric constant tensor:
#      x y z
#    x 2.869300 0.000000 0.000000 
#    y 0.000000 2.869300 0.000000 
#    z 0.000000 0.000000 2.869300 
# 
# 
# High freq. dielectric constant tensor:
#      x y z
#    x 1.555290 0.000000 0.000000 
#    y 0.000000 1.555290 0.000000 
#    z 0.000000 0.000000 1.555290 
# 
# From -- ./inp_files/496.got.cif
#   From: 2010.03.12/outbox.cif.g09.slc.cpg/sg195_cif.got.tgz:496.got - 2010.04.01 12:33:13.
