data_PCOD8330663
_publ_section_title
;
Structure prediction by ZEFSAII (Michael W. Deem and Ramdas Pophale) SiO2 
 PCOD8330663
Probable space group: P 63/M M C
;
_chemical_formula_sum "Si O2"
_cell_formula_units_Z 168
_cell_length_a 22.105599
_cell_length_b 22.105599
_cell_length_c 22.277664
_cell_angle_alpha 90.000000
_cell_angle_beta 90.000000
_cell_angle_gamma 120.000000
_cell_volume 9427.680505
_symmetry_space_group_name_H-M "P 63/M M C"
_symmetry_group_IT_number 194
_symmetry_cell_setting 'hexagonal'
loop_
_space_group_symop_operation_xyz
x,y,z
x-y,x,1/2+z
-y,x-y,z
-x,-y,1/2+z
-x+y,-x,z
y,-x+y,1/2+z
x-y,-y,-z
-x,-x+y,-z
y,x,-z
-y,-x,1/2-z
-x+y,y,1/2-z
x,x-y,1/2-z
-x,-y,-z
-x+y,-x,1/2-z
y,-x+y,-z
x,y,1/2-z
x-y,x,-z
-y,x-y,1/2-z
-x+y,y,z
x,x-y,z
-y,-x,z
y,x,1/2+z
x-y,-y,1/2+z
-x,-x+y,1/2+z
loop_
_atom_site_type_symbol
_atom_site_label
_atom_site_fract_x
_atom_site_fract_y
_atom_site_fract_z
Si Si1 0.480595 0.098828 0.818752
Si Si2 0.992643 0.659482 0.183537
Si Si3 0.185286 0.229951 0.317561
Si Si4 0.117805 0.376188 0.909555
Si Si5 0.803028 0.469123 0.580018
Si Si6 0.608622 0.529272 0.484324
Si Si7 0.780337 0.821150 0.561547
O O1 0.468604 0.111780 0.750000
O O2 0.537047 0.074093 0.826380
O O3 0.506883 0.172770 0.851729
O O4 0.409262 0.036107 0.847489
O O5 0.973108 0.629645 0.250000
O O6 0.917671 0.636295 0.155218
O O7 0.044869 0.742498 0.181512
O O8 0.178272 0.195005 0.250000
O O9 0.123188 0.246375 0.326597
O O10 0.186492 0.187102 0.375964
O O11 0.198795 0.397590 0.903395
O O12 0.111854 0.439294 0.938241
O O13 0.073571 0.303218 0.944906
O O14 0.743373 0.486745 0.560947
O O15 0.772511 0.386256 0.572221
O O16 0.873744 0.512821 0.543042
O O17 0.586206 0.586206 0.500000
O O18 0.541859 0.458142 0.458946
O O19 0.812156 0.812156 0.500000
O O20 0.801179 0.900590 0.564312
#
# Coordination Sequence:
#
# PCOD8330663 Si02
#       7
#    24  24  24  24  24  24  24
#     4   9  18  32  49  71 100 132 165 201 241 285
#     4   9  18  32  50  73 100 128 160 200 244 291
#     4   9  18  33  52  73  98 130 168 208 249 295
#     4  10  20  33  50  74 101 127 160 201 245 295
#     4  10  20  33  49  69  95 129 167 204 241 284
#     4  10  20  34  52  72  96 127 162 201 245 292
#     4  10  20  33  51  75 103 133 164 203 251 300
#
# _framework density 17.819865
#
# number of rings (size 3 to 8) (size 9 to 14) (size 15 to 20)
#    0.000    2.429    0.000    2.286    0.000    4.286 
#    0.000    4.286    0.000    3.714    0.000    0.000 
#    0.000    0.000    0.000    0.000    0.000    0.000 
#
# Total GULP energy -2081539.467036 kJ/mol
# GULP energy per Si atom -12390.115875 kJ/mol
# Density = 1.777931 g / cm^3
# Si number density = 17.819865 Si / 1000 Ang^3
#
#
#
# Elastic Constant Matrix: (Units=GPa)
#
#
# Indices 1 2 3 4 5 6 
#
# 1 112.5749 58.6855 47.9848 0.0000 0.0000 0.0000
# 2 58.6855 112.5749 47.9848 0.0000 0.0000 0.0000
# 3 47.9848 47.9848 96.7811 0.0000 0.0000 0.0000
# 4 0.0000 0.0000 0.0000 23.9385 0.0000 0.0000
# 5 0.0000 0.0000 0.0000 0.0000 23.9385 0.0000
# 6 0.0000 0.0000 0.0000 0.0000 0.0000 26.9447
#
#
#
# Elastic Compliance Matrix: (Units=1/GPa)
#
#
# Indices 1 2 3 4 5 6 
#
# 1 0.013321 -0.005236 -0.004009 0.000000 0.000000 0.000000
# 2 -0.005236 0.013321 -0.004009 0.000000 0.000000 0.000000
# 3 -0.004009 -0.004009 0.014308 0.000000 0.000000 0.000000
# 4 0.000000 0.000000 0.000000 0.041774 0.000000 0.000000
# 5 0.000000 0.000000 0.000000 0.000000 0.041774 0.000000
# 6 0.000000 0.000000 0.000000 0.000000 0.000000 0.037113
#
#
# Mechanical properties :
#
#
# Convention : Reuss Voigt Hill
#
# Bulk Modulus (GPa) = 69.23562 70.13790 69.68676
# Shear Modulus (GPa) = 25.91595 26.11604 26.01599
#
# Velocity S-wave (km/s) = 3.81770 3.83241 3.82507
# Velocity P-wave (km/s) = 7.64006 7.68297 7.66155
#
# Compressibility (1/GPa) = 0.01444343
#
# Stress axis : x y z
#
# Youngs Moduli (GPa) = 75.06928 75.06928 69.89174
#
# Poissons Ratio (x) = 0.39303 0.28019
# Poissons Ratio (y) = 0.39303 0.28019
# Poissons Ratio (z) = 0.30094 0.30094
#
# Static dielectric constant tensor:
#      x y z
#    x 3.295570 0.000000 0.000000 
#    y 0.000000 3.295570 0.000000 
#    z 0.000000 0.000000 3.488410 
# 
# 
# High freq. dielectric constant tensor:
#      x y z
#    x 1.682900 0.000000 0.000000 
#    y 0.000000 1.682900 0.000000 
#    z 0.000000 0.000000 1.691790 
# 
# From -- ./inp_files/9796.got.cif
#   From: 2010.03.12/outbox.cif.g09.slc.cpg/sg194_5_cif.got.tgz:9796.got - 2010.04.01 12:26:19.
