data_PCOD8330195
_publ_section_title
;
Structure prediction by ZEFSAII (Michael W. Deem and Ramdas Pophale) SiO2 
 PCOD8330195
Probable space group: P 63/M C M
;
_chemical_formula_sum "Si O2"
_cell_formula_units_Z 120
_cell_length_a 14.769513
_cell_length_b 14.769513
_cell_length_c 28.372615
_cell_angle_alpha 90.000000
_cell_angle_beta 90.000000
_cell_angle_gamma 120.000000
_cell_volume 5359.969859
_symmetry_space_group_name_H-M "P 63/M C M"
_symmetry_group_IT_number 193
_symmetry_cell_setting 'hexagonal'
loop_
_space_group_symop_operation_xyz
x,y,z
x-y,x,1/2+z
-y,x-y,z
-x,-y,1/2+z
-x+y,-x,z
y,-x+y,1/2+z
x-y,-y,1/2-z
-x,-x+y,1/2-z
y,x,1/2-z
-y,-x,-z
-x+y,y,-z
x,x-y,-z
-x,-y,-z
-x+y,-x,1/2-z
y,-x+y,-z
x,y,1/2-z
x-y,x,-z
-y,x-y,1/2-z
-x+y,y,1/2+z
x,x-y,1/2+z
-y,-x,1/2+z
y,x,z
x-y,-y,z
-x,-x+y,z
loop_
_atom_site_type_symbol
_atom_site_label
_atom_site_fract_x
_atom_site_fract_y
_atom_site_fract_z
Si Si1 0.880871 0.759264 0.857014
Si Si2 0.814266 0.259922 0.696553
Si Si3 0.414716 0.157454 0.427717
Si Si4 0.885302 0.353764 0.977317
Si Si5 0.477801 0.880985 0.843528
O O1 0.832263 0.832263 0.870232
O O2 0.809787 0.676017 0.817268
O O3 0.884730 0.696353 0.902583
O O4 0.000000 0.831991 0.838733
O O5 0.845505 0.298694 0.750000
O O6 0.689283 0.191335 0.692204
O O7 0.855350 0.358763 0.661531
O O8 0.393090 0.103407 0.478754
O O9 0.467532 0.282277 0.434960
O O10 0.495196 0.136813 0.397028
O O11 0.000000 0.432005 0.956276
O O12 0.832202 0.416101 0.000000
O O13 0.555283 0.000000 0.828897
#
# Coordination Sequence:
#
# PCOD8330195 Si02
#       5
#    24  24  24  24  24
#     4  11  24  43  67  94 127 170 221 277 330 384
#     4  11  24  42  66  96 129 168 215 265 328 395
#     4  10  22  40  61  94 129 169 216 261 321 380
#     4  10  21  38  62  91 129 171 214 261 314 379
#     4  11  24  42  66  94 131 172 214 264 317 387
#
# _framework density 22.388186000000001
#
# number of rings (size 3 to 8) (size 9 to 14) (size 15 to 20)
#    0.000    1.400    0.000    6.000    5.600    4.000 
#    4.800    0.000    0.000    1.200    0.000    7.000 
#    0.000    0.000    0.000    0.000    0.000    0.000 
#
# Total GULP energy -1487725.190885 kJ/mol
# GULP energy per Si atom -12397.709924 kJ/mol
# Density = 2.233723 g / cm^3
# Si number density = 22.388186 Si / 1000 Ang^3
#
#
#
# Elastic Constant Matrix: (Units=GPa)
#
#
# Indices 1 2 3 4 5 6 
#
# 1 135.8331 65.2243 25.7150 0.0000 0.0000 0.0000
# 2 65.2243 135.8331 25.7150 0.0000 0.0000 0.0000
# 3 25.7150 25.7150 81.1759 0.0000 0.0000 0.0000
# 4 0.0000 0.0000 0.0000 18.3233 0.0000 0.0000
# 5 0.0000 0.0000 0.0000 0.0000 18.3233 0.0000
# 6 0.0000 0.0000 0.0000 0.0000 0.0000 35.3044
#
#
#
# Elastic Compliance Matrix: (Units=1/GPa)
#
#
# Indices 1 2 3 4 5 6 
#
# 1 0.009787 -0.004375 -0.001715 0.000000 0.000000 0.000000
# 2 -0.004375 0.009787 -0.001715 0.000000 0.000000 0.000000
# 3 -0.001715 -0.001715 0.013405 0.000000 0.000000 0.000000
# 4 0.000000 0.000000 0.000000 0.054575 0.000000 0.000000
# 5 0.000000 0.000000 0.000000 0.000000 0.054575 0.000000
# 6 0.000000 0.000000 0.000000 0.000000 0.000000 0.028325
#
#
# Mechanical properties :
#
#
# Convention : Reuss Voigt Hill
#
# Bulk Modulus (GPa) = 57.56491 65.12785 61.34638
# Shear Modulus (GPa) = 26.06140 30.13604 28.09872
#
# Velocity S-wave (km/s) = 3.41555 3.67286 3.54654
# Velocity P-wave (km/s) = 6.42827 6.86586 6.65066
#
# Compressibility (1/GPa) = 0.01737169
#
# Stress axis : x y z
#
# Youngs Moduli (GPa) = 102.17205 102.17205 74.59807
#
# Poissons Ratio (x) = 0.44702 0.12790
# Poissons Ratio (y) = 0.44702 0.12790
# Poissons Ratio (z) = 0.17517 0.17517
#
# Static dielectric constant tensor:
#      x y z
#    x 4.097970 0.000000 0.000000 
#    y 0.000000 4.097970 0.000000 
#    z 0.000000 0.000000 3.807190 
# 
# 
# High freq. dielectric constant tensor:
#      x y z
#    x 1.886280 0.000000 0.000000 
#    y 0.000000 1.886280 0.000000 
#    z 0.000000 0.000000 1.872000 
# 
# From -- ./inp_files/8933.got.cif
#   From: 2010.03.12/outbox.cif.g09.slc.cpg/sg193_5_cif.got.tgz:8933.got - 2010.04.01 12:20:39.
