data_PCOD8330142
_publ_section_title
;
Structure prediction by ZEFSAII (Michael W. Deem and Ramdas Pophale) SiO2 
 PCOD8330142
Probable space group: P 63/M C M
;
_chemical_formula_sum "Si O2"
_cell_formula_units_Z 144
_cell_length_a 32.222751
_cell_length_b 32.222751
_cell_length_c 9.156927
_cell_angle_alpha 90.000000
_cell_angle_beta 90.000000
_cell_angle_gamma 120.000000
_cell_volume 8233.900494
_symmetry_space_group_name_H-M "P 63/M C M"
_symmetry_group_IT_number 193
_symmetry_cell_setting 'hexagonal'
loop_
_space_group_symop_operation_xyz
x,y,z
x-y,x,1/2+z
-y,x-y,z
-x,-y,1/2+z
-x+y,-x,z
y,-x+y,1/2+z
x-y,-y,1/2-z
-x,-x+y,1/2-z
y,x,1/2-z
-y,-x,-z
-x+y,y,-z
x,x-y,-z
-x,-y,-z
-x+y,-x,1/2-z
y,-x+y,-z
x,y,1/2-z
x-y,x,-z
-y,x-y,1/2-z
-x+y,y,1/2+z
x,x-y,1/2+z
-y,-x,1/2+z
y,x,z
x-y,-y,z
-x,-x+y,z
loop_
_atom_site_type_symbol
_atom_site_label
_atom_site_fract_x
_atom_site_fract_y
_atom_site_fract_z
Si Si1 0.190954 0.054083 0.421885
Si Si2 0.809514 0.700476 0.080576
Si Si3 0.711364 0.613536 0.079615
Si Si4 0.196029 0.720244 0.917603
Si Si5 0.610704 0.137694 0.577914
Si Si6 0.055146 0.616165 0.080494
O O1 0.172245 0.086122 0.500000
O O2 0.186713 0.058416 0.250000
O O3 0.245535 0.071170 0.468241
O O4 0.158177 0.000000 0.476685
O O5 0.818646 0.697727 0.250000
O O6 0.753597 0.667004 0.042934
O O7 0.840614 0.681227 0.000000
O O8 0.696272 0.607122 0.250000
O O9 0.729649 0.576647 0.037792
O O10 0.666099 0.603728 0.982506
O O11 0.208758 0.731810 0.750000
O O12 0.179138 0.665033 0.953285
O O13 0.244767 0.755234 0.000000
O O14 0.577434 0.154867 0.500000
O O15 0.599951 0.129929 0.750000
O O16 0.599895 0.087263 0.509425
O O17 0.070227 0.623009 0.250000
O O18 0.000000 0.575617 0.060663
#
# Coordination Sequence:
#
# PCOD8330142 Si02
#       6
#    24  24  24  24  24  24
#     4   9  18  32  49  70  95 123 157 196 239 289
#     4   9  17  29  46  69  97 129 163 198 237 282
#     4   9  18  31  47  70 100 134 170 204 240 283
#     4   9  18  31  49  75 102 128 161 198 238 287
#     4  10  21  37  56  78 102 130 166 206 251 301
#     4  10  21  35  50  71  99 132 171 212 253 294
#
# _framework density 17.488675000000001
#
# number of rings (size 3 to 8) (size 9 to 14) (size 15 to 20)
#    0.000    2.667    0.000    2.500    0.000    6.667 
#    0.000    1.667    0.000    0.500    0.000    0.000 
#    0.000    0.000    0.000    0.000    0.000    0.000 
#
# Total GULP energy -1785650.933641 kJ/mol
# GULP energy per Si atom -12400.353706 kJ/mol
# Density = 1.744887 g / cm^3
# Si number density = 17.488675 Si / 1000 Ang^3
#
#
#
# Elastic Constant Matrix: (Units=GPa)
#
#
# Indices 1 2 3 4 5 6 
#
# 1 91.5066 51.3451 44.4831 0.0000 0.0000 0.0000
# 2 51.3451 91.5066 44.4831 0.0000 0.0000 0.0000
# 3 44.4831 44.4831 74.7926 0.0000 0.0000 0.0000
# 4 0.0000 0.0000 0.0000 30.7917 0.0000 0.0000
# 5 0.0000 0.0000 0.0000 0.0000 30.7917 0.0000
# 6 0.0000 0.0000 0.0000 0.0000 0.0000 20.0807
#
#
#
# Elastic Compliance Matrix: (Units=1/GPa)
#
#
# Indices 1 2 3 4 5 6 
#
# 1 0.018009 -0.006890 -0.006613 0.000000 0.000000 0.000000
# 2 -0.006890 0.018009 -0.006613 0.000000 0.000000 0.000000
# 3 -0.006613 -0.006613 0.021236 0.000000 0.000000 0.000000
# 4 0.000000 0.000000 0.000000 0.032476 0.000000 0.000000
# 5 0.000000 0.000000 0.000000 0.000000 0.032476 0.000000
# 6 0.000000 0.000000 0.000000 0.000000 0.000000 0.049799
#
#
# Mechanical properties :
#
#
# Convention : Reuss Voigt Hill
#
# Bulk Modulus (GPa) = 58.74668 59.82539 59.28603
# Shear Modulus (GPa) = 22.94500 24.16580 23.55540
#
# Velocity S-wave (km/s) = 3.62607 3.72129 3.67399
# Velocity P-wave (km/s) = 7.15510 7.26266 7.20908
#
# Compressibility (1/GPa) = 0.01702224
#
# Stress axis : x y z
#
# Youngs Moduli (GPa) = 55.52754 55.52754 47.08902
#
# Poissons Ratio (x) = 0.38261 0.31139
# Poissons Ratio (y) = 0.38261 0.31139
# Poissons Ratio (z) = 0.36720 0.36720
#
# Static dielectric constant tensor:
#      x y z
#    x 3.196090 0.000000 0.000000 
#    y 0.000000 3.196090 0.000000 
#    z 0.000000 0.000000 3.258280 
# 
# 
# High freq. dielectric constant tensor:
#      x y z
#    x 1.665820 0.000000 0.000000 
#    y 0.000000 1.665820 0.000000 
#    z 0.000000 0.000000 1.678380 
# 
# From -- ./inp_files/1589.got.cif
#   From: 2010.03.12/outbox.cif.g09.slc.cpg/sg193_1_cif.got.tgz:1589.got - 2010.04.01 12:20:39.
