data_PCOD8330858
_publ_section_title
;
Structure prediction by ZEFSAII (Michael W. Deem and Ramdas Pophale) SiO2 
 PCOD8330858
Probable space group: P 63/M M C
;
_chemical_formula_sum "Si O2"
_cell_formula_units_Z 168
_cell_length_a 27.862086
_cell_length_b 27.862086
_cell_length_c 14.692348
_cell_angle_alpha 90.000000
_cell_angle_beta 90.000000
_cell_angle_gamma 120.000000
_cell_volume 9877.546774
_symmetry_space_group_name_H-M "P 63/M M C"
_symmetry_group_IT_number 194
_symmetry_cell_setting 'hexagonal'
loop_
_space_group_symop_operation_xyz
x,y,z
x-y,x,1/2+z
-y,x-y,z
-x,-y,1/2+z
-x+y,-x,z
y,-x+y,1/2+z
x-y,-y,-z
-x,-x+y,-z
y,x,-z
-y,-x,1/2-z
-x+y,y,1/2-z
x,x-y,1/2-z
-x,-y,-z
-x+y,-x,1/2-z
y,-x+y,-z
x,y,1/2-z
x-y,x,-z
-y,x-y,1/2-z
-x+y,y,z
x,x-y,z
-y,-x,z
y,x,1/2+z
x-y,-y,1/2+z
-x,-x+y,1/2+z
loop_
_atom_site_type_symbol
_atom_site_label
_atom_site_fract_x
_atom_site_fract_y
_atom_site_fract_z
Si Si1 0.999950 0.892665 0.642047
Si Si2 0.795471 0.019159 0.641219
Si Si3 0.267824 0.846238 0.848374
Si Si4 0.776624 0.442941 0.643095
Si Si5 0.772662 0.658713 0.852547
Si Si6 0.702418 0.798503 0.644977
Si Si7 0.281617 0.832710 0.042110
O O1 0.003502 0.891831 0.750000
O O2 0.060186 0.939815 0.603709
O O3 0.954242 0.908483 0.610698
O O4 0.980613 0.830956 0.604623
O O5 0.796924 0.022947 0.750000
O O6 0.787845 0.069650 0.604020
O O7 0.744632 0.962726 0.600895
O O8 0.299082 0.855125 0.750000
O O9 0.210670 0.789331 0.842625
O O10 0.253751 0.894879 0.864911
O O11 0.302471 0.846596 0.936596
O O12 0.785881 0.451971 0.750000
O O13 0.716263 0.432525 0.615366
O O14 0.780765 0.390383 0.609528
O O15 0.825517 0.497585 0.595366
O O16 0.748688 0.651979 0.750000
O O17 0.827700 0.655399 0.850052
O O18 0.726630 0.608023 0.913635
O O19 0.718519 0.812753 0.750000
O O20 0.707080 0.853540 0.597612
O O21 0.223777 0.776224 0.047909
#
# Coordination Sequence:
#
# PCOD8330858 Si02
#       7
#    24  24  24  24  24  24  24
#     4   9  15  21  29  43  66  99 141 186 227 267
#     4   9  15  22  33  49  71 101 137 176 220 269
#     4   8  14  25  41  59  78 102 134 173 217 263
#     4   9  16  26  42  66  96 128 159 186 208 231
#     4   9  16  25  36  52  78 111 143 173 209 260
#     4   8  13  22  36  53  73  98 130 170 217 267
#     4   9  16  26  41  60  83 113 145 176 213 255
#
# _framework density 17.008271000000001
#
# number of rings (size 3 to 8) (size 9 to 14) (size 15 to 20)
#    0.000    3.286    0.000    2.429    0.000    6.286 
#    0.000    0.714    0.000    0.429    0.000    0.000 
#    0.000    3.429    0.000    8.286    0.000   27.143 
#
# Total GULP energy -2081378.823027 kJ/mol
# GULP energy per Si atom -12389.159661 kJ/mol
# Density = 1.696956 g / cm^3
# Si number density = 17.008271 Si / 1000 Ang^3
#
#
#
# Elastic Constant Matrix: (Units=GPa)
#
#
# Indices 1 2 3 4 5 6 
#
# 1 80.4598 46.1415 30.7393 0.0000 0.0000 0.0000
# 2 46.1415 80.4598 30.7393 0.0000 0.0000 0.0000
# 3 30.7393 30.7393 60.4408 0.0000 0.0000 0.0000
# 4 0.0000 0.0000 0.0000 7.0576 0.0000 0.0000
# 5 0.0000 0.0000 0.0000 0.0000 7.0576 0.0000
# 6 0.0000 0.0000 0.0000 0.0000 0.0000 17.1591
#
#
#
# Elastic Compliance Matrix: (Units=1/GPa)
#
#
# Indices 1 2 3 4 5 6 
#
# 1 0.019814 -0.009325 -0.005335 0.000000 0.000000 0.000000
# 2 -0.009325 0.019814 -0.005335 0.000000 0.000000 0.000000
# 3 -0.005335 -0.005335 0.021972 0.000000 0.000000 0.000000
# 4 0.000000 0.000000 0.000000 0.141691 0.000000 0.000000
# 5 0.000000 0.000000 0.000000 0.000000 0.141691 0.000000
# 6 0.000000 0.000000 0.000000 0.000000 0.000000 0.058278
#
#
# Mechanical properties :
#
#
# Convention : Reuss Voigt Hill
#
# Bulk Modulus (GPa) = 46.27218 48.51119 47.39168
# Shear Modulus (GPa) = 11.09997 13.83755 12.46876
#
# Velocity S-wave (km/s) = 2.55742 2.85542 2.71052
# Velocity P-wave (km/s) = 5.99877 6.28134 6.14168
#
# Compressibility (1/GPa) = 0.02161126
#
# Stress axis : x y z
#
# Youngs Moduli (GPa) = 50.46879 50.46879 45.51350
#
# Poissons Ratio (x) = 0.47061 0.24280
# Poissons Ratio (y) = 0.47061 0.24280
# Poissons Ratio (z) = 0.26924 0.26924
#
# Static dielectric constant tensor:
#      x y z
#    x 3.051410 0.000000 0.000000 
#    y 0.000000 3.051410 0.000000 
#    z 0.000000 0.000000 3.244720 
# 
# 
# High freq. dielectric constant tensor:
#      x y z
#    x 1.619370 0.000000 0.000000 
#    y 0.000000 1.619370 0.000000 
#    z 0.000000 0.000000 1.649890 
# 
# From -- ./inp_files/5657.got.cif
#   From: 2010.03.12/outbox.cif.g09.slc.cpg/sg194_3_cif.got.tgz:5657.got - 2010.04.01 12:26:19.
