data_PCOD8330053
_publ_section_title
;
Structure prediction by ZEFSAII (Michael W. Deem and Ramdas Pophale) SiO2 
 PCOD8330053
Probable space group: P 63/M C M
;
_chemical_formula_sum "Si O2"
_cell_formula_units_Z 168
_cell_length_a 18.002162
_cell_length_b 18.002162
_cell_length_c 30.091608
_cell_angle_alpha 90.000000
_cell_angle_beta 90.000000
_cell_angle_gamma 120.000000
_cell_volume 8445.499849
_symmetry_space_group_name_H-M "P 63/M C M"
_symmetry_group_IT_number 193
_symmetry_cell_setting 'hexagonal'
loop_
_space_group_symop_operation_xyz
x,y,z
x-y,x,1/2+z
-y,x-y,z
-x,-y,1/2+z
-x+y,-x,z
y,-x+y,1/2+z
x-y,-y,1/2-z
-x,-x+y,1/2-z
y,x,1/2-z
-y,-x,-z
-x+y,y,-z
x,x-y,-z
-x,-y,-z
-x+y,-x,1/2-z
y,-x+y,-z
x,y,1/2-z
x-y,x,-z
-y,x-y,1/2-z
-x+y,y,1/2+z
x,x-y,1/2+z
-y,-x,1/2+z
y,x,z
x-y,-y,z
-x,-x+y,z
loop_
_atom_site_type_symbol
_atom_site_label
_atom_site_fract_x
_atom_site_fract_y
_atom_site_fract_z
Si Si1 0.192219 0.907350 0.112823
Si Si2 0.098998 0.589334 0.135371
Si Si3 0.260260 0.433763 0.298204
Si Si4 0.904337 0.576888 0.667406
Si Si5 0.491462 0.101398 0.964432
Si Si6 0.852069 0.755529 0.700692
Si Si7 0.898835 0.678697 0.036092
O O1 0.275899 0.898714 0.122178
O O2 0.152774 0.912322 0.160458
O O3 0.127112 0.825422 0.084161
O O4 0.223122 0.000000 0.089261
O O5 0.161090 0.674841 0.162591
O O6 0.111203 0.515382 0.155725
O O7 0.131558 0.602570 0.084766
O O8 0.000000 0.566876 0.138001
O O9 0.302749 0.471564 0.250000
O O10 0.171304 0.435776 0.299902
O O11 0.236461 0.335249 0.301963
O O12 0.000000 0.634645 0.688763
O O13 0.421281 0.131247 0.972245
O O14 0.444793 0.000000 0.968198
O O15 0.570638 0.141275 0.000000
O O16 0.894227 0.764709 0.750000
O O17 0.831503 0.831503 0.693870
O O18 0.000000 0.736802 0.031379
O O19 0.854046 0.708091 0.000000
#
# Coordination Sequence:
#
# PCOD8330053 Si02
#       7
#    24  24  24  24  24  24  24
#     4  10  20  35  57  84 117 154 199 250 300 355
#     4  10  20  36  58  82 113 151 193 242 298 357
#     4  10  20  34  53  80 114 152 197 244 293 352
#     4   9  20  36  57  83 112 153 197 245 299 354
#     4   9  19  35  58  86 113 143 183 236 297 356
#     4   9  17  31  54  81 109 144 193 252 305 350
#     4  11  23  38  61  90 120 156 200 246 293 354
#
# _framework density 19.892251000000002
#
# number of rings (size 3 to 8) (size 9 to 14) (size 15 to 20)
#    0.000    2.286    0.000    3.000    2.000    3.143 
#    0.857    4.286    0.000    5.714    0.000    0.000 
#    0.000    0.000    0.000    0.000    0.000    0.000 
#
# Total GULP energy -2081759.023953 kJ/mol
# GULP energy per Si atom -12391.422762 kJ/mol
# Density = 1.984698 g / cm^3
# Si number density = 19.892251 Si / 1000 Ang^3
#
#
#
# Elastic Constant Matrix: (Units=GPa)
#
#
# Indices 1 2 3 4 5 6 
#
# 1 85.8451 41.8519 39.5738 0.0000 0.0000 0.0000
# 2 41.8519 85.8451 39.5738 0.0000 0.0000 0.0000
# 3 39.5738 39.5738 118.1998 0.0000 0.0000 0.0000
# 4 0.0000 0.0000 0.0000 25.1706 0.0000 0.0000
# 5 0.0000 0.0000 0.0000 0.0000 25.1706 0.0000
# 6 0.0000 0.0000 0.0000 0.0000 0.0000 21.9966
#
#
#
# Elastic Compliance Matrix: (Units=1/GPa)
#
#
# Indices 1 2 3 4 5 6 
#
# 1 0.016306 -0.006425 -0.003308 0.000000 0.000000 0.000000
# 2 -0.006425 0.016306 -0.003308 0.000000 0.000000 0.000000
# 3 -0.003308 -0.003308 0.010676 0.000000 0.000000 0.000000
# 4 0.000000 0.000000 0.000000 0.039729 0.000000 0.000000
# 5 0.000000 0.000000 0.000000 0.000000 0.039729 0.000000
# 6 0.000000 0.000000 0.000000 0.000000 0.000000 0.045462
#
#
# Mechanical properties :
#
#
# Convention : Reuss Voigt Hill
#
# Bulk Modulus (GPa) = 58.12200 59.09878 58.61039
# Shear Modulus (GPa) = 24.99684 25.72692 25.36188
#
# Velocity S-wave (km/s) = 3.54872 3.60017 3.57454
# Velocity P-wave (km/s) = 6.78771 6.85971 6.82380
#
# Compressibility (1/GPa) = 0.01720519
#
# Stress axis : x y z
#
# Youngs Moduli (GPa) = 61.32638 61.32638 93.67159
#
# Poissons Ratio (x) = 0.39400 0.30990
# Poissons Ratio (y) = 0.39400 0.30990
# Poissons Ratio (z) = 0.20289 0.20289
#
# Static dielectric constant tensor:
#      x y z
#    x 3.511850 0.000000 0.000000 
#    y 0.000000 3.511850 0.000000 
#    z 0.000000 0.000000 3.693120 
# 
# 
# High freq. dielectric constant tensor:
#      x y z
#    x 1.762070 0.000000 0.000000 
#    y 0.000000 1.762070 0.000000 
#    z 0.000000 0.000000 1.776100 
# 
# From -- ./inp_files/9348.got.cif
#   From: 2010.03.12/outbox.cif.g09.slc.cpg/sg193_5_cif.got.tgz:9348.got - 2010.04.01 12:20:39.
