data_PCOD8330948
_publ_section_title
;
Structure prediction by ZEFSAII (Michael W. Deem and Ramdas Pophale) SiO2 
 PCOD8330948
Probable space group: P A 3
;
_chemical_formula_sum "Si O2"
_cell_formula_units_Z 168
_cell_length_a 20.247058
_cell_length_b 20.247058
_cell_length_c 20.247058
_cell_angle_alpha 90.000000
_cell_angle_beta 90.000000
_cell_angle_gamma 90.000000
_cell_volume 8300.146939
_symmetry_space_group_name_H-M "P A 3"
_symmetry_group_IT_number 205
_symmetry_cell_setting 'cubic'
loop_
_space_group_symop_operation_xyz
x,y,z
z,x,y
y,z,x
1/2-y,-z,1/2+x
1/2+z,1/2-x,-y
-y,1/2+z,1/2-x
1/2-z,-x,1/2+y
-z,1/2+x,1/2-y
1/2+y,1/2-z,-x
1/2-x,-y,1/2+z
1/2+x,1/2-y,-z
-x,1/2+y,1/2-z
-x,-y,-z
-z,-x,-y
-y,-z,-x
1/2+y,z,1/2-x
1/2-z,1/2+x,y
y,1/2-z,1/2+x
1/2+z,x,1/2-y
z,1/2-x,1/2+y
1/2-y,1/2+z,x
1/2+x,y,1/2-z
1/2-x,1/2+y,z
x,1/2-y,1/2+z
loop_
_atom_site_type_symbol
_atom_site_label
_atom_site_fract_x
_atom_site_fract_y
_atom_site_fract_z
Si Si1 0.250293 0.740530 0.348279
Si Si2 0.607674 0.486864 0.111069
Si Si3 0.308975 0.893751 0.851978
Si Si4 0.585287 0.947455 0.888212
Si Si5 0.989468 0.245924 0.424419
Si Si6 0.703900 0.802584 0.026444
Si Si7 0.569435 0.748402 0.058485
O O1 0.276386 0.810923 0.319328
O O2 0.301125 0.682106 0.329100
O O3 0.240752 0.747766 0.427694
O O4 0.547761 0.437435 0.099288
O O5 0.604358 0.516399 0.185303
O O6 0.675580 0.447520 0.100814
O O7 0.384069 0.909632 0.872587
O O8 0.259908 0.901337 0.913588
O O9 0.287470 0.947231 0.795514
O O10 0.507284 0.935423 0.894798
O O11 0.602684 0.964444 0.812354
O O12 0.988551 0.243676 0.504340
O O13 0.626739 0.803573 0.047916
O O14 0.740407 0.871383 0.036400
#
# Coordination Sequence:
#
# PCOD8330948 Si02
#       7
#    24  24  24  24  24  24  24
#     4  10  21  40  61  85 121 161 214 254 325 380
#     4  10  21  38  60  83 116 157 207 266 320 370
#     4  10  22  37  56  91 124 157 207 264 321 380
#     4  10  20  38  58  89 129 170 204 247 317 392
#     4   9  20  35  55  86 123 156 201 253 323 381
#     4  11  19  36  62  89 118 155 210 261 311 381
#     4  10  19  34  58  89 117 151 207 266 306 370
#
# _framework density 20.240606
#
# number of rings (size 3 to 8) (size 9 to 14) (size 15 to 20)
#    0.286    1.714    1.429    2.286    0.000    1.143 
#   10.286    2.857    6.286    0.000    0.000    0.000 
#    0.000    0.000    0.000    0.000    0.000    0.000 
#
# Total GULP energy -2082334.933684 kJ/mol
# GULP energy per Si atom -12394.850796 kJ/mol
# Density = 2.019454 g / cm^3
# Si number density = 20.240606 Si / 1000 Ang^3
#
#
#
# Elastic Constant Matrix: (Units=GPa)
#
#
# Indices 1 2 3 4 5 6 
#
# 1 83.8464 30.7447 30.7447 0.0000 0.0000 0.0000
# 2 30.7447 83.8464 30.7447 0.0000 0.0000 0.0000
# 3 30.7447 30.7447 83.8464 0.0000 0.0000 0.0000
# 4 0.0000 0.0000 0.0000 22.3575 0.0000 0.0000
# 5 0.0000 0.0000 0.0000 0.0000 22.3575 0.0000
# 6 0.0000 0.0000 0.0000 0.0000 0.0000 22.3575
#
#
#
# Elastic Compliance Matrix: (Units=1/GPa)
#
#
# Indices 1 2 3 4 5 6 
#
# 1 0.014848 -0.003984 -0.003984 0.000000 0.000000 0.000000
# 2 -0.003984 0.014848 -0.003984 0.000000 0.000000 0.000000
# 3 -0.003984 -0.003984 0.014848 0.000000 0.000000 0.000000
# 4 0.000000 0.000000 0.000000 0.044728 0.000000 0.000000
# 5 0.000000 0.000000 0.000000 0.000000 0.044728 0.000000
# 6 0.000000 0.000000 0.000000 0.000000 0.000000 0.044728
#
#
# Mechanical properties :
#
#
# Convention : Reuss Voigt Hill
#
# Bulk Modulus (GPa) = 48.44525 48.44525 48.44525
# Shear Modulus (GPa) = 23.86520 24.03487 23.95003
#
# Velocity S-wave (km/s) = 3.43749 3.44969 3.44360
# Velocity P-wave (km/s) = 6.30411 6.31299 6.30855
#
# Compressibility (1/GPa) = 0.02064186
#
# Stress axis : x y z
#
# Youngs Moduli (GPa) = 67.34894 67.34894 67.34894
#
# Poissons Ratio (x) = 0.26830 0.26830
# Poissons Ratio (y) = 0.26830 0.26830
# Poissons Ratio (z) = 0.26830 0.26830
#
# Static dielectric constant tensor:
#      x y z
#    x 3.575030 0.000000 0.000000 
#    y 0.000000 3.575030 0.000000 
#    z 0.000000 0.000000 3.575030 
# 
# 
# High freq. dielectric constant tensor:
#      x y z
#    x 1.781540 0.000000 0.000000 
#    y 0.000000 1.781540 0.000000 
#    z 0.000000 0.000000 1.781540 
# 
# From -- ./inp_files/580.got.cif
#   From: 2010.03.12/outbox.cif.g09.slc.cpg/sg205_cif.got.tgz:580.got - 2010.03.30 09:02:58.
