data_PCOD8330803
_publ_section_title
;
Structure prediction by ZEFSAII (Michael W. Deem and Ramdas Pophale) SiO2 
 PCOD8330803
Probable space group: P 63/M M C
;
_chemical_formula_sum "Si O2"
_cell_formula_units_Z 144
_cell_length_a 31.518029
_cell_length_b 31.518029
_cell_length_c 8.899694
_cell_angle_alpha 90.000000
_cell_angle_beta 90.000000
_cell_angle_gamma 120.000000
_cell_volume 7656.385776
_symmetry_space_group_name_H-M "P 63/M M C"
_symmetry_group_IT_number 194
_symmetry_cell_setting 'hexagonal'
loop_
_space_group_symop_operation_xyz
x,y,z
x-y,x,1/2+z
-y,x-y,z
-x,-y,1/2+z
-x+y,-x,z
y,-x+y,1/2+z
x-y,-y,-z
-x,-x+y,-z
y,x,-z
-y,-x,1/2-z
-x+y,y,1/2-z
x,x-y,1/2-z
-x,-y,-z
-x+y,-x,1/2-z
y,-x+y,-z
x,y,1/2-z
x-y,x,-z
-y,x-y,1/2-z
-x+y,y,z
x,x-y,z
-y,-x,z
y,x,1/2+z
x-y,-y,1/2+z
-x,-x+y,1/2+z
loop_
_atom_site_type_symbol
_atom_site_label
_atom_site_fract_x
_atom_site_fract_y
_atom_site_fract_z
Si Si1 0.241427 0.950675 0.573207
Si Si2 0.475574 0.141239 0.927520
Si Si3 0.238080 0.571361 0.071244
Si Si4 0.611238 0.855055 0.575723
Si Si5 0.855094 0.805702 0.072329
Si Si6 0.523134 0.574270 0.926676
O O1 0.246564 0.956933 0.750000
O O2 0.245834 0.904527 0.520435
O O3 0.189000 0.942187 0.518655
O O4 0.285088 0.000000 0.500000
O O5 0.475597 0.133953 0.750000
O O6 0.526331 0.186973 0.984538
O O7 0.433401 0.152815 0.972535
O O8 0.467531 0.092774 0.008708
O O9 0.240091 0.572309 0.250000
O O10 0.283132 0.566263 0.006140
O O11 0.242458 0.621229 0.008188
O O12 0.599455 0.858513 0.750000
O O13 0.621393 0.810697 0.549315
O O14 0.855586 0.810468 0.250000
O O15 0.905467 0.810933 0.012245
O O16 0.849050 0.849050 0.000000
O O17 0.532167 0.579159 0.750000
O O18 0.468242 0.531759 0.967721
O O19 0.562523 0.562523 0.000000
#
# Coordination Sequence:
#
# PCOD8330803 Si02
#       6
#    24  24  24  24  24  24
#     4   9  18  33  53  76 101 131 169 213 263 316
#     4  11  22  35  53  79 112 145 178 219 266 320
#     4   9  17  30  50  76 105 136 171 213 261 311
#     4  10  21  37  55  74 102 143 186 225 267 318
#     4   9  17  30  49  73 100 129 163 205 252 302
#     4  10  21  38  60  84 109 139 178 223 270 320
#
# _framework density 18.807829000000002
#
# number of rings (size 3 to 8) (size 9 to 14) (size 15 to 20)
#    0.000    2.333    0.000    2.667    0.000    7.000 
#    0.000    1.667    0.000    3.167    0.000    0.000 
#    0.000    8.000    0.000    0.000    0.000    0.000 
#
# Total GULP energy -1786006.397716 kJ/mol
# GULP energy per Si atom -12402.822206 kJ/mol
# Density = 1.876502 g / cm^3
# Si number density = 18.807829 Si / 1000 Ang^3
#
#
#
# Elastic Constant Matrix: (Units=GPa)
#
#
# Indices 1 2 3 4 5 6 
#
# 1 130.0604 60.8394 30.1301 0.0000 0.0000 0.0000
# 2 60.8394 130.0604 30.1301 0.0000 0.0000 0.0000
# 3 30.1301 30.1301 39.7562 0.0000 0.0000 0.0000
# 4 0.0000 0.0000 0.0000 28.3854 0.0000 0.0000
# 5 0.0000 0.0000 0.0000 0.0000 28.3854 0.0000
# 6 0.0000 0.0000 0.0000 0.0000 0.0000 34.6105
#
#
#
# Elastic Compliance Matrix: (Units=1/GPa)
#
#
# Indices 1 2 3 4 5 6 
#
# 1 0.010666 -0.003780 -0.005218 0.000000 0.000000 0.000000
# 2 -0.003780 0.010666 -0.005218 0.000000 0.000000 0.000000
# 3 -0.005218 -0.005218 0.033063 0.000000 0.000000 0.000000
# 4 0.000000 0.000000 0.000000 0.035229 0.000000 0.000000
# 5 0.000000 0.000000 0.000000 0.000000 0.035229 0.000000
# 6 0.000000 0.000000 0.000000 0.000000 0.000000 0.028893
#
#
# Mechanical properties :
#
#
# Convention : Reuss Voigt Hill
#
# Bulk Modulus (GPa) = 38.51978 60.23066 49.37522
# Shear Modulus (GPa) = 26.20066 30.19477 28.19771
#
# Velocity S-wave (km/s) = 3.73644 4.01114 3.87622
# Velocity P-wave (km/s) = 6.25618 7.31752 6.80756
#
# Compressibility (1/GPa) = 0.02596069
#
# Stress axis : x y z
#
# Youngs Moduli (GPa) = 93.75542 93.75542 30.24521
#
# Poissons Ratio (x) = 0.35444 0.15783
# Poissons Ratio (y) = 0.35444 0.15783
# Poissons Ratio (z) = 0.48925 0.48925
#
# Static dielectric constant tensor:
#      x y z
#    x 3.559570 0.000000 0.000000 
#    y 0.000000 3.559570 0.000000 
#    z 0.000000 0.000000 3.242450 
# 
# 
# High freq. dielectric constant tensor:
#      x y z
#    x 1.736830 0.000000 0.000000 
#    y 0.000000 1.736830 0.000000 
#    z 0.000000 0.000000 1.710240 
# 
# From -- ./inp_files/2091.got.cif
#   From: 2010.03.12/outbox.cif.g09.slc.cpg/sg194_2_cif.got.tgz:2091.got - 2010.04.01 12:26:19.
