data_PCOD8330615
_publ_section_title
;
Structure prediction by ZEFSAII (Michael W. Deem and Ramdas Pophale) SiO2 
 PCOD8330615
Probable space group: P 63/M M C
;
_chemical_formula_sum "Si O2"
_cell_formula_units_Z 112
_cell_length_a 29.419811
_cell_length_b 29.419811
_cell_length_c 8.868974
_cell_angle_alpha 90.000000
_cell_angle_beta 90.000000
_cell_angle_gamma 120.000000
_cell_volume 6647.889165
_symmetry_space_group_name_H-M "P 63/M M C"
_symmetry_group_IT_number 194
_symmetry_cell_setting 'hexagonal'
loop_
_space_group_symop_operation_xyz
x,y,z
x-y,x,1/2+z
-y,x-y,z
-x,-y,1/2+z
-x+y,-x,z
y,-x+y,1/2+z
x-y,-y,-z
-x,-x+y,-z
y,x,-z
-y,-x,1/2-z
-x+y,y,1/2-z
x,x-y,1/2-z
-x,-y,-z
-x+y,-x,1/2-z
y,-x+y,-z
x,y,1/2-z
x-y,x,-z
-y,x-y,1/2-z
-x+y,y,z
x,x-y,z
-y,-x,z
y,x,1/2+z
x-y,-y,1/2+z
-x,-x+y,1/2+z
loop_
_atom_site_type_symbol
_atom_site_label
_atom_site_fract_x
_atom_site_fract_y
_atom_site_fract_z
Si Si1 0.052838 0.400292 0.426296
Si Si2 0.607412 0.214825 0.072783
Si Si3 0.666667 0.333334 0.430013
Si Si4 0.785290 0.214711 0.576871
Si Si5 0.159251 0.840750 0.928719
Si Si6 0.702652 0.757604 0.429347
Si Si7 0.663430 0.159467 0.924307
O O1 0.044441 0.396331 0.250000
O O2 0.065424 0.354998 0.477228
O O3 0.099384 0.457514 0.473748
O O4 0.000000 0.392804 0.500000
O O5 0.609269 0.218538 0.250000
O O6 0.636950 0.273899 0.005602
O O7 0.636063 0.183612 0.023244
O O8 0.666667 0.333334 0.250000
O O9 0.795518 0.204483 0.750000
O O10 0.810044 0.189957 0.468057
O O11 0.810011 0.275366 0.542132
O O12 0.155628 0.844373 0.750000
O O13 0.101087 0.810847 0.999294
O O14 0.746754 0.746754 0.500000
O O15 0.709437 0.763434 0.250000
O O16 0.651429 0.163568 0.750000
#
# Coordination Sequence:
#
# PCOD8330615 Si02
#       7
#    24  12   4  12  12  24  24
#     4   9  18  32  52  74 101 133 166 207 254 301
#     4  11  23  38  57  77  99 127 155 197 250 314
#     4   9  21  42  58  74 106 129 145 185 259 315
#     4  10  19  35  55  75 101 131 164 211 262 305
#     4  12  22  31  49  80 111 145 184 219 260 316
#     4  10  19  34  52  75 108 145 182 224 270 312
#     4  10  20  36  55  76 100 129 163 205 255 307
#
# _framework density 16.847452000000001
#
# number of rings (size 3 to 8) (size 9 to 14) (size 15 to 20)
#    0.000    1.929    2.143    2.571    0.000    2.571 
#    0.000    2.143    0.000    0.000    0.000    0.000 
#    0.000    0.000    0.000    0.321    0.000    4.500 
#
# Total GULP energy -1388976.867660 kJ/mol
# GULP energy per Si atom -12401.579176 kJ/mol
# Density = 1.680911 g / cm^3
# Si number density = 16.847452 Si / 1000 Ang^3
#
#
#
# Elastic Constant Matrix: (Units=GPa)
#
#
# Indices 1 2 3 4 5 6 
#
# 1 117.2443 66.3907 46.0238 0.0001 0.0000 0.0001
# 2 66.3907 117.2442 46.0240 0.0001 0.0000 0.0000
# 3 46.0238 46.0240 69.3668 0.0001 0.0000 0.0000
# 4 0.0001 0.0001 0.0001 28.0757 0.0000 0.0000
# 5 0.0000 0.0000 0.0000 0.0000 28.0756 0.0000
# 6 0.0001 0.0000 0.0000 0.0000 0.0000 25.4268
#
#
#
# Elastic Compliance Matrix: (Units=1/GPa)
#
#
# Indices 1 2 3 4 5 6 
#
# 1 0.013912 -0.005753 -0.005413 0.000000 0.000000 0.000000
# 2 -0.005753 0.013912 -0.005413 0.000000 0.000000 0.000000
# 3 -0.005413 -0.005413 0.021600 0.000000 0.000000 0.000000
# 4 0.000000 0.000000 0.000000 0.035618 0.000000 0.000000
# 5 0.000000 0.000000 0.000000 0.000000 0.035618 0.000000
# 6 0.000000 0.000000 0.000000 0.000000 0.000000 0.039329
#
#
# Mechanical properties :
#
#
# Convention : Reuss Voigt Hill
#
# Bulk Modulus (GPa) = 61.48540 68.97025 65.22782
# Shear Modulus (GPa) = 25.18027 26.01006 25.59516
#
# Velocity S-wave (km/s) = 3.87020 3.93346 3.90196
# Velocity P-wave (km/s) = 7.51970 7.85216 7.68773
#
# Compressibility (1/GPa) = 0.01626402
#
# Stress axis : x y z
#
# Youngs Moduli (GPa) = 71.88201 71.88179 46.29709
#
# Poissons Ratio (x) = 0.41351 0.25063
# Poissons Ratio (y) = 0.41351 0.25063
# Poissons Ratio (z) = 0.38913 0.38913
#
# Static dielectric constant tensor:
#      x y z
#    x 3.147650 0.000000 0.000000 
#    y 0.000000 3.147660 0.000000 
#    z 0.000000 0.000000 3.102180 
# 
# 
# High freq. dielectric constant tensor:
#      x y z
#    x 1.640300 0.000000 0.000000 
#    y 0.000000 1.640300 0.000000 
#    z 0.000000 0.000000 1.649130 
# 
# From -- ./inp_files/1982.got.cif
#   From: 2010.03.12/outbox.cif.g09.slc.cpg/sg194_1_cif.got.tgz:1982.got - 2010.04.01 12:26:19.
