data_PCOD8330990
_publ_section_title
;
Structure prediction by ZEFSAII (Michael W. Deem and Ramdas Pophale) SiO2 
 PCOD8330990
Probable space group: P 42 3 2
;
_chemical_formula_sum "Si O2"
_cell_formula_units_Z 104
_cell_length_a 17.139844
_cell_length_b 17.139844
_cell_length_c 17.139844
_cell_angle_alpha 90.000000
_cell_angle_beta 90.000000
_cell_angle_gamma 90.000000
_cell_volume 5035.244856
_symmetry_space_group_name_H-M "P 42 3 2"
_symmetry_group_IT_number 208
_symmetry_cell_setting 'cubic'
loop_
_space_group_symop_operation_xyz
x,y,z
1/2-y,1/2+x,1/2+z
-x,-y,z
1/2+y,1/2-x,1/2+z
1/2+x,1/2-z,1/2+y
x,-y,-z
1/2+x,1/2+z,1/2-y
1/2+z,1/2+y,1/2-x
-x,y,-z
1/2-z,1/2+y,1/2+x
z,x,y
y,z,x
-y,-z,x
z,-x,-y
-y,z,-x
-z,-x,y
-z,x,-y
y,-z,-x
1/2+y,1/2+x,1/2-z
1/2-y,1/2-x,1/2-z
1/2-x,1/2+z,1/2+y
1/2-x,1/2-z,1/2-y
1/2+z,1/2-y,1/2+x
1/2-z,1/2-y,1/2-x
loop_
_atom_site_type_symbol
_atom_site_label
_atom_site_fract_x
_atom_site_fract_y
_atom_site_fract_z
Si Si1 0.984874 0.219443 0.807747
Si Si2 0.503479 0.773136 0.122264
Si Si3 0.194461 0.194462 0.194461
Si Si4 0.930529 0.158376 0.444562
Si Si5 0.950264 0.073611 0.282734
O O1 0.014751 0.292844 0.759616
O O2 0.891695 0.230676 0.816990
O O3 0.001474 0.137199 0.766279
O O4 0.036746 0.224679 0.885826
O O5 0.587819 0.750000 0.087819
O O6 0.503896 0.864638 0.131869
O O7 0.434460 0.750000 0.065541
O O8 0.250000 0.250000 0.250000
O O9 0.927782 0.250000 0.427782
O O10 0.921107 0.113531 0.362455
O O11 0.000000 0.132585 0.500000
O O12 0.000000 0.000000 0.310590
#
# Coordination Sequence:
#
# PCOD8330990 Si02
#       5
#    24  24   8  24  24
#     4  12  25  47  70 101 140 185 243 295 358 431
#     4  11  24  42  69 102 141 183 232 290 355 430
#     4  12  27  45  72 102 138 189 243 297 366 435
#     4  11  25  44  70 105 144 188 232 285 355 438
#     4  12  26  44  74 102 137 187 238 299 363 426
#
# _framework density 20.654409000000001
#
# number of rings (size 3 to 8) (size 9 to 14) (size 15 to 20)
#    0.000    0.462    6.923    1.154    3.231    2.308 
#    0.000    0.000    0.000    0.000    0.000    0.000 
#    0.000    0.000    0.000    0.000    0.000    0.000 
#
# Total GULP energy -1288715.245007 kJ/mol
# GULP energy per Si atom -12391.492740 kJ/mol
# Density = 2.060740 g / cm^3
# Si number density = 20.654409 Si / 1000 Ang^3
#
#
#
# Elastic Constant Matrix: (Units=GPa)
#
#
# Indices 1 2 3 4 5 6 
#
# 1 119.2849 36.0905 36.0905 0.0000 0.0000 0.0000
# 2 36.0905 119.2849 36.0905 0.0000 0.0000 0.0000
# 3 36.0905 36.0905 119.2848 0.0000 0.0000 0.0000
# 4 0.0000 0.0000 0.0000 29.0472 0.0000 0.0000
# 5 0.0000 0.0000 0.0000 0.0000 29.0472 0.0000
# 6 0.0000 0.0000 0.0000 0.0000 0.0000 29.0472
#
#
#
# Elastic Compliance Matrix: (Units=1/GPa)
#
#
# Indices 1 2 3 4 5 6 
#
# 1 0.009754 -0.002266 -0.002266 0.000000 0.000000 0.000000
# 2 -0.002266 0.009754 -0.002266 0.000000 0.000000 0.000000
# 3 -0.002266 -0.002266 0.009754 0.000000 0.000000 0.000000
# 4 0.000000 0.000000 0.000000 0.034427 0.000000 0.000000
# 5 0.000000 0.000000 0.000000 0.000000 0.034427 0.000000
# 6 0.000000 0.000000 0.000000 0.000000 0.000000 0.034427
#
#
# Mechanical properties :
#
#
# Convention : Reuss Voigt Hill
#
# Bulk Modulus (GPa) = 63.82197 63.82197 63.82197
# Shear Modulus (GPa) = 33.03375 34.06719 33.55047
#
# Velocity S-wave (km/s) = 4.00353 4.06568 4.03472
# Velocity P-wave (km/s) = 7.23450 7.28056 7.25757
#
# Compressibility (1/GPa) = 0.01566859
#
# Stress axis : x y z
#
# Youngs Moduli (GPa) = 102.51871 102.51871 102.51867
#
# Poissons Ratio (x) = 0.23228 0.23228
# Poissons Ratio (y) = 0.23228 0.23228
# Poissons Ratio (z) = 0.23228 0.23228
#
# Static dielectric constant tensor:
#      x y z
#    x 3.894130 0.000000 0.000000 
#    y 0.000000 3.894130 0.000000 
#    z 0.000000 0.000000 3.894130 
# 
# 
# High freq. dielectric constant tensor:
#      x y z
#    x 1.818020 0.000000 0.000000 
#    y 0.000000 1.818020 0.000000 
#    z 0.000000 0.000000 1.818020 
# 
# From -- ./inp_files/901.got.cif
#   From: 2010.03.12/outbox.cif.g09.slc.cpg/sg208_cif.got.tgz:901.got - 2010.03.30 09:03:42.
