data_PCOD8330434
_publ_section_title
;
Structure prediction by ZEFSAII (Michael W. Deem and Ramdas Pophale) SiO2 
 PCOD8330434
Probable space group: P 63/M M C
;
_chemical_formula_sum "Si O2"
_cell_formula_units_Z 168
_cell_length_a 20.880187
_cell_length_b 20.880187
_cell_length_c 27.335168
_cell_angle_alpha 90.000000
_cell_angle_beta 90.000000
_cell_angle_gamma 120.000000
_cell_volume 10320.984997
_symmetry_space_group_name_H-M "P 63/M M C"
_symmetry_group_IT_number 194
_symmetry_cell_setting 'hexagonal'
loop_
_space_group_symop_operation_xyz
x,y,z
x-y,x,1/2+z
-y,x-y,z
-x,-y,1/2+z
-x+y,-x,z
y,-x+y,1/2+z
x-y,-y,-z
-x,-x+y,-z
y,x,-z
-y,-x,1/2-z
-x+y,y,1/2-z
x,x-y,1/2-z
-x,-y,-z
-x+y,-x,1/2-z
y,-x+y,-z
x,y,1/2-z
x-y,x,-z
-y,x-y,1/2-z
-x+y,y,z
x,x-y,z
-y,-x,z
y,x,1/2+z
x-y,-y,1/2+z
-x,-x+y,1/2+z
loop_
_atom_site_type_symbol
_atom_site_label
_atom_site_fract_x
_atom_site_fract_y
_atom_site_fract_z
Si Si1 0.469793 0.381915 0.598758
Si Si2 0.057849 0.264650 0.197178
Si Si3 0.940143 0.200579 0.040329
Si Si4 0.147427 0.003196 0.375697
Si Si5 0.181140 0.666070 0.494493
Si Si6 0.047485 0.652945 0.549026
Si Si7 0.857779 0.290687 0.693452
O O1 0.538939 0.461062 0.590687
O O2 0.473270 0.328301 0.557104
O O3 0.399826 0.394842 0.592511
O O4 0.475561 0.353992 0.653203
O O5 0.019813 0.254972 0.250000
O O6 0.123363 0.246726 0.202172
O O7 0.090023 0.347632 0.178462
O O8 0.997940 0.205254 0.160764
O O9 0.861317 0.138684 0.018316
O O10 0.971031 0.159691 0.073492
O O11 0.929092 0.263806 0.065967
O O12 0.000000 0.243102 0.000000
O O13 0.125128 0.062564 0.356513
O O14 0.075174 0.924827 0.383009
O O15 0.199462 0.599731 0.493686
O O16 0.256771 0.743230 0.502775
O O17 0.123107 0.650982 0.538871
O O18 0.000000 0.626732 0.500000
O O19 0.872526 0.320323 0.750000
O O20 0.771984 0.228017 0.688666
#
# Coordination Sequence:
#
# PCOD8330434 Si02
#       7
#    24  24  24  24  24  24  24
#     4  10  19  30  46  68  94 123 153 188 231 275
#     4   8  15  28  44  60  77 100 134 175 214 250
#     4  10  19  30  44  61  82 110 145 184 223 264
#     4  10  19  29  41  58  82 111 142 177 219 266
#     4  10  19  31  47  67  93 123 154 187 225 275
#     4   9  18  31  46  65  88 115 149 187 227 269
#     4   9  17  30  48  68  90 118 154 193 229 268
#
# _framework density 16.277517
#
# number of rings (size 3 to 8) (size 9 to 14) (size 15 to 20)
#    0.000    2.571    0.000    3.714    0.000    2.286 
#    0.000    4.286    0.000    3.429    0.000    0.000 
#    0.000    0.000    0.000    0.286    0.000    3.000 
#
# Total GULP energy -2081616.509588 kJ/mol
# GULP energy per Si atom -12390.574462 kJ/mol
# Density = 1.624047 g / cm^3
# Si number density = 16.277517 Si / 1000 Ang^3
#
#
#
# Elastic Constant Matrix: (Units=GPa)
#
#
# Indices 1 2 3 4 5 6 
#
# 1 76.4476 30.8324 15.9708 0.0000 0.0000 0.0000
# 2 30.8324 76.4476 15.9708 0.0000 0.0000 0.0000
# 3 15.9708 15.9708 45.6676 0.0000 0.0000 0.0000
# 4 0.0000 0.0000 0.0000 19.7442 0.0000 0.0000
# 5 0.0000 0.0000 0.0000 0.0000 19.7442 0.0000
# 6 0.0000 0.0000 0.0000 0.0000 0.0000 22.8076
#
#
#
# Elastic Compliance Matrix: (Units=1/GPa)
#
#
# Indices 1 2 3 4 5 6 
#
# 1 0.016164 -0.005759 -0.003639 0.000000 0.000000 0.000000
# 2 -0.005759 0.016164 -0.003639 0.000000 0.000000 0.000000
# 3 -0.003639 -0.003639 0.024442 0.000000 0.000000 0.000000
# 4 0.000000 0.000000 0.000000 0.050648 0.000000 0.000000
# 5 0.000000 0.000000 0.000000 0.000000 0.050648 0.000000
# 6 0.000000 0.000000 0.000000 0.000000 0.000000 0.043845
#
#
# Mechanical properties :
#
#
# Convention : Reuss Voigt Hill
#
# Bulk Modulus (GPa) = 32.57641 36.01230 34.29436
# Shear Modulus (GPa) = 20.98941 21.51180 21.25061
#
# Velocity S-wave (km/s) = 3.59482 3.63928 3.61712
# Velocity P-wave (km/s) = 6.10630 6.31119 6.20959
#
# Compressibility (1/GPa) = 0.03069706
#
# Stress axis : x y z
#
# Youngs Moduli (GPa) = 61.86720 61.86720 40.91246
#
# Poissons Ratio (x) = 0.35628 0.14887
# Poissons Ratio (y) = 0.35628 0.14887
# Poissons Ratio (z) = 0.22512 0.22512
#
# Static dielectric constant tensor:
#      x y z
#    x 3.151300 0.000000 0.000000 
#    y 0.000000 3.151300 0.000000 
#    z 0.000000 0.000000 3.122020 
# 
# 
# High freq. dielectric constant tensor:
#      x y z
#    x 1.621690 0.000000 0.000000 
#    y 0.000000 1.621690 0.000000 
#    z 0.000000 0.000000 1.602780 
# 
# From -- ./inp_files/11094.got.cif
#   From: 2010.03.12/outbox.cif.g09.slc.cpg/sg194_6_cif.got.tgz:11094.got - 2010.04.01 12:26:19.
