data_PCOD8330545
_publ_section_title
;
Structure prediction by ZEFSAII (Michael W. Deem and Ramdas Pophale) SiO2 
 PCOD8330545
Probable space group: P 63/M M C
;
_chemical_formula_sum "Si O2"
_cell_formula_units_Z 192
_cell_length_a 22.715132
_cell_length_b 22.715132
_cell_length_c 25.429739
_cell_angle_alpha 90.000000
_cell_angle_beta 90.000000
_cell_angle_gamma 120.000000
_cell_volume 11363.263152
_symmetry_space_group_name_H-M "P 63/M M C"
_symmetry_group_IT_number 194
_symmetry_cell_setting 'hexagonal'
loop_
_space_group_symop_operation_xyz
x,y,z
x-y,x,1/2+z
-y,x-y,z
-x,-y,1/2+z
-x+y,-x,z
y,-x+y,1/2+z
x-y,-y,-z
-x,-x+y,-z
y,x,-z
-y,-x,1/2-z
-x+y,y,1/2-z
x,x-y,1/2-z
-x,-y,-z
-x+y,-x,1/2-z
y,-x+y,-z
x,y,1/2-z
x-y,x,-z
-y,x-y,1/2-z
-x+y,y,z
x,x-y,z
-y,-x,z
y,x,1/2+z
x-y,-y,1/2+z
-x,-x+y,1/2+z
loop_
_atom_site_type_symbol
_atom_site_label
_atom_site_fract_x
_atom_site_fract_y
_atom_site_fract_z
Si Si1 0.277426 0.856631 0.689097
Si Si2 0.792845 0.719306 0.981478
Si Si3 0.801400 0.735394 0.189385
Si Si4 0.389960 0.471214 0.105523
Si Si5 0.922951 0.530434 0.107974
Si Si6 0.420719 0.278611 0.810873
Si Si7 0.585589 0.664601 0.998214
Si Si8 0.927480 0.722673 0.859515
O O1 0.298352 0.867582 0.750000
O O2 0.222107 0.777894 0.678481
O O3 0.245852 0.903386 0.672430
O O4 0.344488 0.879100 0.655496
O O5 0.869996 0.739992 0.996110
O O6 0.740841 0.648395 0.009285
O O7 0.777486 0.704424 0.920122
O O8 0.779933 0.779933 0.000000
O O9 0.789731 0.744727 0.250000
O O10 0.879632 0.759263 0.178281
O O11 0.784478 0.783618 0.154821
O O12 0.454053 0.545947 0.101697
O O13 0.412873 0.415119 0.114537
O O14 0.343898 0.469590 0.154229
O O15 0.345789 0.456418 0.051955
O O16 0.912349 0.456175 0.109236
O O17 0.891405 0.538918 0.053335
O O18 0.433058 0.300157 0.750000
O O19 0.437106 0.218553 0.822740
O O20 0.342820 0.253976 0.825068
O O21 0.610107 0.610107 0.000000
O O22 0.873514 0.747028 0.847721
#
# Coordination Sequence:
#
# PCOD8330545 Si02
#       8
#    24  24  24  24  24  24  24  24
#     4   9  19  34  50  72 103 136 172 212 250 294
#     4  10  21  34  51  77 106 134 171 215 257 303
#     4   9  18  31  48  72 100 131 169 211 255 304
#     4  10  19  32  51  74 103 135 162 200 252 304
#     4  10  20  32  50  77 105 133 165 202 250 305
#     4  10  20  33  49  70  99 134 171 211 252 295
#     4   9  18  32  48  72 104 133 164 200 245 298
#     4  10  19  32  49  72 100 130 166 209 257 310
#
# _framework density 16.896554999999999
#
# number of rings (size 3 to 8) (size 9 to 14) (size 15 to 20)
#    0.000    2.375    1.250    2.250    3.500    5.250 
#    0.000    1.250    0.000    0.875    0.000    0.000 
#    0.000    0.000    0.000    0.000    0.000    0.000 
#
# Total GULP energy -2380976.252632 kJ/mol
# GULP energy per Si atom -12400.917982 kJ/mol
# Density = 1.685810 g / cm^3
# Si number density = 16.896555 Si / 1000 Ang^3
#
#
#
# Elastic Constant Matrix: (Units=GPa)
#
#
# Indices 1 2 3 4 5 6 
#
# 1 81.8987 39.1948 44.1189 0.0000 0.0000 0.0000
# 2 39.1948 81.8987 44.1189 0.0000 0.0000 0.0000
# 3 44.1189 44.1189 93.4215 0.0000 0.0000 0.0000
# 4 0.0000 0.0000 0.0000 28.1807 0.0000 0.0000
# 5 0.0000 0.0000 0.0000 0.0000 28.1807 0.0000
# 6 0.0000 0.0000 0.0000 0.0000 0.0000 21.3519
#
#
#
# Elastic Compliance Matrix: (Units=1/GPa)
#
#
# Indices 1 2 3 4 5 6 
#
# 1 0.018004 -0.005413 -0.005946 0.000000 0.000000 0.000000
# 2 -0.005413 0.018004 -0.005946 0.000000 0.000000 0.000000
# 3 -0.005946 -0.005946 0.016320 0.000000 0.000000 0.000000
# 4 0.000000 0.000000 0.000000 0.035485 0.000000 0.000000
# 5 0.000000 0.000000 0.000000 0.000000 0.035485 0.000000
# 6 0.000000 0.000000 0.000000 0.000000 0.000000 0.046834
#
#
# Mechanical properties :
#
#
# Convention : Reuss Voigt Hill
#
# Bulk Modulus (GPa) = 56.44097 56.89822 56.66959
# Shear Modulus (GPa) = 23.73610 24.19508 23.96559
#
# Velocity S-wave (km/s) = 3.75212 3.78822 3.77021
# Velocity P-wave (km/s) = 7.22825 7.27198 7.25015
#
# Compressibility (1/GPa) = 0.01771763
#
# Stress axis : x y z
#
# Youngs Moduli (GPa) = 55.54328 55.54328 61.27319
#
# Poissons Ratio (x) = 0.30066 0.36434
# Poissons Ratio (y) = 0.30066 0.36434
# Poissons Ratio (z) = 0.33027 0.33027
#
# Static dielectric constant tensor:
#      x y z
#    x 2.994710 0.000000 0.000000 
#    y 0.000000 2.994710 0.000000 
#    z 0.000000 0.000000 3.251830 
# 
# 
# High freq. dielectric constant tensor:
#      x y z
#    x 1.630270 0.000000 0.000000 
#    y 0.000000 1.630270 0.000000 
#    z 0.000000 0.000000 1.664080 
# 
# From -- ./inp_files/10164.got.cif
#   From: 2010.03.12/outbox.cif.g09.slc.cpg/sg194_6_cif.got.tgz:10164.got - 2010.04.01 12:26:19.
