data_PCOD8330543
_publ_section_title
;
Structure prediction by ZEFSAII (Michael W. Deem and Ramdas Pophale) SiO2 
 PCOD8330543
Probable space group: P 63/M M C
;
_chemical_formula_sum "Si O2"
_cell_formula_units_Z 84
_cell_length_a 21.158855
_cell_length_b 21.158855
_cell_length_c 13.064323
_cell_angle_alpha 90.000000
_cell_angle_beta 90.000000
_cell_angle_gamma 120.000000
_cell_volume 5065.261436
_symmetry_space_group_name_H-M "P 63/M M C"
_symmetry_group_IT_number 194
_symmetry_cell_setting 'hexagonal'
loop_
_space_group_symop_operation_xyz
x,y,z
x-y,x,1/2+z
-y,x-y,z
-x,-y,1/2+z
-x+y,-x,z
y,-x+y,1/2+z
x-y,-y,-z
-x,-x+y,-z
y,x,-z
-y,-x,1/2-z
-x+y,y,1/2-z
x,x-y,1/2-z
-x,-y,-z
-x+y,-x,1/2-z
y,-x+y,-z
x,y,1/2-z
x-y,x,-z
-y,x-y,1/2-z
-x+y,y,z
x,x-y,z
-y,-x,z
y,x,1/2+z
x-y,-y,1/2+z
-x,-x+y,1/2+z
loop_
_atom_site_type_symbol
_atom_site_label
_atom_site_fract_x
_atom_site_fract_y
_atom_site_fract_z
Si Si1 0.967780 0.244615 0.634139
Si Si2 0.854986 0.854986 0.000000
Si Si3 0.256382 0.368277 0.551951
Si Si4 0.666225 0.188707 0.130911
O O1 0.939539 0.230004 0.750000
O O2 0.908513 0.252340 0.565956
O O3 0.976645 0.177208 0.595227
O O4 0.045021 0.318662 0.626338
O O5 0.932564 0.865127 0.033381
O O6 0.179446 0.358891 0.587198
O O7 0.319239 0.452218 0.564615
O O8 0.664605 0.169282 0.250000
O O9 0.589472 0.178943 0.094537
O O10 0.728108 0.271893 0.110116
#
# Coordination Sequence:
#
# PCOD8330543 Si02
#       4
#    24  12  24  24
#     4  10  19  32  49  68  90 118 155 194 228 267
#     4  10  21  34  48  68  93 120 150 188 236 284
#     4   9  18  31  47  68  92 119 151 187 229 272
#     4   9  16  27  46  72  99 124 150 182 222 269
#
# _framework density 16.583546999999999
#
# number of rings (size 3 to 8) (size 9 to 14) (size 15 to 20)
#    0.000    2.857    0.000    4.714    0.000    6.857 
#    0.000    2.857    0.000    4.286    0.000    0.000 
#    0.000    2.286    0.000    0.000    0.000    0.000 
#
# Total GULP energy -1041478.872911 kJ/mol
# GULP energy per Si atom -12398.558011 kJ/mol
# Density = 1.654580 g / cm^3
# Si number density = 16.583547 Si / 1000 Ang^3
#
#
#
# Elastic Constant Matrix: (Units=GPa)
#
#
# Indices 1 2 3 4 5 6 
#
# 1 110.6788 52.9966 25.3609 0.0000 0.0000 0.0000
# 2 52.9966 110.6788 25.3609 0.0000 0.0000 0.0000
# 3 25.3609 25.3609 90.4723 0.0000 0.0000 0.0000
# 4 0.0000 0.0000 0.0000 12.6870 0.0000 0.0000
# 5 0.0000 0.0000 0.0000 0.0000 12.6870 0.0000
# 6 0.0000 0.0000 0.0000 0.0000 0.0000 28.8411
#
#
#
# Elastic Compliance Matrix: (Units=1/GPa)
#
#
# Indices 1 2 3 4 5 6 
#
# 1 0.012014 -0.005323 -0.001876 0.000000 0.000000 0.000000
# 2 -0.005323 0.012014 -0.001876 0.000000 0.000000 0.000000
# 3 -0.001876 -0.001876 0.012105 0.000000 0.000000 0.000000
# 4 0.000000 0.000000 0.000000 0.078821 0.000000 0.000000
# 5 0.000000 0.000000 0.000000 0.000000 0.078821 0.000000
# 6 0.000000 0.000000 0.000000 0.000000 0.000000 0.034673
#
#
# Mechanical properties :
#
#
# Convention : Reuss Voigt Hill
#
# Bulk Modulus (GPa) = 55.60467 57.69631 56.65049
# Shear Modulus (GPa) = 19.79499 24.71710 22.25605
#
# Velocity S-wave (km/s) = 3.45868 3.86484 3.66738
# Velocity P-wave (km/s) = 7.03937 7.40154 7.22272
#
# Compressibility (1/GPa) = 0.01798410
#
# Stress axis : x y z
#
# Youngs Moduli (GPa) = 83.23881 83.23881 82.61316
#
# Poissons Ratio (x) = 0.44306 0.15495
# Poissons Ratio (y) = 0.44306 0.15495
# Poissons Ratio (z) = 0.15612 0.15612
#
# Static dielectric constant tensor:
#      x y z
#    x 3.131260 0.000000 0.000000 
#    y 0.000000 3.131260 0.000000 
#    z 0.000000 0.000000 2.873350 
# 
# 
# High freq. dielectric constant tensor:
#      x y z
#    x 1.637410 0.000000 0.000000 
#    y 0.000000 1.637410 0.000000 
#    z 0.000000 0.000000 1.612740 
# 
# From -- ./inp_files/2757.got.cif
#   From: 2010.03.12/outbox.cif.g09.slc.cpg/sg194_2_cif.got.tgz:2757.got - 2010.04.01 12:26:19.
