data_PCOD8330861
_publ_section_title
;
Structure prediction by ZEFSAII (Michael W. Deem and Ramdas Pophale) SiO2 
 PCOD8330861
Probable space group: P 63/M M C
;
_chemical_formula_sum "Si O2"
_cell_formula_units_Z 144
_cell_length_a 31.762389
_cell_length_b 31.762389
_cell_length_c 9.784471
_cell_angle_alpha 90.000000
_cell_angle_beta 90.000000
_cell_angle_gamma 120.000000
_cell_volume 8548.586347
_symmetry_space_group_name_H-M "P 63/M M C"
_symmetry_group_IT_number 194
_symmetry_cell_setting 'hexagonal'
loop_
_space_group_symop_operation_xyz
x,y,z
x-y,x,1/2+z
-y,x-y,z
-x,-y,1/2+z
-x+y,-x,z
y,-x+y,1/2+z
x-y,-y,-z
-x,-x+y,-z
y,x,-z
-y,-x,1/2-z
-x+y,y,1/2-z
x,x-y,1/2-z
-x,-y,-z
-x+y,-x,1/2-z
y,-x+y,-z
x,y,1/2-z
x-y,x,-z
-y,x-y,1/2-z
-x+y,y,z
x,x-y,z
-y,-x,z
y,x,1/2+z
x-y,-y,1/2+z
-x,-x+y,1/2+z
loop_
_atom_site_type_symbol
_atom_site_label
_atom_site_fract_x
_atom_site_fract_y
_atom_site_fract_z
Si Si1 0.240196 0.858880 0.592790
Si Si2 0.333355 0.571202 0.913041
Si Si3 0.571718 0.044678 0.092736
Si Si4 0.334812 0.857667 0.587801
Si Si5 0.857703 0.044925 0.591052
Si Si6 0.703730 0.901825 0.098924
O O1 0.246953 0.875263 0.750000
O O2 0.194237 0.805764 0.572712
O O3 0.286590 0.857047 0.535608
O O4 0.235274 0.899783 0.508428
O O5 0.333201 0.570561 0.750000
O O6 0.284684 0.569368 0.968257
O O7 0.379947 0.620054 0.967902
O O8 0.335728 0.524918 0.972082
O O9 0.578232 0.033698 0.250000
O O10 0.526731 0.053462 0.076507
O O11 0.618496 0.093042 0.037043
O O12 0.564951 0.000000 0.000000
O O13 0.334787 0.854715 0.750000
O O14 0.854572 0.031259 0.750000
O O15 0.910372 0.089629 0.554965
O O16 0.815797 0.057883 0.553744
O O17 0.850224 0.000000 0.500000
O O18 0.691916 0.913941 0.250000
O O19 0.701363 0.850682 0.104022
#
# Coordination Sequence:
#
# PCOD8330861 Si02
#       6
#    24  24  24  24  24  24
#     4   9  16  26  42  64  88 115 148 182 215 257
#     4   9  15  22  34  55  85 119 152 185 223 269
#     4   9  17  30  47  63  79 104 139 177 218 263
#     4   9  16  26  40  59  84 113 145 181 221 267
#     4   9  18  32  50  73  99 126 158 195 234 275
#     4   8  15  29  46  63  87 118 148 180 219 260
#
# _framework density 16.844888999999998
#
# number of rings (size 3 to 8) (size 9 to 14) (size 15 to 20)
#    0.000    3.167    0.000    2.167    0.000    5.667 
#    0.000    3.333    0.000    4.167    0.000    0.000 
#    0.000    0.000    0.000    1.000    0.000   30.833 
#
# Total GULP energy -1785192.437775 kJ/mol
# GULP energy per Si atom -12397.169707 kJ/mol
# Density = 1.680655 g / cm^3
# Si number density = 16.844889 Si / 1000 Ang^3
#
#
#
# Elastic Constant Matrix: (Units=GPa)
#
#
# Indices 1 2 3 4 5 6 
#
# 1 114.7604 66.2323 46.6221 0.0000 0.0000 0.0000
# 2 66.2323 114.7604 46.6221 0.0000 0.0000 0.0000
# 3 46.6221 46.6221 50.4969 0.0000 0.0000 0.0000
# 4 0.0000 0.0000 0.0000 19.3958 0.0000 0.0000
# 5 0.0000 0.0000 0.0000 0.0000 19.3958 0.0000
# 6 0.0000 0.0000 0.0000 0.0000 0.0000 24.2640
#
#
#
# Elastic Compliance Matrix: (Units=1/GPa)
#
#
# Indices 1 2 3 4 5 6 
#
# 1 0.015572 -0.005035 -0.009728 0.000000 0.000000 0.000000
# 2 -0.005035 0.015572 -0.009728 0.000000 0.000000 0.000000
# 3 -0.009728 -0.009728 0.037767 0.000000 0.000000 0.000000
# 4 0.000000 0.000000 0.000000 0.051558 0.000000 0.000000
# 5 0.000000 0.000000 0.000000 0.000000 0.051558 0.000000
# 6 0.000000 0.000000 0.000000 0.000000 0.000000 0.041213
#
#
# Mechanical properties :
#
#
# Convention : Reuss Voigt Hill
#
# Bulk Modulus (GPa) = 50.18248 66.55231 58.36740
# Shear Modulus (GPa) = 18.59669 20.64720 19.62195
#
# Velocity S-wave (km/s) = 3.32625 3.50483 3.41671
# Velocity P-wave (km/s) = 6.67888 7.48152 7.09157
#
# Compressibility (1/GPa) = 0.01992727
#
# Stress axis : x y z
#
# Youngs Moduli (GPa) = 64.21856 64.21856 26.47807
#
# Poissons Ratio (x) = 0.32333 0.25759
# Poissons Ratio (y) = 0.32333 0.25759
# Poissons Ratio (z) = 0.62475 0.62475
#
# Static dielectric constant tensor:
#      x y z
#    x 3.176840 0.000000 0.000000 
#    y 0.000000 3.176840 0.000000 
#    z 0.000000 0.000000 2.914750 
# 
# 
# High freq. dielectric constant tensor:
#      x y z
#    x 1.645880 0.000000 0.000000 
#    y 0.000000 1.645880 0.000000 
#    z 0.000000 0.000000 1.608050 
# 
# From -- ./inp_files/2128.got.cif
#   From: 2010.03.12/outbox.cif.g09.slc.cpg/sg194_2_cif.got.tgz:2128.got - 2010.04.01 12:26:19.
