data_PCOD8330336
_publ_section_title
;
Structure prediction by ZEFSAII (Michael W. Deem and Ramdas Pophale) SiO2 
 PCOD8330336
Probable space group: P 63/M M C
;
_chemical_formula_sum "Si O2"
_cell_formula_units_Z 120
_cell_length_a 17.046021
_cell_length_b 17.046021
_cell_length_c 33.520828
_cell_angle_alpha 90.000000
_cell_angle_beta 90.000000
_cell_angle_gamma 120.000000
_cell_volume 8435.122763
_symmetry_space_group_name_H-M "P 63/M M C"
_symmetry_group_IT_number 194
_symmetry_cell_setting 'hexagonal'
loop_
_space_group_symop_operation_xyz
x,y,z
x-y,x,1/2+z
-y,x-y,z
-x,-y,1/2+z
-x+y,-x,z
y,-x+y,1/2+z
x-y,-y,-z
-x,-x+y,-z
y,x,-z
-y,-x,1/2-z
-x+y,y,1/2-z
x,x-y,1/2-z
-x,-y,-z
-x+y,-x,1/2-z
y,-x+y,-z
x,y,1/2-z
x-y,x,-z
-y,x-y,1/2-z
-x+y,y,z
x,x-y,z
-y,-x,z
y,x,1/2+z
x-y,-y,1/2+z
-x,-x+y,1/2+z
loop_
_atom_site_type_symbol
_atom_site_label
_atom_site_fract_x
_atom_site_fract_y
_atom_site_fract_z
Si Si1 0.276521 0.900265 0.010714
Si Si2 0.849715 0.332974 0.295433
Si Si3 0.481698 0.332248 0.592035
Si Si4 0.395806 0.419481 0.864712
Si Si5 0.846470 0.514945 0.432463
O O1 0.168194 0.831807 0.010873
O O2 0.320118 0.895992 0.052356
O O3 0.324977 0.871507 0.977728
O O4 0.294043 0.000000 0.000000
O O5 0.878696 0.330667 0.250000
O O6 0.829739 0.414870 0.302126
O O7 0.758930 0.241070 0.306929
O O8 0.932897 0.343713 0.323120
O O9 0.492729 0.246365 0.601472
O O10 0.580479 0.419522 0.586741
O O11 0.426666 0.344376 0.629072
O O12 0.483376 0.516625 0.865451
O O13 0.333892 0.412654 0.902331
O O14 0.752657 0.505314 0.419272
O O15 0.836572 0.418286 0.428023
#
# Coordination Sequence:
#
# PCOD8330336 Si02
#       5
#    24  24  24  24  24
#     4  10  19  30  44  61  83 111 141 176 216 255
#     4   9  16  26  41  62  88 116 143 168 197 240
#     4  10  19  30  44  60  81 110 146 182 215 249
#     4   9  17  27  40  57  80 110 139 172 209 241
#     4  10  18  26  38  57  84 114 143 171 202 241
#
# _framework density 14.226229999999999
#
# number of rings (size 3 to 8) (size 9 to 14) (size 15 to 20)
#    0.000    2.400    2.000    1.800    0.000    1.600 
#    0.000    4.000    0.000    0.800    0.000    0.000 
#    0.000    1.600    0.000    0.800    0.000    5.200 
#
# Total GULP energy -1487230.320861 kJ/mol
# GULP energy per Si atom -12393.586007 kJ/mol
# Density = 1.419385 g / cm^3
# Si number density = 14.226230 Si / 1000 Ang^3
#
#
#
# Elastic Constant Matrix: (Units=GPa)
#
#
# Indices 1 2 3 4 5 6 
#
# 1 84.5866 49.2219 38.2189 0.0000 0.0000 0.0000
# 2 49.2219 84.5866 38.2189 0.0000 0.0000 0.0000
# 3 38.2189 38.2189 82.7681 0.0000 0.0000 0.0000
# 4 0.0000 0.0000 0.0000 19.9149 0.0000 0.0000
# 5 0.0000 0.0000 0.0000 0.0000 19.9149 0.0000
# 6 0.0000 0.0000 0.0000 0.0000 0.0000 17.6824
#
#
#
# Elastic Compliance Matrix: (Units=1/GPa)
#
#
# Indices 1 2 3 4 5 6 
#
# 1 0.019214 -0.009063 -0.004687 0.000000 0.000000 0.000000
# 2 -0.009063 0.019214 -0.004687 0.000000 0.000000 0.000000
# 3 -0.004687 -0.004687 0.016411 0.000000 0.000000 0.000000
# 4 0.000000 0.000000 0.000000 0.050214 0.000000 0.000000
# 5 0.000000 0.000000 0.000000 0.000000 0.050214 0.000000
# 6 0.000000 0.000000 0.000000 0.000000 0.000000 0.056553
#
#
# Mechanical properties :
#
#
# Convention : Reuss Voigt Hill
#
# Bulk Modulus (GPa) = 55.66843 55.91784 55.79314
# Shear Modulus (GPa) = 19.63233 19.92123 19.77678
#
# Velocity S-wave (km/s) = 3.71888 3.74614 3.73253
# Velocity P-wave (km/s) = 7.59315 7.62253 7.60785
#
# Compressibility (1/GPa) = 0.01796350
#
# Stress axis : x y z
#
# Youngs Moduli (GPa) = 52.04576 52.04576 60.93563
#
# Poissons Ratio (x) = 0.47168 0.28562
# Poissons Ratio (y) = 0.47168 0.28562
# Poissons Ratio (z) = 0.24395 0.24395
#
# Static dielectric constant tensor:
#      x y z
#    x 2.742920 0.000000 0.000000 
#    y 0.000000 2.742920 0.000000 
#    z 0.000000 0.000000 2.937500 
# 
# 
# High freq. dielectric constant tensor:
#      x y z
#    x 1.524510 0.000000 0.000000 
#    y 0.000000 1.524510 0.000000 
#    z 0.000000 0.000000 1.541840 
# 
# From -- ./inp_files/11857.got.cif
#   From: 2010.03.12/outbox.cif.g09.slc.cpg/sg194_6_cif.got.tgz:11857.got - 2010.04.01 12:26:19.
