data_PCOD8330518
_publ_section_title
;
Structure prediction by ZEFSAII (Michael W. Deem and Ramdas Pophale) SiO2 
 PCOD8330518
Probable space group: P 63/M M C
;
_chemical_formula_sum "Si O2"
_cell_formula_units_Z 192
_cell_length_a 24.290591
_cell_length_b 24.290591
_cell_length_c 20.207095
_cell_angle_alpha 90.000000
_cell_angle_beta 90.000000
_cell_angle_gamma 120.000000
_cell_volume 10325.490178
_symmetry_space_group_name_H-M "P 63/M M C"
_symmetry_group_IT_number 194
_symmetry_cell_setting 'hexagonal'
loop_
_space_group_symop_operation_xyz
x,y,z
x-y,x,1/2+z
-y,x-y,z
-x,-y,1/2+z
-x+y,-x,z
y,-x+y,1/2+z
x-y,-y,-z
-x,-x+y,-z
y,x,-z
-y,-x,1/2-z
-x+y,y,1/2-z
x,x-y,1/2-z
-x,-y,-z
-x+y,-x,1/2-z
y,-x+y,-z
x,y,1/2-z
x-y,x,-z
-y,x-y,1/2-z
-x+y,y,z
x,x-y,z
-y,-x,z
y,x,1/2+z
x-y,-y,1/2+z
-x,-x+y,1/2+z
loop_
_atom_site_type_symbol
_atom_site_label
_atom_site_fract_x
_atom_site_fract_y
_atom_site_fract_z
Si Si1 0.477492 0.084816 0.328072
Si Si2 0.999891 0.125646 0.578003
Si Si3 0.674404 0.899924 0.995574
Si Si4 0.999043 0.244936 0.099361
Si Si5 0.840078 0.282445 0.673901
Si Si6 0.667590 0.457341 0.561533
Si Si7 0.293507 0.835129 0.564825
Si Si8 0.018615 0.357253 0.173366
O O1 0.475754 0.099614 0.250000
O O2 0.536805 0.073609 0.342692
O O3 0.483101 0.143396 0.371291
O O4 0.411382 0.023402 0.352197
O O5 0.066641 0.133282 0.601388
O O6 0.000000 0.139192 0.500000
O O7 0.983408 0.174084 0.617933
O O8 0.945541 0.054460 0.595128
O O9 0.667174 0.833587 0.018825
O O10 0.610053 0.889820 0.961732
O O11 0.728998 0.933249 0.940363
O O12 0.695767 0.946985 0.057708
O O13 0.987816 0.281461 0.159833
O O14 0.841088 0.303192 0.750000
O O15 0.794214 0.205787 0.666516
O O16 0.813322 0.317175 0.628929
O O17 0.909639 0.303614 0.645337
O O18 0.714452 0.428904 0.554076
O O19 0.596293 0.403708 0.568605
O O20 0.672036 0.495886 0.496134
O O21 0.228056 0.771945 0.585038
O O22 0.023464 0.367002 0.250000
#
# Coordination Sequence:
#
# PCOD8330518 Si02
#       8
#    24  24  24  24  24  24  24  24
#     4  10  21  38  58  80 109 145 184 226 275 334
#     4  10  19  31  48  74 107 143 180 222 273 329
#     4  10  19  31  49  75 106 138 174 219 268 322
#     4  11  19  30  53  76 106 141 180 221 271 322
#     4   9  19  36  56  77 105 142 183 222 261 318
#     4  10  20  34  53  78 106 137 175 222 275 327
#     4  10  20  35  55  78 108 143 182 228 279 333
#     4  10  21  37  55  79 109 141 180 223 272 323
#
# _framework density 18.594759
#
# number of rings (size 3 to 8) (size 9 to 14) (size 15 to 20)
#    0.000    2.000    2.500    2.125    0.000    3.500 
#    0.000    1.250    0.000    4.750    0.000    0.000 
#    0.000    1.000    0.000    0.000    0.000    0.000 
#
# Total GULP energy -2379345.500540 kJ/mol
# GULP energy per Si atom -12392.424482 kJ/mol
# Density = 1.855244 g / cm^3
# Si number density = 18.594759 Si / 1000 Ang^3
#
#
#
# Elastic Constant Matrix: (Units=GPa)
#
#
# Indices 1 2 3 4 5 6 
#
# 1 112.6078 54.8359 38.2944 0.0000 0.0000 0.0000
# 2 54.8359 112.6078 38.2944 0.0000 0.0000 0.0000
# 3 38.2944 38.2944 53.1767 0.0000 0.0000 0.0000
# 4 0.0000 0.0000 0.0000 14.0124 0.0000 0.0000
# 5 0.0000 0.0000 0.0000 0.0000 14.0124 0.0000
# 6 0.0000 0.0000 0.0000 0.0000 0.0000 28.8859
#
#
#
# Elastic Compliance Matrix: (Units=1/GPa)
#
#
# Indices 1 2 3 4 5 6 
#
# 1 0.013108 -0.004202 -0.006413 0.000000 0.000000 0.000000
# 2 -0.004202 0.013108 -0.006413 0.000000 0.000000 0.000000
# 3 -0.006413 -0.006413 0.028042 0.000000 0.000000 0.000000
# 4 0.000000 0.000000 0.000000 0.071365 0.000000 0.000000
# 5 0.000000 0.000000 0.000000 0.000000 0.071365 0.000000
# 6 0.000000 0.000000 0.000000 0.000000 0.000000 0.034619
#
#
# Mechanical properties :
#
#
# Convention : Reuss Voigt Hill
#
# Bulk Modulus (GPa) = 49.50430 60.13798 54.82114
# Shear Modulus (GPa) = 18.35557 21.17997 19.76777
#
# Velocity S-wave (km/s) = 3.14528 3.37861 3.26403
# Velocity P-wave (km/s) = 6.31434 6.90156 6.61447
#
# Compressibility (1/GPa) = 0.02020027
#
# Stress axis : x y z
#
# Youngs Moduli (GPa) = 76.29209 76.29209 35.66082
#
# Poissons Ratio (x) = 0.32058 0.22870
# Poissons Ratio (y) = 0.32058 0.22870
# Poissons Ratio (z) = 0.48928 0.48928
#
# Static dielectric constant tensor:
#      x y z
#    x 3.571190 0.000000 0.000000 
#    y 0.000000 3.571190 0.000000 
#    z 0.000000 0.000000 3.208320 
# 
# 
# High freq. dielectric constant tensor:
#      x y z
#    x 1.724440 0.000000 0.000000 
#    y 0.000000 1.724440 0.000000 
#    z 0.000000 0.000000 1.698160 
# 
# From -- ./inp_files/8724.got.cif
#   From: 2010.03.12/outbox.cif.g09.slc.cpg/sg194_5_cif.got.tgz:8724.got - 2010.04.01 12:26:19.
