data_PCOD8330305
_publ_section_title
;
Structure prediction by ZEFSAII (Michael W. Deem and Ramdas Pophale) SiO2 
 PCOD8330305
Probable space group: P 63/M M C
;
_chemical_formula_sum "Si O2"
_cell_formula_units_Z 96
_cell_length_a 32.702093
_cell_length_b 32.702093
_cell_length_c 7.571915
_cell_angle_alpha 90.000000
_cell_angle_beta 90.000000
_cell_angle_gamma 120.000000
_cell_volume 7012.735523
_symmetry_space_group_name_H-M "P 63/M M C"
_symmetry_group_IT_number 194
_symmetry_cell_setting 'hexagonal'
loop_
_space_group_symop_operation_xyz
x,y,z
x-y,x,1/2+z
-y,x-y,z
-x,-y,1/2+z
-x+y,-x,z
y,-x+y,1/2+z
x-y,-y,-z
-x,-x+y,-z
y,x,-z
-y,-x,1/2-z
-x+y,y,1/2-z
x,x-y,1/2-z
-x,-y,-z
-x+y,-x,1/2-z
y,-x+y,-z
x,y,1/2-z
x-y,x,-z
-y,x-y,1/2-z
-x+y,y,z
x,x-y,z
-y,-x,z
y,x,1/2+z
x-y,-y,1/2+z
-x,-x+y,1/2+z
loop_
_atom_site_type_symbol
_atom_site_label
_atom_site_fract_x
_atom_site_fract_y
_atom_site_fract_z
Si Si1 0.111083 0.434439 0.545415
Si Si2 0.737977 0.565855 0.750000
Si Si3 0.269721 0.324333 0.951872
Si Si4 0.206975 0.884441 0.250000
Si Si5 0.481351 0.052641 0.456693
O O1 0.126359 0.444848 0.750000
O O2 0.157533 0.450694 0.427910
O O3 0.073217 0.379499 0.515511
O O4 0.088212 0.464881 0.471315
O O5 0.771294 0.542587 0.750000
O O6 0.769643 0.621723 0.750000
O O7 0.252076 0.314773 0.750000
O O8 0.296222 0.296222 0.000000
O O9 0.223571 0.306342 0.075177
O O10 0.149901 0.850100 0.250000
O O11 0.487416 0.059223 0.250000
O O12 0.531424 0.062848 0.541530
O O13 0.440620 0.000000 0.500000
#
# Coordination Sequence:
#
# PCOD8330305 Si02
#       5
#    24  12  24  12  24
#     4   9  18  28  40  58  78 102 131 165 201 239
#     4   9  18  30  43  57  73  98 129 163 204 246
#     4  10  17  26  41  58  75  99 132 168 204 237
#     4   9  18  30  40  55  78  98 124 165 209 244
#     4   9  17  27  38  55  80 109 138 166 195 229
#
# _framework density 13.68938
#
# number of rings (size 3 to 8) (size 9 to 14) (size 15 to 20)
#    0.000    2.750    1.250    0.750    1.750    1.000 
#    0.000    5.000    0.000    0.000    0.000    0.000 
#    0.000    0.000    0.000    3.000    0.000   19.500 
#
# Total GULP energy -1189888.726460 kJ/mol
# GULP energy per Si atom -12394.674234 kJ/mol
# Density = 1.365822 g / cm^3
# Si number density = 13.689380 Si / 1000 Ang^3
#
#
#
# Elastic Constant Matrix: (Units=GPa)
#
#
# Indices 1 2 3 4 5 6 
#
# 1 81.3858 42.7584 41.5160 0.0000 0.0000 0.0000
# 2 42.7584 81.3858 41.5160 0.0000 0.0000 0.0000
# 3 41.5160 41.5160 87.0267 0.0000 0.0000 0.0000
# 4 0.0000 0.0000 0.0000 15.5239 0.0000 0.0000
# 5 0.0000 0.0000 0.0000 0.0000 15.5239 0.0000
# 6 0.0000 0.0000 0.0000 0.0000 0.0000 19.3137
#
#
#
# Elastic Compliance Matrix: (Units=1/GPa)
#
#
# Indices 1 2 3 4 5 6 
#
# 1 0.018859 -0.007029 -0.005643 0.000000 0.000000 0.000000
# 2 -0.007029 0.018859 -0.005643 0.000000 0.000000 0.000000
# 3 -0.005643 -0.005643 0.016875 0.000000 0.000000 0.000000
# 4 0.000000 0.000000 0.000000 0.064417 0.000000 0.000000
# 5 0.000000 0.000000 0.000000 0.000000 0.064417 0.000000
# 6 0.000000 0.000000 0.000000 0.000000 0.000000 0.051777
#
#
# Mechanical properties :
#
#
# Convention : Reuss Voigt Hill
#
# Bulk Modulus (GPa) = 55.67625 55.70878 55.69251
# Shear Modulus (GPa) = 17.99711 18.33949 18.16830
#
# Velocity S-wave (km/s) = 3.62978 3.66414 3.64700
# Velocity P-wave (km/s) = 7.63718 7.66058 7.64889
#
# Compressibility (1/GPa) = 0.01796098
#
# Stress axis : x y z
#
# Youngs Moduli (GPa) = 53.02519 53.02519 59.25942
#
# Poissons Ratio (x) = 0.37274 0.33442
# Poissons Ratio (y) = 0.37274 0.33442
# Poissons Ratio (z) = 0.29924 0.29924
#
# Static dielectric constant tensor:
#      x y z
#    x 2.710600 0.000000 0.000000 
#    y 0.000000 2.710600 0.000000 
#    z 0.000000 0.000000 2.873440 
# 
# 
# High freq. dielectric constant tensor:
#      x y z
#    x 1.488640 0.000000 0.000000 
#    y 0.000000 1.488640 0.000000 
#    z 0.000000 0.000000 1.538840 
# 
# From -- ./inp_files/1746.got.cif
#   From: 2010.03.12/outbox.cif.g09.slc.cpg/sg194_1_cif.got.tgz:1746.got - 2010.04.01 12:26:19.
