data_PCOD8330851
_publ_section_title
;
Structure prediction by ZEFSAII (Michael W. Deem and Ramdas Pophale) SiO2 
 PCOD8330851
Probable space group: P 63/M M C
;
_chemical_formula_sum "Si O2"
_cell_formula_units_Z 96
_cell_length_a 27.386242
_cell_length_b 27.386242
_cell_length_c 10.008860
_cell_angle_alpha 90.000000
_cell_angle_beta 90.000000
_cell_angle_gamma 120.000000
_cell_volume 6500.999449
_symmetry_space_group_name_H-M "P 63/M M C"
_symmetry_group_IT_number 194
_symmetry_cell_setting 'hexagonal'
loop_
_space_group_symop_operation_xyz
x,y,z
x-y,x,1/2+z
-y,x-y,z
-x,-y,1/2+z
-x+y,-x,z
y,-x+y,1/2+z
x-y,-y,-z
-x,-x+y,-z
y,x,-z
-y,-x,1/2-z
-x+y,y,1/2-z
x,x-y,1/2-z
-x,-y,-z
-x+y,-x,1/2-z
y,-x+y,-z
x,y,1/2-z
x-y,x,-z
-y,x-y,1/2-z
-x+y,y,z
x,x-y,z
-y,-x,z
y,x,1/2+z
x-y,-y,1/2+z
-x,-x+y,1/2+z
loop_
_atom_site_type_symbol
_atom_site_label
_atom_site_fract_x
_atom_site_fract_y
_atom_site_fract_z
Si Si1 0.775500 0.441969 0.909049
Si Si2 0.724825 0.158683 0.600957
Si Si3 0.342033 0.228900 0.397826
Si Si4 0.949583 0.785482 0.095627
O O1 0.772152 0.439603 0.750000
O O2 0.715581 0.431162 0.965993
O O3 0.787617 0.393809 0.966179
O O4 0.825887 0.503956 0.951730
O O5 0.709875 0.132429 0.750000
O O6 0.784458 0.215543 0.604701
O O7 0.726157 0.112687 0.502688
O O8 0.355048 0.256410 0.250000
O O9 0.348077 0.174039 0.393920
O O10 0.278652 0.210832 0.441200
O O11 0.968555 0.798071 0.250000
O O12 0.898049 0.796097 0.068562
O O13 0.000000 0.827373 0.000000
#
# Coordination Sequence:
#
# PCOD8330851 Si02
#       4
#    24  24  24  24
#     4   8  12  17  26  42  66  96 129 165 203 240
#     4   8  13  20  31  49  70  92 124 164 199 233
#     4   8  14  25  39  54  75 102 127 152 187 230
#     4   9  18  31  46  66  90 113 137 162 187 219
#
# _framework density 14.766961
#
# number of rings (size 3 to 8) (size 9 to 14) (size 15 to 20)
#    0.000    3.750    0.000    3.250    0.000    2.500 
#    0.000    2.500    0.000    1.000    0.000    0.000 
#    0.000    3.000    0.000    2.250    0.000    3.500 
#
# Total GULP energy -1189496.562332 kJ/mol
# GULP energy per Si atom -12390.589191 kJ/mol
# Density = 1.473335 g / cm^3
# Si number density = 14.766961 Si / 1000 Ang^3
#
#
#
# Elastic Constant Matrix: (Units=GPa)
#
#
# Indices 1 2 3 4 5 6 
#
# 1 65.6399 37.5555 45.8837 0.0000 0.0000 0.0000
# 2 37.5555 65.6399 45.8837 0.0000 0.0000 0.0000
# 3 45.8837 45.8837 71.5471 0.0000 0.0000 0.0000
# 4 0.0000 0.0000 0.0000 17.4475 0.0000 0.0000
# 5 0.0000 0.0000 0.0000 0.0000 17.4475 0.0000
# 6 0.0000 0.0000 0.0000 0.0000 0.0000 14.0422
#
#
#
# Elastic Compliance Matrix: (Units=1/GPa)
#
#
# Indices 1 2 3 4 5 6 
#
# 1 0.029079 -0.006528 -0.014462 0.000000 0.000000 0.000000
# 2 -0.006528 0.029079 -0.014462 0.000000 0.000000 0.000000
# 3 -0.014462 -0.014462 0.032526 0.000000 0.000000 0.000000
# 4 0.000000 0.000000 0.000000 0.057315 0.000000 0.000000
# 5 0.000000 0.000000 0.000000 0.000000 0.057315 0.000000
# 6 0.000000 0.000000 0.000000 0.000000 0.000000 0.071214
#
#
# Mechanical properties :
#
#
# Convention : Reuss Voigt Hill
#
# Bulk Modulus (GPa) = 50.55713 51.27472 50.91593
# Shear Modulus (GPa) = 14.12332 14.68771 14.40551
#
# Velocity S-wave (km/s) = 3.09595 3.15720 3.12672
# Velocity P-wave (km/s) = 6.86228 6.93459 6.89853
#
# Compressibility (1/GPa) = 0.01977960
#
# Stress axis : x y z
#
# Youngs Moduli (GPa) = 34.38925 34.38925 30.74471
#
# Poissons Ratio (x) = 0.22450 0.44463
# Poissons Ratio (y) = 0.22450 0.44463
# Poissons Ratio (z) = 0.49734 0.49734
#
# Static dielectric constant tensor:
#      x y z
#    x 2.755710 0.000000 0.000000 
#    y 0.000000 2.755710 0.000000 
#    z 0.000000 0.000000 2.904040 
# 
# 
# High freq. dielectric constant tensor:
#      x y z
#    x 1.536840 0.000000 0.000000 
#    y 0.000000 1.536840 0.000000 
#    z 0.000000 0.000000 1.546230 
# 
# From -- ./inp_files/3054.got.cif
#   From: 2010.03.12/outbox.cif.g09.slc.cpg/sg194_2_cif.got.tgz:3054.got - 2010.04.01 12:26:19.
