data_PCOD8330372
_publ_section_title
;
Structure prediction by ZEFSAII (Michael W. Deem and Ramdas Pophale) SiO2 
 PCOD8330372
Probable space group: P 63/M M C
;
_chemical_formula_sum "Si O2"
_cell_formula_units_Z 96
_cell_length_a 29.105415
_cell_length_b 29.105415
_cell_length_c 8.643766
_cell_angle_alpha 90.000000
_cell_angle_beta 90.000000
_cell_angle_gamma 120.000000
_cell_volume 6341.342716
_symmetry_space_group_name_H-M "P 63/M M C"
_symmetry_group_IT_number 194
_symmetry_cell_setting 'hexagonal'
loop_
_space_group_symop_operation_xyz
x,y,z
x-y,x,1/2+z
-y,x-y,z
-x,-y,1/2+z
-x+y,-x,z
y,-x+y,1/2+z
x-y,-y,-z
-x,-x+y,-z
y,x,-z
-y,-x,1/2-z
-x+y,y,1/2-z
x,x-y,1/2-z
-x,-y,-z
-x+y,-x,1/2-z
y,-x+y,-z
x,y,1/2-z
x-y,x,-z
-y,x-y,1/2-z
-x+y,y,z
x,x-y,z
-y,-x,z
y,x,1/2+z
x-y,-y,1/2+z
-x,-x+y,1/2+z
loop_
_atom_site_type_symbol
_atom_site_label
_atom_site_fract_x
_atom_site_fract_y
_atom_site_fract_z
Si Si1 0.118790 0.691835 0.567893
Si Si2 0.524931 0.943496 0.069497
Si Si3 0.216001 0.784000 0.078782
Si Si4 0.306419 0.153210 0.581020
Si Si5 0.942639 0.688192 0.564804
O O1 0.115820 0.696349 0.750000
O O2 0.102285 0.632620 0.516734
O O3 0.179244 0.729614 0.512807
O O4 0.076909 0.705908 0.491945
O O5 0.536840 0.943622 0.250000
O O6 0.465645 0.931289 0.037722
O O7 0.567483 0.000000 0.000000
O O8 0.229026 0.770975 0.250000
O O9 0.184691 0.815310 0.096349
O O10 0.279778 0.139889 0.750000
O O11 0.291361 0.194141 0.499157
O O12 0.942505 0.687884 0.750000
O O13 0.000000 0.728668 0.500000
#
# Coordination Sequence:
#
# PCOD8330372 Si02
#       5
#    24  24  12  12  24
#     4  11  20  30  45  65  88 113 144 179 215 257
#     4  10  20  33  47  63  86 117 150 183 220 261
#     4   9  17  31  47  63  85 111 139 174 214 251
#     4   7  14  27  41  55  77 107 136 170 209 245
#     4  10  18  29  43  60  82 112 147 180 214 252
#
# _framework density 15.138749000000001
#
# number of rings (size 3 to 8) (size 9 to 14) (size 15 to 20)
#    0.000    2.250    0.000    6.375    0.000    1.500 
#    0.000    1.875    0.000    0.000    0.000    0.000 
#    1.250    0.000    2.250    0.375    2.250    4.500 
#
# Total GULP energy -1189887.785299 kJ/mol
# GULP energy per Si atom -12394.664430 kJ/mol
# Density = 1.510429 g / cm^3
# Si number density = 15.138749 Si / 1000 Ang^3
#
#
#
# Elastic Constant Matrix: (Units=GPa)
#
#
# Indices 1 2 3 4 5 6 
#
# 1 101.4641 34.1853 36.6886 0.0000 0.0000 0.0000
# 2 34.1853 101.4641 36.6886 0.0000 0.0000 0.0000
# 3 36.6886 36.6886 95.3520 0.0000 0.0000 0.0000
# 4 0.0000 0.0000 0.0000 22.8906 0.0000 0.0000
# 5 0.0000 0.0000 0.0000 0.0000 22.8906 0.0000
# 6 0.0000 0.0000 0.0000 0.0000 0.0000 33.6394
#
#
#
# Elastic Compliance Matrix: (Units=1/GPa)
#
#
# Indices 1 2 3 4 5 6 
#
# 1 0.012087 -0.002777 -0.003582 0.000000 0.000000 0.000000
# 2 -0.002777 0.012087 -0.003582 0.000000 0.000000 0.000000
# 3 -0.003582 -0.003582 0.013244 0.000000 0.000000 0.000000
# 4 0.000000 0.000000 0.000000 0.043686 0.000000 0.000000
# 5 0.000000 0.000000 0.000000 0.000000 0.043686 0.000000
# 6 0.000000 0.000000 0.000000 0.000000 0.000000 0.029727
#
#
# Mechanical properties :
#
#
# Convention : Reuss Voigt Hill
#
# Bulk Modulus (GPa) = 57.02891 57.04503 57.03697
# Shear Modulus (GPa) = 27.74029 28.59865 28.16947
#
# Velocity S-wave (km/s) = 4.28530 4.35110 4.31832
# Velocity P-wave (km/s) = 7.88909 7.93763 7.91340
#
# Compressibility (1/GPa) = 0.01753497
#
# Stress axis : x y z
#
# Youngs Moduli (GPa) = 82.73657 82.73657 75.50598
#
# Poissons Ratio (x) = 0.22976 0.27047
# Poissons Ratio (y) = 0.22976 0.27047
# Poissons Ratio (z) = 0.29637 0.29637
#
# Static dielectric constant tensor:
#      x y z
#    x 2.934410 0.000000 0.000000 
#    y 0.000000 2.934410 0.000000 
#    z 0.000000 0.000000 2.997230 
# 
# 
# High freq. dielectric constant tensor:
#      x y z
#    x 1.558540 0.000000 0.000000 
#    y 0.000000 1.558540 0.000000 
#    z 0.000000 0.000000 1.591050 
# 
# From -- ./inp_files/1807.got.cif
#   From: 2010.03.12/outbox.cif.g09.slc.cpg/sg194_1_cif.got.tgz:1807.got - 2010.04.01 12:26:19.
