data_PCOD8330897
_publ_section_title
;
Structure prediction by ZEFSAII (Michael W. Deem and Ramdas Pophale) SiO2 
 PCOD8330897
Probable space group: P 21 3
;
_chemical_formula_sum "Si O2"
_cell_formula_units_Z 20
_cell_length_a 9.756080
_cell_length_b 9.756080
_cell_length_c 9.756080
_cell_angle_alpha 90.000000
_cell_angle_beta 90.000000
_cell_angle_gamma 90.000000
_cell_volume 928.594396
_symmetry_space_group_name_H-M "P 21 3"
_symmetry_group_IT_number 198
_symmetry_cell_setting 'cubic'
loop_
_space_group_symop_operation_xyz
x,y,z
z,x,y
y,z,x
1/2-y,-z,1/2+x
1/2+z,1/2-x,-y
-y,1/2+z,1/2-x
1/2-z,-x,1/2+y
-z,1/2+x,1/2-y
1/2+y,1/2-z,-x
1/2-x,-y,1/2+z
1/2+x,1/2-y,-z
-x,1/2+y,1/2-z
loop_
_atom_site_type_symbol
_atom_site_label
_atom_site_fract_x
_atom_site_fract_y
_atom_site_fract_z
Si Si1 0.203141 0.070025 0.729865
Si Si2 0.240957 0.240957 0.240956
Si Si3 0.428226 0.428224 0.428226
O O1 0.341584 0.134478 0.663003
O O2 0.085002 0.081904 0.617296
O O3 0.229342 0.916117 0.777760
O O4 0.334466 0.334466 0.334466
#
# Coordination Sequence:
#
# PCOD8330897 Si02
#       3
#    12   4   4
#     4  10  27  44  72 106 141 183 242 286 356 424
#     4  12  27  48  78  96 151 191 232 303 351 432
#     4  12  24  48  72 108 142 188 232 303 357 426
#
# _framework density 21.537928000000001
#
# number of rings (size 3 to 8) (size 9 to 14) (size 15 to 20)
#    1.200    0.000    0.000    3.600   16.800    0.000 
#    3.600    0.000    0.000    0.000    0.000    0.000 
#    0.000    0.000    0.000    0.000    0.000    0.000 
#
# Total GULP energy -248018.066258 kJ/mol
# GULP energy per Si atom -12400.903313 kJ/mol
# Density = 2.148891 g / cm^3
# Si number density = 21.537928 Si / 1000 Ang^3
#
#
#
# Elastic Constant Matrix: (Units=GPa)
#
#
# Indices 1 2 3 4 5 6 
#
# 1 132.5006 57.4775 57.4756 0.0000 0.0000 0.0000
# 2 57.4775 132.4980 57.4767 0.0000 0.0000 0.0000
# 3 57.4756 57.4767 132.5059 0.0000 0.0000 0.0000
# 4 0.0000 0.0000 0.0000 27.1468 0.0000 0.0000
# 5 0.0000 0.0000 0.0000 0.0000 27.1464 0.0000
# 6 0.0000 0.0000 0.0000 0.0000 0.0000 27.1459
#
#
#
# Elastic Compliance Matrix: (Units=1/GPa)
#
#
# Indices 1 2 3 4 5 6 
#
# 1 0.010233 -0.003096 -0.003096 0.000000 0.000000 0.000000
# 2 -0.003096 0.010233 -0.003096 0.000000 0.000000 0.000000
# 3 -0.003096 -0.003096 0.010232 0.000000 0.000000 0.000000
# 4 0.000000 0.000000 0.000000 0.036837 0.000000 0.000000
# 5 0.000000 0.000000 0.000000 0.000000 0.036837 0.000000
# 6 0.000000 0.000000 0.000000 0.000000 0.000000 0.036838
#
#
# Mechanical properties :
#
#
# Convention : Reuss Voigt Hill
#
# Bulk Modulus (GPa) = 82.48490 82.48490 82.48490
# Shear Modulus (GPa) = 30.51990 31.29282 30.90636
#
# Velocity S-wave (km/s) = 3.76843 3.81585 3.79221
# Velocity P-wave (km/s) = 7.57069 7.60230 7.58651
#
# Compressibility (1/GPa) = 0.01212343
#
# Stress axis : x y z
#
# Youngs Moduli (GPa) = 97.72242 97.71923 97.72792
#
# Poissons Ratio (x) = 0.30256 0.30253
# Poissons Ratio (y) = 0.30257 0.30256
# Poissons Ratio (z) = 0.30251 0.30253
#
# Static dielectric constant tensor:
#      x y z
#    x 3.861590 0.000000 0.000000 
#    y 0.000000 3.861650 0.000000 
#    z 0.000000 0.000000 3.861560 
# 
# 
# High freq. dielectric constant tensor:
#      x y z
#    x 1.849730 0.000000 0.000000 
#    y 0.000000 1.849740 0.000000 
#    z 0.000000 0.000000 1.849730 
# 
# From -- ./inp_files/23.got.cif
#   From: 2010.03.12/outbox.cif.g09.slc.cpg/sg198_cif.got.tgz:23.got - 2010.04.01 12:33:50.
