data_PCOD8330863
_publ_section_title
;
Structure prediction by ZEFSAII (Michael W. Deem and Ramdas Pophale) SiO2 
 PCOD8330863
Probable space group: P 63/M M C
;
_chemical_formula_sum "Si O2"
_cell_formula_units_Z 144
_cell_length_a 21.957608
_cell_length_b 21.957608
_cell_length_c 23.550941
_cell_angle_alpha 90.000000
_cell_angle_beta 90.000000
_cell_angle_gamma 120.000000
_cell_volume 9833.518773
_symmetry_space_group_name_H-M "P 63/M M C"
_symmetry_group_IT_number 194
_symmetry_cell_setting 'hexagonal'
loop_
_space_group_symop_operation_xyz
x,y,z
x-y,x,1/2+z
-y,x-y,z
-x,-y,1/2+z
-x+y,-x,z
y,-x+y,1/2+z
x-y,-y,-z
-x,-x+y,-z
y,x,-z
-y,-x,1/2-z
-x+y,y,1/2-z
x,x-y,1/2-z
-x,-y,-z
-x+y,-x,1/2-z
y,-x+y,-z
x,y,1/2-z
x-y,x,-z
-y,x-y,1/2-z
-x+y,y,z
x,x-y,z
-y,-x,z
y,x,1/2+z
x-y,-y,1/2+z
-x,-x+y,1/2+z
loop_
_atom_site_type_symbol
_atom_site_label
_atom_site_fract_x
_atom_site_fract_y
_atom_site_fract_z
Si Si1 0.610351 0.085948 0.313437
Si Si2 0.580081 0.719519 0.910719
Si Si3 0.529054 0.197139 0.996286
Si Si4 0.586497 0.860513 0.095627
Si Si5 0.301650 0.079757 0.499746
Si Si6 0.607211 0.527388 0.686481
O O1 0.638389 0.114432 0.250000
O O2 0.556973 0.113947 0.332912
O O3 0.677312 0.108126 0.353141
O O4 0.566578 0.003050 0.312750
O O5 0.573562 0.786781 0.895644
O O6 0.654477 0.744402 0.941843
O O7 0.518434 0.667567 0.952560
O O8 0.590339 0.180678 0.986768
O O9 0.558266 0.279133 0.010217
O O10 0.485036 0.177382 0.939181
O O11 0.602681 0.801341 0.120146
O O12 0.573538 0.899403 0.147179
O O13 0.650511 0.912366 0.054523
O O14 0.276819 0.138410 0.502042
O O15 0.234947 0.000000 0.500000
O O16 0.634350 0.525612 0.750000
O O17 0.553663 0.446338 0.666111
#
# Coordination Sequence:
#
# PCOD8330863 Si02
#       6
#    24  24  24  24  24  24
#     4   9  17  28  41  56  75 102 135 168 200 233
#     4   9  17  27  40  59  79 101 130 162 199 239
#     4   9  16  25  37  53  74 100 130 164 199 233
#     4   9  17  27  40  59  79 101 130 162 199 239
#     4   9  17  29  45  64  85 106 127 155 193 239
#     4   9  17  28  41  56  75 102 135 168 200 233
#
# _framework density 14.643791
#
# number of rings (size 3 to 8) (size 9 to 14) (size 15 to 20)
#    0.000    3.000    0.000    5.167    0.000    0.667 
#    0.000    0.000    0.000    8.833    0.000    0.000 
#    0.000    0.000    0.000    0.000    0.000    0.000 
#
# Total GULP energy -1784096.671560 kJ/mol
# GULP energy per Si atom -12389.560219 kJ/mol
# Density = 1.461046 g / cm^3
# Si number density = 14.643791 Si / 1000 Ang^3
#
#
#
# Elastic Constant Matrix: (Units=GPa)
#
#
# Indices 1 2 3 4 5 6 
#
# 1 68.9859 31.9085 28.3853 0.0000 0.0000 0.0000
# 2 31.9085 68.9859 28.3853 0.0000 0.0000 0.0000
# 3 28.3853 28.3853 76.6727 0.0000 0.0000 0.0000
# 4 0.0000 0.0000 0.0000 18.8614 0.0000 0.0000
# 5 0.0000 0.0000 0.0000 0.0000 18.8614 0.0000
# 6 0.0000 0.0000 0.0000 0.0000 0.0000 18.5387
#
#
#
# Elastic Compliance Matrix: (Units=1/GPa)
#
#
# Indices 1 2 3 4 5 6 
#
# 1 0.019745 -0.007226 -0.004635 0.000000 0.000000 0.000000
# 2 -0.007226 0.019745 -0.004635 0.000000 0.000000 0.000000
# 3 -0.004635 -0.004635 0.016474 0.000000 0.000000 0.000000
# 4 0.000000 0.000000 0.000000 0.053018 0.000000 0.000000
# 5 0.000000 0.000000 0.000000 0.000000 0.053018 0.000000
# 6 0.000000 0.000000 0.000000 0.000000 0.000000 0.053941
#
#
# Mechanical properties :
#
#
# Convention : Reuss Voigt Hill
#
# Bulk Modulus (GPa) = 43.52848 43.55586 43.54217
# Shear Modulus (GPa) = 19.48633 19.65000 19.56817
#
# Velocity S-wave (km/s) = 3.65182 3.66712 3.65948
# Velocity P-wave (km/s) = 6.89713 6.90931 6.90322
#
# Compressibility (1/GPa) = 0.02297347
#
# Stress axis : x y z
#
# Youngs Moduli (GPa) = 50.64598 50.64598 60.70105
#
# Poissons Ratio (x) = 0.36595 0.28134
# Poissons Ratio (y) = 0.36595 0.28134
# Poissons Ratio (z) = 0.23473 0.23473
#
# Static dielectric constant tensor:
#      x y z
#    x 2.746510 0.000000 0.000000 
#    y 0.000000 2.746510 0.000000 
#    z 0.000000 0.000000 2.892320 
# 
# 
# High freq. dielectric constant tensor:
#      x y z
#    x 1.543290 0.000000 0.000000 
#    y 0.000000 1.543290 0.000000 
#    z 0.000000 0.000000 1.556170 
# 
# From -- ./inp_files/9951.got.cif
#   From: 2010.03.12/outbox.cif.g09.slc.cpg/sg194_5_cif.got.tgz:9951.got - 2010.04.01 12:26:19.
