data_PCOD8330242
_publ_section_title
;
Structure prediction by ZEFSAII (Michael W. Deem and Ramdas Pophale) SiO2 
 PCOD8330242
Probable space group: P 63/M C M
;
_chemical_formula_sum "Si O2"
_cell_formula_units_Z 132
_cell_length_a 18.085707
_cell_length_b 18.085707
_cell_length_c 23.152501
_cell_angle_alpha 90.000000
_cell_angle_beta 90.000000
_cell_angle_gamma 120.000000
_cell_volume 6558.424521
_symmetry_space_group_name_H-M "P 63/M C M"
_symmetry_group_IT_number 193
_symmetry_cell_setting 'hexagonal'
loop_
_space_group_symop_operation_xyz
x,y,z
x-y,x,1/2+z
-y,x-y,z
-x,-y,1/2+z
-x+y,-x,z
y,-x+y,1/2+z
x-y,-y,1/2-z
-x,-x+y,1/2-z
y,x,1/2-z
-y,-x,-z
-x+y,y,-z
x,x-y,-z
-x,-y,-z
-x+y,-x,1/2-z
y,-x+y,-z
x,y,1/2-z
x-y,x,-z
-y,x-y,1/2-z
-x+y,y,1/2+z
x,x-y,1/2+z
-y,-x,1/2+z
y,x,z
x-y,-y,z
-x,-x+y,z
loop_
_atom_site_type_symbol
_atom_site_label
_atom_site_fract_x
_atom_site_fract_y
_atom_site_fract_z
Si Si1 0.000000 0.824434 0.495743
Si Si2 0.563771 0.422884 0.354500
Si Si3 0.494383 0.746188 0.314072
Si Si4 0.758310 0.758310 0.630582
Si Si5 0.537393 0.000000 0.938975
Si Si6 0.140448 0.825230 0.815210
Si Si7 0.000000 0.705816 0.902746
Si Si8 0.607405 0.000000 0.188297
O O1 0.082610 0.917391 0.500000
O O2 0.000000 0.777501 0.436874
O O3 0.000000 0.767151 0.548027
O O4 0.657003 0.488562 0.330337
O O5 0.556127 0.329286 0.360057
O O6 0.549296 0.461905 0.412327
O O7 0.487863 0.406653 0.311334
O O8 0.455404 0.738339 0.250000
O O9 0.593352 0.819525 0.314017
O O10 0.835760 0.754086 0.661653
O O11 0.668724 0.668724 0.637388
O O12 0.626273 0.000000 0.934683
O O13 0.500000 0.000000 0.000000
O O14 0.101342 0.811034 0.750000
O O15 0.079747 0.754746 0.860666
O O16 0.649995 0.000000 0.250000
#
# Coordination Sequence:
#
# PCOD8330242 Si02
#       8
#    12  24  24  12  12  24  12  12
#     4  12  27  48  75 100 133 169 220 277 334 412
#     4  11  23  39  60  92 135 178 223 278 333 398
#     4  11  21  36  60  94 132 176 221 266 329 402
#     4  12  23  42  68 100 130 173 221 277 339 405
#     4  11  27  47  66  95 135 181 238 289 339 385
#     4  11  23  40  65  99 137 172 215 277 343 413
#     4  12  24  47  70  97 134 177 229 278 337 404
#     4  11  21  36  60  95 134 174 219 276 342 399
#
# _framework density 20.126785000000002
#
# number of rings (size 3 to 8) (size 9 to 14) (size 15 to 20)
#    0.000    0.727    5.455    3.182    2.545    0.000 
#    0.000    0.909    0.000    0.000    0.000    2.545 
#    0.000    0.000    0.000    0.000    0.000    0.000 
#
# Total GULP energy -1635925.924349 kJ/mol
# GULP energy per Si atom -12393.378215 kJ/mol
# Density = 2.008098 g / cm^3
# Si number density = 20.126785 Si / 1000 Ang^3
#
#
#
# Elastic Constant Matrix: (Units=GPa)
#
#
# Indices 1 2 3 4 5 6 
#
# 1 118.2251 45.6649 63.0497 0.0000 0.0000 0.0000
# 2 45.6649 118.2251 63.0497 0.0000 0.0000 0.0000
# 3 63.0497 63.0497 151.5600 0.0000 0.0000 0.0000
# 4 0.0000 0.0000 0.0000 26.4762 0.0000 0.0000
# 5 0.0000 0.0000 0.0000 0.0000 26.4762 0.0000
# 6 0.0000 0.0000 0.0000 0.0000 0.0000 36.2801
#
#
#
# Elastic Compliance Matrix: (Units=1/GPa)
#
#
# Indices 1 2 3 4 5 6 
#
# 1 0.011378 -0.002404 -0.003733 0.000000 0.000000 0.000000
# 2 -0.002404 0.011378 -0.003733 0.000000 0.000000 0.000000
# 3 -0.003733 -0.003733 0.009704 0.000000 0.000000 0.000000
# 4 0.000000 0.000000 0.000000 0.037770 0.000000 0.000000
# 5 0.000000 0.000000 0.000000 0.000000 0.037770 0.000000
# 6 0.000000 0.000000 0.000000 0.000000 0.000000 0.027563
#
#
# Mechanical properties :
#
#
# Convention : Reuss Voigt Hill
#
# Bulk Modulus (GPa) = 78.62083 81.28207 79.95145
# Shear Modulus (GPa) = 31.33951 32.26291 31.80121
#
# Velocity S-wave (km/s) = 3.95030 4.00807 3.97929
# Velocity P-wave (km/s) = 7.74300 7.86716 7.80533
#
# Compressibility (1/GPa) = 0.01271928
#
# Stress axis : x y z
#
# Youngs Moduli (GPa) = 87.88989 87.88989 103.04870
#
# Poissons Ratio (x) = 0.21127 0.38471
# Poissons Ratio (y) = 0.21127 0.38471
# Poissons Ratio (z) = 0.32812 0.32812
#
# Static dielectric constant tensor:
#      x y z
#    x 3.778540 0.000000 0.000000 
#    y 0.000000 3.778540 0.000000 
#    z 0.000000 0.000000 3.488980 
# 
# 
# High freq. dielectric constant tensor:
#      x y z
#    x 1.796730 0.000000 0.000000 
#    y 0.000000 1.796730 0.000000 
#    z 0.000000 0.000000 1.765520 
# 
# From -- ./inp_files/7536.got.cif
#   From: 2010.03.12/outbox.cif.g09.slc.cpg/sg193_4_cif.got.tgz:7536.got - 2010.04.01 12:20:39.
