data_PCOD8330693
_publ_section_title
;
Structure prediction by ZEFSAII (Michael W. Deem and Ramdas Pophale) SiO2 
 PCOD8330693
Probable space group: P 63/M M C
;
_chemical_formula_sum "Si O2"
_cell_formula_units_Z 144
_cell_length_a 31.757981
_cell_length_b 31.757981
_cell_length_c 9.052163
_cell_angle_alpha 90.000000
_cell_angle_beta 90.000000
_cell_angle_gamma 120.000000
_cell_volume 7906.581763
_symmetry_space_group_name_H-M "P 63/M M C"
_symmetry_group_IT_number 194
_symmetry_cell_setting 'hexagonal'
loop_
_space_group_symop_operation_xyz
x,y,z
x-y,x,1/2+z
-y,x-y,z
-x,-y,1/2+z
-x+y,-x,z
y,-x+y,1/2+z
x-y,-y,-z
-x,-x+y,-z
y,x,-z
-y,-x,1/2-z
-x+y,y,1/2-z
x,x-y,1/2-z
-x,-y,-z
-x+y,-x,1/2-z
y,-x+y,-z
x,y,1/2-z
x-y,x,-z
-y,x-y,1/2-z
-x+y,y,z
x,x-y,z
-y,-x,z
y,x,1/2+z
x-y,-y,1/2+z
-x,-x+y,1/2+z
loop_
_atom_site_type_symbol
_atom_site_label
_atom_site_fract_x
_atom_site_fract_y
_atom_site_fract_z
Si Si1 0.148641 0.753163 0.421548
Si Si2 0.333282 0.571537 0.925728
Si Si3 0.574100 0.048706 0.919620
Si Si4 0.338449 0.860351 0.575091
Si Si5 0.806875 0.951763 0.922638
Si Si6 0.712544 0.906134 0.412699
O O1 0.146079 0.738244 0.250000
O O2 0.200441 0.799560 0.457965
O O3 0.141221 0.710740 0.529813
O O4 0.104661 0.763644 0.458622
O O5 0.332700 0.572581 0.750000
O O6 0.284291 0.568581 0.988825
O O7 0.379752 0.620249 0.987272
O O8 0.336269 0.525107 0.981511
O O9 0.587884 0.046799 0.750000
O O10 0.526740 0.053480 0.933498
O O11 0.616921 0.094649 0.998672
O O12 0.565883 0.000000 0.000000
O O13 0.345307 0.866108 0.750000
O O14 0.811260 0.960018 0.750000
O O15 0.814876 0.907438 0.970451
O O16 0.753652 0.941590 0.972762
O O17 0.848800 0.000000 0.000000
O O18 0.726559 0.930497 0.250000
O O19 0.709544 0.854772 0.406385
#
# Coordination Sequence:
#
# PCOD8330693 Si02
#       6
#    24  24  24  24  24  24
#     4   9  18  33  52  74 103 140 179 218 262 311
#     4   9  17  29  46  70 102 140 181 224 268 312
#     4  10  21  38  59  79  99 126 162 206 258 315
#     4  11  21  32  50  78 110 140 173 216 265 321
#     4  10  20  33  52  79 108 139 176 217 261 309
#     4   8  15  30  51  72  96 129 167 207 251 298
#
# _framework density 18.212674
#
# number of rings (size 3 to 8) (size 9 to 14) (size 15 to 20)
#    0.000    2.500    0.000    3.667    0.000    5.000 
#    0.000    2.500    0.000    4.167    0.000    0.000 
#    0.000    8.000    0.000    0.000    0.000    0.000 
#
# Total GULP energy -1785452.552747 kJ/mol
# GULP energy per Si atom -12398.976061 kJ/mol
# Density = 1.817122 g / cm^3
# Si number density = 18.212674 Si / 1000 Ang^3
#
#
#
# Elastic Constant Matrix: (Units=GPa)
#
#
# Indices 1 2 3 4 5 6 
#
# 1 118.9328 56.4440 52.3644 0.0000 0.0000 0.0000
# 2 56.4440 118.9328 52.3644 0.0000 0.0000 0.0000
# 3 52.3644 52.3644 85.3796 0.0000 0.0000 0.0000
# 4 0.0000 0.0000 0.0000 28.5791 0.0000 0.0000
# 5 0.0000 0.0000 0.0000 0.0000 28.5791 0.0000
# 6 0.0000 0.0000 0.0000 0.0000 0.0000 31.2444
#
#
#
# Elastic Compliance Matrix: (Units=1/GPa)
#
#
# Indices 1 2 3 4 5 6 
#
# 1 0.012500 -0.003503 -0.005518 0.000000 0.000000 0.000000
# 2 -0.003503 0.012500 -0.005518 0.000000 0.000000 0.000000
# 3 -0.005518 -0.005518 0.018481 0.000000 0.000000 0.000000
# 4 0.000000 0.000000 0.000000 0.034991 0.000000 0.000000
# 5 0.000000 0.000000 0.000000 0.000000 0.034991 0.000000
# 6 0.000000 0.000000 0.000000 0.000000 0.000000 0.032006
#
#
# Mechanical properties :
#
#
# Convention : Reuss Voigt Hill
#
# Bulk Modulus (GPa) = 69.42972 71.73233 70.58103
# Shear Modulus (GPa) = 27.87887 28.48534 28.18210
#
# Velocity S-wave (km/s) = 3.91671 3.95908 3.93795
# Velocity P-wave (km/s) = 7.65889 7.76985 7.71457
#
# Compressibility (1/GPa) = 0.01440305
#
# Stress axis : x y z
#
# Youngs Moduli (GPa) = 79.99971 79.99971 54.10942
#
# Poissons Ratio (x) = 0.28022 0.29858
# Poissons Ratio (y) = 0.28022 0.29858
# Poissons Ratio (z) = 0.44145 0.44145
#
# Static dielectric constant tensor:
#      x y z
#    x 3.436950 0.000000 0.000000 
#    y 0.000000 3.436950 0.000000 
#    z 0.000000 0.000000 3.278740 
# 
# 
# High freq. dielectric constant tensor:
#      x y z
#    x 1.702640 0.000000 0.000000 
#    y 0.000000 1.702640 0.000000 
#    z 0.000000 0.000000 1.694550 
# 
# From -- ./inp_files/2129.got.cif
#   From: 2010.03.12/outbox.cif.g09.slc.cpg/sg194_2_cif.got.tgz:2129.got - 2010.04.01 12:26:19.
