data_PCOD8330795
_publ_section_title
;
Structure prediction by ZEFSAII (Michael W. Deem and Ramdas Pophale) SiO2 
 PCOD8330795
Probable space group: P 63/M M C
;
_chemical_formula_sum "Si O2"
_cell_formula_units_Z 168
_cell_length_a 23.105869
_cell_length_b 23.105869
_cell_length_c 19.712930
_cell_angle_alpha 90.000000
_cell_angle_beta 90.000000
_cell_angle_gamma 120.000000
_cell_volume 9114.365174
_symmetry_space_group_name_H-M "P 63/M M C"
_symmetry_group_IT_number 194
_symmetry_cell_setting 'hexagonal'
loop_
_space_group_symop_operation_xyz
x,y,z
x-y,x,1/2+z
-y,x-y,z
-x,-y,1/2+z
-x+y,-x,z
y,-x+y,1/2+z
x-y,-y,-z
-x,-x+y,-z
y,x,-z
-y,-x,1/2-z
-x+y,y,1/2-z
x,x-y,1/2-z
-x,-y,-z
-x+y,-x,1/2-z
y,-x+y,-z
x,y,1/2-z
x-y,x,-z
-y,x-y,1/2-z
-x+y,y,z
x,x-y,z
-y,-x,z
y,x,1/2+z
x-y,-y,1/2+z
-x,-x+y,1/2+z
loop_
_atom_site_type_symbol
_atom_site_label
_atom_site_fract_x
_atom_site_fract_y
_atom_site_fract_z
Si Si1 0.541963 0.947392 0.558564
Si Si2 0.205377 0.666344 0.357705
Si Si3 0.866999 0.258664 0.673741
Si Si4 0.201883 0.535482 0.518245
Si Si5 0.350815 0.339405 0.329264
Si Si6 0.866099 0.866294 0.421886
Si Si7 0.939264 0.746571 0.172527
O O1 0.476407 0.952813 0.570811
O O2 0.522607 0.871380 0.541490
O O3 0.582301 0.965549 0.628660
O O4 0.587131 0.000000 0.500000
O O5 0.187904 0.593952 0.330307
O O6 0.280068 0.719933 0.334407
O O7 0.153021 0.684053 0.325427
O O8 0.200336 0.666382 0.438005
O O9 0.872078 0.238355 0.750000
O O10 0.809126 0.190875 0.635990
O O11 0.940285 0.291454 0.641292
O O12 0.261489 0.522977 0.545357
O O13 0.215979 0.607990 0.544403
O O14 0.366350 0.360109 0.250000
O O15 0.322665 0.260949 0.340318
O O16 0.846438 0.846438 0.500000
O O17 0.941342 0.882683 0.407755
O O18 0.813431 0.805427 0.375697
O O19 0.861670 0.930835 0.401283
O O20 0.959485 0.770722 0.250000
O O21 0.864956 0.729911 0.155087
#
# Coordination Sequence:
#
# PCOD8330795 Si02
#       7
#    24  24  24  24  24  24  24
#     4  10  21  36  53  76 106 134 162 203 251 297
#     4   9  16  27  44  67  95 126 159 194 233 276
#     4   9  18  31  45  64  92 125 162 200 233 271
#     4   9  17  30  50  74  98 125 159 201 248 296
#     4  10  21  36  54  74  97 129 166 203 245 296
#     4   9  17  30  49  74 104 137 172 211 257 307
#     4   9  19  35  52  72  99 129 165 211 257 300
#
# _framework density 18.432441000000001
#
# number of rings (size 3 to 8) (size 9 to 14) (size 15 to 20)
#    0.000    2.714    0.000    1.286    0.000    6.000 
#    0.000    2.857    0.000    6.857    0.000    0.000 
#    0.000    1.143    0.000    0.000    0.000    0.000 
#
# Total GULP energy -2082224.898904 kJ/mol
# GULP energy per Si atom -12394.195827 kJ/mol
# Density = 1.839049 g / cm^3
# Si number density = 18.432441 Si / 1000 Ang^3
#
#
#
# Elastic Constant Matrix: (Units=GPa)
#
#
# Indices 1 2 3 4 5 6 
#
# 1 90.3142 53.4925 36.1363 0.0000 0.0000 0.0000
# 2 53.4925 90.3142 36.1363 0.0000 0.0000 0.0000
# 3 36.1363 36.1363 59.4862 0.0000 0.0000 0.0000
# 4 0.0000 0.0000 0.0000 27.7453 0.0000 0.0000
# 5 0.0000 0.0000 0.0000 0.0000 27.7453 0.0000
# 6 0.0000 0.0000 0.0000 0.0000 0.0000 18.4108
#
#
#
# Elastic Compliance Matrix: (Units=1/GPa)
#
#
# Indices 1 2 3 4 5 6 
#
# 1 0.018584 -0.008574 -0.006081 0.000000 0.000000 0.000000
# 2 -0.008574 0.018584 -0.006081 0.000000 0.000000 0.000000
# 3 -0.006081 -0.006081 0.024198 0.000000 0.000000 0.000000
# 4 0.000000 0.000000 0.000000 0.036042 0.000000 0.000000
# 5 0.000000 0.000000 0.000000 0.000000 0.036042 0.000000
# 6 0.000000 0.000000 0.000000 0.000000 0.000000 0.054316
#
#
# Mechanical properties :
#
#
# Convention : Reuss Voigt Hill
#
# Bulk Modulus (GPa) = 50.26350 54.62720 52.44535
# Shear Modulus (GPa) = 21.19826 22.40359 21.80092
#
# Velocity S-wave (km/s) = 3.39492 3.49010 3.44284
# Velocity P-wave (km/s) = 6.53418 6.77804 6.65723
#
# Compressibility (1/GPa) = 0.01989515
#
# Stress axis : x y z
#
# Youngs Moduli (GPa) = 53.81026 53.81026 41.32519
#
# Poissons Ratio (x) = 0.46137 0.25128
# Poissons Ratio (y) = 0.46137 0.25128
# Poissons Ratio (z) = 0.32720 0.32720
#
# Static dielectric constant tensor:
#      x y z
#    x 3.515090 0.000000 0.000000 
#    y 0.000000 3.515090 0.000000 
#    z 0.000000 0.000000 3.153720 
# 
# 
# High freq. dielectric constant tensor:
#      x y z
#    x 1.714900 0.000000 0.000000 
#    y 0.000000 1.714900 0.000000 
#    z 0.000000 0.000000 1.687370 
# 
# From -- ./inp_files/8554.got.cif
#   From: 2010.03.12/outbox.cif.g09.slc.cpg/sg194_5_cif.got.tgz:8554.got - 2010.04.01 12:26:19.
