data_PCOD8330131
_publ_section_title
;
Structure prediction by ZEFSAII (Michael W. Deem and Ramdas Pophale) SiO2 
 PCOD8330131
Probable space group: P 63/M C M
;
_chemical_formula_sum "Si O2"
_cell_formula_units_Z 120
_cell_length_a 14.622898
_cell_length_b 14.622898
_cell_length_c 31.050117
_cell_angle_alpha 90.000000
_cell_angle_beta 90.000000
_cell_angle_gamma 120.000000
_cell_volume 5749.906385
_symmetry_space_group_name_H-M "P 63/M C M"
_symmetry_group_IT_number 193
_symmetry_cell_setting 'hexagonal'
loop_
_space_group_symop_operation_xyz
x,y,z
x-y,x,1/2+z
-y,x-y,z
-x,-y,1/2+z
-x+y,-x,z
y,-x+y,1/2+z
x-y,-y,1/2-z
-x,-x+y,1/2-z
y,x,1/2-z
-y,-x,-z
-x+y,y,-z
x,x-y,-z
-x,-y,-z
-x+y,-x,1/2-z
y,-x+y,-z
x,y,1/2-z
x-y,x,-z
-y,x-y,1/2-z
-x+y,y,1/2+z
x,x-y,1/2+z
-y,-x,1/2+z
y,x,z
x-y,-y,z
-x,-x+y,z
loop_
_atom_site_type_symbol
_atom_site_label
_atom_site_fract_x
_atom_site_fract_y
_atom_site_fract_z
Si Si1 0.879720 0.229708 0.956479
Si Si2 0.802067 0.225200 0.297760
Si Si3 0.873983 0.123138 0.629549
Si Si4 0.786896 0.444892 0.415846
Si Si5 0.122512 0.581369 0.325230
O O1 0.836111 0.155451 0.914126
O O2 0.862612 0.330832 0.950433
O O3 0.000000 0.265498 0.962205
O O4 0.827431 0.172570 0.000000
O O5 0.851902 0.237761 0.250000
O O6 0.857334 0.181186 0.329535
O O7 0.675846 0.146943 0.292365
O O8 0.816879 0.336398 0.313807
O O9 0.000000 0.190754 0.635163
O O10 0.837694 0.000000 0.626961
O O11 0.673249 0.440833 0.421804
O O12 0.837569 0.484770 0.369423
O O13 0.000000 0.496426 0.327140
#
# Coordination Sequence:
#
# PCOD8330131 Si02
#       5
#    24  24  24  24  24
#     4  11  23  42  68 100 133 170 220 277 336 400
#     4  12  25  41  63  97 135 170 216 274 330 398
#     4  11  24  44  67  92 127 172 223 278 334 392
#     4  10  20  40  66  91 129 169 212 262 323 388
#     4  12  22  40  66  94 128 173 220 267 326 391
#
# _framework density 20.869906
#
# number of rings (size 3 to 8) (size 9 to 14) (size 15 to 20)
#    0.400    0.400    4.000    3.600    0.000    4.800 
#    0.000    4.000    0.000    4.400    0.000    0.000 
#    0.000    0.000    0.000    0.000    0.000    0.000 
#
# Total GULP energy -1487398.456447 kJ/mol
# GULP energy per Si atom -12394.987137 kJ/mol
# Density = 2.082241 g / cm^3
# Si number density = 20.869906 Si / 1000 Ang^3
#
#
#
# Elastic Constant Matrix: (Units=GPa)
#
#
# Indices 1 2 3 4 5 6 
#
# 1 85.7014 17.7578 48.3120 0.0000 0.0000 0.0000
# 2 17.7578 85.7014 48.3120 0.0000 0.0000 0.0000
# 3 48.3120 48.3120 150.8016 0.0000 0.0000 0.0000
# 4 0.0000 0.0000 0.0000 19.2743 0.0000 0.0000
# 5 0.0000 0.0000 0.0000 0.0000 19.2743 0.0000
# 6 0.0000 0.0000 0.0000 0.0000 0.0000 33.9718
#
#
#
# Elastic Compliance Matrix: (Units=1/GPa)
#
#
# Indices 1 2 3 4 5 6 
#
# 1 0.014255 -0.000463 -0.004419 0.000000 0.000000 0.000000
# 2 -0.000463 0.014255 -0.004419 0.000000 0.000000 0.000000
# 3 -0.004419 -0.004419 0.009462 0.000000 0.000000 0.000000
# 4 0.000000 0.000000 0.000000 0.051883 0.000000 0.000000
# 5 0.000000 0.000000 0.000000 0.000000 0.051883 0.000000
# 6 0.000000 0.000000 0.000000 0.000000 0.000000 0.029436
#
#
# Mechanical properties :
#
#
# Convention : Reuss Voigt Hill
#
# Bulk Modulus (GPa) = 51.61932 61.21868 56.41900
# Shear Modulus (GPa) = 25.48006 28.35893 26.91949
#
# Velocity S-wave (km/s) = 3.49793 3.69025 3.59537
# Velocity P-wave (km/s) = 6.41105 6.89597 6.65793
#
# Compressibility (1/GPa) = 0.01937259
#
# Stress axis : x y z
#
# Youngs Moduli (GPa) = 70.14976 70.14976 105.68129
#
# Poissons Ratio (x) = 0.03247 0.46697
# Poissons Ratio (y) = 0.03247 0.46697
# Poissons Ratio (z) = 0.30997 0.30997
#
# Static dielectric constant tensor:
#      x y z
#    x 3.732620 0.000000 0.000000 
#    y 0.000000 3.732620 0.000000 
#    z 0.000000 0.000000 3.787460 
# 
# 
# High freq. dielectric constant tensor:
#      x y z
#    x 1.816550 0.000000 0.000000 
#    y 0.000000 1.816550 0.000000 
#    z 0.000000 0.000000 1.818030 
# 
# From -- ./inp_files/8964.got.cif
#   From: 2010.03.12/outbox.cif.g09.slc.cpg/sg193_5_cif.got.tgz:8964.got - 2010.04.01 12:20:39.
