data_PCOD8330841
_publ_section_title
;
Structure prediction by ZEFSAII (Michael W. Deem and Ramdas Pophale) SiO2 
 PCOD8330841
Probable space group: P 63/M M C
;
_chemical_formula_sum "Si O2"
_cell_formula_units_Z 72
_cell_length_a 23.659103
_cell_length_b 23.659103
_cell_length_c 8.642043
_cell_angle_alpha 90.000000
_cell_angle_beta 90.000000
_cell_angle_gamma 120.000000
_cell_volume 4189.320670
_symmetry_space_group_name_H-M "P 63/M M C"
_symmetry_group_IT_number 194
_symmetry_cell_setting 'hexagonal'
loop_
_space_group_symop_operation_xyz
x,y,z
x-y,x,1/2+z
-y,x-y,z
-x,-y,1/2+z
-x+y,-x,z
y,-x+y,1/2+z
x-y,-y,-z
-x,-x+y,-z
y,x,-z
-y,-x,1/2-z
-x+y,y,1/2-z
x,x-y,1/2-z
-x,-y,-z
-x+y,-x,1/2-z
y,-x+y,-z
x,y,1/2-z
x-y,x,-z
-y,x-y,1/2-z
-x+y,y,z
x,x-y,z
-y,-x,z
y,x,1/2+z
x-y,-y,1/2+z
-x,-x+y,1/2+z
loop_
_atom_site_type_symbol
_atom_site_label
_atom_site_fract_x
_atom_site_fract_y
_atom_site_fract_z
Si Si1 0.637320 0.709615 0.567441
Si Si2 0.403014 0.928491 0.069119
Si Si3 0.852601 0.705201 0.932723
Si Si4 0.072153 0.927848 0.066862
O O1 0.675616 0.675616 0.500000
O O2 0.643006 0.713501 0.750000
O O3 0.560618 0.667555 0.515700
O O4 0.669279 0.780898 0.499801
O O5 0.391601 0.933106 0.250000
O O6 0.446547 0.893094 0.041384
O O7 0.443541 0.000000 0.000000
O O8 0.849718 0.699435 0.750000
O O9 0.890216 0.780432 0.985574
O O10 0.068357 0.931644 0.250000
O O11 0.000000 0.889579 0.000000
#
# Coordination Sequence:
#
# PCOD8330841 Si02
#       4
#    24  24  12  12
#     4  11  21  33  50  72 100 133 167 205 251 304
#     4   9  16  27  45  69  97 128 160 193 230 275
#     4  11  23  38  54  73  99 132 170 214 264 318
#     4  11  24  40  59  77  96 124 164 218 274 330
#
# _framework density 17.186558000000002
#
# number of rings (size 3 to 8) (size 9 to 14) (size 15 to 20)
#    0.000    1.667    0.000    8.167    0.000    7.333 
#    0.000    0.000    0.000    0.000    0.000    0.000 
#    1.667    0.000    3.000    0.000    3.000    0.000 
#
# Total GULP energy -892314.980346 kJ/mol
# GULP energy per Si atom -12393.263616 kJ/mol
# Density = 1.714744 g / cm^3
# Si number density = 17.186558 Si / 1000 Ang^3
#
#
#
# Elastic Constant Matrix: (Units=GPa)
#
#
# Indices 1 2 3 4 5 6 
#
# 1 125.6031 75.4030 53.1435 0.0000 0.0000 0.0000
# 2 75.4030 125.6031 53.1435 0.0000 0.0000 0.0000
# 3 53.1435 53.1435 105.7008 0.0000 0.0000 0.0000
# 4 0.0000 0.0000 0.0000 22.3441 0.0000 0.0000
# 5 0.0000 0.0000 0.0000 0.0000 22.3441 0.0000
# 6 0.0000 0.0000 0.0000 0.0000 0.0000 25.1001
#
#
#
# Elastic Compliance Matrix: (Units=1/GPa)
#
#
# Indices 1 2 3 4 5 6 
#
# 1 0.013348 -0.006572 -0.003407 0.000000 0.000000 0.000000
# 2 -0.006572 0.013348 -0.003407 0.000000 0.000000 0.000000
# 3 -0.003407 -0.003407 0.012887 0.000000 0.000000 0.000000
# 4 0.000000 0.000000 0.000000 0.044755 0.000000 0.000000
# 5 0.000000 0.000000 0.000000 0.000000 0.044755 0.000000
# 6 0.000000 0.000000 0.000000 0.000000 0.000000 0.039841
#
#
# Mechanical properties :
#
#
# Convention : Reuss Voigt Hill
#
# Bulk Modulus (GPa) = 78.05512 80.03189 79.04351
# Shear Modulus (GPa) = 25.00306 25.63879 25.32092
#
# Velocity S-wave (km/s) = 3.81833 3.86656 3.84252
# Velocity P-wave (km/s) = 8.05943 8.16097 8.11036
#
# Compressibility (1/GPa) = 0.01281146
#
# Stress axis : x y z
#
# Youngs Moduli (GPa) = 74.91534 74.91534 77.59986
#
# Poissons Ratio (x) = 0.49233 0.26439
# Poissons Ratio (y) = 0.49233 0.26439
# Poissons Ratio (z) = 0.25524 0.25524
#
# Static dielectric constant tensor:
#      x y z
#    x 3.880570 0.000000 0.000000 
#    y 0.000000 3.880570 0.000000 
#    z 0.000000 0.000000 3.497340 
# 
# 
# High freq. dielectric constant tensor:
#      x y z
#    x 1.649340 0.000000 0.000000 
#    y 0.000000 1.649340 0.000000 
#    z 0.000000 0.000000 1.688230 
# 
# From -- ./inp_files/1147.got.cif
#   From: 2010.03.12/outbox.cif.g09.slc.cpg/sg194_1_cif.got.tgz:1147.got - 2010.04.01 12:26:19.
