data_PCOD8330516
_publ_section_title
;
Structure prediction by ZEFSAII (Michael W. Deem and Ramdas Pophale) SiO2 
 PCOD8330516
Probable space group: P 63/M M C
;
_chemical_formula_sum "Si O2"
_cell_formula_units_Z 132
_cell_length_a 18.085172
_cell_length_b 18.085172
_cell_length_c 26.563253
_cell_angle_alpha 90.000000
_cell_angle_beta 90.000000
_cell_angle_gamma 120.000000
_cell_volume 7524.145364
_symmetry_space_group_name_H-M "P 63/M M C"
_symmetry_group_IT_number 194
_symmetry_cell_setting 'hexagonal'
loop_
_space_group_symop_operation_xyz
x,y,z
x-y,x,1/2+z
-y,x-y,z
-x,-y,1/2+z
-x+y,-x,z
y,-x+y,1/2+z
x-y,-y,-z
-x,-x+y,-z
y,x,-z
-y,-x,1/2-z
-x+y,y,1/2-z
x,x-y,1/2-z
-x,-y,-z
-x+y,-x,1/2-z
y,-x+y,-z
x,y,1/2-z
x-y,x,-z
-y,x-y,1/2-z
-x+y,y,z
x,x-y,z
-y,-x,z
y,x,1/2+z
x-y,-y,1/2+z
-x,-x+y,1/2+z
loop_
_atom_site_type_symbol
_atom_site_label
_atom_site_fract_x
_atom_site_fract_y
_atom_site_fract_z
Si Si1 0.893545 0.363504 0.452898
Si Si2 0.322141 0.244945 0.307612
Si Si3 0.269552 0.898111 0.158057
Si Si4 0.829786 0.499754 0.151006
Si Si5 0.093430 0.631390 0.438015
Si Si6 0.508797 0.667441 0.250000
O O1 0.861253 0.430627 0.457666
O O2 0.844513 0.303971 0.405442
O O3 0.872963 0.318704 0.508103
O O4 0.992290 0.410597 0.439692
O O5 0.293227 0.239668 0.250000
O O6 0.299494 0.149747 0.326564
O O7 0.275836 0.284964 0.340997
O O8 0.423940 0.309091 0.310647
O O9 0.170758 0.829243 0.166771
O O10 0.299270 0.876045 0.105883
O O11 0.328035 0.892074 0.201532
O O12 0.729507 0.459014 0.163392
O O13 0.858343 0.429172 0.156626
O O14 0.125175 0.562588 0.428633
O O15 0.421469 0.578532 0.250000
O O16 0.487109 0.743555 0.250000
#
# Coordination Sequence:
#
# PCOD8330516 Si02
#       6
#    24  24  24  24  24  12
#     4   8  15  27  46  68  97 135 170 200 233 281
#     4  10  21  37  53  70  95 128 160 198 252 303
#     4  11  21  33  52  78 100 123 164 211 250 289
#     4  10  19  31  48  72 101 133 168 203 238 281
#     4   9  16  29  47  71 101 133 166 200 240 282
#     4  10  21  34  49  72 104 140 168 196 235 282
#
# _framework density 17.543520000000001
#
# number of rings (size 3 to 8) (size 9 to 14) (size 15 to 20)
#    0.000    2.364    2.727    1.909    0.000    1.818 
#    0.000    0.000    0.000    1.818    0.000    0.000 
#    0.000    0.000    0.000    3.273    0.000    0.000 
#
# Total GULP energy -1635439.741935 kJ/mol
# GULP energy per Si atom -12389.695015 kJ/mol
# Density = 1.750359 g / cm^3
# Si number density = 17.543520 Si / 1000 Ang^3
#
#
#
# Elastic Constant Matrix: (Units=GPa)
#
#
# Indices 1 2 3 4 5 6 
#
# 1 67.8453 32.7109 8.7496 0.0000 0.0000 0.0000
# 2 32.7109 67.8453 8.7496 0.0000 0.0000 0.0000
# 3 8.7496 8.7496 62.4717 0.0000 0.0000 0.0000
# 4 0.0000 0.0000 0.0000 12.4822 0.0000 0.0000
# 5 0.0000 0.0000 0.0000 0.0000 12.4822 0.0000
# 6 0.0000 0.0000 0.0000 0.0000 0.0000 17.5672
#
#
#
# Elastic Compliance Matrix: (Units=1/GPa)
#
#
# Indices 1 2 3 4 5 6 
#
# 1 0.019328 -0.009135 -0.001428 0.000000 0.000000 0.000000
# 2 -0.009135 0.019328 -0.001428 0.000000 0.000000 0.000000
# 3 -0.001428 -0.001428 0.016407 0.000000 0.000000 0.000000
# 4 0.000000 0.000000 0.000000 0.080114 0.000000 0.000000
# 5 0.000000 0.000000 0.000000 0.000000 0.080114 0.000000
# 6 0.000000 0.000000 0.000000 0.000000 0.000000 0.056924
#
#
# Mechanical properties :
#
#
# Convention : Reuss Voigt Hill
#
# Bulk Modulus (GPa) = 32.17202 33.17584 32.67393
# Shear Modulus (GPa) = 16.31027 18.36980 17.34003
#
# Velocity S-wave (km/s) = 3.05241 3.23940 3.14730
# Velocity P-wave (km/s) = 5.54988 5.73962 5.64555
#
# Compressibility (1/GPa) = 0.03108291
#
# Stress axis : x y z
#
# Youngs Moduli (GPa) = 51.73938 51.73938 60.94911
#
# Poissons Ratio (x) = 0.47261 0.08701
# Poissons Ratio (y) = 0.47261 0.08701
# Poissons Ratio (z) = 0.07386 0.07386
#
# Static dielectric constant tensor:
#      x y z
#    x 3.041790 0.000000 0.000000 
#    y 0.000000 3.041790 0.000000 
#    z 0.000000 0.000000 3.615930 
# 
# 
# High freq. dielectric constant tensor:
#      x y z
#    x 1.651280 0.000000 0.000000 
#    y 0.000000 1.651280 0.000000 
#    z 0.000000 0.000000 1.690250 
# 
# From -- ./inp_files/10828.got.cif
#   From: 2010.03.12/outbox.cif.g09.slc.cpg/sg194_6_cif.got.tgz:10828.got - 2010.04.01 12:26:19.
