data_PCOD8330597
_publ_section_title
;
Structure prediction by ZEFSAII (Michael W. Deem and Ramdas Pophale) SiO2 
 PCOD8330597
Probable space group: P 63/M M C
;
_chemical_formula_sum "Si O2"
_cell_formula_units_Z 72
_cell_length_a 21.692911
_cell_length_b 21.692911
_cell_length_c 9.974342
_cell_angle_alpha 90.000000
_cell_angle_beta 90.000000
_cell_angle_gamma 120.000000
_cell_volume 4064.906456
_symmetry_space_group_name_H-M "P 63/M M C"
_symmetry_group_IT_number 194
_symmetry_cell_setting 'hexagonal'
loop_
_space_group_symop_operation_xyz
x,y,z
x-y,x,1/2+z
-y,x-y,z
-x,-y,1/2+z
-x+y,-x,z
y,-x+y,1/2+z
x-y,-y,-z
-x,-x+y,-z
y,x,-z
-y,-x,1/2-z
-x+y,y,1/2-z
x,x-y,1/2-z
-x,-y,-z
-x+y,-x,1/2-z
y,-x+y,-z
x,y,1/2-z
x-y,x,-z
-y,x-y,1/2-z
-x+y,y,z
x,x-y,z
-y,-x,z
y,x,1/2+z
x-y,-y,1/2+z
-x,-x+y,1/2+z
loop_
_atom_site_type_symbol
_atom_site_label
_atom_site_fract_x
_atom_site_fract_y
_atom_site_fract_z
Si Si1 0.688821 0.844411 0.594160
Si Si2 0.912709 0.386322 0.750000
Si Si3 0.917623 0.527255 0.250000
Si Si4 0.928841 0.857682 0.087904
Si Si5 0.603359 0.687680 0.502521
O O1 0.665797 0.832899 0.750000
O O2 0.773188 0.886594 0.582111
O O3 0.658344 0.770766 0.515269
O O4 0.881762 0.440881 0.750000
O O5 0.884961 0.332780 0.625237
O O6 0.997443 0.432855 0.750000
O O7 0.885748 0.442874 0.250000
O O8 0.887542 0.548132 0.123518
O O9 0.940508 0.881015 0.250000
O O10 0.885078 0.885078 0.000000
O O11 0.649971 0.649971 0.500000
#
# Coordination Sequence:
#
# PCOD8330597 Si02
#       5
#    12  12  12  12  24
#     4  11  22  37  55  80 118 153 189 231 293 359
#     4   9  18  31  50  78 109 136 171 214 262 322
#     4   9  16  29  52  76 105 140 171 206 256 314
#     4  11  24  44  65  87 112 152 208 264 314 364
#     4  10  19  33  51  77 112 146 180 221 273 328
#
# _framework density 17.712586000000002
#
# number of rings (size 3 to 8) (size 9 to 14) (size 15 to 20)
#    0.000    2.000    1.667    2.667    0.000    4.667 
#    6.000    0.000    0.000    0.000    0.000    0.000 
#   33.333    0.000    0.000    0.000    0.000    0.000 
#
# Total GULP energy -892193.172087 kJ/mol
# GULP energy per Si atom -12391.571835 kJ/mol
# Density = 1.767227 g / cm^3
# Si number density = 17.712586 Si / 1000 Ang^3
#
#
#
# Elastic Constant Matrix: (Units=GPa)
#
#
# Indices 1 2 3 4 5 6 
#
# 1 81.4833 47.3408 55.2330 0.0000 0.0000 0.0000
# 2 47.3408 81.4833 55.2330 0.0000 0.0000 0.0000
# 3 55.2330 55.2330 169.2748 0.0000 0.0000 0.0000
# 4 0.0000 0.0000 0.0000 182.4394 0.0000 0.0000
# 5 0.0000 0.0000 0.0000 0.0000 182.4394 0.0000
# 6 0.0000 0.0000 0.0000 0.0000 0.0000 17.0713
#
#
#
# Elastic Compliance Matrix: (Units=1/GPa)
#
#
# Indices 1 2 3 4 5 6 
#
# 1 0.020034 -0.009255 -0.003517 0.000000 0.000000 0.000000
# 2 -0.009255 0.020034 -0.003517 0.000000 0.000000 0.000000
# 3 -0.003517 -0.003517 0.008203 0.000000 0.000000 0.000000
# 4 0.000000 0.000000 0.000000 0.005481 0.000000 0.000000
# 5 0.000000 0.000000 0.000000 0.000000 0.005481 0.000000
# 6 0.000000 0.000000 0.000000 0.000000 0.000000 0.058578
#
#
# Mechanical properties :
#
#
# Convention : Reuss Voigt Hill
#
# Bulk Modulus (GPa) = 63.72829 71.98389 67.85609
# Shear Modulus (GPa) = 32.12977 88.01898 60.07438
#
# Velocity S-wave (km/s) = 4.26367 7.05697 5.83008
# Velocity P-wave (km/s) = 7.76503 10.35033 9.14945
#
# Compressibility (1/GPa) = 0.01569162
#
# Stress axis : x y z
#
# Youngs Moduli (GPa) = 49.91619 49.91619 121.91279
#
# Poissons Ratio (x) = 0.46199 0.42875
# Poissons Ratio (y) = 0.46199 0.42875
# Poissons Ratio (z) = 0.17555 0.17555
#
# Static dielectric constant tensor:
#      x y z
#    x 3.145120 0.000000 0.000000 
#    y 0.000000 3.145120 0.000000 
#    z 0.000000 0.000000 3.641860 
# 
# 
# High freq. dielectric constant tensor:
#      x y z
#    x 1.666720 0.000000 0.000000 
#    y 0.000000 1.666720 0.000000 
#    z 0.000000 0.000000 1.704870 
# 
# From -- ./inp_files/1191.got.cif
#   From: 2010.03.12/outbox.cif.g09.slc.cpg/sg194_1_cif.got.tgz:1191.got - 2010.04.01 12:26:19.
