data_PCOD8330720
_publ_section_title
;
Structure prediction by ZEFSAII (Michael W. Deem and Ramdas Pophale) SiO2 
 PCOD8330720
Probable space group: P 63/M M C
;
_chemical_formula_sum "Si O2"
_cell_formula_units_Z 72
_cell_length_a 22.157045
_cell_length_b 22.157045
_cell_length_c 8.866143
_cell_angle_alpha 90.000000
_cell_angle_beta 90.000000
_cell_angle_gamma 120.000000
_cell_volume 3769.545960
_symmetry_space_group_name_H-M "P 63/M M C"
_symmetry_group_IT_number 194
_symmetry_cell_setting 'hexagonal'
loop_
_space_group_symop_operation_xyz
x,y,z
x-y,x,1/2+z
-y,x-y,z
-x,-y,1/2+z
-x+y,-x,z
y,-x+y,1/2+z
x-y,-y,-z
-x,-x+y,-z
y,x,-z
-y,-x,1/2-z
-x+y,y,1/2-z
x,x-y,1/2-z
-x,-y,-z
-x+y,-x,1/2-z
y,-x+y,-z
x,y,1/2-z
x-y,x,-z
-y,x-y,1/2-z
-x+y,y,z
x,x-y,z
-y,-x,z
y,x,1/2+z
x-y,-y,1/2+z
-x,-x+y,1/2+z
loop_
_atom_site_type_symbol
_atom_site_label
_atom_site_fract_x
_atom_site_fract_y
_atom_site_fract_z
Si Si1 0.469728 0.803105 0.570091
Si Si2 0.147737 0.295473 0.574931
Si Si3 0.850040 0.925020 0.072440
Si Si4 0.925098 0.309948 0.426107
O O1 0.469992 0.801046 0.750000
O O2 0.401305 0.802609 0.508121
O O3 0.470696 0.735348 0.506532
O O4 0.537403 0.873353 0.511913
O O5 0.135844 0.271688 0.750000
O O6 0.115589 0.231177 0.462414
O O7 0.110405 0.339167 0.535488
O O8 0.863006 0.931503 0.250000
O O9 0.883589 0.883589 0.000000
O O10 0.936275 0.322948 0.250000
O O11 0.000000 0.353935 0.500000
#
# Coordination Sequence:
#
# PCOD8330720 Si02
#       4
#    24  12  12  24
#     4   9  16  29  51  79 109 143 183 227 273 323
#     4  10  20  37  57  78 110 148 189 236 283 333
#     4  12  25  41  60  84 113 146 188 236 288 341
#     4  10  20  34  53  79 111 145 182 228 279 328
#
# _framework density 19.100444
#
# number of rings (size 3 to 8) (size 9 to 14) (size 15 to 20)
#    0.000    2.000    1.667    3.000    0.000    6.000 
#    0.000    0.000    0.000    0.000    0.000    0.000 
#    0.000    2.667    0.000    0.000    0.000    0.000 
#
# Total GULP energy -892833.385338 kJ/mol
# GULP energy per Si atom -12400.463685 kJ/mol
# Density = 1.905697 g / cm^3
# Si number density = 19.100444 Si / 1000 Ang^3
#
#
#
# Elastic Constant Matrix: (Units=GPa)
#
#
# Indices 1 2 3 4 5 6 
#
# 1 184.2660 104.3951 44.2398 0.0000 0.0000 0.0000
# 2 104.3951 184.2660 44.2398 0.0000 0.0000 0.0000
# 3 44.2398 44.2398 55.6218 0.0000 0.0000 0.0000
# 4 0.0000 0.0000 0.0000 28.4484 0.0000 0.0000
# 5 0.0000 0.0000 0.0000 0.0000 28.4484 0.0000
# 6 0.0000 0.0000 0.0000 0.0000 0.0000 39.9355
#
#
#
# Elastic Compliance Matrix: (Units=1/GPa)
#
#
# Indices 1 2 3 4 5 6 
#
# 1 0.008551 -0.003970 -0.003644 0.000000 0.000000 0.000000
# 2 -0.003970 0.008551 -0.003644 0.000000 0.000000 0.000000
# 3 -0.003644 -0.003644 0.023775 0.000000 0.000000 0.000000
# 4 0.000000 0.000000 0.000000 0.035151 0.000000 0.000000
# 5 0.000000 0.000000 0.000000 0.000000 0.035151 0.000000
# 6 0.000000 0.000000 0.000000 0.000000 0.000000 0.025040
#
#
# Mechanical properties :
#
#
# Convention : Reuss Voigt Hill
#
# Bulk Modulus (GPa) = 54.45959 89.98921 72.22440
# Shear Modulus (GPa) = 30.32993 34.78507 32.55750
#
# Velocity S-wave (km/s) = 3.98919 4.27214 4.13309
# Velocity P-wave (km/s) = 7.05637 8.45877 7.78920
#
# Compressibility (1/GPa) = 0.01836224
#
# Stress axis : x y z
#
# Youngs Moduli (GPa) = 116.95003 116.95003 42.06152
#
# Poissons Ratio (x) = 0.46424 0.15326
# Poissons Ratio (y) = 0.46424 0.15326
# Poissons Ratio (z) = 0.42613 0.42613
#
# Static dielectric constant tensor:
#      x y z
#    x 3.836170 0.000000 0.000000 
#    y 0.000000 3.836170 0.000000 
#    z 0.000000 0.000000 3.112250 
# 
# 
# High freq. dielectric constant tensor:
#      x y z
#    x 1.759540 0.000000 0.000000 
#    y 0.000000 1.759540 0.000000 
#    z 0.000000 0.000000 1.698620 
# 
# From -- ./inp_files/1116.got.cif
#   From: 2010.03.12/outbox.cif.g09.slc.cpg/sg194_1_cif.got.tgz:1116.got - 2010.04.01 12:26:19.
