data_PCOD8330646
_publ_section_title
;
Structure prediction by ZEFSAII (Michael W. Deem and Ramdas Pophale) SiO2 
 PCOD8330646
Probable space group: P 63/M M C
;
_chemical_formula_sum "Si O2"
_cell_formula_units_Z 144
_cell_length_a 32.328820
_cell_length_b 32.328820
_cell_length_c 8.980840
_cell_angle_alpha 90.000000
_cell_angle_beta 90.000000
_cell_angle_gamma 120.000000
_cell_volume 8128.816076
_symmetry_space_group_name_H-M "P 63/M M C"
_symmetry_group_IT_number 194
_symmetry_cell_setting 'hexagonal'
loop_
_space_group_symop_operation_xyz
x,y,z
x-y,x,1/2+z
-y,x-y,z
-x,-y,1/2+z
-x+y,-x,z
y,-x+y,1/2+z
x-y,-y,-z
-x,-x+y,-z
y,x,-z
-y,-x,1/2-z
-x+y,y,1/2-z
x,x-y,1/2-z
-x,-y,-z
-x+y,-x,1/2-z
y,-x+y,-z
x,y,1/2-z
x-y,x,-z
-y,x-y,1/2-z
-x+y,y,z
x,x-y,z
-y,-x,z
y,x,1/2+z
x-y,-y,1/2+z
-x,-x+y,1/2+z
loop_
_atom_site_type_symbol
_atom_site_label
_atom_site_fract_x
_atom_site_fract_y
_atom_site_fract_z
Si Si1 0.106855 0.381081 0.576500
Si Si2 0.468457 0.280181 0.578733
Si Si3 0.479433 0.613074 0.422486
Si Si4 0.856583 0.048291 0.424613
Si Si5 0.193245 0.290999 0.423505
Si Si6 0.949967 0.565682 0.423166
O O1 0.110321 0.372079 0.750000
O O2 0.158539 0.421884 0.521724
O O3 0.089891 0.332573 0.487388
O O4 0.068316 0.397310 0.542132
O O5 0.452454 0.277578 0.750000
O O6 0.488825 0.244413 0.548909
O O7 0.510091 0.333684 0.537405
O O8 0.489952 0.609659 0.250000
O O9 0.424471 0.575530 0.463085
O O10 0.513473 0.600346 0.516142
O O11 0.847041 0.040502 0.250000
O O12 0.910418 0.089583 0.460064
O O13 0.818814 0.061353 0.493424
O O14 0.849276 0.000000 0.500000
O O15 0.199145 0.284181 0.250000
O O16 0.152137 0.304273 0.452899
O O17 0.956085 0.561006 0.250000
O O18 0.000000 0.583324 0.500000
#
# Coordination Sequence:
#
# PCOD8330646 Si02
#       6
#    24  24  24  24  24  24
#     4  10  20  32  47  70 100 132 167 207 247 288
#     4   9  17  30  49  72  97 126 161 200 243 293
#     4   9  18  33  52  72  95 125 160 198 242 292
#     4  10  21  37  57  80 105 134 168 206 248 293
#     4  10  20  33  50  73 102 136 171 205 242 287
#     4  10  21  35  50  69  94 126 164 205 248 290
#
# _framework density 17.714756000000001
#
# number of rings (size 3 to 8) (size 9 to 14) (size 15 to 20)
#    0.000    2.333    0.000    2.500    0.000    7.667 
#    0.000    1.667    0.000    0.500    0.000    2.333 
#    0.000    0.000    0.000    8.333    0.000    8.667 
#
# Total GULP energy -1785946.432521 kJ/mol
# GULP energy per Si atom -12402.405781 kJ/mol
# Density = 1.767444 g / cm^3
# Si number density = 17.714756 Si / 1000 Ang^3
#
#
#
# Elastic Constant Matrix: (Units=GPa)
#
#
# Indices 1 2 3 4 5 6 
#
# 1 105.0915 68.7581 49.0434 0.0000 0.0000 0.0000
# 2 68.7581 105.0915 49.0434 0.0000 0.0000 0.0000
# 3 49.0434 49.0434 84.0552 0.0000 0.0000 0.0000
# 4 0.0000 0.0000 0.0000 25.6962 0.0000 0.0000
# 5 0.0000 0.0000 0.0000 0.0000 25.6962 0.0000
# 6 0.0000 0.0000 0.0000 0.0000 0.0000 18.1667
#
#
#
# Elastic Compliance Matrix: (Units=1/GPa)
#
#
# Indices 1 2 3 4 5 6 
#
# 1 0.018049 -0.009474 -0.005003 0.000000 0.000000 0.000000
# 2 -0.009474 0.018049 -0.005003 0.000000 0.000000 0.000000
# 3 -0.005003 -0.005003 0.017735 0.000000 0.000000 0.000000
# 4 0.000000 0.000000 0.000000 0.038916 0.000000 0.000000
# 5 0.000000 0.000000 0.000000 0.000000 0.038916 0.000000
# 6 0.000000 0.000000 0.000000 0.000000 0.000000 0.055046
#
#
# Mechanical properties :
#
#
# Convention : Reuss Voigt Hill
#
# Bulk Modulus (GPa) = 67.23845 69.76977 68.50411
# Shear Modulus (GPa) = 21.67980 22.40472 22.04226
#
# Velocity S-wave (km/s) = 3.50212 3.56019 3.53127
# Velocity P-wave (km/s) = 7.37507 7.50803 7.44185
#
# Compressibility (1/GPa) = 0.01487244
#
# Stress axis : x y z
#
# Youngs Moduli (GPa) = 55.40502 55.40502 56.38473
#
# Poissons Ratio (x) = 0.52491 0.28210
# Poissons Ratio (y) = 0.52491 0.28210
# Poissons Ratio (z) = 0.27720 0.27720
#
# Static dielectric constant tensor:
#      x y z
#    x 3.282350 0.000000 0.000000 
#    y 0.000000 3.282350 0.000000 
#    z 0.000000 0.000000 3.395980 
# 
# 
# High freq. dielectric constant tensor:
#      x y z
#    x 1.675630 0.000000 0.000000 
#    y 0.000000 1.675630 0.000000 
#    z 0.000000 0.000000 1.696410 
# 
# From -- ./inp_files/2111.got.cif
#   From: 2010.03.12/outbox.cif.g09.slc.cpg/sg194_2_cif.got.tgz:2111.got - 2010.04.01 12:26:19.
