data_PCOD8330049
_publ_section_title
;
Structure prediction by ZEFSAII (Michael W. Deem and Ramdas Pophale) SiO2 
 PCOD8330049
Probable space group: P 63/M C M
;
_chemical_formula_sum "Si O2"
_cell_formula_units_Z 144
_cell_length_a 30.227800
_cell_length_b 30.227800
_cell_length_c 8.905157
_cell_angle_alpha 90.000000
_cell_angle_beta 90.000000
_cell_angle_gamma 120.000000
_cell_volume 7046.692046
_symmetry_space_group_name_H-M "P 63/M C M"
_symmetry_group_IT_number 193
_symmetry_cell_setting 'hexagonal'
loop_
_space_group_symop_operation_xyz
x,y,z
x-y,x,1/2+z
-y,x-y,z
-x,-y,1/2+z
-x+y,-x,z
y,-x+y,1/2+z
x-y,-y,1/2-z
-x,-x+y,1/2-z
y,x,1/2-z
-y,-x,-z
-x+y,y,-z
x,x-y,-z
-x,-y,-z
-x+y,-x,1/2-z
y,-x+y,-z
x,y,1/2-z
x-y,x,-z
-y,x-y,1/2-z
-x+y,y,1/2+z
x,x-y,1/2+z
-y,-x,1/2+z
y,x,z
x-y,-y,z
-x,-x+y,z
loop_
_atom_site_type_symbol
_atom_site_label
_atom_site_fract_x
_atom_site_fract_y
_atom_site_fract_z
Si Si1 0.487214 0.059539 0.084761
Si Si2 0.402803 0.318209 0.926942
Si Si3 0.186504 0.464582 0.579376
Si Si4 0.300793 0.057585 0.914483
Si Si5 0.757877 0.422447 0.080942
Si Si6 0.846913 0.786774 0.427445
O O1 0.498569 0.084978 0.250000
O O2 0.442716 0.067618 0.008105
O O3 0.466250 0.000000 0.098802
O O4 0.542061 0.084121 0.000000
O O5 0.395407 0.321003 0.750000
O O6 0.425667 0.282737 0.970248
O O7 0.347526 0.291250 0.002505
O O8 0.235940 0.471880 0.500000
O O9 0.179188 0.443424 0.750000
O O10 0.192944 0.520704 0.578415
O O11 0.317861 0.085143 0.750000
O O12 0.258604 0.000000 0.885432
O O13 0.271264 0.079875 0.012617
O O14 0.741118 0.403568 0.250000
O O15 0.708563 0.417125 0.000000
O O16 0.777768 0.388884 0.000000
O O17 0.903135 0.806269 0.500000
O O18 0.851321 0.782926 0.250000
O O19 0.826332 0.826332 0.465750
#
# Coordination Sequence:
#
# PCOD8330049 Si02
#       6
#    24  24  24  24  24  24
#     4   9  19  35  54  77 106 140 178 222 273 330
#     4  11  22  36  56  80 108 143 183 229 282 341
#     4  10  22  39  55  73  99 131 168 210 258 313
#     4  10  21  37  58  85 116 150 191 239 287 337
#     4  10  20  34  53  74  97 124 157 201 253 313
#     4  10  21  38  62  93 129 168 209 254 302 351
#
# _framework density 20.435119
#
# number of rings (size 3 to 8) (size 9 to 14) (size 15 to 20)
#    0.000    2.000    0.000    3.167    0.000    7.333 
#    0.000    8.333    0.000    0.167    0.000    0.000 
#    0.000    0.000    0.000    0.000    0.000    0.000 
#
# Total GULP energy -1784240.351869 kJ/mol
# GULP energy per Si atom -12390.557999 kJ/mol
# Density = 2.038861 g / cm^3
# Si number density = 20.435119 Si / 1000 Ang^3
#
#
#
# Elastic Constant Matrix: (Units=GPa)
#
#
# Indices 1 2 3 4 5 6 
#
# 1 84.5590 30.8604 41.2407 0.0000 0.0000 0.0000
# 2 30.8604 84.5590 41.2407 0.0000 0.0000 0.0000
# 3 41.2407 41.2407 124.8744 0.0000 0.0000 0.0000
# 4 0.0000 0.0000 0.0000 28.6896 0.0000 0.0000
# 5 0.0000 0.0000 0.0000 0.0000 28.6896 0.0000
# 6 0.0000 0.0000 0.0000 0.0000 0.0000 26.8493
#
#
#
# Elastic Compliance Matrix: (Units=1/GPa)
#
#
# Indices 1 2 3 4 5 6 
#
# 1 0.014981 -0.003641 -0.003745 0.000000 0.000000 0.000000
# 2 -0.003641 0.014981 -0.003745 0.000000 0.000000 0.000000
# 3 -0.003745 -0.003745 0.010482 0.000000 0.000000 0.000000
# 4 0.000000 0.000000 0.000000 0.034856 0.000000 0.000000
# 5 0.000000 0.000000 0.000000 0.000000 0.034856 0.000000
# 6 0.000000 0.000000 0.000000 0.000000 0.000000 0.037245
#
#
# Mechanical properties :
#
#
# Convention : Reuss Voigt Hill
#
# Bulk Modulus (GPa) = 55.00019 57.85289 56.42654
# Shear Modulus (GPa) = 28.45355 28.88909 28.67132
#
# Velocity S-wave (km/s) = 3.73552 3.76400 3.74978
# Velocity P-wave (km/s) = 6.75118 6.87475 6.81325
#
# Compressibility (1/GPa) = 0.01818176
#
# Stress axis : x y z
#
# Youngs Moduli (GPa) = 66.74903 66.74903 95.40280
#
# Poissons Ratio (x) = 0.24303 0.35731
# Poissons Ratio (y) = 0.24303 0.35731
# Poissons Ratio (z) = 0.25000 0.25000
#
# Static dielectric constant tensor:
#      x y z
#    x 3.631490 0.000000 0.000000 
#    y 0.000000 3.631490 0.000000 
#    z 0.000000 0.000000 3.975680 
# 
# 
# High freq. dielectric constant tensor:
#      x y z
#    x 1.787210 0.000000 0.000000 
#    y 0.000000 1.787210 0.000000 
#    z 0.000000 0.000000 1.807580 
# 
# From -- ./inp_files/1540.got.cif
#   From: 2010.03.12/outbox.cif.g09.slc.cpg/sg193_1_cif.got.tgz:1540.got - 2010.04.01 12:20:39.
