data_PCOD8330801
_publ_section_title
;
Structure prediction by ZEFSAII (Michael W. Deem and Ramdas Pophale) SiO2 
 PCOD8330801
Probable space group: P 63/M M C
;
_chemical_formula_sum "Si O2"
_cell_formula_units_Z 72
_cell_length_a 21.237093
_cell_length_b 21.237093
_cell_length_c 9.996343
_cell_angle_alpha 90.000000
_cell_angle_beta 90.000000
_cell_angle_gamma 120.000000
_cell_volume 3904.468460
_symmetry_space_group_name_H-M "P 63/M M C"
_symmetry_group_IT_number 194
_symmetry_cell_setting 'hexagonal'
loop_
_space_group_symop_operation_xyz
x,y,z
x-y,x,1/2+z
-y,x-y,z
-x,-y,1/2+z
-x+y,-x,z
y,-x+y,1/2+z
x-y,-y,-z
-x,-x+y,-z
y,x,-z
-y,-x,1/2-z
-x+y,y,1/2-z
x,x-y,1/2-z
-x,-y,-z
-x+y,-x,1/2-z
y,-x+y,-z
x,y,1/2-z
x-y,x,-z
-y,x-y,1/2-z
-x+y,y,z
x,x-y,z
-y,-x,z
y,x,1/2+z
x-y,-y,1/2+z
-x,-x+y,1/2+z
loop_
_atom_site_type_symbol
_atom_site_label
_atom_site_fract_x
_atom_site_fract_y
_atom_site_fract_z
Si Si1 0.285704 0.858956 0.005122
Si Si2 0.939411 0.205077 0.099147
Si Si3 0.391810 0.933622 0.250000
Si Si4 0.102967 0.477750 0.750000
O O1 0.221307 0.778694 0.046072
O O2 0.253779 0.910504 0.968273
O O3 0.327536 0.853577 0.877125
O O4 0.343588 0.894843 0.121892
O O5 0.968880 0.233519 0.250000
O O6 0.877993 0.122007 0.108373
O O7 0.000000 0.207698 0.000000
O O8 0.461856 0.923712 0.250000
O O9 0.414977 0.018268 0.250000
O O10 0.109251 0.554626 0.750000
#
# Coordination Sequence:
#
# PCOD8330801 Si02
#       4
#    24  24  12  12
#     4  11  22  37  56  82 113 146 182 228 283 336
#     4  10  21  36  56  85 118 150 186 229 277 331
#     4  11  23  38  58  84 110 143 187 235 286 338
#     4  11  21  36  60  84 110 143 183 231 282 334
#
# _framework density 18.44041
#
# number of rings (size 3 to 8) (size 9 to 14) (size 15 to 20)
#    0.000    1.333    1.667    5.000    2.333    3.333 
#    0.000    0.000    0.000   13.667    0.000    0.000 
#    0.000    0.000    0.000    0.000    0.000    0.000 
#
# Total GULP energy -892868.625553 kJ/mol
# GULP energy per Si atom -12400.953133 kJ/mol
# Density = 1.839844 g / cm^3
# Si number density = 18.440410 Si / 1000 Ang^3
#
#
#
# Elastic Constant Matrix: (Units=GPa)
#
#
# Indices 1 2 3 4 5 6 
#
# 1 65.7482 34.2676 32.7953 0.0000 0.0000 0.0000
# 2 34.2676 65.7482 32.7953 0.0000 0.0000 0.0000
# 3 32.7953 32.7953 125.3557 0.0000 0.0000 0.0000
# 4 0.0000 0.0000 0.0000 34.5230 0.0000 0.0000
# 5 0.0000 0.0000 0.0000 0.0000 34.5230 0.0000
# 6 0.0000 0.0000 0.0000 0.0000 0.0000 15.7403
#
#
#
# Elastic Compliance Matrix: (Units=1/GPa)
#
#
# Indices 1 2 3 4 5 6 
#
# 1 0.021917 -0.009848 -0.003157 0.000000 0.000000 0.000000
# 2 -0.009848 0.021917 -0.003157 0.000000 0.000000 0.000000
# 3 -0.003157 -0.003157 0.009629 0.000000 0.000000 0.000000
# 4 0.000000 0.000000 0.000000 0.028966 0.000000 0.000000
# 5 0.000000 0.000000 0.000000 0.000000 0.028966 0.000000
# 6 0.000000 0.000000 0.000000 0.000000 0.000000 0.063531
#
#
# Mechanical properties :
#
#
# Convention : Reuss Voigt Hill
#
# Bulk Modulus (GPa) = 47.30893 50.72982 49.01937
# Shear Modulus (GPa) = 23.33181 27.42353 25.37767
#
# Velocity S-wave (km/s) = 3.56090 3.86053 3.71374
# Velocity P-wave (km/s) = 6.52820 6.88778 6.71040
#
# Compressibility (1/GPa) = 0.02113766
#
# Stress axis : x y z
#
# Youngs Moduli (GPa) = 45.62605 45.62605 103.84854
#
# Poissons Ratio (x) = 0.44933 0.32790
# Poissons Ratio (y) = 0.44933 0.32790
# Poissons Ratio (z) = 0.14406 0.14406
#
# Static dielectric constant tensor:
#      x y z
#    x 3.377270 0.000000 0.000000 
#    y 0.000000 3.377270 0.000000 
#    z 0.000000 0.000000 3.695760 
# 
# 
# High freq. dielectric constant tensor:
#      x y z
#    x 1.707100 0.000000 0.000000 
#    y 0.000000 1.707100 0.000000 
#    z 0.000000 0.000000 1.736720 
# 
# From -- ./inp_files/1128.got.cif
#   From: 2010.03.12/outbox.cif.g09.slc.cpg/sg194_1_cif.got.tgz:1128.got - 2010.04.01 12:26:19.
