data_PCOD8330779
_publ_section_title
;
Structure prediction by ZEFSAII (Michael W. Deem and Ramdas Pophale) SiO2 
 PCOD8330779
Probable space group: P 63/M M C
;
_chemical_formula_sum "Si O2"
_cell_formula_units_Z 120
_cell_length_a 16.672283
_cell_length_b 16.672283
_cell_length_c 25.468795
_cell_angle_alpha 90.000000
_cell_angle_beta 90.000000
_cell_angle_gamma 120.000000
_cell_volume 6130.969795
_symmetry_space_group_name_H-M "P 63/M M C"
_symmetry_group_IT_number 194
_symmetry_cell_setting 'hexagonal'
loop_
_space_group_symop_operation_xyz
x,y,z
x-y,x,1/2+z
-y,x-y,z
-x,-y,1/2+z
-x+y,-x,z
y,-x+y,1/2+z
x-y,-y,-z
-x,-x+y,-z
y,x,-z
-y,-x,1/2-z
-x+y,y,1/2-z
x,x-y,1/2-z
-x,-y,-z
-x+y,-x,1/2-z
y,-x+y,-z
x,y,1/2-z
x-y,x,-z
-y,x-y,1/2-z
-x+y,y,z
x,x-y,z
-y,-x,z
y,x,1/2+z
x-y,-y,1/2+z
-x,-x+y,1/2+z
loop_
_atom_site_type_symbol
_atom_site_label
_atom_site_fract_x
_atom_site_fract_y
_atom_site_fract_z
Si Si1 0.752151 0.684752 0.540204
Si Si2 0.148551 0.484308 0.963996
Si Si3 0.942388 0.057613 0.311727
Si Si4 0.374042 0.342257 0.129473
Si Si5 0.333503 0.484060 0.189269
Si Si6 0.160479 0.839522 0.687785
O O1 0.764903 0.764903 0.500000
O O2 0.848390 0.696780 0.554932
O O3 0.683154 0.586034 0.512074
O O4 0.717590 0.702942 0.594633
O O5 0.242767 0.485534 0.949632
O O6 0.169975 0.584988 0.983128
O O7 0.085965 0.458684 0.911292
O O8 0.934009 0.065992 0.250000
O O9 0.891559 0.108442 0.337209
O O10 0.052640 0.105279 0.326839
O O11 0.374824 0.427013 0.159960
O O12 0.372942 0.266634 0.168982
O O13 0.322543 0.454959 0.250000
O O14 0.233308 0.466616 0.167908
O O15 0.407372 0.592629 0.182103
O O16 0.161311 0.838690 0.750000
#
# Coordination Sequence:
#
# PCOD8330779 Si02
#       6
#    24  24  12  24  24  12
#     4   9  20  35  56  79 112 146 182 234 288 353
#     4  10  20  37  59  87 115 151 194 243 301 366
#     4   7  14  30  48  70 101 139 185 243 300 341
#     4  11  21  36  56  85 117 155 197 244 302 358
#     4  10  21  37  57  83 116 155 199 247 301 366
#     4  11  22  36  58  84 118 162 210 260 302 355
#
# _framework density 19.572761
#
# number of rings (size 3 to 8) (size 9 to 14) (size 15 to 20)
#    0.200    2.000    1.000    2.200    1.400    6.800 
#    0.000    2.000    0.000    2.600    0.000    0.000 
#    0.000    0.000    0.000    0.000    0.000    0.000 
#
# Total GULP energy -1486611.841872 kJ/mol
# GULP energy per Si atom -12388.432016 kJ/mol
# Density = 1.952821 g / cm^3
# Si number density = 19.572761 Si / 1000 Ang^3
#
#
#
# Elastic Constant Matrix: (Units=GPa)
#
#
# Indices 1 2 3 4 5 6 
#
# 1 78.3957 -0.0896 13.2228 0.0000 0.0000 0.0000
# 2 -0.0896 78.3957 13.2228 0.0000 0.0000 0.0000
# 3 13.2228 13.2228 67.3406 0.0000 0.0000 0.0000
# 4 0.0000 0.0000 0.0000 -228.8576 0.0000 0.0000
# 5 0.0000 0.0000 0.0000 0.0000 -228.8576 0.0000
# 6 0.0000 0.0000 0.0000 0.0000 0.0000 39.2427
#
#
#
# Elastic Compliance Matrix: (Units=1/GPa)
#
#
# Indices 1 2 3 4 5 6 
#
# 1 0.013209 0.000468 -0.002686 0.000000 0.000000 0.000000
# 2 0.000468 0.013209 -0.002686 0.000000 0.000000 0.000000
# 3 -0.002686 -0.002686 0.015905 0.000000 0.000000 0.000000
# 4 0.000000 0.000000 0.000000 -0.004370 0.000000 0.000000
# 5 0.000000 0.000000 0.000000 0.000000 -0.004370 0.000000
# 6 0.000000 0.000000 0.000000 0.000000 0.000000 0.025482
#
#
# Mechanical properties :
#
#
# Convention : Reuss Voigt Hill
#
# Bulk Modulus (GPa) = 30.75339 30.76047 30.75693
# Shear Modulus (GPa) = 62.72578 -70.50946 -3.89184
#
# Velocity S-wave (km/s) = 5.66719 -6.00853 -1.41163
# Velocity P-wave (km/s) = 7.65305 5.69092 3.61819
#
# Compressibility (1/GPa) = 0.03251674
#
# Stress axis : x y z
#
# Youngs Moduli (GPa) = 75.70413 75.70413 62.87494
#
# Poissons Ratio (x) = -0.03544 0.16886
# Poissons Ratio (y) = -0.03544 0.16886
# Poissons Ratio (z) = 0.20332 0.20332
#
# Static dielectric constant tensor:
#      x y z
#    x 3.567020 0.000000 0.000000 
#    y 0.000000 3.567020 0.000000 
#    z 0.000000 0.000000 3.417850 
# 
# 
# High freq. dielectric constant tensor:
#      x y z
#    x 1.757100 0.000000 0.000000 
#    y 0.000000 1.757100 0.000000 
#    z 0.000000 0.000000 1.755040 
# 
# From -- ./inp_files/9439.got.cif
#   From: 2010.03.12/outbox.cif.g09.slc.cpg/sg194_5_cif.got.tgz:9439.got - 2010.04.01 12:26:19.
