data_PCOD8330907
_publ_section_title
;
Structure prediction by ZEFSAII (Michael W. Deem and Ramdas Pophale) SiO2 
 PCOD8330907
Probable space group: P M 3
;
_chemical_formula_sum "Si O2"
_cell_formula_units_Z 96
_cell_length_a 19.171167
_cell_length_b 19.171167
_cell_length_c 19.171167
_cell_angle_alpha 90.000000
_cell_angle_beta 90.000000
_cell_angle_gamma 90.000000
_cell_volume 7046.048870
_symmetry_space_group_name_H-M "P M 3"
_symmetry_group_IT_number 200
_symmetry_cell_setting 'cubic'
loop_
_space_group_symop_operation_xyz
x,y,z
z,x,y
y,z,x
-y,-z,x
z,-x,-y
-y,z,-x
-z,-x,y
-z,x,-y
y,-z,-x
-x,-y,z
x,-y,-z
-x,y,-z
-x,-y,-z
-z,-x,-y
-y,-z,-x
y,z,-x
-z,x,y
y,-z,x
z,x,-y
z,-x,y
-y,z,x
x,y,-z
-x,y,z
x,-y,z
loop_
_atom_site_type_symbol
_atom_site_label
_atom_site_fract_x
_atom_site_fract_y
_atom_site_fract_z
Si Si1 0.078486 0.416927 0.000000
Si Si2 0.878068 0.823439 0.580290
Si Si3 0.500000 0.083073 0.421514
Si Si4 0.578133 0.750000 0.921867
Si Si5 0.080290 0.323439 0.378068
O O1 0.121416 0.389415 0.066479
O O2 0.072918 0.500000 0.000000
O O3 0.000000 0.385245 0.000000
O O4 0.895303 0.806070 0.500000
O O5 0.804468 0.860443 0.589281
O O6 0.878435 0.750000 0.621565
O O7 0.500000 0.114755 0.500000
O O8 0.433521 0.110585 0.378584
O O9 0.500000 0.000000 0.427082
O O10 0.500000 0.716900 0.915304
O O11 0.639557 0.695532 0.910719
O O12 0.584696 0.783100 0.000000
O O13 0.000000 0.306070 0.395303
#
# Coordination Sequence:
#
# PCOD8330907 Si02
#       5
#    12  24  12  24  24
#     4   9  16  24  40  62  82 104 134 167 202 237
#     4  10  17  27  42  60  82 106 134 172 205 237
#     4   9  16  24  40  62  82 104 134 167 202 237
#     4   9  18  30  42  56  80 110 138 164 201 250
#     4  10  17  27  42  60  82 106 134 172 205 237
#
# _framework density 13.624658
#
# number of rings (size 3 to 8) (size 9 to 14) (size 15 to 20)
#    0.000    2.500    2.500    1.500    0.000    6.000 
#    1.500    0.000    0.000    0.000    0.000    0.000 
#    0.000    0.000    0.000    0.000    0.000    0.000 
#
# Total GULP energy -1189796.432539 kJ/mol
# GULP energy per Si atom -12393.712839 kJ/mol
# Density = 1.359365 g / cm^3
# Si number density = 13.624658 Si / 1000 Ang^3
#
#
#
# Elastic Constant Matrix: (Units=GPa)
#
#
# Indices 1 2 3 4 5 6 
#
# 1 75.8157 36.0616 36.0616 0.0000 0.0000 0.0000
# 2 36.0616 75.8157 36.0616 0.0000 0.0000 0.0000
# 3 36.0616 36.0616 75.8157 0.0000 0.0000 0.0000
# 4 0.0000 0.0000 0.0000 13.9066 0.0000 0.0000
# 5 0.0000 0.0000 0.0000 0.0000 13.9066 0.0000
# 6 0.0000 0.0000 0.0000 0.0000 0.0000 13.9066
#
#
#
# Elastic Compliance Matrix: (Units=1/GPa)
#
#
# Indices 1 2 3 4 5 6 
#
# 1 0.019023 -0.006132 -0.006132 0.000000 0.000000 0.000000
# 2 -0.006132 0.019023 -0.006132 0.000000 0.000000 0.000000
# 3 -0.006132 -0.006132 0.019023 0.000000 0.000000 0.000000
# 4 0.000000 0.000000 0.000000 0.071908 0.000000 0.000000
# 5 0.000000 0.000000 0.000000 0.000000 0.071908 0.000000
# 6 0.000000 0.000000 0.000000 0.000000 0.000000 0.071908
#
#
# Mechanical properties :
#
#
# Convention : Reuss Voigt Hill
#
# Bulk Modulus (GPa) = 49.31294 49.31294 49.31294
# Shear Modulus (GPa) = 15.80560 16.29477 16.05019
#
# Velocity S-wave (km/s) = 3.40968 3.46204 3.43596
# Velocity P-wave (km/s) = 7.19539 7.22865 7.21204
#
# Compressibility (1/GPa) = 0.02027865
#
# Stress axis : x y z
#
# Youngs Moduli (GPa) = 52.56808 52.56808 52.56808
#
# Poissons Ratio (x) = 0.32233 0.32233
# Poissons Ratio (y) = 0.32233 0.32233
# Poissons Ratio (z) = 0.32233 0.32233
#
# Static dielectric constant tensor:
#      x y z
#    x 2.569460 0.000000 0.000000 
#    y 0.000000 2.569460 0.000000 
#    z 0.000000 0.000000 2.569460 
# 
# 
# High freq. dielectric constant tensor:
#      x y z
#    x 1.502530 0.000000 0.000000 
#    y 0.000000 1.502530 0.000000 
#    z 0.000000 0.000000 1.502530 
# 
# From -- ./inp_files/368.got.cif
#   From: 2010.03.12/outbox.cif.g09.slc.cpg/sg200_cif.got.tgz:368.got - 2010.03.30 09:01:43.
