data_PCOD8330085
_publ_section_title
;
Structure prediction by ZEFSAII (Michael W. Deem and Ramdas Pophale) SiO2 
 PCOD8330085
Probable space group: P 63/M C M
;
_chemical_formula_sum "Si O2"
_cell_formula_units_Z 168
_cell_length_a 21.442503
_cell_length_b 21.442503
_cell_length_c 23.116544
_cell_angle_alpha 90.000000
_cell_angle_beta 90.000000
_cell_angle_gamma 120.000000
_cell_volume 9204.591025
_symmetry_space_group_name_H-M "P 63/M C M"
_symmetry_group_IT_number 193
_symmetry_cell_setting 'hexagonal'
loop_
_space_group_symop_operation_xyz
x,y,z
x-y,x,1/2+z
-y,x-y,z
-x,-y,1/2+z
-x+y,-x,z
y,-x+y,1/2+z
x-y,-y,1/2-z
-x,-x+y,1/2-z
y,x,1/2-z
-y,-x,-z
-x+y,y,-z
x,x-y,-z
-x,-y,-z
-x+y,-x,1/2-z
y,-x+y,-z
x,y,1/2-z
x-y,x,-z
-y,x-y,1/2-z
-x+y,y,1/2+z
x,x-y,1/2+z
-y,-x,1/2+z
y,x,z
x-y,-y,z
-x,-x+y,z
loop_
_atom_site_type_symbol
_atom_site_label
_atom_site_fract_x
_atom_site_fract_y
_atom_site_fract_z
Si Si1 0.682182 0.599765 0.812709
Si Si2 0.847489 0.565911 0.011997
Si Si3 0.812927 0.132921 0.108500
Si Si4 0.366093 0.447025 0.595286
Si Si5 0.162575 0.080767 0.932321
Si Si6 0.410629 0.913602 0.905778
Si Si7 0.650398 0.918066 0.683744
O O1 0.704999 0.583397 0.750000
O O2 0.625947 0.625947 0.802535
O O3 0.750364 0.662449 0.845734
O O4 0.641129 0.526051 0.849544
O O5 0.862814 0.636788 0.049345
O O6 0.875204 0.516174 0.040003
O O7 0.761261 0.522521 0.000000
O O8 0.883439 0.584928 0.948604
O O9 0.858764 0.093907 0.098013
O O10 0.866865 0.206945 0.139461
O O11 0.414546 0.414546 0.573354
O O12 0.417791 0.533438 0.596609
O O13 0.337874 0.421901 0.660672
O O14 0.135918 0.135918 0.911139
O O15 0.099831 0.000000 0.917299
O O16 0.178082 0.089041 0.000000
O O17 0.448552 0.000000 0.912295
O O18 0.639211 0.890505 0.750000
O O19 0.717333 0.000000 0.679815
#
# Coordination Sequence:
#
# PCOD8330085 Si02
#       7
#    24  24  24  24  24  24  24
#     4   9  18  32  52  79 107 135 175 222 264 315
#     4  11  20  32  50  79 110 142 174 216 266 327
#     4  11  20  34  51  78 109 145 177 221 281 335
#     4  10  20  35  55  79 108 140 174 216 264 322
#     4  10  21  35  52  74 105 147 194 238 282 334
#     4   9  19  34  54  79 107 140 175 213 263 319
#     4  10  21  35  52  77 107 138 176 220 269 326
#
# _framework density 18.251760999999998
#
# number of rings (size 3 to 8) (size 9 to 14) (size 15 to 20)
#    0.000    2.000    1.429    2.714    0.000    4.000 
#    0.000    2.857    0.000    2.286    0.000    0.000 
#    0.000    6.857    0.000    0.000    0.000    0.000 
#
# Total GULP energy -2081376.143177 kJ/mol
# GULP energy per Si atom -12389.143709 kJ/mol
# Density = 1.821022 g / cm^3
# Si number density = 18.251761 Si / 1000 Ang^3
#
#
#
# Elastic Constant Matrix: (Units=GPa)
#
#
# Indices 1 2 3 4 5 6 
#
# 1 76.1311 32.7536 37.3753 0.0000 0.0000 0.0000
# 2 32.7536 76.1311 37.3753 0.0000 0.0000 0.0000
# 3 37.3753 37.3753 107.8099 0.0000 0.0000 0.0000
# 4 0.0000 0.0000 0.0000 19.4548 0.0000 0.0000
# 5 0.0000 0.0000 0.0000 0.0000 19.4548 0.0000
# 6 0.0000 0.0000 0.0000 0.0000 0.0000 21.6888
#
#
#
# Elastic Compliance Matrix: (Units=1/GPa)
#
#
# Indices 1 2 3 4 5 6 
#
# 1 0.017553 -0.005500 -0.004178 0.000000 0.000000 0.000000
# 2 -0.005500 0.017553 -0.004178 0.000000 0.000000 0.000000
# 3 -0.004178 -0.004178 0.012173 0.000000 0.000000 0.000000
# 4 0.000000 0.000000 0.000000 0.051401 0.000000 0.000000
# 5 0.000000 0.000000 0.000000 0.000000 0.051401 0.000000
# 6 0.000000 0.000000 0.000000 0.000000 0.000000 0.046107
#
#
# Mechanical properties :
#
#
# Convention : Reuss Voigt Hill
#
# Bulk Modulus (GPa) = 51.11346 52.78674 51.95010
# Shear Modulus (GPa) = 21.69918 22.29087 21.99502
#
# Velocity S-wave (km/s) = 3.45176 3.49850 3.47521
# Velocity P-wave (km/s) = 6.62960 6.73079 6.68039
#
# Compressibility (1/GPa) = 0.01956432
#
# Stress axis : x y z
#
# Youngs Moduli (GPa) = 56.97048 56.97048 82.15133
#
# Poissons Ratio (x) = 0.31336 0.34326
# Poissons Ratio (y) = 0.31336 0.34326
# Poissons Ratio (z) = 0.23804 0.23804
#
# Static dielectric constant tensor:
#      x y z
#    x 3.320410 0.000000 0.000000 
#    y 0.000000 3.320410 0.000000 
#    z 0.000000 0.000000 3.644220 
# 
# 
# High freq. dielectric constant tensor:
#      x y z
#    x 1.694330 0.000000 0.000000 
#    y 0.000000 1.694330 0.000000 
#    z 0.000000 0.000000 1.712830 
# 
# From -- ./inp_files/7720.got.cif
#   From: 2010.03.12/outbox.cif.g09.slc.cpg/sg193_4_cif.got.tgz:7720.got - 2010.04.01 12:20:39.
