data_PCOD8330086
_publ_section_title
;
Structure prediction by ZEFSAII (Michael W. Deem and Ramdas Pophale) SiO2 
 PCOD8330086
Probable space group: P 63/M C M
;
_chemical_formula_sum "Si O2"
_cell_formula_units_Z 132
_cell_length_a 18.260658
_cell_length_b 18.260658
_cell_length_c 24.233419
_cell_angle_alpha 90.000000
_cell_angle_beta 90.000000
_cell_angle_gamma 120.000000
_cell_volume 6998.068167
_symmetry_space_group_name_H-M "P 63/M C M"
_symmetry_group_IT_number 193
_symmetry_cell_setting 'hexagonal'
loop_
_space_group_symop_operation_xyz
x,y,z
x-y,x,1/2+z
-y,x-y,z
-x,-y,1/2+z
-x+y,-x,z
y,-x+y,1/2+z
x-y,-y,1/2-z
-x,-x+y,1/2-z
y,x,1/2-z
-y,-x,-z
-x+y,y,-z
x,x-y,-z
-x,-y,-z
-x+y,-x,1/2-z
y,-x+y,-z
x,y,1/2-z
x-y,x,-z
-y,x-y,1/2-z
-x+y,y,1/2+z
x,x-y,1/2+z
-y,-x,1/2+z
y,x,z
x-y,-y,z
-x,-x+y,z
loop_
_atom_site_type_symbol
_atom_site_label
_atom_site_fract_x
_atom_site_fract_y
_atom_site_fract_z
Si Si1 0.774830 0.100057 0.887849
Si Si2 0.608716 0.094301 0.160479
Si Si3 0.193261 0.386521 0.500000
Si Si4 0.643154 0.543352 0.189297
Si Si5 0.382442 0.905444 0.532576
Si Si6 0.328944 0.097157 0.813006
O O1 0.798787 0.129882 0.951044
O O2 0.710541 0.127479 0.860524
O O3 0.858981 0.148334 0.850884
O O4 0.738650 0.000000 0.884420
O O5 0.558738 0.140646 0.183744
O O6 0.595339 0.091328 0.095736
O O7 0.707714 0.138733 0.177580
O O8 0.566026 0.000000 0.185601
O O9 0.159857 0.444561 0.525257
O O10 0.687942 0.563062 0.250000
O O11 0.583822 0.583822 0.184661
O O12 0.435644 0.871288 0.500000
O O13 0.408018 0.000000 0.511234
O O14 0.309608 0.107157 0.750000
O O15 0.282523 0.000000 0.832218
#
# Coordination Sequence:
#
# PCOD8330086 Si02
#       6
#    24  24  12  24  24  24
#     4  11  23  37  57  86 119 154 197 250 303 352
#     4   9  16  30  52  79 109 143 183 227 279 342
#     4  12  22  36  56  82 115 154 193 236 288 348
#     4   9  17  31  54  84 115 146 183 229 285 346
#     4  10  20  35  55  79 111 150 192 236 282 336
#     4  10  20  35  57  84 114 151 197 248 305 365
#
# _framework density 18.862348999999998
#
# number of rings (size 3 to 8) (size 9 to 14) (size 15 to 20)
#    0.000    2.000    1.818    2.727    0.000    6.909 
#    0.545    0.000    0.000    1.091    0.000    3.182 
#    0.000    0.000    0.000    0.000    0.000    0.000 
#
# Total GULP energy -1635885.480474 kJ/mol
# GULP energy per Si atom -12393.071822 kJ/mol
# Density = 1.881942 g / cm^3
# Si number density = 18.862349 Si / 1000 Ang^3
#
#
#
# Elastic Constant Matrix: (Units=GPa)
#
#
# Indices 1 2 3 4 5 6 
#
# 1 82.7986 33.1612 34.7472 0.0000 0.0000 0.0000
# 2 33.1612 82.7986 34.7472 0.0000 0.0000 0.0000
# 3 34.7472 34.7472 116.3117 0.0000 0.0000 0.0000
# 4 0.0000 0.0000 0.0000 24.9918 0.0000 0.0000
# 5 0.0000 0.0000 0.0000 0.0000 24.9918 0.0000
# 6 0.0000 0.0000 0.0000 0.0000 0.0000 24.8187
#
#
#
# Elastic Compliance Matrix: (Units=1/GPa)
#
#
# Indices 1 2 3 4 5 6 
#
# 1 0.015325 -0.004821 -0.003138 0.000000 0.000000 0.000000
# 2 -0.004821 0.015325 -0.003138 0.000000 0.000000 0.000000
# 3 -0.003138 -0.003138 0.010473 0.000000 0.000000 0.000000
# 4 0.000000 0.000000 0.000000 0.040013 0.000000 0.000000
# 5 0.000000 0.000000 0.000000 0.000000 0.040013 0.000000
# 6 0.000000 0.000000 0.000000 0.000000 0.000000 0.040292
#
#
# Mechanical properties :
#
#
# Convention : Reuss Voigt Hill
#
# Bulk Modulus (GPa) = 52.82940 54.13557 53.48248
# Shear Modulus (GPa) = 26.32342 26.91071 26.61706
#
# Velocity S-wave (km/s) = 3.73976 3.78125 3.76056
# Velocity P-wave (km/s) = 6.83494 6.91567 6.87542
#
# Compressibility (1/GPa) = 0.01892885
#
# Stress axis : x y z
#
# Youngs Moduli (GPa) = 65.25198 65.25198 95.48788
#
# Poissons Ratio (x) = 0.31457 0.29965
# Poissons Ratio (y) = 0.31457 0.29965
# Poissons Ratio (z) = 0.20477 0.20477
#
# Static dielectric constant tensor:
#      x y z
#    x 3.355320 0.000000 0.000000 
#    y 0.000000 3.355320 0.000000 
#    z 0.000000 0.000000 3.625950 
# 
# 
# High freq. dielectric constant tensor:
#      x y z
#    x 1.705950 0.000000 0.000000 
#    y 0.000000 1.705950 0.000000 
#    z 0.000000 0.000000 1.753070 
# 
# From -- ./inp_files/7469.got.cif
#   From: 2010.03.12/outbox.cif.g09.slc.cpg/sg193_4_cif.got.tgz:7469.got - 2010.04.01 12:20:39.
