data_PCOD8330855
_publ_section_title
;
Structure prediction by ZEFSAII (Michael W. Deem and Ramdas Pophale) SiO2 
 PCOD8330855
Probable space group: P 63/M M C
;
_chemical_formula_sum "Si O2"
_cell_formula_units_Z 108
_cell_length_a 17.457025
_cell_length_b 17.457025
_cell_length_c 30.742768
_cell_angle_alpha 90.000000
_cell_angle_beta 90.000000
_cell_angle_gamma 120.000000
_cell_volume 8113.608854
_symmetry_space_group_name_H-M "P 63/M M C"
_symmetry_group_IT_number 194
_symmetry_cell_setting 'hexagonal'
loop_
_space_group_symop_operation_xyz
x,y,z
x-y,x,1/2+z
-y,x-y,z
-x,-y,1/2+z
-x+y,-x,z
y,-x+y,1/2+z
x-y,-y,-z
-x,-x+y,-z
y,x,-z
-y,-x,1/2-z
-x+y,y,1/2-z
x,x-y,1/2-z
-x,-y,-z
-x+y,-x,1/2-z
y,-x+y,-z
x,y,1/2-z
x-y,x,-z
-y,x-y,1/2-z
-x+y,y,z
x,x-y,z
-y,-x,z
y,x,1/2+z
x-y,-y,1/2+z
-x,-x+y,1/2+z
loop_
_atom_site_type_symbol
_atom_site_label
_atom_site_fract_x
_atom_site_fract_y
_atom_site_fract_z
Si Si1 0.510841 0.847134 0.655137
Si Si2 0.178876 0.178806 0.200895
Si Si3 0.821670 0.999797 0.049409
Si Si4 0.836492 0.501924 0.250000
Si Si5 0.696325 0.757629 0.874961
O O1 0.422652 0.845303 0.637738
O O2 0.494235 0.747118 0.654523
O O3 0.535741 0.888834 0.704325
O O4 0.593884 0.914468 0.625415
O O5 0.212894 0.211054 0.250000
O O6 0.088344 0.176688 0.191295
O O7 0.251871 0.247699 0.167404
O O8 0.160387 0.080194 0.193269
O O9 0.819302 0.909651 0.061394
O O10 0.752948 0.009722 0.080722
O O11 0.921553 0.078448 0.056777
O O12 0.791294 0.000000 0.000000
O O13 0.767730 0.535460 0.250000
O O14 0.789713 0.394857 0.250000
O O15 0.697078 0.848539 0.872547
#
# Coordination Sequence:
#
# PCOD8330855 Si02
#       5
#    24  24  24  12  24
#     4   9  16  25  37  52  71  95 123 152 182 216
#     4   9  16  24  34  48  70 100 130 153 173 205
#     4   9  16  26  40  57  76  98 125 156 187 217
#     4   8  13  20  32  48  65  86 114 146 176 206
#     4   9  17  25  35  52  72  95 122 153 186 216
#
# _framework density 13.310969
#
# number of rings (size 3 to 8) (size 9 to 14) (size 15 to 20)
#    0.000    3.111    0.000    1.444    1.556    3.556 
#    0.000    2.222    0.000    0.667    0.000    0.000 
#    0.000    0.000    0.000    5.333    0.000    3.111 
#
# Total GULP energy -1337964.665522 kJ/mol
# GULP energy per Si atom -12388.561718 kJ/mol
# Density = 1.328067 g / cm^3
# Si number density = 13.310969 Si / 1000 Ang^3
#
#
#
# Elastic Constant Matrix: (Units=GPa)
#
#
# Indices 1 2 3 4 5 6 
#
# 1 62.1075 34.9348 42.9776 0.0000 0.0000 0.0000
# 2 34.9348 62.1075 42.9776 0.0000 0.0000 0.0000
# 3 42.9776 42.9776 84.4060 0.0000 0.0000 0.0000
# 4 0.0000 0.0000 0.0000 16.1582 0.0000 0.0000
# 5 0.0000 0.0000 0.0000 0.0000 16.1582 0.0000
# 6 0.0000 0.0000 0.0000 0.0000 0.0000 13.5864
#
#
#
# Elastic Compliance Matrix: (Units=1/GPa)
#
#
# Indices 1 2 3 4 5 6 
#
# 1 0.027786 -0.009016 -0.009557 0.000000 0.000000 0.000000
# 2 -0.009016 0.027786 -0.009557 0.000000 0.000000 0.000000
# 3 -0.009557 -0.009557 0.021580 0.000000 0.000000 0.000000
# 4 0.000000 0.000000 0.000000 0.061888 0.000000 0.000000
# 5 0.000000 0.000000 0.000000 0.000000 0.061888 0.000000
# 6 0.000000 0.000000 0.000000 0.000000 0.000000 0.073603
#
#
# Mechanical properties :
#
#
# Convention : Reuss Voigt Hill
#
# Bulk Modulus (GPa) = 47.86693 50.04457 48.95575
# Shear Modulus (GPa) = 14.80358 15.02929 14.91644
#
# Velocity S-wave (km/s) = 3.33849 3.36384 3.35119
# Velocity P-wave (km/s) = 7.13437 7.26397 7.19946
#
# Compressibility (1/GPa) = 0.02089125
#
# Stress axis : x y z
#
# Youngs Moduli (GPa) = 35.98949 35.98949 46.33866
#
# Poissons Ratio (x) = 0.32447 0.44287
# Poissons Ratio (y) = 0.32447 0.44287
# Poissons Ratio (z) = 0.34396 0.34396
#
# Static dielectric constant tensor:
#      x y z
#    x 2.523400 0.000000 0.000000 
#    y 0.000000 2.523400 0.000000 
#    z 0.000000 0.000000 2.817000 
# 
# 
# High freq. dielectric constant tensor:
#      x y z
#    x 1.474780 0.000000 0.000000 
#    y 0.000000 1.474780 0.000000 
#    z 0.000000 0.000000 1.506570 
# 
# From -- ./inp_files/10587.got.cif
#   From: 2010.03.12/outbox.cif.g09.slc.cpg/sg194_6_cif.got.tgz:10587.got - 2010.04.01 12:26:19.
