data_PCOD8330970
_publ_section_title
;
Structure prediction by ZEFSAII (Michael W. Deem and Ramdas Pophale) SiO2 
 PCOD8330970
Probable space group: I A 3
;
_chemical_formula_sum "Si O2"
_cell_formula_units_Z 248
_cell_length_a 21.482416
_cell_length_b 21.482416
_cell_length_c 21.482416
_cell_angle_alpha 90.000000
_cell_angle_beta 90.000000
_cell_angle_gamma 90.000000
_cell_volume 9914.010326
_symmetry_space_group_name_H-M "I A 3"
_symmetry_group_IT_number 206
_symmetry_cell_setting 'cubic'
loop_
_space_group_symop_operation_xyz
x,y,z
z,x,y
y,z,x
-y,1/2-z,x
z,-x,1/2-y
1/2-y,z,-x
-z,1/2-x,y
1/2-z,x,-y
y,-z,1/2-x
-x,1/2-y,z
x,-y,1/2-z
1/2-x,y,-z
-x,-y,-z
-z,-x,-y
-y,-z,-x
y,1/2+z,-x
-z,x,1/2+y
1/2+y,-z,x
z,1/2+x,-y
1/2+z,-x,y
-y,z,1/2+x
x,1/2+y,-z
-x,y,1/2+z
1/2+x,-y,z
1/2+x,1/2+y,1/2+z
1/2+z,1/2+x,1/2+y
1/2+y,1/2+z,1/2+x
1/2-y,-z,1/2+x
1/2+z,1/2-x,-y
-y,1/2+z,1/2-x
1/2-z,-x,1/2+y
-z,1/2+x,1/2-y
1/2+y,1/2-z,-x
1/2-x,-y,1/2+z
1/2+x,1/2-y,-z
-x,1/2+y,1/2-z
1/2-x,1/2-y,1/2-z
1/2-z,1/2-x,1/2-y
1/2-y,1/2-z,1/2-x
1/2+y,z,1/2-x
1/2-z,1/2+x,y
y,1/2-z,1/2+x
1/2+z,x,1/2-y
z,1/2-x,1/2+y
1/2-y,1/2+z,x
1/2+x,y,1/2-z
1/2-x,1/2+y,z
x,1/2-y,1/2+z
loop_
_atom_site_type_symbol
_atom_site_label
_atom_site_fract_x
_atom_site_fract_y
_atom_site_fract_z
Si Si1 0.912007 0.087995 0.587995
Si Si2 0.000000 0.250000 0.089329
Si Si3 0.465505 0.376605 0.859646
Si Si4 0.414785 0.774597 0.978748
Si Si5 0.224854 0.803408 0.853038
Si Si6 0.949882 0.652870 0.128298
Si Si7 0.825712 0.674290 0.325711
O O1 0.924080 0.118574 0.519906
O O2 0.868542 0.131459 0.631460
O O3 0.999320 0.190503 0.133990
O O4 0.060262 0.252214 0.045226
O O5 0.446159 0.386021 0.787134
O O6 0.405916 0.383496 0.904177
O O7 0.363689 0.829521 0.990719
O O8 0.467290 0.812212 0.937407
O O9 0.296087 0.783016 0.851560
O O10 0.209937 0.839346 0.915186
O O11 0.177361 0.744961 0.850905
#
# Coordination Sequence:
#
# PCOD8330970 Si02
#       7
#    16  24  48  48  48  48  16
#     4  12  21  40  70  97 130 183 241 293 337 408
#     4  10  24  46  72  98 136 178 244 290 350 430
#     4  11  24  44  70 100 138 182 236 294 353 432
#     4  11  25  46  70 100 141 186 232 303 358 431
#     4   9  18  37  57  87 130 173 220 282 350 428
#     4  11  25  42  64 102 137 184 233 287 372 430
#     4   9  19  31  63  87 124 175 229 290 343 402
#
# _framework density 25.015104999999998
#
# number of rings (size 3 to 8) (size 9 to 14) (size 15 to 20)
#    0.000    1.548    1.935    3.097    5.419    0.000 
#    6.968    0.000    0.000    2.710    0.000    0.000 
#    0.000    0.000    0.000    0.000    0.000    0.000 
#
# Total GULP energy -1536488.997596 kJ/mol
# GULP energy per Si atom -12391.040303 kJ/mol
# Density = 2.495817 g / cm^3
# Si number density = 25.015105 Si / 1000 Ang^3
#
#
#
# Elastic Constant Matrix: (Units=GPa)
#
#
# Indices 1 2 3 4 5 6 
#
# 1 65.5334 6.0171 6.0164 0.0000 0.0000 0.0000
# 2 6.0171 65.5329 6.0163 0.0000 0.0000 0.0000
# 3 6.0164 6.0163 65.5309 0.0000 0.0000 0.0000
# 4 0.0000 0.0000 0.0000 26.8152 0.0000 0.0000
# 5 0.0000 0.0000 0.0000 0.0000 26.8159 0.0000
# 6 0.0000 0.0000 0.0000 0.0000 0.0000 26.8140
#
#
#
# Elastic Compliance Matrix: (Units=1/GPa)
#
#
# Indices 1 2 3 4 5 6 
#
# 1 0.015499 -0.001303 -0.001303 0.000000 0.000000 0.000000
# 2 -0.001303 0.015499 -0.001303 0.000000 0.000000 0.000000
# 3 -0.001303 -0.001303 0.015499 0.000000 0.000000 0.000000
# 4 0.000000 0.000000 0.000000 0.037292 0.000000 0.000000
# 5 0.000000 0.000000 0.000000 0.000000 0.037291 0.000000
# 6 0.000000 0.000000 0.000000 0.000000 0.000000 0.037294
#
#
# Mechanical properties :
#
#
# Convention : Reuss Voigt Hill
#
# Bulk Modulus (GPa) = 25.85522 25.85522 25.85522
# Shear Modulus (GPa) = 27.91947 27.99220 27.95584
#
# Velocity S-wave (km/s) = 3.34444 3.34879 3.34662
# Velocity P-wave (km/s) = 5.02712 5.03099 5.02906
#
# Compressibility (1/GPa) = 0.03867691
#
# Stress axis : x y z
#
# Youngs Moduli (GPa) = 64.52151 64.52102 64.51914
#
# Poissons Ratio (x) = 0.08410 0.08409
# Poissons Ratio (y) = 0.08410 0.08409
# Poissons Ratio (z) = 0.08409 0.08409
#
# Static dielectric constant tensor:
#      x y z
#    x 4.582150 0.000000 0.000000 
#    y 0.000000 4.582130 0.000000 
#    z 0.000000 0.000000 4.582130 
# 
# 
# High freq. dielectric constant tensor:
#      x y z
#    x 1.993740 0.000000 0.000000 
#    y 0.000000 1.993740 0.000000 
#    z 0.000000 0.000000 1.993740 
# 
# From -- ./inp_files/582.got.cif
#   From: 2010.03.12/outbox.cif.g09.slc.cpg/sg206_cif.got.tgz:582.got - 2010.03.30 09:03:11.
