data_PCOD8330081
_publ_section_title
;
Structure prediction by ZEFSAII (Michael W. Deem and Ramdas Pophale) SiO2 
 PCOD8330081
Probable space group: P 63/M C M
;
_chemical_formula_sum "Si O2"
_cell_formula_units_Z 144
_cell_length_a 32.271919
_cell_length_b 32.271919
_cell_length_c 8.981488
_cell_angle_alpha 90.000000
_cell_angle_beta 90.000000
_cell_angle_gamma 120.000000
_cell_volume 8100.811141
_symmetry_space_group_name_H-M "P 63/M C M"
_symmetry_group_IT_number 193
_symmetry_cell_setting 'hexagonal'
loop_
_space_group_symop_operation_xyz
x,y,z
x-y,x,1/2+z
-y,x-y,z
-x,-y,1/2+z
-x+y,-x,z
y,-x+y,1/2+z
x-y,-y,1/2-z
-x,-x+y,1/2-z
y,x,1/2-z
-y,-x,-z
-x+y,y,-z
x,x-y,-z
-x,-y,-z
-x+y,-x,1/2-z
y,-x+y,-z
x,y,1/2-z
x-y,x,-z
-y,x-y,1/2-z
-x+y,y,1/2+z
x,x-y,1/2+z
-y,-x,1/2+z
y,x,z
x-y,-y,z
-x,-x+y,z
loop_
_atom_site_type_symbol
_atom_site_label
_atom_site_fract_x
_atom_site_fract_y
_atom_site_fract_z
Si Si1 0.945246 0.138297 0.075179
Si Si2 0.384040 0.947000 0.423133
Si Si3 0.055359 0.777619 0.422073
Si Si4 0.615764 0.902122 0.076702
Si Si5 0.383060 0.853227 0.426869
Si Si6 0.282557 0.805580 0.925929
O O1 0.937860 0.133014 0.250000
O O2 0.000000 0.157002 0.029091
O O3 0.913230 0.086771 0.000000
O O4 0.928713 0.174976 0.017800
O O5 0.372637 0.942021 0.250000
O O6 0.336109 0.938654 0.501004
O O7 0.398275 0.907697 0.472193
O O8 0.427218 0.000000 0.464909
O O9 0.065419 0.792973 0.250000
O O10 0.087081 0.754767 0.478790
O O11 0.000000 0.738862 0.448786
O O12 0.617865 0.912897 0.250000
O O13 0.576904 0.847503 0.038464
O O14 0.420353 0.840705 0.500000
O O15 0.381404 0.845999 0.250000
O O16 0.331966 0.817157 0.497389
O O17 0.285495 0.798782 0.750000
O O18 0.242385 0.757616 0.000000
#
# Coordination Sequence:
#
# PCOD8330081 Si02
#       6
#    24  24  24  24  24  24
#     4  10  21  36  54  76 100 128 163 202 247 299
#     4   9  18  31  47  70 102 139 177 215 252 290
#     4   9  17  30  48  71 102 139 176 213 250 288
#     4   9  18  31  48  72 102 137 176 214 251 291
#     4  10  20  35  54  76 102 132 167 207 253 303
#     4  10  20  35  54  76 102 132 167 207 252 301
#
# _framework density 17.775997
#
# number of rings (size 3 to 8) (size 9 to 14) (size 15 to 20)
#    0.000    2.500    0.000    2.000    0.000    5.000 
#    0.000    3.333    0.000    0.500    0.000    2.333 
#    0.000    0.000    0.000    0.000    0.000    0.000 
#
# Total GULP energy -1785773.154629 kJ/mol
# GULP energy per Si atom -12401.202463 kJ/mol
# Density = 1.773554 g / cm^3
# Si number density = 17.775997 Si / 1000 Ang^3
#
#
#
# Elastic Constant Matrix: (Units=GPa)
#
#
# Indices 1 2 3 4 5 6 
#
# 1 111.9074 76.0484 50.3350 0.0000 0.0000 0.0000
# 2 76.0484 111.9074 50.3350 0.0000 0.0000 0.0000
# 3 50.3350 50.3350 71.2543 0.0000 0.0000 0.0000
# 4 0.0000 0.0000 0.0000 29.4071 0.0000 0.0000
# 5 0.0000 0.0000 0.0000 0.0000 29.4071 0.0000
# 6 0.0000 0.0000 0.0000 0.0000 0.0000 17.9295
#
#
#
# Elastic Compliance Matrix: (Units=1/GPa)
#
#
# Indices 1 2 3 4 5 6 
#
# 1 0.018223 -0.009664 -0.006046 0.000000 0.000000 0.000000
# 2 -0.009664 0.018223 -0.006046 0.000000 0.000000 0.000000
# 3 -0.006046 -0.006046 0.022576 0.000000 0.000000 0.000000
# 4 0.000000 0.000000 0.000000 0.034005 0.000000 0.000000
# 5 0.000000 0.000000 0.000000 0.000000 0.034005 0.000000
# 6 0.000000 0.000000 0.000000 0.000000 0.000000 0.055774
#
#
# Mechanical properties :
#
#
# Convention : Reuss Voigt Hill
#
# Bulk Modulus (GPa) = 64.47605 72.05618 68.26612
# Shear Modulus (GPa) = 21.59937 23.23881 22.41909
#
# Velocity S-wave (km/s) = 3.48959 3.61960 3.55519
# Velocity P-wave (km/s) = 7.25165 7.62183 7.43905
#
# Compressibility (1/GPa) = 0.01550963
#
# Stress axis : x y z
#
# Youngs Moduli (GPa) = 54.87631 54.87631 44.29469
#
# Poissons Ratio (x) = 0.53033 0.26780
# Poissons Ratio (y) = 0.53033 0.26780
# Poissons Ratio (z) = 0.33178 0.33178
#
# Static dielectric constant tensor:
#      x y z
#    x 3.282590 0.000000 0.000000 
#    y 0.000000 3.282590 0.000000 
#    z 0.000000 0.000000 3.312340 
# 
# 
# High freq. dielectric constant tensor:
#      x y z
#    x 1.678800 0.000000 0.000000 
#    y 0.000000 1.678800 0.000000 
#    z 0.000000 0.000000 1.693680 
# 
# From -- ./inp_files/1575.got.cif
#   From: 2010.03.12/outbox.cif.g09.slc.cpg/sg193_1_cif.got.tgz:1575.got - 2010.04.01 12:20:39.
