data_PCOD8330446
_publ_section_title
;
Structure prediction by ZEFSAII (Michael W. Deem and Ramdas Pophale) SiO2 
 PCOD8330446
Probable space group: P 63/M M C
;
_chemical_formula_sum "Si O2"
_cell_formula_units_Z 60
_cell_length_a 29.768598
_cell_length_b 29.768598
_cell_length_c 7.993943
_cell_angle_alpha 90.000000
_cell_angle_beta 90.000000
_cell_angle_gamma 120.000000
_cell_volume 6134.913470
_symmetry_space_group_name_H-M "P 63/M M C"
_symmetry_group_IT_number 194
_symmetry_cell_setting 'hexagonal'
loop_
_space_group_symop_operation_xyz
x,y,z
x-y,x,1/2+z
-y,x-y,z
-x,-y,1/2+z
-x+y,-x,z
y,-x+y,1/2+z
x-y,-y,-z
-x,-x+y,-z
y,x,-z
-y,-x,1/2-z
-x+y,y,1/2-z
x,x-y,1/2-z
-x,-y,-z
-x+y,-x,1/2-z
y,-x+y,-z
x,y,1/2-z
x-y,x,-z
-y,x-y,1/2-z
-x+y,y,z
x,x-y,z
-y,-x,z
y,x,1/2+z
x-y,-y,1/2+z
-x,-x+y,1/2+z
loop_
_atom_site_type_symbol
_atom_site_label
_atom_site_fract_x
_atom_site_fract_y
_atom_site_fract_z
Si Si1 0.667425 0.439661 0.250000
Si Si2 0.472158 0.634599 0.065532
Si Si3 0.054380 0.580403 0.561183
O O1 0.614806 0.385195 0.250000
O O2 0.714215 0.428430 0.250000
O O3 0.671473 0.472543 0.416937
O O4 0.477352 0.659914 0.250000
O O5 0.418985 0.581016 0.052084
O O6 0.519593 0.622981 0.044603
O O7 0.064477 0.600207 0.750000
O O8 0.050713 0.525357 0.543200
O O9 0.000000 0.574751 0.500000
#
# Coordination Sequence:
#
# PCOD8330446 Si02
#       3
#    12  24  24
#     4  10  19  30  40  48  58  74  98 124 147 164
#     4   9  16  26  37  48  62  76  90 112 137 161
#     4   9  14  20  31  48  66  80  91 102 122 157
#
# _framework density 9.7800890000000003
#
# number of rings (size 3 to 8) (size 9 to 14) (size 15 to 20)
#    0.000    2.800    2.000    1.400    0.000    5.600 
#    0.000    0.000    0.000    2.400    0.000    0.000 
#    0.000    0.000    0.000    0.000    0.000    0.000 
#
# Total GULP energy -743371.112445 kJ/mol
# GULP energy per Si atom -12389.518541 kJ/mol
# Density = 0.975783 g / cm^3
# Si number density = 9.780089 Si / 1000 Ang^3
#
#
#
# Elastic Constant Matrix: (Units=GPa)
#
#
# Indices 1 2 3 4 5 6 
#
# 1 18.7479 14.3329 21.7095 0.0000 0.0000 0.0000
# 2 14.3329 18.7479 21.7095 0.0000 0.0000 0.0000
# 3 21.7095 21.7095 78.9566 0.0000 0.0000 0.0000
# 4 0.0000 0.0000 0.0000 9.3727 0.0000 0.0000
# 5 0.0000 0.0000 0.0000 0.0000 9.3727 0.0000
# 6 0.0000 0.0000 0.0000 0.0000 0.0000 2.2075
#
#
#
# Elastic Compliance Matrix: (Units=1/GPa)
#
#
# Indices 1 2 3 4 5 6 
#
# 1 0.136902 -0.089604 -0.013005 0.000000 0.000000 0.000000
# 2 -0.089604 0.136902 -0.013005 0.000000 0.000000 0.000000
# 3 -0.013005 -0.013005 0.019817 0.000000 0.000000 0.000000
# 4 0.000000 0.000000 0.000000 0.106693 0.000000 0.000000
# 5 0.000000 0.000000 0.000000 0.000000 0.106693 0.000000
# 6 0.000000 0.000000 0.000000 0.000000 0.000000 0.453010
#
#
# Mechanical properties :
#
#
# Convention : Reuss Voigt Hill
#
# Bulk Modulus (GPa) = 16.02733 25.77292 20.90012
# Shear Modulus (GPa) = 4.12527 8.10392 6.11460
#
# Velocity S-wave (km/s) = 2.05601 2.88169 2.50313
# Velocity P-wave (km/s) = 4.69676 6.12224 5.45625
#
# Compressibility (1/GPa) = 0.06239344
#
# Stress axis : x y z
#
# Youngs Moduli (GPa) = 7.30451 7.30451 50.46251
#
# Poissons Ratio (x) = 0.65451 0.65626
# Poissons Ratio (y) = 0.65451 0.65626
# Poissons Ratio (z) = 0.09499 0.09499
#
# Static dielectric constant tensor:
#      x y z
#    x 1.963140 0.000000 0.000000 
#    y 0.000000 1.963140 0.000000 
#    z 0.000000 0.000000 2.454030 
# 
# 
# High freq. dielectric constant tensor:
#      x y z
#    x 1.323500 0.000000 0.000000 
#    y 0.000000 1.323500 0.000000 
#    z 0.000000 0.000000 1.391200 
# 
# From -- ./inp_files/1041.got.cif
#   From: 2010.03.12/outbox.cif.g09.slc.cpg/sg194_1_cif.got.tgz:1041.got - 2010.04.01 12:26:19.
