data_PCOD8330063
_publ_section_title
;
Structure prediction by ZEFSAII (Michael W. Deem and Ramdas Pophale) SiO2 
 PCOD8330063
Probable space group: P 63/M C M
;
_chemical_formula_sum "Si O2"
_cell_formula_units_Z 144
_cell_length_a 31.024734
_cell_length_b 31.024734
_cell_length_c 8.850040
_cell_angle_alpha 90.000000
_cell_angle_beta 90.000000
_cell_angle_gamma 120.000000
_cell_volume 7377.207491
_symmetry_space_group_name_H-M "P 63/M C M"
_symmetry_group_IT_number 193
_symmetry_cell_setting 'hexagonal'
loop_
_space_group_symop_operation_xyz
x,y,z
x-y,x,1/2+z
-y,x-y,z
-x,-y,1/2+z
-x+y,-x,z
y,-x+y,1/2+z
x-y,-y,1/2-z
-x,-x+y,1/2-z
y,x,1/2-z
-y,-x,-z
-x+y,y,-z
x,x-y,-z
-x,-y,-z
-x+y,-x,1/2-z
y,-x+y,-z
x,y,1/2-z
x-y,x,-z
-y,x-y,1/2-z
-x+y,y,1/2+z
x,x-y,1/2+z
-y,-x,1/2+z
y,x,z
x-y,-y,z
-x,-x+y,z
loop_
_atom_site_type_symbol
_atom_site_label
_atom_site_fract_x
_atom_site_fract_y
_atom_site_fract_z
Si Si1 0.942740 0.234785 0.926798
Si Si2 0.667411 0.425138 0.925263
Si Si3 0.427297 0.944095 0.572571
Si Si4 0.325292 0.853450 0.575272
Si Si5 0.145301 0.763360 0.571629
Si Si6 0.057070 0.855978 0.574078
O O1 0.931053 0.228582 0.750000
O O2 0.000000 0.275173 0.959800
O O3 0.909624 0.254255 0.008222
O O4 0.929008 0.181571 0.993663
O O5 0.669318 0.414146 0.750000
O O6 0.658200 0.470971 0.951798
O O7 0.623426 0.376574 0.000000
O O8 0.719486 0.438971 0.000000
O O9 0.463551 0.927102 0.500000
O O10 0.432591 0.940947 0.750000
O O11 0.370846 0.906656 0.522202
O O12 0.442451 0.000000 0.520887
O O13 0.311251 0.854653 0.750000
O O14 0.277714 0.839998 0.473250
O O15 0.183801 0.816200 0.500000
O O16 0.146470 0.769121 0.750000
O O17 0.089899 0.910102 0.500000
O O18 0.069128 0.857263 0.750000
O O19 0.000000 0.840136 0.545383
#
# Coordination Sequence:
#
# PCOD8330063 Si02
#       6
#    24  24  24  24  24  24
#     4  10  21  38  60  84 112 147 186 230 279 330
#     4  11  23  39  60  84 112 143 180 227 278 335
#     4   9  18  34  57  84 114 147 184 228 277 329
#     4  10  22  39  58  83 114 149 189 230 276 330
#     4  12  25  40  59  82 113 151 190 232 277 330
#     4  10  20  34  54  81 112 145 184 231 280 332
#
# _framework density 19.519580999999999
#
# number of rings (size 3 to 8) (size 9 to 14) (size 15 to 20)
#    0.000    1.667    0.000    4.667    0.000    6.000 
#    0.000    1.667    0.000    0.167    0.000    0.000 
#    0.000    0.000    0.000    0.000    0.000    0.000 
#
# Total GULP energy -1786438.483657 kJ/mol
# GULP energy per Si atom -12405.822803 kJ/mol
# Density = 1.947515 g / cm^3
# Si number density = 19.519581 Si / 1000 Ang^3
#
#
#
# Elastic Constant Matrix: (Units=GPa)
#
#
# Indices 1 2 3 4 5 6 
#
# 1 95.0139 35.4329 47.6822 0.0000 0.0000 0.0000
# 2 35.4329 95.0139 47.6822 0.0000 0.0000 0.0000
# 3 47.6822 47.6822 117.1803 0.0000 0.0000 0.0000
# 4 0.0000 0.0000 0.0000 33.4970 0.0000 0.0000
# 5 0.0000 0.0000 0.0000 0.0000 33.4970 0.0000
# 6 0.0000 0.0000 0.0000 0.0000 0.0000 29.7905
#
#
#
# Elastic Compliance Matrix: (Units=1/GPa)
#
#
# Indices 1 2 3 4 5 6 
#
# 1 0.013848 -0.002936 -0.004440 0.000000 0.000000 0.000000
# 2 -0.002936 0.013848 -0.004440 0.000000 0.000000 0.000000
# 3 -0.004440 -0.004440 0.012147 0.000000 0.000000 0.000000
# 4 0.000000 0.000000 0.000000 0.029853 0.000000 0.000000
# 5 0.000000 0.000000 0.000000 0.000000 0.029853 0.000000
# 6 0.000000 0.000000 0.000000 0.000000 0.000000 0.033568
#
#
# Mechanical properties :
#
#
# Convention : Reuss Voigt Hill
#
# Bulk Modulus (GPa) = 61.68830 63.20030 62.44430
# Shear Modulus (GPa) = 30.83484 31.11764 30.97624
#
# Velocity S-wave (km/s) = 3.97884 3.99704 3.98795
# Velocity P-wave (km/s) = 7.26499 7.33144 7.29829
#
# Compressibility (1/GPa) = 0.01621053
#
# Stress axis : x y z
#
# Youngs Moduli (GPa) = 72.21284 72.21284 82.32186
#
# Poissons Ratio (x) = 0.21201 0.36553
# Poissons Ratio (y) = 0.21201 0.36553
# Poissons Ratio (z) = 0.32064 0.32064
#
# Static dielectric constant tensor:
#      x y z
#    x 3.608770 0.000000 0.000000 
#    y 0.000000 3.608770 0.000000 
#    z 0.000000 0.000000 3.625490 
# 
# 
# High freq. dielectric constant tensor:
#      x y z
#    x 1.763030 0.000000 0.000000 
#    y 0.000000 1.763030 0.000000 
#    z 0.000000 0.000000 1.767610 
# 
# From -- ./inp_files/1541.got.cif
#   From: 2010.03.12/outbox.cif.g09.slc.cpg/sg193_1_cif.got.tgz:1541.got - 2010.04.01 12:20:39.
