data_PCOD8330804
_publ_section_title
;
Structure prediction by ZEFSAII (Michael W. Deem and Ramdas Pophale) SiO2 
 PCOD8330804
Probable space group: P 63/M M C
;
_chemical_formula_sum "Si O2"
_cell_formula_units_Z 60
_cell_length_a 15.686043
_cell_length_b 15.686043
_cell_length_c 14.562582
_cell_angle_alpha 90.000000
_cell_angle_beta 90.000000
_cell_angle_gamma 120.000000
_cell_volume 3103.100333
_symmetry_space_group_name_H-M "P 63/M M C"
_symmetry_group_IT_number 194
_symmetry_cell_setting 'hexagonal'
loop_
_space_group_symop_operation_xyz
x,y,z
x-y,x,1/2+z
-y,x-y,z
-x,-y,1/2+z
-x+y,-x,z
y,-x+y,1/2+z
x-y,-y,-z
-x,-x+y,-z
y,x,-z
-y,-x,1/2-z
-x+y,y,1/2-z
x,x-y,1/2-z
-x,-y,-z
-x+y,-x,1/2-z
y,-x+y,-z
x,y,1/2-z
x-y,x,-z
-y,x-y,1/2-z
-x+y,y,z
x,x-y,z
-y,-x,z
y,x,1/2+z
x-y,-y,1/2+z
-x,-x+y,1/2+z
loop_
_atom_site_type_symbol
_atom_site_label
_atom_site_fract_x
_atom_site_fract_y
_atom_site_fract_z
Si Si1 0.914421 0.636093 0.643775
Si Si2 0.802728 0.000000 0.500000
Si Si3 0.605375 0.210750 0.141835
Si Si4 0.496295 0.992589 0.358878
O O1 0.944479 0.660639 0.750000
O O2 0.799008 0.598016 0.628567
O O3 0.981861 0.735763 0.588976
O O4 0.934348 0.550589 0.607016
O O5 0.907867 0.092134 0.476419
O O6 0.722616 0.277385 0.115165
O O7 0.596894 0.193788 0.250000
O O8 0.551377 0.102753 0.095828
O O9 0.499145 0.998290 0.250000
#
# Coordination Sequence:
#
# PCOD8330804 Si02
#       4
#    24  12  12  12
#     4   9  19  35  53  78 108 138 181 226 266 323
#     4  10  21  37  56  78 106 140 178 225 277 326
#     4   7  12  22  37  63  97 126 159 202 248 313
#     4   9  16  29  51  75 104 143 175 214 271 316
#
# _framework density 19.335501000000001
#
# number of rings (size 3 to 8) (size 9 to 14) (size 15 to 20)
#    0.400    2.800    0.000    0.200    0.000    3.200 
#    1.200    4.000    0.000    2.400    0.000    0.000 
#    0.000    0.000    0.000    0.000    0.000    0.000 
#
# Total GULP energy -743483.672787 kJ/mol
# GULP energy per Si atom -12391.394546 kJ/mol
# Density = 1.929149 g / cm^3
# Si number density = 19.335501 Si / 1000 Ang^3
#
#
#
# Elastic Constant Matrix: (Units=GPa)
#
#
# Indices 1 2 3 4 5 6 
#
# 1 151.8767 126.3703 39.8713 0.0000 0.0000 0.0000
# 2 126.3703 151.8767 39.8713 0.0000 0.0000 0.0000
# 3 39.8713 39.8713 49.3946 0.0000 0.0000 0.0000
# 4 0.0000 0.0000 0.0000 16.1910 0.0000 0.0000
# 5 0.0000 0.0000 0.0000 0.0000 16.1910 0.0000
# 6 0.0000 0.0000 0.0000 0.0000 0.0000 12.7532
#
#
#
# Elastic Compliance Matrix: (Units=1/GPa)
#
#
# Indices 1 2 3 4 5 6 
#
# 1 0.021941 -0.017265 -0.003774 0.000000 0.000000 0.000000
# 2 -0.017265 0.021941 -0.003774 0.000000 0.000000 0.000000
# 3 -0.003774 -0.003774 0.026338 0.000000 0.000000 0.000000
# 4 0.000000 0.000000 0.000000 0.061763 0.000000 0.000000
# 5 0.000000 0.000000 0.000000 0.000000 0.061763 0.000000
# 6 0.000000 0.000000 0.000000 0.000000 0.000000 0.078412
#
#
# Mechanical properties :
#
#
# Convention : Reuss Voigt Hill
#
# Bulk Modulus (GPa) = 48.56084 85.04153 66.80118
# Shear Modulus (GPa) = 15.21390 18.82941 17.02165
#
# Velocity S-wave (km/s) = 2.80811 3.12400 2.97026
# Velocity P-wave (km/s) = 5.97355 7.55580 6.81078
#
# Compressibility (1/GPa) = 0.02059273
#
# Stress axis : x y z
#
# Youngs Moduli (GPa) = 45.57750 45.57750 37.96793
#
# Poissons Ratio (x) = 0.78690 0.14329
# Poissons Ratio (y) = 0.78690 0.14329
# Poissons Ratio (z) = 0.17201 0.17201
#
# Static dielectric constant tensor:
#      x y z
#    x 3.756110 0.000000 0.000000 
#    y 0.000000 3.756110 0.000000 
#    z 0.000000 0.000000 3.220320 
# 
# 
# High freq. dielectric constant tensor:
#      x y z
#    x 1.752350 0.000000 0.000000 
#    y 0.000000 1.752350 0.000000 
#    z 0.000000 0.000000 1.733280 
# 
# From -- ./inp_files/3956.got.cif
#   From: 2010.03.12/outbox.cif.g09.slc.cpg/sg194_2_cif.got.tgz:3956.got - 2010.04.01 12:26:19.
