data_PCOD8330761
_publ_section_title
;
Structure prediction by ZEFSAII (Michael W. Deem and Ramdas Pophale) SiO2 
 PCOD8330761
Probable space group: P 63/M M C
;
_chemical_formula_sum "Si O2"
_cell_formula_units_Z 192
_cell_length_a 25.122841
_cell_length_b 25.122841
_cell_length_c 19.216138
_cell_angle_alpha 90.000000
_cell_angle_beta 90.000000
_cell_angle_gamma 120.000000
_cell_volume 10503.504846
_symmetry_space_group_name_H-M "P 63/M M C"
_symmetry_group_IT_number 194
_symmetry_cell_setting 'hexagonal'
loop_
_space_group_symop_operation_xyz
x,y,z
x-y,x,1/2+z
-y,x-y,z
-x,-y,1/2+z
-x+y,-x,z
y,-x+y,1/2+z
x-y,-y,-z
-x,-x+y,-z
y,x,-z
-y,-x,1/2-z
-x+y,y,1/2-z
x,x-y,1/2-z
-x,-y,-z
-x+y,-x,1/2-z
y,-x+y,-z
x,y,1/2-z
x-y,x,-z
-y,x-y,1/2-z
-x+y,y,z
x,x-y,z
-y,-x,z
y,x,1/2+z
x-y,-y,1/2+z
-x,-x+y,1/2+z
loop_
_atom_site_type_symbol
_atom_site_label
_atom_site_fract_x
_atom_site_fract_y
_atom_site_fract_z
Si Si1 0.290670 0.829574 0.541599
Si Si2 0.778230 0.100778 0.479085
Si Si3 0.996535 0.592712 0.831630
Si Si4 0.505918 0.133700 0.171847
Si Si5 0.172012 0.945497 0.175130
Si Si6 0.118934 0.118307 0.419203
Si Si7 0.986607 0.701330 0.605013
Si Si8 0.936032 0.529181 0.536242
O O1 0.242356 0.757645 0.517469
O O2 0.249278 0.860124 0.554053
O O3 0.319481 0.827721 0.615845
O O4 0.345175 0.873292 0.487351
O O5 0.852706 0.147295 0.489547
O O6 0.741551 0.069771 0.550328
O O7 0.762646 0.045381 0.425864
O O8 0.976260 0.583574 0.750000
O O9 0.006884 0.655294 0.865606
O O10 0.944424 0.538499 0.879697
O O11 0.060586 0.594207 0.841417
O O12 0.492255 0.148470 0.250000
O O13 0.577002 0.154003 0.164167
O O14 0.157675 0.963545 0.250000
O O15 0.126007 0.873994 0.158997
O O16 0.167949 0.988068 0.116907
O O17 0.241224 0.959429 0.171904
O O18 0.130456 0.130456 0.500000
O O19 0.049918 0.099836 0.398651
O O20 0.130142 0.065071 0.392050
O O21 0.926349 0.463175 0.514936
O O22 0.000000 0.583089 0.500000
#
# Coordination Sequence:
#
# PCOD8330761 Si02
#       8
#    24  24  24  24  24  24  24  24
#     4  11  21  36  56  84 120 157 196 236 283 340
#     4  10  21  34  53  78 104 139 186 231 275 330
#     4  11  21  34  55  86 119 150 187 237 296 352
#     4  10  20  35  57  87 122 158 196 238 287 341
#     4  10  22  37  51  71  99 134 174 214 264 330
#     4   9  18  33  53  74  94 119 158 211 269 324
#     4  11  20  36  55  73 108 145 181 226 280 339
#     4  11  20  35  61  90 119 153 196 246 301 348
#
# _framework density 18.279613000000001
#
# number of rings (size 3 to 8) (size 9 to 14) (size 15 to 20)
#    0.000    1.625    3.750    1.625    1.750    2.250 
#    0.000    0.000    0.000    5.000    0.000    0.000 
#    0.000    0.000    0.000    0.000    0.000    0.000 
#
# Total GULP energy -2378675.258846 kJ/mol
# GULP energy per Si atom -12388.933640 kJ/mol
# Density = 1.823801 g / cm^3
# Si number density = 18.279613 Si / 1000 Ang^3
#
#
#
# Elastic Constant Matrix: (Units=GPa)
#
#
# Indices 1 2 3 4 5 6 
#
# 1 72.4022 40.1502 31.9984 0.0000 0.0000 0.0000
# 2 40.1502 72.4022 31.9984 0.0000 0.0000 0.0000
# 3 31.9984 31.9984 76.5121 0.0000 0.0000 0.0000
# 4 0.0000 0.0000 0.0000 -6.9868 0.0000 0.0000
# 5 0.0000 0.0000 0.0000 0.0000 -6.9868 0.0000
# 6 0.0000 0.0000 0.0000 0.0000 0.0000 16.1260
#
#
#
# Elastic Compliance Matrix: (Units=1/GPa)
#
#
# Indices 1 2 3 4 5 6 
#
# 1 0.021331 -0.009675 -0.004875 0.000000 0.000000 0.000000
# 2 -0.009675 0.021331 -0.004875 0.000000 0.000000 0.000000
# 3 -0.004875 -0.004875 0.017147 0.000000 0.000000 0.000000
# 4 0.000000 0.000000 0.000000 -0.143126 0.000000 0.000000
# 5 0.000000 0.000000 0.000000 0.000000 -0.143126 0.000000
# 6 0.000000 0.000000 0.000000 0.000000 0.000000 0.062012
#
#
# Mechanical properties :
#
#
# Convention : Reuss Voigt Hill
#
# Bulk Modulus (GPa) = 47.70809 47.73447 47.72128
# Shear Modulus (GPa) = -42.16018 8.24177 -16.95920
#
# Velocity S-wave (km/s) = -4.80771 2.12568 -3.04923
# Velocity P-wave (km/s) = 2.15942 5.67405 3.71024
#
# Compressibility (1/GPa) = 0.02096081
#
# Stress axis : x y z
#
# Youngs Moduli (GPa) = 46.87964 46.87964 58.31801
#
# Poissons Ratio (x) = 0.45354 0.28430
# Poissons Ratio (y) = 0.45354 0.28430
# Poissons Ratio (z) = 0.22854 0.22854
#
# Static dielectric constant tensor:
#      x y z
#    x 3.394090 0.000000 0.000000 
#    y 0.000000 3.394090 0.000000 
#    z 0.000000 0.000000 3.547340 
# 
# 
# High freq. dielectric constant tensor:
#      x y z
#    x 1.697500 0.000000 0.000000 
#    y 0.000000 1.697500 0.000000 
#    z 0.000000 0.000000 1.706930 
# 
# From -- ./inp_files/8711.got.cif
#   From: 2010.03.12/outbox.cif.g09.slc.cpg/sg194_5_cif.got.tgz:8711.got - 2010.04.01 12:26:19.
