data_PCOD8330427
_publ_section_title
;
Structure prediction by ZEFSAII (Michael W. Deem and Ramdas Pophale) SiO2 
 PCOD8330427
Probable space group: P 63/M M C
;
_chemical_formula_sum "Si O2"
_cell_formula_units_Z 144
_cell_length_a 20.154620
_cell_length_b 20.154620
_cell_length_c 26.975513
_cell_angle_alpha 90.000000
_cell_angle_beta 90.000000
_cell_angle_gamma 120.000000
_cell_volume 9489.636405
_symmetry_space_group_name_H-M "P 63/M M C"
_symmetry_group_IT_number 194
_symmetry_cell_setting 'hexagonal'
loop_
_space_group_symop_operation_xyz
x,y,z
x-y,x,1/2+z
-y,x-y,z
-x,-y,1/2+z
-x+y,-x,z
y,-x+y,1/2+z
x-y,-y,-z
-x,-x+y,-z
y,x,-z
-y,-x,1/2-z
-x+y,y,1/2-z
x,x-y,1/2-z
-x,-y,-z
-x+y,-x,1/2-z
y,-x+y,-z
x,y,1/2-z
x-y,x,-z
-y,x-y,1/2-z
-x+y,y,z
x,x-y,z
-y,-x,z
y,x,1/2+z
x-y,-y,1/2+z
-x,-x+y,1/2+z
loop_
_atom_site_type_symbol
_atom_site_label
_atom_site_fract_x
_atom_site_fract_y
_atom_site_fract_z
Si Si1 0.212205 0.280995 0.193419
Si Si2 0.662633 0.906642 0.809000
Si Si3 0.450569 0.401120 0.152162
Si Si4 0.660778 0.112402 0.694376
Si Si5 0.027195 0.436209 0.448200
Si Si6 0.516511 0.183431 0.904104
O O1 0.197370 0.253619 0.250000
O O2 0.127644 0.255287 0.169110
O O3 0.262728 0.246488 0.169081
O O4 0.260694 0.372145 0.189880
O O5 0.662606 0.911927 0.750000
O O6 0.667942 0.833971 0.827719
O O7 0.581747 0.896875 0.827638
O O8 0.543089 0.456912 0.158781
O O9 0.411216 0.440976 0.182146
O O10 0.428857 0.392600 0.093973
O O11 0.650857 0.135836 0.750000
O O12 0.663608 0.174055 0.655597
O O13 0.041059 0.520530 0.456339
O O14 0.108441 0.446942 0.430243
O O15 0.000000 0.389353 0.500000
O O16 0.598941 0.197882 0.920978
O O17 0.508469 0.254235 0.922157
#
# Coordination Sequence:
#
# PCOD8330427 Si02
#       6
#    24  24  24  24  24  24
#     4   8  13  22  37  54  71  96 131 165 194 227
#     4   9  17  27  38  56  84 112 135 164 204 247
#     4   9  16  26  43  63  79 101 135 172 208 245
#     4   9  16  25  38  58  82 106 135 167 190 212
#     4   8  15  29  46  60  73  92 125 170 211 242
#     4  10  19  28  38  54  79 108 132 154 185 230
#
# _framework density 15.174448
#
# number of rings (size 3 to 8) (size 9 to 14) (size 15 to 20)
#    0.000    3.167    0.000    3.667    0.000    3.333 
#    0.000    0.833    0.000    1.667    0.000    2.333 
#    0.000    0.000    0.000    0.000    0.000    0.833 
#
# Total GULP energy -1783892.143857 kJ/mol
# GULP energy per Si atom -12388.139888 kJ/mol
# Density = 1.513991 g / cm^3
# Si number density = 15.174448 Si / 1000 Ang^3
#
#
#
# Elastic Constant Matrix: (Units=GPa)
#
#
# Indices 1 2 3 4 5 6 
#
# 1 78.0916 42.6500 18.3703 0.0000 0.0000 0.0000
# 2 42.6500 78.0916 18.3703 0.0000 0.0000 0.0000
# 3 18.3703 18.3703 61.8110 0.0000 0.0000 0.0000
# 4 0.0000 0.0000 0.0000 8.8610 0.0000 0.0000
# 5 0.0000 0.0000 0.0000 0.0000 8.8610 0.0000
# 6 0.0000 0.0000 0.0000 0.0000 0.0000 17.7208
#
#
#
# Elastic Compliance Matrix: (Units=1/GPa)
#
#
# Indices 1 2 3 4 5 6 
#
# 1 0.018661 -0.009555 -0.002706 0.000000 0.000000 0.000000
# 2 -0.009555 0.018661 -0.002706 0.000000 0.000000 0.000000
# 3 -0.002706 -0.002706 0.017787 0.000000 0.000000 0.000000
# 4 0.000000 0.000000 0.000000 0.112855 0.000000 0.000000
# 5 0.000000 0.000000 0.000000 0.000000 0.112855 0.000000
# 6 0.000000 0.000000 0.000000 0.000000 0.000000 0.056431
#
#
# Mechanical properties :
#
#
# Convention : Reuss Voigt Hill
#
# Bulk Modulus (GPa) = 39.72457 41.86397 40.79427
# Shear Modulus (GPa) = 13.31296 16.32878 14.82087
#
# Velocity S-wave (km/s) = 2.96519 3.28391 3.12861
# Velocity P-wave (km/s) = 6.16105 6.48283 6.32399
#
# Compressibility (1/GPa) = 0.02517334
#
# Stress axis : x y z
#
# Youngs Moduli (GPa) = 53.58904 53.58904 56.22111
#
# Poissons Ratio (x) = 0.51204 0.15215
# Poissons Ratio (y) = 0.51204 0.15215
# Poissons Ratio (z) = 0.14502 0.14502
#
# Static dielectric constant tensor:
#      x y z
#    x 2.895840 0.000000 0.000000 
#    y 0.000000 2.895840 0.000000 
#    z 0.000000 0.000000 2.922790 
# 
# 
# High freq. dielectric constant tensor:
#      x y z
#    x 1.558760 0.000000 0.000000 
#    y 0.000000 1.558760 0.000000 
#    z 0.000000 0.000000 1.553060 
# 
# From -- ./inp_files/10960.got.cif
#   From: 2010.03.12/outbox.cif.g09.slc.cpg/sg194_6_cif.got.tgz:10960.got - 2010.04.01 12:26:19.
