data_PCOD8330999
_publ_section_title
;
Structure prediction by ZEFSAII (Michael W. Deem and Ramdas Pophale) SiO2 
 PCOD8330999
Probable space group: P 43 3 2
;
_chemical_formula_sum "Si O2"
_cell_formula_units_Z 148
_cell_length_a 19.863892
_cell_length_b 19.863892
_cell_length_c 19.863892
_cell_angle_alpha 90.000000
_cell_angle_beta 90.000000
_cell_angle_gamma 90.000000
_cell_volume 7837.779402
_symmetry_space_group_name_H-M "P 43 3 2"
_symmetry_group_IT_number 212
_symmetry_cell_setting 'cubic'
loop_
_space_group_symop_operation_xyz
x,y,z
3/4-y,1/4+x,3/4+z
1/2-x,-y,1/2+z
3/4+y,3/4-x,1/4+z
3/4+x,3/4-z,1/4+y
1/2+x,1/2-y,-z
1/4+x,3/4+z,3/4-y
1/4+z,3/4+y,3/4-x
-x,1/2+y,1/2-z
3/4-z,1/4+y,3/4+x
z,x,y
y,z,x
1/2-y,-z,1/2+x
1/2+z,1/2-x,-y
-y,1/2+z,1/2-x
1/2-z,-x,1/2+y
-z,1/2+x,1/2-y
1/2+y,1/2-z,-x
1/4+y,3/4+x,3/4-z
1/4-y,1/4-x,1/4-z
3/4-x,1/4+z,3/4+y
1/4-x,1/4-z,1/4-y
3/4+z,3/4-y,1/4+x
1/4-z,1/4-y,1/4-x
loop_
_atom_site_type_symbol
_atom_site_label
_atom_site_fract_x
_atom_site_fract_y
_atom_site_fract_z
Si Si1 0.516095 0.284771 0.193902
Si Si2 0.814904 0.685983 0.507137
Si Si3 0.995558 0.495557 0.004444
Si Si4 0.626474 0.875000 0.876474
Si Si5 0.149766 0.256620 0.541160
Si Si6 0.317853 0.952006 0.249609
Si Si7 0.161212 0.338789 0.661212
Si Si8 0.409823 0.592059 0.584202
O O1 0.477003 0.343282 0.234491
O O2 0.502017 0.215868 0.233405
O O3 0.494904 0.267259 0.117345
O O4 0.593048 0.308449 0.195006
O O5 0.875000 0.709441 0.459441
O O6 0.776873 0.625000 0.473128
O O7 0.759663 0.744073 0.517638
O O8 0.847544 0.663853 0.577893
O O9 0.969617 0.533969 0.070570
O O10 0.042046 0.542045 0.957956
O O11 0.703528 0.898617 0.868581
O O12 0.582273 0.938155 0.850540
O O13 0.168155 0.323356 0.581905
O O14 0.322851 0.909778 0.318268
#
# Coordination Sequence:
#
# PCOD8330999 Si02
#       8
#    24  24   8  12  24  24   8  24
#     4  11  20  35  59  85 117 161 204 234 289 374
#     4  12  25  41  63  88 123 159 201 249 307 370
#     4  12  21  30  58 100 126 159 180 237 327 397
#     4  10  16  32  54  84 116 146 188 230 294 368
#     4  11  21  31  53  88 121 157 195 241 293 360
#     4  11  21  37  60  87 117 158 199 244 303 367
#     4  12  21  30  51  88 136 150 189 252 304 346
#     4  12  21  37  61  90 127 157 189 243 307 377
#
# _framework density 18.882899999999999
#
# number of rings (size 3 to 8) (size 9 to 14) (size 15 to 20)
#    0.000    0.649    8.919    3.081    0.000    0.649 
#    0.000    0.000    0.000    5.838    0.000    0.000 
#    0.000    0.000    0.000    0.000    0.000    0.000 
#
# Total GULP energy -1834447.741084 kJ/mol
# GULP energy per Si atom -12394.917169 kJ/mol
# Density = 1.883992 g / cm^3
# Si number density = 18.882900 Si / 1000 Ang^3
#
#
#
# Elastic Constant Matrix: (Units=GPa)
#
#
# Indices 1 2 3 4 5 6 
#
# 1 79.5918 36.4226 36.4213 0.0000 0.0000 0.0000
# 2 36.4226 79.5918 36.4213 0.0000 0.0000 0.0000
# 3 36.4213 36.4213 79.5924 0.0000 0.0000 0.0000
# 4 0.0000 0.0000 0.0000 26.7901 0.0000 0.0000
# 5 0.0000 0.0000 0.0000 0.0000 26.7901 0.0000
# 6 0.0000 0.0000 0.0000 0.0000 0.0000 26.7905
#
#
#
# Elastic Compliance Matrix: (Units=1/GPa)
#
#
# Indices 1 2 3 4 5 6 
#
# 1 0.017630 -0.005535 -0.005534 0.000000 0.000000 0.000000
# 2 -0.005535 0.017630 -0.005534 0.000000 0.000000 0.000000
# 3 -0.005534 -0.005534 0.017629 0.000000 0.000000 0.000000
# 4 0.000000 0.000000 0.000000 0.037327 0.000000 0.000000
# 5 0.000000 0.000000 0.000000 0.000000 0.037327 0.000000
# 6 0.000000 0.000000 0.000000 0.000000 0.000000 0.037327
#
#
# Mechanical properties :
#
#
# Convention : Reuss Voigt Hill
#
# Bulk Modulus (GPa) = 50.81179 50.81179 50.81179
# Shear Modulus (GPa) = 24.43345 24.70820 24.57083
#
# Velocity S-wave (km/s) = 3.60105 3.62124 3.61116
# Velocity P-wave (km/s) = 6.65262 6.66722 6.65992
#
# Compressibility (1/GPa) = 0.01968047
#
# Stress axis : x y z
#
# Youngs Moduli (GPa) = 56.72272 56.72272 56.72433
#
# Poissons Ratio (x) = 0.31396 0.31394
# Poissons Ratio (y) = 0.31396 0.31394
# Poissons Ratio (z) = 0.31393 0.31393
#
# Static dielectric constant tensor:
#      x y z
#    x 3.423830 0.000000 0.000000 
#    y 0.000000 3.423830 0.000000 
#    z 0.000000 0.000000 3.423830 
# 
# 
# High freq. dielectric constant tensor:
#      x y z
#    x 1.718700 0.000000 0.000000 
#    y 0.000000 1.718700 0.000000 
#    z 0.000000 0.000000 1.718700 
# 
# From -- ./inp_files/664.got.cif
#   From: 2010.03.12/outbox.cif.g09.slc.cpg/sg212_cif.got.tgz:664.got - 2010.03.30 09:05:11.
