data_PCOD8330772
_publ_section_title
;
Structure prediction by ZEFSAII (Michael W. Deem and Ramdas Pophale) SiO2 
 PCOD8330772
Probable space group: P 63/M M C
;
_chemical_formula_sum "Si O2"
_cell_formula_units_Z 144
_cell_length_a 31.107748
_cell_length_b 31.107748
_cell_length_c 8.791897
_cell_angle_alpha 90.000000
_cell_angle_beta 90.000000
_cell_angle_gamma 120.000000
_cell_volume 7368.012729
_symmetry_space_group_name_H-M "P 63/M M C"
_symmetry_group_IT_number 194
_symmetry_cell_setting 'hexagonal'
loop_
_space_group_symop_operation_xyz
x,y,z
x-y,x,1/2+z
-y,x-y,z
-x,-y,1/2+z
-x+y,-x,z
y,-x+y,1/2+z
x-y,-y,-z
-x,-x+y,-z
y,x,-z
-y,-x,1/2-z
-x+y,y,1/2-z
x,x-y,1/2-z
-x,-y,-z
-x+y,-x,1/2-z
y,-x+y,-z
x,y,1/2-z
x-y,x,-z
-y,x-y,1/2-z
-x+y,y,z
x,x-y,z
-y,-x,z
y,x,1/2+z
x-y,-y,1/2+z
-x,-x+y,1/2+z
loop_
_atom_site_type_symbol
_atom_site_label
_atom_site_fract_x
_atom_site_fract_y
_atom_site_fract_z
Si Si1 0.523438 0.947538 0.428158
Si Si2 0.666711 0.431897 0.574801
Si Si3 0.521344 0.667035 0.570821
Si Si4 0.852385 0.801471 0.070367
Si Si5 0.612048 0.855544 0.427374
Si Si6 0.948763 0.245520 0.070355
O O1 0.533913 0.948996 0.250000
O O2 0.467396 0.934792 0.461187
O O3 0.532670 0.906856 0.506385
O O4 0.562352 0.000000 0.500000
O O5 0.668409 0.447877 0.750000
O O6 0.718812 0.437623 0.523993
O O7 0.624900 0.375101 0.550195
O O8 0.653639 0.465872 0.470584
O O9 0.528513 0.669944 0.750000
O O10 0.558420 0.719908 0.496752
O O11 0.853337 0.806419 0.250000
O O12 0.903828 0.807655 0.008171
O O13 0.808163 0.747792 0.017927
O O14 0.844960 0.844960 0.000000
O O15 0.611670 0.866094 0.250000
O O16 0.625008 0.812504 0.458470
O O17 0.652051 0.905032 0.509440
O O18 0.951449 0.251007 0.250000
O O19 0.000000 0.288387 0.000000
#
# Coordination Sequence:
#
# PCOD8330772 Si02
#       6
#    24  24  24  24  24  24
#     4  10  21  39  63  89 117 149 187 233 284 336
#     4  10  21  39  63  89 117 150 189 233 282 336
#     4  12  25  39  58  85 117 153 192 233 279 334
#     4   9  18  32  51  77 108 141 178 222 272 324
#     4  11  24  41  60  82 111 149 192 235 280 333
#     4  10  20  36  58  84 114 146 183 228 278 332
#
# _framework density 19.543939999999999
#
# number of rings (size 3 to 8) (size 9 to 14) (size 15 to 20)
#    0.000    1.667    0.000    4.667    0.000   10.000 
#    0.000    3.333    0.000    1.167    0.000    0.000 
#    0.000    0.000    0.000    0.000    0.000    0.000 
#
# Total GULP energy -1786498.564704 kJ/mol
# GULP energy per Si atom -12406.240033 kJ/mol
# Density = 1.949946 g / cm^3
# Si number density = 19.543940 Si / 1000 Ang^3
#
#
#
# Elastic Constant Matrix: (Units=GPa)
#
#
# Indices 1 2 3 4 5 6 
#
# 1 98.2651 31.2575 38.8775 0.0000 0.0000 0.0000
# 2 31.2575 98.2651 38.8775 0.0000 0.0000 0.0000
# 3 38.8775 38.8775 91.3660 0.0000 0.0000 0.0000
# 4 0.0000 0.0000 0.0000 31.7434 0.0000 0.0000
# 5 0.0000 0.0000 0.0000 0.0000 31.7434 0.0000
# 6 0.0000 0.0000 0.0000 0.0000 0.0000 33.5038
#
#
#
# Elastic Compliance Matrix: (Units=1/GPa)
#
#
# Indices 1 2 3 4 5 6 
#
# 1 0.012647 -0.002277 -0.004412 0.000000 0.000000 0.000000
# 2 -0.002277 0.012647 -0.004412 0.000000 0.000000 0.000000
# 3 -0.004412 -0.004412 0.014700 0.000000 0.000000 0.000000
# 4 0.000000 0.000000 0.000000 0.031503 0.000000 0.000000
# 5 0.000000 0.000000 0.000000 0.000000 0.031503 0.000000
# 6 0.000000 0.000000 0.000000 0.000000 0.000000 0.029847
#
#
# Mechanical properties :
#
#
# Convention : Reuss Voigt Hill
#
# Bulk Modulus (GPa) = 56.21273 56.21347 56.21310
# Shear Modulus (GPa) = 31.05988 31.32368 31.19178
#
# Velocity S-wave (km/s) = 3.99084 4.00776 3.99931
# Velocity P-wave (km/s) = 7.07534 7.08810 7.08172
#
# Compressibility (1/GPa) = 0.01778956
#
# Stress axis : x y z
#
# Youngs Moduli (GPa) = 79.07269 79.07269 68.02703
#
# Poissons Ratio (x) = 0.18006 0.30016
# Poissons Ratio (y) = 0.18006 0.30016
# Poissons Ratio (z) = 0.34890 0.34890
#
# Static dielectric constant tensor:
#      x y z
#    x 3.610690 0.000000 0.000000 
#    y 0.000000 3.610690 0.000000 
#    z 0.000000 0.000000 3.573090 
# 
# 
# High freq. dielectric constant tensor:
#      x y z
#    x 1.765560 0.000000 0.000000 
#    y 0.000000 1.765560 0.000000 
#    z 0.000000 0.000000 1.765630 
# 
# From -- ./inp_files/2097.got.cif
#   From: 2010.03.12/outbox.cif.g09.slc.cpg/sg194_2_cif.got.tgz:2097.got - 2010.04.01 12:26:19.
