data_PCOD8330109
_publ_section_title
;
Structure prediction by ZEFSAII (Michael W. Deem and Ramdas Pophale) SiO2 
 PCOD8330109
Probable space group: P 63/M C M
;
_chemical_formula_sum "Si O2"
_cell_formula_units_Z 144
_cell_length_a 20.948214
_cell_length_b 20.948214
_cell_length_c 20.616992
_cell_angle_alpha 90.000000
_cell_angle_beta 90.000000
_cell_angle_gamma 120.000000
_cell_volume 7835.197315
_symmetry_space_group_name_H-M "P 63/M C M"
_symmetry_group_IT_number 193
_symmetry_cell_setting 'hexagonal'
loop_
_space_group_symop_operation_xyz
x,y,z
x-y,x,1/2+z
-y,x-y,z
-x,-y,1/2+z
-x+y,-x,z
y,-x+y,1/2+z
x-y,-y,1/2-z
-x,-x+y,1/2-z
y,x,1/2-z
-y,-x,-z
-x+y,y,-z
x,x-y,-z
-x,-y,-z
-x+y,-x,1/2-z
y,-x+y,-z
x,y,1/2-z
x-y,x,-z
-y,x-y,1/2-z
-x+y,y,1/2+z
x,x-y,1/2+z
-y,-x,1/2+z
y,x,z
x-y,-y,z
-x,-x+y,z
loop_
_atom_site_type_symbol
_atom_site_label
_atom_site_fract_x
_atom_site_fract_y
_atom_site_fract_z
Si Si1 0.348687 0.214628 0.899433
Si Si2 0.915400 0.646051 0.040774
Si Si3 0.833077 0.437980 0.176983
Si Si4 0.496884 0.411135 0.445355
Si Si5 0.079364 0.000000 0.326268
Si Si6 0.000000 0.220717 0.172930
Si Si7 0.270196 0.774432 0.323544
O O1 0.329269 0.130979 0.913681
O O2 0.292251 0.217591 0.849170
O O3 0.430689 0.260834 0.870496
O O4 0.341528 0.250467 0.965262
O O5 0.882317 0.558592 0.049800
O O6 0.000000 0.694332 0.063268
O O7 0.864938 0.459740 0.250000
O O8 0.900213 0.468116 0.126332
O O9 0.784555 0.474711 0.157965
O O10 0.784598 0.350731 0.169284
O O11 0.561237 0.438764 0.500000
O O12 0.450270 0.450270 0.459171
O O13 0.149104 0.000000 0.358655
O O14 0.000000 0.927601 0.345437
O O15 0.090453 0.000000 0.250000
O O16 0.000000 0.220359 0.250000
O O17 0.255819 0.790449 0.250000
#
# Coordination Sequence:
#
# PCOD8330109 Si02
#       7
#    24  24  24  24  12  12  24
#     4  11  21  37  59  82 118 158 197 246 297 356
#     4  10  21  38  58  82 114 157 199 239 291 351
#     4  10  20  36  57  81 112 148 189 237 294 350
#     4  10  20  36  58  81 109 147 193 240 284 345
#     4   7  14  32  56  81 115 151 183 231 298 359
#     4  11  22  36  60  93 122 155 202 255 308 369
#     4  10  20  36  57  83 115 151 191 240 303 361
#
# _framework density 18.378605
#
# number of rings (size 3 to 8) (size 9 to 14) (size 15 to 20)
#    0.167    1.833    2.500    1.833    0.000    2.333 
#    1.500    0.000    0.000    1.500    0.000    1.167 
#    0.000    0.000    0.000    0.000    0.000    0.000 
#
# Total GULP energy -1784961.798683 kJ/mol
# GULP energy per Si atom -12395.568046 kJ/mol
# Density = 1.833677 g / cm^3
# Si number density = 18.378605 Si / 1000 Ang^3
#
#
#
# Elastic Constant Matrix: (Units=GPa)
#
#
# Indices 1 2 3 4 5 6 
#
# 1 88.7211 40.3406 36.8345 0.0000 0.0000 0.0000
# 2 40.3406 88.7211 36.8345 0.0000 0.0000 0.0000
# 3 36.8345 36.8345 87.9873 0.0000 0.0000 0.0000
# 4 0.0000 0.0000 0.0000 24.5278 0.0000 0.0000
# 5 0.0000 0.0000 0.0000 0.0000 24.5278 0.0000
# 6 0.0000 0.0000 0.0000 0.0000 0.0000 24.1902
#
#
#
# Elastic Compliance Matrix: (Units=1/GPa)
#
#
# Indices 1 2 3 4 5 6 
#
# 1 0.015425 -0.005244 -0.004262 0.000000 0.000000 0.000000
# 2 -0.005244 0.015425 -0.004262 0.000000 0.000000 0.000000
# 3 -0.004262 -0.004262 0.014934 0.000000 0.000000 0.000000
# 4 0.000000 0.000000 0.000000 0.040770 0.000000 0.000000
# 5 0.000000 0.000000 0.000000 0.000000 0.040770 0.000000
# 6 0.000000 0.000000 0.000000 0.000000 0.000000 0.041339
#
#
# Mechanical properties :
#
#
# Convention : Reuss Voigt Hill
#
# Bulk Modulus (GPa) = 54.80229 54.82762 54.81496
# Shear Modulus (GPa) = 24.71782 24.74381 24.73081
#
# Velocity S-wave (km/s) = 3.67130 3.67323 3.67226
# Velocity P-wave (km/s) = 6.91770 6.92006 6.91888
#
# Compressibility (1/GPa) = 0.01824741
#
# Stress axis : x y z
#
# Youngs Moduli (GPa) = 64.82858 64.82858 66.96206
#
# Poissons Ratio (x) = 0.33998 0.28540
# Poissons Ratio (y) = 0.33998 0.28540
# Poissons Ratio (z) = 0.27631 0.27631
#
# Static dielectric constant tensor:
#      x y z
#    x 3.414960 0.000000 0.000000 
#    y 0.000000 3.414960 0.000000 
#    z 0.000000 0.000000 3.342540 
# 
# 
# High freq. dielectric constant tensor:
#      x y z
#    x 1.710650 0.000000 0.000000 
#    y 0.000000 1.710650 0.000000 
#    z 0.000000 0.000000 1.709480 
# 
# From -- ./inp_files/6639.got.cif
#   From: 2010.03.12/outbox.cif.g09.slc.cpg/sg193_4_cif.got.tgz:6639.got - 2010.04.01 12:20:39.
