data_PCOD8330750
_publ_section_title
;
Structure prediction by ZEFSAII (Michael W. Deem and Ramdas Pophale) SiO2 
 PCOD8330750
Probable space group: P 63/M M C
;
_chemical_formula_sum "Si O2"
_cell_formula_units_Z 156
_cell_length_a 21.281041
_cell_length_b 21.281041
_cell_length_c 20.867582
_cell_angle_alpha 90.000000
_cell_angle_beta 90.000000
_cell_angle_gamma 120.000000
_cell_volume 8184.431106
_symmetry_space_group_name_H-M "P 63/M M C"
_symmetry_group_IT_number 194
_symmetry_cell_setting 'hexagonal'
loop_
_space_group_symop_operation_xyz
x,y,z
x-y,x,1/2+z
-y,x-y,z
-x,-y,1/2+z
-x+y,-x,z
y,-x+y,1/2+z
x-y,-y,-z
-x,-x+y,-z
y,x,-z
-y,-x,1/2-z
-x+y,y,1/2-z
x,x-y,1/2-z
-x,-y,-z
-x+y,-x,1/2-z
y,-x+y,-z
x,y,1/2-z
x-y,x,-z
-y,x-y,1/2-z
-x+y,y,z
x,x-y,z
-y,-x,z
y,x,1/2+z
x-y,-y,1/2+z
-x,-x+y,1/2+z
loop_
_atom_site_type_symbol
_atom_site_label
_atom_site_fract_x
_atom_site_fract_y
_atom_site_fract_z
Si Si1 0.521833 0.335123 0.082276
Si Si2 0.391286 0.467631 0.468342
Si Si3 0.753559 0.739772 0.823354
Si Si4 0.809187 0.477268 0.750000
Si Si5 0.411473 0.276370 0.638470
Si Si6 0.125334 0.394923 0.676734
Si Si7 0.000201 0.145557 0.427499
O O1 0.527473 0.263737 0.072159
O O2 0.599742 0.400259 0.104283
O O3 0.464221 0.325577 0.136319
O O4 0.496902 0.353819 0.016698
O O5 0.412964 0.412964 0.500000
O O6 0.463266 0.536735 0.438806
O O7 0.331908 0.419983 0.416318
O O8 0.772858 0.770156 0.750000
O O9 0.754110 0.665088 0.826319
O O10 0.674524 0.724919 0.843596
O O11 0.811004 0.794300 0.874185
O O12 0.723027 0.446054 0.750000
O O13 0.826204 0.413102 0.750000
O O14 0.845141 0.524524 0.687759
O O15 0.416035 0.208018 0.610426
O O16 0.123955 0.416096 0.750000
O O17 0.187442 0.374884 0.663388
O O18 0.923491 0.076510 0.410579
O O19 0.000000 0.174356 0.500000
O O20 0.061193 0.122385 0.423940
#
# Coordination Sequence:
#
# PCOD8330750 Si02
#       7
#    24  24  24  12  24  24  24
#     4  10  20  35  55  80 110 145 186 235 290 346
#     4  10  21  37  57  80 110 146 187 233 282 338
#     4  11  22  38  59  84 118 154 193 236 291 346
#     4  10  21  38  60  84 111 144 186 234 288 346
#     4  11  22  37  57  83 114 148 185 230 284 341
#     4   9  19  35  55  78 108 145 188 234 279 333
#     4  10  22  40  62  88 119 156 199 246 294 346
#
# _framework density 19.060580000000002
#
# number of rings (size 3 to 8) (size 9 to 14) (size 15 to 20)
#    0.000    1.846    0.769    3.154    0.000    4.615 
#    0.000    2.308    0.000    6.769    0.000    0.000 
#    0.000    0.000    0.000    0.000    0.000    0.000 
#
# Total GULP energy -1934640.666712 kJ/mol
# GULP energy per Si atom -12401.542735 kJ/mol
# Density = 1.901720 g / cm^3
# Si number density = 19.060580 Si / 1000 Ang^3
#
#
#
# Elastic Constant Matrix: (Units=GPa)
#
#
# Indices 1 2 3 4 5 6 
#
# 1 104.3367 44.5409 42.4444 0.0000 0.0000 0.0000
# 2 44.5409 104.3367 42.4444 0.0000 0.0000 0.0000
# 3 42.4444 42.4444 83.3654 0.0000 0.0000 0.0000
# 4 0.0000 0.0000 0.0000 46.0816 0.0000 0.0000
# 5 0.0000 0.0000 0.0000 0.0000 46.0816 0.0000
# 6 0.0000 0.0000 0.0000 0.0000 0.0000 29.8979
#
#
#
# Elastic Compliance Matrix: (Units=1/GPa)
#
#
# Indices 1 2 3 4 5 6 
#
# 1 0.013094 -0.003630 -0.004819 0.000000 0.000000 0.000000
# 2 -0.003630 0.013094 -0.004819 0.000000 0.000000 0.000000
# 3 -0.004819 -0.004819 0.016902 0.000000 0.000000 0.000000
# 4 0.000000 0.000000 0.000000 0.021701 0.000000 0.000000
# 5 0.000000 0.000000 0.000000 0.000000 0.021701 0.000000
# 6 0.000000 0.000000 0.000000 0.000000 0.000000 0.033447
#
#
# Mechanical properties :
#
#
# Convention : Reuss Voigt Hill
#
# Bulk Modulus (GPa) = 60.40004 61.21091 60.80548
# Shear Modulus (GPa) = 32.89658 35.25283 34.07471
#
# Velocity S-wave (km/s) = 4.15890 4.30526 4.23271
# Velocity P-wave (km/s) = 7.40400 7.54303 7.47384
#
# Compressibility (1/GPa) = 0.01655628
#
# Stress axis : x y z
#
# Youngs Moduli (GPa) = 76.37054 76.37054 59.16401
#
# Poissons Ratio (x) = 0.27719 0.28510
# Poissons Ratio (y) = 0.27719 0.28510
# Poissons Ratio (z) = 0.36801 0.36801
#
# Static dielectric constant tensor:
#      x y z
#    x 3.543380 0.000000 0.000000 
#    y 0.000000 3.543380 0.000000 
#    z 0.000000 0.000000 3.467630 
# 
# 
# High freq. dielectric constant tensor:
#      x y z
#    x 1.749640 0.000000 0.000000 
#    y 0.000000 1.749640 0.000000 
#    z 0.000000 0.000000 1.739580 
# 
# From -- ./inp_files/8355.got.cif
#   From: 2010.03.12/outbox.cif.g09.slc.cpg/sg194_5_cif.got.tgz:8355.got - 2010.04.01 12:26:19.
