data_PCOD8330604
_publ_section_title
;
Structure prediction by ZEFSAII (Michael W. Deem and Ramdas Pophale) SiO2 
 PCOD8330604
Probable space group: P 63/M M C
;
_chemical_formula_sum "Si O2"
_cell_formula_units_Z 168
_cell_length_a 18.037776
_cell_length_b 18.037776
_cell_length_c 30.995041
_cell_angle_alpha 90.000000
_cell_angle_beta 90.000000
_cell_angle_gamma 120.000000
_cell_volume 8733.510076
_symmetry_space_group_name_H-M "P 63/M M C"
_symmetry_group_IT_number 194
_symmetry_cell_setting 'hexagonal'
loop_
_space_group_symop_operation_xyz
x,y,z
x-y,x,1/2+z
-y,x-y,z
-x,-y,1/2+z
-x+y,-x,z
y,-x+y,1/2+z
x-y,-y,-z
-x,-x+y,-z
y,x,-z
-y,-x,1/2-z
-x+y,y,1/2-z
x,x-y,1/2-z
-x,-y,-z
-x+y,-x,1/2-z
y,-x+y,-z
x,y,1/2-z
x-y,x,-z
-y,x-y,1/2-z
-x+y,y,z
x,x-y,z
-y,-x,z
y,x,1/2+z
x-y,-y,1/2+z
-x,-x+y,1/2+z
loop_
_atom_site_type_symbol
_atom_site_label
_atom_site_fract_x
_atom_site_fract_y
_atom_site_fract_z
Si Si1 0.157584 0.000128 0.950545
Si Si2 0.331583 0.831417 0.940074
Si Si3 0.666833 0.168454 0.801328
Si Si4 0.401398 0.424570 0.700394
Si Si5 0.541943 0.914809 0.473543
Si Si6 0.248618 0.326437 0.091333
Si Si7 0.905997 0.267907 0.368725
O O1 0.095176 0.904825 0.930856
O O2 0.136643 0.068322 0.927113
O O3 0.257291 0.032741 0.946605
O O4 0.137334 0.000000 0.000000
O O5 0.428212 0.856423 0.928662
O O6 0.267007 0.732994 0.927662
O O7 0.308446 0.891878 0.912082
O O8 0.320762 0.840559 0.991280
O O9 0.666576 0.169251 0.750000
O O10 0.595389 0.190778 0.818104
O O11 0.759963 0.240038 0.819549
O O12 0.642540 0.073413 0.816898
O O13 0.372402 0.405115 0.750000
O O14 0.479632 0.520369 0.695151
O O15 0.321203 0.415349 0.673140
O O16 0.457201 0.914401 0.456928
O O17 0.584090 0.902110 0.430255
O O18 0.602648 0.000000 0.500000
O O19 0.166631 0.333262 0.108048
O O20 0.282829 0.286893 0.128442
O O21 0.832110 0.167891 0.363279
#
# Coordination Sequence:
#
# PCOD8330604 Si02
#       7
#    24  24  24  24  24  24  24
#     4   9  17  28  45  68  98 134 173 218 268 319
#     4  10  20  34  54  79 107 139 176 217 259 308
#     4   8  13  23  44  76 110 140 168 201 245 300
#     4   9  19  36  57  80 106 137 173 215 267 325
#     4  10  19  33  53  77 106 141 182 222 263 310
#     4  11  22  35  52  76 106 142 182 225 269 315
#     4  11  23  36  54  79 107 138 176 222 272 326
#
# _framework density 19.236252
#
# number of rings (size 3 to 8) (size 9 to 14) (size 15 to 20)
#    0.000    2.286    1.429    3.000    0.000    2.571 
#    0.000    0.000    0.000    0.857    0.000    1.000 
#    0.000    0.000    0.000    0.000    0.000    0.000 
#
# Total GULP energy -2081199.769787 kJ/mol
# GULP energy per Si atom -12388.093868 kJ/mol
# Density = 1.919247 g / cm^3
# Si number density = 19.236252 Si / 1000 Ang^3
#
#
#
# Elastic Constant Matrix: (Units=GPa)
#
#
# Indices 1 2 3 4 5 6 
#
# 1 93.6273 48.6136 28.4130 0.0000 0.0000 0.0000
# 2 48.6136 93.6273 28.4130 0.0000 0.0000 0.0000
# 3 28.4130 28.4130 44.6619 0.0000 0.0000 0.0000
# 4 0.0000 0.0000 0.0000 22.4235 0.0000 0.0000
# 5 0.0000 0.0000 0.0000 0.0000 22.4235 0.0000
# 6 0.0000 0.0000 0.0000 0.0000 0.0000 22.5069
#
#
#
# Elastic Compliance Matrix: (Units=1/GPa)
#
#
# Indices 1 2 3 4 5 6 
#
# 1 0.015821 -0.006395 -0.005997 0.000000 0.000000 0.000000
# 2 -0.006395 0.015821 -0.005997 0.000000 0.000000 0.000000
# 3 -0.005997 -0.005997 0.030020 0.000000 0.000000 0.000000
# 4 0.000000 0.000000 0.000000 0.044596 0.000000 0.000000
# 5 0.000000 0.000000 0.000000 0.000000 0.044596 0.000000
# 6 0.000000 0.000000 0.000000 0.000000 0.000000 0.044431
#
#
# Mechanical properties :
#
#
# Convention : Reuss Voigt Hill
#
# Bulk Modulus (GPa) = 40.18359 49.19954 44.69157
# Shear Modulus (GPa) = 20.80248 21.90259 21.35253
#
# Velocity S-wave (km/s) = 3.29206 3.37799 3.33530
# Velocity P-wave (km/s) = 5.94854 6.39112 6.17380
#
# Compressibility (1/GPa) = 0.02488578
#
# Stress axis : x y z
#
# Youngs Moduli (GPa) = 63.20820 63.20820 33.31075
#
# Poissons Ratio (x) = 0.40420 0.19975
# Poissons Ratio (y) = 0.40420 0.19975
# Poissons Ratio (z) = 0.37904 0.37904
#
# Static dielectric constant tensor:
#      x y z
#    x 3.669850 0.000000 0.000000 
#    y 0.000000 3.669850 0.000000 
#    z 0.000000 0.000000 3.117450 
# 
# 
# High freq. dielectric constant tensor:
#      x y z
#    x 1.750640 0.000000 0.000000 
#    y 0.000000 1.750640 0.000000 
#    z 0.000000 0.000000 1.702970 
# 
# From -- ./inp_files/12295.got.cif
#   From: 2010.03.12/outbox.cif.g09.slc.cpg/sg194_7_cif.got.tgz:12295.got - 2010.04.01 12:26:19.
