data_PCOD8330567
_publ_section_title
;
Structure prediction by ZEFSAII (Michael W. Deem and Ramdas Pophale) SiO2 
 PCOD8330567
Probable space group: P 63/M M C
;
_chemical_formula_sum "Si O2"
_cell_formula_units_Z 192
_cell_length_a 22.606913
_cell_length_b 22.606913
_cell_length_c 23.050551
_cell_angle_alpha 90.000000
_cell_angle_beta 90.000000
_cell_angle_gamma 120.000000
_cell_volume 10202.214937
_symmetry_space_group_name_H-M "P 63/M M C"
_symmetry_group_IT_number 194
_symmetry_cell_setting 'hexagonal'
loop_
_space_group_symop_operation_xyz
x,y,z
x-y,x,1/2+z
-y,x-y,z
-x,-y,1/2+z
-x+y,-x,z
y,-x+y,1/2+z
x-y,-y,-z
-x,-x+y,-z
y,x,-z
-y,-x,1/2-z
-x+y,y,1/2-z
x,x-y,1/2-z
-x,-y,-z
-x+y,-x,1/2-z
y,-x+y,-z
x,y,1/2-z
x-y,x,-z
-y,x-y,1/2-z
-x+y,y,z
x,x-y,z
-y,-x,z
y,x,1/2+z
x-y,-y,1/2+z
-x,-x+y,1/2+z
loop_
_atom_site_type_symbol
_atom_site_label
_atom_site_fract_x
_atom_site_fract_y
_atom_site_fract_z
Si Si1 0.529577 0.921766 0.014171
Si Si2 0.926180 0.205839 0.017698
Si Si3 0.530387 0.852256 0.814945
Si Si4 0.316645 0.092653 0.148708
Si Si5 0.953206 0.665482 0.683741
Si Si6 0.738354 0.130337 0.578384
Si Si7 0.437209 0.437382 0.315386
Si Si8 0.667727 0.466788 0.431092
O O1 0.459614 0.919227 0.031212
O O2 0.550246 0.891303 0.069596
O O3 0.519112 0.872887 0.958992
O O4 0.587649 0.000000 0.000000
O O5 0.875139 0.124862 0.013119
O O6 0.924322 0.234146 0.080853
O O7 0.905412 0.247326 0.974907
O O8 0.000000 0.217908 0.000000
O O9 0.513114 0.820346 0.750000
O O10 0.605463 0.867785 0.831875
O O11 0.477638 0.800625 0.861765
O O12 0.523312 0.918863 0.816512
O O13 0.285859 0.142930 0.163519
O O14 0.277445 0.019360 0.181422
O O15 0.926122 0.652101 0.750000
O O16 0.894073 0.652218 0.638402
O O17 0.971753 0.609333 0.658348
O O18 0.787637 0.212364 0.576352
O O19 0.425894 0.453248 0.250000
O O20 0.488899 0.511102 0.346639
O O21 0.739640 0.479279 0.457425
O O22 0.610628 0.389373 0.444689
#
# Coordination Sequence:
#
# PCOD8330567 Si02
#       8
#    24  24  24  24  24  24  24  24
#     4  10  23  40  60  84 106 130 171 234 289 328
#     4  10  19  33  55  80 106 141 181 227 272 321
#     4  10  20  32  47  71 104 145 189 228 269 317
#     4  10  19  32  51  74 105 141 182 230 274 318
#     4  10  21  33  49  76 109 143 177 215 263 324
#     4  11  22  36  56  79 110 145 180 218 266 332
#     4   8  15  28  45  66  93 128 170 216 264 309
#     4  11  23  38  55  76 106 144 183 223 272 329
#
# _framework density 18.819441999999999
#
# number of rings (size 3 to 8) (size 9 to 14) (size 15 to 20)
#    0.000    2.000    1.250    3.500    3.500    4.250 
#    0.000    0.000    0.000    1.125    0.000    0.000 
#    0.000    0.000    0.000    0.000    0.000   11.375 
#
# Total GULP energy -2378739.712072 kJ/mol
# GULP energy per Si atom -12389.269334 kJ/mol
# Density = 1.877661 g / cm^3
# Si number density = 18.819442 Si / 1000 Ang^3
#
#
#
# Elastic Constant Matrix: (Units=GPa)
#
#
# Indices 1 2 3 4 5 6 
#
# 1 78.6766 40.2966 29.9982 0.0000 0.0000 0.0000
# 2 40.2966 78.6766 29.9982 0.0000 0.0000 0.0000
# 3 29.9982 29.9982 103.7401 0.0000 0.0000 0.0000
# 4 0.0000 0.0000 0.0000 16.5235 0.0000 0.0000
# 5 0.0000 0.0000 0.0000 0.0000 16.5235 0.0000
# 6 0.0000 0.0000 0.0000 0.0000 0.0000 19.1900
#
#
#
# Elastic Compliance Matrix: (Units=1/GPa)
#
#
# Indices 1 2 3 4 5 6 
#
# 1 0.017948 -0.008108 -0.002845 0.000000 0.000000 0.000000
# 2 -0.008108 0.017948 -0.002845 0.000000 0.000000 0.000000
# 3 -0.002845 -0.002845 0.011285 0.000000 0.000000 0.000000
# 4 0.000000 0.000000 0.000000 0.060520 0.000000 0.000000
# 5 0.000000 0.000000 0.000000 0.000000 0.060520 0.000000
# 6 0.000000 0.000000 0.000000 0.000000 0.000000 0.052110
#
#
# Mechanical properties :
#
#
# Convention : Reuss Voigt Hill
#
# Bulk Modulus (GPa) = 51.06307 51.29772 51.18039
# Shear Modulus (GPa) = 19.64979 21.16741 20.40860
#
# Velocity S-wave (km/s) = 3.23479 3.35739 3.29666
# Velocity P-wave (km/s) = 6.41435 6.50741 6.46105
#
# Compressibility (1/GPa) = 0.01958363
#
# Stress axis : x y z
#
# Youngs Moduli (GPa) = 55.71744 55.71744 88.61244
#
# Poissons Ratio (x) = 0.45173 0.25214
# Poissons Ratio (y) = 0.45173 0.25214
# Poissons Ratio (z) = 0.15854 0.15854
#
# Static dielectric constant tensor:
#      x y z
#    x 3.407500 0.000000 0.000000 
#    y 0.000000 3.407500 0.000000 
#    z 0.000000 0.000000 3.496940 
# 
# 
# High freq. dielectric constant tensor:
#      x y z
#    x 1.709380 0.000000 0.000000 
#    y 0.000000 1.709380 0.000000 
#    z 0.000000 0.000000 1.733850 
# 
# From -- ./inp_files/10115.got.cif
#   From: 2010.03.12/outbox.cif.g09.slc.cpg/sg194_6_cif.got.tgz:10115.got - 2010.04.01 12:26:19.
