data_PCOD8330261
_publ_section_title
;
Structure prediction by ZEFSAII (Michael W. Deem and Ramdas Pophale) SiO2 
 PCOD8330261
Probable space group: P 63/M C M
;
_chemical_formula_sum "Si O2"
_cell_formula_units_Z 84
_cell_length_a 17.377100
_cell_length_b 17.377100
_cell_length_c 15.547025
_cell_angle_alpha 90.000000
_cell_angle_beta 90.000000
_cell_angle_gamma 120.000000
_cell_volume 4065.673784
_symmetry_space_group_name_H-M "P 63/M C M"
_symmetry_group_IT_number 193
_symmetry_cell_setting 'hexagonal'
loop_
_space_group_symop_operation_xyz
x,y,z
x-y,x,1/2+z
-y,x-y,z
-x,-y,1/2+z
-x+y,-x,z
y,-x+y,1/2+z
x-y,-y,1/2-z
-x,-x+y,1/2-z
y,x,1/2-z
-y,-x,-z
-x+y,y,-z
x,x-y,-z
-x,-y,-z
-x+y,-x,1/2-z
y,-x+y,-z
x,y,1/2-z
x-y,x,-z
-y,x-y,1/2-z
-x+y,y,1/2+z
x,x-y,1/2+z
-y,-x,1/2+z
y,x,z
x-y,-y,z
-x,-x+y,z
loop_
_atom_site_type_symbol
_atom_site_label
_atom_site_fract_x
_atom_site_fract_y
_atom_site_fract_z
Si Si1 0.350522 0.168335 0.405611
Si Si2 0.897055 0.528869 0.656093
Si Si3 0.900122 0.535837 0.352089
Si Si4 0.787653 0.893495 0.250000
O O1 0.305723 0.152862 0.500000
O O2 0.404517 0.115362 0.405167
O O3 0.427061 0.269313 0.394692
O O4 0.273379 0.134581 0.334735
O O5 0.854978 0.527678 0.750000
O O6 0.859474 0.428003 0.620943
O O7 0.000000 0.563406 0.668731
O O8 0.897325 0.543229 0.250000
O O9 0.000000 0.596556 0.386835
O O10 0.852246 0.852246 0.250000
O O11 0.846074 0.000000 0.250000
#
# Coordination Sequence:
#
# PCOD8330261 Si02
#       4
#    24  24  24  12
#     4  12  24  39  65  99 130 168 214 262 320 395
#     4   9  18  36  62  89 120 160 204 251 303 362
#     4   9  18  36  62  89 120 160 204 251 303 362
#     4  12  27  48  70  94 126 166 218 284 349 406
#
# _framework density 20.660781
#
# number of rings (size 3 to 8) (size 9 to 14) (size 15 to 20)
#    0.000    1.714    2.857    3.571    0.000    5.714 
#    1.714    2.857    0.000    1.714    0.000    0.000 
#    0.000    0.000    0.000    0.000    0.000    0.000 
#
# Total GULP energy -1040977.254986 kJ/mol
# GULP energy per Si atom -12392.586369 kJ/mol
# Density = 2.061376 g / cm^3
# Si number density = 20.660781 Si / 1000 Ang^3
#
#
#
# Elastic Constant Matrix: (Units=GPa)
#
#
# Indices 1 2 3 4 5 6 
#
# 1 114.7057 46.7776 44.9571 0.0000 0.0000 0.0000
# 2 46.7776 114.7057 44.9571 0.0000 0.0000 0.0000
# 3 44.9571 44.9571 118.1144 0.0000 0.0000 0.0000
# 4 0.0000 0.0000 0.0000 6.4699 0.0000 0.0000
# 5 0.0000 0.0000 0.0000 0.0000 6.4699 0.0000
# 6 0.0000 0.0000 0.0000 0.0000 0.0000 33.9640
#
#
#
# Elastic Compliance Matrix: (Units=1/GPa)
#
#
# Indices 1 2 3 4 5 6 
#
# 1 0.011290 -0.003432 -0.002991 0.000000 0.000000 0.000000
# 2 -0.003432 0.011290 -0.002991 0.000000 0.000000 0.000000
# 3 -0.002991 -0.002991 0.010743 0.000000 0.000000 0.000000
# 4 0.000000 0.000000 0.000000 0.154561 0.000000 0.000000
# 5 0.000000 0.000000 0.000000 0.000000 0.154561 0.000000
# 6 0.000000 0.000000 0.000000 0.000000 0.000000 0.029443
#
#
# Mechanical properties :
#
#
# Convention : Reuss Voigt Hill
#
# Bulk Modulus (GPa) = 68.98734 68.98991 68.98863
# Shear Modulus (GPa) = 12.64073 23.43637 18.03855
#
# Velocity S-wave (km/s) = 2.47619 3.37165 2.95800
# Velocity P-wave (km/s) = 6.45278 6.97292 6.71788
#
# Compressibility (1/GPa) = 0.01449541
#
# Stress axis : x y z
#
# Youngs Moduli (GPa) = 88.57633 88.57633 93.08220
#
# Poissons Ratio (x) = 0.30397 0.27840
# Poissons Ratio (y) = 0.30397 0.27840
# Poissons Ratio (z) = 0.26492 0.26492
#
# Static dielectric constant tensor:
#      x y z
#    x 3.783460 0.000000 0.000000 
#    y 0.000000 3.783460 0.000000 
#    z 0.000000 0.000000 3.662010 
# 
# 
# High freq. dielectric constant tensor:
#      x y z
#    x 1.804280 0.000000 0.000000 
#    y 0.000000 1.804280 0.000000 
#    z 0.000000 0.000000 1.797690 
# 
# From -- ./inp_files/3308.got.cif
#   From: 2010.03.12/outbox.cif.g09.slc.cpg/sg193_2_cif.got.tgz:3308.got - 2010.04.01 12:20:39.
