data_PCOD8330411
_publ_section_title
;
Structure prediction by ZEFSAII (Michael W. Deem and Ramdas Pophale) SiO2 
 PCOD8330411
Probable space group: P 63/M M C
;
_chemical_formula_sum "Si O2"
_cell_formula_units_Z 112
_cell_length_a 28.993306
_cell_length_b 28.993306
_cell_length_c 9.994747
_cell_angle_alpha 90.000000
_cell_angle_beta 90.000000
_cell_angle_gamma 120.000000
_cell_volume 7276.087535
_symmetry_space_group_name_H-M "P 63/M M C"
_symmetry_group_IT_number 194
_symmetry_cell_setting 'hexagonal'
loop_
_space_group_symop_operation_xyz
x,y,z
x-y,x,1/2+z
-y,x-y,z
-x,-y,1/2+z
-x+y,-x,z
y,-x+y,1/2+z
x-y,-y,-z
-x,-x+y,-z
y,x,-z
-y,-x,1/2-z
-x+y,y,1/2-z
x,x-y,1/2-z
-x,-y,-z
-x+y,-x,1/2-z
y,-x+y,-z
x,y,1/2-z
x-y,x,-z
-y,x-y,1/2-z
-x+y,y,z
x,x-y,z
-y,-x,z
y,x,1/2+z
x-y,-y,1/2+z
-x,-x+y,1/2+z
loop_
_atom_site_type_symbol
_atom_site_label
_atom_site_fract_x
_atom_site_fract_y
_atom_site_fract_z
Si Si1 0.600330 0.746219 0.403904
Si Si2 0.768941 0.833200 0.750000
Si Si3 0.839491 0.057483 0.750000
Si Si4 0.060729 0.286991 0.008609
Si Si5 0.333334 0.666667 0.588982
Si Si6 0.391879 0.608122 0.592890
Si Si7 0.805755 0.301900 0.095765
O O1 0.589289 0.726358 0.250000
O O2 0.612249 0.806125 0.414845
O O3 0.650562 0.744478 0.463324
O O4 0.550725 0.707162 0.495811
O O5 0.792988 0.896494 0.750000
O O6 0.821049 0.826185 0.750000
O O7 0.729475 0.806726 0.873066
O O8 0.904136 0.095865 0.750000
O O9 0.816285 0.071507 0.622538
O O10 0.000000 0.273005 0.000000
O O11 0.333334 0.666667 0.750000
O O12 0.362811 0.637190 0.527088
O O13 0.387593 0.612408 0.750000
O O14 0.359476 0.545802 0.552716
O O15 0.823446 0.302608 0.250000
O O16 0.744045 0.255955 0.078569
#
# Coordination Sequence:
#
# PCOD8330411 Si02
#       7
#    24  12  12  24   4  12  24
#     4  10  19  31  46  63  91 126 152 179 226 284
#     4  10  20  30  46  73  98 117 151 199 231 255
#     4  10  18  32  50  67  92 129 159 179 219 279
#     4  10  20  32  48  69  92 121 156 190 226 273
#     4   9  12  18  42  63  85 128 154 189 229 260
#     4   9  14  24  41  65  94 122 157 193 228 264
#     4   9  17  27  42  67  92 119 157 193 225 264
#
# _framework density 15.392887999999999
#
# number of rings (size 3 to 8) (size 9 to 14) (size 15 to 20)
#    0.000    2.357    2.143    1.929    1.500    0.000 
#    0.000    0.536    0.000    0.214    0.000    0.750 
#    0.000    5.143    0.000    0.000    0.000    0.857 
#
# Total GULP energy -1388355.959676 kJ/mol
# GULP energy per Si atom -12396.035354 kJ/mol
# Density = 1.535785 g / cm^3
# Si number density = 15.392888 Si / 1000 Ang^3
#
#
#
# Elastic Constant Matrix: (Units=GPa)
#
#
# Indices 1 2 3 4 5 6 
#
# 1 106.5504 55.9304 49.6512 0.0000 0.0000 0.0000
# 2 55.9304 106.5506 49.6512 0.0000 0.0000 0.0000
# 3 49.6512 49.6512 109.4426 0.0000 0.0000 0.0000
# 4 0.0000 0.0000 0.0000 30.1008 0.0000 0.0000
# 5 0.0000 0.0000 0.0000 0.0000 30.1008 0.0000
# 6 0.0000 0.0000 0.0000 0.0000 0.0000 25.3100
#
#
#
# Elastic Compliance Matrix: (Units=1/GPa)
#
#
# Indices 1 2 3 4 5 6 
#
# 1 0.014135 -0.005620 -0.003863 0.000000 0.000000 0.000000
# 2 -0.005620 0.014135 -0.003863 0.000000 0.000000 0.000000
# 3 -0.003863 -0.003863 0.012643 0.000000 0.000000 0.000000
# 4 0.000000 0.000000 0.000000 0.033222 0.000000 0.000000
# 5 0.000000 0.000000 0.000000 0.000000 0.033222 0.000000
# 6 0.000000 0.000000 0.000000 0.000000 0.000000 0.039510
#
#
# Mechanical properties :
#
#
# Convention : Reuss Voigt Hill
#
# Bulk Modulus (GPa) = 70.32039 70.33434 70.32736
# Shear Modulus (GPa) = 28.04267 28.25637 28.14952
#
# Velocity S-wave (km/s) = 4.27288 4.28913 4.28101
# Velocity P-wave (km/s) = 8.37414 8.38575 8.37994
#
# Compressibility (1/GPa) = 0.01422063
#
# Stress axis : x y z
#
# Youngs Moduli (GPa) = 70.74451 70.74463 79.09764
#
# Poissons Ratio (x) = 0.39756 0.30558
# Poissons Ratio (y) = 0.39756 0.30558
# Poissons Ratio (z) = 0.27331 0.27331
#
# Static dielectric constant tensor:
#      x y z
#    x 2.905680 0.000000 0.000000 
#    y 0.000000 2.905680 0.000000 
#    z 0.000000 0.000000 2.991790 
# 
# 
# High freq. dielectric constant tensor:
#      x y z
#    x 1.571850 0.000000 0.000000 
#    y 0.000000 1.571850 0.000000 
#    z 0.000000 0.000000 1.594000 
# 
# From -- ./inp_files/1974.got.cif
#   From: 2010.03.12/outbox.cif.g09.slc.cpg/sg194_1_cif.got.tgz:1974.got - 2010.04.01 12:26:19.
