data_PCOD8330391
_publ_section_title
;
Structure prediction by ZEFSAII (Michael W. Deem and Ramdas Pophale) SiO2 
 PCOD8330391
Probable space group: P 63/M M C
;
_chemical_formula_sum "Si O2"
_cell_formula_units_Z 112
_cell_length_a 29.478109
_cell_length_b 29.478109
_cell_length_c 10.303644
_cell_angle_alpha 90.000000
_cell_angle_beta 90.000000
_cell_angle_gamma 120.000000
_cell_volume 7753.909316
_symmetry_space_group_name_H-M "P 63/M M C"
_symmetry_group_IT_number 194
_symmetry_cell_setting 'hexagonal'
loop_
_space_group_symop_operation_xyz
x,y,z
x-y,x,1/2+z
-y,x-y,z
-x,-y,1/2+z
-x+y,-x,z
y,-x+y,1/2+z
x-y,-y,-z
-x,-x+y,-z
y,x,-z
-y,-x,1/2-z
-x+y,y,1/2-z
x,x-y,1/2-z
-x,-y,-z
-x+y,-x,1/2-z
y,-x+y,-z
x,y,1/2-z
x-y,x,-z
-y,x-y,1/2-z
-x+y,y,z
x,x-y,z
-y,-x,z
y,x,1/2+z
x-y,-y,1/2+z
-x,-x+y,1/2+z
loop_
_atom_site_type_symbol
_atom_site_label
_atom_site_fract_x
_atom_site_fract_y
_atom_site_fract_z
Si Si1 0.613281 0.752850 0.602903
Si Si2 0.781013 0.839784 0.750000
Si Si3 0.939063 0.162291 0.750000
Si Si4 0.059626 0.280911 0.997681
Si Si5 0.333334 0.666667 0.595458
Si Si6 0.392142 0.607859 0.595593
Si Si7 0.800068 0.301804 0.095404
O O1 0.621226 0.739159 0.750000
O O2 0.619142 0.809571 0.598951
O O3 0.656425 0.751766 0.509902
O O4 0.555632 0.709970 0.548836
O O5 0.805589 0.902795 0.750000
O O6 0.827583 0.825918 0.750000
O O7 0.744880 0.816385 0.875334
O O8 0.900271 0.099730 0.750000
O O9 0.926932 0.186852 0.626027
O O10 0.000000 0.267878 0.000000
O O11 0.333334 0.666667 0.750000
O O12 0.362711 0.637290 0.541528
O O13 0.391861 0.608140 0.750000
O O14 0.359319 0.547334 0.546180
O O15 0.798299 0.299108 0.250000
O O16 0.743274 0.256726 0.043239
#
# Coordination Sequence:
#
# PCOD8330391 Si02
#       7
#    24  12  12  24   4  12  24
#     4   9  15  24  39  55  75 104 135 163 194 238
#     4  10  18  30  48  63  80 111 139 155 189 243
#     4  10  20  30  42  65  90 105 129 169 199 225
#     4  10  19  29  43  62  82 107 135 164 200 239
#     4   9  12  12  24  36  66 117 132 154 194 238
#     4   9  12  16  24  42  73 106 138 162 192 236
#     4   8  13  18  27  47  71 101 137 164 191 234
#
# _framework density 14.444326999999999
#
# number of rings (size 3 to 8) (size 9 to 14) (size 15 to 20)
#    0.000    2.786    2.143    3.214    0.000    0.000 
#    0.000    0.000    0.000    0.214    0.000    0.750 
#    0.000    6.000    0.000    0.107    0.000    2.893 
#
# Total GULP energy -1387886.255284 kJ/mol
# GULP energy per Si atom -12391.841565 kJ/mol
# Density = 1.441145 g / cm^3
# Si number density = 14.444327 Si / 1000 Ang^3
#
#
#
# Elastic Constant Matrix: (Units=GPa)
#
#
# Indices 1 2 3 4 5 6 
#
# 1 110.7416 60.7408 24.3112 0.0000 0.0000 0.0000
# 2 60.7408 110.7418 24.3112 0.0000 0.0000 0.0000
# 3 24.3112 24.3112 56.7867 0.0000 0.0000 0.0000
# 4 0.0000 0.0000 0.0000 12.8083 0.0000 0.0000
# 5 0.0000 0.0000 0.0000 0.0000 12.8084 0.0000
# 6 0.0000 0.0000 0.0000 0.0000 0.0000 25.0004
#
#
#
# Elastic Compliance Matrix: (Units=1/GPa)
#
#
# Indices 1 2 3 4 5 6 
#
# 1 0.013318 -0.006681 -0.002841 0.000000 0.000000 0.000000
# 2 -0.006681 0.013318 -0.002841 0.000000 0.000000 0.000000
# 3 -0.002841 -0.002841 0.020043 0.000000 0.000000 0.000000
# 4 0.000000 0.000000 0.000000 0.078074 0.000000 0.000000
# 5 0.000000 0.000000 0.000000 0.000000 0.078074 0.000000
# 6 0.000000 0.000000 0.000000 0.000000 0.000000 0.039999
#
#
# Mechanical properties :
#
#
# Convention : Reuss Voigt Hill
#
# Bulk Modulus (GPa) = 45.55564 55.22182 50.38873
# Shear Modulus (GPa) = 18.19028 21.38389 19.78708
#
# Velocity S-wave (km/s) = 3.55256 3.85182 3.70521
# Velocity P-wave (km/s) = 6.95952 7.62206 7.29831
#
# Compressibility (1/GPa) = 0.02195118
#
# Stress axis : x y z
#
# Youngs Moduli (GPa) = 75.08398 75.08412 49.89343
#
# Poissons Ratio (x) = 0.50165 0.14177
# Poissons Ratio (y) = 0.50165 0.14177
# Poissons Ratio (z) = 0.21335 0.21335
#
# Static dielectric constant tensor:
#      x y z
#    x 2.925530 0.000000 0.000000 
#    y 0.000000 2.925520 0.000000 
#    z 0.000000 0.000000 2.149560 
# 
# 
# High freq. dielectric constant tensor:
#      x y z
#    x 1.540450 0.000000 0.000000 
#    y 0.000000 1.540450 0.000000 
#    z 0.000000 0.000000 1.512550 
# 
# From -- ./inp_files/1973.got.cif
#   From: 2010.03.12/outbox.cif.g09.slc.cpg/sg194_1_cif.got.tgz:1973.got - 2010.04.01 12:26:19.
