data_PCOD8330914
_publ_section_title
;
Structure prediction by ZEFSAII (Michael W. Deem and Ramdas Pophale) SiO2 
 PCOD8330914
Probable space group: P N 3
;
_chemical_formula_sum "Si O2"
_cell_formula_units_Z 168
_cell_length_a 19.793354
_cell_length_b 19.793354
_cell_length_c 19.793354
_cell_angle_alpha 90.000000
_cell_angle_beta 90.000000
_cell_angle_gamma 90.000000
_cell_volume 7754.578130
_symmetry_space_group_name_H-M "P N 3"
_symmetry_group_IT_number 201
_space_group.IT_coordinate_system_code '2'
_symmetry_cell_setting 'cubic'
loop_
_space_group_symop_operation_xyz
x,y,z
z,x,y
y,z,x
1/2-y,1/2-z,x
z,1/2-x,1/2-y
1/2-y,z,1/2-x
1/2-z,1/2-x,y
1/2-z,x,1/2-y
y,1/2-z,1/2-x
1/2-x,1/2-y,z
x,1/2-y,1/2-z
1/2-x,y,1/2-z
-x,-y,-z
-z,-x,-y
-y,-z,-x
1/2+y,1/2+z,-x
-z,1/2+x,1/2+y
1/2+y,-z,1/2+x
1/2+z,1/2+x,-y
1/2+z,-x,1/2+y
-y,1/2+z,1/2+x
1/2+x,1/2+y,-z
-x,1/2+y,1/2+z
1/2+x,-y,1/2+z
loop_
_atom_site_type_symbol
_atom_site_label
_atom_site_fract_x
_atom_site_fract_y
_atom_site_fract_z
Si Si1 0.325577 0.874637 0.809119
Si Si2 0.339482 0.685276 0.155670
Si Si3 0.039240 0.753188 0.538242
Si Si4 0.233993 0.177503 0.572449
Si Si5 0.131756 0.562406 0.967958
Si Si6 0.050544 0.633650 0.446452
Si Si7 0.683410 0.203436 0.026308
O O1 0.322288 0.888995 0.728298
O O2 0.265731 0.825740 0.839642
O O3 0.398753 0.842502 0.826136
O O4 0.315489 0.949859 0.836713
O O5 0.329837 0.639335 0.220499
O O6 0.406449 0.668222 0.112789
O O7 0.016787 0.754075 0.617696
O O8 0.011482 0.817812 0.498273
O O9 0.017759 0.686332 0.499204
O O10 0.120926 0.750714 0.548874
O O11 0.250000 0.250000 0.537565
O O12 0.081068 0.534893 0.910395
O O13 0.175544 0.627988 0.938478
O O14 0.097774 0.581287 0.484571
O O15 0.750000 0.250000 0.039877
#
# Coordination Sequence:
#
# PCOD8330914 Si02
#       7
#    24  24  24  24  24  24  24
#     4  10  19  33  58  87 130 167 209 265 335 399
#     4  10  19  37  53  87 120 166 207 267 333 402
#     4  11  24  38  63  88 122 169 220 283 357 413
#     4  10  22  38  59  87 125 161 217 282 356 409
#     4  10  25  43  62  90 132 185 240 299 349 412
#     4  12  25  42  60  84 119 162 221 277 340 422
#     4  11  22  37  59  95 134 177 230 281 335 397
#
# _framework density 21.664622000000001
#
# number of rings (size 3 to 8) (size 9 to 14) (size 15 to 20)
#    0.000    1.429    4.286    0.714   12.000    2.857 
#    0.000    0.000    0.000    0.000    0.000    0.000 
#    0.000    0.000    0.000    0.000    0.000    0.000 
#
# Total GULP energy -2081454.625298 kJ/mol
# GULP energy per Si atom -12389.610865 kJ/mol
# Density = 2.161531 g / cm^3
# Si number density = 21.664622 Si / 1000 Ang^3
#
#
#
# Elastic Constant Matrix: (Units=GPa)
#
#
# Indices 1 2 3 4 5 6 
#
# 1 89.6938 27.8187 27.8187 0.0000 0.0000 0.0000
# 2 27.8187 89.6938 27.8187 0.0000 0.0000 0.0000
# 3 27.8187 27.8187 89.6938 0.0000 0.0000 0.0000
# 4 0.0000 0.0000 0.0000 28.2878 0.0000 0.0000
# 5 0.0000 0.0000 0.0000 0.0000 28.2878 0.0000
# 6 0.0000 0.0000 0.0000 0.0000 0.0000 28.2878
#
#
#
# Elastic Compliance Matrix: (Units=1/GPa)
#
#
# Indices 1 2 3 4 5 6 
#
# 1 0.013068 -0.003094 -0.003094 0.000000 0.000000 0.000000
# 2 -0.003094 0.013068 -0.003094 0.000000 0.000000 0.000000
# 3 -0.003094 -0.003094 0.013068 0.000000 0.000000 0.000000
# 4 0.000000 0.000000 0.000000 0.035351 0.000000 0.000000
# 5 0.000000 0.000000 0.000000 0.000000 0.035351 0.000000
# 6 0.000000 0.000000 0.000000 0.000000 0.000000 0.035351
#
#
# Mechanical properties :
#
#
# Convention : Reuss Voigt Hill
#
# Bulk Modulus (GPa) = 48.44372 48.44372 48.44372
# Shear Modulus (GPa) = 29.29127 29.34767 29.31947
#
# Velocity S-wave (km/s) = 3.68099 3.68453 3.68276
# Velocity P-wave (km/s) = 6.36204 6.36477 6.36340
#
# Compressibility (1/GPa) = 0.02064251
#
# Stress axis : x y z
#
# Youngs Moduli (GPa) = 76.52271 76.52271 76.52271
#
# Poissons Ratio (x) = 0.23673 0.23673
# Poissons Ratio (y) = 0.23673 0.23673
# Poissons Ratio (z) = 0.23673 0.23673
#
# Static dielectric constant tensor:
#      x y z
#    x 4.094210 0.000000 0.000000 
#    y 0.000000 4.094210 0.000000 
#    z 0.000000 0.000000 4.094210 
# 
# 
# High freq. dielectric constant tensor:
#      x y z
#    x 1.839590 0.000000 0.000000 
#    y 0.000000 1.839590 0.000000 
#    z 0.000000 0.000000 1.839590 
# 
# From -- ./inp_files/763.got.cif
#   From: 2010.03.12/outbox.cif.g09.slc.cpg/sg201_cif.got.tgz:763.got - 2010.03.30 09:02:05.
