data_PCOD8330341
_publ_section_title
;
Structure prediction by ZEFSAII (Michael W. Deem and Ramdas Pophale) SiO2 
 PCOD8330341
Probable space group: P 63/M M C
;
_chemical_formula_sum "Si O2"
_cell_formula_units_Z 120
_cell_length_a 17.047867
_cell_length_b 17.047867
_cell_length_c 31.721481
_cell_angle_alpha 90.000000
_cell_angle_beta 90.000000
_cell_angle_gamma 120.000000
_cell_volume 7984.067208
_symmetry_space_group_name_H-M "P 63/M M C"
_symmetry_group_IT_number 194
_symmetry_cell_setting 'hexagonal'
loop_
_space_group_symop_operation_xyz
x,y,z
x-y,x,1/2+z
-y,x-y,z
-x,-y,1/2+z
-x+y,-x,z
y,-x+y,1/2+z
x-y,-y,-z
-x,-x+y,-z
y,x,-z
-y,-x,1/2-z
-x+y,y,1/2-z
x,x-y,1/2-z
-x,-y,-z
-x+y,-x,1/2-z
y,-x+y,-z
x,y,1/2-z
x-y,x,-z
-y,x-y,1/2-z
-x+y,y,z
x,x-y,z
-y,-x,z
y,x,1/2+z
x-y,-y,1/2+z
-x,-x+y,1/2+z
loop_
_atom_site_type_symbol
_atom_site_label
_atom_site_fract_x
_atom_site_fract_y
_atom_site_fract_z
Si Si1 0.505793 0.839710 0.702807
Si Si2 0.076891 0.332549 0.860637
Si Si3 0.335432 0.849523 0.009532
Si Si4 0.182248 0.998379 0.202974
Si Si5 0.019327 0.599727 0.932692
O O1 0.535186 0.878186 0.750000
O O2 0.430548 0.861096 0.684978
O O3 0.463562 0.731781 0.702686
O O4 0.591082 0.886134 0.673879
O O5 0.159376 0.318751 0.877904
O O6 0.000848 0.245692 0.835311
O O7 0.029969 0.359204 0.897100
O O8 0.407177 0.814354 0.013033
O O9 0.234480 0.765521 0.014310
O O10 0.354704 0.922629 0.045867
O O11 0.346901 0.897806 0.964775
O O12 0.215889 0.988821 0.250000
O O13 0.177099 0.088550 0.201588
O O14 0.084108 0.915893 0.193291
O O15 0.021765 0.510883 0.915537
#
# Coordination Sequence:
#
# PCOD8330341 Si02
#       5
#    24  24  24  24  24
#     4   9  16  25  37  54  78 108 138 164 189 222
#     4  10  18  27  41  60  82 107 135 165 199 242
#     4   9  17  30  47  64  82 106 137 169 201 239
#     4   9  17  29  44  61  81 106 137 173 210 244
#     4   9  18  30  43  62  87 111 133 163 204 244
#
# _framework density 15.029935
#
# number of rings (size 3 to 8) (size 9 to 14) (size 15 to 20)
#    0.000    2.800    0.000    3.600    0.000    4.800 
#    0.000    0.000    0.000    6.400    0.000    0.000 
#    0.000    0.000    0.000   24.800    0.000   10.600 
#
# Total GULP energy -1486975.973620 kJ/mol
# GULP energy per Si atom -12391.466447 kJ/mol
# Density = 1.499573 g / cm^3
# Si number density = 15.029935 Si / 1000 Ang^3
#
#
#
# Elastic Constant Matrix: (Units=GPa)
#
#
# Indices 1 2 3 4 5 6 
#
# 1 63.4828 16.9048 32.2144 0.0000 0.0000 0.0000
# 2 16.9048 63.4828 32.2144 0.0000 0.0000 0.0000
# 3 32.2144 32.2144 76.8197 0.0000 0.0000 0.0000
# 4 0.0000 0.0000 0.0000 24.0869 0.0000 0.0000
# 5 0.0000 0.0000 0.0000 0.0000 24.0869 0.0000
# 6 0.0000 0.0000 0.0000 0.0000 0.0000 23.2890
#
#
#
# Elastic Compliance Matrix: (Units=1/GPa)
#
#
# Indices 1 2 3 4 5 6 
#
# 1 0.020103 -0.001366 -0.007858 0.000000 0.000000 0.000000
# 2 -0.001366 0.020103 -0.007858 0.000000 0.000000 0.000000
# 3 -0.007858 -0.007858 0.019608 0.000000 0.000000 0.000000
# 4 0.000000 0.000000 0.000000 0.041516 0.000000 0.000000
# 5 0.000000 0.000000 0.000000 0.000000 0.041516 0.000000
# 6 0.000000 0.000000 0.000000 0.000000 0.000000 0.042939
#
#
# Mechanical properties :
#
#
# Convention : Reuss Voigt Hill
#
# Bulk Modulus (GPa) = 38.98297 40.71695 39.84996
# Shear Modulus (GPa) = 21.88197 22.45600 22.16899
#
# Velocity S-wave (km/s) = 3.81976 3.86953 3.84472
# Velocity P-wave (km/s) = 6.74146 6.86395 6.80298
#
# Compressibility (1/GPa) = 0.02565223
#
# Stress axis : x y z
#
# Youngs Moduli (GPa) = 49.74290 49.74290 51.00062
#
# Poissons Ratio (x) = 0.06795 0.40074
# Poissons Ratio (y) = 0.06795 0.40074
# Poissons Ratio (z) = 0.39086 0.39086
#
# Static dielectric constant tensor:
#      x y z
#    x 2.900420 0.000000 0.000000 
#    y 0.000000 2.900420 0.000000 
#    z 0.000000 0.000000 2.911490 
# 
# 
# High freq. dielectric constant tensor:
#      x y z
#    x 1.568100 0.000000 0.000000 
#    y 0.000000 1.568100 0.000000 
#    z 0.000000 0.000000 1.570420 
# 
# From -- ./inp_files/11712.got.cif
#   From: 2010.03.12/outbox.cif.g09.slc.cpg/sg194_6_cif.got.tgz:11712.got - 2010.04.01 12:26:19.
