data_PCOD8330924
_publ_section_title
;
Structure prediction by ZEFSAII (Michael W. Deem and Ramdas Pophale) SiO2 
 PCOD8330924
Probable space group: P N 3
;
_chemical_formula_sum "Si O2"
_cell_formula_units_Z 120
_cell_length_a 17.764965
_cell_length_b 17.764965
_cell_length_c 17.764965
_cell_angle_alpha 90.000000
_cell_angle_beta 90.000000
_cell_angle_gamma 90.000000
_cell_volume 5606.516035
_symmetry_space_group_name_H-M "P N 3"
_symmetry_group_IT_number 201
_space_group.IT_coordinate_system_code '2'
_symmetry_cell_setting 'cubic'
loop_
_space_group_symop_operation_xyz
x,y,z
z,x,y
y,z,x
1/2-y,1/2-z,x
z,1/2-x,1/2-y
1/2-y,z,1/2-x
1/2-z,1/2-x,y
1/2-z,x,1/2-y
y,1/2-z,1/2-x
1/2-x,1/2-y,z
x,1/2-y,1/2-z
1/2-x,y,1/2-z
-x,-y,-z
-z,-x,-y
-y,-z,-x
1/2+y,1/2+z,-x
-z,1/2+x,1/2+y
1/2+y,-z,1/2+x
1/2+z,1/2+x,-y
1/2+z,-x,1/2+y
-y,1/2+z,1/2+x
1/2+x,1/2+y,-z
-x,1/2+y,1/2+z
1/2+x,-y,1/2+z
loop_
_atom_site_type_symbol
_atom_site_label
_atom_site_fract_x
_atom_site_fract_y
_atom_site_fract_z
Si Si1 0.810167 0.357751 0.313911
Si Si2 0.536672 0.578935 0.276832
Si Si3 0.308640 0.594738 0.422037
Si Si4 0.865645 0.078777 0.743329
Si Si5 0.803964 0.816808 0.926305
O O1 0.750000 0.342192 0.250000
O O2 0.780872 0.399407 0.389953
O O3 0.870616 0.411981 0.274216
O O4 0.843248 0.275178 0.332673
O O5 0.536930 0.490155 0.296465
O O6 0.546179 0.628182 0.350586
O O7 0.453753 0.590396 0.245023
O O8 0.339218 0.561078 0.342374
O O9 0.832287 0.014839 0.798505
O O10 0.885650 0.787122 0.897548
O O11 0.750000 0.750000 0.899996
#
# Coordination Sequence:
#
# PCOD8330924 Si02
#       5
#    24  24  24  24  24
#     4  10  24  44  73 102 136 180 234 291 347 424
#     4  11  24  44  66 100 139 182 229 285 355 420
#     4  11  23  44  67  98 138 179 232 283 347 420
#     4  12  25  43  70 106 139 183 234 290 352 419
#     4  10  24  43  67  98 135 178 237 287 343 412
#
# _framework density 21.403666999999999
#
# number of rings (size 3 to 8) (size 9 to 14) (size 15 to 20)
#    0.400    0.800    2.000    3.400    5.600    5.600 
#    1.200    1.000    0.000    1.200    0.000    0.000 
#    0.000    0.000    0.000    0.000    0.000    0.000 
#
# Total GULP energy -1486570.336881 kJ/mol
# GULP energy per Si atom -12388.086141 kJ/mol
# Density = 2.135495 g / cm^3
# Si number density = 21.403667 Si / 1000 Ang^3
#
#
#
# Elastic Constant Matrix: (Units=GPa)
#
#
# Indices 1 2 3 4 5 6 
#
# 1 110.1757 40.9352 40.9352 0.0000 0.0000 0.0000
# 2 40.9352 110.1757 40.9352 0.0000 0.0000 0.0000
# 3 40.9352 40.9352 110.1757 0.0000 0.0000 0.0000
# 4 0.0000 0.0000 0.0000 66.4189 0.0000 0.0000
# 5 0.0000 0.0000 0.0000 0.0000 66.4189 0.0000
# 6 0.0000 0.0000 0.0000 0.0000 0.0000 66.4189
#
#
#
# Elastic Compliance Matrix: (Units=1/GPa)
#
#
# Indices 1 2 3 4 5 6 
#
# 1 0.011364 -0.003078 -0.003078 0.000000 0.000000 0.000000
# 2 -0.003078 0.011364 -0.003078 0.000000 0.000000 0.000000
# 3 -0.003078 -0.003078 0.011364 0.000000 0.000000 0.000000
# 4 0.000000 0.000000 0.000000 0.015056 0.000000 0.000000
# 5 0.000000 0.000000 0.000000 0.000000 0.015056 0.000000
# 6 0.000000 0.000000 0.000000 0.000000 0.000000 0.015056
#
#
# Mechanical properties :
#
#
# Convention : Reuss Voigt Hill
#
# Bulk Modulus (GPa) = 64.01539 64.01539 64.01539
# Shear Modulus (GPa) = 48.57312 53.69941 51.13627
#
# Velocity S-wave (km/s) = 4.76897 5.01431 4.89318
# Velocity P-wave (km/s) = 7.76516 7.96856 7.86752
#
# Compressibility (1/GPa) = 0.01562124
#
# Stress axis : x y z
#
# Youngs Moduli (GPa) = 87.99734 87.99734 87.99734
#
# Poissons Ratio (x) = 0.27090 0.27090
# Poissons Ratio (y) = 0.27090 0.27090
# Poissons Ratio (z) = 0.27090 0.27090
#
# Static dielectric constant tensor:
#      x y z
#    x 0.000000 0.000000 0.000000 
#    y 0.000000 0.000000 0.000000 
#    z 0.000000 0.000000 0.000000 
# 
# 
# High freq. dielectric constant tensor:
#      x y z
#    x 1.840240 0.000000 0.000000 
#    y 0.000000 1.840240 0.000000 
#    z 0.000000 0.000000 1.840240 
# 
# From -- ./inp_files/630.got.cif
#   From: 2010.03.12/outbox.cif.g09.slc.cpg/sg201_cif.got.tgz:630.got - 2010.03.30 09:02:05.
