data_PCOD8330837
_publ_section_title
;
Structure prediction by ZEFSAII (Michael W. Deem and Ramdas Pophale) SiO2 
 PCOD8330837
Probable space group: P 63/M M C
;
_chemical_formula_sum "Si O2"
_cell_formula_units_Z 72
_cell_length_a 15.671503
_cell_length_b 15.671503
_cell_length_c 20.612540
_cell_angle_alpha 90.000000
_cell_angle_beta 90.000000
_cell_angle_gamma 120.000000
_cell_volume 4384.130201
_symmetry_space_group_name_H-M "P 63/M M C"
_symmetry_group_IT_number 194
_symmetry_cell_setting 'hexagonal'
loop_
_space_group_symop_operation_xyz
x,y,z
x-y,x,1/2+z
-y,x-y,z
-x,-y,1/2+z
-x+y,-x,z
y,-x+y,1/2+z
x-y,-y,-z
-x,-x+y,-z
y,x,-z
-y,-x,1/2-z
-x+y,y,1/2-z
x,x-y,1/2-z
-x,-y,-z
-x+y,-x,1/2-z
y,-x+y,-z
x,y,1/2-z
x-y,x,-z
-y,x-y,1/2-z
-x+y,y,z
x,x-y,z
-y,-x,z
y,x,1/2+z
x-y,-y,1/2+z
-x,-x+y,1/2+z
loop_
_atom_site_type_symbol
_atom_site_label
_atom_site_fract_x
_atom_site_fract_y
_atom_site_fract_z
Si Si1 0.859131 0.527269 0.547802
Si Si2 0.437388 0.070658 0.095910
Si Si3 0.342818 0.171409 0.173061
Si Si4 0.122914 0.061457 0.173690
O O1 0.771876 0.543751 0.573383
O O2 0.825894 0.412947 0.554102
O O3 0.881081 0.559394 0.473078
O O4 0.953969 0.592296 0.592140
O O5 0.545644 0.091287 0.115450
O O6 0.400186 0.116181 0.150514
O O7 0.340740 0.170370 0.250000
O O8 0.231627 0.115814 0.141933
O O9 0.139398 0.069699 0.250000
O O10 0.055836 0.111672 0.154416
#
# Coordination Sequence:
#
# PCOD8330837 Si02
#       4
#    24  24  12  12
#     4   9  16  30  52  73  95 126 163 212 260 296
#     4   9  19  32  45  70 103 130 167 210 247 298
#     4  11  20  32  52  71  99 143 171 200 259 313
#     4   7  14  30  48  67  89 115 161 214 241 283
#
# _framework density 16.42287
#
# number of rings (size 3 to 8) (size 9 to 14) (size 15 to 20)
#    0.333    2.667    1.667    2.333    0.000    2.000 
#    1.000    0.000    0.000    0.000    0.000    2.333 
#    0.000    2.667    0.000    0.000    0.000    0.000 
#
# Total GULP energy -892190.330454 kJ/mol
# GULP energy per Si atom -12391.532367 kJ/mol
# Density = 1.638549 g / cm^3
# Si number density = 16.422870 Si / 1000 Ang^3
#
#
#
# Elastic Constant Matrix: (Units=GPa)
#
#
# Indices 1 2 3 4 5 6 
#
# 1 114.1573 64.3578 32.2990 0.0000 0.0000 0.0000
# 2 64.3578 114.1573 32.2990 0.0000 0.0000 0.0000
# 3 32.2990 32.2990 46.3139 0.0000 0.0000 0.0000
# 4 0.0000 0.0000 0.0000 16.9586 0.0000 0.0000
# 5 0.0000 0.0000 0.0000 0.0000 16.9586 0.0000
# 6 0.0000 0.0000 0.0000 0.0000 0.0000 24.8998
#
#
#
# Elastic Compliance Matrix: (Units=1/GPa)
#
#
# Indices 1 2 3 4 5 6 
#
# 1 0.013787 -0.006294 -0.005225 0.000000 0.000000 0.000000
# 2 -0.006294 0.013787 -0.005225 0.000000 0.000000 0.000000
# 3 -0.005225 -0.005225 0.028880 0.000000 0.000000 0.000000
# 4 0.000000 0.000000 0.000000 0.058967 0.000000 0.000000
# 5 0.000000 0.000000 0.000000 0.000000 0.058967 0.000000
# 6 0.000000 0.000000 0.000000 0.000000 0.000000 0.040161
#
#
# Mechanical properties :
#
#
# Convention : Reuss Voigt Hill
#
# Bulk Modulus (GPa) = 43.54643 59.17111 51.35877
# Shear Modulus (GPa) = 19.55475 21.47489 20.51482
#
# Velocity S-wave (km/s) = 3.45440 3.62003 3.53818
# Velocity P-wave (km/s) = 6.51796 7.31989 6.93053
#
# Compressibility (1/GPa) = 0.02296399
#
# Stress axis : x y z
#
# Youngs Moduli (GPa) = 72.53439 72.53439 34.62610
#
# Poissons Ratio (x) = 0.45653 0.18093
# Poissons Ratio (y) = 0.45653 0.18093
# Poissons Ratio (z) = 0.37901 0.37901
#
# Static dielectric constant tensor:
#      x y z
#    x 3.200850 0.000000 0.000000 
#    y 0.000000 3.200850 0.000000 
#    z 0.000000 0.000000 2.616800 
# 
# 
# High freq. dielectric constant tensor:
#      x y z
#    x 1.638080 0.000000 0.000000 
#    y 0.000000 1.638080 0.000000 
#    z 0.000000 0.000000 1.585060 
# 
# From -- ./inp_files/7549.got.cif
#   From: 2010.03.12/outbox.cif.g09.slc.cpg/sg194_4_cif.got.tgz:7549.got - 2010.04.01 12:26:19.
