data_PCOD8330024
_publ_section_title
;
Structure prediction by ZEFSAII (Michael W. Deem and Ramdas Pophale) SiO2 
 PCOD8330024
Probable space group: P 63/M C M
;
_chemical_formula_sum "Si O2"
_cell_formula_units_Z 120
_cell_length_a 24.619914
_cell_length_b 24.619914
_cell_length_c 12.876486
_cell_angle_alpha 90.000000
_cell_angle_beta 90.000000
_cell_angle_gamma 120.000000
_cell_volume 6759.289611
_symmetry_space_group_name_H-M "P 63/M C M"
_symmetry_group_IT_number 193
_symmetry_cell_setting 'hexagonal'
loop_
_space_group_symop_operation_xyz
x,y,z
x-y,x,1/2+z
-y,x-y,z
-x,-y,1/2+z
-x+y,-x,z
y,-x+y,1/2+z
x-y,-y,1/2-z
-x,-x+y,1/2-z
y,x,1/2-z
-y,-x,-z
-x+y,y,-z
x,x-y,-z
-x,-y,-z
-x+y,-x,1/2-z
y,-x+y,-z
x,y,1/2-z
x-y,x,-z
-y,x-y,1/2-z
-x+y,y,1/2+z
x,x-y,1/2+z
-y,-x,1/2+z
y,x,z
x-y,-y,z
-x,-x+y,z
loop_
_atom_site_type_symbol
_atom_site_label
_atom_site_fract_x
_atom_site_fract_y
_atom_site_fract_z
Si Si1 0.371921 0.126065 0.472184
Si Si2 0.321146 0.847007 0.874135
Si Si3 0.718308 0.505419 0.368835
Si Si4 0.544130 0.416782 0.873183
Si Si5 0.000000 0.567186 0.868407
Si Si6 0.304486 0.304486 0.869790
O O1 0.345630 0.172815 0.500000
O O2 0.406321 0.112961 0.570386
O O3 0.422617 0.157301 0.379685
O O4 0.313504 0.061591 0.430034
O O5 0.317402 0.853027 0.750000
O O6 0.277028 0.775334 0.918188
O O7 0.391453 0.867912 0.910951
O O8 0.717562 0.488008 0.250000
O O9 0.648393 0.461757 0.416115
O O10 0.539782 0.411757 0.750000
O O11 0.488243 0.425461 0.920665
O O12 0.000000 0.547894 0.750000
O O13 0.000000 0.631164 0.878931
O O14 0.284811 0.284811 0.750000
#
# Coordination Sequence:
#
# PCOD8330024 Si02
#       6
#    24  24  24  24  12  12
#     4  10  20  33  51  75  99 127 166 209 255 307
#     4   9  19  32  44  61  93 132 162 203 272 333
#     4   9  16  30  47  62  86 121 164 216 264 314
#     4   9  16  28  44  65  90 117 160 215 267 324
#     4   9  16  27  47  70  90 113 153 214 265 300
#     4  11  20  35  58  82 100 129 177 219 252 295
#
# _framework density 17.753344999999999
#
# number of rings (size 3 to 8) (size 9 to 14) (size 15 to 20)
#    0.000    2.600    2.000    0.600    0.000    2.400 
#    1.200    2.500    0.000    0.000    0.000    0.000 
#    0.000    0.000    0.000    0.300    0.000    0.300 
#
# Total GULP energy -1486783.002191 kJ/mol
# GULP energy per Si atom -12389.858352 kJ/mol
# Density = 1.771294 g / cm^3
# Si number density = 17.753345 Si / 1000 Ang^3
#
#
#
# Elastic Constant Matrix: (Units=GPa)
#
#
# Indices 1 2 3 4 5 6 
#
# 1 82.1762 39.1778 21.8611 0.0000 0.0000 0.0000
# 2 39.1778 82.1762 21.8611 0.0000 0.0000 0.0000
# 3 21.8611 21.8611 36.2735 0.0000 0.0000 0.0000
# 4 0.0000 0.0000 0.0000 17.2928 0.0000 0.0000
# 5 0.0000 0.0000 0.0000 0.0000 17.2928 0.0000
# 6 0.0000 0.0000 0.0000 0.0000 0.0000 21.4992
#
#
#
# Elastic Compliance Matrix: (Units=1/GPa)
#
#
# Indices 1 2 3 4 5 6 
#
# 1 0.016891 -0.006365 -0.006344 0.000000 0.000000 0.000000
# 2 -0.006365 0.016891 -0.006344 0.000000 0.000000 0.000000
# 3 -0.006344 -0.006344 0.035215 0.000000 0.000000 0.000000
# 4 0.000000 0.000000 0.000000 0.057828 0.000000 0.000000
# 5 0.000000 0.000000 0.000000 0.000000 0.057828 0.000000
# 6 0.000000 0.000000 0.000000 0.000000 0.000000 0.046513
#
#
# Mechanical properties :
#
#
# Convention : Reuss Voigt Hill
#
# Bulk Modulus (GPa) = 32.37111 40.71401 36.54256
# Shear Modulus (GPa) = 17.88469 19.06535 18.47502
#
# Velocity S-wave (km/s) = 3.17740 3.28060 3.22941
# Velocity P-wave (km/s) = 5.63334 6.11005 5.87653
#
# Compressibility (1/GPa) = 0.03089174
#
# Stress axis : x y z
#
# Youngs Moduli (GPa) = 59.20210 59.20210 28.39717
#
# Poissons Ratio (x) = 0.37684 0.18014
# Poissons Ratio (y) = 0.37684 0.18014
# Poissons Ratio (z) = 0.37556 0.37556
#
# Static dielectric constant tensor:
#      x y z
#    x 3.253120 0.000000 0.000000 
#    y 0.000000 3.253120 0.000000 
#    z 0.000000 0.000000 3.538060 
# 
# 
# High freq. dielectric constant tensor:
#      x y z
#    x 1.650320 0.000000 0.000000 
#    y 0.000000 1.650320 0.000000 
#    z 0.000000 0.000000 1.714930 
# 
# From -- ./inp_files/4072.got.cif
#   From: 2010.03.12/outbox.cif.g09.slc.cpg/sg193_3_cif.got.tgz:4072.got - 2010.04.01 12:20:39.
