data_PCOD8330219
_publ_section_title
;
Structure prediction by ZEFSAII (Michael W. Deem and Ramdas Pophale) SiO2 
 PCOD8330219
Probable space group: P 63/M C M
;
_chemical_formula_sum "Si O2"
_cell_formula_units_Z 90
_cell_length_a 18.092057
_cell_length_b 18.092057
_cell_length_c 16.884702
_cell_angle_alpha 90.000000
_cell_angle_beta 90.000000
_cell_angle_gamma 120.000000
_cell_volume 4786.300113
_symmetry_space_group_name_H-M "P 63/M C M"
_symmetry_group_IT_number 193
_symmetry_cell_setting 'hexagonal'
loop_
_space_group_symop_operation_xyz
x,y,z
x-y,x,1/2+z
-y,x-y,z
-x,-y,1/2+z
-x+y,-x,z
y,-x+y,1/2+z
x-y,-y,1/2-z
-x,-x+y,1/2-z
y,x,1/2-z
-y,-x,-z
-x+y,y,-z
x,x-y,-z
-x,-y,-z
-x+y,-x,1/2-z
y,-x+y,-z
x,y,1/2-z
x-y,x,-z
-y,x-y,1/2-z
-x+y,y,1/2+z
x,x-y,1/2+z
-y,-x,1/2+z
y,x,z
x-y,-y,z
-x,-x+y,z
loop_
_atom_site_type_symbol
_atom_site_label
_atom_site_fract_x
_atom_site_fract_y
_atom_site_fract_z
Si Si1 0.833658 0.221504 0.410912
Si Si2 0.501381 0.899390 0.659261
Si Si3 0.764481 0.000000 0.838624
Si Si4 0.657386 0.564497 0.657708
Si Si5 0.905580 0.000000 0.750000
O O1 0.808258 0.191743 0.500000
O O2 0.850799 0.316774 0.398135
O O3 0.755198 0.158408 0.356875
O O4 0.916251 0.216075 0.386586
O O5 0.497792 0.868740 0.750000
O O6 0.407809 0.876264 0.626606
O O7 0.566543 0.000000 0.652935
O O8 0.853725 0.000000 0.828266
O O9 0.727165 0.000000 0.750000
O O10 0.640170 0.560086 0.750000
O O11 0.630679 0.630679 0.619921
O O12 0.000000 0.084406 0.750000
#
# Coordination Sequence:
#
# PCOD8330219 Si02
#       5
#    24  24  12  24   6
#     4  12  24  36  59  95 130 162 207 259 325 380
#     4   9  18  38  65  85 116 159 206 247 297 372
#     4  10  22  42  67  87 118 175 221 263 302 402
#     4   9  20  38  62  90 114 155 207 260 305 366
#     4   8  20  44  66  92 108 156 230 272 334 352
#
# _framework density 18.803667999999998
#
# number of rings (size 3 to 8) (size 9 to 14) (size 15 to 20)
#    0.533    1.600    1.333    4.000    1.867    2.133 
#    1.600    2.667    0.000    0.800    0.000    0.000 
#    0.000    0.000    0.000    0.000    0.000    0.000 
#
# Total GULP energy -1115478.554839 kJ/mol
# GULP energy per Si atom -12394.206165 kJ/mol
# Density = 1.876087 g / cm^3
# Si number density = 18.803668 Si / 1000 Ang^3
#
#
#
# Elastic Constant Matrix: (Units=GPa)
#
#
# Indices 1 2 3 4 5 6 
#
# 1 142.5359 80.1333 36.7507 0.0000 0.0000 0.0000
# 2 80.1333 142.5359 36.7507 0.0000 0.0000 0.0000
# 3 36.7507 36.7507 72.5989 0.0000 0.0000 0.0000
# 4 0.0000 0.0000 0.0000 39.5618 0.0000 0.0000
# 5 0.0000 0.0000 0.0000 0.0000 39.5618 0.0000
# 6 0.0000 0.0000 0.0000 0.0000 0.0000 31.2013
#
#
#
# Elastic Compliance Matrix: (Units=1/GPa)
#
#
# Indices 1 2 3 4 5 6 
#
# 1 0.010708 -0.005317 -0.002729 0.000000 0.000000 0.000000
# 2 -0.005317 0.010708 -0.002729 0.000000 0.000000 0.000000
# 3 -0.002729 -0.002729 0.016538 0.000000 0.000000 0.000000
# 4 0.000000 0.000000 0.000000 0.025277 0.000000 0.000000
# 5 0.000000 0.000000 0.000000 0.000000 0.025277 0.000000
# 6 0.000000 0.000000 0.000000 0.000000 0.000000 0.032050
#
#
# Mechanical properties :
#
#
# Convention : Reuss Voigt Hill
#
# Bulk Modulus (GPa) = 60.96194 73.88222 67.42208
# Shear Modulus (GPa) = 33.88055 35.66738 34.77396
#
# Velocity S-wave (km/s) = 4.24937 4.35999 4.30504
# Velocity P-wave (km/s) = 7.52109 8.04504 7.78747
#
# Compressibility (1/GPa) = 0.01640368
#
# Stress axis : x y z
#
# Youngs Moduli (GPa) = 93.38404 93.38404 60.46782
#
# Poissons Ratio (x) = 0.49648 0.16505
# Poissons Ratio (y) = 0.49648 0.16505
# Poissons Ratio (z) = 0.25489 0.25489
#
# Static dielectric constant tensor:
#      x y z
#    x 4.095620 0.000000 0.000000 
#    y 0.000000 4.095620 0.000000 
#    z 0.000000 0.000000 3.213200 
# 
# 
# High freq. dielectric constant tensor:
#      x y z
#    x 1.733360 0.000000 0.000000 
#    y 0.000000 1.733360 0.000000 
#    z 0.000000 0.000000 1.707860 
# 
# From -- ./inp_files/5097.got.cif
#   From: 2010.03.12/outbox.cif.g09.slc.cpg/sg193_3_cif.got.tgz:5097.got - 2010.04.01 12:20:39.
