data_PCOD8330488
_publ_section_title
;
Structure prediction by ZEFSAII (Michael W. Deem and Ramdas Pophale) SiO2 
 PCOD8330488
Probable space group: P 63/M M C
;
_chemical_formula_sum "Si O2"
_cell_formula_units_Z 192
_cell_length_a 21.947842
_cell_length_b 21.947842
_cell_length_c 27.358897
_cell_angle_alpha 90.000000
_cell_angle_beta 90.000000
_cell_angle_gamma 120.000000
_cell_volume 11413.342926
_symmetry_space_group_name_H-M "P 63/M M C"
_symmetry_group_IT_number 194
_symmetry_cell_setting 'hexagonal'
loop_
_space_group_symop_operation_xyz
x,y,z
x-y,x,1/2+z
-y,x-y,z
-x,-y,1/2+z
-x+y,-x,z
y,-x+y,1/2+z
x-y,-y,-z
-x,-x+y,-z
y,x,-z
-y,-x,1/2-z
-x+y,y,1/2-z
x,x-y,1/2-z
-x,-y,-z
-x+y,-x,1/2-z
y,-x+y,-z
x,y,1/2-z
x-y,x,-z
-y,x-y,1/2-z
-x+y,y,z
x,x-y,z
-y,-x,z
y,x,1/2+z
x-y,-y,1/2+z
-x,-x+y,1/2+z
loop_
_atom_site_type_symbol
_atom_site_label
_atom_site_fract_x
_atom_site_fract_y
_atom_site_fract_z
Si Si1 0.333180 0.807486 0.568871
Si Si2 0.386111 0.124342 0.384153
Si Si3 0.066972 0.274843 0.361322
Si Si4 0.677599 0.690785 0.447528
Si Si5 0.192621 0.664640 0.123924
Si Si6 0.377979 0.484680 0.470924
Si Si7 0.864695 0.278079 0.696429
Si Si8 0.208825 0.931869 0.805625
O O1 0.402679 0.805358 0.583699
O O2 0.271298 0.728703 0.556825
O O3 0.311392 0.840389 0.614382
O O4 0.345570 0.857287 0.522475
O O5 0.366046 0.183023 0.401181
O O6 0.354424 0.096629 0.329947
O O7 0.354130 0.060874 0.421754
O O8 0.125838 0.251675 0.362778
O O9 0.062023 0.302002 0.415355
O O10 0.083799 0.335967 0.322851
O O11 0.994058 0.211913 0.339775
O O12 0.715958 0.715958 0.500000
O O13 0.594072 0.641114 0.457367
O O14 0.203685 0.601843 0.141699
O O15 0.265004 0.734996 0.129556
O O16 0.168707 0.657085 0.068315
O O17 0.133493 0.664370 0.159257
O O18 0.463048 0.536953 0.470434
O O19 0.890533 0.312067 0.750000
O O20 0.786358 0.213643 0.699548
O O21 0.234647 0.955932 0.750000
O O22 0.127732 0.872269 0.805808
#
# Coordination Sequence:
#
# PCOD8330488 Si02
#       8
#    24  24  24  24  24  24  24  24
#     4  10  19  31  48  70  97 130 169 215 266 318
#     4   9  19  33  49  71  98 128 163 204 251 300
#     4  10  20  33  53  80 107 135 165 199 245 295
#     4  11  20  32  49  73 100 135 171 206 247 294
#     4  10  19  31  45  64  92 130 175 219 261 302
#     4  10  20  31  46  68  95 132 174 219 266 309
#     4   9  17  29  46  68  94 126 168 214 253 291
#     4   9  18  34  56  80 104 130 163 202 243 293
#
# _framework density 16.822414999999999
#
# number of rings (size 3 to 8) (size 9 to 14) (size 15 to 20)
#    0.000    2.250    2.500    1.000    0.000    2.750 
#    0.000    1.250    0.000    1.375    0.000    0.000 
#    0.000    1.500    0.000    0.000    0.000    0.000 
#
# Total GULP energy -2379677.937324 kJ/mol
# GULP energy per Si atom -12394.155924 kJ/mol
# Density = 1.678413 g / cm^3
# Si number density = 16.822415 Si / 1000 Ang^3
#
#
#
# Elastic Constant Matrix: (Units=GPa)
#
#
# Indices 1 2 3 4 5 6 
#
# 1 84.2329 39.7455 35.9549 0.0000 0.0000 0.0000
# 2 39.7455 84.2329 35.9549 0.0000 0.0000 0.0000
# 3 35.9549 35.9549 88.7720 0.0000 0.0000 0.0000
# 4 0.0000 0.0000 0.0000 21.0092 0.0000 0.0000
# 5 0.0000 0.0000 0.0000 0.0000 21.0092 0.0000
# 6 0.0000 0.0000 0.0000 0.0000 0.0000 22.2437
#
#
#
# Elastic Compliance Matrix: (Units=1/GPa)
#
#
# Indices 1 2 3 4 5 6 
#
# 1 0.016510 -0.005968 -0.004270 0.000000 0.000000 0.000000
# 2 -0.005968 0.016510 -0.004270 0.000000 0.000000 0.000000
# 3 -0.004270 -0.004270 0.014724 0.000000 0.000000 0.000000
# 4 0.000000 0.000000 0.000000 0.047598 0.000000 0.000000
# 5 0.000000 0.000000 0.000000 0.000000 0.047598 0.000000
# 6 0.000000 0.000000 0.000000 0.000000 0.000000 0.044957
#
#
# Mechanical properties :
#
#
# Convention : Reuss Voigt Hill
#
# Bulk Modulus (GPa) = 53.39349 53.39428 53.39389
# Shear Modulus (GPa) = 22.40582 22.55792 22.48187
#
# Velocity S-wave (km/s) = 3.65348 3.66586 3.65968
# Velocity P-wave (km/s) = 7.04313 7.05173 7.04743
#
# Compressibility (1/GPa) = 0.01872887
#
# Stress axis : x y z
#
# Youngs Moduli (GPa) = 60.56771 60.56771 67.91742
#
# Poissons Ratio (x) = 0.36146 0.29001
# Poissons Ratio (y) = 0.36146 0.29001
# Poissons Ratio (z) = 0.25863 0.25863
#
# Static dielectric constant tensor:
#      x y z
#    x 3.145050 0.000000 0.000000 
#    y 0.000000 3.145050 0.000000 
#    z 0.000000 0.000000 3.391310 
# 
# 
# High freq. dielectric constant tensor:
#      x y z
#    x 1.640050 0.000000 0.000000 
#    y 0.000000 1.640050 0.000000 
#    z 0.000000 0.000000 1.647230 
# 
# From -- ./inp_files/11226.got.cif
#   From: 2010.03.12/outbox.cif.g09.slc.cpg/sg194_6_cif.got.tgz:11226.got - 2010.04.01 12:26:19.
