data_PCOD8330536
_publ_section_title
;
Structure prediction by ZEFSAII (Michael W. Deem and Ramdas Pophale) SiO2 
 PCOD8330536
Probable space group: P 63/M M C
;
_chemical_formula_sum "Si O2"
_cell_formula_units_Z 108
_cell_length_a 31.135588
_cell_length_b 31.135588
_cell_length_c 7.918847
_cell_angle_alpha 90.000000
_cell_angle_beta 90.000000
_cell_angle_gamma 120.000000
_cell_volume 6648.240588
_symmetry_space_group_name_H-M "P 63/M M C"
_symmetry_group_IT_number 194
_symmetry_cell_setting 'hexagonal'
loop_
_space_group_symop_operation_xyz
x,y,z
x-y,x,1/2+z
-y,x-y,z
-x,-y,1/2+z
-x+y,-x,z
y,-x+y,1/2+z
x-y,-y,-z
-x,-x+y,-z
y,x,-z
-y,-x,1/2-z
-x+y,y,1/2-z
x,x-y,1/2-z
-x,-y,-z
-x+y,-x,1/2-z
y,-x+y,-z
x,y,1/2-z
x-y,x,-z
-y,x-y,1/2-z
-x+y,y,z
x,x-y,z
-y,-x,z
y,x,1/2+z
x-y,-y,1/2+z
-x,-x+y,1/2+z
loop_
_atom_site_type_symbol
_atom_site_label
_atom_site_fract_x
_atom_site_fract_y
_atom_site_fract_z
Si Si1 0.148306 0.395021 0.050208
Si Si2 0.798443 0.851564 0.050831
Si Si3 0.244705 0.297917 0.051080
Si Si4 0.565649 0.231609 0.750000
Si Si5 0.498808 0.800339 0.562464
O O1 0.147424 0.400946 0.250000
O O2 0.192481 0.384962 0.997562
O O3 0.097094 0.349653 0.978533
O O4 0.155093 0.445227 0.967009
O O5 0.794218 0.852226 0.250000
O O6 0.806195 0.903098 0.974327
O O7 0.747826 0.805825 0.974833
O O8 0.845009 0.845009 0.000000
O O9 0.239782 0.298575 0.250000
O O10 0.291238 0.291238 0.000000
O O11 0.620948 0.241895 0.750000
O O12 0.568015 0.284008 0.750000
O O13 0.537804 0.199989 0.582215
O O14 0.480856 0.805842 0.750000
O O15 0.499568 0.749784 0.546877
#
# Coordination Sequence:
#
# PCOD8330536 Si02
#       5
#    24  24  24  12  24
#     4   9  15  26  44  62  83 118 156 185 219 265
#     4   9  17  29  43  60  82 109 142 177 218 266
#     4   9  17  27  40  60  88 118 144 177 216 263
#     4  10  19  32  48  68  96 128 160 192 229 268
#     4   9  17  29  45  66  91 120 155 194 230 266
#
# _framework density 16.244900999999999
#
# number of rings (size 3 to 8) (size 9 to 14) (size 15 to 20)
#    0.000    2.889    1.111    0.778    0.000    4.444 
#    0.000    0.000    0.000    5.556    0.000    0.000 
#    0.000    0.889    0.444    0.000    0.000    0.000 
#
# Total GULP energy -1338667.138484 kJ/mol
# GULP energy per Si atom -12395.066097 kJ/mol
# Density = 1.620793 g / cm^3
# Si number density = 16.244901 Si / 1000 Ang^3
#
#
#
# Elastic Constant Matrix: (Units=GPa)
#
#
# Indices 1 2 3 4 5 6 
#
# 1 80.8280 35.4120 31.2454 0.0000 0.0000 0.0000
# 2 35.4120 80.8280 31.2454 0.0000 0.0000 0.0000
# 3 31.2454 31.2454 65.6543 0.0000 0.0000 0.0000
# 4 0.0000 0.0000 0.0000 14.7843 0.0000 0.0000
# 5 0.0000 0.0000 0.0000 0.0000 14.7843 0.0000
# 6 0.0000 0.0000 0.0000 0.0000 0.0000 22.7080
#
#
#
# Elastic Compliance Matrix: (Units=1/GPa)
#
#
# Indices 1 2 3 4 5 6 
#
# 1 0.016790 -0.005229 -0.005502 0.000000 0.000000 0.000000
# 2 -0.005229 0.016790 -0.005502 0.000000 0.000000 0.000000
# 3 -0.005502 -0.005502 0.020468 0.000000 0.000000 0.000000
# 4 0.000000 0.000000 0.000000 0.067639 0.000000 0.000000
# 5 0.000000 0.000000 0.000000 0.000000 0.067639 0.000000
# 6 0.000000 0.000000 0.000000 0.000000 0.000000 0.044037
#
#
# Mechanical properties :
#
#
# Convention : Reuss Voigt Hill
#
# Bulk Modulus (GPa) = 46.33469 47.01287 46.67378
# Shear Modulus (GPa) = 18.31349 19.08248 18.69799
#
# Velocity S-wave (km/s) = 3.36123 3.43107 3.39633
# Velocity P-wave (km/s) = 6.60669 6.68575 6.64634
#
# Compressibility (1/GPa) = 0.02158210
#
# Stress axis : x y z
#
# Youngs Moduli (GPa) = 59.56043 59.56043 48.85674
#
# Poissons Ratio (x) = 0.31144 0.26880
# Poissons Ratio (y) = 0.31144 0.26880
# Poissons Ratio (z) = 0.32769 0.32769
#
# Static dielectric constant tensor:
#      x y z
#    x 3.006720 0.000000 0.000000 
#    y 0.000000 3.006720 0.000000 
#    z 0.000000 0.000000 3.079480 
# 
# 
# High freq. dielectric constant tensor:
#      x y z
#    x 1.596850 0.000000 0.000000 
#    y 0.000000 1.596850 0.000000 
#    z 0.000000 0.000000 1.626730 
# 
# From -- ./inp_files/1848.got.cif
#   From: 2010.03.12/outbox.cif.g09.slc.cpg/sg194_1_cif.got.tgz:1848.got - 2010.04.01 12:26:19.
