data_PCOD8330441
_publ_section_title
;
Structure prediction by ZEFSAII (Michael W. Deem and Ramdas Pophale) SiO2 
 PCOD8330441
Probable space group: P 63/M M C
;
_chemical_formula_sum "Si O2"
_cell_formula_units_Z 108
_cell_length_a 30.946627
_cell_length_b 30.946627
_cell_length_c 8.131263
_cell_angle_alpha 90.000000
_cell_angle_beta 90.000000
_cell_angle_gamma 120.000000
_cell_volume 6743.964581
_symmetry_space_group_name_H-M "P 63/M M C"
_symmetry_group_IT_number 194
_symmetry_cell_setting 'hexagonal'
loop_
_space_group_symop_operation_xyz
x,y,z
x-y,x,1/2+z
-y,x-y,z
-x,-y,1/2+z
-x+y,-x,z
y,-x+y,1/2+z
x-y,-y,-z
-x,-x+y,-z
y,x,-z
-y,-x,1/2-z
-x+y,y,1/2-z
x,x-y,1/2-z
-x,-y,-z
-x+y,-x,1/2-z
y,-x+y,-z
x,y,1/2-z
x-y,x,-z
-y,x-y,1/2-z
-x+y,y,z
x,x-y,z
-y,-x,z
y,x,1/2+z
x-y,-y,1/2+z
-x,-x+y,1/2+z
loop_
_atom_site_type_symbol
_atom_site_label
_atom_site_fract_x
_atom_site_fract_y
_atom_site_fract_z
Si Si1 0.147948 0.392184 0.941104
Si Si2 0.796726 0.850238 0.055247
Si Si3 0.246667 0.298834 0.059943
Si Si4 0.565316 0.231199 0.750000
Si Si5 0.495560 0.799144 0.566300
O O1 0.144405 0.380515 0.750000
O O2 0.193080 0.386159 0.017869
O O3 0.157859 0.447910 0.972324
O O4 0.096102 0.354088 0.023333
O O5 0.794702 0.851446 0.250000
O O6 0.804861 0.902431 0.982508
O O7 0.744505 0.805299 0.980940
O O8 0.842329 0.842329 0.000000
O O9 0.241267 0.289392 0.250000
O O10 0.293250 0.293250 0.000000
O O11 0.621536 0.243071 0.750000
O O12 0.565458 0.282729 0.750000
O O13 0.538837 0.200386 0.582712
O O14 0.478966 0.807737 0.750000
O O15 0.493849 0.746925 0.570663
#
# Coordination Sequence:
#
# PCOD8330441 Si02
#       5
#    24  24  24  12  24
#     4   9  17  29  45  64  87 118 153 187 224 267
#     4   9  18  31  44  61  84 109 141 177 215 261
#     4  10  19  29  42  62  90 120 146 179 218 265
#     4  10  19  30  46  68  96 128 162 196 233 272
#     4   8  16  30  45  64  91 122 156 195 233 271
#
# _framework density 16.014319
#
# number of rings (size 3 to 8) (size 9 to 14) (size 15 to 20)
#    0.000    2.889    0.000    2.778    1.556    3.111 
#    0.000    0.000    0.000    1.556    0.000    0.000 
#    0.000    0.889    0.444    0.000    0.000    0.000 
#
# Total GULP energy -1338421.050670 kJ/mol
# GULP energy per Si atom -12392.787506 kJ/mol
# Density = 1.597787 g / cm^3
# Si number density = 16.014319 Si / 1000 Ang^3
#
#
#
# Elastic Constant Matrix: (Units=GPa)
#
#
# Indices 1 2 3 4 5 6 
#
# 1 71.0379 21.2681 33.1372 0.0000 0.0000 0.0000
# 2 21.2681 71.0379 33.1372 0.0000 0.0000 0.0000
# 3 33.1372 33.1372 70.2522 0.0000 0.0000 0.0000
# 4 0.0000 0.0000 0.0000 21.5351 0.0000 0.0000
# 5 0.0000 0.0000 0.0000 0.0000 21.5351 0.0000
# 6 0.0000 0.0000 0.0000 0.0000 0.0000 24.8849
#
#
#
# Elastic Compliance Matrix: (Units=1/GPa)
#
#
# Indices 1 2 3 4 5 6 
#
# 1 0.018237 -0.001856 -0.007727 0.000000 0.000000 0.000000
# 2 -0.001856 0.018237 -0.007727 0.000000 0.000000 0.000000
# 3 -0.007727 -0.007727 0.021524 0.000000 0.000000 0.000000
# 4 0.000000 0.000000 0.000000 0.046436 0.000000 0.000000
# 5 0.000000 0.000000 0.000000 0.000000 0.046436 0.000000
# 6 0.000000 0.000000 0.000000 0.000000 0.000000 0.040185
#
#
# Mechanical properties :
#
#
# Convention : Reuss Voigt Hill
#
# Bulk Modulus (GPa) = 42.77361 43.04588 42.90974
# Shear Modulus (GPa) = 21.41642 21.91008 21.66325
#
# Velocity S-wave (km/s) = 3.66092 3.70287 3.68195
# Velocity P-wave (km/s) = 6.68112 6.72456 6.70287
#
# Compressibility (1/GPa) = 0.02337890
#
# Stress axis : x y z
#
# Youngs Moduli (GPa) = 54.83386 54.83386 46.46021
#
# Poissons Ratio (x) = 0.10175 0.35899
# Poissons Ratio (y) = 0.10175 0.35899
# Poissons Ratio (z) = 0.42370 0.42370
#
# Static dielectric constant tensor:
#      x y z
#    x 2.918180 0.000000 0.000000 
#    y 0.000000 2.918180 0.000000 
#    z 0.000000 0.000000 3.206550 
# 
# 
# High freq. dielectric constant tensor:
#      x y z
#    x 1.587460 0.000000 0.000000 
#    y 0.000000 1.587460 0.000000 
#    z 0.000000 0.000000 1.624090 
# 
# From -- ./inp_files/1837.got.cif
#   From: 2010.03.12/outbox.cif.g09.slc.cpg/sg194_1_cif.got.tgz:1837.got - 2010.04.01 12:26:19.
