data_PCOD8330571
_publ_section_title
;
Structure prediction by ZEFSAII (Michael W. Deem and Ramdas Pophale) SiO2 
 PCOD8330571
Probable space group: P 63/M M C
;
_chemical_formula_sum "Si O2"
_cell_formula_units_Z 168
_cell_length_a 22.178348
_cell_length_b 22.178348
_cell_length_c 21.574436
_cell_angle_alpha 90.000000
_cell_angle_beta 90.000000
_cell_angle_gamma 120.000000
_cell_volume 9190.274224
_symmetry_space_group_name_H-M "P 63/M M C"
_symmetry_group_IT_number 194
_symmetry_cell_setting 'hexagonal'
loop_
_space_group_symop_operation_xyz
x,y,z
x-y,x,1/2+z
-y,x-y,z
-x,-y,1/2+z
-x+y,-x,z
y,-x+y,1/2+z
x-y,-y,-z
-x,-x+y,-z
y,x,-z
-y,-x,1/2-z
-x+y,y,1/2-z
x,x-y,1/2-z
-x,-y,-z
-x+y,-x,1/2-z
y,-x+y,-z
x,y,1/2-z
x-y,x,-z
-y,x-y,1/2-z
-x+y,y,z
x,x-y,z
-y,-x,z
y,x,1/2+z
x-y,-y,1/2+z
-x,-x+y,1/2+z
loop_
_atom_site_type_symbol
_atom_site_label
_atom_site_fract_x
_atom_site_fract_y
_atom_site_fract_z
Si Si1 0.804322 0.054885 0.053667
Si Si2 0.524753 0.191317 0.430102
Si Si3 0.737051 0.119776 0.858593
Si Si4 0.282530 0.428243 0.680253
Si Si5 0.261172 0.279992 0.680855
Si Si6 0.732671 0.126533 0.995673
Si Si7 0.666314 0.200237 0.677349
O O1 0.883171 0.116830 0.047743
O O2 0.790894 0.025291 0.124537
O O3 0.748720 0.080692 0.043038
O O4 0.795129 0.000000 0.000000
O O5 0.595204 0.190408 0.441101
O O6 0.540080 0.270040 0.436913
O O7 0.493062 0.160043 0.362755
O O8 0.467610 0.138599 0.479641
O O9 0.813076 0.186925 0.850959
O O10 0.677105 0.135573 0.836936
O O11 0.733978 0.059309 0.816653
O O12 0.717215 0.090407 0.928614
O O13 0.302234 0.456157 0.750000
O O14 0.202076 0.404153 0.664595
O O15 0.290955 0.361556 0.668964
O O16 0.225385 0.259332 0.750000
O O17 0.798167 0.201834 0.987640
O O18 0.665916 0.210477 0.750000
O O19 0.593423 0.186846 0.648281
O O20 0.729346 0.270655 0.647356
#
# Coordination Sequence:
#
# PCOD8330571 Si02
#       7
#    24  24  24  24  24  24  24
#     4  11  21  37  62  88 116 149 189 230 270 326
#     4  10  19  32  51  76 104 136 180 237 296 345
#     4  10  20  34  52  77 111 147 181 226 285 340
#     4   9  18  33  51  71  99 138 183 226 274 337
#     4  11  21  33  56  86 115 147 186 233 283 329
#     4   9  18  33  52  73 101 142 183 220 266 325
#     4   9  17  30  48  69  96 136 187 239 289 342
#
# _framework density 18.280194000000002
#
# number of rings (size 3 to 8) (size 9 to 14) (size 15 to 20)
#    0.000    2.143    2.857    1.143    0.000    3.143 
#    0.000    0.714    0.000    4.857    0.000    0.000 
#    0.000    0.000    0.000    0.000    0.000    0.000 
#
# Total GULP energy -2082291.831497 kJ/mol
# GULP energy per Si atom -12394.594235 kJ/mol
# Density = 1.823859 g / cm^3
# Si number density = 18.280194 Si / 1000 Ang^3
#
#
#
# Elastic Constant Matrix: (Units=GPa)
#
#
# Indices 1 2 3 4 5 6 
#
# 1 80.0146 42.6107 27.6127 0.0000 0.0000 0.0000
# 2 42.6107 80.0146 27.6127 0.0000 0.0000 0.0000
# 3 27.6127 27.6127 103.8686 0.0000 0.0000 0.0000
# 4 0.0000 0.0000 0.0000 23.6330 0.0000 0.0000
# 5 0.0000 0.0000 0.0000 0.0000 23.6330 0.0000
# 6 0.0000 0.0000 0.0000 0.0000 0.0000 18.7019
#
#
#
# Elastic Compliance Matrix: (Units=1/GPa)
#
#
# Indices 1 2 3 4 5 6 
#
# 1 0.018000 -0.008736 -0.002463 0.000000 0.000000 0.000000
# 2 -0.008736 0.018000 -0.002463 0.000000 0.000000 0.000000
# 3 -0.002463 -0.002463 0.010937 0.000000 0.000000 0.000000
# 4 0.000000 0.000000 0.000000 0.042314 0.000000 0.000000
# 5 0.000000 0.000000 0.000000 0.000000 0.042314 0.000000
# 6 0.000000 0.000000 0.000000 0.000000 0.000000 0.053470
#
#
# Mechanical properties :
#
#
# Convention : Reuss Voigt Hill
#
# Bulk Modulus (GPa) = 50.98409 51.06334 51.02372
# Shear Modulus (GPa) = 22.84208 24.26437 23.55323
#
# Velocity S-wave (km/s) = 3.53874 3.64725 3.59340
# Velocity P-wave (km/s) = 6.68190 6.76246 6.72230
#
# Compressibility (1/GPa) = 0.01961396
#
# Stress axis : x y z
#
# Youngs Moduli (GPa) = 55.55672 55.55672 91.43296
#
# Poissons Ratio (x) = 0.48532 0.22518
# Poissons Ratio (y) = 0.48532 0.22518
# Poissons Ratio (z) = 0.13682 0.13682
#
# Static dielectric constant tensor:
#      x y z
#    x 3.184430 0.000000 0.000000 
#    y 0.000000 3.184430 0.000000 
#    z 0.000000 0.000000 3.727120 
# 
# 
# High freq. dielectric constant tensor:
#      x y z
#    x 1.683640 0.000000 0.000000 
#    y 0.000000 1.683640 0.000000 
#    z 0.000000 0.000000 1.725340 
# 
# From -- ./inp_files/9790.got.cif
#   From: 2010.03.12/outbox.cif.g09.slc.cpg/sg194_5_cif.got.tgz:9790.got - 2010.04.01 12:26:19.
