data_PCOD8330354
_publ_section_title
;
Structure prediction by ZEFSAII (Michael W. Deem and Ramdas Pophale) SiO2 
 PCOD8330354
Probable space group: P 63/M M C
;
_chemical_formula_sum "Si O2"
_cell_formula_units_Z 96
_cell_length_a 16.422024
_cell_length_b 16.422024
_cell_length_c 28.154245
_cell_angle_alpha 90.000000
_cell_angle_beta 90.000000
_cell_angle_gamma 120.000000
_cell_volume 6575.486375
_symmetry_space_group_name_H-M "P 63/M M C"
_symmetry_group_IT_number 194
_symmetry_cell_setting 'hexagonal'
loop_
_space_group_symop_operation_xyz
x,y,z
x-y,x,1/2+z
-y,x-y,z
-x,-y,1/2+z
-x+y,-x,z
y,-x+y,1/2+z
x-y,-y,-z
-x,-x+y,-z
y,x,-z
-y,-x,1/2-z
-x+y,y,1/2-z
x,x-y,1/2-z
-x,-y,-z
-x+y,-x,1/2-z
y,-x+y,-z
x,y,1/2-z
x-y,x,-z
-y,x-y,1/2-z
-x+y,y,z
x,x-y,z
-y,-x,z
y,x,1/2+z
x-y,-y,1/2+z
-x,-x+y,1/2+z
loop_
_atom_site_type_symbol
_atom_site_label
_atom_site_fract_x
_atom_site_fract_y
_atom_site_fract_z
Si Si1 0.232394 0.280809 0.852719
Si Si2 0.812752 0.000195 0.447192
Si Si3 0.221525 0.778476 0.301448
Si Si4 0.110460 0.220919 0.302238
Si Si5 0.388192 0.428643 0.193417
O O1 0.157365 0.314729 0.843285
O O2 0.244507 0.270390 0.909150
O O3 0.191243 0.177475 0.829649
O O4 0.330752 0.361538 0.831483
O O5 0.923485 0.076516 0.445242
O O6 0.773417 0.000000 0.500000
O O7 0.798723 0.899362 0.433845
O O8 0.246428 0.753573 0.250000
O O9 0.165878 0.834122 0.296329
O O10 0.320416 0.851968 0.326633
O O11 0.086721 0.173441 0.250000
O O12 0.372303 0.411650 0.250000
O O13 0.495660 0.504341 0.181148
#
# Coordination Sequence:
#
# PCOD8330354 Si02
#       5
#    24  24  12  12  24
#     4  10  18  28  43  62  87 117 148 179 215 256
#     4   9  16  26  41  61  86 117 151 184 213 246
#     4   7  12  24  40  56  76 101 131 167 204 244
#     4   9  16  26  38  56  85 117 143 167 203 254
#     4   9  17  29  44  61  83 112 143 175 214 258
#
# _framework density 14.599679999999999
#
# number of rings (size 3 to 8) (size 9 to 14) (size 15 to 20)
#    0.000    3.000    1.250    2.500    0.000    3.000 
#    1.500    0.000    0.000    1.250    0.000    0.000 
#    0.000    0.000    0.000    0.000    0.000    0.000 
#
# Total GULP energy -1189270.564247 kJ/mol
# GULP energy per Si atom -12388.235044 kJ/mol
# Density = 1.456645 g / cm^3
# Si number density = 14.599680 Si / 1000 Ang^3
#
#
#
# Elastic Constant Matrix: (Units=GPa)
#
#
# Indices 1 2 3 4 5 6 
#
# 1 80.4731 43.9055 35.9669 0.0000 0.0000 0.0000
# 2 43.9055 80.4731 35.9669 0.0000 0.0000 0.0000
# 3 35.9669 35.9669 79.0152 0.0000 0.0000 0.0000
# 4 0.0000 0.0000 0.0000 15.9954 0.0000 0.0000
# 5 0.0000 0.0000 0.0000 0.0000 15.9954 0.0000
# 6 0.0000 0.0000 0.0000 0.0000 0.0000 18.2838
#
#
#
# Elastic Compliance Matrix: (Units=1/GPa)
#
#
# Indices 1 2 3 4 5 6 
#
# 1 0.019130 -0.008217 -0.004967 0.000000 0.000000 0.000000
# 2 -0.008217 0.019130 -0.004967 0.000000 0.000000 0.000000
# 3 -0.004967 -0.004967 0.017178 0.000000 0.000000 0.000000
# 4 0.000000 0.000000 0.000000 0.062518 0.000000 0.000000
# 5 0.000000 0.000000 0.000000 0.000000 0.062518 0.000000
# 6 0.000000 0.000000 0.000000 0.000000 0.000000 0.054693
#
#
# Mechanical properties :
#
#
# Convention : Reuss Voigt Hill
#
# Bulk Modulus (GPa) = 52.26285 52.40447 52.33366
# Shear Modulus (GPa) = 17.99543 18.32972 18.16258
#
# Velocity S-wave (km/s) = 3.51464 3.54713 3.53092
# Velocity P-wave (km/s) = 7.23500 7.26281 7.24892
#
# Compressibility (1/GPa) = 0.01913405
#
# Stress axis : x y z
#
# Youngs Moduli (GPa) = 52.27462 52.27462 58.21391
#
# Poissons Ratio (x) = 0.42953 0.28917
# Poissons Ratio (y) = 0.42953 0.28917
# Poissons Ratio (z) = 0.25967 0.25967
#
# Static dielectric constant tensor:
#      x y z
#    x 2.675850 0.000000 0.000000 
#    y 0.000000 2.675850 0.000000 
#    z 0.000000 0.000000 2.919000 
# 
# 
# High freq. dielectric constant tensor:
#      x y z
#    x 1.532180 0.000000 0.000000 
#    y 0.000000 1.532180 0.000000 
#    z 0.000000 0.000000 1.546670 
# 
# From -- ./inp_files/11566.got.cif
#   From: 2010.03.12/outbox.cif.g09.slc.cpg/sg194_6_cif.got.tgz:11566.got - 2010.04.01 12:26:19.
