data_PCOD8330827
_publ_section_title
;
Structure prediction by ZEFSAII (Michael W. Deem and Ramdas Pophale) SiO2 
 PCOD8330827
Probable space group: P 63/M M C
;
_chemical_formula_sum "Si O2"
_cell_formula_units_Z 66
_cell_length_a 11.626661
_cell_length_b 11.626661
_cell_length_c 26.850067
_cell_angle_alpha 90.000000
_cell_angle_beta 90.000000
_cell_angle_gamma 120.000000
_cell_volume 3143.301394
_symmetry_space_group_name_H-M "P 63/M M C"
_symmetry_group_IT_number 194
_symmetry_cell_setting 'hexagonal'
loop_
_space_group_symop_operation_xyz
x,y,z
x-y,x,1/2+z
-y,x-y,z
-x,-y,1/2+z
-x+y,-x,z
y,-x+y,1/2+z
x-y,-y,-z
-x,-x+y,-z
y,x,-z
-y,-x,1/2-z
-x+y,y,1/2-z
x,x-y,1/2-z
-x,-y,-z
-x+y,-x,1/2-z
y,-x+y,-z
x,y,1/2-z
x-y,x,-z
-y,x-y,1/2-z
-x+y,y,z
x,x-y,z
-y,-x,z
y,x,1/2+z
x-y,-y,1/2+z
-x,-x+y,1/2+z
loop_
_atom_site_type_symbol
_atom_site_label
_atom_site_fract_x
_atom_site_fract_y
_atom_site_fract_z
Si Si1 0.301224 0.150612 0.336066
Si Si2 0.156057 0.843944 0.011360
Si Si3 0.751263 0.248738 0.423116
Si Si4 0.305972 0.152986 0.690822
Si Si5 0.250554 0.749447 0.750000
Si Si6 0.751681 0.248320 0.603828
O O1 0.363492 0.181746 0.390961
O O2 0.215065 0.218009 0.325915
O O3 0.424107 0.212054 0.300282
O O4 0.183851 0.816150 0.067944
O O5 0.223382 0.776619 0.979503
O O6 0.000000 0.776887 0.000000
O O7 0.817370 0.408685 0.414426
O O8 0.334695 0.167348 0.750000
O O9 0.443913 0.221957 0.660805
O O10 0.180056 0.590028 0.750000
O O11 0.817647 0.408824 0.596478
#
# Coordination Sequence:
#
# PCOD8330827 Si02
#       6
#    12  12  12  12   6  12
#     4  12  23  44  66  99 137 169 232 279 329 410
#     4  12  25  44  72 104 138 175 219 275 339 402
#     4  10  24  44  69 106 132 179 226 271 341 399
#     4  12  25  43  68  97 132 187 221 280 345 397
#     4  10  22  38  62  96 122 166 210 282 334 366
#     4  10  26  48  63  99 136 176 228 276 332 399
#
# _framework density 20.997033999999999
#
# number of rings (size 3 to 8) (size 9 to 14) (size 15 to 20)
#    0.909    0.000    1.818    4.909    0.000    9.455 
#    0.000    3.636    0.000    0.000    0.000    0.000 
#    0.000    0.000    0.000    0.000    0.000    0.000 
#
# Total GULP energy -818032.187640 kJ/mol
# GULP energy per Si atom -12394.427085 kJ/mol
# Density = 2.094924 g / cm^3
# Si number density = 20.997034 Si / 1000 Ang^3
#
#
#
# Elastic Constant Matrix: (Units=GPa)
#
#
# Indices 1 2 3 4 5 6 
#
# 1 150.3621 56.0552 52.4225 0.0000 0.0000 0.0000
# 2 56.0552 150.3621 52.4225 0.0000 0.0000 0.0000
# 3 52.4225 52.4225 132.5900 0.0000 0.0000 0.0000
# 4 0.0000 0.0000 0.0000 254.8993 0.0000 0.0000
# 5 0.0000 0.0000 0.0000 0.0000 254.8993 0.0000
# 6 0.0000 0.0000 0.0000 0.0000 0.0000 47.1534
#
#
#
# Elastic Compliance Matrix: (Units=1/GPa)
#
#
# Indices 1 2 3 4 5 6 
#
# 1 0.008333 -0.002271 -0.002397 0.000000 0.000000 0.000000
# 2 -0.002271 0.008333 -0.002397 0.000000 0.000000 0.000000
# 3 -0.002397 -0.002397 0.009437 0.000000 0.000000 0.000000
# 4 0.000000 0.000000 0.000000 0.003923 0.000000 0.000000
# 5 0.000000 0.000000 0.000000 0.000000 0.003923 0.000000
# 6 0.000000 0.000000 0.000000 0.000000 0.000000 0.021207
#
#
# Mechanical properties :
#
#
# Convention : Reuss Voigt Hill
#
# Bulk Modulus (GPa) = 83.51289 83.90163 83.70726
# Shear Modulus (GPa) = 68.23470 129.55131 98.89301
#
# Velocity S-wave (km/s) = 5.70683 7.86344 6.87028
# Velocity P-wave (km/s) = 9.12600 11.06755 10.14333
#
# Compressibility (1/GPa) = 0.01197420
#
# Stress axis : x y z
#
# Youngs Moduli (GPa) = 120.00767 120.00767 105.96313
#
# Poissons Ratio (x) = 0.27252 0.25396
# Poissons Ratio (y) = 0.27252 0.25396
# Poissons Ratio (z) = 0.28762 0.28762
#
# Static dielectric constant tensor:
#      x y z
#    x 3.622740 0.000000 0.000000 
#    y 0.000000 3.622740 0.000000 
#    z 0.000000 0.000000 4.009300 
# 
# 
# High freq. dielectric constant tensor:
#      x y z
#    x 1.825910 0.000000 0.000000 
#    y 0.000000 1.825910 0.000000 
#    z 0.000000 0.000000 1.836870 
# 
# From -- ./inp_files/11388.got.cif
#   From: 2010.03.12/outbox.cif.g09.slc.cpg/sg194_6_cif.got.tgz:11388.got - 2010.04.01 12:26:19.
