data_PCOD8330236
_publ_section_title
;
Structure prediction by ZEFSAII (Michael W. Deem and Ramdas Pophale) SiO2 
 PCOD8330236
Probable space group: P 63/M C M
;
_chemical_formula_sum "Si O2"
_cell_formula_units_Z 168
_cell_length_a 25.879538
_cell_length_b 25.879538
_cell_length_c 18.888019
_cell_angle_alpha 90.000000
_cell_angle_beta 90.000000
_cell_angle_gamma 120.000000
_cell_volume 10955.446460
_symmetry_space_group_name_H-M "P 63/M C M"
_symmetry_group_IT_number 193
_symmetry_cell_setting 'hexagonal'
loop_
_space_group_symop_operation_xyz
x,y,z
x-y,x,1/2+z
-y,x-y,z
-x,-y,1/2+z
-x+y,-x,z
y,-x+y,1/2+z
x-y,-y,1/2-z
-x,-x+y,1/2-z
y,x,1/2-z
-y,-x,-z
-x+y,y,-z
x,x-y,-z
-x,-y,-z
-x+y,-x,1/2-z
y,-x+y,-z
x,y,1/2-z
x-y,x,-z
-y,x-y,1/2-z
-x+y,y,1/2+z
x,x-y,1/2+z
-y,-x,1/2+z
y,x,z
x-y,-y,z
-x,-x+y,z
loop_
_atom_site_type_symbol
_atom_site_label
_atom_site_fract_x
_atom_site_fract_y
_atom_site_fract_z
Si Si1 0.929095 0.370670 0.328501
Si Si2 0.271432 0.135716 0.415661
Si Si3 0.464346 0.535656 0.920674
Si Si4 0.558427 0.629331 0.671499
Si Si5 0.067430 0.932570 0.084179
Si Si6 0.674619 0.744700 0.331235
Si Si7 0.325380 0.255299 0.331234
O O1 0.904987 0.371665 0.250000
O O2 0.903365 0.400385 0.382404
O O3 0.908954 0.302994 0.350639
O O4 0.000000 0.408219 0.327530
O O5 0.275858 0.137929 0.500000
O O6 0.202949 0.101474 0.389485
O O7 0.304104 0.102110 0.385832
O O8 0.304102 0.201994 0.385832
O O9 0.500002 0.500002 0.919560
O O10 0.502981 0.599617 0.882404
O O11 0.451843 0.548158 0.000000
O O12 0.533323 0.628336 0.750000
O O13 0.591782 0.591782 0.672469
O O14 0.605961 0.697007 0.649361
O O15 0.000000 0.898345 0.114224
O O16 0.101653 0.000000 0.114224
O O17 0.066238 0.933763 0.000000
O O18 0.678902 0.766292 0.250000
O O19 0.715904 0.715904 0.342254
O O20 0.321097 0.233706 0.250000
O O21 0.284096 0.284096 0.342253
#
# Coordination Sequence:
#
# PCOD8330236 Si02
#       7
#    24  24  24  24  24  24  24
#     4   8  14  25  40  56  76 105 139 170 197 229
#     4  11  21  30  43  64  88 110 135 175 228 284
#     4   9  15  21  33  57  85 109 132 159 192 227
#     4   8  14  25  40  56  76 105 139 170 197 229
#     4   9  17  29  44  61  80 102 130 169 223 288
#     4   9  18  32  47  61  79 108 146 182 215 257
#     4   9  18  32  47  61  79 108 146 182 215 257
#
# _framework density 15.334838
#
# number of rings (size 3 to 8) (size 9 to 14) (size 15 to 20)
#    0.000    3.000    0.000    3.571    0.000    5.143 
#    0.000    2.857    0.000    0.000    0.000    0.000 
#    0.000    6.857    0.000    0.857    0.000   16.714 
#
# Total GULP energy -2082431.248548 kJ/mol
# GULP energy per Si atom -12395.424098 kJ/mol
# Density = 1.529993 g / cm^3
# Si number density = 15.334838 Si / 1000 Ang^3
#
#
#
# Elastic Constant Matrix: (Units=GPa)
#
#
# Indices 1 2 3 4 5 6 
#
# 1 88.4588 48.2167 54.3630 0.0000 0.0000 0.0000
# 2 48.2167 88.4588 54.3630 0.0000 0.0000 0.0000
# 3 54.3630 54.3630 95.0795 0.0000 0.0000 0.0000
# 4 0.0000 0.0000 0.0000 23.0614 0.0000 0.0000
# 5 0.0000 0.0000 0.0000 0.0000 23.0614 0.0000
# 6 0.0000 0.0000 0.0000 0.0000 0.0000 20.1211
#
#
#
# Elastic Compliance Matrix: (Units=1/GPa)
#
#
# Indices 1 2 3 4 5 6 
#
# 1 0.019135 -0.005714 -0.007674 0.000000 0.000000 0.000000
# 2 -0.005714 0.019135 -0.007674 0.000000 0.000000 0.000000
# 3 -0.007674 -0.007674 0.019293 0.000000 0.000000 0.000000
# 4 0.000000 0.000000 0.000000 0.043362 0.000000 0.000000
# 5 0.000000 0.000000 0.000000 0.000000 0.043362 0.000000
# 6 0.000000 0.000000 0.000000 0.000000 0.000000 0.049699
#
#
# Mechanical properties :
#
#
# Convention : Reuss Voigt Hill
#
# Bulk Modulus (GPa) = 64.76693 65.09807 64.93250
# Shear Modulus (GPa) = 20.72478 20.91908 20.82193
#
# Velocity S-wave (km/s) = 3.68024 3.69745 3.68886
# Velocity P-wave (km/s) = 7.77083 7.79561 7.78323
#
# Compressibility (1/GPa) = 0.01543998
#
# Stress axis : x y z
#
# Youngs Moduli (GPa) = 52.25941 52.25941 51.83339
#
# Poissons Ratio (x) = 0.29862 0.39775
# Poissons Ratio (y) = 0.29862 0.39775
# Poissons Ratio (z) = 0.40102 0.40102
#
# Static dielectric constant tensor:
#      x y z
#    x 2.886610 0.000000 0.000000 
#    y 0.000000 2.886610 0.000000 
#    z 0.000000 0.000000 2.969000 
# 
# 
# High freq. dielectric constant tensor:
#      x y z
#    x 1.563990 0.000000 0.000000 
#    y 0.000000 1.563990 0.000000 
#    z 0.000000 0.000000 1.582670 
# 
# From -- ./inp_files/6854.got.cif
#   From: 2010.03.12/outbox.cif.g09.slc.cpg/sg193_4_cif.got.tgz:6854.got - 2010.04.01 12:20:39.
