data_PCOD8330908
_publ_section_title
;
Structure prediction by ZEFSAII (Michael W. Deem and Ramdas Pophale) SiO2 
 PCOD8330908
Probable space group: P M 3
;
_chemical_formula_sum "Si O2"
_cell_formula_units_Z 168
_cell_length_a 22.815987
_cell_length_b 22.815987
_cell_length_c 22.815987
_cell_angle_alpha 90.000000
_cell_angle_beta 90.000000
_cell_angle_gamma 90.000000
_cell_volume 11877.301532
_symmetry_space_group_name_H-M "P M 3"
_symmetry_group_IT_number 200
_symmetry_cell_setting 'cubic'
loop_
_space_group_symop_operation_xyz
x,y,z
z,x,y
y,z,x
-y,-z,x
z,-x,-y
-y,z,-x
-z,-x,y
-z,x,-y
y,-z,-x
-x,-y,z
x,-y,-z
-x,y,-z
-x,-y,-z
-z,-x,-y
-y,-z,-x
y,z,-x
-z,x,y
y,-z,x
z,x,-y
z,-x,y
-y,z,x
x,y,-z
-x,y,z
x,-y,z
loop_
_atom_site_type_symbol
_atom_site_label
_atom_site_fract_x
_atom_site_fract_y
_atom_site_fract_z
Si Si1 0.566416 0.931162 0.688149
Si Si2 0.664057 0.250153 0.565324
Si Si3 0.563300 0.396942 0.932837
Si Si4 0.828762 0.357860 0.748547
Si Si5 0.741274 0.065910 0.433711
Si Si6 0.433640 0.753248 0.347397
Si Si7 0.271173 0.353430 0.836888
O O1 0.500000 0.919410 0.709596
O O2 0.572908 0.905201 0.621222
O O3 0.613551 0.899959 0.731374
O O4 0.581442 0.000000 0.688984
O O5 0.659436 0.225434 0.500000
O O6 0.705806 0.205795 0.599097
O O7 0.598614 0.252951 0.590696
O O8 0.690434 0.315381 0.567221
O O9 0.500000 0.415579 0.903909
O O10 0.571649 0.328003 0.926347
O O11 0.560127 0.415991 0.000000
O O12 0.888521 0.388713 0.770728
O O13 0.842222 0.299255 0.711283
O O14 0.792285 0.343654 0.807402
O O15 0.762211 0.078908 0.500000
O O16 0.759650 0.000000 0.415721
O O17 0.500000 0.775516 0.356824
O O18 0.398432 0.798258 0.307827
#
# Coordination Sequence:
#
# PCOD8330908 Si02
#       7
#    24  24  24  24  24  24  24
#     4  10  19  29  41  58  81 108 134 161 197 243
#     4   9  17  27  39  52  65  86 112 140 179 219
#     4   8  14  25  39  54  73  98 127 155 186 228
#     4  10  18  29  44  58  76 101 128 159 189 226
#     4   9  16  26  42  61  77  97 127 161 197 233
#     4   9  17  28  39  51  67  85 110 144 177 215
#     4  10  19  30  43  58  77 100 131 157 188 225
#
# _framework density 14.144626000000001
#
# number of rings (size 3 to 8) (size 9 to 14) (size 15 to 20)
#    0.000    2.714    1.429    2.286    0.000    4.571 
#    0.000    1.429    0.000    1.714    0.000    0.000 
#    0.000    0.571    0.000   12.000    0.000    0.000 
#
# Total GULP energy -2081866.957030 kJ/mol
# GULP energy per Si atom -12392.065220 kJ/mol
# Density = 1.411243 g / cm^3
# Si number density = 14.144626 Si / 1000 Ang^3
#
#
#
# Elastic Constant Matrix: (Units=GPa)
#
#
# Indices 1 2 3 4 5 6 
#
# 1 58.8634 22.1713 22.1713 0.0000 0.0000 0.0000
# 2 22.1713 58.8634 22.1713 0.0000 0.0000 0.0000
# 3 22.1713 22.1713 58.8634 0.0000 0.0000 0.0000
# 4 0.0000 0.0000 0.0000 14.6633 0.0000 0.0000
# 5 0.0000 0.0000 0.0000 0.0000 14.6633 0.0000
# 6 0.0000 0.0000 0.0000 0.0000 0.0000 14.6633
#
#
#
# Elastic Compliance Matrix: (Units=1/GPa)
#
#
# Indices 1 2 3 4 5 6 
#
# 1 0.021399 -0.005855 -0.005855 0.000000 0.000000 0.000000
# 2 -0.005855 0.021399 -0.005855 0.000000 0.000000 0.000000
# 3 -0.005855 -0.005855 0.021399 0.000000 0.000000 0.000000
# 4 0.000000 0.000000 0.000000 0.068198 0.000000 0.000000
# 5 0.000000 0.000000 0.000000 0.000000 0.068198 0.000000
# 6 0.000000 0.000000 0.000000 0.000000 0.000000 0.068198
#
#
# Mechanical properties :
#
#
# Convention : Reuss Voigt Hill
#
# Bulk Modulus (GPa) = 34.40202 34.40202 34.40202
# Shear Modulus (GPa) = 15.94347 16.13639 16.03993
#
# Velocity S-wave (km/s) = 3.36099 3.38126 3.37114
# Velocity P-wave (km/s) = 6.27981 6.29431 6.28706
#
# Compressibility (1/GPa) = 0.02906806
#
# Stress axis : x y z
#
# Youngs Moduli (GPa) = 46.73113 46.73113 46.73113
#
# Poissons Ratio (x) = 0.27360 0.27360
# Poissons Ratio (y) = 0.27360 0.27360
# Poissons Ratio (z) = 0.27360 0.27360
#
# Static dielectric constant tensor:
#      x y z
#    x 2.715660 0.000000 0.000000 
#    y 0.000000 2.715660 0.000000 
#    z 0.000000 0.000000 2.715660 
# 
# 
# High freq. dielectric constant tensor:
#      x y z
#    x 1.514850 0.000000 0.000000 
#    y 0.000000 1.514850 0.000000 
#    z 0.000000 0.000000 1.514850 
# 
# From -- ./inp_files/655.got.cif
#   From: 2010.03.12/outbox.cif.g09.slc.cpg/sg200_cif.got.tgz:655.got - 2010.03.30 09:01:43.
