data_PCOD8330450
_publ_section_title
;
Structure prediction by ZEFSAII (Michael W. Deem and Ramdas Pophale) SiO2 
 PCOD8330450
Probable space group: P 63/M M C
;
_chemical_formula_sum "Si O2"
_cell_formula_units_Z 132
_cell_length_a 17.550439
_cell_length_b 17.550439
_cell_length_c 31.268290
_cell_angle_alpha 90.000000
_cell_angle_beta 90.000000
_cell_angle_gamma 120.000000
_cell_volume 8340.858072
_symmetry_space_group_name_H-M "P 63/M M C"
_symmetry_group_IT_number 194
_symmetry_cell_setting 'hexagonal'
loop_
_space_group_symop_operation_xyz
x,y,z
x-y,x,1/2+z
-y,x-y,z
-x,-y,1/2+z
-x+y,-x,z
y,-x+y,1/2+z
x-y,-y,-z
-x,-x+y,-z
y,x,-z
-y,-x,1/2-z
-x+y,y,1/2-z
x,x-y,1/2-z
-x,-y,-z
-x+y,-x,1/2-z
y,-x+y,-z
x,y,1/2-z
x-y,x,-z
-y,x-y,1/2-z
-x+y,y,z
x,x-y,z
-y,-x,z
y,x,1/2+z
x-y,-y,1/2+z
-x,-x+y,1/2+z
loop_
_atom_site_type_symbol
_atom_site_label
_atom_site_fract_x
_atom_site_fract_y
_atom_site_fract_z
Si Si1 0.490045 0.333154 0.298940
Si Si2 0.837689 0.504133 0.442580
Si Si3 0.065159 0.759310 0.079270
Si Si4 0.091124 0.356059 0.629825
Si Si5 0.179141 0.000000 0.000000
Si Si6 0.491407 0.157609 0.959317
O O1 0.461391 0.331486 0.250000
O O2 0.512473 0.256237 0.308206
O O3 0.575856 0.424145 0.310660
O O4 0.410172 0.320641 0.328883
O O5 0.733773 0.467545 0.438521
O O6 0.855923 0.427962 0.426704
O O7 0.891160 0.588363 0.413342
O O8 0.868850 0.531284 0.491146
O O9 0.150551 0.849449 0.092094
O O10 0.091402 0.686013 0.067210
O O11 0.004408 0.728377 0.121847
O O12 0.013863 0.774059 0.040719
O O13 0.162877 0.325753 0.636709
O O14 0.084178 0.915823 0.991205
O O15 0.573419 0.146838 0.944222
O O16 0.516563 0.258282 0.951925
#
# Coordination Sequence:
#
# PCOD8330450 Si02
#       6
#    24  24  24  24  12  24
#     4   9  17  29  46  69  97 126 150 170 196 238
#     4   9  16  25  38  58  85 116 146 173 201 238
#     4  10  20  32  45  61  84 113 144 184 229 265
#     4  10  19  30  44  62  85 111 140 175 215 259
#     4  10  19  32  49  66  86 114 150 188 225 266
#     4   9  17  28  41  57  80 113 150 182 211 245
#
# _framework density 15.825709
#
# number of rings (size 3 to 8) (size 9 to 14) (size 15 to 20)
#    0.000    2.545    0.000    2.818    0.000    6.545 
#    0.000    4.091    0.000    0.909    0.000    0.000 
#    0.000    0.000    0.000    0.000    0.000    0.000 
#
# Total GULP energy -1636742.464720 kJ/mol
# GULP energy per Si atom -12399.564127 kJ/mol
# Density = 1.578969 g / cm^3
# Si number density = 15.825709 Si / 1000 Ang^3
#
#
#
# Elastic Constant Matrix: (Units=GPa)
#
#
# Indices 1 2 3 4 5 6 
#
# 1 85.7886 47.8383 44.3868 0.0000 0.0000 0.0000
# 2 47.8383 85.7886 44.3868 0.0000 0.0000 0.0000
# 3 44.3868 44.3868 71.1841 0.0000 0.0000 0.0000
# 4 0.0000 0.0000 0.0000 21.6824 0.0000 0.0000
# 5 0.0000 0.0000 0.0000 0.0000 21.6824 0.0000
# 6 0.0000 0.0000 0.0000 0.0000 0.0000 18.9751
#
#
#
# Elastic Compliance Matrix: (Units=1/GPa)
#
#
# Indices 1 2 3 4 5 6 
#
# 1 0.019563 -0.006787 -0.007966 0.000000 0.000000 0.000000
# 2 -0.006787 0.019563 -0.007966 0.000000 0.000000 0.000000
# 3 -0.007966 -0.007966 0.023983 0.000000 0.000000 0.000000
# 4 0.000000 0.000000 0.000000 0.046120 0.000000 0.000000
# 5 0.000000 0.000000 0.000000 0.000000 0.046120 0.000000
# 6 0.000000 0.000000 0.000000 0.000000 0.000000 0.052701
#
#
# Mechanical properties :
#
#
# Convention : Reuss Voigt Hill
#
# Bulk Modulus (GPa) = 56.59577 57.33167 56.96372
# Shear Modulus (GPa) = 19.27673 19.54463 19.41068
#
# Velocity S-wave (km/s) = 3.49386 3.51806 3.50598
# Velocity P-wave (km/s) = 7.21912 7.26690 7.24305
#
# Compressibility (1/GPa) = 0.01766917
#
# Stress axis : x y z
#
# Youngs Moduli (GPa) = 51.11663 51.11663 41.69615
#
# Poissons Ratio (x) = 0.34694 0.33217
# Poissons Ratio (y) = 0.34694 0.33217
# Poissons Ratio (z) = 0.40722 0.40722
#
# Static dielectric constant tensor:
#      x y z
#    x 3.014330 0.000000 0.000000 
#    y 0.000000 3.014330 0.000000 
#    z 0.000000 0.000000 2.797670 
# 
# 
# High freq. dielectric constant tensor:
#      x y z
#    x 1.604900 0.000000 0.000000 
#    y 0.000000 1.604900 0.000000 
#    z 0.000000 0.000000 1.572020 
# 
# From -- ./inp_files/10789.got.cif
#   From: 2010.03.12/outbox.cif.g09.slc.cpg/sg194_6_cif.got.tgz:10789.got - 2010.04.01 12:26:19.
