data_PCOD8330842
_publ_section_title
;
Structure prediction by ZEFSAII (Michael W. Deem and Ramdas Pophale) SiO2 
 PCOD8330842
Probable space group: P 63/M M C
;
_chemical_formula_sum "Si O2"
_cell_formula_units_Z 72
_cell_length_a 24.121596
_cell_length_b 24.121596
_cell_length_c 8.667078
_cell_angle_alpha 90.000000
_cell_angle_beta 90.000000
_cell_angle_gamma 120.000000
_cell_volume 4367.324033
_symmetry_space_group_name_H-M "P 63/M M C"
_symmetry_group_IT_number 194
_symmetry_cell_setting 'hexagonal'
loop_
_space_group_symop_operation_xyz
x,y,z
x-y,x,1/2+z
-y,x-y,z
-x,-y,1/2+z
-x+y,-x,z
y,-x+y,1/2+z
x-y,-y,-z
-x,-x+y,-z
y,x,-z
-y,-x,1/2-z
-x+y,y,1/2-z
x,x-y,1/2-z
-x,-y,-z
-x+y,-x,1/2-z
y,-x+y,-z
x,y,1/2-z
x-y,x,-z
-y,x-y,1/2-z
-x+y,y,z
x,x-y,z
-y,-x,z
y,x,1/2+z
x-y,-y,1/2+z
-x,-x+y,1/2+z
loop_
_atom_site_type_symbol
_atom_site_label
_atom_site_fract_x
_atom_site_fract_y
_atom_site_fract_z
Si Si1 0.182123 0.364246 0.579766
Si Si2 0.257598 0.742403 0.917118
Si Si3 0.865674 0.495008 0.434011
Si Si4 0.632832 0.701014 0.432315
O O1 0.165923 0.331845 0.750000
O O2 0.219709 0.439417 0.601737
O O3 0.117237 0.344149 0.486605
O O4 0.274650 0.725351 0.750000
O O5 0.324508 0.792524 0.000257
O O6 0.865332 0.504755 0.250000
O O7 0.887487 0.443744 0.476836
O O8 0.914233 0.562258 0.510078
O O9 0.683688 0.683688 0.500000
O O10 0.633126 0.698738 0.250000
#
# Coordination Sequence:
#
# PCOD8330842 Si02
#       4
#    12  12  24  24
#     4   9  17  33  53  71  93 119 150 190 231 278
#     4   7  12  25  43  61  81 109 145 186 235 290
#     4   9  17  30  46  64  89 121 157 202 252 299
#     4  11  21  33  50  72  96 126 160 195 238 289
#
# _framework density 16.486068
#
# number of rings (size 3 to 8) (size 9 to 14) (size 15 to 20)
#    0.000    2.667    0.000    5.500    0.000    1.333 
#    1.000    0.000    0.000    0.000    0.000    0.000 
#    0.000    0.000    0.000    0.500    0.000    7.000 
#
# Total GULP energy -892001.440578 kJ/mol
# GULP energy per Si atom -12388.908897 kJ/mol
# Density = 1.644854 g / cm^3
# Si number density = 16.486068 Si / 1000 Ang^3
#
#
#
# Elastic Constant Matrix: (Units=GPa)
#
#
# Indices 1 2 3 4 5 6 
#
# 1 91.4522 56.0355 42.3808 0.0000 0.0000 0.0000
# 2 56.0355 91.4522 42.3808 0.0000 0.0000 0.0000
# 3 42.3808 42.3808 102.7158 0.0000 0.0000 0.0000
# 4 0.0000 0.0000 0.0000 20.7845 0.0000 0.0000
# 5 0.0000 0.0000 0.0000 0.0000 20.7845 0.0000
# 6 0.0000 0.0000 0.0000 0.0000 0.0000 17.7084
#
#
#
# Elastic Compliance Matrix: (Units=1/GPa)
#
#
# Indices 1 2 3 4 5 6 
#
# 1 0.018561 -0.009674 -0.003667 0.000000 0.000000 0.000000
# 2 -0.009674 0.018561 -0.003667 0.000000 0.000000 0.000000
# 3 -0.003667 -0.003667 0.012762 0.000000 0.000000 0.000000
# 4 0.000000 0.000000 0.000000 0.048113 0.000000 0.000000
# 5 0.000000 0.000000 0.000000 0.000000 0.048113 0.000000
# 6 0.000000 0.000000 0.000000 0.000000 0.000000 0.056470
#
#
# Mechanical properties :
#
#
# Convention : Reuss Voigt Hill
#
# Bulk Modulus (GPa) = 63.01689 63.02382 63.02035
# Shear Modulus (GPa) = 20.67087 21.51034 21.09061
#
# Velocity S-wave (km/s) = 3.54480 3.61606 3.58061
# Velocity P-wave (km/s) = 7.42034 7.46633 7.44337
#
# Compressibility (1/GPa) = 0.01586876
#
# Stress axis : x y z
#
# Youngs Moduli (GPa) = 53.87504 53.87504 78.35948
#
# Poissons Ratio (x) = 0.52117 0.28735
# Poissons Ratio (y) = 0.52117 0.28735
# Poissons Ratio (z) = 0.19756 0.19756
#
# Static dielectric constant tensor:
#      x y z
#    x 6.177800 0.000000 0.000000 
#    y 0.000000 6.177810 0.000000 
#    z 0.000000 0.000000 3.005530 
# 
# 
# High freq. dielectric constant tensor:
#      x y z
#    x 1.612750 0.000000 0.000000 
#    y 0.000000 1.612750 0.000000 
#    z 0.000000 0.000000 1.624890 
# 
# From -- ./inp_files/1146.got.cif
#   From: 2010.03.12/outbox.cif.g09.slc.cpg/sg194_1_cif.got.tgz:1146.got - 2010.04.01 12:26:19.
