data_PCOD8330644
_publ_section_title
;
Structure prediction by ZEFSAII (Michael W. Deem and Ramdas Pophale) SiO2 
 PCOD8330644
Probable space group: P 63/M M C
;
_chemical_formula_sum "Si O2"
_cell_formula_units_Z 120
_cell_length_a 27.547988
_cell_length_b 27.547988
_cell_length_c 12.012721
_cell_angle_alpha 90.000000
_cell_angle_beta 90.000000
_cell_angle_gamma 120.000000
_cell_volume 7894.993786
_symmetry_space_group_name_H-M "P 63/M M C"
_symmetry_group_IT_number 194
_symmetry_cell_setting 'hexagonal'
loop_
_space_group_symop_operation_xyz
x,y,z
x-y,x,1/2+z
-y,x-y,z
-x,-y,1/2+z
-x+y,-x,z
y,-x+y,1/2+z
x-y,-y,-z
-x,-x+y,-z
y,x,-z
-y,-x,1/2-z
-x+y,y,1/2-z
x,x-y,1/2-z
-x,-y,-z
-x+y,-x,1/2-z
y,-x+y,-z
x,y,1/2-z
x-y,x,-z
-y,x-y,1/2-z
-x+y,y,z
x,x-y,z
-y,-x,z
y,x,1/2+z
x-y,-y,1/2+z
-x,-x+y,1/2+z
loop_
_atom_site_type_symbol
_atom_site_label
_atom_site_fract_x
_atom_site_fract_y
_atom_site_fract_z
Si Si1 0.333518 0.554709 0.879157
Si Si2 0.834440 0.281136 0.510008
Si Si3 0.088667 0.290889 0.250000
Si Si4 0.173636 0.234347 0.021741
Si Si5 0.340497 0.112931 0.125366
Si Si6 0.265459 0.850243 0.250000
O O1 0.332998 0.539702 0.750000
O O2 0.283417 0.566833 0.905734
O O3 0.390826 0.609175 0.914107
O O4 0.328226 0.502952 0.950830
O O5 0.777734 0.222267 0.504587
O O6 0.882867 0.275192 0.445636
O O7 0.852642 0.299361 0.638297
O O8 0.150615 0.301230 0.250000
O O9 0.056315 0.256560 0.357923
O O10 0.095772 0.352628 0.250000
O O11 0.108327 0.216654 0.014926
O O12 0.179643 0.179643 0.000000
O O13 0.211111 0.281924 0.932608
O O14 0.340970 0.090932 0.250000
O O15 0.347602 0.173801 0.131245
O O16 0.206328 0.793673 0.250000
#
# Coordination Sequence:
#
# PCOD8330644 Si02
#       6
#    24  24  12  24  24  12
#     4   9  16  25  37  54  79 113 152 190 225 261
#     4   9  15  24  39  58  79 107 142 179 221 267
#     4   9  16  30  47  64  88 120 151 175 207 258
#     4  10  20  32  47  67  93 122 150 178 211 252
#     4   9  16  26  41  62  86 109 135 173 220 264
#     4   9  14  24  41  58  78 108 143 175 213 266
#
# _framework density 15.199506
#
# number of rings (size 3 to 8) (size 9 to 14) (size 15 to 20)
#    0.000    2.800    2.000    0.800    1.400    3.200 
#    0.000    0.500    0.000    0.200    0.000    1.400 
#    0.000    0.800    0.000    1.400    0.000    0.000 
#
# Total GULP energy -1487364.907752 kJ/mol
# GULP energy per Si atom -12394.707565 kJ/mol
# Density = 1.516491 g / cm^3
# Si number density = 15.199506 Si / 1000 Ang^3
#
#
#
# Elastic Constant Matrix: (Units=GPa)
#
#
# Indices 1 2 3 4 5 6 
#
# 1 68.6972 39.9701 40.1134 0.0000 0.0000 0.0000
# 2 39.9701 68.6972 40.1134 0.0000 0.0000 0.0000
# 3 40.1134 40.1134 126.6348 0.0000 0.0000 0.0000
# 4 0.0000 0.0000 0.0000 20.7551 0.0000 0.0000
# 5 0.0000 0.0000 0.0000 0.0000 20.7551 0.0000
# 6 0.0000 0.0000 0.0000 0.0000 0.0000 14.3636
#
#
#
# Elastic Compliance Matrix: (Units=1/GPa)
#
#
# Indices 1 2 3 4 5 6 
#
# 1 0.023411 -0.011399 -0.003805 0.000000 0.000000 0.000000
# 2 -0.011399 0.023411 -0.003805 0.000000 0.000000 0.000000
# 3 -0.003805 -0.003805 0.010307 0.000000 0.000000 0.000000
# 4 0.000000 0.000000 0.000000 0.048181 0.000000 0.000000
# 5 0.000000 0.000000 0.000000 0.000000 0.048181 0.000000
# 6 0.000000 0.000000 0.000000 0.000000 0.000000 0.069620
#
#
# Mechanical properties :
#
#
# Convention : Reuss Voigt Hill
#
# Bulk Modulus (GPa) = 52.32638 56.04700 54.18669
# Shear Modulus (GPa) = 18.69163 20.76358 19.72761
#
# Velocity S-wave (km/s) = 3.51059 3.70005 3.60656
# Velocity P-wave (km/s) = 7.13676 7.43021 7.28497
#
# Compressibility (1/GPa) = 0.01911082
#
# Stress axis : x y z
#
# Youngs Moduli (GPa) = 42.71531 42.71531 97.01991
#
# Poissons Ratio (x) = 0.48693 0.36914
# Poissons Ratio (y) = 0.48693 0.36914
# Poissons Ratio (z) = 0.16252 0.16252
#
# Static dielectric constant tensor:
#      x y z
#    x 2.637690 0.000000 0.000000 
#    y 0.000000 2.637690 0.000000 
#    z 0.000000 0.000000 2.997320 
# 
# 
# High freq. dielectric constant tensor:
#      x y z
#    x 1.543630 0.000000 0.000000 
#    y 0.000000 1.543630 0.000000 
#    z 0.000000 0.000000 1.600630 
# 
# From -- ./inp_files/3390.got.cif
#   From: 2010.03.12/outbox.cif.g09.slc.cpg/sg194_2_cif.got.tgz:3390.got - 2010.04.01 12:26:19.
