data_PCOD8330268
_publ_section_title
;
Structure prediction by ZEFSAII (Michael W. Deem and Ramdas Pophale) SiO2 
 PCOD8330268
Probable space group: P 63/M C M
;
_chemical_formula_sum "Si O2"
_cell_formula_units_Z 168
_cell_length_a 30.008668
_cell_length_b 30.008668
_cell_length_c 14.740354
_cell_angle_alpha 90.000000
_cell_angle_beta 90.000000
_cell_angle_gamma 120.000000
_cell_volume 11495.608974
_symmetry_space_group_name_H-M "P 63/M C M"
_symmetry_group_IT_number 193
_symmetry_cell_setting 'hexagonal'
loop_
_space_group_symop_operation_xyz
x,y,z
x-y,x,1/2+z
-y,x-y,z
-x,-y,1/2+z
-x+y,-x,z
y,-x+y,1/2+z
x-y,-y,1/2-z
-x,-x+y,1/2-z
y,x,1/2-z
-y,-x,-z
-x+y,y,-z
x,x-y,-z
-x,-y,-z
-x+y,-x,1/2-z
y,-x+y,-z
x,y,1/2-z
x-y,x,-z
-y,x-y,1/2-z
-x+y,y,1/2+z
x,x-y,1/2+z
-y,-x,1/2+z
y,x,z
x-y,-y,z
-x,-x+y,z
loop_
_atom_site_type_symbol
_atom_site_label
_atom_site_fract_x
_atom_site_fract_y
_atom_site_fract_z
Si Si1 0.061147 0.530573 0.147648
Si Si2 0.116107 0.232214 0.857568
Si Si3 0.461681 0.061282 1.000000
Si Si4 0.939113 0.301449 1.000000
Si Si5 0.060395 0.767585 0.853486
Si Si6 0.883465 0.941732 0.641899
Si Si7 0.707190 0.939605 0.146514
O O1 0.084620 0.542310 0.250000
O O2 0.079882 0.496448 0.091324
O O3 0.000000 0.500000 0.154073
O O4 0.079882 0.583434 0.091324
O O5 0.114342 0.228684 0.750000
O O6 0.174656 0.262596 0.892017
O O7 0.087259 0.174519 0.897485
O O8 0.087940 0.262596 0.892017
O O9 0.424036 0.085368 1.000000
O O10 0.429671 0.000000 1.000000
O O11 0.920911 0.265669 0.089185
O O12 0.000000 0.336556 1.000000
O O13 0.920911 0.265669 0.910815
O O14 0.075839 0.765592 0.750000
O O15 0.000000 0.745725 0.864480
O O16 0.882781 0.941390 0.750000
O O17 0.912781 0.912781 0.605093
O O18 0.912781 0.000000 0.605093
O O19 0.689753 0.924161 0.250000
O O20 0.745725 0.000000 0.135520
#
# Coordination Sequence:
#
# PCOD8330268 Si02
#       7
#    24  24  24  24  24  24  24
#     4   8  13  21  34  51  71  96 123 145 166 195
#     4   9  16  26  39  52  68  92 120 151 191 242
#     4   8  14  23  33  49  72  94 118 147 173 198
#     4   9  17  27  38  53  73  94 117 147 181 218
#     4   9  17  28  40  54  71  91 117 150 191 240
#     4   9  15  22  34  53  75  95 114 142 188 252
#     4   9  17  28  40  54  71  91 117 150 191 240
#
# _framework density 14.614274999999999
#
# number of rings (size 3 to 8) (size 9 to 14) (size 15 to 20)
#    0.000    3.286    0.000    1.857    0.000    5.714 
#    0.000    5.714    0.000    0.000    0.000    0.000 
#    0.000    0.000    0.000   10.857    0.000   29.571 
#
# Total GULP energy -2082204.251537 kJ/mol
# GULP energy per Si atom -12394.072926 kJ/mol
# Density = 1.458101 g / cm^3
# Si number density = 14.614275 Si / 1000 Ang^3
#
#
#
# Elastic Constant Matrix: (Units=GPa)
#
#
# Indices 1 2 3 4 5 6 
#
# 1 90.1762 44.6766 37.8110 0.0000 0.0000 0.0000
# 2 44.6766 90.1762 37.8110 0.0000 0.0000 0.0000
# 3 37.8110 37.8110 91.1872 0.0000 0.0000 0.0000
# 4 0.0000 0.0000 0.0000 -5.3170 0.0000 0.0000
# 5 0.0000 0.0000 0.0000 0.0000 -5.3170 0.0000
# 6 0.0000 0.0000 0.0000 0.0000 0.0000 22.7498
#
#
#
# Elastic Compliance Matrix: (Units=1/GPa)
#
#
# Indices 1 2 3 4 5 6 
#
# 1 0.015820 -0.006158 -0.004006 0.000000 0.000000 0.000000
# 2 -0.006158 0.015820 -0.004006 0.000000 0.000000 0.000000
# 3 -0.004006 -0.004006 0.014289 0.000000 0.000000 0.000000
# 4 0.000000 0.000000 0.000000 -0.188074 0.000000 0.000000
# 5 0.000000 0.000000 0.000000 0.000000 -0.188074 0.000000
# 6 0.000000 0.000000 0.000000 0.000000 0.000000 0.043956
#
#
# Mechanical properties :
#
#
# Convention : Reuss Voigt Hill
#
# Bulk Modulus (GPa) = 56.85819 56.90408 56.88113
# Shear Modulus (GPa) = -19.83668 12.50588 -3.66540
#
# Velocity S-wave (km/s) = -3.68822 2.92846 -1.58541
# Velocity P-wave (km/s) = 4.56652 7.10326 5.97116
#
# Compressibility (1/GPa) = 0.01758762
#
# Stress axis : x y z
#
# Youngs Moduli (GPa) = 63.21031 63.21031 69.98373
#
# Poissons Ratio (x) = 0.38925 0.28039
# Poissons Ratio (y) = 0.38925 0.28039
# Poissons Ratio (z) = 0.25325 0.25325
#
# Static dielectric constant tensor:
#      x y z
#    x 2.767980 0.000000 0.000000 
#    y 0.000000 2.767980 0.000000 
#    z 0.000000 0.000000 2.951270 
# 
# 
# High freq. dielectric constant tensor:
#      x y z
#    x 1.521410 0.000000 0.000000 
#    y 0.000000 1.521410 0.000000 
#    z 0.000000 0.000000 1.566810 
# 
# From -- ./inp_files/4408.got.cif
#   From: 2010.03.12/outbox.cif.g09.slc.cpg/sg193_3_cif.got.tgz:4408.got - 2010.04.01 12:20:39.
