data_PCOD8330600
_publ_section_title
;
Structure prediction by ZEFSAII (Michael W. Deem and Ramdas Pophale) SiO2 
 PCOD8330600
Probable space group: P 63/M M C
;
_chemical_formula_sum "Si O2"
_cell_formula_units_Z 72
_cell_length_a 22.238858
_cell_length_b 22.238858
_cell_length_c 8.841670
_cell_angle_alpha 90.000000
_cell_angle_beta 90.000000
_cell_angle_gamma 120.000000
_cell_volume 3786.952841
_symmetry_space_group_name_H-M "P 63/M M C"
_symmetry_group_IT_number 194
_symmetry_cell_setting 'hexagonal'
loop_
_space_group_symop_operation_xyz
x,y,z
x-y,x,1/2+z
-y,x-y,z
-x,-y,1/2+z
-x+y,-x,z
y,-x+y,1/2+z
x-y,-y,-z
-x,-x+y,-z
y,x,-z
-y,-x,1/2-z
-x+y,y,1/2-z
x,x-y,1/2-z
-x,-y,-z
-x+y,-x,1/2-z
y,-x+y,-z
x,y,1/2-z
x-y,x,-z
-y,x-y,1/2-z
-x+y,y,z
x,x-y,z
-y,-x,z
y,x,1/2+z
x-y,-y,1/2+z
-x,-x+y,1/2+z
loop_
_atom_site_type_symbol
_atom_site_label
_atom_site_fract_x
_atom_site_fract_y
_atom_site_fract_z
Si Si1 0.468499 0.802070 0.570333
Si Si2 0.154181 0.308362 0.571742
Si Si3 0.850627 0.925314 0.928616
Si Si4 0.924900 0.310562 0.429126
O O1 0.464802 0.796891 0.750000
O O2 0.399580 0.799159 0.504047
O O3 0.474345 0.737173 0.505233
O O4 0.534649 0.874883 0.521216
O O5 0.159827 0.319653 0.750000
O O6 0.114490 0.228980 0.523281
O O7 0.110905 0.342945 0.506087
O O8 0.861785 0.930893 0.750000
O O9 0.884521 0.884521 0.000000
O O10 0.933822 0.311404 0.250000
O O11 0.000000 0.358267 0.500000
#
# Coordination Sequence:
#
# PCOD8330600 Si02
#       4
#    24  12  12  24
#     4   9  16  28  49  76 105 137 175 215 254 298
#     4   9  18  34  54  73  99 136 174 212 257 305
#     4  11  22  36  53  73  98 130 170 214 262 313
#     4  10  19  33  52  76 105 137 171 212 259 306
#
# _framework density 19.012649
#
# number of rings (size 3 to 8) (size 9 to 14) (size 15 to 20)
#    0.000    2.333    1.667    2.000    0.000    2.000 
#    0.000    2.500    0.000    0.000    0.000    0.000 
#    0.000    2.667    0.000    0.000    0.000    0.000 
#
# Total GULP energy -892697.385423 kJ/mol
# GULP energy per Si atom -12398.574798 kJ/mol
# Density = 1.896937 g / cm^3
# Si number density = 19.012649 Si / 1000 Ang^3
#
#
#
# Elastic Constant Matrix: (Units=GPa)
#
#
# Indices 1 2 3 4 5 6 
#
# 1 182.6848 105.2719 30.2857 0.0000 0.0000 0.0000
# 2 105.2719 182.6848 30.2857 0.0000 0.0000 0.0000
# 3 30.2857 30.2857 25.5945 0.0000 0.0000 0.0000
# 4 0.0000 0.0000 0.0000 42.3669 0.0000 0.0000
# 5 0.0000 0.0000 0.0000 0.0000 42.3669 0.0000
# 6 0.0000 0.0000 0.0000 0.0000 0.0000 38.7064
#
#
#
# Elastic Compliance Matrix: (Units=1/GPa)
#
#
# Indices 1 2 3 4 5 6 
#
# 1 0.008771 -0.004147 -0.005471 0.000000 0.000000 0.000000
# 2 -0.004147 0.008771 -0.005471 0.000000 0.000000 0.000000
# 3 -0.005471 -0.005471 0.052018 0.000000 0.000000 0.000000
# 4 0.000000 0.000000 0.000000 0.023603 0.000000 0.000000
# 5 0.000000 0.000000 0.000000 0.000000 0.023603 0.000000
# 6 0.000000 0.000000 0.000000 0.000000 0.000000 0.025836
#
#
# Mechanical properties :
#
#
# Convention : Reuss Voigt Hill
#
# Bulk Modulus (GPa) = 25.39262 80.29453 52.84358
# Shear Modulus (GPa) = 26.89513 39.69611 33.29562
#
# Velocity S-wave (km/s) = 3.76519 4.57429 4.18932
# Velocity P-wave (km/s) = 5.68215 8.37990 7.15924
#
# Compressibility (1/GPa) = 0.03938152
#
# Stress axis : x y z
#
# Youngs Moduli (GPa) = 114.01653 114.01653 19.22395
#
# Poissons Ratio (x) = 0.47284 0.10517
# Poissons Ratio (y) = 0.47284 0.10517
# Poissons Ratio (z) = 0.62379 0.62379
#
# Static dielectric constant tensor:
#      x y z
#    x 3.669350 0.000000 0.000000 
#    y 0.000000 3.669350 0.000000 
#    z 0.000000 0.000000 2.952530 
# 
# 
# High freq. dielectric constant tensor:
#      x y z
#    x 1.756150 0.000000 0.000000 
#    y 0.000000 1.756150 0.000000 
#    z 0.000000 0.000000 1.679990 
# 
# From -- ./inp_files/1117.got.cif
#   From: 2010.03.12/outbox.cif.g09.slc.cpg/sg194_1_cif.got.tgz:1117.got - 2010.04.01 12:26:19.
