data_PCOD8330998
_publ_section_title
;
Structure prediction by ZEFSAII (Michael W. Deem and Ramdas Pophale) SiO2 
 PCOD8330998
Probable space group: I 4 3 2
;
_chemical_formula_sum "Si O2"
_cell_formula_units_Z 112
_cell_length_a 17.367967
_cell_length_b 17.367967
_cell_length_c 17.367967
_cell_angle_alpha 90.000000
_cell_angle_beta 90.000000
_cell_angle_gamma 90.000000
_cell_volume 5238.982597
_symmetry_space_group_name_H-M "I 4 3 2"
_symmetry_group_IT_number 211
_symmetry_cell_setting 'cubic'
loop_
_space_group_symop_operation_xyz
x,y,z
-y,x,z
-x,-y,z
y,-x,z
x,-z,y
x,-y,-z
x,z,-y
z,y,-x
-x,y,-z
-z,y,x
z,x,y
y,z,x
-y,-z,x
z,-x,-y
-y,z,-x
-z,-x,y
-z,x,-y
y,-z,-x
y,x,-z
-y,-x,-z
-x,z,y
-x,-z,-y
z,-y,x
-z,-y,-x
1/2+x,1/2+y,1/2+z
1/2-y,1/2+x,1/2+z
1/2-x,1/2-y,1/2+z
1/2+y,1/2-x,1/2+z
1/2+x,1/2-z,1/2+y
1/2+x,1/2-y,1/2-z
1/2+x,1/2+z,1/2-y
1/2+z,1/2+y,1/2-x
1/2-x,1/2+y,1/2-z
1/2-z,1/2+y,1/2+x
1/2+z,1/2+x,1/2+y
1/2+y,1/2+z,1/2+x
1/2-y,1/2-z,1/2+x
1/2+z,1/2-x,1/2-y
1/2-y,1/2+z,1/2-x
1/2-z,1/2-x,1/2+y
1/2-z,1/2+x,1/2-y
1/2+y,1/2-z,1/2-x
1/2+y,1/2+x,1/2-z
1/2-y,1/2-x,1/2-z
1/2-x,1/2+z,1/2+y
1/2-x,1/2-z,1/2-y
1/2+z,1/2-y,1/2+x
1/2-z,1/2-y,1/2-x
loop_
_atom_site_type_symbol
_atom_site_label
_atom_site_fract_x
_atom_site_fract_y
_atom_site_fract_z
Si Si1 0.837279 0.446901 0.072932
Si Si2 0.718114 0.072656 0.099798
Si Si3 0.303608 0.303608 0.696393
O O1 0.852611 0.500000 0.147389
O O2 0.750000 0.420791 0.079210
O O3 0.893104 0.373882 0.076114
O O4 0.856040 0.500000 0.000000
O O5 0.756230 0.122675 0.167162
O O6 0.743414 0.983319 0.106381
O O7 0.250000 0.250000 0.750000
#
# Coordination Sequence:
#
# PCOD8330998 Si02
#       3
#    48  48  16
#     4  11  23  41  68 101 139 183 234 283 338 415
#     4  11  24  44  71  96 133 183 234 288 347 423
#     4  12  27  45  66 102 142 179 226 297 366 423
#
# _framework density 21.378197
#
# number of rings (size 3 to 8) (size 9 to 14) (size 15 to 20)
#    0.000    0.857    4.286    2.571    0.000    7.286 
#    0.000    0.000    0.000    0.000    0.000    6.000 
#    0.000    0.000    0.000    0.000    0.000    0.000 
#
# Total GULP energy -694422.766059 kJ/mol
# GULP energy per Si atom -12400.406537 kJ/mol
# Density = 2.132954 g / cm^3
# Si number density = 21.378197 Si / 1000 Ang^3
#
#
#
# Elastic Constant Matrix: (Units=GPa)
#
#
# Indices 1 2 3 4 5 6 
#
# 1 101.0012 54.5563 54.5560 0.0000 0.0000 0.0000
# 2 54.5563 101.0012 54.5560 0.0000 0.0000 0.0000
# 3 54.5560 54.5560 100.9984 0.0000 0.0000 0.0000
# 4 0.0000 0.0000 0.0000 39.8761 0.0000 0.0000
# 5 0.0000 0.0000 0.0000 0.0000 39.8761 0.0000
# 6 0.0000 0.0000 0.0000 0.0000 0.0000 39.8766
#
#
#
# Elastic Compliance Matrix: (Units=1/GPa)
#
#
# Indices 1 2 3 4 5 6 
#
# 1 0.015940 -0.005590 -0.005591 0.000000 0.000000 0.000000
# 2 -0.005590 0.015940 -0.005591 0.000000 0.000000 0.000000
# 3 -0.005591 -0.005591 0.015941 0.000000 0.000000 0.000000
# 4 0.000000 0.000000 0.000000 0.025078 0.000000 0.000000
# 5 0.000000 0.000000 0.000000 0.000000 0.025078 0.000000
# 6 0.000000 0.000000 0.000000 0.000000 0.000000 0.025077
#
#
# Mechanical properties :
#
#
# Convention : Reuss Voigt Hill
#
# Bulk Modulus (GPa) = 70.03749 70.03749 70.03749
# Shear Modulus (GPa) = 30.98705 33.21458 32.10081
#
# Velocity S-wave (km/s) = 3.81132 3.94593 3.87921
# Velocity P-wave (km/s) = 7.22499 7.32071 7.27301
#
# Compressibility (1/GPa) = 0.01427807
#
# Stress axis : x y z
#
# Youngs Moduli (GPa) = 62.73357 62.73357 62.73135
#
# Poissons Ratio (x) = 0.35071 0.35071
# Poissons Ratio (y) = 0.35071 0.35071
# Poissons Ratio (z) = 0.35073 0.35073
#
# Static dielectric constant tensor:
#      x y z
#    x 3.803650 0.000000 0.000000 
#    y 0.000000 3.803650 0.000000 
#    z 0.000000 0.000000 3.803670 
# 
# 
# High freq. dielectric constant tensor:
#      x y z
#    x 1.841690 0.000000 0.000000 
#    y 0.000000 1.841690 0.000000 
#    z 0.000000 0.000000 1.841690 
# 
# From -- ./inp_files/247.got.cif
#   From: 2010.03.12/outbox.cif.g09.slc.cpg/sg211_cif.got.tgz:247.got - 2010.03.30 09:04:38.
