data_PCOD8330621
_publ_section_title
;
Structure prediction by ZEFSAII (Michael W. Deem and Ramdas Pophale) SiO2 
 PCOD8330621
Probable space group: P 63/M M C
;
_chemical_formula_sum "Si O2"
_cell_formula_units_Z 168
_cell_length_a 21.835859
_cell_length_b 21.835859
_cell_length_c 22.218708
_cell_angle_alpha 90.000000
_cell_angle_beta 90.000000
_cell_angle_gamma 120.000000
_cell_volume 9174.660356
_symmetry_space_group_name_H-M "P 63/M M C"
_symmetry_group_IT_number 194
_symmetry_cell_setting 'hexagonal'
loop_
_space_group_symop_operation_xyz
x,y,z
x-y,x,1/2+z
-y,x-y,z
-x,-y,1/2+z
-x+y,-x,z
y,-x+y,1/2+z
x-y,-y,-z
-x,-x+y,-z
y,x,-z
-y,-x,1/2-z
-x+y,y,1/2-z
x,x-y,1/2-z
-x,-y,-z
-x+y,-x,1/2-z
y,-x+y,-z
x,y,1/2-z
x-y,x,-z
-y,x-y,1/2-z
-x+y,y,z
x,x-y,z
-y,-x,z
y,x,1/2+z
x-y,-y,1/2+z
-x,-x+y,1/2+z
loop_
_atom_site_type_symbol
_atom_site_label
_atom_site_fract_x
_atom_site_fract_y
_atom_site_fract_z
Si Si1 0.666839 0.477757 0.077318
Si Si2 0.402184 0.133366 0.879454
Si Si3 0.677158 0.103958 0.319388
Si Si4 0.046149 0.592886 0.179901
Si Si5 0.612335 0.689684 0.508200
Si Si6 0.744749 0.803521 0.180510
Si Si7 0.295106 0.078496 0.384668
O O1 0.735110 0.470219 0.064763
O O2 0.597665 0.402336 0.067454
O O3 0.669495 0.505742 0.144896
O O4 0.665822 0.534083 0.031403
O O5 0.436457 0.218229 0.877174
O O6 0.459168 0.111566 0.858454
O O7 0.338439 0.096760 0.832190
O O8 0.374276 0.106231 0.946275
O O9 0.672161 0.119428 0.250000
O O10 0.750552 0.106720 0.333743
O O11 0.616036 0.026220 0.339091
O O12 0.062227 0.609088 0.250000
O O13 0.038170 0.519085 0.161132
O O14 0.620187 0.620187 0.500000
O O15 0.673842 0.740982 0.553724
O O16 0.757294 0.791910 0.250000
O O17 0.772909 0.886455 0.167272
O O18 0.784345 0.775585 0.137233
O O19 0.271729 0.135865 0.395909
#
# Coordination Sequence:
#
# PCOD8330621 Si02
#       7
#    24  24  24  24  24  24  24
#     4  11  24  40  56  77 109 149 188 225 270 329
#     4  11  20  34  56  80 110 143 181 232 282 332
#     4  10  19  34  54  80 109 141 184 234 280 321
#     4  10  20  34  53  79 112 146 182 228 287 346
#     4  11  21  38  58  84 111 143 183 236 285 331
#     4  10  20  34  54  82 113 144 183 228 275 331
#     4  11  21  35  56  84 118 151 183 224 277 336
#
# _framework density 18.311304
#
# number of rings (size 3 to 8) (size 9 to 14) (size 15 to 20)
#    0.000    1.429    2.857    4.857    0.000    4.571 
#    0.000    0.000    0.000    1.429    0.000    0.000 
#    0.000    0.571    0.000    0.000    0.000    0.000 
#
# Total GULP energy -2083413.653194 kJ/mol
# GULP energy per Si atom -12401.271745 kJ/mol
# Density = 1.826963 g / cm^3
# Si number density = 18.311304 Si / 1000 Ang^3
#
#
#
# Elastic Constant Matrix: (Units=GPa)
#
#
# Indices 1 2 3 4 5 6 
#
# 1 100.1154 50.4845 41.6311 0.0000 0.0000 0.0000
# 2 50.4845 100.1154 41.6311 0.0000 0.0000 0.0000
# 3 41.6311 41.6311 78.8938 0.0000 0.0000 0.0000
# 4 0.0000 0.0000 0.0000 18.7582 0.0000 0.0000
# 5 0.0000 0.0000 0.0000 0.0000 18.7582 0.0000
# 6 0.0000 0.0000 0.0000 0.0000 0.0000 24.8155
#
#
#
# Elastic Compliance Matrix: (Units=1/GPa)
#
#
# Indices 1 2 3 4 5 6 
#
# 1 0.014762 -0.005387 -0.004947 0.000000 0.000000 0.000000
# 2 -0.005387 0.014762 -0.004947 0.000000 0.000000 0.000000
# 3 -0.004947 -0.004947 0.017896 0.000000 0.000000 0.000000
# 4 0.000000 0.000000 0.000000 0.053310 0.000000 0.000000
# 5 0.000000 0.000000 0.000000 0.000000 0.053310 0.000000
# 6 0.000000 0.000000 0.000000 0.000000 0.000000 0.040297
#
#
# Mechanical properties :
#
#
# Convention : Reuss Voigt Hill
#
# Bulk Modulus (GPa) = 59.31850 60.73536 60.02693
# Shear Modulus (GPa) = 21.69013 22.15822 21.92418
#
# Velocity S-wave (km/s) = 3.44542 3.48240 3.46396
# Velocity P-wave (km/s) = 6.94929 7.02921 6.98936
#
# Compressibility (1/GPa) = 0.01685815
#
# Stress axis : x y z
#
# Youngs Moduli (GPa) = 67.74152 67.74152 55.87720
#
# Poissons Ratio (x) = 0.36491 0.27644
# Poissons Ratio (y) = 0.36491 0.27644
# Poissons Ratio (z) = 0.33513 0.33513
#
# Static dielectric constant tensor:
#      x y z
#    x 3.339040 0.000000 0.000000 
#    y 0.000000 3.339040 0.000000 
#    z 0.000000 0.000000 3.448770 
# 
# 
# High freq. dielectric constant tensor:
#      x y z
#    x 1.695960 0.000000 0.000000 
#    y 0.000000 1.695960 0.000000 
#    z 0.000000 0.000000 1.719960 
# 
# From -- ./inp_files/9809.got.cif
#   From: 2010.03.12/outbox.cif.g09.slc.cpg/sg194_5_cif.got.tgz:9809.got - 2010.04.01 12:26:19.
