data_PCOD8330115
_publ_section_title
;
Structure prediction by ZEFSAII (Michael W. Deem and Ramdas Pophale) SiO2 
 PCOD8330115
Probable space group: P 63/M C M
;
_chemical_formula_sum "Si O2"
_cell_formula_units_Z 168
_cell_length_a 16.823068
_cell_length_b 16.823068
_cell_length_c 35.217836
_cell_angle_alpha 90.000000
_cell_angle_beta 90.000000
_cell_angle_gamma 120.000000
_cell_volume 8631.846311
_symmetry_space_group_name_H-M "P 63/M C M"
_symmetry_group_IT_number 193
_symmetry_cell_setting 'hexagonal'
loop_
_space_group_symop_operation_xyz
x,y,z
x-y,x,1/2+z
-y,x-y,z
-x,-y,1/2+z
-x+y,-x,z
y,-x+y,1/2+z
x-y,-y,1/2-z
-x,-x+y,1/2-z
y,x,1/2-z
-y,-x,-z
-x+y,y,-z
x,x-y,-z
-x,-y,-z
-x+y,-x,1/2-z
y,-x+y,-z
x,y,1/2-z
x-y,x,-z
-y,x-y,1/2-z
-x+y,y,1/2+z
x,x-y,1/2+z
-y,-x,1/2+z
y,x,z
x-y,-y,z
-x,-x+y,z
loop_
_atom_site_type_symbol
_atom_site_label
_atom_site_fract_x
_atom_site_fract_y
_atom_site_fract_z
Si Si1 0.100980 0.896938 0.620365
Si Si2 0.730622 0.897956 0.039739
Si Si3 0.466304 0.228042 0.567311
Si Si4 0.890596 0.450147 0.955302
Si Si5 0.546579 0.893317 0.290980
Si Si6 0.803585 0.600181 0.848765
Si Si7 0.371671 0.477611 0.706783
O O1 0.100887 0.883441 0.575014
O O2 0.122274 0.827469 0.643118
O O3 0.000000 0.874724 0.632104
O O4 0.173647 0.000000 0.632691
O O5 0.624280 0.826471 0.042506
O O6 0.744780 0.000000 0.041155
O O7 0.770407 0.885204 0.000000
O O8 0.523409 0.176705 0.559133
O O9 0.502754 0.333601 0.556198
O O10 0.453212 0.220655 0.612205
O O11 0.000000 0.504706 0.940166
O O12 0.897419 0.448710 0.000000
O O13 0.560366 0.855978 0.250000
O O14 0.596773 0.876585 0.325693
O O15 0.438024 0.850970 0.298597
O O16 0.585919 0.000000 0.286950
O O17 0.842940 0.551461 0.822833
O O18 0.334637 0.455715 0.750000
O O19 0.422067 0.422067 0.695702
#
# Coordination Sequence:
#
# PCOD8330115 Si02
#       7
#    24  24  24  24  24  24  24
#     4  10  21  36  55  82 115 152 192 236 290 347
#     4  10  20  36  59  85 114 149 192 252 313 372
#     4  11  25  39  58  88 121 158 205 262 313 374
#     4  11  24  43  66  87 116 166 217 264 326 386
#     4   9  19  37  60  84 113 152 191 232 287 349
#     4  11  22  36  57  87 119 152 192 239 298 353
#     4   9  19  37  60  85 115 153 192 235 288 349
#
# _framework density 19.462812
#
# number of rings (size 3 to 8) (size 9 to 14) (size 15 to 20)
#    0.000    1.857    0.000    4.714    2.000    6.286 
#    0.857    0.000    0.000    2.286    0.000    0.000 
#    0.000    6.857    0.000    0.000    0.000    0.000 
#
# Total GULP energy -2081425.903002 kJ/mol
# GULP energy per Si atom -12389.439899 kJ/mol
# Density = 1.941851 g / cm^3
# Si number density = 19.462812 Si / 1000 Ang^3
#
#
#
# Elastic Constant Matrix: (Units=GPa)
#
#
# Indices 1 2 3 4 5 6 
#
# 1 99.7215 45.8346 30.6630 0.0000 0.0000 0.0000
# 2 45.8346 99.7215 30.6630 0.0000 0.0000 0.0000
# 3 30.6630 30.6630 104.9827 0.0000 0.0000 0.0000
# 4 0.0000 0.0000 0.0000 29.7833 0.0000 0.0000
# 5 0.0000 0.0000 0.0000 0.0000 29.7833 0.0000
# 6 0.0000 0.0000 0.0000 0.0000 0.0000 26.9434
#
#
#
# Elastic Compliance Matrix: (Units=1/GPa)
#
#
# Indices 1 2 3 4 5 6 
#
# 1 0.013196 -0.005362 -0.002288 0.000000 0.000000 0.000000
# 2 -0.005362 0.013196 -0.002288 0.000000 0.000000 0.000000
# 3 -0.002288 -0.002288 0.010862 0.000000 0.000000 0.000000
# 4 0.000000 0.000000 0.000000 0.033576 0.000000 0.000000
# 5 0.000000 0.000000 0.000000 0.000000 0.033576 0.000000
# 6 0.000000 0.000000 0.000000 0.000000 0.000000 0.037115
#
#
# Mechanical properties :
#
#
# Convention : Reuss Voigt Hill
#
# Bulk Modulus (GPa) = 57.54481 57.63854 57.59168
# Shear Modulus (GPa) = 29.90629 30.45299 30.17964
#
# Velocity S-wave (km/s) = 3.92418 3.95989 3.94208
# Velocity P-wave (km/s) = 7.08259 7.11243 7.09752
#
# Compressibility (1/GPa) = 0.01737776
#
# Stress axis : x y z
#
# Youngs Moduli (GPa) = 75.78146 75.78146 92.06365
#
# Poissons Ratio (x) = 0.40631 0.21066
# Poissons Ratio (y) = 0.40631 0.21066
# Poissons Ratio (z) = 0.17340 0.17340
#
# Static dielectric constant tensor:
#      x y z
#    x 3.716750 0.000000 0.000000 
#    y 0.000000 3.716750 0.000000 
#    z 0.000000 0.000000 3.616880 
# 
# 
# High freq. dielectric constant tensor:
#      x y z
#    x 1.760360 0.000000 0.000000 
#    y 0.000000 1.760360 0.000000 
#    z 0.000000 0.000000 1.762500 
# 
# From -- ./inp_files/9323.got.cif
#   From: 2010.03.12/outbox.cif.g09.slc.cpg/sg193_5_cif.got.tgz:9323.got - 2010.04.01 12:20:39.
