data_PCOD8330932
_publ_section_title
;
Structure prediction by ZEFSAII (Michael W. Deem and Ramdas Pophale) SiO2 
 PCOD8330932
Probable space group: F D 3
;
_chemical_formula_sum "Si O2"
_cell_formula_units_Z 232
_cell_length_a 22.760341
_cell_length_b 22.760341
_cell_length_c 22.760341
_cell_angle_alpha 90.000000
_cell_angle_beta 90.000000
_cell_angle_gamma 90.000000
_cell_volume 11790.610516
_symmetry_space_group_name_H-M "F D 3"
_symmetry_group_IT_number 203
_space_group.IT_coordinate_system_code '2'
_symmetry_cell_setting 'cubic'
loop_
_space_group_symop_operation_xyz
x,y,z
z,x,y
y,z,x
1/4-y,1/4-z,x
z,1/4-x,1/4-y
1/4-y,z,1/4-x
1/4-z,1/4-x,y
1/4-z,x,1/4-y
y,1/4-z,1/4-x
1/4-x,1/4-y,z
x,1/4-y,1/4-z
1/4-x,y,1/4-z
-x,-y,-z
-z,-x,-y
-y,-z,-x
3/4+y,3/4+z,-x
-z,3/4+x,3/4+y
3/4+y,-z,3/4+x
3/4+z,3/4+x,-y
3/4+z,-x,3/4+y
-y,3/4+z,3/4+x
3/4+x,3/4+y,-z
-x,3/4+y,3/4+z
3/4+x,-y,3/4+z
x,1/2+y,1/2+z
z,1/2+x,1/2+y
y,1/2+z,1/2+x
1/4-y,3/4-z,1/2+x
z,3/4-x,3/4-y
1/4-y,1/2+z,3/4-x
1/4-z,3/4-x,1/2+y
1/4-z,1/2+x,3/4-y
y,3/4-z,3/4-x
1/4-x,3/4-y,1/2+z
x,3/4-y,3/4-z
1/4-x,1/2+y,3/4-z
-x,1/2-y,1/2-z
-z,1/2-x,1/2-y
-y,1/2-z,1/2-x
3/4+y,1/4+z,1/2-x
-z,1/4+x,1/4+y
3/4+y,1/2-z,1/4+x
3/4+z,1/4+x,1/2-y
3/4+z,1/2-x,1/4+y
-y,1/4+z,1/4+x
3/4+x,1/4+y,1/2-z
-x,1/4+y,1/4+z
3/4+x,1/2-y,1/4+z
1/2+x,y,1/2+z
1/2+z,x,1/2+y
1/2+y,z,1/2+x
3/4-y,1/4-z,1/2+x
1/2+z,1/4-x,3/4-y
3/4-y,z,3/4-x
3/4-z,1/4-x,1/2+y
3/4-z,x,3/4-y
1/2+y,1/4-z,3/4-x
3/4-x,1/4-y,1/2+z
1/2+x,1/4-y,3/4-z
3/4-x,y,3/4-z
1/2-x,-y,1/2-z
1/2-z,-x,1/2-y
1/2-y,-z,1/2-x
1/4+y,3/4+z,1/2-x
1/2-z,3/4+x,1/4+y
1/4+y,-z,1/4+x
1/4+z,3/4+x,1/2-y
1/4+z,-x,1/4+y
1/2-y,3/4+z,1/4+x
1/4+x,3/4+y,1/2-z
1/2-x,3/4+y,1/4+z
1/4+x,-y,1/4+z
1/2+x,1/2+y,z
1/2+z,1/2+x,y
1/2+y,1/2+z,x
3/4-y,3/4-z,x
1/2+z,3/4-x,1/4-y
3/4-y,1/2+z,1/4-x
3/4-z,3/4-x,y
3/4-z,1/2+x,1/4-y
1/2+y,3/4-z,1/4-x
3/4-x,3/4-y,z
1/2+x,3/4-y,1/4-z
3/4-x,1/2+y,1/4-z
1/2-x,1/2-y,-z
1/2-z,1/2-x,-y
1/2-y,1/2-z,-x
1/4+y,1/4+z,-x
1/2-z,1/4+x,3/4+y
1/4+y,1/2-z,3/4+x
1/4+z,1/4+x,-y
1/4+z,1/2-x,3/4+y
1/2-y,1/4+z,3/4+x
1/4+x,1/4+y,-z
1/2-x,1/4+y,3/4+z
1/4+x,1/2-y,3/4+z
loop_
_atom_site_type_symbol
_atom_site_label
_atom_site_fract_x
_atom_site_fract_y
_atom_site_fract_z
Si Si1 0.722430 0.415167 0.560875
Si Si2 0.184773 0.435187 0.604637
Si Si3 0.875000 0.875000 0.375000
Si Si4 0.545492 0.704510 0.545491
O O1 0.724101 0.388798 0.493895
O O2 0.688571 0.372662 0.604875
O O3 0.787840 0.424802 0.584576
O O4 0.689263 0.477504 0.558915
O O5 0.125000 0.469382 0.625000
O O6 0.914860 0.835142 0.414859
#
# Coordination Sequence:
#
# PCOD8330932 Si02
#       4
#    96  96   8  32
#     4  10  22  39  65  92 125 161 210 262 311 378
#     4  11  21  40  65  93 121 164 210 256 316 373
#     4  12  24  36  60  88 136 168 204 252 330 372
#     4   9  24  39  57  93 130 160 207 261 306 367
#
# _framework density 19.676673000000001
#
# number of rings (size 3 to 8) (size 9 to 14) (size 15 to 20)
#    0.000    1.655    4.138    0.828    2.897    0.000 
#    2.483    2.069    0.000    5.793    0.000    0.000 
#    0.000    0.000    0.000    0.000    0.000    0.000 
#
# Total GULP energy -718826.550679 kJ/mol
# GULP energy per Si atom -12393.561219 kJ/mol
# Density = 1.963189 g / cm^3
# Si number density = 19.676673 Si / 1000 Ang^3
#
#
#
# Elastic Constant Matrix: (Units=GPa)
#
#
# Indices 1 2 3 4 5 6 
#
# 1 114.8671 55.7443 55.7438 0.0000 0.0000 0.0000
# 2 55.7443 114.8718 55.7453 0.0000 0.0000 0.0000
# 3 55.7438 55.7453 114.8695 0.0000 0.0000 0.0000
# 4 0.0000 0.0000 0.0000 28.6115 0.0000 0.0000
# 5 0.0000 0.0000 0.0000 0.0000 28.6116 0.0000
# 6 0.0000 0.0000 0.0000 0.0000 0.0000 28.6107
#
#
#
# Elastic Compliance Matrix: (Units=1/GPa)
#
#
# Indices 1 2 3 4 5 6 
#
# 1 0.012748 -0.004165 -0.004165 0.000000 0.000000 0.000000
# 2 -0.004165 0.012748 -0.004165 0.000000 0.000000 0.000000
# 3 -0.004165 -0.004165 0.012748 0.000000 0.000000 0.000000
# 4 0.000000 0.000000 0.000000 0.034951 0.000000 0.000000
# 5 0.000000 0.000000 0.000000 0.000000 0.034951 0.000000
# 6 0.000000 0.000000 0.000000 0.000000 0.000000 0.034952
#
#
# Mechanical properties :
#
#
# Convention : Reuss Voigt Hill
#
# Bulk Modulus (GPa) = 75.45280 75.45280 75.45280
# Shear Modulus (GPa) = 28.98431 28.99175 28.98803
#
# Velocity S-wave (km/s) = 3.84217 3.84266 3.84242
# Velocity P-wave (km/s) = 7.62316 7.62349 7.62333
#
# Compressibility (1/GPa) = 0.01325332
#
# Stress axis : x y z
#
# Youngs Moduli (GPa) = 78.44137 78.44430 78.44273
#
# Poissons Ratio (x) = 0.32673 0.32673
# Poissons Ratio (y) = 0.32672 0.32673
# Poissons Ratio (z) = 0.32672 0.32674
#
# Static dielectric constant tensor:
#      x y z
#    x 5.083390 0.000000 0.000000 
#    y 0.000000 4.987080 0.000000 
#    z 0.000000 0.000000 5.048310 
# 
# 
# High freq. dielectric constant tensor:
#      x y z
#    x 1.764210 0.000000 0.000000 
#    y 0.000000 1.764210 0.000000 
#    z 0.000000 0.000000 1.764210 
# 
# From -- ./inp_files/487.got.cif
#   From: 2010.03.12/outbox.cif.g09.slc.cpg/sg203_cif.got.tgz:487.got - 2010.03.30 09:02:32.
