data_PCOD8330867
_publ_section_title
;
Structure prediction by ZEFSAII (Michael W. Deem and Ramdas Pophale) SiO2 
 PCOD8330867
Probable space group: P 2 3
;
_chemical_formula_sum "Si O2"
_cell_formula_units_Z 96
_cell_length_a 18.166472
_cell_length_b 18.166472
_cell_length_c 18.166472
_cell_angle_alpha 90.000000
_cell_angle_beta 90.000000
_cell_angle_gamma 90.000000
_cell_volume 5995.311895
_symmetry_space_group_name_H-M "P 2 3"
_symmetry_group_IT_number 195
_symmetry_cell_setting 'cubic'
loop_
_space_group_symop_operation_xyz
x,y,z
z,x,y
y,z,x
-y,-z,x
z,-x,-y
-y,z,-x
-z,-x,y
-z,x,-y
y,-z,-x
-x,-y,z
x,-y,-z
-x,y,-z
loop_
_atom_site_type_symbol
_atom_site_label
_atom_site_fract_x
_atom_site_fract_y
_atom_site_fract_z
Si Si1 0.505190 0.417217 0.839597
Si Si2 0.084476 0.785190 0.413175
Si Si3 0.814850 0.918296 0.413778
Si Si4 0.083675 0.216048 0.414240
Si Si5 0.549792 0.567611 0.328067
Si Si6 0.095851 0.364832 0.655154
Si Si7 0.415745 0.815225 0.082664
Si Si8 0.926495 0.634228 0.344834
O O1 0.500000 0.500000 0.868574
O O2 0.536753 0.415848 0.757101
O O3 0.425010 0.380177 0.849192
O O4 0.562158 0.374464 0.888574
O O5 0.093045 0.771387 0.499509
O O6 0.121329 0.716085 0.371260
O O7 0.124153 0.859877 0.388697
O O8 0.000166 0.797478 0.390795
O O9 0.870852 0.855159 0.386711
O O10 0.793772 0.905908 0.498937
O O11 0.742518 0.914761 0.363653
O O12 0.848243 0.000519 0.403500
O O13 0.110811 0.291244 0.375623
O O14 0.630764 0.537396 0.353543
O O15 0.500000 0.500000 0.355182
O O16 0.098666 0.367898 0.743066
O O17 0.011212 0.374827 0.629753
#
# Coordination Sequence:
#
# PCOD8330867 Si02
#       8
#    12  12  12  12  12  12  12  12
#     4  11  21  32  47  74  96 119 167 209 236 288
#     4   9  18  32  49  69  97 122 156 202 239 277
#     4   9  17  31  50  71  93 125 163 186 236 295
#     4   9  18  31  48  73  94 122 158 196 240 282
#     4   9  20  37  55  69  86 122 167 211 260 300
#     4  10  19  34  49  69  96 131 164 187 242 298
#     4   9  17  32  51  67  93 128 156 195 235 287
#     4  10  19  32  50  67 100 136 153 191 243 293
#
# _framework density 16.012512999999998
#
# number of rings (size 3 to 8) (size 9 to 14) (size 15 to 20)
#    0.250    2.250    1.250    1.375    0.000    3.500 
#    6.000    2.500    0.000    0.000    0.000    0.000 
#    0.000    0.000    0.000    0.000    0.000    0.000 
#
# Total GULP energy -1189768.910625 kJ/mol
# GULP energy per Si atom -12393.426152 kJ/mol
# Density = 1.597607 g / cm^3
# Si number density = 16.012513 Si / 1000 Ang^3
#
#
#
# Elastic Constant Matrix: (Units=GPa)
#
#
# Indices 1 2 3 4 5 6 
#
# 1 71.4659 29.5258 29.5258 0.0000 0.0000 0.0000
# 2 29.5258 71.4659 29.5258 0.0000 0.0000 0.0000
# 3 29.5258 29.5258 71.4659 0.0000 0.0000 0.0000
# 4 0.0000 0.0000 0.0000 16.8991 0.0000 0.0000
# 5 0.0000 0.0000 0.0000 0.0000 16.8991 0.0000
# 6 0.0000 0.0000 0.0000 0.0000 0.0000 16.8991
#
#
#
# Elastic Compliance Matrix: (Units=1/GPa)
#
#
# Indices 1 2 3 4 5 6 
#
# 1 0.018450 -0.005394 -0.005394 0.000000 0.000000 0.000000
# 2 -0.005394 0.018450 -0.005394 0.000000 0.000000 0.000000
# 3 -0.005394 -0.005394 0.018450 0.000000 0.000000 0.000000
# 4 0.000000 0.000000 0.000000 0.059175 0.000000 0.000000
# 5 0.000000 0.000000 0.000000 0.000000 0.059175 0.000000
# 6 0.000000 0.000000 0.000000 0.000000 0.000000 0.059175
#
#
# Mechanical properties :
#
#
# Convention : Reuss Voigt Hill
#
# Bulk Modulus (GPa) = 43.50582 43.50582 43.50582
# Shear Modulus (GPa) = 18.32182 18.52747 18.42465
#
# Velocity S-wave (km/s) = 3.38630 3.40525 3.39579
# Velocity P-wave (km/s) = 6.52060 6.53375 6.52718
#
# Compressibility (1/GPa) = 0.02298543
#
# Stress axis : x y z
#
# Youngs Moduli (GPa) = 54.20169 54.20169 54.20169
#
# Poissons Ratio (x) = 0.29236 0.29236
# Poissons Ratio (y) = 0.29236 0.29236
# Poissons Ratio (z) = 0.29236 0.29236
#
# Static dielectric constant tensor:
#      x y z
#    x 3.030740 0.000000 0.000000 
#    y 0.000000 3.030740 0.000000 
#    z 0.000000 0.000000 3.030740 
# 
# 
# High freq. dielectric constant tensor:
#      x y z
#    x 1.606390 0.000000 0.000000 
#    y 0.000000 1.606390 0.000000 
#    z 0.000000 0.000000 1.606390 
# 
# From -- ./inp_files/494.got.cif
#   From: 2010.03.12/outbox.cif.g09.slc.cpg/sg195_cif.got.tgz:494.got - 2010.04.01 12:33:13.
