data_PCOD8330317
_publ_section_title
;
Structure prediction by ZEFSAII (Michael W. Deem and Ramdas Pophale) SiO2 
 PCOD8330317
Probable space group: P 63/M M C
;
_chemical_formula_sum "Si O2"
_cell_formula_units_Z 96
_cell_length_a 17.762244
_cell_length_b 17.762244
_cell_length_c 20.214308
_cell_angle_alpha 90.000000
_cell_angle_beta 90.000000
_cell_angle_gamma 120.000000
_cell_volume 5523.128832
_symmetry_space_group_name_H-M "P 63/M M C"
_symmetry_group_IT_number 194
_symmetry_cell_setting 'hexagonal'
loop_
_space_group_symop_operation_xyz
x,y,z
x-y,x,1/2+z
-y,x-y,z
-x,-y,1/2+z
-x+y,-x,z
y,-x+y,1/2+z
x-y,-y,-z
-x,-x+y,-z
y,x,-z
-y,-x,1/2-z
-x+y,y,1/2-z
x,x-y,1/2-z
-x,-y,-z
-x+y,-x,1/2-z
y,-x+y,-z
x,y,1/2-z
x-y,x,-z
-y,x-y,1/2-z
-x+y,y,z
x,x-y,z
-y,-x,z
y,x,1/2+z
x-y,-y,1/2+z
-x,-x+y,1/2+z
loop_
_atom_site_type_symbol
_atom_site_label
_atom_site_fract_x
_atom_site_fract_y
_atom_site_fract_z
Si Si1 0.165761 0.666485 0.854534
Si Si2 0.834064 0.500547 0.989256
Si Si3 0.323616 0.323616 0.000000
Si Si4 0.307582 0.242734 0.135754
Si Si5 0.999941 0.178835 0.750000
O O1 0.148124 0.574062 0.824954
O O2 0.255301 0.744700 0.823920
O O3 0.084040 0.681108 0.839205
O O4 0.176531 0.666737 0.932643
O O5 0.753226 0.506451 0.958637
O O6 0.835189 0.417595 0.957982
O O7 0.923274 0.586321 0.971236
O O8 0.257637 0.285359 0.938593
O O9 0.312951 0.156476 0.133849
O O10 0.232627 0.232376 0.185538
O O11 0.081986 0.163971 0.750000
O O12 0.913451 0.086550 0.750000
#
# Coordination Sequence:
#
# PCOD8330317 Si02
#       5
#    24  24  12  24  12
#     4   8  13  23  41  66  96 129 160 187 219 265
#     4   9  16  25  39  62  94 130 165 198 231 270
#     4  10  17  28  48  74  99 122 152 192 237 282
#     4   9  19  33  49  71  97 123 152 190 235 277
#     4  10  21  38  57  72  88 116 154 192 231 282
#
# _framework density 17.381451999999999
#
# number of rings (size 3 to 8) (size 9 to 14) (size 15 to 20)
#    0.000    3.000    0.000    3.250    0.000    5.000 
#    0.000    0.625    0.000    0.000    0.000    6.125 
#    0.000    0.000    0.000    1.000    0.000    1.000 
#
# Total GULP energy -1189749.215789 kJ/mol
# GULP energy per Si atom -12393.220998 kJ/mol
# Density = 1.734189 g / cm^3
# Si number density = 17.381452 Si / 1000 Ang^3
#
#
#
# Elastic Constant Matrix: (Units=GPa)
#
#
# Indices 1 2 3 4 5 6 
#
# 1 90.4225 37.6684 28.2880 0.0000 0.0000 0.0000
# 2 37.6684 90.4225 28.2880 0.0000 0.0000 0.0000
# 3 28.2880 28.2880 60.6394 0.0000 0.0000 0.0000
# 4 0.0000 0.0000 0.0000 13.7947 0.0000 0.0000
# 5 0.0000 0.0000 0.0000 0.0000 13.7947 0.0000
# 6 0.0000 0.0000 0.0000 0.0000 0.0000 26.3771
#
#
#
# Elastic Compliance Matrix: (Units=1/GPa)
#
#
# Indices 1 2 3 4 5 6 
#
# 1 0.014394 -0.004561 -0.004587 0.000000 0.000000 0.000000
# 2 -0.004561 0.014394 -0.004587 0.000000 0.000000 0.000000
# 3 -0.004587 -0.004587 0.020771 0.000000 0.000000 0.000000
# 4 0.000000 0.000000 0.000000 0.072491 0.000000 0.000000
# 5 0.000000 0.000000 0.000000 0.000000 0.072491 0.000000
# 6 0.000000 0.000000 0.000000 0.000000 0.000000 0.037912
#
#
# Mechanical properties :
#
#
# Convention : Reuss Voigt Hill
#
# Bulk Modulus (GPa) = 45.27261 47.77478 46.52370
# Shear Modulus (GPa) = 18.70643 20.60931 19.65787
#
# Velocity S-wave (km/s) = 3.28415 3.44715 3.36664
# Velocity P-wave (km/s) = 6.36270 6.58707 6.47586
#
# Compressibility (1/GPa) = 0.02208841
#
# Stress axis : x y z
#
# Youngs Moduli (GPa) = 69.47134 69.47134 48.14499
#
# Poissons Ratio (x) = 0.31689 0.22084
# Poissons Ratio (y) = 0.31689 0.22084
# Poissons Ratio (z) = 0.31867 0.31867
#
# Static dielectric constant tensor:
#      x y z
#    x 3.400480 0.000000 0.000000 
#    y 0.000000 3.400480 0.000000 
#    z 0.000000 0.000000 2.927770 
# 
# 
# High freq. dielectric constant tensor:
#      x y z
#    x 1.669100 0.000000 0.000000 
#    y 0.000000 1.669100 0.000000 
#    z 0.000000 0.000000 1.628670 
# 
# From -- ./inp_files/7824.got.cif
#   From: 2010.03.12/outbox.cif.g09.slc.cpg/sg194_4_cif.got.tgz:7824.got - 2010.04.01 12:26:19.
