data_PCOD8330686
_publ_section_title
;
Structure prediction by ZEFSAII (Michael W. Deem and Ramdas Pophale) SiO2 
 PCOD8330686
Probable space group: P 63/M M C
;
_chemical_formula_sum "Si O2"
_cell_formula_units_Z 144
_cell_length_a 30.356317
_cell_length_b 30.356317
_cell_length_c 9.159122
_cell_angle_alpha 90.000000
_cell_angle_beta 90.000000
_cell_angle_gamma 120.000000
_cell_volume 7309.415238
_symmetry_space_group_name_H-M "P 63/M M C"
_symmetry_group_IT_number 194
_symmetry_cell_setting 'hexagonal'
loop_
_space_group_symop_operation_xyz
x,y,z
x-y,x,1/2+z
-y,x-y,z
-x,-y,1/2+z
-x+y,-x,z
y,-x+y,1/2+z
x-y,-y,-z
-x,-x+y,-z
y,x,-z
-y,-x,1/2-z
-x+y,y,1/2-z
x,x-y,1/2-z
-x,-y,-z
-x+y,-x,1/2-z
y,-x+y,-z
x,y,1/2-z
x-y,x,-z
-y,x-y,1/2-z
-x+y,y,z
x,x-y,z
-y,-x,z
y,x,1/2+z
x-y,-y,1/2+z
-x,-x+y,1/2+z
loop_
_atom_site_type_symbol
_atom_site_label
_atom_site_fract_x
_atom_site_fract_y
_atom_site_fract_z
Si Si1 0.799767 0.700661 0.579054
Si Si2 0.667135 0.233974 0.077133
Si Si3 0.472496 0.428940 0.593850
Si Si4 0.520157 0.873854 0.581601
Si Si5 0.360904 0.054798 0.422710
Si Si6 0.047221 0.194821 0.584967
O O1 0.787858 0.701320 0.750000
O O2 0.841404 0.682808 0.555516
O O3 0.749566 0.664336 0.490535
O O4 0.819756 0.755746 0.512203
O O5 0.667543 0.238793 0.250000
O O6 0.614392 0.228783 0.016209
O O7 0.715454 0.284547 0.010883
O O8 0.673504 0.185401 0.033397
O O9 0.425331 0.425331 0.500000
O O10 0.450112 0.401897 0.750000
O O11 0.512244 0.487757 0.622370
O O12 0.502220 0.404972 0.511897
O O13 0.509690 0.878316 0.750000
O O14 0.580005 0.904525 0.545415
O O15 0.350007 0.046054 0.250000
O O16 0.340316 0.000000 0.500000
O O17 0.033859 0.203515 0.750000
O O18 0.089087 0.178174 0.590062
O O19 0.000000 0.149824 0.500000
#
# Coordination Sequence:
#
# PCOD8330686 Si02
#       6
#    24  24  24  24  24  24
#     4  10  21  37  57  80 107 142 185 233 283 335
#     4   9  17  31  54  84 115 145 180 227 285 348
#     4  10  20  33  51  75 103 136 173 213 257 306
#     4  10  21  35  53  78 108 143 181 224 273 326
#     4  11  23  37  54  77 109 151 195 239 287 340
#     4  10  20  34  54  80 109 141 178 223 274 325
#
# _framework density 19.700619
#
# number of rings (size 3 to 8) (size 9 to 14) (size 15 to 20)
#    0.000    2.000    0.000    3.667    0.000    7.667 
#    0.000    1.667    0.000    0.667    0.000    0.000 
#    0.000    1.333    0.000    0.000    0.000    0.000 
#
# Total GULP energy -1784335.379013 kJ/mol
# GULP energy per Si atom -12391.217910 kJ/mol
# Density = 1.965578 g / cm^3
# Si number density = 19.700619 Si / 1000 Ang^3
#
#
#
# Elastic Constant Matrix: (Units=GPa)
#
#
# Indices 1 2 3 4 5 6 
#
# 1 119.0325 68.2071 56.2740 0.0000 0.0000 0.0000
# 2 68.2071 119.0325 56.2740 0.0000 0.0000 0.0000
# 3 56.2740 56.2740 111.0254 0.0000 0.0000 0.0000
# 4 0.0000 0.0000 0.0000 22.3077 0.0000 0.0000
# 5 0.0000 0.0000 0.0000 0.0000 22.3077 0.0000
# 6 0.0000 0.0000 0.0000 0.0000 0.0000 25.4127
#
#
#
# Elastic Compliance Matrix: (Units=1/GPa)
#
#
# Indices 1 2 3 4 5 6 
#
# 1 0.013678 -0.005997 -0.003893 0.000000 0.000000 0.000000
# 2 -0.005997 0.013678 -0.003893 0.000000 0.000000 0.000000
# 3 -0.003893 -0.003893 0.012953 0.000000 0.000000 0.000000
# 4 0.000000 0.000000 0.000000 0.044827 0.000000 0.000000
# 5 0.000000 0.000000 0.000000 0.000000 0.044827 0.000000
# 6 0.000000 0.000000 0.000000 0.000000 0.000000 0.039350
#
#
# Mechanical properties :
#
#
# Convention : Reuss Voigt Hill
#
# Bulk Modulus (GPa) = 78.47591 78.95562 78.71577
# Shear Modulus (GPa) = 24.85964 25.22798 25.04381
#
# Velocity S-wave (km/s) = 3.55614 3.58238 3.56928
# Velocity P-wave (km/s) = 7.53540 7.56809 7.55176
#
# Compressibility (1/GPa) = 0.01274276
#
# Stress axis : x y z
#
# Youngs Moduli (GPa) = 73.10992 73.10992 77.19957
#
# Poissons Ratio (x) = 0.43845 0.30055
# Poissons Ratio (y) = 0.43845 0.30055
# Poissons Ratio (z) = 0.28462 0.28462
#
# Static dielectric constant tensor:
#      x y z
#    x 3.687210 0.000000 0.000000 
#    y 0.000000 3.687210 0.000000 
#    z 0.000000 0.000000 3.782110 
# 
# 
# High freq. dielectric constant tensor:
#      x y z
#    x 1.764800 0.000000 0.000000 
#    y 0.000000 1.764800 0.000000 
#    z 0.000000 0.000000 1.764460 
# 
# From -- ./inp_files/2087.got.cif
#   From: 2010.03.12/outbox.cif.g09.slc.cpg/sg194_2_cif.got.tgz:2087.got - 2010.04.01 12:26:19.
