data_PCOD8330009
_publ_section_title
;
Structure prediction by ZEFSAII (Michael W. Deem and Ramdas Pophale) SiO2 
 PCOD8330009
Probable space group: P 63/M C M
;
_chemical_formula_sum "Si O2"
_cell_formula_units_Z 168
_cell_length_a 29.594004
_cell_length_b 29.594004
_cell_length_c 15.068597
_cell_angle_alpha 90.000000
_cell_angle_beta 90.000000
_cell_angle_gamma 120.000000
_cell_volume 11429.070355
_symmetry_space_group_name_H-M "P 63/M C M"
_symmetry_group_IT_number 193
_symmetry_cell_setting 'hexagonal'
loop_
_space_group_symop_operation_xyz
x,y,z
x-y,x,1/2+z
-y,x-y,z
-x,-y,1/2+z
-x+y,-x,z
y,-x+y,1/2+z
x-y,-y,1/2-z
-x,-x+y,1/2-z
y,x,1/2-z
-y,-x,-z
-x+y,y,-z
x,x-y,-z
-x,-y,-z
-x+y,-x,1/2-z
y,-x+y,-z
x,y,1/2-z
x-y,x,-z
-y,x-y,1/2-z
-x+y,y,1/2+z
x,x-y,1/2+z
-y,-x,1/2+z
y,x,z
x-y,-y,z
-x,-x+y,z
loop_
_atom_site_type_symbol
_atom_site_label
_atom_site_fract_x
_atom_site_fract_y
_atom_site_fract_z
Si Si1 0.061925 0.530963 0.148504
Si Si2 0.119368 0.238735 0.899359
Si Si3 0.462662 0.062106 1.000000
Si Si4 0.937826 0.299601 1.000000
Si Si5 0.059355 0.763729 0.848681
Si Si6 0.880693 0.940347 0.644944
Si Si7 0.704374 0.940645 0.151318
O O1 0.085177 0.542588 0.250000
O O2 0.080812 0.496928 0.090805
O O3 0.000000 0.500000 0.155998
O O4 0.080812 0.583884 0.090805
O O5 0.174301 0.262257 0.851073
O O6 0.088230 0.176460 0.896553
O O7 0.087957 0.262257 0.851073
O O8 0.128903 0.257805 0.000000
O O9 0.424075 0.085935 1.000000
O O10 0.431114 0.000000 1.000000
O O11 0.916893 0.262121 0.085964
O O12 0.000000 0.334318 0.000000
O O13 0.916894 0.262121 0.914036
O O14 0.063502 0.745612 0.750000
O O15 0.000000 0.744071 0.876388
O O16 0.875645 0.937823 0.750000
O O17 0.911781 0.911781 0.611548
O O18 0.911781 0.000000 0.611547
O O19 0.682111 0.936498 0.250000
O O20 0.744071 0.000000 0.123612
#
# Coordination Sequence:
#
# PCOD8330009 Si02
#       7
#    24  24  24  24  24  24  24
#     4   8  13  21  34  53  77 106 137 161 184 215
#     4  12  22  33  49  64  81 102 125 161 205 254
#     4   8  14  23  35  53  78 104 130 163 191 216
#     4   9  17  29  42  59  81 102 129 161 197 238
#     4  10  20  33  47  62  80 101 127 162 205 256
#     4  10  21  36  52  68  84 101 121 150 196 262
#     4  10  20  33  47  62  80 101 127 162 205 256
#
# _framework density 14.699358999999999
#
# number of rings (size 3 to 8) (size 9 to 14) (size 15 to 20)
#    0.000    2.429    1.429    3.143    0.000    5.714 
#    0.000    5.714    0.000    0.857    0.000    0.000 
#    0.000    0.000    0.000    0.000    0.000    0.000 
#
# Total GULP energy -2082376.955976 kJ/mol
# GULP energy per Si atom -12395.100928 kJ/mol
# Density = 1.466590 g / cm^3
# Si number density = 14.699359 Si / 1000 Ang^3
#
#
#
# Elastic Constant Matrix: (Units=GPa)
#
#
# Indices 1 2 3 4 5 6 
#
# 1 72.2132 35.1962 34.4041 0.0000 0.0000 0.0000
# 2 35.1962 72.2132 34.4041 0.0000 0.0000 0.0000
# 3 34.4041 34.4041 111.6073 0.0000 0.0000 0.0000
# 4 0.0000 0.0000 0.0000 13.3800 0.0000 0.0000
# 5 0.0000 0.0000 0.0000 0.0000 13.3800 0.0000
# 6 0.0000 0.0000 0.0000 0.0000 0.0000 18.5085
#
#
#
# Elastic Compliance Matrix: (Units=1/GPa)
#
#
# Indices 1 2 3 4 5 6 
#
# 1 0.019308 -0.007707 -0.003576 0.000000 0.000000 0.000000
# 2 -0.007707 0.019308 -0.003576 0.000000 0.000000 0.000000
# 3 -0.003576 -0.003576 0.011165 0.000000 0.000000 0.000000
# 4 0.000000 0.000000 0.000000 0.074739 0.000000 0.000000
# 5 0.000000 0.000000 0.000000 0.000000 0.074739 0.000000
# 6 0.000000 0.000000 0.000000 0.000000 0.000000 0.054029
#
#
# Mechanical properties :
#
#
# Convention : Reuss Voigt Hill
#
# Bulk Modulus (GPa) = 49.84461 51.56028 50.70245
# Shear Modulus (GPa) = 17.25967 19.18897 18.22432
#
# Velocity S-wave (km/s) = 3.43035 3.61699 3.52490
# Velocity P-wave (km/s) = 7.04789 7.25232 7.15084
#
# Compressibility (1/GPa) = 0.02006235
#
# Stress axis : x y z
#
# Youngs Moduli (GPa) = 51.79237 51.79237 89.56747
#
# Poissons Ratio (x) = 0.39915 0.32031
# Poissons Ratio (y) = 0.39915 0.32031
# Poissons Ratio (z) = 0.18522 0.18522
#
# Static dielectric constant tensor:
#      x y z
#    x 2.701930 0.000000 0.000000 
#    y 0.000000 2.701930 0.000000 
#    z 0.000000 0.000000 3.101930 
# 
# 
# High freq. dielectric constant tensor:
#      x y z
#    x 1.522800 0.000000 0.000000 
#    y 0.000000 1.522800 0.000000 
#    z 0.000000 0.000000 1.583500 
# 
# From -- ./inp_files/4409.got.cif
#   From: 2010.03.12/outbox.cif.g09.slc.cpg/sg193_3_cif.got.tgz:4409.got - 2010.04.01 12:20:39.
