data_PCOD8330563
_publ_section_title
;
Structure prediction by ZEFSAII (Michael W. Deem and Ramdas Pophale) SiO2 
 PCOD8330563
Probable space group: P 63/M M C
;
_chemical_formula_sum "Si O2"
_cell_formula_units_Z 168
_cell_length_a 17.217335
_cell_length_b 17.217335
_cell_length_c 35.904262
_cell_angle_alpha 90.000000
_cell_angle_beta 90.000000
_cell_angle_gamma 120.000000
_cell_volume 9217.401290
_symmetry_space_group_name_H-M "P 63/M M C"
_symmetry_group_IT_number 194
_symmetry_cell_setting 'hexagonal'
loop_
_space_group_symop_operation_xyz
x,y,z
x-y,x,1/2+z
-y,x-y,z
-x,-y,1/2+z
-x+y,-x,z
y,-x+y,1/2+z
x-y,-y,-z
-x,-x+y,-z
y,x,-z
-y,-x,1/2-z
-x+y,y,1/2-z
x,x-y,1/2-z
-x,-y,-z
-x+y,-x,1/2-z
y,-x+y,-z
x,y,1/2-z
x-y,x,-z
-y,x-y,1/2-z
-x+y,y,z
x,x-y,z
-y,-x,z
y,x,1/2+z
x-y,-y,1/2+z
-x,-x+y,1/2+z
loop_
_atom_site_type_symbol
_atom_site_label
_atom_site_fract_x
_atom_site_fract_y
_atom_site_fract_z
Si Si1 0.177844 0.177041 0.931550
Si Si2 0.904441 0.631216 0.457747
Si Si3 0.333700 0.496258 0.705817
Si Si4 0.056391 0.761061 0.792405
Si Si5 0.154055 0.488514 0.472975
Si Si6 0.600723 0.576459 0.594446
Si Si7 0.235923 0.939078 0.139394
O O1 0.073395 0.146790 0.930789
O O2 0.234210 0.261434 0.958815
O O3 0.216750 0.205844 0.890112
O O4 0.188395 0.094198 0.946402
O O5 0.805354 0.610707 0.446161
O O6 0.903576 0.591626 0.498296
O O7 0.934447 0.583343 0.426943
O O8 0.332722 0.502367 0.750000
O O9 0.258663 0.517326 0.689532
O O10 0.430841 0.569160 0.689503
O O11 0.309561 0.396616 0.694687
O O12 0.020376 0.743160 0.750000
O O13 0.138327 0.861674 0.796191
O O14 0.976840 0.744657 0.820019
O O15 0.255669 0.511338 0.469871
O O16 0.153261 0.576631 0.487050
O O17 0.108808 0.457382 0.432962
O O18 0.505816 0.494185 0.607988
O O19 0.665261 0.621055 0.629854
O O20 0.167021 0.832980 0.139454
#
# Coordination Sequence:
#
# PCOD8330563 Si02
#       7
#    24  24  24  24  24  24  24
#     4   9  17  30  49  72  98 130 166 203 243 290
#     4   9  18  31  48  73 102 131 165 205 248 295
#     4   8  13  22  39  65  95 124 152 182 218 263
#     4   9  18  32  50  72  98 128 160 196 240 289
#     4  10  19  32  51  74 100 129 165 210 258 304
#     4  10  20  34  52  73  99 132 168 207 250 294
#     4  10  20  33  50  73  98 125 162 205 249 298
#
# _framework density 18.226395
#
# number of rings (size 3 to 8) (size 9 to 14) (size 15 to 20)
#    0.000    2.714    0.000    3.000    0.000    3.714 
#    0.000    0.714    0.000    0.857    0.000    1.000 
#    0.000   37.714    0.000    0.000    0.000    0.000 
#
# Total GULP energy -2082884.428652 kJ/mol
# GULP energy per Si atom -12398.121599 kJ/mol
# Density = 1.818491 g / cm^3
# Si number density = 18.226395 Si / 1000 Ang^3
#
#
#
# Elastic Constant Matrix: (Units=GPa)
#
#
# Indices 1 2 3 4 5 6 
#
# 1 89.9515 42.9656 33.3896 0.0000 0.0000 0.0000
# 2 42.9656 89.9515 33.3896 0.0000 0.0000 0.0000
# 3 33.3896 33.3896 69.0456 0.0000 0.0000 0.0000
# 4 0.0000 0.0000 0.0000 22.4025 0.0000 0.0000
# 5 0.0000 0.0000 0.0000 0.0000 22.4025 0.0000
# 6 0.0000 0.0000 0.0000 0.0000 0.0000 23.4929
#
#
#
# Elastic Compliance Matrix: (Units=1/GPa)
#
#
# Indices 1 2 3 4 5 6 
#
# 1 0.015611 -0.005672 -0.004806 0.000000 0.000000 0.000000
# 2 -0.005672 0.015611 -0.004806 0.000000 0.000000 0.000000
# 3 -0.004806 -0.004806 0.019131 0.000000 0.000000 0.000000
# 4 0.000000 0.000000 0.000000 0.044638 0.000000 0.000000
# 5 0.000000 0.000000 0.000000 0.000000 0.044638 0.000000
# 6 0.000000 0.000000 0.000000 0.000000 0.000000 0.042566
#
#
# Mechanical properties :
#
#
# Convention : Reuss Voigt Hill
#
# Bulk Modulus (GPa) = 50.54648 52.04869 51.29758
# Shear Modulus (GPa) = 22.79386 22.93984 22.86685
#
# Velocity S-wave (km/s) = 3.54021 3.55153 3.54588
# Velocity P-wave (km/s) = 6.67110 6.74067 6.70597
#
# Compressibility (1/GPa) = 0.01978377
#
# Stress axis : x y z
#
# Youngs Moduli (GPa) = 64.05935 64.05935 52.27024
#
# Poissons Ratio (x) = 0.36338 0.25121
# Poissons Ratio (y) = 0.36338 0.25121
# Poissons Ratio (z) = 0.30786 0.30786
#
# Static dielectric constant tensor:
#      x y z
#    x 3.476430 0.000000 0.000000 
#    y 0.000000 3.476430 0.000000 
#    z 0.000000 0.000000 3.040410 
# 
# 
# High freq. dielectric constant tensor:
#      x y z
#    x 1.705570 0.000000 0.000000 
#    y 0.000000 1.705570 0.000000 
#    z 0.000000 0.000000 1.678430 
# 
# From -- ./inp_files/12288.got.cif
#   From: 2010.03.12/outbox.cif.g09.slc.cpg/sg194_7_cif.got.tgz:12288.got - 2010.04.01 12:26:19.
