data_PCOD8330626
_publ_section_title
;
Structure prediction by ZEFSAII (Michael W. Deem and Ramdas Pophale) SiO2 
 PCOD8330626
Probable space group: P 63/M M C
;
_chemical_formula_sum "Si O2"
_cell_formula_units_Z 72
_cell_length_a 20.243884
_cell_length_b 20.243884
_cell_length_c 10.293878
_cell_angle_alpha 90.000000
_cell_angle_beta 90.000000
_cell_angle_gamma 120.000000
_cell_volume 3653.400877
_symmetry_space_group_name_H-M "P 63/M M C"
_symmetry_group_IT_number 194
_symmetry_cell_setting 'hexagonal'
loop_
_space_group_symop_operation_xyz
x,y,z
x-y,x,1/2+z
-y,x-y,z
-x,-y,1/2+z
-x+y,-x,z
y,-x+y,1/2+z
x-y,-y,-z
-x,-x+y,-z
y,x,-z
-y,-x,1/2-z
-x+y,y,1/2-z
x,x-y,1/2-z
-x,-y,-z
-x+y,-x,1/2-z
y,-x+y,-z
x,y,1/2-z
x-y,x,-z
-y,x-y,1/2-z
-x+y,y,z
x,x-y,z
-y,-x,z
y,x,1/2+z
x-y,-y,1/2+z
-x,-x+y,1/2+z
loop_
_atom_site_type_symbol
_atom_site_label
_atom_site_fract_x
_atom_site_fract_y
_atom_site_fract_z
Si Si1 0.486427 0.668965 0.250000
Si Si2 0.553005 0.701229 0.974912
Si Si3 0.533252 0.066503 0.107433
Si Si4 0.939090 0.214574 0.103700
O O1 0.416769 0.583232 0.250000
O O2 0.452671 0.726336 0.250000
O O3 0.540993 0.684523 0.372148
O O4 0.532590 0.766295 0.932559
O O5 0.500365 0.623563 0.899781
O O6 0.639176 0.727083 0.941011
O O7 0.513634 0.027268 0.250000
O O8 0.500000 0.000000 0.000000
O O9 0.973196 0.235668 0.250000
O O10 0.871061 0.128940 0.100834
O O11 0.000000 0.218752 0.000000
#
# Coordination Sequence:
#
# PCOD8330626 Si02
#       4
#    12  24  12  24
#     4  10  19  34  58  84 115 152 204 258 306 358
#     4  10  22  39  59  84 119 157 201 252 305 357
#     4  12  26  40  62  86 118 160 202 256 310 370
#     4  10  22  40  63  91 122 154 191 238 288 348
#
# _framework density 19.707666
#
# number of rings (size 3 to 8) (size 9 to 14) (size 15 to 20)
#    0.000    1.667    1.667    2.167    4.667    2.667 
#    1.000    0.000    0.000    0.333    0.000    0.000 
#    0.000    0.000    0.000    0.000    0.000    0.000 
#
# Total GULP energy -892818.456634 kJ/mol
# GULP energy per Si atom -12400.256342 kJ/mol
# Density = 1.966281 g / cm^3
# Si number density = 19.707666 Si / 1000 Ang^3
#
#
#
# Elastic Constant Matrix: (Units=GPa)
#
#
# Indices 1 2 3 4 5 6 
#
# 1 70.9794 39.0652 53.7407 0.0000 0.0000 0.0000
# 2 39.0652 70.9794 53.7407 0.0000 0.0000 0.0000
# 3 53.7407 53.7407 181.8508 0.0000 0.0000 0.0000
# 4 0.0000 0.0000 0.0000 30.2577 0.0000 0.0000
# 5 0.0000 0.0000 0.0000 0.0000 30.2577 0.0000
# 6 0.0000 0.0000 0.0000 0.0000 0.0000 15.9571
#
#
#
# Elastic Compliance Matrix: (Units=1/GPa)
#
#
# Indices 1 2 3 4 5 6 
#
# 1 0.022054 -0.009280 -0.003775 0.000000 0.000000 0.000000
# 2 -0.009280 0.022054 -0.003775 0.000000 0.000000 0.000000
# 3 -0.003775 -0.003775 0.007730 0.000000 0.000000 0.000000
# 4 0.000000 0.000000 0.000000 0.033049 0.000000 0.000000
# 5 0.000000 0.000000 0.000000 0.000000 0.033049 0.000000
# 6 0.000000 0.000000 0.000000 0.000000 0.000000 0.062668
#
#
# Mechanical properties :
#
#
# Convention : Reuss Voigt Hill
#
# Bulk Modulus (GPa) = 55.00959 68.54475 61.77717
# Shear Modulus (GPa) = 22.69374 27.11204 24.90289
#
# Velocity S-wave (km/s) = 3.39708 3.71308 3.55859
# Velocity P-wave (km/s) = 6.58485 7.29650 6.94979
#
# Compressibility (1/GPa) = 0.01817865
#
# Stress axis : x y z
#
# Youngs Moduli (GPa) = 45.34282 45.34282 129.36178
#
# Poissons Ratio (x) = 0.42077 0.48835
# Poissons Ratio (y) = 0.42077 0.48835
# Poissons Ratio (z) = 0.17117 0.17117
#
# Static dielectric constant tensor:
#      x y z
#    x 3.522490 0.000000 0.000000 
#    y 0.000000 3.522490 0.000000 
#    z 0.000000 0.000000 3.903720 
# 
# 
# High freq. dielectric constant tensor:
#      x y z
#    x 1.758590 0.000000 0.000000 
#    y 0.000000 1.758590 0.000000 
#    z 0.000000 0.000000 1.787140 
# 
# From -- ./inp_files/1152.got.cif
#   From: 2010.03.12/outbox.cif.g09.slc.cpg/sg194_1_cif.got.tgz:1152.got - 2010.04.01 12:26:19.
