data_PCOD8330857
_publ_section_title
;
Structure prediction by ZEFSAII (Michael W. Deem and Ramdas Pophale) SiO2 
 PCOD8330857
Probable space group: P 63/M M C
;
_chemical_formula_sum "Si O2"
_cell_formula_units_Z 144
_cell_length_a 21.877089
_cell_length_b 21.877089
_cell_length_c 26.787083
_cell_angle_alpha 90.000000
_cell_angle_beta 90.000000
_cell_angle_gamma 120.000000
_cell_volume 11102.866610
_symmetry_space_group_name_H-M "P 63/M M C"
_symmetry_group_IT_number 194
_symmetry_cell_setting 'hexagonal'
loop_
_space_group_symop_operation_xyz
x,y,z
x-y,x,1/2+z
-y,x-y,z
-x,-y,1/2+z
-x+y,-x,z
y,-x+y,1/2+z
x-y,-y,-z
-x,-x+y,-z
y,x,-z
-y,-x,1/2-z
-x+y,y,1/2-z
x,x-y,1/2-z
-x,-y,-z
-x+y,-x,1/2-z
y,-x+y,-z
x,y,1/2-z
x-y,x,-z
-y,x-y,1/2-z
-x+y,y,z
x,x-y,z
-y,-x,z
y,x,1/2+z
x-y,-y,1/2+z
-x,-x+y,1/2+z
loop_
_atom_site_type_symbol
_atom_site_label
_atom_site_fract_x
_atom_site_fract_y
_atom_site_fract_z
Si Si1 0.928533 0.216456 0.606721
Si Si2 0.809412 0.760619 0.045863
Si Si3 0.375788 0.117474 0.987543
Si Si4 0.879743 0.614349 0.805711
Si Si5 0.806100 0.472315 0.526443
Si Si6 0.471949 0.666182 0.144712
O O1 0.863388 0.136613 0.603505
O O2 0.925439 0.266041 0.563102
O O3 0.932814 0.252381 0.659980
O O4 0.002193 0.217753 0.596563
O O5 0.889092 0.778184 0.053709
O O6 0.757579 0.677040 0.033874
O O7 0.807473 0.807473 0.000000
O O8 0.389910 0.194955 0.976836
O O9 0.454553 0.129911 0.997147
O O10 0.911728 0.625655 0.750000
O O11 0.805271 0.610541 0.805365
O O12 0.868096 0.541448 0.828853
O O13 0.728620 0.457240 0.510078
O O14 0.815179 0.407590 0.507164
O O15 0.814463 0.480805 0.585679
O O16 0.458873 0.729437 0.161057
O O17 0.406250 0.593751 0.163852
#
# Coordination Sequence:
#
# PCOD8330857 Si02
#       6
#    24  24  24  24  24  24
#     4   9  15  26  41  54  71  92 114 142 171 203
#     4   9  16  25  41  60  75  91 112 137 169 210
#     4   8  13  22  35  51  68  90 118 145 172 200
#     4   9  16  25  37  52  68  91 125 157 180 204
#     4   9  14  20  31  47  69  95 124 153 182 210
#     4   9  15  22  32  47  69  96 126 159 193 220
#
# _framework density 12.969624
#
# number of rings (size 3 to 8) (size 9 to 14) (size 15 to 20)
#    0.000    3.167    1.667    1.833    0.000    1.667 
#    0.000    0.000    0.000   10.000    0.000    0.000 
#    0.000    0.000    0.000    0.000    0.000    0.000 
#
# Total GULP energy -1784198.339986 kJ/mol
# GULP energy per Si atom -12390.266250 kJ/mol
# Density = 1.294010 g / cm^3
# Si number density = 12.969624 Si / 1000 Ang^3
#
#
#
# Elastic Constant Matrix: (Units=GPa)
#
#
# Indices 1 2 3 4 5 6 
#
# 1 75.0091 38.4036 25.3566 0.0000 0.0000 0.0000
# 2 38.4036 75.0091 25.3566 0.0000 0.0000 0.0000
# 3 25.3566 25.3566 39.1260 0.0000 0.0000 0.0000
# 4 0.0000 0.0000 0.0000 11.0308 0.0000 0.0000
# 5 0.0000 0.0000 0.0000 0.0000 11.0308 0.0000
# 6 0.0000 0.0000 0.0000 0.0000 0.0000 18.3027
#
#
#
# Elastic Compliance Matrix: (Units=1/GPa)
#
#
# Indices 1 2 3 4 5 6 
#
# 1 0.019867 -0.007452 -0.008046 0.000000 0.000000 0.000000
# 2 -0.007452 0.019867 -0.008046 0.000000 0.000000 0.000000
# 3 -0.008046 -0.008046 0.035987 0.000000 0.000000 0.000000
# 4 0.000000 0.000000 0.000000 0.090656 0.000000 0.000000
# 5 0.000000 0.000000 0.000000 0.000000 0.090656 0.000000
# 6 0.000000 0.000000 0.000000 0.000000 0.000000 0.054637
#
#
# Mechanical properties :
#
#
# Convention : Reuss Voigt Hill
#
# Bulk Modulus (GPa) = 34.92390 40.81978 37.87184
# Shear Modulus (GPa) = 13.57588 14.74134 14.15861
#
# Velocity S-wave (km/s) = 3.23885 3.37501 3.30763
# Velocity P-wave (km/s) = 6.40100 6.83589 6.62201
#
# Compressibility (1/GPa) = 0.02863369
#
# Stress axis : x y z
#
# Youngs Moduli (GPa) = 50.33540 50.33540 27.78766
#
# Poissons Ratio (x) = 0.37508 0.22358
# Poissons Ratio (y) = 0.37508 0.22358
# Poissons Ratio (z) = 0.40500 0.40500
#
# Static dielectric constant tensor:
#      x y z
#    x 2.616360 0.000000 0.000000 
#    y 0.000000 2.616360 0.000000 
#    z 0.000000 0.000000 2.456050 
# 
# 
# High freq. dielectric constant tensor:
#      x y z
#    x 1.477160 0.000000 0.000000 
#    y 0.000000 1.477160 0.000000 
#    z 0.000000 0.000000 1.455300 
# 
# From -- ./inp_files/9937.got.cif
#   From: 2010.03.12/outbox.cif.g09.slc.cpg/sg194_5_cif.got.tgz:9937.got - 2010.04.01 12:26:19.
