data_PCOD8330694
_publ_section_title
;
Structure prediction by ZEFSAII (Michael W. Deem and Ramdas Pophale) SiO2 
 PCOD8330694
Probable space group: P 63/M M C
;
_chemical_formula_sum "Si O2"
_cell_formula_units_Z 144
_cell_length_a 31.518605
_cell_length_b 31.518605
_cell_length_c 8.770094
_cell_angle_alpha 90.000000
_cell_angle_beta 90.000000
_cell_angle_gamma 120.000000
_cell_volume 7545.166973
_symmetry_space_group_name_H-M "P 63/M M C"
_symmetry_group_IT_number 194
_symmetry_cell_setting 'hexagonal'
loop_
_space_group_symop_operation_xyz
x,y,z
x-y,x,1/2+z
-y,x-y,z
-x,-y,1/2+z
-x+y,-x,z
y,-x+y,1/2+z
x-y,-y,-z
-x,-x+y,-z
y,x,-z
-y,-x,1/2-z
-x+y,y,1/2-z
x,x-y,1/2-z
-x,-y,-z
-x+y,-x,1/2-z
y,-x+y,-z
x,y,1/2-z
x-y,x,-z
-y,x-y,1/2-z
-x+y,y,z
x,x-y,z
-y,-x,z
y,x,1/2+z
x-y,-y,1/2+z
-x,-x+y,1/2+z
loop_
_atom_site_type_symbol
_atom_site_label
_atom_site_fract_x
_atom_site_fract_y
_atom_site_fract_z
Si Si1 0.146651 0.196537 0.428304
Si Si2 0.428799 0.666736 0.068461
Si Si3 0.333885 0.858483 0.429239
Si Si4 0.287174 0.050718 0.429733
Si Si5 0.387703 0.243003 0.073546
Si Si6 0.948744 0.426077 0.429579
O O1 0.153328 0.153328 0.500000
O O2 0.157920 0.200503 0.250000
O O3 0.091726 0.183451 0.464008
O O4 0.183995 0.248219 0.503447
O O5 0.428240 0.667771 0.250000
O O6 0.432631 0.716316 0.002701
O O7 0.379373 0.620628 0.004969
O O8 0.474545 0.662133 0.009910
O O9 0.343041 0.865539 0.250000
O O10 0.279999 0.847942 0.468206
O O11 0.374086 0.906901 0.512225
O O12 0.279857 0.044834 0.250000
O O13 0.340702 0.093790 0.474453
O O14 0.279299 0.000000 0.500000
O O15 0.401204 0.257219 0.250000
O O16 0.376573 0.188287 0.040864
O O17 0.952908 0.424150 0.250000
O O18 0.936955 0.468478 0.480411
O O19 0.000000 0.436507 0.500000
#
# Coordination Sequence:
#
# PCOD8330694 Si02
#       6
#    24  24  24  24  24  24
#     4  10  20  33  52  79 108 139 176 218 265 316
#     4   9  17  30  50  77 108 140 175 217 265 315
#     4  11  22  35  54  81 113 146 181 224 272 326
#     4  10  20  35  56  80 106 138 176 220 270 320
#     4  10  22  39  56  75 105 147 190 230 274 324
#     4  10  21  38  60  84 110 142 181 225 274 326
#
# _framework density 19.085066000000001
#
# number of rings (size 3 to 8) (size 9 to 14) (size 15 to 20)
#    0.000    2.000    0.000    4.667    0.000    7.333 
#    0.000    1.667    0.000    0.167    0.000    0.000 
#    0.000    8.000    0.000    0.000    0.000    0.000 
#
# Total GULP energy -1786132.445242 kJ/mol
# GULP energy per Si atom -12403.697536 kJ/mol
# Density = 1.904163 g / cm^3
# Si number density = 19.085066 Si / 1000 Ang^3
#
#
#
# Elastic Constant Matrix: (Units=GPa)
#
#
# Indices 1 2 3 4 5 6 
#
# 1 133.4041 65.8165 37.3032 0.0000 0.0000 0.0000
# 2 65.8165 133.4041 37.3032 0.0000 0.0000 0.0000
# 3 37.3032 37.3032 67.8513 0.0000 0.0000 0.0000
# 4 0.0000 0.0000 0.0000 28.0593 0.0000 0.0000
# 5 0.0000 0.0000 0.0000 0.0000 28.0593 0.0000
# 6 0.0000 0.0000 0.0000 0.0000 0.0000 33.7938
#
#
#
# Elastic Compliance Matrix: (Units=1/GPa)
#
#
# Indices 1 2 3 4 5 6 
#
# 1 0.010558 -0.004237 -0.003475 0.000000 0.000000 0.000000
# 2 -0.004237 0.010558 -0.003475 0.000000 0.000000 0.000000
# 3 -0.003475 -0.003475 0.018559 0.000000 0.000000 0.000000
# 4 0.000000 0.000000 0.000000 0.035639 0.000000 0.000000
# 5 0.000000 0.000000 0.000000 0.000000 0.035639 0.000000
# 6 0.000000 0.000000 0.000000 0.000000 0.000000 0.029591
#
#
# Mechanical properties :
#
#
# Convention : Reuss Voigt Hill
#
# Bulk Modulus (GPa) = 57.80141 68.38947 63.09544
# Shear Modulus (GPa) = 29.64073 30.93157 30.28615
#
# Velocity S-wave (km/s) = 3.94520 4.03019 3.98792
# Velocity P-wave (km/s) = 7.14876 7.58738 7.37133
#
# Compressibility (1/GPa) = 0.01730062
#
# Stress axis : x y z
#
# Youngs Moduli (GPa) = 94.71225 94.71225 53.88158
#
# Poissons Ratio (x) = 0.40133 0.18725
# Poissons Ratio (y) = 0.40133 0.18725
# Poissons Ratio (z) = 0.32914 0.32914
#
# Static dielectric constant tensor:
#      x y z
#    x 3.573070 0.000000 0.000000 
#    y 0.000000 3.573070 0.000000 
#    z 0.000000 0.000000 3.411300 
# 
# 
# High freq. dielectric constant tensor:
#      x y z
#    x 1.747960 0.000000 0.000000 
#    y 0.000000 1.747960 0.000000 
#    z 0.000000 0.000000 1.734680 
# 
# From -- ./inp_files/2160.got.cif
#   From: 2010.03.12/outbox.cif.g09.slc.cpg/sg194_2_cif.got.tgz:2160.got - 2010.04.01 12:26:19.
