data_PCOD8330523
_publ_section_title
;
Structure prediction by ZEFSAII (Michael W. Deem and Ramdas Pophale) SiO2 
 PCOD8330523
Probable space group: P 63/M M C
;
_chemical_formula_sum "Si O2"
_cell_formula_units_Z 120
_cell_length_a 22.780821
_cell_length_b 22.780821
_cell_length_c 14.911969
_cell_angle_alpha 90.000000
_cell_angle_beta 90.000000
_cell_angle_gamma 120.000000
_cell_volume 6701.999129
_symmetry_space_group_name_H-M "P 63/M M C"
_symmetry_group_IT_number 194
_symmetry_cell_setting 'hexagonal'
loop_
_space_group_symop_operation_xyz
x,y,z
x-y,x,1/2+z
-y,x-y,z
-x,-y,1/2+z
-x+y,-x,z
y,-x+y,1/2+z
x-y,-y,-z
-x,-x+y,-z
y,x,-z
-y,-x,1/2-z
-x+y,y,1/2-z
x,x-y,1/2-z
-x,-y,-z
-x+y,-x,1/2-z
y,-x+y,-z
x,y,1/2-z
x-y,x,-z
-y,x-y,1/2-z
-x+y,y,z
x,x-y,z
-y,-x,z
y,x,1/2+z
x-y,-y,1/2+z
-x,-x+y,1/2+z
loop_
_atom_site_type_symbol
_atom_site_label
_atom_site_fract_x
_atom_site_fract_y
_atom_site_fract_z
Si Si1 0.747191 0.117834 0.652304
Si Si2 0.198171 0.532053 0.854816
Si Si3 0.132827 0.730282 0.541378
Si Si4 0.246884 0.970691 0.651651
Si Si5 0.868608 0.869244 0.605418
O O1 0.716285 0.122814 0.750000
O O2 0.825733 0.174268 0.647609
O O3 0.709868 0.125845 0.564563
O O4 0.744446 0.047763 0.642518
O O5 0.183797 0.519047 0.750000
O O6 0.272224 0.544447 0.879773
O O7 0.194901 0.597451 0.886900
O O8 0.138782 0.466923 0.905875
O O9 0.199130 0.800871 0.561562
O O10 0.070910 0.739315 0.575662
O O11 0.249196 0.941306 0.750000
O O12 0.176956 0.970792 0.644815
O O13 0.860793 0.860793 0.500000
O O14 0.925646 0.851291 0.640253
O O15 0.893024 0.946512 0.633409
#
# Coordination Sequence:
#
# PCOD8330523 Si02
#       5
#    24  24  24  24  24
#     4   9  18  32  49  68  90 121 163 205 244 288
#     4   9  17  30  50  77 108 138 164 189 222 271
#     4  10  19  31  49  73  99 125 156 198 244 287
#     4  11  21  31  46  68  94 123 157 200 249 298
#     4  10  20  33  47  62  84 119 164 211 256 300
#
# _framework density 17.905106
#
# number of rings (size 3 to 8) (size 9 to 14) (size 15 to 20)
#    0.000    2.200    0.000    4.000    0.000    8.400 
#    0.000    0.000    0.000    4.200    0.000    2.800 
#    0.000    1.600    0.000    0.000    0.000    0.000 
#
# Total GULP energy -1487008.429600 kJ/mol
# GULP energy per Si atom -12391.736913 kJ/mol
# Density = 1.786435 g / cm^3
# Si number density = 17.905106 Si / 1000 Ang^3
#
#
#
# Elastic Constant Matrix: (Units=GPa)
#
#
# Indices 1 2 3 4 5 6 
#
# 1 75.5706 34.6579 43.9270 0.0000 0.0000 0.0000
# 2 34.6579 75.5706 43.9270 0.0000 0.0000 0.0000
# 3 43.9270 43.9270 113.9916 0.0000 0.0000 0.0000
# 4 0.0000 0.0000 0.0000 18.4098 0.0000 0.0000
# 5 0.0000 0.0000 0.0000 0.0000 18.4098 0.0000
# 6 0.0000 0.0000 0.0000 0.0000 0.0000 20.4564
#
#
#
# Elastic Compliance Matrix: (Units=1/GPa)
#
#
# Indices 1 2 3 4 5 6 
#
# 1 0.018768 -0.005674 -0.005046 0.000000 0.000000 0.000000
# 2 -0.005674 0.018768 -0.005046 0.000000 0.000000 0.000000
# 3 -0.005046 -0.005046 0.012661 0.000000 0.000000 0.000000
# 4 0.000000 0.000000 0.000000 0.054319 0.000000 0.000000
# 5 0.000000 0.000000 0.000000 0.000000 0.054319 0.000000
# 6 0.000000 0.000000 0.000000 0.000000 0.000000 0.048885
#
#
# Mechanical properties :
#
#
# Convention : Reuss Voigt Hill
#
# Bulk Modulus (GPa) = 53.57393 56.68408 55.12900
# Shear Modulus (GPa) = 20.36886 20.96324 20.66605
#
# Velocity S-wave (km/s) = 3.37649 3.42540 3.40104
# Velocity P-wave (km/s) = 6.72212 6.88268 6.80288
#
# Compressibility (1/GPa) = 0.01866580
#
# Stress axis : x y z
#
# Youngs Moduli (GPa) = 53.28246 53.28246 78.98095
#
# Poissons Ratio (x) = 0.30234 0.39851
# Poissons Ratio (y) = 0.30234 0.39851
# Poissons Ratio (z) = 0.26884 0.26884
#
# Static dielectric constant tensor:
#      x y z
#    x 3.195560 0.000000 0.000000 
#    y 0.000000 3.195560 0.000000 
#    z 0.000000 0.000000 3.743490 
# 
# 
# High freq. dielectric constant tensor:
#      x y z
#    x 1.667170 0.000000 0.000000 
#    y 0.000000 1.667170 0.000000 
#    z 0.000000 0.000000 1.707570 
# 
# From -- ./inp_files/5107.got.cif
#   From: 2010.03.12/outbox.cif.g09.slc.cpg/sg194_3_cif.got.tgz:5107.got - 2010.04.01 12:26:19.
