data_PCOD8330874
_publ_section_title
;
Structure prediction by ZEFSAII (Michael W. Deem and Ramdas Pophale) SiO2 
 PCOD8330874
Probable space group: I 2 3
;
_chemical_formula_sum "Si O2"
_cell_formula_units_Z 96
_cell_length_a 18.045896
_cell_length_b 18.045896
_cell_length_c 18.045896
_cell_angle_alpha 90.000000
_cell_angle_beta 90.000000
_cell_angle_gamma 90.000000
_cell_volume 5876.724757
_symmetry_space_group_name_H-M "I 2 3"
_symmetry_group_IT_number 197
_symmetry_cell_setting 'cubic'
loop_
_space_group_symop_operation_xyz
x,y,z
z,x,y
y,z,x
-y,-z,x
z,-x,-y
-y,z,-x
-z,-x,y
-z,x,-y
y,-z,-x
-x,-y,z
x,-y,-z
-x,y,-z
1/2+x,1/2+y,1/2+z
1/2+z,1/2+x,1/2+y
1/2+y,1/2+z,1/2+x
1/2-y,1/2-z,1/2+x
1/2+z,1/2-x,1/2-y
1/2-y,1/2+z,1/2-x
1/2-z,1/2-x,1/2+y
1/2-z,1/2+x,1/2-y
1/2+y,1/2-z,1/2-x
1/2-x,1/2-y,1/2+z
1/2+x,1/2-y,1/2-z
1/2-x,1/2+y,1/2-z
loop_
_atom_site_type_symbol
_atom_site_label
_atom_site_fract_x
_atom_site_fract_y
_atom_site_fract_z
Si Si1 0.921174 0.654383 0.033891
Si Si2 0.823466 0.057321 0.934926
Si Si3 0.436690 0.059749 0.822522
Si Si4 0.033002 0.653498 0.419730
O O1 0.915546 0.737586 0.063448
O O2 0.903144 0.603968 0.103981
O O3 0.863237 0.638249 0.967417
O O4 0.000000 0.634960 0.000000
O O5 0.865143 0.035087 0.858223
O O6 0.838791 0.000000 0.000000
O O7 0.416355 0.064718 0.736530
O O8 0.468632 0.136863 0.857812
O O9 0.500000 0.000000 0.838572
O O10 0.000000 0.635172 0.500000
#
# Coordination Sequence:
#
# PCOD8330874 Si02
#       4
#    24  24  24  24
#     4  10  18  32  53  74 100 135 169 212 259 305
#     4   9  19  32  52  77  97 130 169 214 263 308
#     4   9  19  30  50  76  99 137 172 210 260 307
#     4  10  18  32  51  75 106 136 172 216 259 307
#
# _framework density 16.335629999999998
#
# number of rings (size 3 to 8) (size 9 to 14) (size 15 to 20)
#    0.500    2.000    2.500    0.500    0.000    2.000 
#    0.000    0.000    0.000    0.000    0.000    0.000 
#    0.000    0.000    0.000    0.000    0.000    0.000 
#
# Total GULP energy -594777.737375 kJ/mol
# GULP energy per Si atom -12391.202862 kJ/mol
# Density = 1.629845 g / cm^3
# Si number density = 16.335630 Si / 1000 Ang^3
#
#
#
# Elastic Constant Matrix: (Units=GPa)
#
#
# Indices 1 2 3 4 5 6 
#
# 1 102.6177 48.9320 48.9320 0.0000 0.0000 0.0000
# 2 48.9320 102.6177 48.9320 0.0000 0.0000 0.0000
# 3 48.9320 48.9320 102.6177 0.0000 0.0000 0.0000
# 4 0.0000 0.0000 0.0000 14.9493 0.0000 0.0000
# 5 0.0000 0.0000 0.0000 0.0000 14.9493 0.0000
# 6 0.0000 0.0000 0.0000 0.0000 0.0000 14.9493
#
#
#
# Elastic Compliance Matrix: (Units=1/GPa)
#
#
# Indices 1 2 3 4 5 6 
#
# 1 0.014081 -0.004546 -0.004546 0.000000 0.000000 0.000000
# 2 -0.004546 0.014081 -0.004546 0.000000 0.000000 0.000000
# 3 -0.004546 -0.004546 0.014081 0.000000 0.000000 0.000000
# 4 0.000000 0.000000 0.000000 0.066893 0.000000 0.000000
# 5 0.000000 0.000000 0.000000 0.000000 0.066893 0.000000
# 6 0.000000 0.000000 0.000000 0.000000 0.000000 0.066893
#
#
# Mechanical properties :
#
#
# Convention : Reuss Voigt Hill
#
# Bulk Modulus (GPa) = 66.82721 66.82721 66.82721
# Shear Modulus (GPa) = 18.16956 19.70674 18.93815
#
# Velocity S-wave (km/s) = 3.33868 3.47705 3.40857
# Velocity P-wave (km/s) = 7.47396 7.55761 7.51590
#
# Compressibility (1/GPa) = 0.01496397
#
# Stress axis : x y z
#
# Youngs Moduli (GPa) = 71.01959 71.01959 71.01959
#
# Poissons Ratio (x) = 0.32288 0.32288
# Poissons Ratio (y) = 0.32288 0.32288
# Poissons Ratio (z) = 0.32288 0.32288
#
# Static dielectric constant tensor:
#      x y z
#    x 3.021130 0.000000 0.000000 
#    y 0.000000 3.021130 0.000000 
#    z 0.000000 0.000000 3.021130 
# 
# 
# High freq. dielectric constant tensor:
#      x y z
#    x 1.621060 0.000000 0.000000 
#    y 0.000000 1.621060 0.000000 
#    z 0.000000 0.000000 1.621060 
# 
# From -- ./inp_files/441.got.cif
#   From: 2010.03.12/outbox.cif.g09.slc.cpg/sg197_cif.got.tgz:441.got - 2010.04.01 12:33:32.
