data_PCOD8330978
_publ_section_title
;
Structure prediction by ZEFSAII (Michael W. Deem and Ramdas Pophale) SiO2 
 PCOD8330978
Probable space group: P 42 3 2
;
_chemical_formula_sum "Si O2"
_cell_formula_units_Z 96
_cell_length_a 18.025200
_cell_length_b 18.025200
_cell_length_c 18.025200
_cell_angle_alpha 90.000000
_cell_angle_beta 90.000000
_cell_angle_gamma 90.000000
_cell_volume 5856.528708
_symmetry_space_group_name_H-M "P 42 3 2"
_symmetry_group_IT_number 208
_symmetry_cell_setting 'cubic'
loop_
_space_group_symop_operation_xyz
x,y,z
1/2-y,1/2+x,1/2+z
-x,-y,z
1/2+y,1/2-x,1/2+z
1/2+x,1/2-z,1/2+y
x,-y,-z
1/2+x,1/2+z,1/2-y
1/2+z,1/2+y,1/2-x
-x,y,-z
1/2-z,1/2+y,1/2+x
z,x,y
y,z,x
-y,-z,x
z,-x,-y
-y,z,-x
-z,-x,y
-z,x,-y
y,-z,-x
1/2+y,1/2+x,1/2-z
1/2-y,1/2-x,1/2-z
1/2-x,1/2+z,1/2+y
1/2-x,1/2-z,1/2-y
1/2+z,1/2-y,1/2+x
1/2-z,1/2-y,1/2-x
loop_
_atom_site_type_symbol
_atom_site_label
_atom_site_fract_x
_atom_site_fract_y
_atom_site_fract_z
Si Si1 0.676923 0.804709 0.917512
Si Si2 0.686146 0.917028 0.795385
Si Si3 0.981907 0.583405 0.087058
Si Si4 0.328482 0.540314 0.920995
O O1 0.613937 0.750000 0.886064
O O2 0.713745 0.855679 0.853788
O O3 0.744540 0.753744 0.946765
O O4 0.641933 0.857903 0.979700
O O5 0.618909 0.881092 0.750000
O O6 0.648286 0.985164 0.837166
O O7 0.893583 0.591190 0.099715
O O8 0.000000 0.500000 0.111239
O O9 0.000000 0.597913 0.000000
O O10 0.250000 0.581938 0.918063
O O11 0.340690 0.500000 0.000000
#
# Coordination Sequence:
#
# PCOD8330978 Si02
#       4
#    24  24  24  24
#     4  10  21  33  51  81 112 132 173 225 279 319
#     4  10  18  32  50  74 103 139 164 216 272 323
#     4  11  20  34  53  79 107 139 185 230 259 320
#     4  11  19  32  54  70 101 148 186 208 258 327
#
# _framework density 16.391963000000001
#
# number of rings (size 3 to 8) (size 9 to 14) (size 15 to 20)
#    0.000    1.500    7.500    0.500    3.500    2.500 
#    0.000    0.000    0.000    1.000    0.000    0.000 
#    0.000    0.000    0.000    0.000    0.000    0.000 
#
# Total GULP energy -1189732.922907 kJ/mol
# GULP energy per Si atom -12393.051280 kJ/mol
# Density = 1.635465 g / cm^3
# Si number density = 16.391963 Si / 1000 Ang^3
#
#
#
# Elastic Constant Matrix: (Units=GPa)
#
#
# Indices 1 2 3 4 5 6 
#
# 1 88.2901 45.6199 45.6199 0.0000 0.0000 0.0000
# 2 45.6199 88.2901 45.6199 0.0000 0.0000 0.0000
# 3 45.6199 45.6199 88.2901 0.0000 0.0000 0.0000
# 4 0.0000 0.0000 0.0000 19.1033 0.0000 0.0000
# 5 0.0000 0.0000 0.0000 0.0000 19.1033 0.0000
# 6 0.0000 0.0000 0.0000 0.0000 0.0000 19.1033
#
#
#
# Elastic Compliance Matrix: (Units=1/GPa)
#
#
# Indices 1 2 3 4 5 6 
#
# 1 0.017480 -0.005955 -0.005955 0.000000 0.000000 0.000000
# 2 -0.005955 0.017480 -0.005955 0.000000 0.000000 0.000000
# 3 -0.005955 -0.005955 0.017480 0.000000 0.000000 0.000000
# 4 0.000000 0.000000 0.000000 0.052347 0.000000 0.000000
# 5 0.000000 0.000000 0.000000 0.000000 0.052347 0.000000
# 6 0.000000 0.000000 0.000000 0.000000 0.000000 0.052347
#
#
# Mechanical properties :
#
#
# Convention : Reuss Voigt Hill
#
# Bulk Modulus (GPa) = 59.84332 59.84332 59.84332
# Shear Modulus (GPa) = 19.93755 19.99603 19.96679
#
# Velocity S-wave (km/s) = 3.49133 3.49645 3.49389
# Velocity P-wave (km/s) = 7.26908 7.27236 7.27072
#
# Compressibility (1/GPa) = 0.01671030
#
# Stress axis : x y z
#
# Youngs Moduli (GPa) = 57.20695 57.20695 57.20695
#
# Poissons Ratio (x) = 0.34068 0.34068
# Poissons Ratio (y) = 0.34068 0.34068
# Poissons Ratio (z) = 0.34068 0.34068
#
# Static dielectric constant tensor:
#      x y z
#    x 3.051080 0.000000 0.000000 
#    y 0.000000 3.051080 0.000000 
#    z 0.000000 0.000000 3.051080 
# 
# 
# High freq. dielectric constant tensor:
#      x y z
#    x 1.615410 0.000000 0.000000 
#    y 0.000000 1.615410 0.000000 
#    z 0.000000 0.000000 1.615410 
# 
# From -- ./inp_files/762.got.cif
#   From: 2010.03.12/outbox.cif.g09.slc.cpg/sg208_cif.got.tgz:762.got - 2010.03.30 09:03:42.
