data_PCOD8330316
_publ_section_title
;
Structure prediction by ZEFSAII (Michael W. Deem and Ramdas Pophale) SiO2 
 PCOD8330316
Probable space group: P 63/M M C
;
_chemical_formula_sum "Si O2"
_cell_formula_units_Z 72
_cell_length_a 21.145958
_cell_length_b 21.145958
_cell_length_c 10.141223
_cell_angle_alpha 90.000000
_cell_angle_beta 90.000000
_cell_angle_gamma 120.000000
_cell_volume 3927.133771
_symmetry_space_group_name_H-M "P 63/M M C"
_symmetry_group_IT_number 194
_symmetry_cell_setting 'hexagonal'
loop_
_space_group_symop_operation_xyz
x,y,z
x-y,x,1/2+z
-y,x-y,z
-x,-y,1/2+z
-x+y,-x,z
y,-x+y,1/2+z
x-y,-y,-z
-x,-x+y,-z
y,x,-z
-y,-x,1/2-z
-x+y,y,1/2-z
x,x-y,1/2-z
-x,-y,-z
-x+y,-x,1/2-z
y,-x+y,-z
x,y,1/2-z
x-y,x,-z
-y,x-y,1/2-z
-x+y,y,z
x,x-y,z
-y,-x,z
y,x,1/2+z
x-y,-y,1/2+z
-x,-x+y,1/2+z
loop_
_atom_site_type_symbol
_atom_site_label
_atom_site_fract_x
_atom_site_fract_y
_atom_site_fract_z
Si Si1 0.182149 0.515370 0.250000
Si Si2 0.566941 0.858398 0.509185
Si Si3 0.938078 0.211444 0.403579
Si Si4 0.812909 0.477458 0.250000
O O1 0.264551 0.529102 0.250000
O O2 0.187804 0.593902 0.250000
O O3 0.134336 0.466251 0.372018
O O4 0.564760 0.782380 0.513707
O O5 0.649257 0.921907 0.536226
O O6 0.515623 0.861922 0.622275
O O7 0.963338 0.229001 0.250000
O O8 0.868570 0.131431 0.413296
O O9 0.000000 0.213203 0.500000
O O10 0.744382 0.488764 0.250000
O O11 0.784515 0.392258 0.250000
#
# Coordination Sequence:
#
# PCOD8330316 Si02
#       4
#    12  24  24  12
#     4  10  19  30  47  73 106 143 188 240 293 339
#     4   9  18  32  49  72 104 143 183 226 274 320
#     4  10  21  38  61  89 116 140 174 217 258 308
#     4  10  17  28  47  71 100 137 184 236 289 333
#
# _framework density 18.333981999999999
#
# number of rings (size 3 to 8) (size 9 to 14) (size 15 to 20)
#    0.000    2.333    1.667    1.333    2.333    0.667 
#    0.000    3.333    0.000    6.333    0.000    0.000 
#    0.000    0.000    0.000    0.000    0.000    0.000 
#
# Total GULP energy -892369.211435 kJ/mol
# GULP energy per Si atom -12394.016825 kJ/mol
# Density = 1.829225 g / cm^3
# Si number density = 18.333982 Si / 1000 Ang^3
#
#
#
# Elastic Constant Matrix: (Units=GPa)
#
#
# Indices 1 2 3 4 5 6 
#
# 1 58.3605 22.0236 51.4120 0.0000 0.0000 0.0000
# 2 22.0236 58.3605 51.4120 0.0000 0.0000 0.0000
# 3 51.4120 51.4120 190.5514 0.0000 0.0000 0.0000
# 4 0.0000 0.0000 0.0000 25.4114 0.0000 0.0000
# 5 0.0000 0.0000 0.0000 0.0000 25.4114 0.0000
# 6 0.0000 0.0000 0.0000 0.0000 0.0000 18.1685
#
#
#
# Elastic Compliance Matrix: (Units=1/GPa)
#
#
# Indices 1 2 3 4 5 6 
#
# 1 0.023258 -0.004262 -0.005125 0.000000 0.000000 0.000000
# 2 -0.004262 0.023258 -0.005125 0.000000 0.000000 0.000000
# 3 -0.005125 -0.005125 0.008014 0.000000 0.000000 0.000000
# 4 0.000000 0.000000 0.000000 0.039352 0.000000 0.000000
# 5 0.000000 0.000000 0.000000 0.000000 0.039352 0.000000
# 6 0.000000 0.000000 0.000000 0.000000 0.000000 0.055040
#
#
# Mechanical properties :
#
#
# Convention : Reuss Voigt Hill
#
# Bulk Modulus (GPa) = 39.20791 61.88527 50.54659
# Shear Modulus (GPa) = 22.14325 25.95990 24.05158
#
# Velocity S-wave (km/s) = 3.47907 3.76699 3.62589
# Velocity P-wave (km/s) = 6.12947 7.26278 6.72006
#
# Compressibility (1/GPa) = 0.02550505
#
# Stress axis : x y z
#
# Youngs Moduli (GPa) = 42.99539 42.99539 124.78736
#
# Poissons Ratio (x) = 0.18324 0.63958
# Poissons Ratio (y) = 0.18324 0.63958
# Poissons Ratio (z) = 0.22037 0.22037
#
# Static dielectric constant tensor:
#      x y z
#    x 3.094330 0.000000 0.000000 
#    y 0.000000 3.094330 0.000000 
#    z 0.000000 0.000000 3.877260 
# 
# 
# High freq. dielectric constant tensor:
#      x y z
#    x 1.684320 0.000000 0.000000 
#    y 0.000000 1.684320 0.000000 
#    z 0.000000 0.000000 1.734890 
# 
# From -- ./inp_files/1133.got.cif
#   From: 2010.03.12/outbox.cif.g09.slc.cpg/sg194_1_cif.got.tgz:1133.got - 2010.04.01 12:26:19.
