data_PCOD8330161
_publ_section_title
;
Structure prediction by ZEFSAII (Michael W. Deem and Ramdas Pophale) SiO2 
 PCOD8330161
Probable space group: P 63/M C M
;
_chemical_formula_sum "Si O2"
_cell_formula_units_Z 132
_cell_length_a 17.572960
_cell_length_b 17.572960
_cell_length_c 25.650996
_cell_angle_alpha 90.000000
_cell_angle_beta 90.000000
_cell_angle_gamma 120.000000
_cell_volume 6860.009318
_symmetry_space_group_name_H-M "P 63/M C M"
_symmetry_group_IT_number 193
_symmetry_cell_setting 'hexagonal'
loop_
_space_group_symop_operation_xyz
x,y,z
x-y,x,1/2+z
-y,x-y,z
-x,-y,1/2+z
-x+y,-x,z
y,-x+y,1/2+z
x-y,-y,1/2-z
-x,-x+y,1/2-z
y,x,1/2-z
-y,-x,-z
-x+y,y,-z
x,x-y,-z
-x,-y,-z
-x+y,-x,1/2-z
y,-x+y,-z
x,y,1/2-z
x-y,x,-z
-y,x-y,1/2-z
-x+y,y,1/2+z
x,x-y,1/2+z
-y,-x,1/2+z
y,x,z
x-y,-y,z
-x,-x+y,z
loop_
_atom_site_type_symbol
_atom_site_label
_atom_site_fract_x
_atom_site_fract_y
_atom_site_fract_z
Si Si1 0.102685 0.489581 0.538985
Si Si2 0.356110 0.168028 0.840864
Si Si3 0.382456 0.895945 0.845288
Si Si4 0.357342 0.900027 0.308697
Si Si5 0.893207 0.787305 0.750000
Si Si6 0.898343 0.681902 0.456986
O O1 0.147287 0.573644 0.500000
O O2 0.142540 0.517861 0.596701
O O3 0.120659 0.412352 0.520906
O O4 0.000000 0.455759 0.541931
O O5 0.421943 0.134875 0.820868
O O6 0.416772 0.272881 0.845104
O O7 0.274018 0.135296 0.801534
O O8 0.321469 0.137967 0.899136
O O9 0.437315 0.860041 0.813137
O O10 0.429500 0.000000 0.845401
O O11 0.322929 0.890099 0.250000
O O12 0.412874 0.000000 0.326970
O O13 0.851289 0.851289 0.750000
O O14 0.000000 0.845865 0.750000
O O15 0.859801 0.719602 0.500000
O O16 0.000000 0.749807 0.452791
#
# Coordination Sequence:
#
# PCOD8330161 Si02
#       6
#    24  24  24  24  12  24
#     4   8  15  30  53  80 108 140 182 229 282 345
#     4  11  22  40  61  88 124 166 205 252 312 382
#     4   9  19  35  56  81 112 152 193 234 288 357
#     4  10  21  36  56  87 118 149 200 253 297 356
#     4  12  25  42  66  92 120 156 206 270 329 384
#     4  10  22  38  59  89 121 157 208 260 312 374
#
# _framework density 19.241956999999999
#
# number of rings (size 3 to 8) (size 9 to 14) (size 15 to 20)
#    0.000    2.182    0.909    3.364    3.818    1.455 
#    1.091    0.000    0.000    0.545    0.000    0.000 
#    0.000    0.000    0.000    0.000    0.000    0.000 
#
# Total GULP energy -1635888.893346 kJ/mol
# GULP energy per Si atom -12393.097677 kJ/mol
# Density = 1.919816 g / cm^3
# Si number density = 19.241957 Si / 1000 Ang^3
#
#
#
# Elastic Constant Matrix: (Units=GPa)
#
#
# Indices 1 2 3 4 5 6 
#
# 1 108.5086 53.8033 56.7661 0.0000 0.0000 0.0000
# 2 53.8033 108.5086 56.7661 0.0000 0.0000 0.0000
# 3 56.7661 56.7661 94.9276 0.0000 0.0000 0.0000
# 4 0.0000 0.0000 0.0000 29.8399 0.0000 0.0000
# 5 0.0000 0.0000 0.0000 0.0000 29.8399 0.0000
# 6 0.0000 0.0000 0.0000 0.0000 0.0000 27.3526
#
#
#
# Elastic Compliance Matrix: (Units=1/GPa)
#
#
# Indices 1 2 3 4 5 6 
#
# 1 0.014435 -0.003844 -0.006333 0.000000 0.000000 0.000000
# 2 -0.003844 0.014435 -0.006333 0.000000 0.000000 0.000000
# 3 -0.006333 -0.006333 0.018109 0.000000 0.000000 0.000000
# 4 0.000000 0.000000 0.000000 0.033512 0.000000 0.000000
# 5 0.000000 0.000000 0.000000 0.000000 0.033512 0.000000
# 6 0.000000 0.000000 0.000000 0.000000 0.000000 0.036560
#
#
# Mechanical properties :
#
#
# Convention : Reuss Voigt Hill
#
# Bulk Modulus (GPa) = 71.64590 71.84618 71.74604
# Shear Modulus (GPa) = 26.56212 27.04712 26.80462
#
# Velocity S-wave (km/s) = 3.71944 3.75324 3.73638
# Velocity P-wave (km/s) = 7.46731 7.49679 7.48206
#
# Compressibility (1/GPa) = 0.01395753
#
# Stress axis : x y z
#
# Youngs Moduli (GPa) = 69.27437 69.27437 55.22145
#
# Poissons Ratio (x) = 0.26632 0.34973
# Poissons Ratio (y) = 0.26632 0.34973
# Poissons Ratio (z) = 0.43874 0.43874
#
# Static dielectric constant tensor:
#      x y z
#    x 3.510210 0.000000 0.000000 
#    y 0.000000 3.510210 0.000000 
#    z 0.000000 0.000000 3.568460 
# 
# 
# High freq. dielectric constant tensor:
#      x y z
#    x 1.738500 0.000000 0.000000 
#    y 0.000000 1.738500 0.000000 
#    z 0.000000 0.000000 1.750380 
# 
# From -- ./inp_files/7445.got.cif
#   From: 2010.03.12/outbox.cif.g09.slc.cpg/sg193_4_cif.got.tgz:7445.got - 2010.04.01 12:20:39.
