data_PCOD8330309
_publ_section_title
;
Structure prediction by ZEFSAII (Michael W. Deem and Ramdas Pophale) SiO2 
 PCOD8330309
Probable space group: P 63/M M C
;
_chemical_formula_sum "Si O2"
_cell_formula_units_Z 168
_cell_length_a 21.985490
_cell_length_b 21.985490
_cell_length_c 27.478092
_cell_angle_alpha 90.000000
_cell_angle_beta 90.000000
_cell_angle_gamma 120.000000
_cell_volume 11502.427477
_symmetry_space_group_name_H-M "P 63/M M C"
_symmetry_group_IT_number 194
_symmetry_cell_setting 'hexagonal'
loop_
_space_group_symop_operation_xyz
x,y,z
x-y,x,1/2+z
-y,x-y,z
-x,-y,1/2+z
-x+y,-x,z
y,-x+y,1/2+z
x-y,-y,-z
-x,-x+y,-z
y,x,-z
-y,-x,1/2-z
-x+y,y,1/2-z
x,x-y,1/2-z
-x,-y,-z
-x+y,-x,1/2-z
y,-x+y,-z
x,y,1/2-z
x-y,x,-z
-y,x-y,1/2-z
-x+y,y,z
x,x-y,z
-y,-x,z
y,x,1/2+z
x-y,-y,1/2+z
-x,-x+y,1/2+z
loop_
_atom_site_type_symbol
_atom_site_label
_atom_site_fract_x
_atom_site_fract_y
_atom_site_fract_z
Si Si1 0.988019 0.675550 0.390131
Si Si2 0.513657 0.619957 0.602117
Si Si3 0.128717 0.735582 0.442149
Si Si4 0.476264 0.666449 0.994553
Si Si5 0.824784 0.310692 0.303271
Si Si6 0.092216 0.319438 0.804343
Si Si7 0.206014 0.275634 0.976756
O O1 0.070730 0.707433 0.399572
O O2 0.956462 0.592294 0.391625
O O3 0.975014 0.704855 0.339445
O O4 0.948890 0.698336 0.428253
O O5 0.462935 0.537066 0.591200
O O6 0.508041 0.664836 0.557920
O O7 0.485104 0.635551 0.652084
O O8 0.199385 0.800616 0.420207
O O9 0.144752 0.676182 0.462819
O O10 0.101542 0.760769 0.487182
O O11 0.462016 0.731008 0.994338
O O12 0.404484 0.595517 0.006064
O O13 0.841228 0.348640 0.250000
O O14 0.741333 0.258668 0.307971
O O15 0.863017 0.265625 0.306882
O O16 0.063269 0.293048 0.750000
O O17 0.145340 0.290680 0.819566
O O18 0.124895 0.249789 0.965588
O O19 0.210498 0.210498 0.000000
#
# Coordination Sequence:
#
# PCOD8330309 Si02
#       7
#    24  24  24  24  24  24  24
#     4  10  17  27  43  60  81 110 138 169 209 250
#     4  10  19  26  37  58  81 105 135 176 222 266
#     4   9  18  30  42  58  79 105 140 177 210 249
#     4  10  19  30  42  56  77 106 141 180 222 266
#     4   8  14  25  39  53  72 102 138 171 203 243
#     4   8  14  24  40  63  86 106 130 160 194 237
#     4   9  16  26  41  61  82 105 134 166 199 236
#
# _framework density 14.605612000000001
#
# number of rings (size 3 to 8) (size 9 to 14) (size 15 to 20)
#    0.000    2.857    1.429    1.857    0.000    2.000 
#    0.000    1.429    0.000    0.857    0.000    0.000 
#    0.000    0.000    0.000    0.429    0.000    8.286 
#
# Total GULP energy -2081734.571949 kJ/mol
# GULP energy per Si atom -12391.277214 kJ/mol
# Density = 1.457237 g / cm^3
# Si number density = 14.605612 Si / 1000 Ang^3
#
#
#
# Elastic Constant Matrix: (Units=GPa)
#
#
# Indices 1 2 3 4 5 6 
#
# 1 58.7866 51.9721 40.3377 0.0000 0.0000 0.0000
# 2 51.9721 58.7866 40.3377 0.0000 0.0000 0.0000
# 3 40.3377 40.3377 84.3238 0.0000 0.0000 0.0000
# 4 0.0000 0.0000 0.0000 20.1738 0.0000 0.0000
# 5 0.0000 0.0000 0.0000 0.0000 20.1738 0.0000
# 6 0.0000 0.0000 0.0000 0.0000 0.0000 3.4072
#
#
#
# Elastic Compliance Matrix: (Units=1/GPa)
#
#
# Indices 1 2 3 4 5 6 
#
# 1 0.080302 -0.066445 -0.006629 0.000000 0.000000 0.000000
# 2 -0.066445 0.080302 -0.006629 0.000000 0.000000 0.000000
# 3 -0.006629 -0.006629 0.018201 0.000000 0.000000 0.000000
# 4 0.000000 0.000000 0.000000 0.049569 0.000000 0.000000
# 5 0.000000 0.000000 0.000000 0.000000 0.049569 0.000000
# 6 0.000000 0.000000 0.000000 0.000000 0.000000 0.293493
#
#
# Mechanical properties :
#
#
# Convention : Reuss Voigt Hill
#
# Bulk Modulus (GPa) = 51.54637 51.91021 51.72829
# Shear Modulus (GPa) = 6.78144 13.36759 10.07452
#
# Velocity S-wave (km/s) = 2.15711 3.02857 2.62920
# Velocity P-wave (km/s) = 6.44771 6.91723 6.68659
#
# Compressibility (1/GPa) = 0.01940001
#
# Stress axis : x y z
#
# Youngs Moduli (GPa) = 12.45305 12.45305 54.94231
#
# Poissons Ratio (x) = 0.82744 0.36419
# Poissons Ratio (y) = 0.82744 0.36419
# Poissons Ratio (z) = 0.08255 0.08255
#
# Static dielectric constant tensor:
#      x y z
#    x 2.809210 0.000000 0.000000 
#    y 0.000000 2.809210 0.000000 
#    z 0.000000 0.000000 2.932330 
# 
# 
# High freq. dielectric constant tensor:
#      x y z
#    x 1.539650 0.000000 0.000000 
#    y 0.000000 1.539650 0.000000 
#    z 0.000000 0.000000 1.548180 
# 
# From -- ./inp_files/11086.got.cif
#   From: 2010.03.12/outbox.cif.g09.slc.cpg/sg194_6_cif.got.tgz:11086.got - 2010.04.01 12:26:19.
