data_PCOD8330190
_publ_section_title
;
Structure prediction by ZEFSAII (Michael W. Deem and Ramdas Pophale) SiO2 
 PCOD8330190
Probable space group: P 63/M C M
;
_chemical_formula_sum "Si O2"
_cell_formula_units_Z 88
_cell_length_a 17.511180
_cell_length_b 17.511180
_cell_length_c 17.877944
_cell_angle_alpha 90.000000
_cell_angle_beta 90.000000
_cell_angle_gamma 120.000000
_cell_volume 4747.653649
_symmetry_space_group_name_H-M "P 63/M C M"
_symmetry_group_IT_number 193
_symmetry_cell_setting 'hexagonal'
loop_
_space_group_symop_operation_xyz
x,y,z
x-y,x,1/2+z
-y,x-y,z
-x,-y,1/2+z
-x+y,-x,z
y,-x+y,1/2+z
x-y,-y,1/2-z
-x,-x+y,1/2-z
y,x,1/2-z
-y,-x,-z
-x+y,y,-z
x,x-y,-z
-x,-y,-z
-x+y,-x,1/2-z
y,-x+y,-z
x,y,1/2-z
x-y,x,-z
-y,x-y,1/2-z
-x+y,y,1/2+z
x,x-y,1/2+z
-y,-x,1/2+z
y,x,z
x-y,-y,z
-x,-x+y,z
loop_
_atom_site_type_symbol
_atom_site_label
_atom_site_fract_x
_atom_site_fract_y
_atom_site_fract_z
Si Si1 0.000000 0.000000 0.342004
Si Si2 0.141954 0.000000 0.052273
Si Si3 0.356693 0.509122 0.164733
Si Si4 0.576581 0.576581 0.950150
Si Si5 0.692195 0.166005 0.834480
Si Si6 0.680884 0.680884 0.417689
O O1 0.086129 0.000000 0.375246
O O2 0.000000 0.000000 0.250000
O O3 0.227432 0.000000 0.085219
O O4 0.085242 0.914759 0.000000
O O5 0.360216 0.479416 0.250000
O O6 0.376544 0.457669 0.103697
O O7 0.259553 0.486903 0.143039
O O8 0.428955 0.610489 0.153979
O O9 0.500000 0.500000 0.000000
O O10 0.653766 0.653766 0.997372
O O11 0.698589 0.140162 0.750000
O O12 0.689179 0.087735 0.882097
#
# Coordination Sequence:
#
# PCOD8330190 Si02
#       6
#     4  12  24  12  24  12
#     4   9  19  44  76  96 115 146 208 264 298 374
#     4   9  22  43  65  90 121 164 194 234 314 377
#     4  10  21  40  61  82 114 158 203 248 295 353
#     4  12  23  38  55  87 122 162 199 239 297 351
#     4  10  21  38  61  86 115 156 204 250 300 355
#     4  12  24  37  60  91 129 157 193 254 306 361
#
# _framework density 18.535471999999999
#
# number of rings (size 3 to 8) (size 9 to 14) (size 15 to 20)
#    0.000    1.636    2.727    1.909    3.818    5.455 
#    0.000    0.000    0.000    0.000    0.000    0.000 
#    0.000    0.000    0.000    0.000    0.000    0.000 
#
# Total GULP energy -1090655.772414 kJ/mol
# GULP energy per Si atom -12393.815596 kJ/mol
# Density = 1.849328 g / cm^3
# Si number density = 18.535472 Si / 1000 Ang^3
#
#
#
# Elastic Constant Matrix: (Units=GPa)
#
#
# Indices 1 2 3 4 5 6 
#
# 1 124.0837 83.1415 78.1411 0.0000 0.0000 0.0000
# 2 83.1415 124.0837 78.1411 0.0000 0.0000 0.0000
# 3 78.1411 78.1411 133.0144 0.0000 0.0000 0.0000
# 4 0.0000 0.0000 0.0000 37.9477 0.0000 0.0000
# 5 0.0000 0.0000 0.0000 0.0000 37.9477 0.0000
# 6 0.0000 0.0000 0.0000 0.0000 0.0000 20.4711
#
#
#
# Elastic Compliance Matrix: (Units=1/GPa)
#
#
# Indices 1 2 3 4 5 6 
#
# 1 0.016545 -0.007880 -0.005090 0.000000 0.000000 0.000000
# 2 -0.007880 0.016545 -0.005090 0.000000 0.000000 0.000000
# 3 -0.005090 -0.005090 0.013498 0.000000 0.000000 0.000000
# 4 0.000000 0.000000 0.000000 0.026352 0.000000 0.000000
# 5 0.000000 0.000000 0.000000 0.000000 0.026352 0.000000
# 6 0.000000 0.000000 0.000000 0.000000 0.000000 0.048849
#
#
# Mechanical properties :
#
#
# Convention : Reuss Voigt Hill
#
# Bulk Modulus (GPa) = 95.53744 95.55880 95.54812
# Shear Modulus (GPa) = 26.63113 28.72384 27.67748
#
# Velocity S-wave (km/s) = 3.79458 3.94085 3.86841
# Velocity P-wave (km/s) = 8.41745 8.50727 8.46248
#
# Compressibility (1/GPa) = 0.01046710
#
# Stress axis : x y z
#
# Youngs Moduli (GPa) = 60.44297 60.44297 74.08299
#
# Poissons Ratio (x) = 0.47630 0.37708
# Poissons Ratio (y) = 0.47630 0.37708
# Poissons Ratio (z) = 0.30766 0.30766
#
# Static dielectric constant tensor:
#      x y z
#    x 2.496760 0.000000 0.000000 
#    y 0.000000 2.496760 0.000000 
#    z 0.000000 0.000000 3.572930 
# 
# 
# High freq. dielectric constant tensor:
#      x y z
#    x 1.725410 0.000000 0.000000 
#    y 0.000000 1.725410 0.000000 
#    z 0.000000 0.000000 1.727640 
# 
# From -- ./inp_files/5155.got.cif
#   From: 2010.03.12/outbox.cif.g09.slc.cpg/sg193_3_cif.got.tgz:5155.got - 2010.04.01 12:20:39.
