data_PCOD8330291
_publ_section_title
;
Structure prediction by ZEFSAII (Michael W. Deem and Ramdas Pophale) SiO2 
 PCOD8330291
Probable space group: P 63/M M C
;
_chemical_formula_sum "Si O2"
_cell_formula_units_Z 60
_cell_length_a 21.665808
_cell_length_b 21.665808
_cell_length_c 8.636545
_cell_angle_alpha 90.000000
_cell_angle_beta 90.000000
_cell_angle_gamma 120.000000
_cell_volume 3510.916108
_symmetry_space_group_name_H-M "P 63/M M C"
_symmetry_group_IT_number 194
_symmetry_cell_setting 'hexagonal'
loop_
_space_group_symop_operation_xyz
x,y,z
x-y,x,1/2+z
-y,x-y,z
-x,-y,1/2+z
-x+y,-x,z
y,-x+y,1/2+z
x-y,-y,-z
-x,-x+y,-z
y,x,-z
-y,-x,1/2-z
-x+y,y,1/2-z
x,x-y,1/2-z
-x,-y,-z
-x+y,-x,1/2-z
y,-x+y,-z
x,y,1/2-z
x-y,x,-z
-y,x-y,1/2-z
-x+y,y,z
x,x-y,z
-y,-x,z
y,x,1/2+z
x-y,-y,1/2+z
-x,-x+y,1/2+z
loop_
_atom_site_type_symbol
_atom_site_label
_atom_site_fract_x
_atom_site_fract_y
_atom_site_fract_z
Si Si1 0.079655 0.539828 0.066781
Si Si2 0.416536 0.337439 0.433108
Si Si3 0.709412 0.923993 0.429005
O O1 0.078488 0.539244 0.250000
O O2 0.118568 0.496960 0.004259
O O3 0.000000 0.500000 0.000000
O O4 0.374808 0.374808 0.500000
O O5 0.422378 0.342450 0.250000
O O6 0.368605 0.255904 0.488585
O O7 0.699047 0.935830 0.250000
O O8 0.739206 0.869603 0.451113
O O9 0.766782 0.000000 0.500000
#
# Coordination Sequence:
#
# PCOD8330291 Si02
#       3
#    12  24  24
#     4  10  16  24  38  58  88 120 148 176 210 254
#     4  10  17  26  41  62  89 119 150 182 221 269
#     4  10  20  33  49  69  93 122 157 198 247 302
#
# _framework density 17.089556999999999
#
# number of rings (size 3 to 8) (size 9 to 14) (size 15 to 20)
#    0.000    2.000    0.000   11.400    0.000    3.200 
#    0.000    0.000    0.000    0.400    0.000    0.000 
#    2.000    0.000    3.600    0.000    3.600    0.000 
#
# Total GULP energy -743431.373814 kJ/mol
# GULP energy per Si atom -12390.522897 kJ/mol
# Density = 1.705066 g / cm^3
# Si number density = 17.089557 Si / 1000 Ang^3
#
#
#
# Elastic Constant Matrix: (Units=GPa)
#
#
# Indices 1 2 3 4 5 6 
#
# 1 75.8464 37.9289 42.7216 0.0000 0.0000 0.0000
# 2 37.9289 75.8464 42.7216 0.0000 0.0000 0.0000
# 3 42.7216 42.7216 178.7153 0.0000 0.0000 0.0000
# 4 0.0000 0.0000 0.0000 22.9021 0.0000 0.0000
# 5 0.0000 0.0000 0.0000 0.0000 22.9021 0.0000
# 6 0.0000 0.0000 0.0000 0.0000 0.0000 18.9587
#
#
#
# Elastic Compliance Matrix: (Units=1/GPa)
#
#
# Indices 1 2 3 4 5 6 
#
# 1 0.018543 -0.007830 -0.002561 0.000000 0.000000 0.000000
# 2 -0.007830 0.018543 -0.002561 0.000000 0.000000 0.000000
# 3 -0.002561 -0.002561 0.006820 0.000000 0.000000 0.000000
# 4 0.000000 0.000000 0.000000 0.043664 0.000000 0.000000
# 5 0.000000 0.000000 0.000000 0.000000 0.043664 0.000000
# 6 0.000000 0.000000 0.000000 0.000000 0.000000 0.052746
#
#
# Mechanical properties :
#
#
# Convention : Reuss Voigt Hill
#
# Bulk Modulus (GPa) = 55.55121 64.12803 59.83962
# Shear Modulus (GPa) = 23.16061 26.75499 24.95780
#
# Velocity S-wave (km/s) = 3.68536 3.96103 3.82568
# Velocity P-wave (km/s) = 7.11939 7.65022 7.38957
#
# Compressibility (1/GPa) = 0.01800141
#
# Stress axis : x y z
#
# Youngs Moduli (GPa) = 53.92955 53.92955 146.63218
#
# Poissons Ratio (x) = 0.42229 0.37549
# Poissons Ratio (y) = 0.42229 0.37549
# Poissons Ratio (z) = 0.13810 0.13810
#
# Static dielectric constant tensor:
#      x y z
#    x 3.489280 0.000000 0.000000 
#    y 0.000000 3.489280 0.000000 
#    z 0.000000 0.000000 3.373460 
# 
# 
# High freq. dielectric constant tensor:
#      x y z
#    x 1.625470 0.000000 0.000000 
#    y 0.000000 1.625470 0.000000 
#    z 0.000000 0.000000 1.686570 
# 
# From -- ./inp_files/777.got.cif
#   From: 2010.03.12/outbox.cif.g09.slc.cpg/sg194_1_cif.got.tgz:777.got - 2010.04.01 12:26:19.
