data_PCOD8330706
_publ_section_title
;
Structure prediction by ZEFSAII (Michael W. Deem and Ramdas Pophale) SiO2 
 PCOD8330706
Probable space group: P 63/M M C
;
_chemical_formula_sum "Si O2"
_cell_formula_units_Z 144
_cell_length_a 31.783990
_cell_length_b 31.783990
_cell_length_c 8.807912
_cell_angle_alpha 90.000000
_cell_angle_beta 90.000000
_cell_angle_gamma 120.000000
_cell_volume 7705.847845
_symmetry_space_group_name_H-M "P 63/M M C"
_symmetry_group_IT_number 194
_symmetry_cell_setting 'hexagonal'
loop_
_space_group_symop_operation_xyz
x,y,z
x-y,x,1/2+z
-y,x-y,z
-x,-y,1/2+z
-x+y,-x,z
y,-x+y,1/2+z
x-y,-y,-z
-x,-x+y,-z
y,x,-z
-y,-x,1/2-z
-x+y,y,1/2-z
x,x-y,1/2-z
-x,-y,-z
-x+y,-x,1/2-z
y,-x+y,-z
x,y,1/2-z
x-y,x,-z
-y,x-y,1/2-z
-x+y,y,z
x,x-y,z
-y,-x,z
y,x,1/2+z
x-y,-y,1/2+z
-x,-x+y,1/2+z
loop_
_atom_site_type_symbol
_atom_site_label
_atom_site_fract_x
_atom_site_fract_y
_atom_site_fract_z
Si Si1 0.426698 0.949711 0.571299
Si Si2 0.097120 0.294144 0.079292
Si Si3 0.666731 0.428328 0.569280
Si Si4 0.858667 0.336244 0.928952
Si Si5 0.950902 0.805306 0.071321
Si Si6 0.145726 0.754362 0.922642
O O1 0.423372 0.953362 0.750000
O O2 0.470113 0.940225 0.522546
O O3 0.376976 0.906256 0.510114
O O4 0.435437 0.000000 0.500000
O O5 0.079547 0.295571 0.250000
O O6 0.147933 0.295865 0.082341
O O7 0.057554 0.245229 0.997378
O O8 0.102800 0.339976 0.984733
O O9 0.667788 0.428033 0.750000
O O10 0.716185 0.432369 0.504492
O O11 0.621062 0.378939 0.507073
O O12 0.661779 0.473543 0.510588
O O13 0.864794 0.344627 0.750000
O O14 0.851163 0.284132 0.969577
O O15 0.956037 0.803488 0.250000
O O16 0.907567 0.815133 0.026089
O O17 0.000000 0.848851 0.000000
O O18 0.133393 0.735277 0.750000
O O19 0.196751 0.803250 0.932000
#
# Coordination Sequence:
#
# PCOD8330706 Si02
#       6
#    24  24  24  24  24  24
#     4  10  21  38  59  80 102 130 166 210 262 320
#     4   9  17  31  52  76 102 134 172 213 258 309
#     4   9  17  29  47  73 106 143 183 228 275 320
#     4  11  21  33  52  79 110 142 179 222 269 326
#     4  10  20  34  54  81 112 146 185 228 273 322
#     4  10  20  34  52  75 106 143 181 221 266 317
#
# _framework density 18.687106
#
# number of rings (size 3 to 8) (size 9 to 14) (size 15 to 20)
#    0.000    2.167    0.000    3.667    0.000    7.000 
#    0.000    0.833    0.000    0.167    0.000    0.000 
#    0.000    8.000    0.000    0.000    0.000    0.000 
#
# Total GULP energy -1785947.942900 kJ/mol
# GULP energy per Si atom -12402.416270 kJ/mol
# Density = 1.864457 g / cm^3
# Si number density = 18.687106 Si / 1000 Ang^3
#
#
#
# Elastic Constant Matrix: (Units=GPa)
#
#
# Indices 1 2 3 4 5 6 
#
# 1 106.1779 55.2928 32.3920 0.0000 0.0000 0.0000
# 2 55.2928 106.1779 32.3920 0.0000 0.0000 0.0000
# 3 32.3920 32.3920 69.0499 0.0000 0.0000 0.0000
# 4 0.0000 0.0000 0.0000 27.9462 0.0000 0.0000
# 5 0.0000 0.0000 0.0000 0.0000 27.9462 0.0000
# 6 0.0000 0.0000 0.0000 0.0000 0.0000 25.4425
#
#
#
# Elastic Compliance Matrix: (Units=1/GPa)
#
#
# Indices 1 2 3 4 5 6 
#
# 1 0.013641 -0.006012 -0.003579 0.000000 0.000000 0.000000
# 2 -0.006012 0.013641 -0.003579 0.000000 0.000000 0.000000
# 3 -0.003579 -0.003579 0.017840 0.000000 0.000000 0.000000
# 4 0.000000 0.000000 0.000000 0.035783 0.000000 0.000000
# 5 0.000000 0.000000 0.000000 0.000000 0.035783 0.000000
# 6 0.000000 0.000000 0.000000 0.000000 0.000000 0.039304
#
#
# Mechanical properties :
#
#
# Convention : Reuss Voigt Hill
#
# Bulk Modulus (GPa) = 53.24071 57.95103 55.59587
# Shear Modulus (GPa) = 26.51243 27.02223 26.76733
#
# Velocity S-wave (km/s) = 3.77072 3.80680 3.78881
# Velocity P-wave (km/s) = 6.89277 7.09936 6.99683
#
# Compressibility (1/GPa) = 0.01878262
#
# Stress axis : x y z
#
# Youngs Moduli (GPa) = 73.31089 73.31089 56.05384
#
# Poissons Ratio (x) = 0.44072 0.20061
# Poissons Ratio (y) = 0.44072 0.20061
# Poissons Ratio (z) = 0.26237 0.26237
#
# Static dielectric constant tensor:
#      x y z
#    x 3.433080 0.000000 0.000000 
#    y 0.000000 3.433080 0.000000 
#    z 0.000000 0.000000 3.424010 
# 
# 
# High freq. dielectric constant tensor:
#      x y z
#    x 1.719980 0.000000 0.000000 
#    y 0.000000 1.719980 0.000000 
#    z 0.000000 0.000000 1.723830 
# 
# From -- ./inp_files/2093.got.cif
#   From: 2010.03.12/outbox.cif.g09.slc.cpg/sg194_2_cif.got.tgz:2093.got - 2010.04.01 12:26:19.
