data_PCOD8330847
_publ_section_title
;
Structure prediction by ZEFSAII (Michael W. Deem and Ramdas Pophale) SiO2 
 PCOD8330847
Probable space group: P 63/M M C
;
_chemical_formula_sum "Si O2"
_cell_formula_units_Z 144
_cell_length_a 21.492365
_cell_length_b 21.492365
_cell_length_c 19.648780
_cell_angle_alpha 90.000000
_cell_angle_beta 90.000000
_cell_angle_gamma 120.000000
_cell_volume 7860.218824
_symmetry_space_group_name_H-M "P 63/M M C"
_symmetry_group_IT_number 194
_symmetry_cell_setting 'hexagonal'
loop_
_space_group_symop_operation_xyz
x,y,z
x-y,x,1/2+z
-y,x-y,z
-x,-y,1/2+z
-x+y,-x,z
y,-x+y,1/2+z
x-y,-y,-z
-x,-x+y,-z
y,x,-z
-y,-x,1/2-z
-x+y,y,1/2-z
x,x-y,1/2-z
-x,-y,-z
-x+y,-x,1/2-z
y,-x+y,-z
x,y,1/2-z
x-y,x,-z
-y,x-y,1/2-z
-x+y,y,z
x,x-y,z
-y,-x,z
y,x,1/2+z
x-y,-y,1/2+z
-x,-x+y,1/2+z
loop_
_atom_site_type_symbol
_atom_site_label
_atom_site_fract_x
_atom_site_fract_y
_atom_site_fract_z
Si Si1 0.142047 0.142047 0.500000
Si Si2 0.852124 0.000691 0.250000
Si Si3 0.736393 0.618422 0.920757
Si Si4 0.534322 0.927663 0.672488
Si Si5 0.478151 0.096644 0.826985
Si Si6 0.737399 0.616388 0.074857
Si Si7 0.234021 0.232203 0.118932
O O1 0.131784 0.065892 0.477229
O O2 0.173387 0.197225 0.438369
O O3 0.854835 0.927418 0.250000
O O4 0.807969 0.005039 0.187319
O O5 0.933394 0.066607 0.250000
O O6 0.814833 0.629666 0.921892
O O7 0.682685 0.545580 0.880837
O O8 0.738437 0.683352 0.878119
O O9 0.709429 0.615837 0.998083
O O10 0.544361 0.909007 0.750000
O O11 0.450693 0.901386 0.658615
O O12 0.559992 0.887915 0.620743
O O13 0.581027 0.012123 0.660207
O O14 0.467165 0.115544 0.750000
O O15 0.561682 0.123363 0.839813
O O16 0.794813 0.589626 0.074538
O O17 0.776299 0.697184 0.104064
#
# Coordination Sequence:
#
# PCOD8330847 Si02
#       7
#    12  12  24  24  24  24  24
#     4  12  23  40  60  78 105 148 200 250 298 348
#     4  12  27  44  60  78 105 148 202 258 312 362
#     4  11  22  36  56  85 118 153 192 233 281 341
#     4   9  19  36  57  84 115 145 180 225 275 331
#     4   9  19  36  57  84 115 145 180 225 275 331
#     4  11  22  36  56  85 118 153 192 233 281 341
#     4  12  24  40  56  82 116 149 190 247 304 349
#
# _framework density 18.320101000000001
#
# number of rings (size 3 to 8) (size 9 to 14) (size 15 to 20)
#    0.000    1.333    3.333    4.167    2.333    1.333 
#    0.000    3.333    0.000    0.667    0.000    0.000 
#    0.000    0.000    0.000    0.000    0.000    0.000 
#
# Total GULP energy -1785948.294823 kJ/mol
# GULP energy per Si atom -12402.418714 kJ/mol
# Density = 1.827840 g / cm^3
# Si number density = 18.320101 Si / 1000 Ang^3
#
#
#
# Elastic Constant Matrix: (Units=GPa)
#
#
# Indices 1 2 3 4 5 6 
#
# 1 66.1211 19.8066 41.6468 0.0000 0.0000 0.0000
# 2 19.8066 66.1211 41.6468 0.0000 0.0000 0.0000
# 3 41.6468 41.6468 129.3120 0.0000 0.0000 0.0000
# 4 0.0000 0.0000 0.0000 29.5924 0.0000 0.0000
# 5 0.0000 0.0000 0.0000 0.0000 29.5924 0.0000
# 6 0.0000 0.0000 0.0000 0.0000 0.0000 23.1573
#
#
#
# Elastic Compliance Matrix: (Units=1/GPa)
#
#
# Indices 1 2 3 4 5 6 
#
# 1 0.019256 -0.002336 -0.005449 0.000000 0.000000 0.000000
# 2 -0.002336 0.019256 -0.005449 0.000000 0.000000 0.000000
# 3 -0.005449 -0.005449 0.011243 0.000000 0.000000 0.000000
# 4 0.000000 0.000000 0.000000 0.033792 0.000000 0.000000
# 5 0.000000 0.000000 0.000000 0.000000 0.033792 0.000000
# 6 0.000000 0.000000 0.000000 0.000000 0.000000 0.043183
#
#
# Mechanical properties :
#
#
# Convention : Reuss Voigt Hill
#
# Bulk Modulus (GPa) = 42.94437 51.97274 47.45856
# Shear Modulus (GPa) = 25.67349 27.03202 26.35276
#
# Velocity S-wave (km/s) = 3.74757 3.84544 3.79682
# Velocity P-wave (km/s) = 6.49751 6.93883 6.72180
#
# Compressibility (1/GPa) = 0.02328594
#
# Stress axis : x y z
#
# Youngs Moduli (GPa) = 51.93262 51.93262 88.94195
#
# Poissons Ratio (x) = 0.12130 0.48467
# Poissons Ratio (y) = 0.12130 0.48467
# Poissons Ratio (z) = 0.28300 0.28300
#
# Static dielectric constant tensor:
#      x y z
#    x 3.320810 0.000000 0.000000 
#    y 0.000000 3.320810 0.000000 
#    z 0.000000 0.000000 3.441290 
# 
# 
# High freq. dielectric constant tensor:
#      x y z
#    x 1.699710 0.000000 0.000000 
#    y 0.000000 1.699710 0.000000 
#    z 0.000000 0.000000 1.720190 
# 
# From -- ./inp_files/8316.got.cif
#   From: 2010.03.12/outbox.cif.g09.slc.cpg/sg194_5_cif.got.tgz:8316.got - 2010.04.01 12:26:19.
