data_PCOD8330809
_publ_section_title
;
Structure prediction by ZEFSAII (Michael W. Deem and Ramdas Pophale) SiO2 
 PCOD8330809
Probable space group: P 63/M M C
;
_chemical_formula_sum "Si O2"
_cell_formula_units_Z 168
_cell_length_a 23.494275
_cell_length_b 23.494275
_cell_length_c 19.381713
_cell_angle_alpha 90.000000
_cell_angle_beta 90.000000
_cell_angle_gamma 120.000000
_cell_volume 9265.031192
_symmetry_space_group_name_H-M "P 63/M M C"
_symmetry_group_IT_number 194
_symmetry_cell_setting 'hexagonal'
loop_
_space_group_symop_operation_xyz
x,y,z
x-y,x,1/2+z
-y,x-y,z
-x,-y,1/2+z
-x+y,-x,z
y,-x+y,1/2+z
x-y,-y,-z
-x,-x+y,-z
y,x,-z
-y,-x,1/2-z
-x+y,y,1/2-z
x,x-y,1/2-z
-x,-y,-z
-x+y,-x,1/2-z
y,-x+y,-z
x,y,1/2-z
x-y,x,-z
-y,x-y,1/2-z
-x+y,y,z
x,x-y,z
-y,-x,z
y,x,1/2+z
x-y,-y,1/2+z
-x,-x+y,1/2+z
loop_
_atom_site_type_symbol
_atom_site_label
_atom_site_fract_x
_atom_site_fract_y
_atom_site_fract_z
Si Si1 0.666605 0.201990 0.427865
Si Si2 0.766675 0.104651 0.548431
Si Si3 0.031682 0.842116 0.432225
Si Si4 0.462149 0.666188 0.410904
Si Si5 0.587731 0.861215 0.174186
Si Si6 0.608836 0.872201 0.908614
Si Si7 0.800061 0.065291 0.327144
O O1 0.596378 0.192755 0.403499
O O2 0.723291 0.276710 0.411094
O O3 0.666165 0.187328 0.508763
O O4 0.682474 0.149463 0.389184
O O5 0.817114 0.182887 0.552263
O O6 0.803518 0.064901 0.534207
O O7 0.731206 0.085872 0.623627
O O8 0.718651 0.092166 0.483735
O O9 0.087568 0.912433 0.401141
O O10 0.000000 0.856255 0.500000
O O11 0.982406 0.798777 0.372136
O O12 0.443997 0.721999 0.395920
O O13 0.401618 0.598383 0.387372
O O14 0.521028 0.674546 0.363074
O O15 0.593812 0.892884 0.250000
O O16 0.592056 0.796028 0.183421
O O17 0.614518 0.807259 0.912935
O O18 0.664528 0.923236 0.855890
O O19 0.780151 0.035735 0.250000
O O20 0.865502 0.134499 0.325325
#
# Coordination Sequence:
#
# PCOD8330809 Si02
#       7
#    24  24  24  24  24  24  24
#     4   9  15  23  40  68 102 137 177 225 279 337
#     4   9  16  28  46  68  93 125 164 206 252 302
#     4  11  21  34  57  85 113 142 169 201 249 301
#     4   9  15  22  32  50  79 120 167 213 259 312
#     4   9  16  25  36  53  82 119 159 207 260 308
#     4   9  15  28  49  71  99 135 175 220 269 314
#     4  10  21  37  57  82 110 139 175 219 262 306
#
# _framework density 18.132697
#
# number of rings (size 3 to 8) (size 9 to 14) (size 15 to 20)
#    0.000    2.571    2.857    0.714    0.000    2.286 
#    0.000    1.429    0.000    3.857    0.000    3.000 
#    0.000    1.143    0.000    0.000    0.000    0.000 
#
# Total GULP energy -2081210.018955 kJ/mol
# GULP energy per Si atom -12388.154875 kJ/mol
# Density = 1.809143 g / cm^3
# Si number density = 18.132697 Si / 1000 Ang^3
#
#
#
# Elastic Constant Matrix: (Units=GPa)
#
#
# Indices 1 2 3 4 5 6 
#
# 1 56.7645 16.4200 31.5066 0.0000 0.0000 0.0000
# 2 16.4200 56.7645 31.5066 0.0000 0.0000 0.0000
# 3 31.5066 31.5066 100.8421 0.0000 0.0000 0.0000
# 4 0.0000 0.0000 0.0000 19.0137 0.0000 0.0000
# 5 0.0000 0.0000 0.0000 0.0000 19.0137 0.0000
# 6 0.0000 0.0000 0.0000 0.0000 0.0000 20.1722
#
#
#
# Elastic Compliance Matrix: (Units=1/GPa)
#
#
# Indices 1 2 3 4 5 6 
#
# 1 0.021740 -0.003047 -0.005840 0.000000 0.000000 0.000000
# 2 -0.003047 0.021740 -0.005840 0.000000 0.000000 0.000000
# 3 -0.005840 -0.005840 0.013566 0.000000 0.000000 0.000000
# 4 0.000000 0.000000 0.000000 0.052594 0.000000 0.000000
# 5 0.000000 0.000000 0.000000 0.000000 0.052594 0.000000
# 6 0.000000 0.000000 0.000000 0.000000 0.000000 0.049573
#
#
# Mechanical properties :
#
#
# Convention : Reuss Voigt Hill
#
# Bulk Modulus (GPa) = 36.24471 41.47084 38.85777
# Shear Modulus (GPa) = 19.96348 20.63576 20.29962
#
# Velocity S-wave (km/s) = 3.32168 3.37715 3.34953
# Velocity P-wave (km/s) = 5.89435 6.17472 6.03617
#
# Compressibility (1/GPa) = 0.02759023
#
# Stress axis : x y z
#
# Youngs Moduli (GPa) = 45.99897 45.99897 73.71428
#
# Poissons Ratio (x) = 0.14016 0.43051
# Poissons Ratio (y) = 0.14016 0.43051
# Poissons Ratio (z) = 0.26865 0.26865
#
# Static dielectric constant tensor:
#      x y z
#    x 3.219100 0.000000 0.000000 
#    y 0.000000 3.219100 0.000000 
#    z 0.000000 0.000000 3.457000 
# 
# 
# High freq. dielectric constant tensor:
#      x y z
#    x 1.676770 0.000000 0.000000 
#    y 0.000000 1.676770 0.000000 
#    z 0.000000 0.000000 1.689990 
# 
# From -- ./inp_files/8575.got.cif
#   From: 2010.03.12/outbox.cif.g09.slc.cpg/sg194_5_cif.got.tgz:8575.got - 2010.04.01 12:26:19.
