data_PCOD8330509
_publ_section_title
;
Structure prediction by ZEFSAII (Michael W. Deem and Ramdas Pophale) SiO2 
 PCOD8330509
Probable space group: P 63/M M C
;
_chemical_formula_sum "Si O2"
_cell_formula_units_Z 112
_cell_length_a 29.873565
_cell_length_b 29.873565
_cell_length_c 9.005578
_cell_angle_alpha 90.000000
_cell_angle_beta 90.000000
_cell_angle_gamma 120.000000
_cell_volume 6960.113622
_symmetry_space_group_name_H-M "P 63/M M C"
_symmetry_group_IT_number 194
_symmetry_cell_setting 'hexagonal'
loop_
_space_group_symop_operation_xyz
x,y,z
x-y,x,1/2+z
-y,x-y,z
-x,-y,1/2+z
-x+y,-x,z
y,-x+y,1/2+z
x-y,-y,-z
-x,-x+y,-z
y,x,-z
-y,-x,1/2-z
-x+y,y,1/2-z
x,x-y,1/2-z
-x,-y,-z
-x+y,-x,1/2-z
y,-x+y,-z
x,y,1/2-z
x-y,x,-z
-y,x-y,1/2-z
-x+y,y,z
x,x-y,z
-y,-x,z
y,x,1/2+z
x-y,-y,1/2+z
-x,-x+y,1/2+z
loop_
_atom_site_type_symbol
_atom_site_label
_atom_site_fract_x
_atom_site_fract_y
_atom_site_fract_z
Si Si1 0.388613 0.777225 0.925195
Si Si2 0.666667 0.333334 0.573027
Si Si3 0.205872 0.153605 0.424909
Si Si4 0.206024 0.515869 0.421492
Si Si5 0.308241 0.052234 0.424291
Si Si6 0.250335 0.852677 0.078534
O O1 0.384053 0.768106 0.750000
O O2 0.362156 0.724312 0.014547
O O3 0.448640 0.807800 0.974737
O O4 0.666667 0.333334 0.750000
O O5 0.161624 0.161624 0.500000
O O6 0.198410 0.152752 0.250000
O O7 0.199847 0.099924 0.482737
O O8 0.262489 0.199326 0.472240
O O9 0.204839 0.529945 0.250000
O O10 0.262620 0.525240 0.462288
O O11 0.163175 0.456739 0.452347
O O12 0.309587 0.045621 0.250000
O O13 0.362533 0.098991 0.476083
O O14 0.299729 0.000000 0.500000
O O15 0.250930 0.867582 0.250000
O O16 0.194350 0.805651 0.034802
#
# Coordination Sequence:
#
# PCOD8330509 Si02
#       6
#    12   4  24  24  24  24
#     4  12  22  30  44  70  95 119 160 206 236 268
#     4  12  22  32  46  60  88 131 163 192 238 284
#     4   9  18  31  46  67  94 122 154 189 228 274
#     4   9  18  32  48  64  89 128 161 187 230 284
#     4  10  19  31  48  70  96 125 155 191 235 279
#     4   9  18  32  49  70  95 125 160 192 227 278
#
# _framework density 16.091691000000001
#
# number of rings (size 3 to 8) (size 9 to 14) (size 15 to 20)
#    0.000    2.357    1.071    3.857    0.000    3.429 
#    0.000    2.143    0.000    0.214    0.000    0.750 
#    0.000    0.000    0.000    0.000    0.000    0.000 
#
# Total GULP energy -1388941.005735 kJ/mol
# GULP energy per Si atom -12401.258980 kJ/mol
# Density = 1.605507 g / cm^3
# Si number density = 16.091691 Si / 1000 Ang^3
#
#
#
# Elastic Constant Matrix: (Units=GPa)
#
#
# Indices 1 2 3 4 5 6 
#
# 1 96.5519 45.2768 45.6533 0.0000 0.0000 -0.0001
# 2 45.2768 96.5517 45.6531 -0.0001 0.0000 0.0000
# 3 45.6533 45.6531 78.7931 0.0001 0.0000 -0.0001
# 4 0.0000 -0.0001 0.0001 27.5475 0.0000 0.0000
# 5 0.0000 0.0000 0.0000 0.0000 27.5475 -0.0001
# 6 -0.0001 0.0000 -0.0001 0.0000 -0.0001 25.6374
#
#
#
# Elastic Compliance Matrix: (Units=1/GPa)
#
#
# Indices 1 2 3 4 5 6 
#
# 1 0.015374 -0.004129 -0.006516 0.000000 0.000000 0.000000
# 2 -0.004129 0.015374 -0.006516 0.000000 0.000000 0.000000
# 3 -0.006516 -0.006516 0.020242 0.000000 0.000000 0.000000
# 4 0.000000 0.000000 0.000000 0.036301 0.000000 0.000000
# 5 0.000000 0.000000 0.000000 0.000000 0.036301 0.000000
# 6 0.000000 0.000000 0.000000 0.000000 0.000000 0.039005
#
#
# Mechanical properties :
#
#
# Convention : Reuss Voigt Hill
#
# Bulk Modulus (GPa) = 59.98770 60.56255 60.27513
# Shear Modulus (GPa) = 24.69453 25.16738 24.93096
#
# Velocity S-wave (km/s) = 3.92166 3.95903 3.94039
# Velocity P-wave (km/s) = 7.60694 7.65612 7.63157
#
# Compressibility (1/GPa) = 0.01667008
#
# Stress axis : x y z
#
# Youngs Moduli (GPa) = 65.04468 65.04466 49.40243
#
# Poissons Ratio (x) = 0.26854 0.32189
# Poissons Ratio (y) = 0.26854 0.32189
# Poissons Ratio (z) = 0.42381 0.42381
#
# Static dielectric constant tensor:
#      x y z
#    x 3.005640 0.000000 0.000000 
#    y 0.000000 3.005640 0.000000 
#    z 0.000000 0.000000 2.972130 
# 
# 
# High freq. dielectric constant tensor:
#      x y z
#    x 1.603780 0.000000 0.000000 
#    y 0.000000 1.603780 0.000000 
#    z 0.000000 0.000000 1.621280 
# 
# From -- ./inp_files/1914.got.cif
#   From: 2010.03.12/outbox.cif.g09.slc.cpg/sg194_1_cif.got.tgz:1914.got - 2010.04.01 12:26:19.
