data_PCOD8330511
_publ_section_title
;
Structure prediction by ZEFSAII (Michael W. Deem and Ramdas Pophale) SiO2 
 PCOD8330511
Probable space group: P 63/M M C
;
_chemical_formula_sum "Si O2"
_cell_formula_units_Z 168
_cell_length_a 21.295597
_cell_length_b 21.295597
_cell_length_c 25.109899
_cell_angle_alpha 90.000000
_cell_angle_beta 90.000000
_cell_angle_gamma 120.000000
_cell_volume 9861.778337
_symmetry_space_group_name_H-M "P 63/M M C"
_symmetry_group_IT_number 194
_symmetry_cell_setting 'hexagonal'
loop_
_space_group_symop_operation_xyz
x,y,z
x-y,x,1/2+z
-y,x-y,z
-x,-y,1/2+z
-x+y,-x,z
y,-x+y,1/2+z
x-y,-y,-z
-x,-x+y,-z
y,x,-z
-y,-x,1/2-z
-x+y,y,1/2-z
x,x-y,1/2-z
-x,-y,-z
-x+y,-x,1/2-z
y,-x+y,-z
x,y,1/2-z
x-y,x,-z
-y,x-y,1/2-z
-x+y,y,z
x,x-y,z
-y,-x,z
y,x,1/2+z
x-y,-y,1/2+z
-x,-x+y,1/2+z
loop_
_atom_site_type_symbol
_atom_site_label
_atom_site_fract_x
_atom_site_fract_y
_atom_site_fract_z
Si Si1 0.532560 0.918325 0.399834
Si Si2 0.862367 0.999356 0.313439
Si Si3 0.871378 0.275320 0.811222
Si Si4 0.469342 0.386644 0.405342
Si Si5 0.709204 0.564810 0.311695
Si Si6 0.738056 0.717462 0.312184
Si Si7 0.334030 0.516855 0.000294
O O1 0.462113 0.924226 0.390261
O O2 0.537746 0.876221 0.348284
O O3 0.524671 0.868603 0.449932
O O4 0.601771 0.000771 0.405736
O O5 0.854012 0.994576 0.250000
O O6 0.843466 0.921733 0.336830
O O7 0.807954 0.022985 0.338534
O O8 0.943471 0.056530 0.330600
O O9 0.870230 0.297024 0.750000
O O10 0.801119 0.198882 0.824925
O O11 0.942007 0.270300 0.824490
O O12 0.536236 0.463765 0.419807
O O13 0.484774 0.359933 0.348548
O O14 0.467808 0.331389 0.450042
O O15 0.684551 0.554152 0.250000
O O16 0.773561 0.547121 0.319829
O O17 0.732461 0.644453 0.334842
O O18 0.750208 0.714883 0.250000
O O19 0.258595 0.517189 0.004238
O O20 0.400003 0.599998 0.996622
#
# Coordination Sequence:
#
# PCOD8330511 Si02
#       7
#    24  24  24  24  24  24  24
#     4  10  20  34  52  74 100 128 162 205 250 297
#     4   9  15  22  33  51  77 111 151 192 232 273
#     4  10  19  31  48  71 100 133 168 203 241 290
#     4  10  20  34  52  74 100 128 162 205 250 297
#     4  10  19  31  48  71 100 133 168 203 241 290
#     4   9  16  27  41  60  87 120 157 197 236 276
#     4  10  20  35  55  77 100 127 160 199 247 302
#
# _framework density 17.035467000000001
#
# number of rings (size 3 to 8) (size 9 to 14) (size 15 to 20)
#    0.000    2.286    1.429    2.429    0.000    6.286 
#    0.000    1.429    0.000    0.571    0.000    0.000 
#    0.000    0.000    0.000    0.000    0.000    0.000 
#
# Total GULP energy -2081856.299194 kJ/mol
# GULP energy per Si atom -12392.001781 kJ/mol
# Density = 1.699669 g / cm^3
# Si number density = 17.035467 Si / 1000 Ang^3
#
#
#
# Elastic Constant Matrix: (Units=GPa)
#
#
# Indices 1 2 3 4 5 6 
#
# 1 60.0221 14.7068 31.4101 0.0000 0.0000 0.0000
# 2 14.7068 60.0221 31.4101 0.0000 0.0000 0.0000
# 3 31.4101 31.4101 76.5431 0.0000 0.0000 0.0000
# 4 0.0000 0.0000 0.0000 23.1332 0.0000 0.0000
# 5 0.0000 0.0000 0.0000 0.0000 23.1332 0.0000
# 6 0.0000 0.0000 0.0000 0.0000 0.0000 22.6577
#
#
#
# Elastic Compliance Matrix: (Units=1/GPa)
#
#
# Indices 1 2 3 4 5 6 
#
# 1 0.021248 -0.000819 -0.008383 0.000000 0.000000 0.000000
# 2 -0.000819 0.021248 -0.008383 0.000000 0.000000 0.000000
# 3 -0.008383 -0.008383 0.019945 0.000000 0.000000 0.000000
# 4 0.000000 0.000000 0.000000 0.043228 0.000000 0.000000
# 5 0.000000 0.000000 0.000000 0.000000 0.043228 0.000000
# 6 0.000000 0.000000 0.000000 0.000000 0.000000 0.044135
#
#
# Mechanical properties :
#
#
# Convention : Reuss Voigt Hill
#
# Bulk Modulus (GPa) = 36.67047 39.07127 37.87087
# Shear Modulus (GPa) = 21.07094 21.72218 21.39656
#
# Velocity S-wave (km/s) = 3.52076 3.57475 3.54786
# Velocity P-wave (km/s) = 6.17255 6.32641 6.24995
#
# Compressibility (1/GPa) = 0.02726990
#
# Stress axis : x y z
#
# Youngs Moduli (GPa) = 47.06266 47.06266 50.13848
#
# Poissons Ratio (x) = 0.03856 0.42032
# Poissons Ratio (y) = 0.03856 0.42032
# Poissons Ratio (z) = 0.39454 0.39454
#
# Static dielectric constant tensor:
#      x y z
#    x 3.267910 0.000000 0.000000 
#    y 0.000000 3.267910 0.000000 
#    z 0.000000 0.000000 2.992480 
# 
# 
# High freq. dielectric constant tensor:
#      x y z
#    x 1.659140 0.000000 0.000000 
#    y 0.000000 1.659140 0.000000 
#    z 0.000000 0.000000 1.622750 
# 
# From -- ./inp_files/9837.got.cif
#   From: 2010.03.12/outbox.cif.g09.slc.cpg/sg194_5_cif.got.tgz:9837.got - 2010.04.01 12:26:19.
