data_PCOD8330988
_publ_section_title
;
Structure prediction by ZEFSAII (Michael W. Deem and Ramdas Pophale) SiO2 
 PCOD8330988
Probable space group: P 42 3 2
;
_chemical_formula_sum "Si O2"
_cell_formula_units_Z 104
_cell_length_a 18.544984
_cell_length_b 18.544984
_cell_length_c 18.544984
_cell_angle_alpha 90.000000
_cell_angle_beta 90.000000
_cell_angle_gamma 90.000000
_cell_volume 6377.924721
_symmetry_space_group_name_H-M "P 42 3 2"
_symmetry_group_IT_number 208
_symmetry_cell_setting 'cubic'
loop_
_space_group_symop_operation_xyz
x,y,z
1/2-y,1/2+x,1/2+z
-x,-y,z
1/2+y,1/2-x,1/2+z
1/2+x,1/2-z,1/2+y
x,-y,-z
1/2+x,1/2+z,1/2-y
1/2+z,1/2+y,1/2-x
-x,y,-z
1/2-z,1/2+y,1/2+x
z,x,y
y,z,x
-y,-z,x
z,-x,-y
-y,z,-x
-z,-x,y
-z,x,-y
y,-z,-x
1/2+y,1/2+x,1/2-z
1/2-y,1/2-x,1/2-z
1/2-x,1/2+z,1/2+y
1/2-x,1/2-z,1/2-y
1/2+z,1/2-y,1/2+x
1/2-z,1/2-y,1/2-x
loop_
_atom_site_type_symbol
_atom_site_label
_atom_site_fract_x
_atom_site_fract_y
_atom_site_fract_z
Si Si1 0.140570 0.252170 0.472094
Si Si2 0.920152 0.531874 0.675921
Si Si3 0.700030 0.299972 0.700029
Si Si4 0.282744 0.192587 0.418429
Si Si5 0.364789 0.447366 0.939585
O O1 0.109297 0.250000 0.390703
O O2 0.224338 0.233923 0.467603
O O3 0.126430 0.330655 0.506964
O O4 0.098976 0.195013 0.520118
O O5 0.920589 0.579412 0.750000
O O6 0.856568 0.472455 0.670447
O O7 0.903331 0.578661 0.605869
O O8 0.000000 0.500000 0.668410
O O9 0.750000 0.250000 0.750000
O O10 0.675939 0.254330 0.628514
O O11 0.250000 0.136188 0.363813
O O12 0.400210 0.500000 0.000000
#
# Coordination Sequence:
#
# PCOD8330988 Si02
#       5
#    24  24   8  24  24
#     4   9  16  28  47  67  98 129 161 205 242 298
#     4  11  19  31  48  69  99 133 168 208 249 301
#     4   9  21  30  45  69  93 123 171 207 252 303
#     4  11  18  31  49  69  95 131 166 209 248 298
#     4   9  18  30  44  70  97 131 166 202 251 302
#
# _framework density 16.306244
#
# number of rings (size 3 to 8) (size 9 to 14) (size 15 to 20)
#    0.000    2.077    4.615    3.462    0.000    2.308 
#    0.000    0.000    0.000    0.923    6.000    0.000 
#    0.000    0.000    0.000    1.385    0.000    0.000 
#
# Total GULP energy -1288477.858488 kJ/mol
# GULP energy per Si atom -12389.210178 kJ/mol
# Density = 1.626913 g / cm^3
# Si number density = 16.306244 Si / 1000 Ang^3
#
#
#
# Elastic Constant Matrix: (Units=GPa)
#
#
# Indices 1 2 3 4 5 6 
#
# 1 72.2121 43.4148 43.4141 0.0000 0.0000 0.0000
# 2 43.4148 72.2121 43.4141 0.0000 0.0000 0.0000
# 3 43.4141 43.4141 72.2117 0.0000 0.0000 0.0000
# 4 0.0000 0.0000 0.0000 22.6400 0.0000 0.0000
# 5 0.0000 0.0000 0.0000 0.0000 22.6400 0.0000
# 6 0.0000 0.0000 0.0000 0.0000 0.0000 22.6404
#
#
#
# Elastic Compliance Matrix: (Units=1/GPa)
#
#
# Indices 1 2 3 4 5 6 
#
# 1 0.025246 -0.009479 -0.009479 0.000000 0.000000 0.000000
# 2 -0.009479 0.025246 -0.009479 0.000000 0.000000 0.000000
# 3 -0.009479 -0.009479 0.025246 0.000000 0.000000 0.000000
# 4 0.000000 0.000000 0.000000 0.044170 0.000000 0.000000
# 5 0.000000 0.000000 0.000000 0.000000 0.044170 0.000000
# 6 0.000000 0.000000 0.000000 0.000000 0.000000 0.044169
#
#
# Mechanical properties :
#
#
# Convention : Reuss Voigt Hill
#
# Bulk Modulus (GPa) = 53.01357 53.01357 53.01357
# Shear Modulus (GPa) = 18.42240 19.34359 18.88300
#
# Velocity S-wave (km/s) = 3.36486 3.44796 3.40666
# Velocity P-wave (km/s) = 6.90494 6.95939 6.93222
#
# Compressibility (1/GPa) = 0.01886309
#
# Stress axis : x y z
#
# Youngs Moduli (GPa) = 39.61013 39.61013 39.61051
#
# Poissons Ratio (x) = 0.37548 0.37547
# Poissons Ratio (y) = 0.37548 0.37547
# Poissons Ratio (z) = 0.37546 0.37546
#
# Static dielectric constant tensor:
#      x y z
#    x 1.403090 0.000000 0.000000 
#    y 0.000000 1.403090 0.000000 
#    z 0.000000 0.000000 1.406030 
# 
# 
# High freq. dielectric constant tensor:
#      x y z
#    x 1.607260 0.000000 0.000000 
#    y 0.000000 1.607260 0.000000 
#    z 0.000000 0.000000 1.607260 
# 
# From -- ./inp_files/877.got.cif
#   From: 2010.03.12/outbox.cif.g09.slc.cpg/sg208_cif.got.tgz:877.got - 2010.03.30 09:03:42.
