data_PCOD8330097
_publ_section_title
;
Structure prediction by ZEFSAII (Michael W. Deem and Ramdas Pophale) SiO2 
 PCOD8330097
Probable space group: P 63/M C M
;
_chemical_formula_sum "Si O2"
_cell_formula_units_Z 84
_cell_length_a 18.895503
_cell_length_b 18.895503
_cell_length_c 13.991323
_cell_angle_alpha 90.000000
_cell_angle_beta 90.000000
_cell_angle_gamma 120.000000
_cell_volume 4326.197372
_symmetry_space_group_name_H-M "P 63/M C M"
_symmetry_group_IT_number 193
_symmetry_cell_setting 'hexagonal'
loop_
_space_group_symop_operation_xyz
x,y,z
x-y,x,1/2+z
-y,x-y,z
-x,-y,1/2+z
-x+y,-x,z
y,-x+y,1/2+z
x-y,-y,1/2-z
-x,-x+y,1/2-z
y,x,1/2-z
-y,-x,-z
-x+y,y,-z
x,x-y,-z
-x,-y,-z
-x+y,-x,1/2-z
y,-x+y,-z
x,y,1/2-z
x-y,x,-z
-y,x-y,1/2-z
-x+y,y,1/2+z
x,x-y,1/2+z
-y,-x,1/2+z
y,x,z
x-y,-y,z
-x,-x+y,z
loop_
_atom_site_type_symbol
_atom_site_label
_atom_site_fract_x
_atom_site_fract_y
_atom_site_fract_z
Si Si1 0.471251 0.471251 0.638218
Si Si2 0.660799 0.821091 0.142035
Si Si3 0.000000 0.717752 0.354797
Si Si4 0.521815 0.760908 0.000000
Si Si5 0.569434 0.430567 0.000000
Si Si6 0.000000 0.314896 0.060026
O O1 0.486407 0.486407 0.750000
O O2 0.465870 0.546911 0.593181
O O3 0.387029 0.387029 0.618733
O O4 0.643216 0.788040 0.250000
O O5 0.725261 0.918412 0.139186
O O6 0.695945 0.773067 0.082613
O O7 0.575664 0.801741 0.094377
O O8 0.000000 0.677991 0.250000
O O9 0.000000 0.665077 0.446493
O O10 0.467543 0.664969 0.013775
#
# Coordination Sequence:
#
# PCOD8330097 Si02
#       6
#    12  24  12  12  12  12
#     4  11  23  42  65  90 121 162 218 274 330 389
#     4  11  22  37  63  90 123 165 208 257 311 374
#     4  10  20  35  57  94 130 157 197 251 308 364
#     4  12  23  42  59  86 124 160 214 263 328 389
#     4  11  25  40  63  90 124 168 212 275 334 392
#     4  12  19  39  64  94 121 165 212 264 309 383
#
# _framework density 19.416588999999998
#
# number of rings (size 3 to 8) (size 9 to 14) (size 15 to 20)
#    0.000    0.857    5.714    1.571    0.000    2.286 
#    0.000    7.143    0.000    4.000    0.000    4.000 
#    0.000    0.000    0.000    0.000    0.000    0.000 
#
# Total GULP energy -1041233.375801 kJ/mol
# GULP energy per Si atom -12395.635426 kJ/mol
# Density = 1.937240 g / cm^3
# Si number density = 19.416589 Si / 1000 Ang^3
#
#
#
# Elastic Constant Matrix: (Units=GPa)
#
#
# Indices 1 2 3 4 5 6 
#
# 1 102.4169 46.4824 30.1995 0.0000 0.0000 0.0000
# 2 46.4824 102.4169 30.1995 0.0000 0.0000 0.0000
# 3 30.1995 30.1995 174.2439 0.0000 0.0000 0.0000
# 4 0.0000 0.0000 0.0000 22.7050 0.0000 0.0000
# 5 0.0000 0.0000 0.0000 0.0000 22.7050 0.0000
# 6 0.0000 0.0000 0.0000 0.0000 0.0000 27.9672
#
#
#
# Elastic Compliance Matrix: (Units=1/GPa)
#
#
# Indices 1 2 3 4 5 6 
#
# 1 0.012551 -0.005327 -0.001252 0.000000 0.000000 0.000000
# 2 -0.005327 0.012551 -0.001252 0.000000 0.000000 0.000000
# 3 -0.001252 -0.001252 0.006173 0.000000 0.000000 0.000000
# 4 0.000000 0.000000 0.000000 0.044043 0.000000 0.000000
# 5 0.000000 0.000000 0.000000 0.000000 0.044043 0.000000
# 6 0.000000 0.000000 0.000000 0.000000 0.000000 0.035756
#
#
# Mechanical properties :
#
#
# Convention : Reuss Voigt Hill
#
# Bulk Modulus (GPa) = 64.05065 65.87116 64.96090
# Shear Modulus (GPa) = 28.41172 32.82189 30.61680
#
# Velocity S-wave (km/s) = 3.82942 4.11591 3.97525
# Velocity P-wave (km/s) = 7.25340 7.52240 7.38912
#
# Compressibility (1/GPa) = 0.01561264
#
# Stress axis : x y z
#
# Youngs Moduli (GPa) = 79.67533 79.67533 161.99389
#
# Poissons Ratio (x) = 0.42444 0.20282
# Poissons Ratio (y) = 0.42444 0.20282
# Poissons Ratio (z) = 0.09975 0.09975
#
# Static dielectric constant tensor:
#      x y z
#    x 3.552510 0.000000 0.000000 
#    y 0.000000 3.552510 0.000000 
#    z 0.000000 0.000000 3.886370 
# 
# 
# High freq. dielectric constant tensor:
#      x y z
#    x 1.747170 0.000000 0.000000 
#    y 0.000000 1.747170 0.000000 
#    z 0.000000 0.000000 1.776010 
# 
# From -- ./inp_files/3425.got.cif
#   From: 2010.03.12/outbox.cif.g09.slc.cpg/sg193_2_cif.got.tgz:3425.got - 2010.04.01 12:20:39.
