data_PCOD8330882
_publ_section_title
;
Structure prediction by ZEFSAII (Michael W. Deem and Ramdas Pophale) SiO2 
 PCOD8330882
Probable space group: I 2 3
;
_chemical_formula_sum "Si O2"
_cell_formula_units_Z 82
_cell_length_a 16.328812
_cell_length_b 16.328812
_cell_length_c 16.328812
_cell_angle_alpha 90.000000
_cell_angle_beta 90.000000
_cell_angle_gamma 90.000000
_cell_volume 4353.752798
_symmetry_space_group_name_H-M "I 2 3"
_symmetry_group_IT_number 197
_symmetry_cell_setting 'cubic'
loop_
_space_group_symop_operation_xyz
x,y,z
z,x,y
y,z,x
-y,-z,x
z,-x,-y
-y,z,-x
-z,-x,y
-z,x,-y
y,-z,-x
-x,-y,z
x,-y,-z
-x,y,-z
1/2+x,1/2+y,1/2+z
1/2+z,1/2+x,1/2+y
1/2+y,1/2+z,1/2+x
1/2-y,1/2-z,1/2+x
1/2+z,1/2-x,1/2-y
1/2-y,1/2+z,1/2-x
1/2-z,1/2-x,1/2+y
1/2-z,1/2+x,1/2-y
1/2+y,1/2-z,1/2-x
1/2-x,1/2-y,1/2+z
1/2+x,1/2-y,1/2-z
1/2-x,1/2+y,1/2-z
loop_
_atom_site_type_symbol
_atom_site_label
_atom_site_fract_x
_atom_site_fract_y
_atom_site_fract_z
Si Si1 0.706518 0.930567 0.065767
Si Si2 0.112937 0.112937 0.112937
Si Si3 0.370443 0.233969 0.011191
Si Si4 0.500000 0.500000 0.500000
Si Si5 0.488833 0.266966 0.867260
O O1 0.793193 0.893027 0.088636
O O2 0.650083 0.859885 0.028841
O O3 0.660413 0.970284 0.141743
O O4 0.721448 0.000000 0.000000
O O5 0.056446 0.056446 0.056446
O O6 0.425800 0.269308 0.084271
O O7 0.289190 0.287635 0.003835
O O8 0.416825 0.234010 0.924930
#
# Coordination Sequence:
#
# PCOD8330882 Si02
#       5
#    24   8  24   2  24
#     4  12  24  41  66  96 126 170 217 262 321 387
#     4  12  24  39  69  88 131 175 225 264 318 379
#     4  11  23  42  65  94 128 166 211 264 324 389
#     4  12  24  48  60  88 140 190 216 288 324 352
#     4  11  23  42  65  94 128 166 211 264 324 389
#
# _framework density 18.834325
#
# number of rings (size 3 to 8) (size 9 to 14) (size 15 to 20)
#    0.000    0.585    7.317    1.756    0.000    0.000 
#    0.000    0.000    0.000    0.000    0.000    0.000 
#    0.000    0.000    0.000    0.000    0.000    0.000 
#
# Total GULP energy -508666.366362 kJ/mol
# GULP energy per Si atom -12406.496741 kJ/mol
# Density = 1.879146 g / cm^3
# Si number density = 18.834325 Si / 1000 Ang^3
#
#
#
# Elastic Constant Matrix: (Units=GPa)
#
#
# Indices 1 2 3 4 5 6 
#
# 1 64.9715 17.3908 17.3900 0.0000 0.0000 0.0000
# 2 17.3908 64.9716 17.3904 0.0000 0.0000 0.0000
# 3 17.3900 17.3904 64.9711 0.0000 0.0000 0.0000
# 4 0.0000 0.0000 0.0000 21.7590 0.0000 0.0000
# 5 0.0000 0.0000 0.0000 0.0000 21.7655 0.0000
# 6 0.0000 0.0000 0.0000 0.0000 0.0000 21.7662
#
#
#
# Elastic Compliance Matrix: (Units=1/GPa)
#
#
# Indices 1 2 3 4 5 6 
#
# 1 0.017353 -0.003664 -0.003664 0.000000 0.000000 0.000000
# 2 -0.003664 0.017353 -0.003664 0.000000 0.000000 0.000000
# 3 -0.003664 -0.003664 0.017353 0.000000 0.000000 0.000000
# 4 0.000000 0.000000 0.000000 0.045958 0.000000 0.000000
# 5 0.000000 0.000000 0.000000 0.000000 0.045944 0.000000
# 6 0.000000 0.000000 0.000000 0.000000 0.000000 0.045943
#
#
# Mechanical properties :
#
#
# Convention : Reuss Voigt Hill
#
# Bulk Modulus (GPa) = 33.25073 33.25073 33.25073
# Shear Modulus (GPa) = 22.53140 22.57431 22.55285
#
# Velocity S-wave (km/s) = 3.46250 3.46580 3.46415
# Velocity P-wave (km/s) = 5.80326 5.80589 5.80457
#
# Compressibility (1/GPa) = 0.03007453
#
# Stress axis : x y z
#
# Youngs Moduli (GPa) = 57.62760 57.62755 57.62742
#
# Poissons Ratio (x) = 0.21115 0.21114
# Poissons Ratio (y) = 0.21115 0.21115
# Poissons Ratio (z) = 0.21114 0.21115
#
# Static dielectric constant tensor:
#      x y z
#    x 3.514840 0.000000 0.000000 
#    y 0.000000 3.514830 0.000000 
#    z 0.000000 0.000000 3.514840 
# 
# 
# High freq. dielectric constant tensor:
#      x y z
#    x 1.744520 0.000000 0.000000 
#    y 0.000000 1.744520 0.000000 
#    z 0.000000 0.000000 1.744520 
# 
# From -- ./inp_files/416.got.cif
#   From: 2010.03.12/outbox.cif.g09.slc.cpg/sg197_cif.got.tgz:416.got - 2010.04.01 12:33:32.
