data_PCOD8330906
_publ_section_title
;
Structure prediction by ZEFSAII (Michael W. Deem and Ramdas Pophale) SiO2 
 PCOD8330906
Probable space group: I 21 3
;
_chemical_formula_sum "Si O2"
_cell_formula_units_Z 64
_cell_length_a 13.722663
_cell_length_b 13.722663
_cell_length_c 13.722663
_cell_angle_alpha 90.000000
_cell_angle_beta 90.000000
_cell_angle_gamma 90.000000
_cell_volume 2584.134976
_symmetry_space_group_name_H-M "I 21 3"
_symmetry_group_IT_number 199
_symmetry_cell_setting 'cubic'
loop_
_space_group_symop_operation_xyz
x,y,z
z,x,y
y,z,x
-y,1/2-z,x
z,-x,1/2-y
1/2-y,z,-x
-z,1/2-x,y
1/2-z,x,-y
y,-z,1/2-x
-x,1/2-y,z
x,-y,1/2-z
1/2-x,y,-z
1/2+x,1/2+y,1/2+z
1/2+z,1/2+x,1/2+y
1/2+y,1/2+z,1/2+x
1/2-y,-z,1/2+x
1/2+z,1/2-x,-y
-y,1/2+z,1/2-x
1/2-z,-x,1/2+y
-z,1/2+x,1/2-y
1/2+y,1/2-z,-x
1/2-x,-y,1/2+z
1/2+x,1/2-y,-z
-x,1/2+y,1/2-z
loop_
_atom_site_type_symbol
_atom_site_label
_atom_site_fract_x
_atom_site_fract_y
_atom_site_fract_z
Si Si1 0.816966 0.683036 0.316966
Si Si2 0.183035 0.683035 0.816966
Si Si3 0.353360 0.836116 0.034305
Si Si4 0.336115 0.034305 0.146640
O O1 0.750001 0.750001 0.250000
O O2 0.885531 0.616532 0.245838
O O3 0.114469 0.616532 0.745837
O O4 0.340723 0.945467 0.072857
O O5 0.250000 0.796828 0.000000
O O6 0.427142 0.840722 0.945466
O O7 0.296827 0.000000 0.250000
#
# Coordination Sequence:
#
# PCOD8330906 Si02
#       4
#     8   8  24  24
#     4  12  24  51  75  99 147 196 237 294 354 423
#     4  12  24  51  75  99 147 196 237 294 354 423
#     4  12  25  45  72 105 144 188 239 294 358 425
#     4  12  25  45  72 105 144 188 239 294 358 425
#
# _framework density 24.76651
#
# number of rings (size 3 to 8) (size 9 to 14) (size 15 to 20)
#    0.000    0.000    7.500    0.750    0.000    9.000 
#    0.000    0.000    0.000    0.000    0.000    0.000 
#    0.000    0.000    0.000    0.000    0.000    0.000 
#
# Total GULP energy -396669.037207 kJ/mol
# GULP energy per Si atom -12395.907413 kJ/mol
# Density = 2.471014 g / cm^3
# Si number density = 24.766510 Si / 1000 Ang^3
#
#
#
# Elastic Constant Matrix: (Units=GPa)
#
#
# Indices 1 2 3 4 5 6 
#
# 1 116.0365 49.1927 49.1922 0.0000 0.0000 0.0000
# 2 49.1927 116.0355 49.1937 0.0000 0.0000 0.0000
# 3 49.1922 49.1937 116.0355 0.0000 0.0000 0.0000
# 4 0.0000 0.0000 0.0000 48.2503 0.0000 0.0000
# 5 0.0000 0.0000 0.0000 0.0000 48.2409 0.0000
# 6 0.0000 0.0000 0.0000 0.0000 0.0000 48.2343
#
#
#
# Elastic Compliance Matrix: (Units=1/GPa)
#
#
# Indices 1 2 3 4 5 6 
#
# 1 0.011528 -0.003432 -0.003432 0.000000 0.000000 0.000000
# 2 -0.003432 0.011528 -0.003432 0.000000 0.000000 0.000000
# 3 -0.003432 -0.003432 0.011528 0.000000 0.000000 0.000000
# 4 0.000000 0.000000 0.000000 0.020725 0.000000 0.000000
# 5 0.000000 0.000000 0.000000 0.000000 0.020729 0.000000
# 6 0.000000 0.000000 0.000000 0.000000 0.000000 0.020732
#
#
# Mechanical properties :
#
#
# Convention : Reuss Voigt Hill
#
# Bulk Modulus (GPa) = 71.47387 71.47387 71.47387
# Shear Modulus (GPa) = 40.97404 42.31369 41.64387
#
# Velocity S-wave (km/s) = 4.07186 4.13789 4.10501
# Velocity P-wave (km/s) = 7.14342 7.19383 7.16867
#
# Compressibility (1/GPa) = 0.01399113
#
# Stress axis : x y z
#
# Youngs Moduli (GPa) = 86.74504 86.74300 86.74340
#
# Poissons Ratio (x) = 0.29772 0.29771
# Poissons Ratio (y) = 0.29773 0.29774
# Poissons Ratio (z) = 0.29772 0.29774
#
# Static dielectric constant tensor:
#      x y z
#    x 4.506700 0.000000 0.000000 
#    y 0.000000 4.506680 0.000000 
#    z 0.000000 0.000000 4.506710 
# 
# 
# High freq. dielectric constant tensor:
#      x y z
#    x 1.990560 0.000000 0.000000 
#    y 0.000000 1.990560 0.000000 
#    z 0.000000 0.000000 1.990560 
# 
# From -- ./inp_files/417.got.cif
#   From: 2010.03.12/outbox.cif.g09.slc.cpg/sg199_cif.got.tgz:417.got - 2010.04.01 12:34:00.
