data_PCOD8330315
_publ_section_title
;
Structure prediction by ZEFSAII (Michael W. Deem and Ramdas Pophale) SiO2 
 PCOD8330315
Probable space group: P 63/M M C
;
_chemical_formula_sum "Si O2"
_cell_formula_units_Z 132
_cell_length_a 17.859176
_cell_length_b 17.859176
_cell_length_c 26.931447
_cell_angle_alpha 90.000000
_cell_angle_beta 90.000000
_cell_angle_gamma 120.000000
_cell_volume 7438.975945
_symmetry_space_group_name_H-M "P 63/M M C"
_symmetry_group_IT_number 194
_symmetry_cell_setting 'hexagonal'
loop_
_space_group_symop_operation_xyz
x,y,z
x-y,x,1/2+z
-y,x-y,z
-x,-y,1/2+z
-x+y,-x,z
y,-x+y,1/2+z
x-y,-y,-z
-x,-x+y,-z
y,x,-z
-y,-x,1/2-z
-x+y,y,1/2-z
x,x-y,1/2-z
-x,-y,-z
-x+y,-x,1/2-z
y,-x+y,-z
x,y,1/2-z
x-y,x,-z
-y,x-y,1/2-z
-x+y,y,z
x,x-y,z
-y,-x,z
y,x,1/2+z
x-y,-y,1/2+z
-x,-x+y,1/2+z
loop_
_atom_site_type_symbol
_atom_site_label
_atom_site_fract_x
_atom_site_fract_y
_atom_site_fract_z
Si Si1 0.090325 0.349135 0.616078
Si Si2 0.397634 0.964335 0.158607
Si Si3 0.559592 0.862930 0.436058
Si Si4 0.164719 0.500446 0.542353
Si Si5 0.037619 0.797178 0.052996
Si Si6 0.665457 0.508712 0.750000
O O1 0.181356 0.362711 0.637361
O O2 0.103403 0.410349 0.569231
O O3 0.041401 0.374161 0.657992
O O4 0.034535 0.250670 0.595915
O O5 0.500212 0.000423 0.167329
O O6 0.371288 0.912201 0.107154
O O7 0.341753 0.899713 0.202127
O O8 0.534086 0.767043 0.417100
O O9 0.504681 0.857419 0.484230
O O10 0.657501 0.912677 0.454369
O O11 0.264029 0.528058 0.550186
O O12 0.149508 0.574754 0.566021
O O13 0.104861 0.895140 0.070818
O O14 0.000000 0.803539 0.000000
O O15 0.591549 0.408452 0.750000
O O16 0.757747 0.515493 0.750000
#
# Coordination Sequence:
#
# PCOD8330315 Si02
#       6
#    24  24  24  24  24  12
#     4  10  20  34  50  71 100 134 170 209 254 298
#     4  10  20  33  52  77 102 132 171 212 248 295
#     4   9  17  28  44  68 100 137 172 205 244 292
#     4  10  18  28  43  67 102 141 178 210 241 285
#     4  10  17  28  45  66  91 125 167 207 248 295
#     4  10  21  38  59  84 112 136 160 194 245 302
#
# _framework density 17.744378000000001
#
# number of rings (size 3 to 8) (size 9 to 14) (size 15 to 20)
#    0.000    2.182    1.818    2.455    0.000    0.727 
#    0.000    3.182    0.000    9.455    0.000    0.000 
#    0.000    0.000    0.000    0.000    0.000    0.000 
#
# Total GULP energy -1636282.777677 kJ/mol
# GULP energy per Si atom -12396.081649 kJ/mol
# Density = 1.770399 g / cm^3
# Si number density = 17.744378 Si / 1000 Ang^3
#
#
#
# Elastic Constant Matrix: (Units=GPa)
#
#
# Indices 1 2 3 4 5 6 
#
# 1 97.5834 52.5378 36.9115 0.0000 0.0000 0.0000
# 2 52.5378 97.5834 36.9115 0.0000 0.0000 0.0000
# 3 36.9115 36.9115 61.2043 0.0000 0.0000 0.0000
# 4 0.0000 0.0000 0.0000 21.5749 0.0000 0.0000
# 5 0.0000 0.0000 0.0000 0.0000 21.5749 0.0000
# 6 0.0000 0.0000 0.0000 0.0000 0.0000 22.5228
#
#
#
# Elastic Compliance Matrix: (Units=1/GPa)
#
#
# Indices 1 2 3 4 5 6 
#
# 1 0.015835 -0.006365 -0.005711 0.000000 0.000000 0.000000
# 2 -0.006365 0.015835 -0.005711 0.000000 0.000000 0.000000
# 3 -0.005711 -0.005711 0.023227 0.000000 0.000000 0.000000
# 4 0.000000 0.000000 0.000000 0.046350 0.000000 0.000000
# 5 0.000000 0.000000 0.000000 0.000000 0.046350 0.000000
# 6 0.000000 0.000000 0.000000 0.000000 0.000000 0.044400
#
#
# Mechanical properties :
#
#
# Convention : Reuss Voigt Hill
#
# Bulk Modulus (GPa) = 51.75326 56.56584 54.15955
# Shear Modulus (GPa) = 21.36647 21.80188 21.58417
#
# Velocity S-wave (km/s) = 3.47382 3.50903 3.49147
# Velocity P-wave (km/s) = 6.73195 6.95450 6.84413
#
# Compressibility (1/GPa) = 0.01932246
#
# Stress axis : x y z
#
# Youngs Moduli (GPa) = 63.15227 63.15227 43.05291
#
# Poissons Ratio (x) = 0.40197 0.24588
# Poissons Ratio (y) = 0.40197 0.24588
# Poissons Ratio (z) = 0.36067 0.36067
#
# Static dielectric constant tensor:
#      x y z
#    x 3.361240 0.000000 0.000000 
#    y 0.000000 3.361240 0.000000 
#    z 0.000000 0.000000 2.986310 
# 
# 
# High freq. dielectric constant tensor:
#      x y z
#    x 1.684800 0.000000 0.000000 
#    y 0.000000 1.684800 0.000000 
#    z 0.000000 0.000000 1.644090 
# 
# From -- ./inp_files/9506.got.cif
#   From: 2010.03.12/outbox.cif.g09.slc.cpg/sg194_5_cif.got.tgz:9506.got - 2010.04.01 12:26:19.
