data_PCOD8330332
_publ_section_title
;
Structure prediction by ZEFSAII (Michael W. Deem and Ramdas Pophale) SiO2 
 PCOD8330332
Probable space group: P 63/M M C
;
_chemical_formula_sum "Si O2"
_cell_formula_units_Z 192
_cell_length_a 25.721429
_cell_length_b 25.721429
_cell_length_c 20.546057
_cell_angle_alpha 90.000000
_cell_angle_beta 90.000000
_cell_angle_gamma 120.000000
_cell_volume 11771.974324
_symmetry_space_group_name_H-M "P 63/M M C"
_symmetry_group_IT_number 194
_symmetry_cell_setting 'hexagonal'
loop_
_space_group_symop_operation_xyz
x,y,z
x-y,x,1/2+z
-y,x-y,z
-x,-y,1/2+z
-x+y,-x,z
y,-x+y,1/2+z
x-y,-y,-z
-x,-x+y,-z
y,x,-z
-y,-x,1/2-z
-x+y,y,1/2-z
x,x-y,1/2-z
-x,-y,-z
-x+y,-x,1/2-z
y,-x+y,-z
x,y,1/2-z
x-y,x,-z
-y,x-y,1/2-z
-x+y,y,z
x,x-y,z
-y,-x,z
y,x,1/2+z
x-y,-y,1/2+z
-x,-x+y,1/2+z
loop_
_atom_site_type_symbol
_atom_site_label
_atom_site_fract_x
_atom_site_fract_y
_atom_site_fract_z
Si Si1 0.545614 0.333422 0.823727
Si Si2 0.706255 0.170118 0.322264
Si Si3 0.794028 0.958285 0.438739
Si Si4 0.335937 0.229481 0.521598
Si Si5 0.833212 0.787777 0.176219
Si Si6 0.333721 0.789544 0.940692
Si Si7 0.660860 0.768883 0.624112
Si Si8 0.293381 0.829882 0.061210
O O1 0.524226 0.333336 0.750000
O O2 0.558889 0.279445 0.835257
O O3 0.606290 0.393711 0.840401
O O4 0.493725 0.328228 0.871854
O O5 0.677553 0.157995 0.250000
O O6 0.769893 0.230108 0.322809
O O7 0.662438 0.176878 0.372965
O O8 0.715673 0.114620 0.342793
O O9 0.803004 0.901502 0.443830
O O10 0.723633 0.938867 0.438898
O O11 0.827657 0.000000 0.500000
O O12 0.823018 0.992107 0.371639
O O13 0.341450 0.170725 0.516696
O O14 0.331535 0.250229 0.448570
O O15 0.395618 0.281955 0.556807
O O16 0.829800 0.806623 0.250000
O O17 0.897870 0.795740 0.160332
O O18 0.781804 0.718693 0.166131
O O19 0.391774 0.783548 0.948767
O O20 0.276604 0.723397 0.942275
O O21 0.331579 0.829938 0.999265
O O22 0.654637 0.827319 0.620608
O O23 0.230554 0.769447 0.060894
#
# Coordination Sequence:
#
# PCOD8330332 Si02
#       8
#    24  24  24  24  24  24  24  24
#     4   9  16  25  38  57  83 117 158 202 244 286
#     4   9  16  25  38  57  82 114 152 195 242 287
#     4  11  21  34  54  78 105 134 162 191 224 266
#     4   9  16  28  47  69  92 119 151 189 235 283
#     4  10  20  34  54  80 107 133 161 191 222 259
#     4  10  18  26  36  52  79 118 161 201 239 285
#     4   9  14  26  47  70  93 117 150 193 237 277
#     4   9  16  27  41  58  82 113 150 193 243 293
#
# _framework density 16.309922
#
# number of rings (size 3 to 8) (size 9 to 14) (size 15 to 20)
#    0.000    2.500    2.500    1.375    0.000    2.500 
#    0.000    1.875    0.000    5.250    0.000    0.000 
#    0.000    9.000    0.000    1.750    0.000    0.000 
#
# Total GULP energy -2380081.560511 kJ/mol
# GULP energy per Si atom -12396.258128 kJ/mol
# Density = 1.627280 g / cm^3
# Si number density = 16.309922 Si / 1000 Ang^3
#
#
#
# Elastic Constant Matrix: (Units=GPa)
#
#
# Indices 1 2 3 4 5 6 
#
# 1 66.0373 39.2333 47.7074 0.0000 0.0000 0.0000
# 2 39.2333 66.0373 47.7074 0.0000 0.0000 0.0000
# 3 47.7074 47.7074 133.6324 0.0000 0.0000 0.0000
# 4 0.0000 0.0000 0.0000 23.0773 0.0000 0.0000
# 5 0.0000 0.0000 0.0000 0.0000 23.0773 0.0000
# 6 0.0000 0.0000 0.0000 0.0000 0.0000 13.4020
#
#
#
# Elastic Compliance Matrix: (Units=1/GPa)
#
#
# Indices 1 2 3 4 5 6 
#
# 1 0.025676 -0.011632 -0.005014 0.000000 0.000000 0.000000
# 2 -0.011632 0.025676 -0.005014 0.000000 0.000000 0.000000
# 3 -0.005014 -0.005014 0.011063 0.000000 0.000000 0.000000
# 4 0.000000 0.000000 0.000000 0.043333 0.000000 0.000000
# 5 0.000000 0.000000 0.000000 0.000000 0.043333 0.000000
# 6 0.000000 0.000000 0.000000 0.000000 0.000000 0.074616
#
#
# Mechanical properties :
#
#
# Convention : Reuss Voigt Hill
#
# Bulk Modulus (GPa) = 52.36802 59.44479 55.90640
# Shear Modulus (GPa) = 18.28959 20.64856 19.46907
#
# Velocity S-wave (km/s) = 3.35233 3.56197 3.45874
# Velocity P-wave (km/s) = 6.86746 7.31047 7.09242
#
# Compressibility (1/GPa) = 0.01909563
#
# Stress axis : x y z
#
# Youngs Moduli (GPa) = 38.94730 38.94730 90.39158
#
# Poissons Ratio (x) = 0.45304 0.45319
# Poissons Ratio (y) = 0.45304 0.45319
# Poissons Ratio (z) = 0.19527 0.19527
#
# Static dielectric constant tensor:
#      x y z
#    x 2.894280 0.000000 0.000000 
#    y 0.000000 2.894280 0.000000 
#    z 0.000000 0.000000 3.304030 
# 
# 
# High freq. dielectric constant tensor:
#      x y z
#    x 1.595950 0.000000 0.000000 
#    y 0.000000 1.595950 0.000000 
#    z 0.000000 0.000000 1.638670 
# 
# From -- ./inp_files/8700.got.cif
#   From: 2010.03.12/outbox.cif.g09.slc.cpg/sg194_5_cif.got.tgz:8700.got - 2010.04.01 12:26:19.
