data_PCOD8330050
_publ_section_title
;
Structure prediction by ZEFSAII (Michael W. Deem and Ramdas Pophale) SiO2 
 PCOD8330050
Probable space group: P 63/M C M
;
_chemical_formula_sum "Si O2"
_cell_formula_units_Z 96
_cell_length_a 27.949653
_cell_length_b 27.949653
_cell_length_c 8.589225
_cell_angle_alpha 90.000000
_cell_angle_beta 90.000000
_cell_angle_gamma 120.000000
_cell_volume 5810.820393
_symmetry_space_group_name_H-M "P 63/M C M"
_symmetry_group_IT_number 193
_symmetry_cell_setting 'hexagonal'
loop_
_space_group_symop_operation_xyz
x,y,z
x-y,x,1/2+z
-y,x-y,z
-x,-y,1/2+z
-x+y,-x,z
y,-x+y,1/2+z
x-y,-y,1/2-z
-x,-x+y,1/2-z
y,x,1/2-z
-y,-x,-z
-x+y,y,-z
x,x-y,-z
-x,-y,-z
-x+y,-x,1/2-z
y,-x+y,-z
x,y,1/2-z
x-y,x,-z
-y,x-y,1/2-z
-x+y,y,1/2+z
x,x-y,1/2+z
-y,-x,1/2+z
y,x,z
x-y,-y,z
-x,-x+y,z
loop_
_atom_site_type_symbol
_atom_site_label
_atom_site_fract_x
_atom_site_fract_y
_atom_site_fract_z
Si Si1 0.397305 0.397305 0.931558
Si Si2 0.823773 0.550804 0.429247
Si Si3 0.896637 0.397755 0.570019
Si Si4 0.783922 0.669476 0.433312
Si Si5 0.707645 0.707645 0.932997
O O1 0.384490 0.384490 0.750000
O O2 0.402385 0.455229 0.972464
O O3 0.348379 0.348379 0.026773
O O4 0.762270 0.524539 0.500000
O O5 0.823495 0.566968 0.250000
O O6 0.843540 0.506437 0.448991
O O7 0.865236 0.606514 0.519702
O O8 0.878738 0.439369 0.500000
O O9 0.914243 0.411267 0.750000
O O10 0.844800 0.689599 0.500000
O O11 0.787359 0.674677 0.250000
O O12 0.761316 0.707991 0.499593
O O13 0.712812 0.712812 0.750000
#
# Coordination Sequence:
#
# PCOD8330050 Si02
#       5
#    12  24  24  24  12
#     4  12  23  35  52  74 101 136 172 207 255 309
#     4  10  20  34  53  74  98 126 160 205 252 303
#     4  11  23  37  53  73 101 132 165 207 256 310
#     4  11  21  34  53  77 104 138 176 213 255 301
#     4  12  22  35  53  76 108 142 178 219 258 301
#
# _framework density 16.520903000000001
#
# number of rings (size 3 to 8) (size 9 to 14) (size 15 to 20)
#    0.000    1.000    2.500    7.875    0.000    3.000 
#    0.000    0.000    0.000    0.500    0.000    0.000 
#    0.000    0.000    0.000    0.375    0.000    5.250 
#
# Total GULP energy -1190857.790857 kJ/mol
# GULP energy per Si atom -12404.768655 kJ/mol
# Density = 1.648330 g / cm^3
# Si number density = 16.520903 Si / 1000 Ang^3
#
#
#
# Elastic Constant Matrix: (Units=GPa)
#
#
# Indices 1 2 3 4 5 6 
#
# 1 96.3321 60.8287 48.3199 0.0000 0.0000 0.0000
# 2 60.8287 96.3321 48.3199 0.0000 0.0000 0.0000
# 3 48.3199 48.3199 148.3088 0.0000 0.0000 0.0000
# 4 0.0000 0.0000 0.0000 28.0319 0.0000 0.0000
# 5 0.0000 0.0000 0.0000 0.0000 28.0319 0.0000
# 6 0.0000 0.0000 0.0000 0.0000 0.0000 17.7517
#
#
#
# Elastic Compliance Matrix: (Units=1/GPa)
#
#
# Indices 1 2 3 4 5 6 
#
# 1 0.018062 -0.010105 -0.002592 0.000000 0.000000 0.000000
# 2 -0.010105 0.018062 -0.002592 0.000000 0.000000 0.000000
# 3 -0.002592 -0.002592 0.008432 0.000000 0.000000 0.000000
# 4 0.000000 0.000000 0.000000 0.035674 0.000000 0.000000
# 5 0.000000 0.000000 0.000000 0.000000 0.035674 0.000000
# 6 0.000000 0.000000 0.000000 0.000000 0.000000 0.056333
#
#
# Mechanical properties :
#
#
# Convention : Reuss Voigt Hill
#
# Bulk Modulus (GPa) = 71.55003 72.87887 72.21445
# Shear Modulus (GPa) = 24.09950 26.99672 25.54811
#
# Velocity S-wave (km/s) = 3.82347 4.04678 3.93671
# Velocity P-wave (km/s) = 7.93062 8.12675 8.02929
#
# Compressibility (1/GPa) = 0.01397623
#
# Stress axis : x y z
#
# Youngs Moduli (GPa) = 55.36584 55.36584 118.59642
#
# Poissons Ratio (x) = 0.55945 0.30746
# Poissons Ratio (y) = 0.55945 0.30746
# Poissons Ratio (z) = 0.14353 0.14353
#
# Static dielectric constant tensor:
#      x y z
#    x 3.154770 0.000000 0.000000 
#    y 0.000000 3.154770 0.000000 
#    z 0.000000 0.000000 3.333170 
# 
# 
# High freq. dielectric constant tensor:
#      x y z
#    x 1.618020 0.000000 0.000000 
#    y 0.000000 1.618020 0.000000 
#    z 0.000000 0.000000 1.663310 
# 
# From -- ./inp_files/1271.got.cif
#   From: 2010.03.12/outbox.cif.g09.slc.cpg/sg193_1_cif.got.tgz:1271.got - 2010.04.01 12:20:39.
