data_PCOD8330916
_publ_section_title
;
Structure prediction by ZEFSAII (Michael W. Deem and Ramdas Pophale) SiO2 
 PCOD8330916
Probable space group: P N 3
;
_chemical_formula_sum "Si O2"
_cell_formula_units_Z 72
_cell_length_a 15.824098
_cell_length_b 15.824098
_cell_length_c 15.824098
_cell_angle_alpha 90.000000
_cell_angle_beta 90.000000
_cell_angle_gamma 90.000000
_cell_volume 3962.387014
_symmetry_space_group_name_H-M "P N 3"
_symmetry_group_IT_number 201
_space_group.IT_coordinate_system_code '2'
_symmetry_cell_setting 'cubic'
loop_
_space_group_symop_operation_xyz
x,y,z
z,x,y
y,z,x
1/2-y,1/2-z,x
z,1/2-x,1/2-y
1/2-y,z,1/2-x
1/2-z,1/2-x,y
1/2-z,x,1/2-y
y,1/2-z,1/2-x
1/2-x,1/2-y,z
x,1/2-y,1/2-z
1/2-x,y,1/2-z
-x,-y,-z
-z,-x,-y
-y,-z,-x
1/2+y,1/2+z,-x
-z,1/2+x,1/2+y
1/2+y,-z,1/2+x
1/2+z,1/2+x,-y
1/2+z,-x,1/2+y
-y,1/2+z,1/2+x
1/2+x,1/2+y,-z
-x,1/2+y,1/2+z
1/2+x,-y,1/2+z
loop_
_atom_site_type_symbol
_atom_site_label
_atom_site_fract_x
_atom_site_fract_y
_atom_site_fract_z
Si Si1 0.689744 0.556965 0.075902
Si Si2 0.859997 0.000000 0.359997
Si Si3 0.189744 0.924098 0.056965
O O1 0.774309 0.555346 0.133326
O O2 0.620540 0.500000 0.120540
O O3 0.652624 0.652623 0.067623
O O4 0.706858 0.517521 0.982479
O O5 0.863795 0.061976 0.438024
O O6 0.866674 0.055346 0.274310
#
# Coordination Sequence:
#
# PCOD8330916 Si02
#       3
#    24  24  24
#     4   9  17  30  48  69  92 119 153 192 233 279
#     4  10  20  32  46  66  94 126 158 194 236 280
#     4   9  17  30  48  69  92 119 153 192 233 279
#
# _framework density 18.170864999999999
#
# number of rings (size 3 to 8) (size 9 to 14) (size 15 to 20)
#    0.000    2.667    0.000    2.000    0.000    4.000 
#    0.000    0.000    0.000   12.000    0.000    0.000 
#    0.000    0.000    0.000   41.333    0.000    0.000 
#
# Total GULP energy -892104.098618 kJ/mol
# GULP energy per Si atom -12390.334703 kJ/mol
# Density = 1.812951 g / cm^3
# Si number density = 18.170865 Si / 1000 Ang^3
#
#
#
# Elastic Constant Matrix: (Units=GPa)
#
#
# Indices 1 2 3 4 5 6 
#
# 1 79.4064 48.6213 48.6213 0.0000 0.0000 0.0000
# 2 48.6213 79.4064 48.6213 0.0000 0.0000 0.0000
# 3 48.6213 48.6213 79.4064 0.0000 0.0000 0.0000
# 4 0.0000 0.0000 0.0000 39.0039 0.0000 0.0000
# 5 0.0000 0.0000 0.0000 0.0000 39.0039 0.0000
# 6 0.0000 0.0000 0.0000 0.0000 0.0000 39.0039
#
#
#
# Elastic Compliance Matrix: (Units=1/GPa)
#
#
# Indices 1 2 3 4 5 6 
#
# 1 0.023542 -0.008941 -0.008941 0.000000 0.000000 0.000000
# 2 -0.008941 0.023542 -0.008941 0.000000 0.000000 0.000000
# 3 -0.008941 -0.008941 0.023542 0.000000 0.000000 0.000000
# 4 0.000000 0.000000 0.000000 0.025638 0.000000 0.000000
# 5 0.000000 0.000000 0.000000 0.000000 0.025638 0.000000
# 6 0.000000 0.000000 0.000000 0.000000 0.000000 0.025638
#
#
# Mechanical properties :
#
#
# Convention : Reuss Voigt Hill
#
# Bulk Modulus (GPa) = 58.88300 58.88300 58.88300
# Shear Modulus (GPa) = 24.17230 29.55939 26.86585
#
# Velocity S-wave (km/s) = 3.65125 4.03767 3.84931
# Velocity P-wave (km/s) = 7.08880 7.36292 7.22716
#
# Compressibility (1/GPa) = 0.01698283
#
# Stress axis : x y z
#
# Youngs Moduli (GPa) = 42.47640 42.47640 42.47640
#
# Poissons Ratio (x) = 0.37977 0.37977
# Poissons Ratio (y) = 0.37977 0.37977
# Poissons Ratio (z) = 0.37977 0.37977
#
# Static dielectric constant tensor:
#      x y z
#    x 3.445830 0.000000 0.000000 
#    y 0.000000 3.445830 0.000000 
#    z 0.000000 0.000000 3.445830 
# 
# 
# High freq. dielectric constant tensor:
#      x y z
#    x 1.690720 0.000000 0.000000 
#    y 0.000000 1.690720 0.000000 
#    z 0.000000 0.000000 1.690720 
# 
# From -- ./inp_files/365.got.cif
#   From: 2010.03.12/outbox.cif.g09.slc.cpg/sg201_cif.got.tgz:365.got - 2010.03.30 09:02:05.
