data_PCOD8330534
_publ_section_title
;
Structure prediction by ZEFSAII (Michael W. Deem and Ramdas Pophale) SiO2 
 PCOD8330534
Probable space group: P 63/M M C
;
_chemical_formula_sum "Si O2"
_cell_formula_units_Z 168
_cell_length_a 17.940445
_cell_length_b 17.940445
_cell_length_c 32.828728
_cell_angle_alpha 90.000000
_cell_angle_beta 90.000000
_cell_angle_gamma 120.000000
_cell_volume 9150.632412
_symmetry_space_group_name_H-M "P 63/M M C"
_symmetry_group_IT_number 194
_symmetry_cell_setting 'hexagonal'
loop_
_space_group_symop_operation_xyz
x,y,z
x-y,x,1/2+z
-y,x-y,z
-x,-y,1/2+z
-x+y,-x,z
y,-x+y,1/2+z
x-y,-y,-z
-x,-x+y,-z
y,x,-z
-y,-x,1/2-z
-x+y,y,1/2-z
x,x-y,1/2-z
-x,-y,-z
-x+y,-x,1/2-z
y,-x+y,-z
x,y,1/2-z
x-y,x,-z
-y,x-y,1/2-z
-x+y,y,z
x,x-y,z
-y,-x,z
y,x,1/2+z
x-y,-y,1/2+z
-x,-x+y,1/2+z
loop_
_atom_site_type_symbol
_atom_site_label
_atom_site_fract_x
_atom_site_fract_y
_atom_site_fract_z
Si Si1 0.504541 0.668206 0.661338
Si Si2 0.367738 0.904197 0.422786
Si Si3 0.668500 0.506726 0.664885
Si Si4 0.336848 0.338609 0.797873
Si Si5 0.467459 0.101602 0.073666
Si Si6 0.831405 0.999854 0.298496
Si Si7 0.900812 0.262998 0.501308
O O1 0.507897 0.753949 0.678407
O O2 0.413457 0.586544 0.672993
O O3 0.577987 0.655701 0.681461
O O4 0.516754 0.677880 0.612662
O O5 0.441736 0.883472 0.436542
O O6 0.319609 0.851246 0.382713
O O7 0.301268 0.878754 0.459481
O O8 0.408488 0.003915 0.411479
O O9 0.746633 0.493265 0.678759
O O10 0.579686 0.420315 0.673209
O O11 0.670094 0.580860 0.692293
O O12 0.330119 0.347578 0.750000
O O13 0.252039 0.254108 0.814647
O O14 0.557657 0.115313 0.056322
O O15 0.422214 0.124967 0.038216
O O16 0.832351 0.998506 0.250000
O O17 0.916371 0.083630 0.315329
O O18 0.829596 0.914798 0.315854
O O19 0.840491 0.159510 0.502345
O O20 0.000000 0.287014 0.500000
#
# Coordination Sequence:
#
# PCOD8330534 Si02
#       7
#    24  24  24  24  24  24  24
#     4  11  22  37  56  79 108 141 180 224 272 323
#     4   9  17  32  54  80 108 140 173 210 259 317
#     4  11  22  37  56  79 108 141 180 224 272 323
#     4  11  23  39  57  76 101 139 183 227 273 328
#     4   9  17  32  54  80 108 140 173 210 259 317
#     4   9  17  31  53  81 108 131 159 202 260 322
#     4  10  19  31  51  80 111 143 180 220 259 305
#
# _framework density 18.359386000000001
#
# number of rings (size 3 to 8) (size 9 to 14) (size 15 to 20)
#    0.000    2.000    1.429    3.000    0.000    5.143 
#    0.000    0.000    0.000    5.857    0.000    0.000 
#    0.000    0.000    0.000    0.000    0.000    0.000 
#
# Total GULP energy -2083389.901553 kJ/mol
# GULP energy per Si atom -12401.130366 kJ/mol
# Density = 1.831760 g / cm^3
# Si number density = 18.359386 Si / 1000 Ang^3
#
#
#
# Elastic Constant Matrix: (Units=GPa)
#
#
# Indices 1 2 3 4 5 6 
#
# 1 105.0812 39.7787 18.1371 0.0000 0.0000 0.0000
# 2 39.7787 105.0812 18.1371 0.0000 0.0000 0.0000
# 3 18.1371 18.1371 39.6710 0.0000 0.0000 0.0000
# 4 0.0000 0.0000 0.0000 18.9122 0.0000 0.0000
# 5 0.0000 0.0000 0.0000 0.0000 18.9122 0.0000
# 6 0.0000 0.0000 0.0000 0.0000 0.0000 32.6512
#
#
#
# Elastic Compliance Matrix: (Units=1/GPa)
#
#
# Indices 1 2 3 4 5 6 
#
# 1 0.011555 -0.003759 -0.003564 0.000000 0.000000 0.000000
# 2 -0.003759 0.011555 -0.003564 0.000000 0.000000 0.000000
# 3 -0.003564 -0.003564 0.028466 0.000000 0.000000 0.000000
# 4 0.000000 0.000000 0.000000 0.052876 0.000000 0.000000
# 5 0.000000 0.000000 0.000000 0.000000 0.052876 0.000000
# 6 0.000000 0.000000 0.000000 0.000000 0.000000 0.030627
#
#
# Mechanical properties :
#
#
# Convention : Reuss Voigt Hill
#
# Bulk Modulus (GPa) = 33.55567 44.65992 39.10779
# Shear Modulus (GPa) = 22.76230 25.68050 24.22140
#
# Velocity S-wave (km/s) = 3.52492 3.74407 3.63615
# Velocity P-wave (km/s) = 5.90623 6.56269 6.24310
#
# Compressibility (1/GPa) = 0.02980123
#
# Stress axis : x y z
#
# Youngs Moduli (GPa) = 86.54612 86.54612 35.12933
#
# Poissons Ratio (x) = 0.32531 0.12520
# Poissons Ratio (y) = 0.32531 0.12520
# Poissons Ratio (z) = 0.30846 0.30846
#
# Static dielectric constant tensor:
#      x y z
#    x 3.385520 0.000000 0.000000 
#    y 0.000000 3.385520 0.000000 
#    z 0.000000 0.000000 3.218780 
# 
# 
# High freq. dielectric constant tensor:
#      x y z
#    x 1.713280 0.000000 0.000000 
#    y 0.000000 1.713280 0.000000 
#    z 0.000000 0.000000 1.694530 
# 
# From -- ./inp_files/12302.got.cif
#   From: 2010.03.12/outbox.cif.g09.slc.cpg/sg194_7_cif.got.tgz:12302.got - 2010.04.01 12:26:19.
