data_PCOD8330879
_publ_section_title
;
Structure prediction by ZEFSAII (Michael W. Deem and Ramdas Pophale) SiO2 
 PCOD8330879
Probable space group: I 2 3
;
_chemical_formula_sum "Si O2"
_cell_formula_units_Z 120
_cell_length_a 17.476733
_cell_length_b 17.476733
_cell_length_c 17.476733
_cell_angle_alpha 90.000000
_cell_angle_beta 90.000000
_cell_angle_gamma 90.000000
_cell_volume 5338.026852
_symmetry_space_group_name_H-M "I 2 3"
_symmetry_group_IT_number 197
_symmetry_cell_setting 'cubic'
loop_
_space_group_symop_operation_xyz
x,y,z
z,x,y
y,z,x
-y,-z,x
z,-x,-y
-y,z,-x
-z,-x,y
-z,x,-y
y,-z,-x
-x,-y,z
x,-y,-z
-x,y,-z
1/2+x,1/2+y,1/2+z
1/2+z,1/2+x,1/2+y
1/2+y,1/2+z,1/2+x
1/2-y,1/2-z,1/2+x
1/2+z,1/2-x,1/2-y
1/2-y,1/2+z,1/2-x
1/2-z,1/2-x,1/2+y
1/2-z,1/2+x,1/2-y
1/2+y,1/2-z,1/2-x
1/2-x,1/2-y,1/2+z
1/2+x,1/2-y,1/2-z
1/2-x,1/2+y,1/2-z
loop_
_atom_site_type_symbol
_atom_site_label
_atom_site_fract_x
_atom_site_fract_y
_atom_site_fract_z
Si Si1 0.460823 0.326828 0.782136
Si Si2 0.421034 0.915996 0.033146
Si Si3 0.047785 0.073697 0.823264
Si Si4 0.707677 0.073981 0.549379
Si Si5 0.677804 0.566462 0.815491
O O1 0.520557 0.396753 0.760206
O O2 0.492362 0.282898 0.855219
O O3 0.451178 0.265683 0.715138
O O4 0.379644 0.363155 0.803455
O O5 0.432098 0.916817 0.123202
O O6 0.500000 0.880006 0.000000
O O7 0.347100 0.866222 0.008730
O O8 0.409031 0.000000 0.000000
O O9 0.131099 0.039980 0.844289
O O10 0.000000 0.000000 0.850106
O O11 0.761132 0.090798 0.621274
O O12 0.730107 0.000000 0.500000
#
# Coordination Sequence:
#
# PCOD8330879 Si02
#       5
#    24  24  24  24  24
#     4  12  28  47  72 108 156 200 244 321 388 450
#     4  11  22  47  82 112 141 187 258 323 376 450
#     4  10  23  41  72 111 143 195 249 300 367 457
#     4  12  28  47  79 110 142 198 264 317 389 461
#     4  12  29  47  74 107 155 196 249 317 388 460
#
# _framework density 22.480215999999999
#
# number of rings (size 3 to 8) (size 9 to 14) (size 15 to 20)
#    0.400    0.200    4.000    2.600   14.000    0.000 
#    0.000    0.000    0.000    0.000    0.000    0.000 
#    0.000    0.000    0.000    0.000    0.000    0.000 
#
# Total GULP energy -743289.156638 kJ/mol
# GULP energy per Si atom -12388.152611 kJ/mol
# Density = 2.242905 g / cm^3
# Si number density = 22.480216 Si / 1000 Ang^3
#
#
#
# Elastic Constant Matrix: (Units=GPa)
#
#
# Indices 1 2 3 4 5 6 
#
# 1 114.2320 50.6218 50.6218 0.0000 0.0000 0.0000
# 2 50.6218 114.2320 50.6218 0.0000 0.0000 0.0000
# 3 50.6218 50.6218 114.2320 0.0000 0.0000 0.0000
# 4 0.0000 0.0000 0.0000 41.1307 0.0000 0.0000
# 5 0.0000 0.0000 0.0000 0.0000 41.1307 0.0000
# 6 0.0000 0.0000 0.0000 0.0000 0.0000 41.1307
#
#
#
# Elastic Compliance Matrix: (Units=1/GPa)
#
#
# Indices 1 2 3 4 5 6 
#
# 1 0.012027 -0.003693 -0.003693 0.000000 0.000000 0.000000
# 2 -0.003693 0.012027 -0.003693 0.000000 0.000000 0.000000
# 3 -0.003693 -0.003693 0.012027 0.000000 0.000000 0.000000
# 4 0.000000 0.000000 0.000000 0.024313 0.000000 0.000000
# 5 0.000000 0.000000 0.000000 0.000000 0.024313 0.000000
# 6 0.000000 0.000000 0.000000 0.000000 0.000000 0.024313
#
#
# Mechanical properties :
#
#
# Convention : Reuss Voigt Hill
#
# Bulk Modulus (GPa) = 71.82515 71.82515 71.82515
# Shear Modulus (GPa) = 36.81309 37.40044 37.10676
#
# Velocity S-wave (km/s) = 4.05109 4.08328 4.06722
# Velocity P-wave (km/s) = 7.34176 7.36550 7.35364
#
# Compressibility (1/GPa) = 0.01392270
#
# Stress axis : x y z
#
# Youngs Moduli (GPa) = 83.14304 83.14304 83.14304
#
# Poissons Ratio (x) = 0.30707 0.30707
# Poissons Ratio (y) = 0.30707 0.30707
# Poissons Ratio (z) = 0.30707 0.30707
#
# Static dielectric constant tensor:
#      x y z
#    x 4.240900 0.000000 0.000000 
#    y 0.000000 4.240900 0.000000 
#    z 0.000000 0.000000 4.240900 
# 
# 
# High freq. dielectric constant tensor:
#      x y z
#    x 1.892960 0.000000 0.000000 
#    y 0.000000 1.892960 0.000000 
#    z 0.000000 0.000000 1.892960 
# 
# From -- ./inp_files/596.got.cif
#   From: 2010.03.12/outbox.cif.g09.slc.cpg/sg197_cif.got.tgz:596.got - 2010.04.01 12:33:32.
