data_PCOD8330629
_publ_section_title
;
Structure prediction by ZEFSAII (Michael W. Deem and Ramdas Pophale) SiO2 
 PCOD8330629
Probable space group: P 63/M M C
;
_chemical_formula_sum "Si O2"
_cell_formula_units_Z 144
_cell_length_a 20.187174
_cell_length_b 20.187174
_cell_length_c 20.727245
_cell_angle_alpha 90.000000
_cell_angle_beta 90.000000
_cell_angle_gamma 120.000000
_cell_volume 7315.150495
_symmetry_space_group_name_H-M "P 63/M M C"
_symmetry_group_IT_number 194
_symmetry_cell_setting 'hexagonal'
loop_
_space_group_symop_operation_xyz
x,y,z
x-y,x,1/2+z
-y,x-y,z
-x,-y,1/2+z
-x+y,-x,z
y,-x+y,1/2+z
x-y,-y,-z
-x,-x+y,-z
y,x,-z
-y,-x,1/2-z
-x+y,y,1/2-z
x,x-y,1/2-z
-x,-y,-z
-x+y,-x,1/2-z
y,-x+y,-z
x,y,1/2-z
x-y,x,-z
-y,x-y,1/2-z
-x+y,y,z
x,x-y,z
-y,-x,z
y,x,1/2+z
x-y,-y,1/2+z
-x,-x+y,1/2+z
loop_
_atom_site_type_symbol
_atom_site_label
_atom_site_fract_x
_atom_site_fract_y
_atom_site_fract_z
Si Si1 0.503848 0.865649 0.250000
Si Si2 0.211137 0.944823 0.250000
Si Si3 0.661249 0.606925 0.113325
Si Si4 0.372076 0.391711 0.750000
Si Si5 0.887712 0.365516 0.612007
Si Si6 0.000000 0.847464 0.500000
Si Si7 0.485928 0.667724 0.522836
Si Si8 0.960307 0.764911 0.125575
O O1 0.411776 0.823551 0.250000
O O2 0.528661 0.847705 0.179650
O O3 0.538110 0.958071 0.250000
O O4 0.145964 0.854037 0.250000
O O5 0.298193 0.961771 0.250000
O O6 0.200766 0.985033 0.312932
O O7 0.650469 0.577008 0.187393
O O8 0.600382 0.634205 0.098197
O O9 0.648728 0.540923 0.064517
O O10 0.746935 0.676546 0.109546
O O11 0.905130 0.452565 0.617905
O O12 0.832135 0.323048 0.552432
O O13 0.928767 0.857534 0.487974
O O14 0.011157 0.809168 0.436325
O O15 0.492238 0.746119 0.546916
O O16 0.399809 0.600192 0.532594
O O17 0.887917 0.775833 0.137051
#
# Coordination Sequence:
#
# PCOD8330629 Si02
#       8
#    12  12  24  12  24  12  24  24
#     4   8  14  30  53  78 106 136 169 211 269 330
#     4  10  19  35  56  76 105 146 183 222 275 329
#     4  10  19  35  57  83 109 142 179 227 288 342
#     4   8  18  33  53  82 112 136 174 221 276 335
#     4   9  18  33  56  82 109 140 181 231 276 334
#     4  10  21  36  52  72 101 140 178 218 266 322
#     4  11  23  38  55  78 111 152 194 236 283 338
#     4  10  21  35  53  79 109 140 179 227 274 324
#
# _framework density 19.685172000000001
#
# number of rings (size 3 to 8) (size 9 to 14) (size 15 to 20)
#    0.000    2.333    0.000    2.500    2.333    2.000 
#    0.000    9.167    0.000    2.333    0.000    2.333 
#    0.000    0.000    0.000    0.250    0.000    0.000 
#
# Total GULP energy -1784098.202547 kJ/mol
# GULP energy per Si atom -12389.570851 kJ/mol
# Density = 1.964037 g / cm^3
# Si number density = 19.685172 Si / 1000 Ang^3
#
#
#
# Elastic Constant Matrix: (Units=GPa)
#
#
# Indices 1 2 3 4 5 6 
#
# 1 52.2733 11.1373 24.4231 0.0000 0.0000 0.0000
# 2 11.1373 52.2733 24.4231 0.0000 0.0000 0.0000
# 3 24.4231 24.4231 136.7460 0.0000 0.0000 0.0000
# 4 0.0000 0.0000 0.0000 24.1123 0.0000 0.0000
# 5 0.0000 0.0000 0.0000 0.0000 24.1123 0.0000
# 6 0.0000 0.0000 0.0000 0.0000 0.0000 20.5680
#
#
#
# Elastic Compliance Matrix: (Units=1/GPa)
#
#
# Indices 1 2 3 4 5 6 
#
# 1 0.021298 -0.003012 -0.003266 0.000000 0.000000 0.000000
# 2 -0.003012 0.021298 -0.003266 0.000000 0.000000 0.000000
# 3 -0.003266 -0.003266 0.008479 0.000000 0.000000 0.000000
# 4 0.000000 0.000000 0.000000 0.041473 0.000000 0.000000
# 5 0.000000 0.000000 0.000000 0.000000 0.041473 0.000000
# 6 0.000000 0.000000 0.000000 0.000000 0.000000 0.048619
#
#
# Mechanical properties :
#
#
# Convention : Reuss Voigt Hill
#
# Bulk Modulus (GPa) = 31.26190 40.13994 35.70092
# Shear Modulus (GPa) = 23.54170 25.84582 24.69376
#
# Velocity S-wave (km/s) = 3.46195 3.62741 3.54564
# Velocity P-wave (km/s) = 5.64761 6.16274 5.91079
#
# Compressibility (1/GPa) = 0.03198782
#
# Stress axis : x y z
#
# Youngs Moduli (GPa) = 46.95319 46.95319 117.93254
#
# Poissons Ratio (x) = 0.14141 0.38516
# Poissons Ratio (y) = 0.14141 0.38516
# Poissons Ratio (z) = 0.15335 0.15335
#
# Static dielectric constant tensor:
#      x y z
#    x 3.326870 0.000000 0.000000 
#    y 0.000000 3.326870 0.000000 
#    z 0.000000 0.000000 3.988270 
# 
# 
# High freq. dielectric constant tensor:
#      x y z
#    x 1.748360 0.000000 0.000000 
#    y 0.000000 1.748360 0.000000 
#    z 0.000000 0.000000 1.792620 
# 
# From -- ./inp_files/8354.got.cif
#   From: 2010.03.12/outbox.cif.g09.slc.cpg/sg194_5_cif.got.tgz:8354.got - 2010.04.01 12:26:19.
