data_PCOD8330669
_publ_section_title
;
Structure prediction by ZEFSAII (Michael W. Deem and Ramdas Pophale) SiO2 
 PCOD8330669
Probable space group: P 63/M M C
;
_chemical_formula_sum "Si O2"
_cell_formula_units_Z 192
_cell_length_a 23.655873
_cell_length_b 23.655873
_cell_length_c 22.315959
_cell_angle_alpha 90.000000
_cell_angle_beta 90.000000
_cell_angle_gamma 120.000000
_cell_volume 10814.940798
_symmetry_space_group_name_H-M "P 63/M M C"
_symmetry_group_IT_number 194
_symmetry_cell_setting 'hexagonal'
loop_
_space_group_symop_operation_xyz
x,y,z
x-y,x,1/2+z
-y,x-y,z
-x,-y,1/2+z
-x+y,-x,z
y,-x+y,1/2+z
x-y,-y,-z
-x,-x+y,-z
y,x,-z
-y,-x,1/2-z
-x+y,y,1/2-z
x,x-y,1/2-z
-x,-y,-z
-x+y,-x,1/2-z
y,-x+y,-z
x,y,1/2-z
x-y,x,-z
-y,x-y,1/2-z
-x+y,y,z
x,x-y,z
-y,-x,z
y,x,1/2+z
x-y,-y,1/2+z
-x,-x+y,1/2+z
loop_
_atom_site_type_symbol
_atom_site_label
_atom_site_fract_x
_atom_site_fract_y
_atom_site_fract_z
Si Si1 0.542873 0.210280 0.433311
Si Si2 0.948521 0.322575 0.125636
Si Si3 0.858818 0.364477 0.183423
Si Si4 0.404958 0.138103 0.484441
Si Si5 0.929395 0.732774 0.180087
Si Si6 0.799254 0.466186 0.679543
Si Si7 0.072211 0.268035 0.180501
Si Si8 0.100056 0.704241 0.379884
O O1 0.593837 0.187673 0.451132
O O2 0.573332 0.286666 0.446372
O O3 0.525875 0.201078 0.362217
O O4 0.481798 0.168791 0.475421
O O5 0.920312 0.365116 0.153633
O O6 0.922776 0.259945 0.168819
O O7 0.024637 0.374617 0.124928
O O8 0.924072 0.293215 0.059200
O O9 0.841058 0.332455 0.250000
O O10 0.878817 0.439409 0.187792
O O11 0.383638 0.191819 0.468860
O O12 0.389303 0.116622 0.552255
O O13 0.927442 0.744176 0.250000
O O14 0.869692 0.739384 0.150419
O O15 0.001120 0.784305 0.152326
O O16 0.812964 0.478672 0.750000
O O17 0.727217 0.454434 0.663751
O O18 0.802879 0.401440 0.660271
O O19 0.853875 0.531040 0.645344
O O20 0.061717 0.275405 0.250000
O O21 0.118871 0.237742 0.168931
O O22 0.108432 0.341499 0.155394
#
# Coordination Sequence:
#
# PCOD8330669 Si02
#       8
#    24  24  24  24  24  24  24  24
#     4   9  18  32  49  68  90 119 156 199 246 293
#     4  10  20  33  49  70  98 131 162 198 244 289
#     4   9  18  32  48  67  93 124 158 195 237 290
#     4  10  20  34  50  68  94 128 163 198 240 290
#     4   9  17  29  47  72  99 126 159 197 234 278
#     4  10  21  37  56  77 101 128 160 202 252 302
#     4   9  17  30  49  72  98 127 157 193 239 285
#     4  11  21  33  51  75  99 125 163 205 245 292
#
# _framework density 17.753218
#
# number of rings (size 3 to 8) (size 9 to 14) (size 15 to 20)
#    0.000    2.375    0.000    2.875    0.000    4.750 
#    0.000    1.250    0.000    6.250    0.000    1.750 
#    0.000    0.000    0.000    0.000    0.000   26.000 
#
# Total GULP energy -2378956.856753 kJ/mol
# GULP energy per Si atom -12390.400296 kJ/mol
# Density = 1.771281 g / cm^3
# Si number density = 17.753218 Si / 1000 Ang^3
#
#
#
# Elastic Constant Matrix: (Units=GPa)
#
#
# Indices 1 2 3 4 5 6 
#
# 1 91.7710 51.3892 18.8320 0.0000 0.0000 0.0000
# 2 51.3892 91.7710 18.8320 0.0000 0.0000 0.0000
# 3 18.8320 18.8320 37.3562 0.0000 0.0000 0.0000
# 4 0.0000 0.0000 0.0000 16.9659 0.0000 0.0000
# 5 0.0000 0.0000 0.0000 0.0000 16.9659 0.0000
# 6 0.0000 0.0000 0.0000 0.0000 0.0000 20.1909
#
#
#
# Elastic Compliance Matrix: (Units=1/GPa)
#
#
# Indices 1 2 3 4 5 6 
#
# 1 0.016408 -0.008355 -0.004060 0.000000 0.000000 0.000000
# 2 -0.008355 0.016408 -0.004060 0.000000 0.000000 0.000000
# 3 -0.004060 -0.004060 0.030863 0.000000 0.000000 0.000000
# 4 0.000000 0.000000 0.000000 0.058942 0.000000 0.000000
# 5 0.000000 0.000000 0.000000 0.000000 0.058942 0.000000
# 6 0.000000 0.000000 0.000000 0.000000 0.000000 0.049527
#
#
# Mechanical properties :
#
#
# Convention : Reuss Voigt Hill
#
# Bulk Modulus (GPa) = 32.54160 44.33385 38.43772
# Shear Modulus (GPa) = 18.22932 19.61420 18.92176
#
# Velocity S-wave (km/s) = 3.20788 3.32750 3.26823
# Velocity P-wave (km/s) = 5.66484 6.30789 5.99499
#
# Compressibility (1/GPa) = 0.03072989
#
# Stress axis : x y z
#
# Youngs Moduli (GPa) = 60.94415 60.94415 32.40164
#
# Poissons Ratio (x) = 0.50920 0.13154
# Poissons Ratio (y) = 0.50920 0.13154
# Poissons Ratio (z) = 0.24742 0.24742
#
# Static dielectric constant tensor:
#      x y z
#    x 3.410580 0.000000 0.000000 
#    y 0.000000 3.410580 0.000000 
#    z 0.000000 0.000000 3.250000 
# 
# 
# High freq. dielectric constant tensor:
#      x y z
#    x 1.683630 0.000000 0.000000 
#    y 0.000000 1.683630 0.000000 
#    z 0.000000 0.000000 1.679300 
# 
# From -- ./inp_files/8731.got.cif
#   From: 2010.03.12/outbox.cif.g09.slc.cpg/sg194_5_cif.got.tgz:8731.got - 2010.04.01 12:26:19.
