data_PCOD8330483
_publ_section_title
;
Structure prediction by ZEFSAII (Michael W. Deem and Ramdas Pophale) SiO2 
 PCOD8330483
Probable space group: P 63/M M C
;
_chemical_formula_sum "Si O2"
_cell_formula_units_Z 168
_cell_length_a 21.205831
_cell_length_b 21.205831
_cell_length_c 24.096887
_cell_angle_alpha 90.000000
_cell_angle_beta 90.000000
_cell_angle_gamma 120.000000
_cell_volume 9384.306088
_symmetry_space_group_name_H-M "P 63/M M C"
_symmetry_group_IT_number 194
_symmetry_cell_setting 'hexagonal'
loop_
_space_group_symop_operation_xyz
x,y,z
x-y,x,1/2+z
-y,x-y,z
-x,-y,1/2+z
-x+y,-x,z
y,-x+y,1/2+z
x-y,-y,-z
-x,-x+y,-z
y,x,-z
-y,-x,1/2-z
-x+y,y,1/2-z
x,x-y,1/2-z
-x,-y,-z
-x+y,-x,1/2-z
y,-x+y,-z
x,y,1/2-z
x-y,x,-z
-y,x-y,1/2-z
-x+y,y,z
x,x-y,z
-y,-x,z
y,x,1/2+z
x-y,-y,1/2+z
-x,-x+y,1/2+z
loop_
_atom_site_type_symbol
_atom_site_label
_atom_site_fract_x
_atom_site_fract_y
_atom_site_fract_z
Si Si1 0.142307 0.999449 0.563884
Si Si2 0.969518 0.708088 0.105943
Si Si3 0.411236 0.331924 0.014961
Si Si4 0.591625 0.869473 0.689139
Si Si5 0.333126 0.520505 0.186747
Si Si6 0.875111 0.604484 0.896915
Si Si7 0.664975 0.185556 0.401773
O O1 0.056892 0.943109 0.572512
O O2 0.187913 0.972546 0.599771
O O3 0.164147 0.000000 0.500000
O O4 0.158418 0.079209 0.582737
O O5 0.933675 0.658542 0.051278
O O6 0.922725 0.667693 0.159651
O O7 0.049923 0.724496 0.117946
O O8 0.485892 0.357190 0.047676
O O9 0.401254 0.401254 0.000000
O O10 0.417799 0.292721 0.960419
O O11 0.589060 0.900699 0.750000
O O12 0.585664 0.792832 0.696643
O O13 0.522433 0.857940 0.653324
O O14 0.331411 0.494333 0.250000
O O15 0.269908 0.539815 0.176878
O O16 0.408497 0.591504 0.172699
O O17 0.325219 0.458653 0.144522
O O18 0.811297 0.622594 0.887171
O O19 0.604951 0.209901 0.395431
O O20 0.743429 0.256572 0.412606
#
# Coordination Sequence:
#
# PCOD8330483 Si02
#       7
#    24  24  24  24  24  24  24
#     4  10  19  30  47  74 107 138 167 202 246 298
#     4  10  19  32  52  74  97 131 169 205 249 299
#     4   9  19  34  51  73 101 135 173 211 247 291
#     4   9  19  36  55  73  94 123 164 211 252 296
#     4   9  18  33  52  72  95 126 163 201 242 289
#     4  10  19  31  49  74 103 131 163 206 250 292
#     4  10  20  34  53  77 105 134 164 204 256 312
#
# _framework density 17.902228000000001
#
# number of rings (size 3 to 8) (size 9 to 14) (size 15 to 20)
#    0.000    2.429    0.000    3.000    0.000    5.714 
#    0.000    5.714    0.000    3.857    0.000    0.000 
#    0.000    1.143    0.000    0.000    0.000    0.000 
#
# Total GULP energy -2083124.460130 kJ/mol
# GULP energy per Si atom -12399.550358 kJ/mol
# Density = 1.786148 g / cm^3
# Si number density = 17.902228 Si / 1000 Ang^3
#
#
#
# Elastic Constant Matrix: (Units=GPa)
#
#
# Indices 1 2 3 4 5 6 
#
# 1 78.6769 23.5266 28.9204 0.0000 0.0000 0.0000
# 2 23.5266 78.6769 28.9204 0.0000 0.0000 0.0000
# 3 28.9204 28.9204 82.1503 0.0000 0.0000 0.0000
# 4 0.0000 0.0000 0.0000 17.8805 0.0000 0.0000
# 5 0.0000 0.0000 0.0000 0.0000 17.8805 0.0000
# 6 0.0000 0.0000 0.0000 0.0000 0.0000 27.5751
#
#
#
# Elastic Compliance Matrix: (Units=1/GPa)
#
#
# Indices 1 2 3 4 5 6 
#
# 1 0.015176 -0.002957 -0.004302 0.000000 0.000000 0.000000
# 2 -0.002957 0.015176 -0.004302 0.000000 0.000000 0.000000
# 3 -0.004302 -0.004302 0.015201 0.000000 0.000000 0.000000
# 4 0.000000 0.000000 0.000000 0.055927 0.000000 0.000000
# 5 0.000000 0.000000 0.000000 0.000000 0.055927 0.000000
# 6 0.000000 0.000000 0.000000 0.000000 0.000000 0.036265
#
#
# Mechanical properties :
#
#
# Convention : Reuss Voigt Hill
#
# Bulk Modulus (GPa) = 44.57734 44.69319 44.63526
# Shear Modulus (GPa) = 22.29473 23.20966 22.75220
#
# Velocity S-wave (km/s) = 3.53280 3.60456 3.56886
# Velocity P-wave (km/s) = 6.44945 6.50716 6.47837
#
# Compressibility (1/GPa) = 0.02243292
#
# Stress axis : x y z
#
# Youngs Moduli (GPa) = 65.89553 65.89553 65.78319
#
# Poissons Ratio (x) = 0.19484 0.28297
# Poissons Ratio (y) = 0.19484 0.28297
# Poissons Ratio (z) = 0.28345 0.28345
#
# Static dielectric constant tensor:
#      x y z
#    x 3.230340 0.000000 0.000000 
#    y 0.000000 3.230340 0.000000 
#    z 0.000000 0.000000 3.518080 
# 
# 
# High freq. dielectric constant tensor:
#      x y z
#    x 1.690380 0.000000 0.000000 
#    y 0.000000 1.690380 0.000000 
#    z 0.000000 0.000000 1.684300 
# 
# From -- ./inp_files/9819.got.cif
#   From: 2010.03.12/outbox.cif.g09.slc.cpg/sg194_5_cif.got.tgz:9819.got - 2010.04.01 12:26:19.
