data_PCOD8330548
_publ_section_title
;
Structure prediction by ZEFSAII (Michael W. Deem and Ramdas Pophale) SiO2 
 PCOD8330548
Probable space group: P 63/M M C
;
_chemical_formula_sum "Si O2"
_cell_formula_units_Z 144
_cell_length_a 32.341661
_cell_length_b 32.341661
_cell_length_c 8.877745
_cell_angle_alpha 90.000000
_cell_angle_beta 90.000000
_cell_angle_gamma 120.000000
_cell_volume 8041.886499
_symmetry_space_group_name_H-M "P 63/M M C"
_symmetry_group_IT_number 194
_symmetry_cell_setting 'hexagonal'
loop_
_space_group_symop_operation_xyz
x,y,z
x-y,x,1/2+z
-y,x-y,z
-x,-y,1/2+z
-x+y,-x,z
y,-x+y,1/2+z
x-y,-y,-z
-x,-x+y,-z
y,x,-z
-y,-x,1/2-z
-x+y,y,1/2-z
x,x-y,1/2-z
-x,-y,-z
-x+y,-x,1/2-z
y,-x+y,-z
x,y,1/2-z
x-y,x,-z
-y,x-y,1/2-z
-x+y,y,z
x,x-y,z
-y,-x,z
y,x,1/2+z
x-y,-y,1/2+z
-x,-x+y,1/2+z
loop_
_atom_site_type_symbol
_atom_site_label
_atom_site_fract_x
_atom_site_fract_y
_atom_site_fract_z
Si Si1 0.524667 0.382235 0.072611
Si Si2 0.805858 0.707580 0.425516
Si Si3 0.807878 0.951492 0.073535
Si Si4 0.282668 0.902059 0.427949
Si Si5 0.715422 0.523790 0.927296
Si Si6 0.618600 0.570292 0.427788
O O1 0.526164 0.377306 0.250000
O O2 0.574052 0.425949 0.011193
O O3 0.482057 0.391690 0.025326
O O4 0.516941 0.333429 0.000394
O O5 0.794902 0.707942 0.250000
O O6 0.848004 0.696008 0.453612
O O7 0.819359 0.758313 0.495403
O O8 0.759551 0.668325 0.509937
O O9 0.803653 0.958269 0.250000
O O10 0.821126 0.910563 0.041054
O O11 0.849500 0.000000 0.000000
O O12 0.286384 0.909443 0.250000
O O13 0.273500 0.849927 0.474477
O O14 0.331389 0.941977 0.503360
O O15 0.710138 0.517311 0.750000
O O16 0.758587 0.517173 0.988323
O O17 0.576468 0.576468 0.500000
O O18 0.619583 0.576774 0.250000
#
# Coordination Sequence:
#
# PCOD8330548 Si02
#       6
#    24  24  24  24  24  24
#     4   9  19  35  53  74 100 129 163 205 251 299
#     4  10  20  33  50  74 104 136 170 207 246 291
#     4  10  21  37  57  80 105 134 168 206 249 296
#     4  10  19  32  50  72 101 136 172 210 250 293
#     4   9  18  32  51  76 103 130 162 202 249 300
#     4  10  20  34  50  70  98 131 169 211 253 297
#
# _framework density 17.906244999999998
#
# number of rings (size 3 to 8) (size 9 to 14) (size 15 to 20)
#    0.000    2.333    0.000    2.500    0.000    5.667 
#    0.000    3.333    0.000    0.500    0.000    0.000 
#    0.000    0.000    0.000    0.000    0.000    0.000 
#
# Total GULP energy -1786071.196295 kJ/mol
# GULP energy per Si atom -12403.272196 kJ/mol
# Density = 1.786549 g / cm^3
# Si number density = 17.906245 Si / 1000 Ang^3
#
#
#
# Elastic Constant Matrix: (Units=GPa)
#
#
# Indices 1 2 3 4 5 6 
#
# 1 101.5443 56.8516 35.4984 0.0000 0.0000 0.0000
# 2 56.8516 101.5443 35.4984 0.0000 0.0000 0.0000
# 3 35.4984 35.4984 66.8951 0.0000 0.0000 0.0000
# 4 0.0000 0.0000 0.0000 30.8344 0.0000 0.0000
# 5 0.0000 0.0000 0.0000 0.0000 30.8344 0.0000
# 6 0.0000 0.0000 0.0000 0.0000 0.0000 22.3464
#
#
#
# Elastic Compliance Matrix: (Units=1/GPa)
#
#
# Indices 1 2 3 4 5 6 
#
# 1 0.015329 -0.007046 -0.004396 0.000000 0.000000 0.000000
# 2 -0.007046 0.015329 -0.004396 0.000000 0.000000 0.000000
# 3 -0.004396 -0.004396 0.019614 0.000000 0.000000 0.000000
# 4 0.000000 0.000000 0.000000 0.032431 0.000000 0.000000
# 5 0.000000 0.000000 0.000000 0.000000 0.032431 0.000000
# 6 0.000000 0.000000 0.000000 0.000000 0.000000 0.044750
#
#
# Mechanical properties :
#
#
# Convention : Reuss Voigt Hill
#
# Bulk Modulus (GPa) = 53.76859 58.40896 56.08878
# Shear Modulus (GPa) = 25.28329 26.27872 25.78101
#
# Velocity S-wave (km/s) = 3.76171 3.83505 3.79856
# Velocity P-wave (km/s) = 6.99717 7.23189 7.11550
#
# Compressibility (1/GPa) = 0.01859822
#
# Stress axis : x y z
#
# Youngs Moduli (GPa) = 65.23461 65.23461 50.98393
#
# Poissons Ratio (x) = 0.45963 0.22411
# Poissons Ratio (y) = 0.45963 0.22411
# Poissons Ratio (z) = 0.28675 0.28675
#
# Static dielectric constant tensor:
#      x y z
#    x 3.298310 0.000000 0.000000 
#    y 0.000000 3.298310 0.000000 
#    z 0.000000 0.000000 3.338030 
# 
# 
# High freq. dielectric constant tensor:
#      x y z
#    x 1.685400 0.000000 0.000000 
#    y 0.000000 1.685400 0.000000 
#    z 0.000000 0.000000 1.702380 
# 
# From -- ./inp_files/2075.got.cif
#   From: 2010.03.12/outbox.cif.g09.slc.cpg/sg194_2_cif.got.tgz:2075.got - 2010.04.01 12:26:19.
