data_PCOD8330383
_publ_section_title
;
Structure prediction by ZEFSAII (Michael W. Deem and Ramdas Pophale) SiO2 
 PCOD8330383
Probable space group: P 63/M M C
;
_chemical_formula_sum "Si O2"
_cell_formula_units_Z 144
_cell_length_a 22.546165
_cell_length_b 22.546165
_cell_length_c 19.615933
_cell_angle_alpha 90.000000
_cell_angle_beta 90.000000
_cell_angle_gamma 120.000000
_cell_volume 8635.449786
_symmetry_space_group_name_H-M "P 63/M M C"
_symmetry_group_IT_number 194
_symmetry_cell_setting 'hexagonal'
loop_
_space_group_symop_operation_xyz
x,y,z
x-y,x,1/2+z
-y,x-y,z
-x,-y,1/2+z
-x+y,-x,z
y,-x+y,1/2+z
x-y,-y,-z
-x,-x+y,-z
y,x,-z
-y,-x,1/2-z
-x+y,y,1/2-z
x,x-y,1/2-z
-x,-y,-z
-x+y,-x,1/2-z
y,-x+y,-z
x,y,1/2-z
x-y,x,-z
-y,x-y,1/2-z
-x+y,y,z
x,x-y,z
-y,-x,z
y,x,1/2+z
x-y,-y,1/2+z
-x,-x+y,1/2+z
loop_
_atom_site_type_symbol
_atom_site_label
_atom_site_fract_x
_atom_site_fract_y
_atom_site_fract_z
Si Si1 0.000994 0.132049 0.668984
Si Si2 0.397458 0.933290 0.038341
Si Si3 0.804371 0.471317 0.455735
Si Si4 0.389721 0.030027 0.671644
Si Si5 0.282444 0.207417 0.830780
Si Si6 0.623465 0.112558 0.325848
O O1 0.005229 0.136282 0.750000
O O2 0.074610 0.149219 0.638306
O O3 0.979082 0.185832 0.640881
O O4 0.944325 0.055676 0.646434
O O5 0.466961 0.933922 0.024715
O O6 0.383959 0.931578 0.119260
O O7 0.337744 0.864184 0.004516
O O8 0.402932 0.000000 0.000000
O O9 0.736854 0.473708 0.473216
O O10 0.789238 0.394619 0.468243
O O11 0.826507 0.494544 0.377705
O O12 0.413334 0.054138 0.750000
O O13 0.333844 0.049462 0.645273
O O14 0.360704 0.949039 0.664960
O O15 0.279848 0.205123 0.750000
O O16 0.304486 0.152243 0.856538
O O17 0.644294 0.143392 0.250000
O O18 0.542083 0.084166 0.338953
#
# Coordination Sequence:
#
# PCOD8330383 Si02
#       6
#    24  24  24  24  24  24
#     4   8  12  19  33  53  78 111 152 193 230 268
#     4  10  19  33  52  73  96 123 159 204 241 274
#     4  10  20  34  52  74 101 132 164 199 243 292
#     4  10  18  29  49  73  97 127 161 196 242 292
#     4   8  15  26  38  57  88 122 154 191 234 280
#     4   9  17  30  49  73  99 127 163 203 237 279
#
# _framework density 16.675449
#
# number of rings (size 3 to 8) (size 9 to 14) (size 15 to 20)
#    0.000    2.833    1.667    1.833    0.000    2.667 
#    0.000    0.833    0.000    4.000    0.000    0.000 
#    0.000    1.333    0.000    0.000    0.000    8.833 
#
# Total GULP energy -1784409.702351 kJ/mol
# GULP energy per Si atom -12391.734044 kJ/mol
# Density = 1.663749 g / cm^3
# Si number density = 16.675449 Si / 1000 Ang^3
#
#
#
# Elastic Constant Matrix: (Units=GPa)
#
#
# Indices 1 2 3 4 5 6 
#
# 1 78.1424 37.1718 24.8681 0.0000 0.0000 0.0000
# 2 37.1718 78.1424 24.8681 0.0000 0.0000 0.0000
# 3 24.8681 24.8681 74.8235 0.0000 0.0000 0.0000
# 4 0.0000 0.0000 0.0000 14.7288 0.0000 0.0000
# 5 0.0000 0.0000 0.0000 0.0000 14.7288 0.0000
# 6 0.0000 0.0000 0.0000 0.0000 0.0000 20.4853
#
#
#
# Elastic Compliance Matrix: (Units=1/GPa)
#
#
# Indices 1 2 3 4 5 6 
#
# 1 0.017265 -0.007142 -0.003364 0.000000 0.000000 0.000000
# 2 -0.007142 0.017265 -0.003364 0.000000 0.000000 0.000000
# 3 -0.003364 -0.003364 0.015601 0.000000 0.000000 0.000000
# 4 0.000000 0.000000 0.000000 0.067894 0.000000 0.000000
# 5 0.000000 0.000000 0.000000 0.000000 0.067894 0.000000
# 6 0.000000 0.000000 0.000000 0.000000 0.000000 0.048816
#
#
# Mechanical properties :
#
#
# Convention : Reuss Voigt Hill
#
# Bulk Modulus (GPa) = 44.66386 44.99160 44.82773
# Shear Modulus (GPa) = 18.52249 19.60190 19.06220
#
# Velocity S-wave (km/s) = 3.33643 3.43227 3.38469
# Velocity P-wave (km/s) = 6.45637 6.53809 6.49736
#
# Compressibility (1/GPa) = 0.02238947
#
# Stress axis : x y z
#
# Youngs Moduli (GPa) = 57.91915 57.91915 64.09761
#
# Poissons Ratio (x) = 0.41368 0.21566
# Poissons Ratio (y) = 0.41368 0.21566
# Poissons Ratio (z) = 0.19487 0.19487
#
# Static dielectric constant tensor:
#      x y z
#    x 3.211350 0.000000 0.000000 
#    y 0.000000 3.211350 0.000000 
#    z 0.000000 0.000000 2.927780 
# 
# 
# High freq. dielectric constant tensor:
#      x y z
#    x 1.631120 0.000000 0.000000 
#    y 0.000000 1.631120 0.000000 
#    z 0.000000 0.000000 1.614400 
# 
# From -- ./inp_files/8259.got.cif
#   From: 2010.03.12/outbox.cif.g09.slc.cpg/sg194_5_cif.got.tgz:8259.got - 2010.04.01 12:26:19.
