data_PCOD8330319
_publ_section_title
;
Structure prediction by ZEFSAII (Michael W. Deem and Ramdas Pophale) SiO2 
 PCOD8330319
Probable space group: P 63/M M C
;
_chemical_formula_sum "Si O2"
_cell_formula_units_Z 112
_cell_length_a 29.748502
_cell_length_b 29.748502
_cell_length_c 8.719389
_cell_angle_alpha 90.000000
_cell_angle_beta 90.000000
_cell_angle_gamma 120.000000
_cell_volume 6682.621876
_symmetry_space_group_name_H-M "P 63/M M C"
_symmetry_group_IT_number 194
_symmetry_cell_setting 'hexagonal'
loop_
_space_group_symop_operation_xyz
x,y,z
x-y,x,1/2+z
-y,x-y,z
-x,-y,1/2+z
-x+y,-x,z
y,-x+y,1/2+z
x-y,-y,-z
-x,-x+y,-z
y,x,-z
-y,-x,1/2-z
-x+y,y,1/2-z
x,x-y,1/2-z
-x,-y,-z
-x+y,-x,1/2-z
y,-x+y,-z
x,y,1/2-z
x-y,x,-z
-y,x-y,1/2-z
-x+y,y,z
x,x-y,z
-y,-x,z
y,x,1/2+z
x-y,-y,1/2+z
-x,-x+y,1/2+z
loop_
_atom_site_type_symbol
_atom_site_label
_atom_site_fract_x
_atom_site_fract_y
_atom_site_fract_z
Si Si1 0.333334 0.666668 0.067531
Si Si2 0.325041 0.162521 0.926198
Si Si3 0.217707 0.782294 0.931196
Si Si4 0.491990 0.332887 0.431452
Si Si5 0.249167 0.301976 0.428953
Si Si6 0.609105 0.218210 0.066519
Si Si7 0.346208 0.399476 0.568803
O O1 0.333334 0.666667 0.250000
O O2 0.362591 0.725181 0.006550
O O3 0.343316 0.171658 0.750000
O O4 0.291726 0.100726 0.961365
O O5 0.375310 0.187655 0.030555
O O6 0.220362 0.779639 0.750000
O O7 0.275246 0.811277 0.002150
O O8 0.494604 0.330120 0.250000
O O9 0.550222 0.364734 0.495553
O O10 0.457175 0.358619 0.477969
O O11 0.254890 0.254890 0.500000
O O12 0.261205 0.304905 0.250000
O O13 0.290701 0.356624 0.502806
O O14 0.612096 0.224191 0.250000
O O15 0.392318 0.392318 0.500000
O O16 0.343731 0.392157 0.750000
#
# Coordination Sequence:
#
# PCOD8330319 Si02
#       7
#     4  12  12  24  24  12  24
#     4  12  25  41  55  81 109 122 139 183 253 311
#     4  10  20  31  45  70  99 128 161 196 239 287
#     4  10  17  29  47  70  94 116 149 196 237 278
#     4   9  18  31  52  76  93 116 161 204 233 275
#     4  10  19  31  46  68  98 132 167 199 240 285
#     4  10  20  39  62  75  90 124 161 191 230 292
#     4  10  18  30  47  70  97 126 159 198 239 282
#
# _framework density 16.759889000000001
#
# number of rings (size 3 to 8) (size 9 to 14) (size 15 to 20)
#    0.000    2.143    2.143    3.536    0.000    2.571 
#    0.000    4.821    0.000    0.000    0.000    0.000 
#    0.000    0.000    0.000    0.321    0.000    3.857 
#
# Total GULP energy -1388311.493881 kJ/mol
# GULP energy per Si atom -12395.638338 kJ/mol
# Density = 1.672174 g / cm^3
# Si number density = 16.759889 Si / 1000 Ang^3
#
#
#
# Elastic Constant Matrix: (Units=GPa)
#
#
# Indices 1 2 3 4 5 6 
#
# 1 138.4696 74.3614 35.0907 0.0000 0.0000 0.0000
# 2 74.3614 138.4701 35.0907 0.0000 0.0000 0.0000
# 3 35.0907 35.0907 59.5093 -0.0001 0.0000 0.0000
# 4 0.0000 0.0000 -0.0001 9.9101 0.0000 0.0000
# 5 0.0000 0.0000 0.0000 0.0000 9.9102 0.0000
# 6 0.0000 0.0000 0.0000 0.0000 0.0000 32.0540
#
#
#
# Elastic Compliance Matrix: (Units=1/GPa)
#
#
# Indices 1 2 3 4 5 6 
#
# 1 0.010716 -0.004883 -0.003439 0.000000 0.000000 0.000000
# 2 -0.004883 0.010716 -0.003439 0.000000 0.000000 0.000000
# 3 -0.003439 -0.003439 0.020860 0.000000 0.000000 0.000000
# 4 0.000000 0.000000 0.000000 0.100907 0.000000 0.000000
# 5 0.000000 0.000000 0.000000 0.000000 0.100907 0.000000
# 6 0.000000 0.000000 0.000000 0.000000 0.000000 0.031197
#
#
# Mechanical properties :
#
#
# Convention : Reuss Voigt Hill
#
# Bulk Modulus (GPa) = 53.28151 69.50385 61.39268
# Shear Modulus (GPa) = 16.38902 23.16859 19.77881
#
# Velocity S-wave (km/s) = 3.13049 3.72208 3.43903
# Velocity P-wave (km/s) = 6.70274 7.74804 7.24427
#
# Compressibility (1/GPa) = 0.01876824
#
# Stress axis : x y z
#
# Youngs Moduli (GPa) = 93.32146 93.32179 47.93805
#
# Poissons Ratio (x) = 0.45569 0.16488
# Poissons Ratio (y) = 0.45568 0.16488
# Poissons Ratio (z) = 0.32097 0.32097
#
# Static dielectric constant tensor:
#      x y z
#    x 3.300560 0.000000 0.000000 
#    y 0.000000 3.300550 0.000000 
#    z 0.000000 0.000000 3.020310 
# 
# 
# High freq. dielectric constant tensor:
#      x y z
#    x 1.635570 0.000000 0.000000 
#    y 0.000000 1.635560 0.000000 
#    z 0.000000 0.000000 1.634790 
# 
# From -- ./inp_files/1968.got.cif
#   From: 2010.03.12/outbox.cif.g09.slc.cpg/sg194_1_cif.got.tgz:1968.got - 2010.04.01 12:26:19.
