data_PCOD8330501
_publ_section_title
;
Structure prediction by ZEFSAII (Michael W. Deem and Ramdas Pophale) SiO2 
 PCOD8330501
Probable space group: P 63/M M C
;
_chemical_formula_sum "Si O2"
_cell_formula_units_Z 144
_cell_length_a 32.629332
_cell_length_b 32.629332
_cell_length_c 8.743748
_cell_angle_alpha 90.000000
_cell_angle_beta 90.000000
_cell_angle_gamma 120.000000
_cell_volume 8062.034084
_symmetry_space_group_name_H-M "P 63/M M C"
_symmetry_group_IT_number 194
_symmetry_cell_setting 'hexagonal'
loop_
_space_group_symop_operation_xyz
x,y,z
x-y,x,1/2+z
-y,x-y,z
-x,-y,1/2+z
-x+y,-x,z
y,-x+y,1/2+z
x-y,-y,-z
-x,-x+y,-z
y,x,-z
-y,-x,1/2-z
-x+y,y,1/2-z
x,x-y,1/2-z
-x,-y,-z
-x+y,-x,1/2-z
y,-x+y,-z
x,y,1/2-z
x-y,x,-z
-y,x-y,1/2-z
-x+y,y,z
x,x-y,z
-y,-x,z
y,x,1/2+z
x-y,-y,1/2+z
-x,-x+y,1/2+z
loop_
_atom_site_type_symbol
_atom_site_label
_atom_site_fract_x
_atom_site_fract_y
_atom_site_fract_z
Si Si1 0.809723 0.950924 0.069706
Si Si2 0.569802 0.619057 0.069530
Si Si3 0.102367 0.720024 0.569134
Si Si4 0.859967 0.385150 0.569916
Si Si5 0.188333 0.719247 0.429029
Si Si6 0.715706 0.950394 0.430869
O O1 0.815119 0.954753 0.250000
O O2 0.816166 0.908083 0.006339
O O3 0.757983 0.941099 0.020653
O O4 0.850555 0.000000 0.000000
O O5 0.577379 0.622450 0.250000
O O6 0.516343 0.604218 0.023818
O O7 0.579218 0.579218 0.000000
O O8 0.605998 0.669641 0.998299
O O9 0.098788 0.718455 0.750000
O O10 0.155182 0.734230 0.518926
O O11 0.091729 0.759731 0.503363
O O12 0.856280 0.387807 0.750000
O O13 0.850554 0.425277 0.494329
O O14 0.821395 0.332240 0.513826
O O15 0.175641 0.716845 0.250000
O O16 0.242892 0.757109 0.462494
O O17 0.710287 0.951209 0.250000
O O18 0.725168 0.000000 0.500000
#
# Coordination Sequence:
#
# PCOD8330501 Si02
#       6
#    24  24  24  24  24  24
#     4   9  19  35  54  76 100 127 159 195 238 286
#     4  10  19  31  47  68  96 131 168 204 242 284
#     4  11  21  32  47  69  98 131 168 208 244 280
#     4   8  15  29  49  71  94 122 157 196 238 286
#     4   9  18  33  52  72  95 126 161 196 240 293
#     4  10  19  32  49  70  99 134 170 206 242 283
#
# _framework density 17.861497
#
# number of rings (size 3 to 8) (size 9 to 14) (size 15 to 20)
#    0.000    2.500    0.000    4.000    0.000    2.333 
#    0.000    1.667    0.000   12.500    0.000    2.333 
#    0.000    0.000    0.000    0.500    0.000    2.667 
#
# Total GULP energy -1785473.145800 kJ/mol
# GULP energy per Si atom -12399.119068 kJ/mol
# Density = 1.782084 g / cm^3
# Si number density = 17.861497 Si / 1000 Ang^3
#
#
#
# Elastic Constant Matrix: (Units=GPa)
#
#
# Indices 1 2 3 4 5 6 
#
# 1 123.4361 86.1198 35.5072 0.0000 0.0000 0.0000
# 2 86.1198 123.4361 35.5072 0.0000 0.0000 0.0000
# 3 35.5072 35.5072 70.0266 0.0000 0.0000 0.0000
# 4 0.0000 0.0000 0.0000 17.6999 0.0000 0.0000
# 5 0.0000 0.0000 0.0000 0.0000 17.6999 0.0000
# 6 0.0000 0.0000 0.0000 0.0000 0.0000 18.6581
#
#
#
# Elastic Compliance Matrix: (Units=1/GPa)
#
#
# Indices 1 2 3 4 5 6 
#
# 1 0.016280 -0.010518 -0.002922 0.000000 0.000000 0.000000
# 2 -0.010518 0.016280 -0.002922 0.000000 0.000000 0.000000
# 3 -0.002922 -0.002922 0.017243 0.000000 0.000000 0.000000
# 4 0.000000 0.000000 0.000000 0.056498 0.000000 0.000000
# 5 0.000000 0.000000 0.000000 0.000000 0.056498 0.000000
# 6 0.000000 0.000000 0.000000 0.000000 0.000000 0.053596
#
#
# Mechanical properties :
#
#
# Convention : Reuss Voigt Hill
#
# Bulk Modulus (GPa) = 58.54587 70.12970 64.33778
# Shear Modulus (GPa) = 19.62241 21.46254 20.54247
#
# Velocity S-wave (km/s) = 3.31809 3.47018 3.39499
# Velocity P-wave (km/s) = 6.89409 7.44342 7.17402
#
# Compressibility (1/GPa) = 0.01708062
#
# Stress axis : x y z
#
# Youngs Moduli (GPa) = 61.42486 61.42486 57.99395
#
# Poissons Ratio (x) = 0.64606 0.16944
# Poissons Ratio (y) = 0.64606 0.16944
# Poissons Ratio (z) = 0.17946 0.17946
#
# Static dielectric constant tensor:
#      x y z
#    x 3.404210 0.000000 0.000000 
#    y 0.000000 3.404210 0.000000 
#    z 0.000000 0.000000 3.157660 
# 
# 
# High freq. dielectric constant tensor:
#      x y z
#    x 1.682080 0.000000 0.000000 
#    y 0.000000 1.682080 0.000000 
#    z 0.000000 0.000000 1.680020 
# 
# From -- ./inp_files/2152.got.cif
#   From: 2010.03.12/outbox.cif.g09.slc.cpg/sg194_2_cif.got.tgz:2152.got - 2010.04.01 12:26:19.
