data_PCOD8330058
_publ_section_title
;
Structure prediction by ZEFSAII (Michael W. Deem and Ramdas Pophale) SiO2 
 PCOD8330058
Probable space group: P 63/M C M
;
_chemical_formula_sum "Si O2"
_cell_formula_units_Z 144
_cell_length_a 31.004143
_cell_length_b 31.004143
_cell_length_c 8.908634
_cell_angle_alpha 90.000000
_cell_angle_beta 90.000000
_cell_angle_gamma 120.000000
_cell_volume 7416.196206
_symmetry_space_group_name_H-M "P 63/M C M"
_symmetry_group_IT_number 193
_symmetry_cell_setting 'hexagonal'
loop_
_space_group_symop_operation_xyz
x,y,z
x-y,x,1/2+z
-y,x-y,z
-x,-y,1/2+z
-x+y,-x,z
y,-x+y,1/2+z
x-y,-y,1/2-z
-x,-x+y,1/2-z
y,x,1/2-z
-y,-x,-z
-x+y,y,-z
x,x-y,-z
-x,-y,-z
-x+y,-x,1/2-z
y,-x+y,-z
x,y,1/2-z
x-y,x,-z
-y,x-y,1/2-z
-x+y,y,1/2+z
x,x-y,1/2+z
-y,-x,1/2+z
y,x,z
x-y,-y,z
-x,-x+y,z
loop_
_atom_site_type_symbol
_atom_site_label
_atom_site_fract_x
_atom_site_fract_y
_atom_site_fract_z
Si Si1 0.233762 0.290977 0.925686
Si Si2 0.200600 0.143435 0.075335
Si Si3 0.425318 0.758048 0.072361
Si Si4 0.380302 0.236001 0.425077
Si Si5 0.663995 0.141278 0.077204
Si Si6 0.943484 0.516355 0.574059
O O1 0.225981 0.294296 0.750000
O O2 0.274379 0.274379 0.958988
O O3 0.180980 0.252431 0.996994
O O4 0.253635 0.344303 0.001903
O O5 0.210850 0.141297 0.250000
O O6 0.159772 0.159772 0.046772
O O7 0.179017 0.089509 0.000000
O O8 0.418616 0.749310 0.250000
O O9 0.469034 0.813281 0.031989
O O10 0.374531 0.749062 0.000000
O O11 0.439859 0.719930 0.000000
O O12 0.370912 0.185456 0.500000
O O13 0.368525 0.226302 0.250000
O O14 0.436619 0.278997 0.456126
O O15 0.650562 0.126619 0.250000
O O16 0.628815 0.092819 0.979655
O O17 0.926278 0.463139 0.500000
O O18 0.938520 0.508131 0.750000
O O19 0.000000 0.556442 0.526965
#
# Coordination Sequence:
#
# PCOD8330058 Si02
#       6
#    24  24  24  24  24  24
#     4  10  21  37  57  81 110 145 185 229 276 327
#     4  10  20  34  54  80 109 142 181 226 276 328
#     4  11  23  40  61  86 114 144 181 224 274 328
#     4  11  23  39  58  81 112 149 188 229 275 329
#     4  10  23  40  59  84 113 148 188 229 275 327
#     4  10  21  37  59  86 115 148 186 229 277 328
#
# _framework density 19.416961000000001
#
# number of rings (size 3 to 8) (size 9 to 14) (size 15 to 20)
#    0.000    1.667    0.000    4.167    0.000    7.667 
#    0.000    3.333    0.000    0.167    0.000    0.000 
#    0.000    0.000    0.000    0.000    0.000    0.000 
#
# Total GULP energy -1786519.552755 kJ/mol
# GULP energy per Si atom -12406.385783 kJ/mol
# Density = 1.937277 g / cm^3
# Si number density = 19.416961 Si / 1000 Ang^3
#
#
#
# Elastic Constant Matrix: (Units=GPa)
#
#
# Indices 1 2 3 4 5 6 
#
# 1 95.8890 35.9517 50.7646 0.0000 0.0000 0.0000
# 2 35.9517 95.8890 50.7646 0.0000 0.0000 0.0000
# 3 50.7646 50.7646 110.3478 0.0000 0.0000 0.0000
# 4 0.0000 0.0000 0.0000 34.1282 0.0000 0.0000
# 5 0.0000 0.0000 0.0000 0.0000 34.1282 0.0000
# 6 0.0000 0.0000 0.0000 0.0000 0.0000 29.9686
#
#
#
# Elastic Compliance Matrix: (Units=1/GPa)
#
#
# Indices 1 2 3 4 5 6 
#
# 1 0.014215 -0.002469 -0.005404 0.000000 0.000000 0.000000
# 2 -0.002469 0.014215 -0.005404 0.000000 0.000000 0.000000
# 3 -0.005404 -0.005404 0.014034 0.000000 0.000000 0.000000
# 4 0.000000 0.000000 0.000000 0.029301 0.000000 0.000000
# 5 0.000000 0.000000 0.000000 0.000000 0.029301 0.000000
# 6 0.000000 0.000000 0.000000 0.000000 0.000000 0.033368
#
#
# Mechanical properties :
#
#
# Convention : Reuss Voigt Hill
#
# Bulk Modulus (GPa) = 62.84704 64.12086 63.48395
# Shear Modulus (GPa) = 30.06755 30.62134 30.34444
#
# Velocity S-wave (km/s) = 3.93939 3.97551 3.95749
# Velocity P-wave (km/s) = 7.28897 7.35987 7.32451
#
# Compressibility (1/GPa) = 0.01591165
#
# Stress axis : x y z
#
# Youngs Moduli (GPa) = 70.34716 70.34716 71.25454
#
# Poissons Ratio (x) = 0.17368 0.38504
# Poissons Ratio (y) = 0.17368 0.38504
# Poissons Ratio (z) = 0.38014 0.38014
#
# Static dielectric constant tensor:
#      x y z
#    x 3.523060 0.000000 0.000000 
#    y 0.000000 3.523060 0.000000 
#    z 0.000000 0.000000 3.654460 
# 
# 
# High freq. dielectric constant tensor:
#      x y z
#    x 1.757590 0.000000 0.000000 
#    y 0.000000 1.757590 0.000000 
#    z 0.000000 0.000000 1.770090 
# 
# From -- ./inp_files/1498.got.cif
#   From: 2010.03.12/outbox.cif.g09.slc.cpg/sg193_1_cif.got.tgz:1498.got - 2010.04.01 12:20:39.
