data_PCOD8330972
_publ_section_title
;
Structure prediction by ZEFSAII (Michael W. Deem and Ramdas Pophale) SiO2 
 PCOD8330972
Probable space group: I A 3
;
_chemical_formula_sum "Si O2"
_cell_formula_units_Z 152
_cell_length_a 20.286754
_cell_length_b 20.286754
_cell_length_c 20.286754
_cell_angle_alpha 90.000000
_cell_angle_beta 90.000000
_cell_angle_gamma 90.000000
_cell_volume 8349.062051
_symmetry_space_group_name_H-M "I A 3"
_symmetry_group_IT_number 206
_symmetry_cell_setting 'cubic'
loop_
_space_group_symop_operation_xyz
x,y,z
z,x,y
y,z,x
-y,1/2-z,x
z,-x,1/2-y
1/2-y,z,-x
-z,1/2-x,y
1/2-z,x,-y
y,-z,1/2-x
-x,1/2-y,z
x,-y,1/2-z
1/2-x,y,-z
-x,-y,-z
-z,-x,-y
-y,-z,-x
y,1/2+z,-x
-z,x,1/2+y
1/2+y,-z,x
z,1/2+x,-y
1/2+z,-x,y
-y,z,1/2+x
x,1/2+y,-z
-x,y,1/2+z
1/2+x,-y,z
1/2+x,1/2+y,1/2+z
1/2+z,1/2+x,1/2+y
1/2+y,1/2+z,1/2+x
1/2-y,-z,1/2+x
1/2+z,1/2-x,-y
-y,1/2+z,1/2-x
1/2-z,-x,1/2+y
-z,1/2+x,1/2-y
1/2+y,1/2-z,-x
1/2-x,-y,1/2+z
1/2+x,1/2-y,-z
-x,1/2+y,1/2-z
1/2-x,1/2-y,1/2-z
1/2-z,1/2-x,1/2-y
1/2-y,1/2-z,1/2-x
1/2+y,z,1/2-x
1/2-z,1/2+x,y
y,1/2-z,1/2+x
1/2+z,x,1/2-y
z,1/2-x,1/2+y
1/2-y,1/2+z,x
1/2+x,y,1/2-z
1/2-x,1/2+y,z
x,1/2-y,1/2+z
loop_
_atom_site_type_symbol
_atom_site_label
_atom_site_fract_x
_atom_site_fract_y
_atom_site_fract_z
Si Si1 0.198592 0.131780 0.762558
Si Si2 0.329305 0.329305 0.329305
Si Si3 0.012557 0.618222 0.051410
Si Si4 0.874997 0.000000 0.250000
Si Si5 0.920696 0.579306 0.420695
O O1 0.146199 0.186114 0.786576
O O2 0.264352 0.131740 0.806618
O O3 0.169970 0.059872 0.773294
O O4 0.375000 0.375000 0.375000
O O5 0.036651 0.563895 0.103773
O O6 0.023295 0.690129 0.080036
O O7 0.056551 0.618289 0.985607
#
# Coordination Sequence:
#
# PCOD8330972 Si02
#       5
#    48  16  48  24  16
#     4   9  20  37  53  74 109 143 170 215 272 317
#     4   9  19  38  58  75 103 143 181 216 265 320
#     4   9  20  37  53  74 109 143 170 215 272 317
#     4  12  20  32  58  84 104 136 184 222 260 324
#     4   9  19  38  58  75 103 143 181 216 265 320
#
# _framework density 18.205638
#
# number of rings (size 3 to 8) (size 9 to 14) (size 15 to 20)
#    0.000    2.526    0.000    4.421    0.000    5.053 
#    0.000    7.895    0.000    0.000    0.000    0.000 
#    0.000    0.000    0.000    0.000    0.000    0.000 
#
# Total GULP energy -942392.423364 kJ/mol
# GULP energy per Si atom -12399.900307 kJ/mol
# Density = 1.816420 g / cm^3
# Si number density = 18.205638 Si / 1000 Ang^3
#
#
#
# Elastic Constant Matrix: (Units=GPa)
#
#
# Indices 1 2 3 4 5 6 
#
# 1 88.1807 44.4929 44.4934 0.0000 0.0000 0.0000
# 2 44.4929 88.1819 44.4931 0.0000 0.0000 0.0000
# 3 44.4934 44.4931 88.1853 0.0000 0.0000 0.0000
# 4 0.0000 0.0000 0.0000 26.5425 0.0000 0.0000
# 5 0.0000 0.0000 0.0000 0.0000 26.5430 0.0000
# 6 0.0000 0.0000 0.0000 0.0000 0.0000 26.5425
#
#
#
# Elastic Compliance Matrix: (Units=1/GPa)
#
#
# Indices 1 2 3 4 5 6 
#
# 1 0.017141 -0.005748 -0.005748 0.000000 0.000000 0.000000
# 2 -0.005748 0.017141 -0.005748 0.000000 0.000000 0.000000
# 3 -0.005748 -0.005748 0.017140 0.000000 0.000000 0.000000
# 4 0.000000 0.000000 0.000000 0.037675 0.000000 0.000000
# 5 0.000000 0.000000 0.000000 0.000000 0.037675 0.000000
# 6 0.000000 0.000000 0.000000 0.000000 0.000000 0.037675
#
#
# Mechanical properties :
#
#
# Convention : Reuss Voigt Hill
#
# Bulk Modulus (GPa) = 59.05628 59.05628 59.05628
# Shear Modulus (GPa) = 24.44024 24.66351 24.55188
#
# Velocity S-wave (km/s) = 3.66793 3.68464 3.67629
# Velocity P-wave (km/s) = 7.10261 7.11414 7.10838
#
# Compressibility (1/GPa) = 0.01693300
#
# Stress axis : x y z
#
# Youngs Moduli (GPa) = 58.33918 58.34053 58.34300
#
# Poissons Ratio (x) = 0.33536 0.33537
# Poissons Ratio (y) = 0.33536 0.33535
# Poissons Ratio (z) = 0.33534 0.33533
#
# Static dielectric constant tensor:
#      x y z
#    x 3.264600 0.000000 0.000000 
#    y 0.000000 3.264610 0.000000 
#    z 0.000000 0.000000 3.264580 
# 
# 
# High freq. dielectric constant tensor:
#      x y z
#    x 1.706040 0.000000 0.000000 
#    y 0.000000 1.706040 0.000000 
#    z 0.000000 0.000000 1.706040 
# 
# From -- ./inp_files/447.got.cif
#   From: 2010.03.12/outbox.cif.g09.slc.cpg/sg206_cif.got.tgz:447.got - 2010.03.30 09:03:11.
