data_PCOD8330323
_publ_section_title
;
Structure prediction by ZEFSAII (Michael W. Deem and Ramdas Pophale) SiO2 
 PCOD8330323
Probable space group: P 63/M M C
;
_chemical_formula_sum "Si O2"
_cell_formula_units_Z 132
_cell_length_a 17.215569
_cell_length_b 17.215569
_cell_length_c 27.735574
_cell_angle_alpha 90.000000
_cell_angle_beta 90.000000
_cell_angle_gamma 120.000000
_cell_volume 7118.861647
_symmetry_space_group_name_H-M "P 63/M M C"
_symmetry_group_IT_number 194
_symmetry_cell_setting 'hexagonal'
loop_
_space_group_symop_operation_xyz
x,y,z
x-y,x,1/2+z
-y,x-y,z
-x,-y,1/2+z
-x+y,-x,z
y,-x+y,1/2+z
x-y,-y,-z
-x,-x+y,-z
y,x,-z
-y,-x,1/2-z
-x+y,y,1/2-z
x,x-y,1/2-z
-x,-y,-z
-x+y,-x,1/2-z
y,-x+y,-z
x,y,1/2-z
x-y,x,-z
-y,x-y,1/2-z
-x+y,y,z
x,x-y,z
-y,-x,z
y,x,1/2+z
x-y,-y,1/2+z
-x,-x+y,1/2+z
loop_
_atom_site_type_symbol
_atom_site_label
_atom_site_fract_x
_atom_site_fract_y
_atom_site_fract_z
Si Si1 0.381848 0.101961 0.606680
Si Si2 0.611317 0.038794 0.804034
Si Si3 0.000000 0.833142 0.500000
Si Si4 0.667768 0.153871 0.991468
Si Si5 0.081281 0.332282 0.567513
Si Si6 0.505154 0.838406 0.692990
O O1 0.345271 0.172636 0.604824
O O2 0.429454 0.111277 0.658304
O O3 0.448843 0.121384 0.562305
O O4 0.305546 0.997298 0.605756
O O5 0.653262 0.058784 0.750000
O O6 0.523633 0.047266 0.803849
O O7 0.584294 0.937685 0.820736
O O8 0.924724 0.849447 0.525123
O O9 0.952930 0.758378 0.460740
O O10 0.570340 0.140680 0.000530
O O11 0.742019 0.257981 0.997164
O O12 0.683186 0.094572 0.031117
O O13 0.177952 0.355903 0.591065
O O14 0.495704 0.830501 0.750000
O O15 0.410721 0.821441 0.670941
O O16 0.526114 0.763057 0.671832
#
# Coordination Sequence:
#
# PCOD8330323 Si02
#       6
#    24  24  12  24  24  24
#     4  11  21  34  53  76 100 131 172 216 260 309
#     4   9  19  34  50  71 100 133 171 216 260 301
#     4  10  17  30  49  72 102 134 170 210 257 308
#     4  10  20  34  53  78 107 140 172 204 243 295
#     4  10  20  34  52  75 107 136 165 210 258 308
#     4   8  13  23  42  68  97 128 162 200 242 290
#
# _framework density 18.542290999999999
#
# number of rings (size 3 to 8) (size 9 to 14) (size 15 to 20)
#    0.000    2.364    1.818    2.636    0.000    4.000 
#    0.000    0.000    0.000    0.727    0.000    6.364 
#    0.000    0.000    0.000    0.000    0.000    0.000 
#
# Total GULP energy -1635224.329060 kJ/mol
# GULP energy per Si atom -12388.063099 kJ/mol
# Density = 1.850009 g / cm^3
# Si number density = 18.542291 Si / 1000 Ang^3
#
#
#
# Elastic Constant Matrix: (Units=GPa)
#
#
# Indices 1 2 3 4 5 6 
#
# 1 111.2998 35.3935 40.4033 0.0000 0.0000 0.0000
# 2 35.3935 111.2998 40.4033 0.0000 0.0000 0.0000
# 3 40.4033 40.4033 57.6047 0.0000 0.0000 0.0000
# 4 0.0000 0.0000 0.0000 2.5325 0.0000 0.0000
# 5 0.0000 0.0000 0.0000 0.0000 2.5325 0.0000
# 6 0.0000 0.0000 0.0000 0.0000 0.0000 37.9531
#
#
#
# Elastic Compliance Matrix: (Units=1/GPa)
#
#
# Indices 1 2 3 4 5 6 
#
# 1 0.012142 -0.001033 -0.007792 0.000000 0.000000 0.000000
# 2 -0.001033 0.012142 -0.007792 0.000000 0.000000 0.000000
# 3 -0.007792 -0.007792 0.028290 0.000000 0.000000 0.000000
# 4 0.000000 0.000000 0.000000 0.394872 0.000000 0.000000
# 5 0.000000 0.000000 0.000000 0.000000 0.394872 0.000000
# 6 0.000000 0.000000 0.000000 0.000000 0.000000 0.026348
#
#
# Mechanical properties :
#
#
# Convention : Reuss Voigt Hill
#
# Bulk Modulus (GPa) = 51.70403 56.95606 54.33005
# Shear Modulus (GPa) = 5.50452 19.53721 12.52087
#
# Velocity S-wave (km/s) = 1.72484 3.24953 2.60140
# Velocity P-wave (km/s) = 5.64904 6.69797 6.19574
#
# Compressibility (1/GPa) = 0.01934085
#
# Stress axis : x y z
#
# Youngs Moduli (GPa) = 82.36134 82.36134 35.34838
#
# Poissons Ratio (x) = 0.08504 0.27543
# Poissons Ratio (y) = 0.08504 0.27543
# Poissons Ratio (z) = 0.64174 0.64174
#
# Static dielectric constant tensor:
#      x y z
#    x 3.842850 0.000000 0.000000 
#    y 0.000000 3.842850 0.000000 
#    z 0.000000 0.000000 3.238950 
# 
# 
# High freq. dielectric constant tensor:
#      x y z
#    x 1.717610 0.000000 0.000000 
#    y 0.000000 1.717610 0.000000 
#    z 0.000000 0.000000 1.694690 
# 
# From -- ./inp_files/9513.got.cif
#   From: 2010.03.12/outbox.cif.g09.slc.cpg/sg194_5_cif.got.tgz:9513.got - 2010.04.01 12:26:19.
