data_PCOD8330844
_publ_section_title
;
Structure prediction by ZEFSAII (Michael W. Deem and Ramdas Pophale) SiO2 
 PCOD8330844
Probable space group: P 63/M M C
;
_chemical_formula_sum "Si O2"
_cell_formula_units_Z 156
_cell_length_a 21.207129
_cell_length_b 21.207129
_cell_length_c 21.417121
_cell_angle_alpha 90.000000
_cell_angle_beta 90.000000
_cell_angle_gamma 120.000000
_cell_volume 8341.717506
_symmetry_space_group_name_H-M "P 63/M M C"
_symmetry_group_IT_number 194
_symmetry_cell_setting 'hexagonal'
loop_
_space_group_symop_operation_xyz
x,y,z
x-y,x,1/2+z
-y,x-y,z
-x,-y,1/2+z
-x+y,-x,z
y,-x+y,1/2+z
x-y,-y,-z
-x,-x+y,-z
y,x,-z
-y,-x,1/2-z
-x+y,y,1/2-z
x,x-y,1/2-z
-x,-y,-z
-x+y,-x,1/2-z
y,-x+y,-z
x,y,1/2-z
x-y,x,-z
-y,x-y,1/2-z
-x+y,y,z
x,x-y,z
-y,-x,z
y,x,1/2+z
x-y,-y,1/2+z
-x,-x+y,1/2+z
loop_
_atom_site_type_symbol
_atom_site_label
_atom_site_fract_x
_atom_site_fract_y
_atom_site_fract_z
Si Si1 0.387659 0.469514 0.975527
Si Si2 0.414463 0.280127 0.579906
Si Si3 0.522577 0.191122 0.250000
Si Si4 0.586330 0.914115 0.844303
Si Si5 0.245797 0.048971 0.561434
Si Si6 0.947610 0.747421 0.178724
Si Si7 0.397642 0.462235 0.319489
O O1 0.447757 0.552244 0.958502
O O2 0.336709 0.427914 0.917628
O O3 0.426000 0.426000 0.000000
O O4 0.333934 0.469393 0.028002
O O5 0.429267 0.214634 0.589387
O O6 0.331724 0.253816 0.561017
O O7 0.433679 0.322744 0.644630
O O8 0.586439 0.172877 0.250000
O O9 0.555083 0.277542 0.250000
O O10 0.474219 0.158679 0.311719
O O11 0.663519 0.921222 0.832036
O O12 0.580685 0.980919 0.816377
O O13 0.229183 0.114592 0.557819
O O14 0.211374 0.000000 0.500000
O O15 0.211656 0.007175 0.626569
O O16 0.978731 0.769485 0.250000
O O17 0.880139 0.760278 0.169499
O O18 0.384230 0.480636 0.250000
O O19 0.465174 0.534827 0.350462
#
# Coordination Sequence:
#
# PCOD8330844 Si02
#       7
#    24  24  12  24  24  24  24
#     4  11  21  35  58  85 114 148 194 249 301 353
#     4  11  23  37  56  86 122 156 194 244 305 363
#     4  12  25  40  56  82 121 166 208 246 296 360
#     4  12  21  36  59  90 118 152 201 249 300 355
#     4  11  23  40  61  89 123 161 200 245 300 361
#     4  11  22  38  62  92 125 160 198 246 303 363
#     4  11  21  36  60  88 119 155 198 251 303 358
#
# _framework density 18.701186
#
# number of rings (size 3 to 8) (size 9 to 14) (size 15 to 20)
#    0.000    0.769    4.615    4.231    0.000    3.077 
#    0.000    1.538    0.000    5.231    0.000    0.000 
#    0.000    0.000    0.000    0.000    0.000    0.000 
#
# Total GULP energy -1934767.862170 kJ/mol
# GULP energy per Si atom -12402.358091 kJ/mol
# Density = 1.865862 g / cm^3
# Si number density = 18.701186 Si / 1000 Ang^3
#
#
#
# Elastic Constant Matrix: (Units=GPa)
#
#
# Indices 1 2 3 4 5 6 
#
# 1 89.4414 36.5485 39.4396 0.0000 0.0000 0.0000
# 2 36.5485 89.4414 39.4396 0.0000 0.0000 0.0000
# 3 39.4396 39.4396 127.4709 0.0000 0.0000 0.0000
# 4 0.0000 0.0000 0.0000 26.1134 0.0000 0.0000
# 5 0.0000 0.0000 0.0000 0.0000 26.1134 0.0000
# 6 0.0000 0.0000 0.0000 0.0000 0.0000 26.4464
#
#
#
# Elastic Compliance Matrix: (Units=1/GPa)
#
#
# Indices 1 2 3 4 5 6 
#
# 1 0.014375 -0.004531 -0.003046 0.000000 0.000000 0.000000
# 2 -0.004531 0.014375 -0.003046 0.000000 0.000000 0.000000
# 3 -0.003046 -0.003046 0.009730 0.000000 0.000000 0.000000
# 4 0.000000 0.000000 0.000000 0.038295 0.000000 0.000000
# 5 0.000000 0.000000 0.000000 0.000000 0.038295 0.000000
# 6 0.000000 0.000000 0.000000 0.000000 0.000000 0.037812
#
#
# Mechanical properties :
#
#
# Convention : Reuss Voigt Hill
#
# Bulk Modulus (GPa) = 58.02254 59.68990 58.85622
# Shear Modulus (GPa) = 27.79765 28.46301 28.13033
#
# Velocity S-wave (km/s) = 3.85958 3.90550 3.88261
# Velocity P-wave (km/s) = 7.13830 7.23355 7.18608
#
# Compressibility (1/GPa) = 0.01723468
#
# Stress axis : x y z
#
# Youngs Moduli (GPa) = 69.56480 69.56480 102.77868
#
# Poissons Ratio (x) = 0.31520 0.31304
# Poissons Ratio (y) = 0.31520 0.31304
# Poissons Ratio (z) = 0.21188 0.21188
#
# Static dielectric constant tensor:
#      x y z
#    x 3.421570 0.000000 0.000000 
#    y 0.000000 3.421570 0.000000 
#    z 0.000000 0.000000 3.746870 
# 
# 
# High freq. dielectric constant tensor:
#      x y z
#    x 1.715520 0.000000 0.000000 
#    y 0.000000 1.715520 0.000000 
#    z 0.000000 0.000000 1.745850 
# 
# From -- ./inp_files/8417.got.cif
#   From: 2010.03.12/outbox.cif.g09.slc.cpg/sg194_5_cif.got.tgz:8417.got - 2010.04.01 12:26:19.
