data_PCOD8330186
_publ_section_title
;
Structure prediction by ZEFSAII (Michael W. Deem and Ramdas Pophale) SiO2 
 PCOD8330186
Probable space group: P 63/M C M
;
_chemical_formula_sum "Si O2"
_cell_formula_units_Z 104
_cell_length_a 21.415468
_cell_length_b 21.415468
_cell_length_c 13.295123
_cell_angle_alpha 90.000000
_cell_angle_beta 90.000000
_cell_angle_gamma 120.000000
_cell_volume 5280.537493
_symmetry_space_group_name_H-M "P 63/M C M"
_symmetry_group_IT_number 193
_symmetry_cell_setting 'hexagonal'
loop_
_space_group_symop_operation_xyz
x,y,z
x-y,x,1/2+z
-y,x-y,z
-x,-y,1/2+z
-x+y,-x,z
y,-x+y,1/2+z
x-y,-y,1/2-z
-x,-x+y,1/2-z
y,x,1/2-z
-y,-x,-z
-x+y,y,-z
x,x-y,-z
-x,-y,-z
-x+y,-x,1/2-z
y,-x+y,-z
x,y,1/2-z
x-y,x,-z
-y,x-y,1/2-z
-x+y,y,1/2+z
x,x-y,1/2+z
-y,-x,1/2+z
y,x,z
x-y,-y,z
-x,-x+y,z
loop_
_atom_site_type_symbol
_atom_site_label
_atom_site_fract_x
_atom_site_fract_y
_atom_site_fract_z
Si Si1 0.706783 0.917534 0.035669
Si Si2 0.333333 0.666667 0.118512
Si Si3 0.436354 0.611585 0.109464
Si Si4 0.599708 0.085723 0.250000
Si Si5 0.346096 0.260815 0.250000
Si Si6 0.082000 0.396056 0.364289
O O1 0.673096 0.888549 0.146608
O O2 0.768938 0.000000 0.040986
O O3 0.743716 0.871858 0.000000
O O4 0.647376 0.904908 0.952008
O O5 0.393578 0.648011 0.161103
O O6 0.333334 0.666667 0.000000
O O7 0.418824 0.535289 0.153084
O O8 0.521583 0.663878 0.118273
O O9 0.405803 0.594198 0.000000
O O10 0.684724 0.115782 0.250000
O O11 0.553252 0.000000 0.250000
O O12 0.306152 0.306152 0.250000
O O13 0.091838 0.373751 0.250000
O O14 0.000000 0.381417 0.374984
#
# Coordination Sequence:
#
# PCOD8330186 Si02
#       6
#    24   8  24  12  12  24
#     4  10  22  40  64  92 125 160 198 244 296 354
#     4   9  24  43  53  76 112 149 199 241 290 364
#     4  11  22  38  58  79 111 151 196 250 304 364
#     4  11  22  36  56  83 111 146 193 244 305 361
#     4   9  20  38  57  87 123 156 201 246 291 357
#     4  10  21  38  58  88 121 152 199 253 303 357
#
# _framework density 19.694965
#
# number of rings (size 3 to 8) (size 9 to 14) (size 15 to 20)
#    0.000    1.846    1.154    2.077    1.615    9.231 
#    0.000    0.000    0.000    0.231    0.000    0.000 
#    0.000    0.000    0.000    0.000    0.000    0.000 
#
# Total GULP energy -1288583.158612 kJ/mol
# GULP energy per Si atom -12390.222679 kJ/mol
# Density = 1.965014 g / cm^3
# Si number density = 19.694965 Si / 1000 Ang^3
#
#
#
# Elastic Constant Matrix: (Units=GPa)
#
#
# Indices 1 2 3 4 5 6 
#
# 1 109.1438 56.1831 38.1233 0.0000 0.0001 -0.0001
# 2 56.1831 109.1438 38.1235 0.0000 0.0000 0.0001
# 3 38.1233 38.1235 148.3122 0.0001 0.0000 -0.0001
# 4 0.0000 0.0000 0.0001 126.7137 0.0259 0.0001
# 5 0.0001 0.0000 0.0000 0.0259 126.7630 0.0000
# 6 -0.0001 0.0001 -0.0001 0.0001 0.0000 26.4801
#
#
#
# Elastic Compliance Matrix: (Units=1/GPa)
#
#
# Indices 1 2 3 4 5 6 
#
# 1 0.012872 -0.006010 -0.001764 0.000000 0.000000 0.000000
# 2 -0.006010 0.012872 -0.001764 0.000000 0.000000 0.000000
# 3 -0.001764 -0.001764 0.007649 0.000000 0.000000 0.000000
# 4 0.000000 0.000000 0.000000 0.007892 -0.000002 0.000000
# 5 0.000000 0.000000 0.000000 -0.000002 0.007889 0.000000
# 6 0.000000 0.000000 0.000000 0.000000 0.000000 0.037764
#
#
# Mechanical properties :
#
#
# Convention : Reuss Voigt Hill
#
# Bulk Modulus (GPa) = 69.84221 70.16218 70.00219
# Shear Modulus (GPa) = 45.13200 71.60270 58.36735
#
# Velocity S-wave (km/s) = 4.79221 6.03612 5.44977
# Velocity P-wave (km/s) = 8.13384 9.18049 8.67297
#
# Compressibility (1/GPa) = 0.01431799
#
# Stress axis : x y z
#
# Youngs Moduli (GPa) = 77.68792 77.68786 130.73017
#
# Poissons Ratio (x) = 0.46690 0.23059
# Poissons Ratio (y) = 0.46690 0.23060
# Poissons Ratio (z) = 0.13703 0.13703
#
# Static dielectric constant tensor:
#      x y z
#    x 3.597930 0.000000 0.000000 
#    y 0.000000 3.597940 0.000000 
#    z 0.000000 0.000000 3.979150 
# 
# 
# High freq. dielectric constant tensor:
#      x y z
#    x 1.753260 0.000000 0.000000 
#    y 0.000000 1.753270 0.000000 
#    z 0.000000 0.000000 1.796900 
# 
# From -- ./inp_files/3758.got.cif
#   From: 2010.03.12/outbox.cif.g09.slc.cpg/sg193_2_cif.got.tgz:3758.got - 2010.04.01 12:20:39.
