data_PCOD8330862
_publ_section_title
;
Structure prediction by ZEFSAII (Michael W. Deem and Ramdas Pophale) SiO2 
 PCOD8330862
Probable space group: P 63/M M C
;
_chemical_formula_sum "Si O2"
_cell_formula_units_Z 112
_cell_length_a 29.671801
_cell_length_b 29.671801
_cell_length_c 9.673152
_cell_angle_alpha 90.000000
_cell_angle_beta 90.000000
_cell_angle_gamma 120.000000
_cell_volume 7375.414948
_symmetry_space_group_name_H-M "P 63/M M C"
_symmetry_group_IT_number 194
_symmetry_cell_setting 'hexagonal'
loop_
_space_group_symop_operation_xyz
x,y,z
x-y,x,1/2+z
-y,x-y,z
-x,-y,1/2+z
-x+y,-x,z
y,-x+y,1/2+z
x-y,-y,-z
-x,-x+y,-z
y,x,-z
-y,-x,1/2-z
-x+y,y,1/2-z
x,x-y,1/2-z
-x,-y,-z
-x+y,-x,1/2-z
y,-x+y,-z
x,y,1/2-z
x-y,x,-z
-y,x-y,1/2-z
-x+y,y,z
x,x-y,z
-y,-x,z
y,x,1/2+z
x-y,-y,1/2+z
-x,-x+y,1/2+z
loop_
_atom_site_type_symbol
_atom_site_label
_atom_site_fract_x
_atom_site_fract_y
_atom_site_fract_z
Si Si1 0.048681 0.398664 0.409480
Si Si2 0.607092 0.214183 0.915118
Si Si3 0.666667 0.333334 0.585447
Si Si4 0.782841 0.217160 0.584390
Si Si5 0.159331 0.840669 0.086475
Si Si6 0.705984 0.755063 0.409885
Si Si7 0.666940 0.157127 0.913948
O O1 0.034545 0.399652 0.250000
O O2 0.062899 0.353376 0.434541
O O3 0.096848 0.454061 0.456661
O O4 0.000000 0.389770 0.500000
O O5 0.607265 0.214530 0.750000
O O6 0.636888 0.273776 0.969555
O O7 0.634281 0.182672 0.973916
O O8 0.666667 0.333334 0.750000
O O9 0.783509 0.216492 0.750000
O O10 0.811835 0.188166 0.521961
O O11 0.810846 0.275290 0.525144
O O12 0.162501 0.837500 0.250000
O O13 0.098695 0.809876 0.041362
O O14 0.746091 0.746091 0.500000
O O15 0.721529 0.757094 0.250000
O O16 0.669350 0.161585 0.750000
#
# Coordination Sequence:
#
# PCOD8330862 Si02
#       7
#    24  12   4  12  12  24  24
#     4   9  16  26  40  57  78 105 135 167 202 237
#     4   9  16  23  33  50  76 104 127 157 203 257
#     4   9  15  24  33  51  81 108 124 149 211 270
#     4   9  13  20  35  53  71  94 129 170 200 233
#     4   9  14  23  39  58  77 102 139 174 199 234
#     4   9  16  26  40  59  82 108 139 173 206 238
#     4   9  15  23  35  53  74  99 132 166 200 242
#
# _framework density 15.185586000000001
#
# number of rings (size 3 to 8) (size 9 to 14) (size 15 to 20)
#    0.000    3.000    2.143    0.643    0.000    2.571 
#    0.000    1.071    0.000    0.000    0.000    0.750 
#    0.000    0.000    0.000    3.429    0.000    7.071 
#
# Total GULP energy -1388161.325991 kJ/mol
# GULP energy per Si atom -12394.297553 kJ/mol
# Density = 1.515102 g / cm^3
# Si number density = 15.185586 Si / 1000 Ang^3
#
#
#
# Elastic Constant Matrix: (Units=GPa)
#
#
# Indices 1 2 3 4 5 6 
#
# 1 128.9400 72.8779 30.6557 0.0000 0.0000 0.0000
# 2 72.8779 128.9398 30.6557 0.0000 0.0000 0.0000
# 3 30.6557 30.6557 23.8778 0.0000 0.0000 0.0000
# 4 0.0000 0.0000 0.0000 12.3698 0.0000 0.0000
# 5 0.0000 0.0000 0.0000 0.0000 12.3697 0.0000
# 6 0.0000 0.0000 0.0000 0.0000 0.0000 28.0310
#
#
#
# Elastic Compliance Matrix: (Units=1/GPa)
#
#
# Indices 1 2 3 4 5 6 
#
# 1 0.012980 -0.004857 -0.010429 0.000000 0.000000 0.000000
# 2 -0.004857 0.012980 -0.010429 0.000000 0.000000 0.000000
# 3 -0.010429 -0.010429 0.068659 0.000000 0.000000 0.000000
# 4 0.000000 0.000000 0.000000 0.080842 0.000000 0.000000
# 5 0.000000 0.000000 0.000000 0.000000 0.080842 0.000000
# 6 0.000000 0.000000 0.000000 0.000000 0.000000 0.035675
#
#
# Mechanical properties :
#
#
# Convention : Reuss Voigt Hill
#
# Bulk Modulus (GPa) = 23.15400 61.12623 42.14012
# Shear Modulus (GPa) = 13.97403 20.39199 17.18301
#
# Velocity S-wave (km/s) = 3.03680 3.66847 3.36748
# Velocity P-wave (km/s) = 5.25135 7.63438 6.55211
#
# Compressibility (1/GPa) = 0.04318908
#
# Stress axis : x y z
#
# Youngs Moduli (GPa) = 77.03953 77.03936 14.56469
#
# Poissons Ratio (x) = 0.37418 0.15190
# Poissons Ratio (y) = 0.37419 0.15190
# Poissons Ratio (z) = 0.80346 0.80346
#
# Static dielectric constant tensor:
#      x y z
#    x 3.003760 0.000000 0.000000 
#    y 0.000000 3.003760 0.000000 
#    z 0.000000 0.000000 2.407510 
# 
# 
# High freq. dielectric constant tensor:
#      x y z
#    x 1.576070 0.000000 0.000000 
#    y 0.000000 1.576070 0.000000 
#    z 0.000000 0.000000 1.520700 
# 
# From -- ./inp_files/1980.got.cif
#   From: 2010.03.12/outbox.cif.g09.slc.cpg/sg194_1_cif.got.tgz:1980.got - 2010.04.01 12:26:19.
