data_PCOD8330027
_publ_section_title
;
Structure prediction by ZEFSAII (Michael W. Deem and Ramdas Pophale) SiO2 
 PCOD8330027
Probable space group: P 63/M C M
;
_chemical_formula_sum "Si O2"
_cell_formula_units_Z 144
_cell_length_a 31.213809
_cell_length_b 31.213809
_cell_length_c 8.714947
_cell_angle_alpha 90.000000
_cell_angle_beta 90.000000
_cell_angle_gamma 120.000000
_cell_volume 7353.412332
_symmetry_space_group_name_H-M "P 63/M C M"
_symmetry_group_IT_number 193
_symmetry_cell_setting 'hexagonal'
loop_
_space_group_symop_operation_xyz
x,y,z
x-y,x,1/2+z
-y,x-y,z
-x,-y,1/2+z
-x+y,-x,z
y,-x+y,1/2+z
x-y,-y,1/2-z
-x,-x+y,1/2-z
y,x,1/2-z
-y,-x,-z
-x+y,y,-z
x,x-y,-z
-x,-y,-z
-x+y,-x,1/2-z
y,-x+y,-z
x,y,1/2-z
x-y,x,-z
-y,x-y,1/2-z
-x+y,y,1/2+z
x,x-y,1/2+z
-y,-x,1/2+z
y,x,z
x-y,-y,z
-x,-x+y,z
loop_
_atom_site_type_symbol
_atom_site_label
_atom_site_fract_x
_atom_site_fract_y
_atom_site_fract_z
Si Si1 0.710414 0.765993 0.569951
Si Si2 0.515513 0.663203 0.931819
Si Si3 0.425417 0.666853 0.432586
Si Si4 0.943636 0.425568 0.428974
Si Si5 0.144173 0.199869 0.569638
Si Si6 0.851639 0.239822 0.930210
O O1 0.717950 0.776099 0.750000
O O2 0.724573 0.724573 0.519813
O O3 0.745080 0.817767 0.487064
O O4 0.654163 0.747514 0.519596
O O5 0.507066 0.660195 0.750000
O O6 0.558839 0.716690 0.986835
O O7 0.465288 0.651451 0.016651
O O8 0.532730 0.624794 0.983031
O O9 0.372232 0.627769 0.500000
O O10 0.441423 0.720712 0.500000
O O11 0.422526 0.667720 0.250000
O O12 0.934857 0.467429 0.500000
O O13 0.930308 0.420531 0.250000
O O14 0.000000 0.438412 0.455708
O O15 0.090266 0.180532 0.500000
O O16 0.140738 0.201000 0.750000
O O17 0.162442 0.162442 0.513904
O O18 0.846090 0.234735 0.750000
O O19 0.811842 0.188159 0.000000
#
# Coordination Sequence:
#
# PCOD8330027 Si02
#       6
#    24  24  24  24  24  24
#     4   9  18  34  55  79 108 142 180 223 271 321
#     4  11  23  39  59  85 116 152 192 233 280 332
#     4  12  25  43  65  90 119 150 187 231 282 338
#     4  10  21  38  60  86 115 148 187 232 283 335
#     4  10  20  33  51  77 106 137 176 221 269 321
#     4  10  22  37  55  79 109 147 187 226 271 324
#
# _framework density 19.582746
#
# number of rings (size 3 to 8) (size 9 to 14) (size 15 to 20)
#    0.000    1.667    0.000    4.667    0.000    7.333 
#    0.000    1.667    0.000    2.167    0.000    0.000 
#    0.000    0.000    0.000    0.000    0.000    0.000 
#
# Total GULP energy -1786202.339692 kJ/mol
# GULP energy per Si atom -12404.182915 kJ/mol
# Density = 1.953817 g / cm^3
# Si number density = 19.582746 Si / 1000 Ang^3
#
#
#
# Elastic Constant Matrix: (Units=GPa)
#
#
# Indices 1 2 3 4 5 6 
#
# 1 106.5243 38.1015 37.6118 0.0000 0.0000 0.0000
# 2 38.1015 106.5243 37.6118 0.0000 0.0000 0.0000
# 3 37.6118 37.6118 85.8774 0.0000 0.0000 0.0000
# 4 0.0000 0.0000 0.0000 30.4023 0.0000 0.0000
# 5 0.0000 0.0000 0.0000 0.0000 30.4023 0.0000
# 6 0.0000 0.0000 0.0000 0.0000 0.0000 34.2114
#
#
#
# Elastic Compliance Matrix: (Units=1/GPa)
#
#
# Indices 1 2 3 4 5 6 
#
# 1 0.011785 -0.002830 -0.003922 0.000000 0.000000 0.000000
# 2 -0.002830 0.011785 -0.003922 0.000000 0.000000 0.000000
# 3 -0.003922 -0.003922 0.015080 0.000000 0.000000 0.000000
# 4 0.000000 0.000000 0.000000 0.032892 0.000000 0.000000
# 5 0.000000 0.000000 0.000000 0.000000 0.032892 0.000000
# 6 0.000000 0.000000 0.000000 0.000000 0.000000 0.029230
#
#
# Mechanical properties :
#
#
# Convention : Reuss Voigt Hill
#
# Bulk Modulus (GPa) = 57.79903 58.39733 58.09818
# Shear Modulus (GPa) = 31.09880 31.37659 31.23770
#
# Velocity S-wave (km/s) = 3.98938 4.00716 3.99828
# Velocity P-wave (km/s) = 7.12738 7.16208 7.14475
#
# Compressibility (1/GPa) = 0.01730133
#
# Stress axis : x y z
#
# Youngs Moduli (GPa) = 84.85663 84.85663 66.31461
#
# Poissons Ratio (x) = 0.24018 0.26006
# Poissons Ratio (y) = 0.24018 0.26006
# Poissons Ratio (z) = 0.33278 0.33278
#
# Static dielectric constant tensor:
#      x y z
#    x 3.682240 0.000000 0.000000 
#    y 0.000000 3.682240 0.000000 
#    z 0.000000 0.000000 3.599520 
# 
# 
# High freq. dielectric constant tensor:
#      x y z
#    x 1.766170 0.000000 0.000000 
#    y 0.000000 1.766170 0.000000 
#    z 0.000000 0.000000 1.768820 
# 
# From -- ./inp_files/1527.got.cif
#   From: 2010.03.12/outbox.cif.g09.slc.cpg/sg193_1_cif.got.tgz:1527.got - 2010.04.01 12:20:39.
