data_PCOD8330269
_publ_section_title
;
Structure prediction by ZEFSAII (Michael W. Deem and Ramdas Pophale) SiO2 
 PCOD8330269
Probable space group: P 63/M C M
;
_chemical_formula_sum "Si O2"
_cell_formula_units_Z 96
_cell_length_a 29.177458
_cell_length_b 29.177458
_cell_length_c 9.925972
_cell_angle_alpha 90.000000
_cell_angle_beta 90.000000
_cell_angle_gamma 120.000000
_cell_volume 7318.104093
_symmetry_space_group_name_H-M "P 63/M C M"
_symmetry_group_IT_number 193
_symmetry_cell_setting 'hexagonal'
loop_
_space_group_symop_operation_xyz
x,y,z
x-y,x,1/2+z
-y,x-y,z
-x,-y,1/2+z
-x+y,-x,z
y,-x+y,1/2+z
x-y,-y,1/2-z
-x,-x+y,1/2-z
y,x,1/2-z
-y,-x,-z
-x+y,y,-z
x,x-y,-z
-x,-y,-z
-x+y,-x,1/2-z
y,-x+y,-z
x,y,1/2-z
x-y,x,-z
-y,x-y,1/2-z
-x+y,y,1/2+z
x,x-y,1/2+z
-y,-x,1/2+z
y,x,z
x-y,-y,z
-x,-x+y,z
loop_
_atom_site_type_symbol
_atom_site_label
_atom_site_fract_x
_atom_site_fract_y
_atom_site_fract_z
Si Si1 0.233124 0.843751 0.400838
Si Si2 0.941156 0.604269 0.910133
Si Si3 0.515801 0.398657 0.591563
Si Si4 0.220338 0.515315 0.101858
O O1 0.182483 0.817518 0.500000
O O2 0.214068 0.847651 0.250000
O O3 0.276500 0.901712 0.458310
O O4 0.260877 0.808617 0.396155
O O5 0.940651 0.604273 0.750000
O O6 0.920835 0.544391 0.957146
O O7 0.000000 0.642607 0.968250
O O8 0.550555 0.449446 0.500000
O O9 0.522932 0.413702 0.750000
O O10 0.532958 0.354900 0.561106
O O11 0.243344 0.537200 0.250000
O O12 0.269858 0.539715 0.000000
#
# Coordination Sequence:
#
# PCOD8330269 Si02
#       4
#    24  24  24  24
#     4   8  13  22  37  54  69  86 109 137 167 196
#     4   8  14  25  39  53  71  96 122 144 168 203
#     4   9  17  27  38  53  71  90 113 139 167 204
#     4   8  14  24  37  52  66  79  99 129 163 196
#
# _framework density 13.118150999999999
#
# number of rings (size 3 to 8) (size 9 to 14) (size 15 to 20)
#    0.000    3.750    0.000    3.000    0.000    1.500 
#    0.000    3.750    0.000    2.750    0.000    0.000 
#    0.000    0.000    0.000    0.000    0.000    0.000 
#
# Total GULP energy -1189468.707056 kJ/mol
# GULP energy per Si atom -12390.299032 kJ/mol
# Density = 1.308829 g / cm^3
# Si number density = 13.118151 Si / 1000 Ang^3
#
#
#
# Elastic Constant Matrix: (Units=GPa)
#
#
# Indices 1 2 3 4 5 6 
#
# 1 65.7068 41.7801 33.3838 0.0000 0.0000 0.0000
# 2 41.7801 65.7068 33.3838 0.0000 0.0000 0.0000
# 3 33.3838 33.3838 49.0955 0.0000 0.0000 0.0000
# 4 0.0000 0.0000 0.0000 12.8063 0.0000 0.0000
# 5 0.0000 0.0000 0.0000 0.0000 12.8063 0.0000
# 6 0.0000 0.0000 0.0000 0.0000 0.0000 11.9634
#
#
#
# Elastic Compliance Matrix: (Units=1/GPa)
#
#
# Indices 1 2 3 4 5 6 
#
# 1 0.028950 -0.012844 -0.010952 0.000000 0.000000 0.000000
# 2 -0.012844 0.028950 -0.010952 0.000000 0.000000 0.000000
# 3 -0.010952 -0.010952 0.035263 0.000000 0.000000 0.000000
# 4 0.000000 0.000000 0.000000 0.078086 0.000000 0.000000
# 5 0.000000 0.000000 0.000000 0.000000 0.078086 0.000000
# 6 0.000000 0.000000 0.000000 0.000000 0.000000 0.083589
#
#
# Mechanical properties :
#
#
# Convention : Reuss Voigt Hill
#
# Bulk Modulus (GPa) = 42.25194 44.17830 43.21512
# Shear Modulus (GPa) = 12.18590 12.31264 12.24927
#
# Velocity S-wave (km/s) = 3.05115 3.06697 3.05907
# Velocity P-wave (km/s) = 6.68516 6.80383 6.74476
#
# Compressibility (1/GPa) = 0.02366755
#
# Stress axis : x y z
#
# Youngs Moduli (GPa) = 34.54181 34.54181 28.35847
#
# Poissons Ratio (x) = 0.44365 0.31059
# Poissons Ratio (y) = 0.44365 0.31059
# Poissons Ratio (z) = 0.37831 0.37831
#
# Static dielectric constant tensor:
#      x y z
#    x 2.618430 0.000000 0.000000 
#    y 0.000000 2.618430 0.000000 
#    z 0.000000 0.000000 2.679450 
# 
# 
# High freq. dielectric constant tensor:
#      x y z
#    x 1.467870 0.000000 0.000000 
#    y 0.000000 1.467870 0.000000 
#    z 0.000000 0.000000 1.486690 
# 
# From -- ./inp_files/2266.got.cif
#   From: 2010.03.12/outbox.cif.g09.slc.cpg/sg193_2_cif.got.tgz:2266.got - 2010.04.01 12:20:39.
