data_PCOD8330197
_publ_section_title
;
Structure prediction by ZEFSAII (Michael W. Deem and Ramdas Pophale) SiO2 
 PCOD8330197
Probable space group: P 63/M C M
;
_chemical_formula_sum "Si O2"
_cell_formula_units_Z 168
_cell_length_a 17.250688
_cell_length_b 17.250688
_cell_length_c 31.918010
_cell_angle_alpha 90.000000
_cell_angle_beta 90.000000
_cell_angle_gamma 120.000000
_cell_volume 8225.821463
_symmetry_space_group_name_H-M "P 63/M C M"
_symmetry_group_IT_number 193
_symmetry_cell_setting 'hexagonal'
loop_
_space_group_symop_operation_xyz
x,y,z
x-y,x,1/2+z
-y,x-y,z
-x,-y,1/2+z
-x+y,-x,z
y,-x+y,1/2+z
x-y,-y,1/2-z
-x,-x+y,1/2-z
y,x,1/2-z
-y,-x,-z
-x+y,y,-z
x,x-y,-z
-x,-y,-z
-x+y,-x,1/2-z
y,-x+y,-z
x,y,1/2-z
x-y,x,-z
-y,x-y,1/2-z
-x+y,y,1/2+z
x,x-y,1/2+z
-y,-x,1/2+z
y,x,z
x-y,-y,z
-x,-x+y,z
loop_
_atom_site_type_symbol
_atom_site_label
_atom_site_fract_x
_atom_site_fract_y
_atom_site_fract_z
Si Si1 0.467293 0.100959 0.158399
Si Si2 0.665124 0.173230 0.021382
Si Si3 0.313461 0.106875 0.117920
Si Si4 0.650675 0.900233 0.327278
Si Si5 0.149331 0.520936 0.250000
Si Si6 0.896891 0.510863 0.109734
Si Si7 0.897650 0.692213 0.035877
Si Si8 0.527542 0.712519 0.750000
O O1 0.415452 0.142476 0.133785
O O2 0.463126 0.104520 0.208616
O O3 0.568464 0.142014 0.141637
O O4 0.416329 0.000000 0.143863
O O5 0.648935 0.172787 0.071161
O O6 0.712870 0.112989 0.016472
O O7 0.729675 0.270326 0.000000
O O8 0.566622 0.133244 0.000000
O O9 0.280489 0.149897 0.154495
O O10 0.321916 0.153316 0.073796
O O11 0.248712 0.000000 0.115712
O O12 0.591909 0.895448 0.367227
O O13 0.589066 0.837629 0.290483
O O14 0.706917 0.000000 0.309081
O O15 0.252272 0.543597 0.250000
O O16 0.134659 0.605654 0.250000
O O17 0.000000 0.546601 0.094803
O O18 0.000000 0.756560 0.049638
O O19 0.869642 0.739284 0.000000
#
# Coordination Sequence:
#
# PCOD8330197 Si02
#       8
#    24  24  24  24  12  24  24  12
#     4  10  22  37  62  92 124 166 208 263 318 371
#     4  11  25  41  59  89 131 173 216 258 313 373
#     4  11  23  42  66  94 127 167 215 271 336 398
#     4  11  22  40  65  94 128 169 219 269 322 388
#     4  12  22  39  57  90 138 170 215 258 308 370
#     4  10  21  38  63  92 120 162 219 270 312 371
#     4  11  24  43  68  96 128 166 215 275 335 401
#     4  12  24  39  61  92 135 180 219 256 314 380
#
# _framework density 20.423493000000001
#
# number of rings (size 3 to 8) (size 9 to 14) (size 15 to 20)
#    0.000    1.143    4.286    2.000    4.000    1.714 
#    0.000    0.357    0.000    5.429    0.000    0.000 
#    0.000    0.000    0.000    0.000    0.000    0.000 
#
# Total GULP energy -2081445.134848 kJ/mol
# GULP energy per Si atom -12389.554374 kJ/mol
# Density = 2.037701 g / cm^3
# Si number density = 20.423493 Si / 1000 Ang^3
#
#
#
# Elastic Constant Matrix: (Units=GPa)
#
#
# Indices 1 2 3 4 5 6 
#
# 1 82.8691 38.7417 46.8567 0.0000 0.0000 0.0000
# 2 38.7417 82.8691 46.8567 0.0000 0.0000 0.0000
# 3 46.8567 46.8567 146.1084 0.0000 0.0000 0.0000
# 4 0.0000 0.0000 0.0000 28.8905 0.0000 0.0000
# 5 0.0000 0.0000 0.0000 0.0000 28.8905 0.0000
# 6 0.0000 0.0000 0.0000 0.0000 0.0000 22.0637
#
#
#
# Elastic Compliance Matrix: (Units=1/GPa)
#
#
# Indices 1 2 3 4 5 6 
#
# 1 0.016792 -0.005870 -0.003503 0.000000 0.000000 0.000000
# 2 -0.005870 0.016792 -0.003503 0.000000 0.000000 0.000000
# 3 -0.003503 -0.003503 0.009091 0.000000 0.000000 0.000000
# 4 0.000000 0.000000 0.000000 0.034614 0.000000 0.000000
# 5 0.000000 0.000000 0.000000 0.000000 0.034614 0.000000
# 6 0.000000 0.000000 0.000000 0.000000 0.000000 0.045323
#
#
# Mechanical properties :
#
#
# Convention : Reuss Voigt Hill
#
# Bulk Modulus (GPa) = 59.08662 64.08409 61.58536
# Shear Modulus (GPa) = 26.50877 27.92835 27.21856
#
# Velocity S-wave (km/s) = 3.60662 3.70193 3.65459
# Velocity P-wave (km/s) = 6.80714 7.05111 6.93020
#
# Compressibility (1/GPa) = 0.01692430
#
# Stress axis : x y z
#
# Youngs Moduli (GPa) = 59.55249 59.55249 110.00061
#
# Poissons Ratio (x) = 0.34956 0.38530
# Poissons Ratio (y) = 0.34956 0.38530
# Poissons Ratio (z) = 0.20860 0.20860
#
# Static dielectric constant tensor:
#      x y z
#    x 3.788740 0.000000 0.000000 
#    y 0.000000 3.788740 0.000000 
#    z 0.000000 0.000000 3.840080 
# 
# 
# High freq. dielectric constant tensor:
#      x y z
#    x 1.783590 0.000000 0.000000 
#    y 0.000000 1.783590 0.000000 
#    z 0.000000 0.000000 1.812210 
# 
# From -- ./inp_files/9349.got.cif
#   From: 2010.03.12/outbox.cif.g09.slc.cpg/sg193_5_cif.got.tgz:9349.got - 2010.04.01 12:20:39.
