data_PCOD8330465
_publ_section_title
;
Structure prediction by ZEFSAII (Michael W. Deem and Ramdas Pophale) SiO2 
 PCOD8330465
Probable space group: P 63/M M C
;
_chemical_formula_sum "Si O2"
_cell_formula_units_Z 108
_cell_length_a 17.288322
_cell_length_b 17.288322
_cell_length_c 25.294810
_cell_angle_alpha 90.000000
_cell_angle_beta 90.000000
_cell_angle_gamma 120.000000
_cell_volume 6547.382886
_symmetry_space_group_name_H-M "P 63/M M C"
_symmetry_group_IT_number 194
_symmetry_cell_setting 'hexagonal'
loop_
_space_group_symop_operation_xyz
x,y,z
x-y,x,1/2+z
-y,x-y,z
-x,-y,1/2+z
-x+y,-x,z
y,-x+y,1/2+z
x-y,-y,-z
-x,-x+y,-z
y,x,-z
-y,-x,1/2-z
-x+y,y,1/2-z
x,x-y,1/2-z
-x,-y,-z
-x+y,-x,1/2-z
y,-x+y,-z
x,y,1/2-z
x-y,x,-z
-y,x-y,1/2-z
-x+y,y,z
x,x-y,z
-y,-x,z
y,x,1/2+z
x-y,-y,1/2+z
-x,-x+y,1/2+z
loop_
_atom_site_type_symbol
_atom_site_label
_atom_site_fract_x
_atom_site_fract_y
_atom_site_fract_z
Si Si1 0.156076 0.490089 0.896169
Si Si2 0.940846 0.236028 0.647756
Si Si3 0.694379 0.757726 0.950020
Si Si4 0.998115 0.824688 0.750000
Si Si5 0.593053 0.580620 0.189142
O O1 0.258028 0.516055 0.888026
O O2 0.152452 0.576226 0.917392
O O3 0.106917 0.411079 0.938813
O O4 0.108092 0.458566 0.839366
O O5 0.839960 0.160041 0.635377
O O6 0.003671 0.246403 0.598674
O O7 0.981354 0.214638 0.698235
O O8 0.940706 0.327621 0.660577
O O9 0.719180 0.859590 0.960309
O O10 0.717834 0.717834 0.000000
O O11 0.099542 0.900459 0.750000
O O12 0.933272 0.866544 0.750000
O O13 0.623210 0.596547 0.250000
O O14 0.487308 0.512693 0.183456
#
# Coordination Sequence:
#
# PCOD8330465 Si02
#       5
#    24  24  24  12  24
#     4   9  18  31  48  71  98 128 160 194 238 287
#     4  10  19  32  51  73  95 127 166 201 243 294
#     4  10  20  34  51  72  97 128 165 206 246 288
#     4  10  19  30  45  68  96 124 156 196 243 290
#     4   9  17  30  46  69  99 128 158 196 238 285
#
# _framework density 16.495141
#
# number of rings (size 3 to 8) (size 9 to 14) (size 15 to 20)
#    0.000    2.444    1.111    1.667    0.000    1.778 
#    0.000    0.000    0.000    7.111    0.000    0.000 
#    0.000    0.000    0.000    0.000    0.000    0.000 
#
# Total GULP energy -1339044.584492 kJ/mol
# GULP energy per Si atom -12398.560968 kJ/mol
# Density = 1.645760 g / cm^3
# Si number density = 16.495141 Si / 1000 Ang^3
#
#
#
# Elastic Constant Matrix: (Units=GPa)
#
#
# Indices 1 2 3 4 5 6 
#
# 1 108.8194 64.0385 42.0354 0.0000 0.0000 0.0000
# 2 64.0385 108.8194 42.0354 0.0000 0.0000 0.0000
# 3 42.0354 42.0354 85.0804 0.0000 0.0000 0.0000
# 4 0.0000 0.0000 0.0000 30.6330 0.0000 0.0000
# 5 0.0000 0.0000 0.0000 0.0000 30.6330 0.0000
# 6 0.0000 0.0000 0.0000 0.0000 0.0000 22.3904
#
#
#
# Elastic Compliance Matrix: (Units=1/GPa)
#
#
# Indices 1 2 3 4 5 6 
#
# 1 0.014973 -0.007358 -0.003762 0.000000 0.000000 0.000000
# 2 -0.007358 0.014973 -0.003762 0.000000 0.000000 0.000000
# 3 -0.003762 -0.003762 0.015471 0.000000 0.000000 0.000000
# 4 0.000000 0.000000 0.000000 0.032645 0.000000 0.000000
# 5 0.000000 0.000000 0.000000 0.000000 0.032645 0.000000
# 6 0.000000 0.000000 0.000000 0.000000 0.000000 0.044662
#
#
# Mechanical properties :
#
#
# Convention : Reuss Voigt Hill
#
# Bulk Modulus (GPa) = 63.88986 66.54866 65.21926
# Shear Modulus (GPa) = 26.26733 27.03862 26.65298
#
# Velocity S-wave (km/s) = 3.99485 4.05308 4.02407
# Velocity P-wave (km/s) = 7.75210 7.89527 7.82401
#
# Compressibility (1/GPa) = 0.01565194
#
# Stress axis : x y z
#
# Youngs Moduli (GPa) = 66.78717 66.78717 64.63615
#
# Poissons Ratio (x) = 0.49142 0.24318
# Poissons Ratio (y) = 0.49142 0.24318
# Poissons Ratio (z) = 0.25127 0.25127
#
# Static dielectric constant tensor:
#      x y z
#    x 3.187550 0.000000 0.000000 
#    y 0.000000 3.187550 0.000000 
#    z 0.000000 0.000000 3.004780 
# 
# 
# High freq. dielectric constant tensor:
#      x y z
#    x 1.633200 0.000000 0.000000 
#    y 0.000000 1.633200 0.000000 
#    z 0.000000 0.000000 1.634130 
# 
# From -- ./inp_files/7896.got.cif
#   From: 2010.03.12/outbox.cif.g09.slc.cpg/sg194_4_cif.got.tgz:7896.got - 2010.04.01 12:26:19.
