data_PCOD8330929
_publ_section_title
;
Structure prediction by ZEFSAII (Michael W. Deem and Ramdas Pophale) SiO2 
 PCOD8330929
Probable space group: F M 3
;
_chemical_formula_sum "Si O2"
_cell_formula_units_Z 352
_cell_length_a 27.499164
_cell_length_b 27.499164
_cell_length_c 27.499164
_cell_angle_alpha 90.000000
_cell_angle_beta 90.000000
_cell_angle_gamma 90.000000
_cell_volume 20794.978383
_symmetry_space_group_name_H-M "F M 3"
_symmetry_group_IT_number 202
_symmetry_cell_setting 'cubic'
loop_
_space_group_symop_operation_xyz
x,y,z
z,x,y
y,z,x
-y,-z,x
z,-x,-y
-y,z,-x
-z,-x,y
-z,x,-y
y,-z,-x
-x,-y,z
x,-y,-z
-x,y,-z
-x,-y,-z
-z,-x,-y
-y,-z,-x
y,z,-x
-z,x,y
y,-z,x
z,x,-y
z,-x,y
-y,z,x
x,y,-z
-x,y,z
x,-y,z
x,1/2+y,1/2+z
z,1/2+x,1/2+y
y,1/2+z,1/2+x
-y,1/2-z,1/2+x
z,1/2-x,1/2-y
-y,1/2+z,1/2-x
-z,1/2-x,1/2+y
-z,1/2+x,1/2-y
y,1/2-z,1/2-x
-x,1/2-y,1/2+z
x,1/2-y,1/2-z
-x,1/2+y,1/2-z
-x,1/2-y,1/2-z
-z,1/2-x,1/2-y
-y,1/2-z,1/2-x
y,1/2+z,1/2-x
-z,1/2+x,1/2+y
y,1/2-z,1/2+x
z,1/2+x,1/2-y
z,1/2-x,1/2+y
-y,1/2+z,1/2+x
x,1/2+y,1/2-z
-x,1/2+y,1/2+z
x,1/2-y,1/2+z
1/2+x,y,1/2+z
1/2+z,x,1/2+y
1/2+y,z,1/2+x
1/2-y,-z,1/2+x
1/2+z,-x,1/2-y
1/2-y,z,1/2-x
1/2-z,-x,1/2+y
1/2-z,x,1/2-y
1/2+y,-z,1/2-x
1/2-x,-y,1/2+z
1/2+x,-y,1/2-z
1/2-x,y,1/2-z
1/2-x,-y,1/2-z
1/2-z,-x,1/2-y
1/2-y,-z,1/2-x
1/2+y,z,1/2-x
1/2-z,x,1/2+y
1/2+y,-z,1/2+x
1/2+z,x,1/2-y
1/2+z,-x,1/2+y
1/2-y,z,1/2+x
1/2+x,y,1/2-z
1/2-x,y,1/2+z
1/2+x,-y,1/2+z
1/2+x,1/2+y,z
1/2+z,1/2+x,y
1/2+y,1/2+z,x
1/2-y,1/2-z,x
1/2+z,1/2-x,-y
1/2-y,1/2+z,-x
1/2-z,1/2-x,y
1/2-z,1/2+x,-y
1/2+y,1/2-z,-x
1/2-x,1/2-y,z
1/2+x,1/2-y,-z
1/2-x,1/2+y,-z
1/2-x,1/2-y,-z
1/2-z,1/2-x,-y
1/2-y,1/2-z,-x
1/2+y,1/2+z,-x
1/2-z,1/2+x,y
1/2+y,1/2-z,x
1/2+z,1/2+x,-y
1/2+z,1/2-x,y
1/2-y,1/2+z,x
1/2+x,1/2+y,-z
1/2-x,1/2+y,z
1/2+x,1/2-y,z
loop_
_atom_site_type_symbol
_atom_site_label
_atom_site_fract_x
_atom_site_fract_y
_atom_site_fract_z
Si Si1 0.635572 0.216428 0.443522
Si Si2 0.684682 0.444621 0.687154
Si Si3 0.712835 0.637698 0.055425
Si Si4 0.379036 0.379036 0.379036
Si Si5 0.944795 0.055207 0.555207
O O1 0.619392 0.219215 0.500000
O O2 0.671633 0.260803 0.430246
O O3 0.663105 0.165983 0.432611
O O4 0.588222 0.218841 0.409926
O O5 0.674055 0.500000 0.672104
O O6 0.677378 0.436632 0.744595
O O7 0.645109 0.411467 0.661805
O O8 0.713021 0.618899 0.000000
O O9 0.412006 0.412006 0.412006
O O10 0.926661 0.059635 0.500000
#
# Coordination Sequence:
#
# PCOD8330929 Si02
#       5
#    96  96  96  32  32
#     4  10  20  35  54  76 102 133 168 206 252 304
#     4  10  20  33  50  75 104 136 171 210 253 299
#     4  10  20  35  54  76 102 133 168 206 252 304
#     4  12  18  31  52  75 105 132 177 222 255 297
#     4   9  19  34  48  66  99 147 195 228 258 297
#
# _framework density 16.927163
#
# number of rings (size 3 to 8) (size 9 to 14) (size 15 to 20)
#    0.000    1.909    2.727    2.455    0.000    3.818 
#    0.000    0.000    0.000    0.000    0.000    0.000 
#    0.000    0.000    0.000   16.909    0.000    0.000 
#
# Total GULP energy -1091166.712362 kJ/mol
# GULP energy per Si atom -12399.621731 kJ/mol
# Density = 1.688864 g / cm^3
# Si number density = 16.927163 Si / 1000 Ang^3
#
#
#
# Elastic Constant Matrix: (Units=GPa)
#
#
# Indices 1 2 3 4 5 6 
#
# 1 88.7195 41.5499 41.6152 0.0000 0.0000 0.0000
# 2 41.5499 88.7845 41.5533 0.0000 0.0000 0.0000
# 3 41.6152 41.5533 88.7148 0.0000 0.0000 0.0000
# 4 0.0000 0.0000 0.0000 30.5141 0.0000 0.0000
# 5 0.0000 0.0000 0.0000 0.0000 30.5147 0.0000
# 6 0.0000 0.0000 0.0000 0.0000 0.0000 30.5141
#
#
#
# Elastic Compliance Matrix: (Units=1/GPa)
#
#
# Indices 1 2 3 4 5 6 
#
# 1 0.016082 -0.005117 -0.005147 0.000000 0.000000 0.000000
# 2 -0.005117 0.016054 -0.005119 0.000000 0.000000 0.000000
# 3 -0.005147 -0.005119 0.016084 0.000000 0.000000 0.000000
# 4 0.000000 0.000000 0.000000 0.032772 0.000000 0.000000
# 5 0.000000 0.000000 0.000000 0.000000 0.032771 0.000000
# 6 0.000000 0.000000 0.000000 0.000000 0.000000 0.032772
#
#
# Mechanical properties :
#
#
# Convention : Reuss Voigt Hill
#
# Bulk Modulus (GPa) = 57.29507 57.29507 57.29507
# Shear Modulus (GPa) = 27.30446 27.74192 27.52319
#
# Velocity S-wave (km/s) = 4.02064 4.05272 4.03672
# Velocity P-wave (km/s) = 7.44819 7.47134 7.45978
#
# Compressibility (1/GPa) = 0.01745351
#
# Stress axis : x y z
#
# Youngs Moduli (GPa) = 62.17960 62.29015 62.17251
#
# Poissons Ratio (x) = 0.31876 0.32001
# Poissons Ratio (y) = 0.31819 0.31826
# Poissons Ratio (z) = 0.32005 0.31887
#
# Static dielectric constant tensor:
#      x y z
#    x 3.072510 0.000000 0.000000 
#    y 0.000000 3.073110 0.000000 
#    z 0.000000 0.000000 3.073090 
# 
# 
# High freq. dielectric constant tensor:
#      x y z
#    x 1.652100 0.000000 0.000000 
#    y 0.000000 1.652100 0.000000 
#    z 0.000000 0.000000 1.652100 
# 
# From -- ./inp_files/438.got.cif
#   From: 2010.03.12/outbox.cif.g09.slc.cpg/sg202_cif.got.tgz:438.got - 2010.03.30 09:02:26.
