data_PCOD8330744
_publ_section_title
;
Structure prediction by ZEFSAII (Michael W. Deem and Ramdas Pophale) SiO2 
 PCOD8330744
Probable space group: P 63/M M C
;
_chemical_formula_sum "Si O2"
_cell_formula_units_Z 108
_cell_length_a 17.289921
_cell_length_b 17.289921
_cell_length_c 25.413265
_cell_angle_alpha 90.000000
_cell_angle_beta 90.000000
_cell_angle_gamma 120.000000
_cell_volume 6579.260992
_symmetry_space_group_name_H-M "P 63/M M C"
_symmetry_group_IT_number 194
_symmetry_cell_setting 'hexagonal'
loop_
_space_group_symop_operation_xyz
x,y,z
x-y,x,1/2+z
-y,x-y,z
-x,-y,1/2+z
-x+y,-x,z
y,-x+y,1/2+z
x-y,-y,-z
-x,-x+y,-z
y,x,-z
-y,-x,1/2-z
-x+y,y,1/2-z
x,x-y,1/2-z
-x,-y,-z
-x+y,-x,1/2-z
y,-x+y,-z
x,y,1/2-z
x-y,x,-z
-y,x-y,1/2-z
-x+y,y,z
x,x-y,z
-y,-x,z
y,x,1/2+z
x-y,-y,1/2+z
-x,-x+y,1/2+z
loop_
_atom_site_type_symbol
_atom_site_label
_atom_site_fract_x
_atom_site_fract_y
_atom_site_fract_z
Si Si1 0.157631 0.490940 0.378691
Si Si2 0.061245 0.757875 0.953013
Si Si3 0.490260 0.156582 0.499225
Si Si4 0.001503 0.818427 0.250000
Si Si5 0.296496 0.058917 0.852356
O O1 0.262010 0.524019 0.370314
O O2 0.140440 0.570220 0.360437
O O3 0.131491 0.465424 0.439701
O O4 0.096284 0.402475 0.344320
O O5 0.145320 0.854681 0.951306
O O6 0.089907 0.683662 0.964024
O O7 0.013290 0.740817 0.897760
O O8 0.000000 0.758350 0.000000
O O9 0.571927 0.143853 0.481504
O O10 0.517657 0.258829 0.489290
O O11 0.906099 0.812197 0.250000
O O12 0.010666 0.767114 0.299917
O O13 0.077867 0.922134 0.250000
O O14 0.281837 0.140919 0.868202
#
# Coordination Sequence:
#
# PCOD8330744 Si02
#       5
#    24  24  24  12  24
#     4   9  16  28  47  73 104 137 168 197 232 280
#     4  11  20  31  47  69  98 129 158 193 243 299
#     4   9  17  28  45  70 101 135 169 201 234 277
#     4  10  21  38  59  76  90 116 160 212 255 292
#     4  10  20  35  52  72  97 126 161 202 249 291
#
# _framework density 16.415217999999999
#
# number of rings (size 3 to 8) (size 9 to 14) (size 15 to 20)
#    0.000    2.222    2.222    1.889    0.000    3.111 
#    0.000    0.556    0.000    5.333    0.000    1.556 
#    0.000    0.000    0.000    1.333    0.000    0.000 
#
# Total GULP energy -1339221.473154 kJ/mol
# GULP energy per Si atom -12400.198826 kJ/mol
# Density = 1.637786 g / cm^3
# Si number density = 16.415218 Si / 1000 Ang^3
#
#
#
# Elastic Constant Matrix: (Units=GPa)
#
#
# Indices 1 2 3 4 5 6 
#
# 1 117.0198 70.8282 62.5181 0.0000 0.0000 0.0000
# 2 70.8282 117.0198 62.5181 0.0000 0.0000 0.0000
# 3 62.5181 62.5181 94.0512 0.0000 0.0000 0.0000
# 4 0.0000 0.0000 0.0000 23.9591 0.0000 0.0000
# 5 0.0000 0.0000 0.0000 0.0000 23.9591 0.0000
# 6 0.0000 0.0000 0.0000 0.0000 0.0000 23.0958
#
#
#
# Elastic Compliance Matrix: (Units=1/GPa)
#
#
# Indices 1 2 3 4 5 6 
#
# 1 0.015598 -0.006050 -0.006347 0.000000 0.000000 0.000000
# 2 -0.006050 0.015598 -0.006347 0.000000 0.000000 0.000000
# 3 -0.006347 -0.006347 0.019070 0.000000 0.000000 0.000000
# 4 0.000000 0.000000 0.000000 0.041738 0.000000 0.000000
# 5 0.000000 0.000000 0.000000 0.000000 0.041738 0.000000
# 6 0.000000 0.000000 0.000000 0.000000 0.000000 0.043298
#
#
# Mechanical properties :
#
#
# Convention : Reuss Voigt Hill
#
# Bulk Modulus (GPa) = 78.25276 79.97994 79.11635
# Shear Modulus (GPa) = 22.85313 23.01792 22.93553
#
# Velocity S-wave (km/s) = 3.73526 3.74870 3.74198
# Velocity P-wave (km/s) = 8.14722 8.21984 8.18361
#
# Compressibility (1/GPa) = 0.01277910
#
# Stress axis : x y z
#
# Youngs Moduli (GPa) = 64.10878 64.10878 52.43767
#
# Poissons Ratio (x) = 0.38789 0.33281
# Poissons Ratio (y) = 0.38789 0.33281
# Poissons Ratio (z) = 0.40689 0.40689
#
# Static dielectric constant tensor:
#      x y z
#    x 3.144470 0.000000 0.000000 
#    y 0.000000 3.144470 0.000000 
#    z 0.000000 0.000000 2.886500 
# 
# 
# High freq. dielectric constant tensor:
#      x y z
#    x 1.637930 0.000000 0.000000 
#    y 0.000000 1.637930 0.000000 
#    z 0.000000 0.000000 1.602700 
# 
# From -- ./inp_files/7966.got.cif
#   From: 2010.03.12/outbox.cif.g09.slc.cpg/sg194_4_cif.got.tgz:7966.got - 2010.04.01 12:26:19.
