data_PCOD8330410
_publ_section_title
;
Structure prediction by ZEFSAII (Michael W. Deem and Ramdas Pophale) SiO2 
 PCOD8330410
Probable space group: P 63/M M C
;
_chemical_formula_sum "Si O2"
_cell_formula_units_Z 112
_cell_length_a 29.875577
_cell_length_b 29.875577
_cell_length_c 9.070996
_cell_angle_alpha 90.000000
_cell_angle_beta 90.000000
_cell_angle_gamma 120.000000
_cell_volume 7011.617409
_symmetry_space_group_name_H-M "P 63/M M C"
_symmetry_group_IT_number 194
_symmetry_cell_setting 'hexagonal'
loop_
_space_group_symop_operation_xyz
x,y,z
x-y,x,1/2+z
-y,x-y,z
-x,-y,1/2+z
-x+y,-x,z
y,-x+y,1/2+z
x-y,-y,-z
-x,-x+y,-z
y,x,-z
-y,-x,1/2-z
-x+y,y,1/2-z
x,x-y,1/2-z
-x,-y,-z
-x+y,-x,1/2-z
y,-x+y,-z
x,y,1/2-z
x-y,x,-z
-y,x-y,1/2-z
-x+y,y,z
x,x-y,z
-y,-x,z
y,x,1/2+z
x-y,-y,1/2+z
-x,-x+y,1/2+z
loop_
_atom_site_type_symbol
_atom_site_label
_atom_site_fract_x
_atom_site_fract_y
_atom_site_fract_z
Si Si1 0.386576 0.773151 0.918905
Si Si2 0.666667 0.333334 0.577307
Si Si3 0.204627 0.152905 0.077037
Si Si4 0.199809 0.502600 0.582680
Si Si5 0.307889 0.052427 0.423810
Si Si6 0.251989 0.852198 0.078561
O O1 0.376636 0.753271 0.750000
O O2 0.448006 0.807140 0.949462
O O3 0.362536 0.725071 0.025478
O O4 0.666667 0.333334 0.750000
O O5 0.195576 0.151316 0.250000
O O6 0.199343 0.099672 0.018960
O O7 0.261374 0.198775 0.033838
O O8 0.160705 0.160705 0.000000
O O9 0.183473 0.482796 0.750000
O O10 0.259684 0.519368 0.556300
O O11 0.162896 0.457268 0.471836
O O12 0.312453 0.047698 0.250000
O O13 0.360261 0.099142 0.484641
O O14 0.298682 0.000000 0.500000
O O15 0.259782 0.866545 0.250000
O O16 0.194903 0.805098 0.044748
#
# Coordination Sequence:
#
# PCOD8330410 Si02
#       6
#    12   4  24  24  24  24
#     4  10  18  32  48  64  89 125 166 200 232 280
#     4  12  22  26  40  66  94 125 157 198 244 278
#     4   9  18  31  47  69  95 122 153 190 227 269
#     4   9  17  29  47  66  88 121 160 197 233 274
#     4  10  19  32  50  71  95 122 155 190 232 281
#     4  10  20  32  46  67  98 128 156 191 231 275
#
# _framework density 15.97349
#
# number of rings (size 3 to 8) (size 9 to 14) (size 15 to 20)
#    0.000    2.357    1.071    2.250    0.000    4.286 
#    0.000    0.000    0.000    0.214    0.000    0.750 
#    0.000    0.000    0.000    0.000    0.000    0.000 
#
# Total GULP energy -1388987.844938 kJ/mol
# GULP energy per Si atom -12401.677187 kJ/mol
# Density = 1.593713 g / cm^3
# Si number density = 15.973490 Si / 1000 Ang^3
#
#
#
# Elastic Constant Matrix: (Units=GPa)
#
#
# Indices 1 2 3 4 5 6 
#
# 1 99.8166 49.4551 43.7903 -0.0001 0.0000 0.0000
# 2 49.4551 99.8164 43.7903 0.0000 0.0000 0.0000
# 3 43.7903 43.7903 75.8713 -0.0001 0.0000 0.0000
# 4 -0.0001 0.0000 -0.0001 23.9849 0.0000 0.0000
# 5 0.0000 0.0000 0.0000 0.0000 23.9849 0.0000
# 6 0.0000 0.0000 0.0000 0.0000 0.0000 25.1807
#
#
#
# Elastic Compliance Matrix: (Units=1/GPa)
#
#
# Indices 1 2 3 4 5 6 
#
# 1 0.014993 -0.004864 -0.005846 0.000000 0.000000 0.000000
# 2 -0.004864 0.014993 -0.005846 0.000000 0.000000 0.000000
# 3 -0.005846 -0.005846 0.019929 0.000000 0.000000 0.000000
# 4 0.000000 0.000000 0.000000 0.041693 0.000000 0.000000
# 5 0.000000 0.000000 0.000000 0.000000 0.041693 0.000000
# 6 0.000000 0.000000 0.000000 0.000000 0.000000 0.039713
#
#
# Mechanical properties :
#
#
# Convention : Reuss Voigt Hill
#
# Bulk Modulus (GPa) = 59.51586 61.06397 60.28992
# Shear Modulus (GPa) = 23.61537 23.86134 23.73836
#
# Velocity S-wave (km/s) = 3.84918 3.86918 3.85919
# Velocity P-wave (km/s) = 7.55612 7.63361 7.59496
#
# Compressibility (1/GPa) = 0.01680224
#
# Stress axis : x y z
#
# Youngs Moduli (GPa) = 66.69827 66.69815 50.17872
#
# Poissons Ratio (x) = 0.32439 0.29336
# Poissons Ratio (y) = 0.32439 0.29336
# Poissons Ratio (z) = 0.38994 0.38994
#
# Static dielectric constant tensor:
#      x y z
#    x 2.958090 0.000000 0.000000 
#    y 0.000000 2.958090 0.000000 
#    z 0.000000 0.000000 3.070620 
# 
# 
# High freq. dielectric constant tensor:
#      x y z
#    x 1.597600 0.000000 0.000000 
#    y 0.000000 1.597600 0.000000 
#    z 0.000000 0.000000 1.621150 
# 
# From -- ./inp_files/1913.got.cif
#   From: 2010.03.12/outbox.cif.g09.slc.cpg/sg194_1_cif.got.tgz:1913.got - 2010.04.01 12:26:19.
