data_PCOD8330449
_publ_section_title
;
Structure prediction by ZEFSAII (Michael W. Deem and Ramdas Pophale) SiO2 
 PCOD8330449
Probable space group: P 63/M M C
;
_chemical_formula_sum "Si O2"
_cell_formula_units_Z 88
_cell_length_a 25.793319
_cell_length_b 25.793319
_cell_length_c 8.776571
_cell_angle_alpha 90.000000
_cell_angle_beta 90.000000
_cell_angle_gamma 120.000000
_cell_volume 5056.732275
_symmetry_space_group_name_H-M "P 63/M M C"
_symmetry_group_IT_number 194
_symmetry_cell_setting 'hexagonal'
loop_
_space_group_symop_operation_xyz
x,y,z
x-y,x,1/2+z
-y,x-y,z
-x,-y,1/2+z
-x+y,-x,z
y,-x+y,1/2+z
x-y,-y,-z
-x,-x+y,-z
y,x,-z
-y,-x,1/2-z
-x+y,y,1/2-z
x,x-y,1/2-z
-x,-y,-z
-x+y,-x,1/2-z
y,-x+y,-z
x,y,1/2-z
x-y,x,-z
-y,x-y,1/2-z
-x+y,y,z
x,x-y,z
-y,-x,z
y,x,1/2+z
x-y,-y,1/2+z
-x,-x+y,1/2+z
loop_
_atom_site_type_symbol
_atom_site_label
_atom_site_fract_x
_atom_site_fract_y
_atom_site_fract_z
Si Si1 0.485646 0.303373 0.571020
Si Si2 0.601918 0.398083 0.069968
Si Si3 0.666667 0.333334 0.930260
Si Si4 0.939035 0.179969 0.929552
Si Si5 0.120317 0.363502 0.579066
O O1 0.491707 0.315223 0.750000
O O2 0.496022 0.248011 0.528985
O O3 0.533105 0.363404 0.483538
O O4 0.420789 0.290681 0.516603
O O5 0.605808 0.394193 0.250000
O O6 0.633365 0.366636 0.987749
O O7 0.666667 0.333334 0.750000
O O8 0.944787 0.187479 0.750000
O O9 0.885451 0.114550 0.976643
O O10 0.928982 0.232457 0.996568
O O11 0.000000 0.187396 0.000000
O O12 0.098690 0.366086 0.750000
O O13 0.181643 0.363286 0.583612
#
# Coordination Sequence:
#
# PCOD8330449 Si02
#       5
#    24  12   4  24  24
#     4  10  19  30  44  61  88 123 162 207 258 311
#     4  12  22  30  42  60  85 121 166 212 260 318
#     4  12  22  32  40  54  82 119 163 210 262 320
#     4  10  20  34  54  81 111 141 172 204 243 286
#     4   9  17  30  48  70  97 127 163 205 250 296
#
# _framework density 17.402543999999999
#
# number of rings (size 3 to 8) (size 9 to 14) (size 15 to 20)
#    0.000    1.909    1.364    4.091    0.000    6.000 
#    0.000    0.000    0.000    0.273    0.000    0.955 
#    0.000    0.000    0.000    0.000    0.000    0.000 
#
# Total GULP energy -1091283.306577 kJ/mol
# GULP energy per Si atom -12400.946666 kJ/mol
# Density = 1.736294 g / cm^3
# Si number density = 17.402544 Si / 1000 Ang^3
#
#
#
# Elastic Constant Matrix: (Units=GPa)
#
#
# Indices 1 2 3 4 5 6 
#
# 1 85.4992 43.9494 44.0389 0.0000 0.0000 0.0001
# 2 43.9494 85.4991 44.0389 0.0000 0.0000 0.0000
# 3 44.0389 44.0389 126.0990 0.0000 0.0000 0.0001
# 4 0.0000 0.0000 0.0000 28.5959 0.0000 0.0000
# 5 0.0000 0.0000 0.0000 0.0000 28.5960 0.0000
# 6 0.0001 0.0000 0.0001 0.0000 0.0000 20.7749
#
#
#
# Elastic Compliance Matrix: (Units=1/GPa)
#
#
# Indices 1 2 3 4 5 6 
#
# 1 0.017100 -0.006967 -0.003539 0.000000 0.000000 0.000000
# 2 -0.006967 0.017100 -0.003539 0.000000 0.000000 0.000000
# 3 -0.003539 -0.003539 0.010402 0.000000 0.000000 0.000000
# 4 0.000000 0.000000 0.000000 0.034970 0.000000 0.000000
# 5 0.000000 0.000000 0.000000 0.000000 0.034970 0.000000
# 6 0.000000 0.000000 0.000000 0.000000 0.000000 0.048135
#
#
# Mechanical properties :
#
#
# Convention : Reuss Voigt Hill
#
# Bulk Modulus (GPa) = 60.55975 62.35018 61.45496
# Shear Modulus (GPa) = 25.47489 26.59802 26.03646
#
# Velocity S-wave (km/s) = 3.83019 3.91372 3.87218
# Velocity P-wave (km/s) = 7.37804 7.50526 7.44192
#
# Compressibility (1/GPa) = 0.01651262
#
# Stress axis : x y z
#
# Youngs Moduli (GPa) = 58.47880 58.47867 96.13458
#
# Poissons Ratio (x) = 0.40744 0.34020
# Poissons Ratio (y) = 0.40744 0.34021
# Poissons Ratio (z) = 0.20695 0.20695
#
# Static dielectric constant tensor:
#      x y z
#    x 3.167740 0.000000 0.000000 
#    y 0.000000 3.167740 0.000000 
#    z 0.000000 0.000000 3.390720 
# 
# 
# High freq. dielectric constant tensor:
#      x y z
#    x 1.645540 0.000000 0.000000 
#    y 0.000000 1.645540 0.000000 
#    z 0.000000 0.000000 1.693730 
# 
# From -- ./inp_files/1493.got.cif
#   From: 2010.03.12/outbox.cif.g09.slc.cpg/sg194_1_cif.got.tgz:1493.got - 2010.04.01 12:26:19.
