data_PCOD8330499
_publ_section_title
;
Structure prediction by ZEFSAII (Michael W. Deem and Ramdas Pophale) SiO2 
 PCOD8330499
Probable space group: P 63/M M C
;
_chemical_formula_sum "Si O2"
_cell_formula_units_Z 72
_cell_length_a 23.659483
_cell_length_b 23.659483
_cell_length_c 8.741615
_cell_angle_alpha 90.000000
_cell_angle_beta 90.000000
_cell_angle_gamma 120.000000
_cell_volume 4237.725362
_symmetry_space_group_name_H-M "P 63/M M C"
_symmetry_group_IT_number 194
_symmetry_cell_setting 'hexagonal'
loop_
_space_group_symop_operation_xyz
x,y,z
x-y,x,1/2+z
-y,x-y,z
-x,-y,1/2+z
-x+y,-x,z
y,-x+y,1/2+z
x-y,-y,-z
-x,-x+y,-z
y,x,-z
-y,-x,1/2-z
-x+y,y,1/2-z
x,x-y,1/2-z
-x,-y,-z
-x+y,-x,1/2-z
y,-x+y,-z
x,y,1/2-z
x-y,x,-z
-y,x-y,1/2-z
-x+y,y,z
x,x-y,z
-y,-x,z
y,x,1/2+z
x-y,-y,1/2+z
-x,-x+y,1/2+z
loop_
_atom_site_type_symbol
_atom_site_label
_atom_site_fract_x
_atom_site_fract_y
_atom_site_fract_z
Si Si1 0.636354 0.707454 0.429632
Si Si2 0.403129 0.928627 0.929135
Si Si3 0.857178 0.714356 0.570431
Si Si4 0.071956 0.928045 0.931582
O O1 0.678583 0.678583 0.500000
O O2 0.633360 0.698754 0.250000
O O3 0.561466 0.668951 0.494576
O O4 0.670952 0.782332 0.477932
O O5 0.395161 0.934295 0.750000
O O6 0.447015 0.894030 0.962012
O O7 0.440820 0.000000 0.000000
O O8 0.866024 0.732048 0.750000
O O9 0.890096 0.780192 0.473515
O O10 0.067799 0.932202 0.750000
O O11 0.000000 0.889726 0.000000
#
# Coordination Sequence:
#
# PCOD8330499 Si02
#       4
#    24  24  12  12
#     4  10  19  31  47  67  94 125 158 195 236 285
#     4   9  16  26  42  65  92 120 150 182 217 263
#     4  10  22  37  51  72 100 130 165 204 250 306
#     4  12  25  41  60  78  97 124 164 216 270 324
#
# _framework density 16.990247
#
# number of rings (size 3 to 8) (size 9 to 14) (size 15 to 20)
#    0.000    2.000    0.000    6.667    0.000    7.333 
#    0.000    0.000    0.000    0.000    0.000    0.000 
#    1.667    0.000    1.000    0.000    1.333    0.000 
#
# Total GULP energy -892225.343996 kJ/mol
# GULP energy per Si atom -12392.018667 kJ/mol
# Density = 1.695158 g / cm^3
# Si number density = 16.990247 Si / 1000 Ang^3
#
#
#
# Elastic Constant Matrix: (Units=GPa)
#
#
# Indices 1 2 3 4 5 6 
#
# 1 134.2635 62.8291 58.2674 0.0000 0.0000 0.0000
# 2 62.8291 134.2635 58.2674 0.0000 0.0000 0.0000
# 3 58.2674 58.2674 107.4076 0.0000 0.0000 0.0000
# 4 0.0000 0.0000 0.0000 22.9683 0.0000 0.0000
# 5 0.0000 0.0000 0.0000 0.0000 22.9683 0.0000
# 6 0.0000 0.0000 0.0000 0.0000 0.0000 35.7172
#
#
#
# Elastic Compliance Matrix: (Units=1/GPa)
#
#
# Indices 1 2 3 4 5 6 
#
# 1 0.010734 -0.003265 -0.004052 0.000000 0.000000 0.000000
# 2 -0.003265 0.010734 -0.004052 0.000000 0.000000 0.000000
# 3 -0.004052 -0.004052 0.013707 0.000000 0.000000 0.000000
# 4 0.000000 0.000000 0.000000 0.043538 0.000000 0.000000
# 5 0.000000 0.000000 0.000000 0.000000 0.043538 0.000000
# 6 0.000000 0.000000 0.000000 0.000000 0.000000 0.027998
#
#
# Mechanical properties :
#
#
# Convention : Reuss Voigt Hill
#
# Bulk Modulus (GPa) = 80.40267 81.62918 81.01592
# Shear Modulus (GPa) = 28.22725 29.43546 28.83135
#
# Velocity S-wave (km/s) = 4.08042 4.16684 4.12386
# Velocity P-wave (km/s) = 8.34418 8.44388 8.39418
#
# Compressibility (1/GPa) = 0.01243740
#
# Stress axis : x y z
#
# Youngs Moduli (GPa) = 93.15937 93.15937 72.95586
#
# Poissons Ratio (x) = 0.30412 0.29563
# Poissons Ratio (y) = 0.30412 0.29563
# Poissons Ratio (z) = 0.37750 0.37750
#
# Static dielectric constant tensor:
#      x y z
#    x 3.566580 0.000000 0.000000 
#    y 0.000000 3.566580 0.000000 
#    z 0.000000 0.000000 3.342830 
# 
# 
# High freq. dielectric constant tensor:
#      x y z
#    x 1.640250 0.000000 0.000000 
#    y 0.000000 1.640250 0.000000 
#    z 0.000000 0.000000 1.673970 
# 
# From -- ./inp_files/1106.got.cif
#   From: 2010.03.12/outbox.cif.g09.slc.cpg/sg194_1_cif.got.tgz:1106.got - 2010.04.01 12:26:19.
