data_PCOD8330681
_publ_section_title
;
Structure prediction by ZEFSAII (Michael W. Deem and Ramdas Pophale) SiO2 
 PCOD8330681
Probable space group: P 63/M M C
;
_chemical_formula_sum "Si O2"
_cell_formula_units_Z 168
_cell_length_a 18.377927
_cell_length_b 18.377927
_cell_length_c 29.961662
_cell_angle_alpha 90.000000
_cell_angle_beta 90.000000
_cell_angle_gamma 120.000000
_cell_volume 8763.741851
_symmetry_space_group_name_H-M "P 63/M M C"
_symmetry_group_IT_number 194
_symmetry_cell_setting 'hexagonal'
loop_
_space_group_symop_operation_xyz
x,y,z
x-y,x,1/2+z
-y,x-y,z
-x,-y,1/2+z
-x+y,-x,z
y,-x+y,1/2+z
x-y,-y,-z
-x,-x+y,-z
y,x,-z
-y,-x,1/2-z
-x+y,y,1/2-z
x,x-y,1/2-z
-x,-y,-z
-x+y,-x,1/2-z
y,-x+y,-z
x,y,1/2-z
x-y,x,-z
-y,x-y,1/2-z
-x+y,y,z
x,x-y,z
-y,-x,z
y,x,1/2+z
x-y,-y,1/2+z
-x,-x+y,1/2+z
loop_
_atom_site_type_symbol
_atom_site_label
_atom_site_fract_x
_atom_site_fract_y
_atom_site_fract_z
Si Si1 0.710304 0.123059 0.598103
Si Si2 0.758218 0.683027 0.300562
Si Si3 0.664877 0.171223 0.515276
Si Si4 0.424552 0.404150 0.347249
Si Si5 0.240820 0.039486 0.546205
Si Si6 0.002965 0.166615 0.865580
Si Si7 0.664503 0.163506 0.417032
O O1 0.780719 0.219281 0.612501
O O2 0.644666 0.114129 0.558994
O O3 0.650470 0.072966 0.639792
O O4 0.756969 0.078444 0.577332
O O5 0.767673 0.716033 0.250000
O O6 0.826663 0.653326 0.310040
O O7 0.662642 0.605881 0.306650
O O8 0.771881 0.756720 0.334461
O O9 0.606785 0.213570 0.515198
O O10 0.761040 0.238960 0.521086
O O11 0.655395 0.127115 0.467453
O O12 0.509255 0.490746 0.334287
O O13 0.438766 0.354374 0.387293
O O14 0.219366 0.109683 0.529644
O O15 0.171021 0.977907 0.581903
O O16 0.250899 0.000000 0.500000
O O17 0.908324 0.091677 0.858452
O O18 0.068858 0.137715 0.850546
O O19 0.596683 0.193365 0.407955
O O20 0.757044 0.242957 0.408183
#
# Coordination Sequence:
#
# PCOD8330681 Si02
#       7
#    24  24  24  24  24  24  24
#     4  10  21  34  48  71 106 145 187 234 284 330
#     4  10  22  40  61  84 112 145 178 219 274 333
#     4   9  17  29  45  66  96 137 182 227 274 327
#     4  11  22  36  57  82 106 137 179 230 280 334
#     4  10  20  33  50  75 110 153 194 234 275 320
#     4  10  20  36  58  85 117 152 191 232 273 321
#     4   9  18  31  49  75 107 143 181 223 274 329
#
# _framework density 19.169895
#
# number of rings (size 3 to 8) (size 9 to 14) (size 15 to 20)
#    0.000    2.143    1.429    1.714    2.000    1.714 
#    0.000    2.143    0.000    3.714    0.000    0.000 
#    0.000    0.000    0.000    0.000    0.000    0.000 
#
# Total GULP energy -2081195.223674 kJ/mol
# GULP energy per Si atom -12388.066808 kJ/mol
# Density = 1.912626 g / cm^3
# Si number density = 19.169895 Si / 1000 Ang^3
#
#
#
# Elastic Constant Matrix: (Units=GPa)
#
#
# Indices 1 2 3 4 5 6 
#
# 1 76.0581 34.6341 29.9516 0.0000 0.0000 0.0000
# 2 34.6341 76.0581 29.9516 0.0000 0.0000 0.0000
# 3 29.9516 29.9516 73.8810 0.0000 0.0000 0.0000
# 4 0.0000 0.0000 0.0000 22.8435 0.0000 0.0000
# 5 0.0000 0.0000 0.0000 0.0000 22.8435 0.0000
# 6 0.0000 0.0000 0.0000 0.0000 0.0000 20.7120
#
#
#
# Elastic Compliance Matrix: (Units=1/GPa)
#
#
# Indices 1 2 3 4 5 6 
#
# 1 0.017857 -0.006284 -0.004692 0.000000 0.000000 0.000000
# 2 -0.006284 0.017857 -0.004692 0.000000 0.000000 0.000000
# 3 -0.004692 -0.004692 0.017339 0.000000 0.000000 0.000000
# 4 0.000000 0.000000 0.000000 0.043776 0.000000 0.000000
# 5 0.000000 0.000000 0.000000 0.000000 0.043776 0.000000
# 6 0.000000 0.000000 0.000000 0.000000 0.000000 0.048281
#
#
# Mechanical properties :
#
#
# Convention : Reuss Voigt Hill
#
# Bulk Modulus (GPa) = 46.04368 46.11910 46.08139
# Shear Modulus (GPa) = 21.98180 22.04376 22.01278
#
# Velocity S-wave (km/s) = 3.38994 3.39472 3.39233
# Velocity P-wave (km/s) = 6.27640 6.28298 6.27969
#
# Compressibility (1/GPa) = 0.02171851
#
# Stress axis : x y z
#
# Youngs Moduli (GPa) = 56.00088 56.00088 57.67208
#
# Poissons Ratio (x) = 0.35190 0.27058
# Poissons Ratio (y) = 0.35190 0.27058
# Poissons Ratio (z) = 0.26274 0.26274
#
# Static dielectric constant tensor:
#      x y z
#    x 3.542800 0.000000 0.000000 
#    y 0.000000 3.542800 0.000000 
#    z 0.000000 0.000000 3.389610 
# 
# 
# High freq. dielectric constant tensor:
#      x y z
#    x 1.741450 0.000000 0.000000 
#    y 0.000000 1.741450 0.000000 
#    z 0.000000 0.000000 1.722300 
# 
# From -- ./inp_files/12275.got.cif
#   From: 2010.03.12/outbox.cif.g09.slc.cpg/sg194_7_cif.got.tgz:12275.got - 2010.04.01 12:26:19.
