data_PCOD8330475
_publ_section_title
;
Structure prediction by ZEFSAII (Michael W. Deem and Ramdas Pophale) SiO2 
 PCOD8330475
Probable space group: P 63/M M C
;
_chemical_formula_sum "Si O2"
_cell_formula_units_Z 120
_cell_length_a 17.669429
_cell_length_b 17.669429
_cell_length_c 26.809320
_cell_angle_alpha 90.000000
_cell_angle_beta 90.000000
_cell_angle_gamma 120.000000
_cell_volume 7248.722275
_symmetry_space_group_name_H-M "P 63/M M C"
_symmetry_group_IT_number 194
_symmetry_cell_setting 'hexagonal'
loop_
_space_group_symop_operation_xyz
x,y,z
x-y,x,1/2+z
-y,x-y,z
-x,-y,1/2+z
-x+y,-x,z
y,-x+y,1/2+z
x-y,-y,-z
-x,-x+y,-z
y,x,-z
-y,-x,1/2-z
-x+y,y,1/2-z
x,x-y,1/2-z
-x,-y,-z
-x+y,-x,1/2-z
y,-x+y,-z
x,y,1/2-z
x-y,x,-z
-y,x-y,1/2-z
-x+y,y,z
x,x-y,z
-y,-x,z
y,x,1/2+z
x-y,-y,1/2+z
-x,-x+y,1/2+z
loop_
_atom_site_type_symbol
_atom_site_label
_atom_site_fract_x
_atom_site_fract_y
_atom_site_fract_z
Si Si1 0.081315 0.742895 0.629077
Si Si2 0.831789 0.497432 0.191330
Si Si3 0.333948 0.491822 0.370724
Si Si4 0.000082 0.414308 0.941701
Si Si5 0.249975 0.325341 0.193102
O O1 0.158750 0.841251 0.617281
O O2 0.102068 0.695337 0.673256
O O3 0.062588 0.682470 0.580561
O O4 0.997297 0.741964 0.653530
O O5 0.836595 0.497948 0.250000
O O6 0.734195 0.468389 0.173030
O O7 0.857322 0.428661 0.168749
O O8 0.251558 0.503116 0.384139
O O9 0.415104 0.584897 0.354521
O O10 0.356771 0.454270 0.419816
O O11 0.313045 0.425256 0.324758
O O12 0.034701 0.517351 0.930608
O O13 0.000000 0.398490 0.000000
O O14 0.275410 0.316074 0.250000
O O15 0.149918 0.299835 0.190752
#
# Coordination Sequence:
#
# PCOD8330475 Si02
#       5
#    24  24  24  24  24
#     4  10  19  30  47  70  90 112 149 192 227 261
#     4   9  16  25  38  59  90 125 154 178 206 243
#     4   9  17  29  46  67  90 118 153 191 229 270
#     4   9  18  32  47  64  91 125 156 188 229 274
#     4   9  18  32  47  64  90 121 146 173 219 274
#
# _framework density 16.554641
#
# number of rings (size 3 to 8) (size 9 to 14) (size 15 to 20)
#    0.000    2.800    0.000    1.600    0.000    4.000 
#    0.000    0.000    0.000    2.000    0.000    0.000 
#    0.000    0.800    0.000    0.000    0.000    0.000 
#
# Total GULP energy -1487077.895964 kJ/mol
# GULP energy per Si atom -12392.315800 kJ/mol
# Density = 1.651696 g / cm^3
# Si number density = 16.554641 Si / 1000 Ang^3
#
#
#
# Elastic Constant Matrix: (Units=GPa)
#
#
# Indices 1 2 3 4 5 6 
#
# 1 85.8205 40.2722 38.4547 0.0000 0.0000 0.0000
# 2 40.2722 85.8205 38.4547 0.0000 0.0000 0.0000
# 3 38.4547 38.4547 86.3614 0.0000 0.0000 0.0000
# 4 0.0000 0.0000 0.0000 19.0278 0.0000 0.0000
# 5 0.0000 0.0000 0.0000 0.0000 19.0278 0.0000
# 6 0.0000 0.0000 0.0000 0.0000 0.0000 22.7741
#
#
#
# Elastic Compliance Matrix: (Units=1/GPa)
#
#
# Indices 1 2 3 4 5 6 
#
# 1 0.016421 -0.005534 -0.004848 0.000000 0.000000 0.000000
# 2 -0.005534 0.016421 -0.004848 0.000000 0.000000 0.000000
# 3 -0.004848 -0.004848 0.015897 0.000000 0.000000 0.000000
# 4 0.000000 0.000000 0.000000 0.052555 0.000000 0.000000
# 5 0.000000 0.000000 0.000000 0.000000 0.052555 0.000000
# 6 0.000000 0.000000 0.000000 0.000000 0.000000 0.043909
#
#
# Mechanical properties :
#
#
# Convention : Reuss Voigt Hill
#
# Bulk Modulus (GPa) = 54.70481 54.70731 54.70606
# Shear Modulus (GPa) = 21.33921 21.55400 21.44660
#
# Velocity S-wave (km/s) = 3.59418 3.61223 3.60322
# Velocity P-wave (km/s) = 7.09513 7.10745 7.10129
#
# Compressibility (1/GPa) = 0.01827993
#
# Stress axis : x y z
#
# Youngs Moduli (GPa) = 60.89687 60.89687 62.90625
#
# Poissons Ratio (x) = 0.33697 0.30497
# Poissons Ratio (y) = 0.33697 0.30497
# Poissons Ratio (z) = 0.29523 0.29523
#
# Static dielectric constant tensor:
#      x y z
#    x 3.998260 0.000000 0.000000 
#    y 0.000000 3.998260 0.000000 
#    z 0.000000 0.000000 2.994610 
# 
# 
# High freq. dielectric constant tensor:
#      x y z
#    x 1.630600 0.000000 0.000000 
#    y 0.000000 1.630600 0.000000 
#    z 0.000000 0.000000 1.625570 
# 
# From -- ./inp_files/11853.got.cif
#   From: 2010.03.12/outbox.cif.g09.slc.cpg/sg194_6_cif.got.tgz:11853.got - 2010.04.01 12:26:19.
