data_PCOD8330013
_publ_section_title
;
Structure prediction by ZEFSAII (Michael W. Deem and Ramdas Pophale) SiO2 
 PCOD8330013
Probable space group: P 63/M C M
;
_chemical_formula_sum "Si O2"
_cell_formula_units_Z 144
_cell_length_a 32.215534
_cell_length_b 32.215534
_cell_length_c 8.896968
_cell_angle_alpha 90.000000
_cell_angle_beta 90.000000
_cell_angle_gamma 120.000000
_cell_volume 7996.562377
_symmetry_space_group_name_H-M "P 63/M C M"
_symmetry_group_IT_number 193
_symmetry_cell_setting 'hexagonal'
loop_
_space_group_symop_operation_xyz
x,y,z
x-y,x,1/2+z
-y,x-y,z
-x,-y,1/2+z
-x+y,-x,z
y,-x+y,1/2+z
x-y,-y,1/2-z
-x,-x+y,1/2-z
y,x,1/2-z
-y,-x,-z
-x+y,y,-z
x,x-y,-z
-x,-y,-z
-x+y,-x,1/2-z
y,-x+y,-z
x,y,1/2-z
x-y,x,-z
-y,x-y,1/2-z
-x+y,y,1/2+z
x,x-y,1/2+z
-y,-x,1/2+z
y,x,z
x-y,-y,z
-x,-x+y,z
loop_
_atom_site_type_symbol
_atom_site_label
_atom_site_fract_x
_atom_site_fract_y
_atom_site_fract_z
Si Si1 0.719041 0.774517 0.425341
Si Si2 0.193730 0.055066 0.925412
Si Si3 0.473879 0.862026 0.427879
Si Si4 0.193781 0.473391 0.924354
Si Si5 0.054975 0.437290 0.423634
Si Si6 0.380940 0.283078 0.427554
O O1 0.713511 0.781349 0.250000
O O2 0.735962 0.735962 0.454337
O O3 0.756470 0.825291 0.495169
O O4 0.669180 0.757464 0.507876
O O5 0.203353 0.066324 0.750000
O O6 0.154410 0.000000 0.955065
O O7 0.173229 0.086615 0.000000
O O8 0.422258 0.844515 0.500000
O O9 0.472020 0.866995 0.250000
O O10 0.489047 0.822985 0.473421
O O11 0.512364 0.913756 0.492666
O O12 0.203542 0.476858 0.750000
O O13 0.152451 0.420003 0.969051
O O14 0.243795 0.487590 0.000000
O O15 0.070362 0.442599 0.250000
O O16 0.061905 0.395595 0.496775
O O17 0.000000 0.423159 0.441419
O O18 0.377646 0.288593 0.250000
#
# Coordination Sequence:
#
# PCOD8330013 Si02
#       6
#    24  24  24  24  24  24
#     4  10  20  33  50  74 105 142 183 223 261 303
#     4  10  21  37  57  80 105 135 171 212 261 315
#     4  10  21  37  56  79 104 132 168 208 256 311
#     4   9  20  36  54  77 102 130 166 206 251 304
#     4  10  20  33  50  74 104 140 181 220 258 300
#     4  10  20  33  49  73 106 142 181 222 261 303
#
# _framework density 18.007736999999999
#
# number of rings (size 3 to 8) (size 9 to 14) (size 15 to 20)
#    0.000    2.167    0.000    4.000    0.000   10.333 
#    0.000    1.667    0.000    0.500    0.000    0.000 
#    0.000    0.000    0.000    0.000    0.000    0.000 
#
# Total GULP energy -1786080.724034 kJ/mol
# GULP energy per Si atom -12403.338361 kJ/mol
# Density = 1.796675 g / cm^3
# Si number density = 18.007737 Si / 1000 Ang^3
#
#
#
# Elastic Constant Matrix: (Units=GPa)
#
#
# Indices 1 2 3 4 5 6 
#
# 1 112.3056 64.9555 59.3187 0.0000 0.0000 0.0000
# 2 64.9555 112.3056 59.3187 0.0000 0.0000 0.0000
# 3 59.3187 59.3187 110.5042 0.0000 0.0000 0.0000
# 4 0.0000 0.0000 0.0000 33.8358 0.0000 0.0000
# 5 0.0000 0.0000 0.0000 0.0000 33.8358 0.0000
# 6 0.0000 0.0000 0.0000 0.0000 0.0000 23.6751
#
#
#
# Elastic Compliance Matrix: (Units=1/GPa)
#
#
# Indices 1 2 3 4 5 6 
#
# 1 0.014962 -0.006157 -0.004726 0.000000 0.000000 0.000000
# 2 -0.006157 0.014962 -0.004726 0.000000 0.000000 0.000000
# 3 -0.004726 -0.004726 0.014124 0.000000 0.000000 0.000000
# 4 0.000000 0.000000 0.000000 0.029554 0.000000 0.000000
# 5 0.000000 0.000000 0.000000 0.000000 0.029554 0.000000
# 6 0.000000 0.000000 0.000000 0.000000 0.000000 0.042239
#
#
# Mechanical properties :
#
#
# Convention : Reuss Voigt Hill
#
# Bulk Modulus (GPa) = 77.95710 78.03347 77.99528
# Shear Modulus (GPa) = 27.64098 28.37085 28.00592
#
# Velocity S-wave (km/s) = 3.92209 3.97354 3.94790
# Velocity P-wave (km/s) = 7.99345 8.02991 8.01170
#
# Compressibility (1/GPa) = 0.01282757
#
# Stress axis : x y z
#
# Youngs Moduli (GPa) = 66.83622 66.83622 70.80340
#
# Poissons Ratio (x) = 0.41153 0.33464
# Poissons Ratio (y) = 0.41153 0.33464
# Poissons Ratio (z) = 0.31589 0.31589
#
# Static dielectric constant tensor:
#      x y z
#    x 3.211020 0.000000 0.000000 
#    y 0.000000 3.211020 0.000000 
#    z 0.000000 0.000000 3.444860 
# 
# 
# High freq. dielectric constant tensor:
#      x y z
#    x 1.686970 0.000000 0.000000 
#    y 0.000000 1.686970 0.000000 
#    z 0.000000 0.000000 1.714620 
# 
# From -- ./inp_files/1503.got.cif
#   From: 2010.03.12/outbox.cif.g09.slc.cpg/sg193_1_cif.got.tgz:1503.got - 2010.04.01 12:20:39.
