data_PCOD8330950
_publ_section_title
;
Structure prediction by ZEFSAII (Michael W. Deem and Ramdas Pophale) SiO2 
 PCOD8330950
Probable space group: P A 3
;
_chemical_formula_sum "Si O2"
_cell_formula_units_Z 168
_cell_length_a 20.828851
_cell_length_b 20.828851
_cell_length_c 20.828851
_cell_angle_alpha 90.000000
_cell_angle_beta 90.000000
_cell_angle_gamma 90.000000
_cell_volume 9036.410254
_symmetry_space_group_name_H-M "P A 3"
_symmetry_group_IT_number 205
_symmetry_cell_setting 'cubic'
loop_
_space_group_symop_operation_xyz
x,y,z
z,x,y
y,z,x
1/2-y,-z,1/2+x
1/2+z,1/2-x,-y
-y,1/2+z,1/2-x
1/2-z,-x,1/2+y
-z,1/2+x,1/2-y
1/2+y,1/2-z,-x
1/2-x,-y,1/2+z
1/2+x,1/2-y,-z
-x,1/2+y,1/2-z
-x,-y,-z
-z,-x,-y
-y,-z,-x
1/2+y,z,1/2-x
1/2-z,1/2+x,y
y,1/2-z,1/2+x
1/2+z,x,1/2-y
z,1/2-x,1/2+y
1/2-y,1/2+z,x
1/2+x,y,1/2-z
1/2-x,1/2+y,z
x,1/2-y,1/2+z
loop_
_atom_site_type_symbol
_atom_site_label
_atom_site_fract_x
_atom_site_fract_y
_atom_site_fract_z
Si Si1 0.604578 0.575910 0.773372
Si Si2 0.087012 0.813869 0.693237
Si Si3 0.759401 0.415293 0.635299
Si Si4 0.297648 0.273459 0.463274
Si Si5 0.392295 0.686920 0.897055
Si Si6 0.746771 0.520798 0.000804
Si Si7 0.122081 0.025690 0.571308
O O1 0.578238 0.646916 0.760193
O O2 0.655327 0.561607 0.717076
O O3 0.637483 0.571987 0.842595
O O4 0.549092 0.522770 0.776847
O O5 0.141602 0.773023 0.655124
O O6 0.038399 0.765229 0.728619
O O7 0.122350 0.857630 0.746252
O O8 0.046959 0.857995 0.644506
O O9 0.718728 0.463775 0.678942
O O10 0.832744 0.421015 0.657092
O O11 0.754141 0.430850 0.560145
O O12 0.447186 0.699325 0.949970
O O13 0.818308 0.511238 0.974670
O O14 0.078247 0.081072 0.539443
#
# Coordination Sequence:
#
# PCOD8330950 Si02
#       7
#    24  24  24  24  24  24  24
#     4  10  21  38  58  90 119 155 196 257 301 361
#     4  10  21  39  58  87 115 158 194 243 303 354
#     4  11  20  38  61  87 113 154 202 243 296 359
#     4  10  21  36  60  86 119 155 198 246 310 350
#     4  10  22  39  61  85 122 155 200 252 299 365
#     4  10  23  38  60  87 117 160 200 244 304 360
#     4  11  23  38  60  87 124 157 196 241 298 369
#
# _framework density 18.591453000000001
#
# number of rings (size 3 to 8) (size 9 to 14) (size 15 to 20)
#    0.000    1.714    2.857    1.286    6.000    0.000 
#    1.714    0.000    0.000    0.857    0.000    0.000 
#    0.000    0.000    0.000    0.000    0.000    0.000 
#
# Total GULP energy -2083387.501531 kJ/mol
# GULP energy per Si atom -12401.116081 kJ/mol
# Density = 1.854914 g / cm^3
# Si number density = 18.591453 Si / 1000 Ang^3
#
#
#
# Elastic Constant Matrix: (Units=GPa)
#
#
# Indices 1 2 3 4 5 6 
#
# 1 106.5706 48.0616 48.0616 0.0000 0.0000 0.0000
# 2 48.0616 106.5706 48.0616 0.0000 0.0000 0.0000
# 3 48.0616 48.0616 106.5706 0.0000 0.0000 0.0000
# 4 0.0000 0.0000 0.0000 29.9300 0.0000 0.0000
# 5 0.0000 0.0000 0.0000 0.0000 29.9300 0.0000
# 6 0.0000 0.0000 0.0000 0.0000 0.0000 29.9300
#
#
#
# Elastic Compliance Matrix: (Units=1/GPa)
#
#
# Indices 1 2 3 4 5 6 
#
# 1 0.013039 -0.004053 -0.004053 0.000000 0.000000 0.000000
# 2 -0.004053 0.013039 -0.004053 0.000000 0.000000 0.000000
# 3 -0.004053 -0.004053 0.013039 0.000000 0.000000 0.000000
# 4 0.000000 0.000000 0.000000 0.033411 0.000000 0.000000
# 5 0.000000 0.000000 0.000000 0.000000 0.033411 0.000000
# 6 0.000000 0.000000 0.000000 0.000000 0.000000 0.033411
#
#
# Mechanical properties :
#
#
# Convention : Reuss Voigt Hill
#
# Bulk Modulus (GPa) = 67.56457 67.56457 67.56457
# Shear Modulus (GPa) = 29.65607 29.65978 29.65793
#
# Velocity S-wave (km/s) = 3.99826 3.99851 3.99839
# Velocity P-wave (km/s) = 7.59838 7.59856 7.59847
#
# Compressibility (1/GPa) = 0.01480066
#
# Stress axis : x y z
#
# Youngs Moduli (GPa) = 76.69433 76.69433 76.69433
#
# Poissons Ratio (x) = 0.31081 0.31081
# Poissons Ratio (y) = 0.31081 0.31081
# Poissons Ratio (z) = 0.31081 0.31081
#
# Static dielectric constant tensor:
#      x y z
#    x 3.453570 0.000000 0.000000 
#    y 0.000000 3.453570 0.000000 
#    z 0.000000 0.000000 3.453570 
# 
# 
# High freq. dielectric constant tensor:
#      x y z
#    x 1.722870 0.000000 0.000000 
#    y 0.000000 1.722870 0.000000 
#    z 0.000000 0.000000 1.722870 
# 
# From -- ./inp_files/564.got.cif
#   From: 2010.03.12/outbox.cif.g09.slc.cpg/sg205_cif.got.tgz:564.got - 2010.03.30 09:02:58.
