data_PCOD8330026
_publ_section_title
;
Structure prediction by ZEFSAII (Michael W. Deem and Ramdas Pophale) SiO2 
 PCOD8330026
Probable space group: P 63/M C M
;
_chemical_formula_sum "Si O2"
_cell_formula_units_Z 144
_cell_length_a 31.332625
_cell_length_b 31.332625
_cell_length_c 8.852692
_cell_angle_alpha 90.000000
_cell_angle_beta 90.000000
_cell_angle_gamma 120.000000
_cell_volume 7526.612341
_symmetry_space_group_name_H-M "P 63/M C M"
_symmetry_group_IT_number 193
_symmetry_cell_setting 'hexagonal'
loop_
_space_group_symop_operation_xyz
x,y,z
x-y,x,1/2+z
-y,x-y,z
-x,-y,1/2+z
-x+y,-x,z
y,-x+y,1/2+z
x-y,-y,1/2-z
-x,-x+y,1/2-z
y,x,1/2-z
-y,-x,-z
-x+y,y,-z
x,x-y,-z
-x,-y,-z
-x+y,-x,1/2-z
y,-x+y,-z
x,y,1/2-z
x-y,x,-z
-y,x-y,1/2-z
-x+y,y,1/2+z
x,x-y,1/2+z
-y,-x,1/2+z
y,x,z
x-y,-y,z
-x,-x+y,z
loop_
_atom_site_type_symbol
_atom_site_label
_atom_site_fract_x
_atom_site_fract_y
_atom_site_fract_z
Si Si1 0.231849 0.287345 0.925921
Si Si2 0.198988 0.143104 0.072814
Si Si3 0.333016 0.758344 0.930492
Si Si4 0.386009 0.148174 0.427097
Si Si5 0.667417 0.151253 0.928219
Si Si6 0.945385 0.516793 0.573647
O O1 0.218722 0.277964 0.750000
O O2 0.274169 0.274169 0.969258
O O3 0.251188 0.343933 0.970484
O O4 0.181836 0.253449 0.015872
O O5 0.201398 0.138485 0.250000
O O6 0.160897 0.160897 0.024043
O O7 0.179847 0.089924 0.000000
O O8 0.332404 0.753640 0.750000
O O9 0.280419 0.719582 0.000000
O O10 0.373746 0.747491 0.000000
O O11 0.344676 0.812557 0.977455
O O12 0.372830 0.186415 0.500000
O O13 0.388140 0.155963 0.250000
O O14 0.438678 0.157755 0.484953
O O15 0.667562 0.162198 0.750000
O O16 0.627080 0.094968 0.967866
O O17 0.928827 0.464414 0.500000
O O18 0.946571 0.509169 0.750000
O O19 0.000000 0.558573 0.516831
#
# Coordination Sequence:
#
# PCOD8330026 Si02
#       6
#    24  24  24  24  24  24
#     4   9  18  33  53  77 105 139 179 222 267 315
#     4  10  20  33  51  76 104 135 173 218 267 318
#     4  12  25  42  63  87 114 143 178 221 272 327
#     4  10  21  35  52  75 105 141 179 218 260 310
#     4  10  21  37  56  81 112 147 187 226 266 315
#     4   9  18  33  54  79 107 139 176 220 267 313
#
# _framework density 19.132111999999999
#
# number of rings (size 3 to 8) (size 9 to 14) (size 15 to 20)
#    0.000    2.000    0.000    3.667    0.000    7.667 
#    0.000    3.333    0.000    0.167    0.000    7.000 
#    0.000    0.000    0.000    0.000    0.000    0.000 
#
# Total GULP energy -1785855.405816 kJ/mol
# GULP energy per Si atom -12401.773652 kJ/mol
# Density = 1.908857 g / cm^3
# Si number density = 19.132112 Si / 1000 Ang^3
#
#
#
# Elastic Constant Matrix: (Units=GPa)
#
#
# Indices 1 2 3 4 5 6 
#
# 1 99.7660 44.2052 34.8337 0.0000 0.0000 0.0000
# 2 44.2052 99.7660 34.8337 0.0000 0.0000 0.0000
# 3 34.8337 34.8337 63.8154 0.0000 0.0000 0.0000
# 4 0.0000 0.0000 0.0000 26.2321 0.0000 0.0000
# 5 0.0000 0.0000 0.0000 0.0000 26.2321 0.0000
# 6 0.0000 0.0000 0.0000 0.0000 0.0000 27.7804
#
#
#
# Elastic Compliance Matrix: (Units=1/GPa)
#
#
# Indices 1 2 3 4 5 6 
#
# 1 0.013719 -0.004280 -0.005152 0.000000 0.000000 0.000000
# 2 -0.004280 0.013719 -0.005152 0.000000 0.000000 0.000000
# 3 -0.005152 -0.005152 0.021295 0.000000 0.000000 0.000000
# 4 0.000000 0.000000 0.000000 0.038121 0.000000 0.000000
# 5 0.000000 0.000000 0.000000 0.000000 0.038121 0.000000
# 6 0.000000 0.000000 0.000000 0.000000 0.000000 0.035997
#
#
# Mechanical properties :
#
#
# Convention : Reuss Voigt Hill
#
# Bulk Modulus (GPa) = 51.11475 54.56583 52.84029
# Shear Modulus (GPa) = 25.42445 26.01391 25.71918
#
# Velocity S-wave (km/s) = 3.64935 3.69141 3.67044
# Velocity P-wave (km/s) = 6.67321 6.83748 6.75584
#
# Compressibility (1/GPa) = 0.01956382
#
# Stress axis : x y z
#
# Youngs Moduli (GPa) = 72.89341 72.89341 46.95946
#
# Poissons Ratio (x) = 0.31196 0.24195
# Poissons Ratio (y) = 0.31196 0.24195
# Poissons Ratio (z) = 0.37557 0.37557
#
# Static dielectric constant tensor:
#      x y z
#    x 3.605520 0.000000 0.000000 
#    y 0.000000 3.605520 0.000000 
#    z 0.000000 0.000000 3.466080 
# 
# 
# High freq. dielectric constant tensor:
#      x y z
#    x 1.747750 0.000000 0.000000 
#    y 0.000000 1.747750 0.000000 
#    z 0.000000 0.000000 1.738540 
# 
# From -- ./inp_files/1548.got.cif
#   From: 2010.03.12/outbox.cif.g09.slc.cpg/sg193_1_cif.got.tgz:1548.got - 2010.04.01 12:20:39.
