data_PCOD8330405
_publ_section_title
;
Structure prediction by ZEFSAII (Michael W. Deem and Ramdas Pophale) SiO2 
 PCOD8330405
Probable space group: P 63/M M C
;
_chemical_formula_sum "Si O2"
_cell_formula_units_Z 168
_cell_length_a 18.157306
_cell_length_b 18.157306
_cell_length_c 30.229868
_cell_angle_alpha 90.000000
_cell_angle_beta 90.000000
_cell_angle_gamma 120.000000
_cell_volume 8631.170741
_symmetry_space_group_name_H-M "P 63/M M C"
_symmetry_group_IT_number 194
_symmetry_cell_setting 'hexagonal'
loop_
_space_group_symop_operation_xyz
x,y,z
x-y,x,1/2+z
-y,x-y,z
-x,-y,1/2+z
-x+y,-x,z
y,-x+y,1/2+z
x-y,-y,-z
-x,-x+y,-z
y,x,-z
-y,-x,1/2-z
-x+y,y,1/2-z
x,x-y,1/2-z
-x,-y,-z
-x+y,-x,1/2-z
y,-x+y,-z
x,y,1/2-z
x-y,x,-z
-y,x-y,1/2-z
-x+y,y,z
x,x-y,z
-y,-x,z
y,x,1/2+z
x-y,-y,1/2+z
-x,-x+y,1/2+z
loop_
_atom_site_type_symbol
_atom_site_label
_atom_site_fract_x
_atom_site_fract_y
_atom_site_fract_z
Si Si1 0.248010 0.042596 0.045591
Si Si2 0.002680 0.832345 0.133587
Si Si3 0.299507 0.860600 0.923875
Si Si4 0.682091 0.756705 0.800732
Si Si5 0.574347 0.590828 0.849899
Si Si6 0.909431 0.371573 0.986991
Si Si7 0.507167 0.667830 0.395203
O O1 0.214515 0.107257 0.033714
O O2 0.189286 0.978505 0.084189
O O3 0.339487 0.093099 0.067425
O O4 0.251077 0.000000 0.000000
O O5 0.923775 0.847549 0.132343
O O6 0.986970 0.759731 0.168311
O O7 0.083702 0.916299 0.151136
O O8 0.234121 0.765880 0.904742
O O9 0.376277 0.918915 0.891438
O O10 0.335657 0.848108 0.970518
O O11 0.709330 0.760854 0.750000
O O12 0.652771 0.826386 0.810237
O O13 0.606924 0.662212 0.811987
O O14 0.492187 0.507814 0.830856
O O15 0.644818 0.564583 0.863386
O O16 0.928441 0.464221 0.972798
O O17 0.865420 0.313945 0.943894
O O18 0.000000 0.378909 0.000000
O O19 0.509686 0.754843 0.379612
O O20 0.409138 0.590863 0.395703
#
# Coordination Sequence:
#
# PCOD8330405 Si02
#       7
#    24  24  24  24  24  24  24
#     4  10  20  32  48  75 114 156 196 239 279 319
#     4  10  20  36  57  84 119 159 200 239 279 326
#     4  11  20  32  50  75 108 145 188 233 283 338
#     4  10  22  42  65  88 116 148 183 229 286 342
#     4  11  22  38  60  85 111 141 182 231 288 351
#     4  10  18  31  49  72 105 145 191 240 284 331
#     4  10  21  36  55  80 112 151 193 238 287 341
#
# _framework density 19.464334999999998
#
# number of rings (size 3 to 8) (size 9 to 14) (size 15 to 20)
#    0.000    1.714    2.857    2.429    0.000    1.143 
#    0.000    0.000    0.000    9.143    0.000    0.000 
#    0.000    1.143    0.000    0.000    0.000    0.000 
#
# Total GULP energy -2082141.829227 kJ/mol
# GULP energy per Si atom -12393.701364 kJ/mol
# Density = 1.942003 g / cm^3
# Si number density = 19.464335 Si / 1000 Ang^3
#
#
#
# Elastic Constant Matrix: (Units=GPa)
#
#
# Indices 1 2 3 4 5 6 
#
# 1 88.1142 44.6682 30.8779 0.0000 0.0000 0.0000
# 2 44.6682 88.1142 30.8779 0.0000 0.0000 0.0000
# 3 30.8779 30.8779 84.4806 0.0000 0.0000 0.0000
# 4 0.0000 0.0000 0.0000 15.9079 0.0000 0.0000
# 5 0.0000 0.0000 0.0000 0.0000 15.9079 0.0000
# 6 0.0000 0.0000 0.0000 0.0000 0.0000 21.7230
#
#
#
# Elastic Compliance Matrix: (Units=1/GPa)
#
#
# Indices 1 2 3 4 5 6 
#
# 1 0.016045 -0.006972 -0.003316 0.000000 0.000000 0.000000
# 2 -0.006972 0.016045 -0.003316 0.000000 0.000000 0.000000
# 3 -0.003316 -0.003316 0.014261 0.000000 0.000000 0.000000
# 4 0.000000 0.000000 0.000000 0.062862 0.000000 0.000000
# 5 0.000000 0.000000 0.000000 0.000000 0.062862 0.000000
# 6 0.000000 0.000000 0.000000 0.000000 0.000000 0.046034
#
#
# Mechanical properties :
#
#
# Convention : Reuss Voigt Hill
#
# Bulk Modulus (GPa) = 52.23893 52.61745 52.42819
# Shear Modulus (GPa) = 19.86495 20.99344 20.42920
#
# Velocity S-wave (km/s) = 3.19812 3.28771 3.24322
# Velocity P-wave (km/s) = 6.36662 6.44232 6.40458
#
# Compressibility (1/GPa) = 0.01914281
#
# Stress axis : x y z
#
# Youngs Moduli (GPa) = 62.32347 62.32347 70.11959
#
# Poissons Ratio (x) = 0.43450 0.23255
# Poissons Ratio (y) = 0.43450 0.23255
# Poissons Ratio (z) = 0.20669 0.20669
#
# Static dielectric constant tensor:
#      x y z
#    x 3.571160 0.000000 0.000000 
#    y 0.000000 3.571160 0.000000 
#    z 0.000000 0.000000 3.354090 
# 
# 
# High freq. dielectric constant tensor:
#      x y z
#    x 1.752990 0.000000 0.000000 
#    y 0.000000 1.752990 0.000000 
#    z 0.000000 0.000000 1.732230 
# 
# From -- ./inp_files/12235.got.cif
#   From: 2010.03.12/outbox.cif.g09.slc.cpg/sg194_7_cif.got.tgz:12235.got - 2010.04.01 12:26:19.
