data_PCOD8330725
_publ_section_title
;
Structure prediction by ZEFSAII (Michael W. Deem and Ramdas Pophale) SiO2 
 PCOD8330725
Probable space group: P 63/M M C
;
_chemical_formula_sum "Si O2"
_cell_formula_units_Z 72
_cell_length_a 22.460020
_cell_length_b 22.460020
_cell_length_c 8.729144
_cell_angle_alpha 90.000000
_cell_angle_beta 90.000000
_cell_angle_gamma 120.000000
_cell_volume 3813.489605
_symmetry_space_group_name_H-M "P 63/M M C"
_symmetry_group_IT_number 194
_symmetry_cell_setting 'hexagonal'
loop_
_space_group_symop_operation_xyz
x,y,z
x-y,x,1/2+z
-y,x-y,z
-x,-y,1/2+z
-x+y,-x,z
y,-x+y,1/2+z
x-y,-y,-z
-x,-x+y,-z
y,x,-z
-y,-x,1/2-z
-x+y,y,1/2-z
x,x-y,1/2-z
-x,-y,-z
-x+y,-x,1/2-z
y,-x+y,-z
x,y,1/2-z
x-y,x,-z
-y,x-y,1/2-z
-x+y,y,z
x,x-y,z
-y,-x,z
y,x,1/2+z
x-y,-y,1/2+z
-x,-x+y,1/2+z
loop_
_atom_site_type_symbol
_atom_site_label
_atom_site_fract_x
_atom_site_fract_y
_atom_site_fract_z
Si Si1 0.666993 0.470100 0.072963
Si Si2 0.332597 0.404629 0.430301
Si Si3 0.206547 0.929150 0.570677
O O1 0.671142 0.491311 0.250000
O O2 0.738389 0.476777 0.018351
O O3 0.607864 0.392137 0.045753
O O4 0.650066 0.519198 0.972400
O O5 0.391015 0.391015 0.500000
O O6 0.332188 0.396059 0.250000
O O7 0.257976 0.350490 0.495648
O O8 0.222203 0.938761 0.750000
O O9 0.128926 0.871075 0.535019
O O10 0.217478 0.000000 0.500000
#
# Coordination Sequence:
#
# PCOD8330725 Si02
#       3
#    24  24  24
#     4  10  21  38  59  81 107 141 180 220 263 315
#     4  11  22  36  56  81 109 141 176 219 270 319
#     4  10  20  34  54  80 109 141 177 218 264 315
#
# _framework density 18.880344000000001
#
# number of rings (size 3 to 8) (size 9 to 14) (size 15 to 20)
#    0.000    1.667    0.000    7.333    0.000   10.000 
#    0.000    0.000    0.000    2.333    0.000    0.000 
#    0.000    0.000    0.000    0.000    0.000    0.000 
#
# Total GULP energy -893142.520858 kJ/mol
# GULP energy per Si atom -12404.757234 kJ/mol
# Density = 1.883737 g / cm^3
# Si number density = 18.880344 Si / 1000 Ang^3
#
#
#
# Elastic Constant Matrix: (Units=GPa)
#
#
# Indices 1 2 3 4 5 6 
#
# 1 108.5477 53.1239 48.7283 0.0000 0.0000 0.0000
# 2 53.1239 108.5477 48.7283 0.0000 0.0000 0.0000
# 3 48.7283 48.7283 122.3821 0.0000 0.0000 0.0000
# 4 0.0000 0.0000 0.0000 29.5340 0.0000 0.0000
# 5 0.0000 0.0000 0.0000 0.0000 29.5340 0.0000
# 6 0.0000 0.0000 0.0000 0.0000 0.0000 27.7119
#
#
#
# Elastic Compliance Matrix: (Units=1/GPa)
#
#
# Indices 1 2 3 4 5 6 
#
# 1 0.013091 -0.004952 -0.003241 0.000000 0.000000 0.000000
# 2 -0.004952 0.013091 -0.003241 0.000000 0.000000 0.000000
# 3 -0.003241 -0.003241 0.010752 0.000000 0.000000 0.000000
# 4 0.000000 0.000000 0.000000 0.033859 0.000000 0.000000
# 5 0.000000 0.000000 0.000000 0.000000 0.033859 0.000000
# 6 0.000000 0.000000 0.000000 0.000000 0.000000 0.036086
#
#
# Mechanical properties :
#
#
# Convention : Reuss Voigt Hill
#
# Bulk Modulus (GPa) = 71.08848 71.18208 71.13528
# Shear Modulus (GPa) = 29.71013 29.94912 29.82962
#
# Velocity S-wave (km/s) = 3.97117 3.98711 3.97915
# Velocity P-wave (km/s) = 7.66556 7.67982 7.67269
#
# Compressibility (1/GPa) = 0.01406698
#
# Stress axis : x y z
#
# Youngs Moduli (GPa) = 76.38947 76.38947 93.00837
#
# Poissons Ratio (x) = 0.37828 0.30140
# Poissons Ratio (y) = 0.37828 0.30140
# Poissons Ratio (z) = 0.24755 0.24755
#
# Static dielectric constant tensor:
#      x y z
#    x 3.434020 0.000000 0.000000 
#    y 0.000000 3.434020 0.000000 
#    z 0.000000 0.000000 3.531920 
# 
# 
# High freq. dielectric constant tensor:
#      x y z
#    x 1.732130 0.000000 0.000000 
#    y 0.000000 1.732130 0.000000 
#    z 0.000000 0.000000 1.741490 
# 
# From -- ./inp_files/872.got.cif
#   From: 2010.03.12/outbox.cif.g09.slc.cpg/sg194_1_cif.got.tgz:872.got - 2010.04.01 12:26:19.
