data_PCOD8330359
_publ_section_title
;
Structure prediction by ZEFSAII (Michael W. Deem and Ramdas Pophale) SiO2 
 PCOD8330359
Probable space group: P 63/M M C
;
_chemical_formula_sum "Si O2"
_cell_formula_units_Z 120
_cell_length_a 17.110967
_cell_length_b 17.110967
_cell_length_c 30.501885
_cell_angle_alpha 90.000000
_cell_angle_beta 90.000000
_cell_angle_gamma 120.000000
_cell_volume 7734.040082
_symmetry_space_group_name_H-M "P 63/M M C"
_symmetry_group_IT_number 194
_symmetry_cell_setting 'hexagonal'
loop_
_space_group_symop_operation_xyz
x,y,z
x-y,x,1/2+z
-y,x-y,z
-x,-y,1/2+z
-x+y,-x,z
y,-x+y,1/2+z
x-y,-y,-z
-x,-x+y,-z
y,x,-z
-y,-x,1/2-z
-x+y,y,1/2-z
x,x-y,1/2-z
-x,-y,-z
-x+y,-x,1/2-z
y,-x+y,-z
x,y,1/2-z
x-y,x,-z
-y,x-y,1/2-z
-x+y,y,z
x,x-y,z
-y,-x,z
y,x,1/2+z
x-y,-y,1/2+z
-x,-x+y,1/2+z
loop_
_atom_site_type_symbol
_atom_site_label
_atom_site_fract_x
_atom_site_fract_y
_atom_site_fract_z
Si Si1 0.238278 0.295588 0.336835
Si Si2 0.515662 0.850008 0.378698
Si Si3 0.763427 0.057652 0.417775
Si Si4 0.813193 0.001861 0.750000
Si Si5 0.415963 0.409926 0.550713
Si Si6 0.000000 0.182555 0.000000
O O1 0.140593 0.281186 0.345279
O O2 0.311402 0.402489 0.344047
O O3 0.249646 0.231518 0.371340
O O4 0.242275 0.254706 0.290113
O O5 0.425076 0.850152 0.362742
O O6 0.495361 0.747681 0.381474
O O7 0.544221 0.894078 0.427492
O O8 0.842833 0.157168 0.423824
O O9 0.672267 0.062491 0.422065
O O10 0.760852 0.991763 0.456425
O O11 0.809379 0.904690 0.750000
O O12 0.918334 0.081667 0.750000
O O13 0.388742 0.388742 0.500000
O O14 0.484956 0.515044 0.556920
O O15 0.085207 0.170413 0.995790
#
# Coordination Sequence:
#
# PCOD8330359 Si02
#       6
#    24  24  24  12  24  12
#     4   9  18  31  46  65  91 119 147 185 228 265
#     4   9  17  29  47  68  92 121 154 190 230 279
#     4  10  18  28  44  64  84 113 150 182 215 264
#     4  10  19  32  49  68  90 118 152 188 225 264
#     4   9  17  29  42  60  86 116 148 188 232 266
#     4  10  19  28  39  58  86 116 144 174 209 250
#
# _framework density 15.515822999999999
#
# number of rings (size 3 to 8) (size 9 to 14) (size 15 to 20)
#    0.000    2.600    1.000    1.600    0.000    1.600 
#    0.000    0.500    0.000    6.800    0.000    1.400 
#    0.000    0.000    0.000    2.000    0.000    1.600 
#
# Total GULP energy -1486795.638324 kJ/mol
# GULP energy per Si atom -12389.963653 kJ/mol
# Density = 1.548051 g / cm^3
# Si number density = 15.515823 Si / 1000 Ang^3
#
#
#
# Elastic Constant Matrix: (Units=GPa)
#
#
# Indices 1 2 3 4 5 6 
#
# 1 79.6406 42.6872 44.6128 0.0000 0.0000 0.0000
# 2 42.6872 79.6406 44.6128 0.0000 0.0000 0.0000
# 3 44.6128 44.6128 115.3641 0.0000 0.0000 0.0000
# 4 0.0000 0.0000 0.0000 20.9624 0.0000 0.0000
# 5 0.0000 0.0000 0.0000 0.0000 20.9624 0.0000
# 6 0.0000 0.0000 0.0000 0.0000 0.0000 18.4767
#
#
#
# Elastic Compliance Matrix: (Units=1/GPa)
#
#
# Indices 1 2 3 4 5 6 
#
# 1 0.019224 -0.007837 -0.004403 0.000000 0.000000 0.000000
# 2 -0.007837 0.019224 -0.004403 0.000000 0.000000 0.000000
# 3 -0.004403 -0.004403 0.012074 0.000000 0.000000 0.000000
# 4 0.000000 0.000000 0.000000 0.047705 0.000000 0.000000
# 5 0.000000 0.000000 0.000000 0.000000 0.047705 0.000000
# 6 0.000000 0.000000 0.000000 0.000000 0.000000 0.054122
#
#
# Mechanical properties :
#
#
# Convention : Reuss Voigt Hill
#
# Bulk Modulus (GPa) = 58.02607 59.83008 58.92807
# Shear Modulus (GPa) = 20.91307 21.59581 21.25444
#
# Velocity S-wave (km/s) = 3.67530 3.73481 3.70517
# Velocity P-wave (km/s) = 7.44913 7.56590 7.50774
#
# Compressibility (1/GPa) = 0.01723363
#
# Stress axis : x y z
#
# Youngs Moduli (GPa) = 52.01885 52.01885 82.82374
#
# Poissons Ratio (x) = 0.40769 0.36470
# Poissons Ratio (y) = 0.40769 0.36470
# Poissons Ratio (z) = 0.22906 0.22906
#
# Static dielectric constant tensor:
#      x y z
#    x 3.003370 0.000000 0.000000 
#    y 0.000000 3.003370 0.000000 
#    z 0.000000 0.000000 3.062270 
# 
# 
# High freq. dielectric constant tensor:
#      x y z
#    x 1.591410 0.000000 0.000000 
#    y 0.000000 1.591410 0.000000 
#    z 0.000000 0.000000 1.588790 
# 
# From -- ./inp_files/10715.got.cif
#   From: 2010.03.12/outbox.cif.g09.slc.cpg/sg194_6_cif.got.tgz:10715.got - 2010.04.01 12:26:19.
