data_PCOD8330880
_publ_section_title
;
Structure prediction by ZEFSAII (Michael W. Deem and Ramdas Pophale) SiO2 
 PCOD8330880
Probable space group: I 2 3
;
_chemical_formula_sum "Si O2"
_cell_formula_units_Z 106
_cell_length_a 17.229082
_cell_length_b 17.229082
_cell_length_c 17.229082
_cell_angle_alpha 90.000000
_cell_angle_beta 90.000000
_cell_angle_gamma 90.000000
_cell_volume 5114.302523
_symmetry_space_group_name_H-M "I 2 3"
_symmetry_group_IT_number 197
_symmetry_cell_setting 'cubic'
loop_
_space_group_symop_operation_xyz
x,y,z
z,x,y
y,z,x
-y,-z,x
z,-x,-y
-y,z,-x
-z,-x,y
-z,x,-y
y,-z,-x
-x,-y,z
x,-y,-z
-x,y,-z
1/2+x,1/2+y,1/2+z
1/2+z,1/2+x,1/2+y
1/2+y,1/2+z,1/2+x
1/2-y,1/2-z,1/2+x
1/2+z,1/2-x,1/2-y
1/2-y,1/2+z,1/2-x
1/2-z,1/2-x,1/2+y
1/2-z,1/2+x,1/2-y
1/2+y,1/2-z,1/2-x
1/2-x,1/2-y,1/2+z
1/2+x,1/2-y,1/2-z
1/2-x,1/2+y,1/2-z
loop_
_atom_site_type_symbol
_atom_site_label
_atom_site_fract_x
_atom_site_fract_y
_atom_site_fract_z
Si Si1 0.228228 0.680917 0.573852
Si Si2 0.390243 0.390243 0.390243
Si Si3 0.916671 0.520698 0.590220
Si Si4 0.086418 0.320017 0.537417
Si Si5 0.500000 0.500000 0.500000
Si Si6 0.200516 0.336493 0.911789
O O1 0.309685 0.632312 0.563818
O O2 0.155722 0.656535 0.520608
O O3 0.197491 0.666030 0.661276
O O4 0.239939 0.771820 0.557772
O O5 0.444999 0.444999 0.444999
O O6 0.913264 0.500000 0.500000
O O7 0.909777 0.612766 0.601904
O O8 0.847830 0.478156 0.635621
O O9 0.000000 0.500000 0.626609
O O10 0.105269 0.240712 0.581602
O O11 0.000000 0.318042 0.500000
#
# Coordination Sequence:
#
# PCOD8330880 Si02
#       6
#    24   8  24  24   2  24
#     4  10  24  45  61  94 145 181 215 287 366 401
#     4   9  24  48  69 103 137 184 222 312 360 411
#     4  11  21  42  65  98 133 168 226 291 343 407
#     4  12  25  38  69 102 132 180 238 280 345 432
#     4  12  24  48  96 112 122 172 288 276 336 432
#     4  11  25  41  66  93 137 178 227 280 354 420
#
# _framework density 20.726188
#
# number of rings (size 3 to 8) (size 9 to 14) (size 15 to 20)
#    0.000    1.132    4.528    1.132    9.509    3.623 
#    0.000    0.000    0.000    0.906    0.000    0.000 
#    0.000    0.000    0.000    0.000    0.000    0.000 
#
# Total GULP energy -656645.244162 kJ/mol
# GULP energy per Si atom -12389.532909 kJ/mol
# Density = 2.067901 g / cm^3
# Si number density = 20.726188 Si / 1000 Ang^3
#
#
#
# Elastic Constant Matrix: (Units=GPa)
#
#
# Indices 1 2 3 4 5 6 
#
# 1 103.8374 51.9724 51.9723 0.0000 0.0000 0.0000
# 2 51.9724 103.8373 51.9723 0.0000 0.0000 0.0000
# 3 51.9723 51.9723 103.8374 0.0000 0.0000 0.0000
# 4 0.0000 0.0000 0.0000 36.0411 0.0000 0.0000
# 5 0.0000 0.0000 0.0000 0.0000 36.0412 0.0000
# 6 0.0000 0.0000 0.0000 0.0000 0.0000 36.0411
#
#
#
# Elastic Compliance Matrix: (Units=1/GPa)
#
#
# Indices 1 2 3 4 5 6 
#
# 1 0.014458 -0.004823 -0.004823 0.000000 0.000000 0.000000
# 2 -0.004823 0.014458 -0.004823 0.000000 0.000000 0.000000
# 3 -0.004823 -0.004823 0.014458 0.000000 0.000000 0.000000
# 4 0.000000 0.000000 0.000000 0.027746 0.000000 0.000000
# 5 0.000000 0.000000 0.000000 0.000000 0.027746 0.000000
# 6 0.000000 0.000000 0.000000 0.000000 0.000000 0.027746
#
#
# Mechanical properties :
#
#
# Convention : Reuss Voigt Hill
#
# Bulk Modulus (GPa) = 69.26068 69.26068 69.26068
# Shear Modulus (GPa) = 31.17956 31.99769 31.58862
#
# Velocity S-wave (km/s) = 3.88281 3.93342 3.90820
# Velocity P-wave (km/s) = 7.32060 7.35654 7.33859
#
# Compressibility (1/GPa) = 0.01443821
#
# Stress axis : x y z
#
# Youngs Moduli (GPa) = 69.16526 69.16522 69.16534
#
# Poissons Ratio (x) = 0.33356 0.33356
# Poissons Ratio (y) = 0.33356 0.33356
# Poissons Ratio (z) = 0.33356 0.33356
#
# Static dielectric constant tensor:
#      x y z
#    x 3.849080 0.000000 0.000000 
#    y 0.000000 3.849080 0.000000 
#    z 0.000000 0.000000 3.849080 
# 
# 
# High freq. dielectric constant tensor:
#      x y z
#    x 1.810280 0.000000 0.000000 
#    y 0.000000 1.810280 0.000000 
#    z 0.000000 0.000000 1.810280 
# 
# From -- ./inp_files/545.got.cif
#   From: 2010.03.12/outbox.cif.g09.slc.cpg/sg197_cif.got.tgz:545.got - 2010.04.01 12:33:32.
