data_PCOD8330114
_publ_section_title
;
Structure prediction by ZEFSAII (Michael W. Deem and Ramdas Pophale) SiO2 
 PCOD8330114
Probable space group: P 63/M C M
;
_chemical_formula_sum "Si O2"
_cell_formula_units_Z 168
_cell_length_a 18.169519
_cell_length_b 18.169519
_cell_length_c 30.602964
_cell_angle_alpha 90.000000
_cell_angle_beta 90.000000
_cell_angle_gamma 120.000000
_cell_volume 8749.454639
_symmetry_space_group_name_H-M "P 63/M C M"
_symmetry_group_IT_number 193
_symmetry_cell_setting 'hexagonal'
loop_
_space_group_symop_operation_xyz
x,y,z
x-y,x,1/2+z
-y,x-y,z
-x,-y,1/2+z
-x+y,-x,z
y,-x+y,1/2+z
x-y,-y,1/2-z
-x,-x+y,1/2-z
y,x,1/2-z
-y,-x,-z
-x+y,y,-z
x,x-y,-z
-x,-y,-z
-x+y,-x,1/2-z
y,-x+y,-z
x,y,1/2-z
x-y,x,-z
-y,x-y,1/2-z
-x+y,y,1/2+z
x,x-y,1/2+z
-y,-x,1/2+z
y,x,z
x-y,-y,z
-x,-x+y,z
loop_
_atom_site_type_symbol
_atom_site_label
_atom_site_fract_x
_atom_site_fract_y
_atom_site_fract_z
Si Si1 0.259368 0.904512 0.511280
Si Si2 0.099551 0.523056 0.621908
Si Si3 0.098229 0.194640 0.299819
Si Si4 0.200121 0.447835 0.911152
Si Si5 0.339731 0.097878 0.150868
Si Si6 0.381848 0.480313 0.702440
Si Si7 0.361434 0.524197 0.961592
O O1 0.161049 0.838952 0.500000
O O2 0.274243 0.883178 0.560046
O O3 0.326500 0.896907 0.480052
O O4 0.275919 0.000000 0.508777
O O5 0.164022 0.486321 0.624597
O O6 0.134788 0.588351 0.662545
O O7 0.111260 0.570752 0.576031
O O8 0.000000 0.452466 0.626967
O O9 0.118938 0.227173 0.250000
O O10 0.152707 0.152707 0.315244
O O11 0.123794 0.272859 0.331982
O O12 0.000000 0.124790 0.304535
O O13 0.235009 0.390475 0.890033
O O14 0.277110 0.521632 0.940608
O O15 0.402129 0.112864 0.191233
O O16 0.294374 0.000000 0.134888
O O17 0.377139 0.518440 0.750000
O O18 0.449188 0.449188 0.706310
O O19 0.405113 0.594888 0.000000
#
# Coordination Sequence:
#
# PCOD8330114 Si02
#       7
#    24  24  24  24  24  24  24
#     4  10  22  38  59  87 118 154 195 238 293 354
#     4  11  22  38  61  87 119 155 191 236 297 359
#     4   9  17  30  51  82 118 155 195 246 307 359
#     4  11  23  37  56  91 119 153 190 244 295 352
#     4  10  20  36  59  84 114 155 203 249 287 341
#     4   9  18  36  62  86 110 151 204 245 280 337
#     4  11  22  39  62  87 116 153 192 240 292 360
#
# _framework density 19.201197000000001
#
# number of rings (size 3 to 8) (size 9 to 14) (size 15 to 20)
#    0.000    1.857    2.857    1.429    0.000    6.286 
#    0.857    3.571    0.000    1.857    0.000    1.000 
#    0.000    0.000    0.000    0.000    0.000    0.000 
#
# Total GULP energy -2082207.160870 kJ/mol
# GULP energy per Si atom -12394.090243 kJ/mol
# Density = 1.915749 g / cm^3
# Si number density = 19.201197 Si / 1000 Ang^3
#
#
#
# Elastic Constant Matrix: (Units=GPa)
#
#
# Indices 1 2 3 4 5 6 
#
# 1 106.4490 54.3935 45.4615 0.0000 0.0000 0.0000
# 2 54.3935 106.4490 45.4615 0.0000 0.0000 0.0000
# 3 45.4615 45.4615 119.0055 0.0000 0.0000 0.0000
# 4 0.0000 0.0000 0.0000 23.2946 0.0000 0.0000
# 5 0.0000 0.0000 0.0000 0.0000 23.2946 0.0000
# 6 0.0000 0.0000 0.0000 0.0000 0.0000 26.0277
#
#
#
# Elastic Compliance Matrix: (Units=1/GPa)
#
#
# Indices 1 2 3 4 5 6 
#
# 1 0.013570 -0.005640 -0.003029 0.000000 0.000000 0.000000
# 2 -0.005640 0.013570 -0.003029 0.000000 0.000000 0.000000
# 3 -0.003029 -0.003029 0.010717 0.000000 0.000000 0.000000
# 4 0.000000 0.000000 0.000000 0.042928 0.000000 0.000000
# 5 0.000000 0.000000 0.000000 0.000000 0.042928 0.000000
# 6 0.000000 0.000000 0.000000 0.000000 0.000000 0.038421
#
#
# Mechanical properties :
#
#
# Convention : Reuss Voigt Hill
#
# Bulk Modulus (GPa) = 69.15726 69.17071 69.16399
# Shear Modulus (GPa) = 26.26714 26.96254 26.61484
#
# Velocity S-wave (km/s) = 3.70265 3.75135 3.72708
# Velocity P-wave (km/s) = 7.37393 7.40715 7.39056
#
# Compressibility (1/GPa) = 0.01445980
#
# Stress axis : x y z
#
# Youngs Moduli (GPa) = 73.69214 73.69214 93.30655
#
# Poissons Ratio (x) = 0.41565 0.28265
# Poissons Ratio (y) = 0.41565 0.28265
# Poissons Ratio (z) = 0.22323 0.22323
#
# Static dielectric constant tensor:
#      x y z
#    x 3.388590 0.000000 0.000000 
#    y 0.000000 3.388590 0.000000 
#    z 0.000000 0.000000 3.732440 
# 
# 
# High freq. dielectric constant tensor:
#      x y z
#    x 1.732140 0.000000 0.000000 
#    y 0.000000 1.732140 0.000000 
#    z 0.000000 0.000000 1.749570 
# 
# From -- ./inp_files/9339.got.cif
#   From: 2010.03.12/outbox.cif.g09.slc.cpg/sg193_5_cif.got.tgz:9339.got - 2010.04.01 12:20:39.
