data_PCOD8330264
_publ_section_title
;
Structure prediction by ZEFSAII (Michael W. Deem and Ramdas Pophale) SiO2 
 PCOD8330264
Probable space group: P 63/M C M
;
_chemical_formula_sum "Si O2"
_cell_formula_units_Z 120
_cell_length_a 22.081195
_cell_length_b 22.081195
_cell_length_c 15.055857
_cell_angle_alpha 90.000000
_cell_angle_beta 90.000000
_cell_angle_gamma 120.000000
_cell_volume 6357.425198
_symmetry_space_group_name_H-M "P 63/M C M"
_symmetry_group_IT_number 193
_symmetry_cell_setting 'hexagonal'
loop_
_space_group_symop_operation_xyz
x,y,z
x-y,x,1/2+z
-y,x-y,z
-x,-y,1/2+z
-x+y,-x,z
y,-x+y,1/2+z
x-y,-y,1/2-z
-x,-x+y,1/2-z
y,x,1/2-z
-y,-x,-z
-x+y,y,-z
x,x-y,-z
-x,-y,-z
-x+y,-x,1/2-z
y,-x+y,-z
x,y,1/2-z
x-y,x,-z
-y,x-y,1/2-z
-x+y,y,1/2+z
x,x-y,1/2+z
-y,-x,1/2+z
y,x,z
x-y,-y,z
-x,-x+y,z
loop_
_atom_site_type_symbol
_atom_site_label
_atom_site_fract_x
_atom_site_fract_y
_atom_site_fract_z
Si Si1 0.921996 0.078516 0.605098
Si Si2 0.206747 0.289436 0.849294
Si Si3 0.639428 0.083218 0.152340
Si Si4 0.313313 0.396862 0.530392
Si Si5 0.917305 0.421029 0.349147
O O1 0.923729 0.076272 0.500000
O O2 0.875879 0.113287 0.635107
O O3 0.000000 0.126478 0.643508
O O4 0.890089 0.000000 0.643639
O O5 0.219624 0.321201 0.750000
O O6 0.243933 0.243933 0.862825
O O7 0.238193 0.352112 0.921413
O O8 0.675141 0.110098 0.250000
O O9 0.585831 0.111639 0.132303
O O10 0.595670 0.000000 0.153798
O O11 0.696562 0.108791 0.072801
O O12 0.354701 0.354701 0.536408
O O13 0.357364 0.471177 0.580959
O O14 0.896102 0.389622 0.250000
O O15 0.000000 0.463573 0.359008
#
# Coordination Sequence:
#
# PCOD8330264 Si02
#       5
#    24  24  24  24  24
#     4   9  17  30  48  66  81  96 116 147 196 269
#     4   9  17  27  39  58  81 101 121 146 183 242
#     4   8  13  19  27  42  65  96 137 177 200 213
#     4   9  14  20  31  46  70 103 131 157 192 230
#     4   8  12  17  26  42  65  96 136 174 199 217
#
# _framework density 18.875565000000002
#
# number of rings (size 3 to 8) (size 9 to 14) (size 15 to 20)
#    0.000    3.400    0.000    2.600    0.000    6.000 
#    0.000    0.000    0.000    2.400    0.000    5.600 
#    0.000    0.000    0.000    0.600    0.000    0.000 
#
# Total GULP energy -1486667.899689 kJ/mol
# GULP energy per Si atom -12388.899164 kJ/mol
# Density = 1.883260 g / cm^3
# Si number density = 18.875565 Si / 1000 Ang^3
#
#
#
# Elastic Constant Matrix: (Units=GPa)
#
#
# Indices 1 2 3 4 5 6 
#
# 1 59.4455 29.9751 49.1451 0.0000 0.0000 0.0000
# 2 29.9751 59.4455 49.1451 0.0000 0.0000 0.0000
# 3 49.1451 49.1451 142.9313 0.0000 0.0000 0.0000
# 4 0.0000 0.0000 0.0000 8.9421 0.0000 0.0000
# 5 0.0000 0.0000 0.0000 0.0000 8.9421 0.0000
# 6 0.0000 0.0000 0.0000 0.0000 0.0000 14.7352
#
#
#
# Elastic Compliance Matrix: (Units=1/GPa)
#
#
# Indices 1 2 3 4 5 6 
#
# 1 0.025955 -0.007977 -0.006181 0.000000 0.000000 0.000000
# 2 -0.007977 0.025955 -0.006181 0.000000 0.000000 0.000000
# 3 -0.006181 -0.006181 0.011247 0.000000 0.000000 0.000000
# 4 0.000000 0.000000 0.000000 0.111831 0.000000 0.000000
# 5 0.000000 0.000000 0.000000 0.000000 0.111831 0.000000
# 6 0.000000 0.000000 0.000000 0.000000 0.000000 0.067865
#
#
# Mechanical properties :
#
#
# Convention : Reuss Voigt Hill
#
# Bulk Modulus (GPa) = 44.49019 57.59477 51.04248
# Shear Modulus (GPa) = 12.41139 15.42767 13.91953
#
# Velocity S-wave (km/s) = 2.56703 2.86201 2.71852
# Velocity P-wave (km/s) = 5.69277 6.44209 6.07899
#
# Compressibility (1/GPa) = 0.02247687
#
# Stress axis : x y z
#
# Youngs Moduli (GPa) = 38.52824 38.52824 88.91150
#
# Poissons Ratio (x) = 0.30735 0.54959
# Poissons Ratio (y) = 0.30735 0.54959
# Poissons Ratio (z) = 0.23816 0.23816
#
# Static dielectric constant tensor:
#      x y z
#    x 3.153050 0.000000 0.000000 
#    y 0.000000 3.153050 0.000000 
#    z 0.000000 0.000000 3.788060 
# 
# 
# High freq. dielectric constant tensor:
#      x y z
#    x 1.676580 0.000000 0.000000 
#    y 0.000000 1.676580 0.000000 
#    z 0.000000 0.000000 1.751080 
# 
# From -- ./inp_files/4050.got.cif
#   From: 2010.03.12/outbox.cif.g09.slc.cpg/sg193_3_cif.got.tgz:4050.got - 2010.04.01 12:20:39.
