data_PCOD8330393
_publ_section_title
;
Structure prediction by ZEFSAII (Michael W. Deem and Ramdas Pophale) SiO2 
 PCOD8330393
Probable space group: P 63/M M C
;
_chemical_formula_sum "Si O2"
_cell_formula_units_Z 108
_cell_length_a 17.358213
_cell_length_b 17.358213
_cell_length_c 25.261888
_cell_angle_alpha 90.000000
_cell_angle_beta 90.000000
_cell_angle_gamma 120.000000
_cell_volume 6591.837056
_symmetry_space_group_name_H-M "P 63/M M C"
_symmetry_group_IT_number 194
_symmetry_cell_setting 'hexagonal'
loop_
_space_group_symop_operation_xyz
x,y,z
x-y,x,1/2+z
-y,x-y,z
-x,-y,1/2+z
-x+y,-x,z
y,-x+y,1/2+z
x-y,-y,-z
-x,-x+y,-z
y,x,-z
-y,-x,1/2-z
-x+y,y,1/2-z
x,x-y,1/2-z
-x,-y,-z
-x+y,-x,1/2-z
y,-x+y,-z
x,y,1/2-z
x-y,x,-z
-y,x-y,1/2-z
-x+y,y,z
x,x-y,z
-y,-x,z
y,x,1/2+z
x-y,-y,1/2+z
-x,-x+y,1/2+z
loop_
_atom_site_type_symbol
_atom_site_label
_atom_site_fract_x
_atom_site_fract_y
_atom_site_fract_z
Si Si1 0.763839 0.065629 0.451161
Si Si2 0.635092 0.104575 0.000828
Si Si3 0.060399 0.298219 0.147454
Si Si4 0.182875 0.180948 0.750000
Si Si5 0.332191 0.840849 0.118456
O O1 0.868949 0.131052 0.450433
O O2 0.714022 0.123980 0.458130
O O3 0.740862 0.000000 0.500000
O O4 0.738140 0.013887 0.396851
O O5 0.573869 0.147737 0.018106
O O6 0.675411 0.138729 0.942838
O O7 0.571698 0.000000 0.000000
O O8 0.141208 0.282416 0.130704
O O9 0.013195 0.244860 0.200243
O O10 0.098552 0.404279 0.154405
O O11 0.153839 0.076920 0.750000
O O12 0.094497 0.188993 0.750000
O O13 0.431060 0.862119 0.133729
O O14 0.262999 0.737002 0.128906
#
# Coordination Sequence:
#
# PCOD8330393 Si02
#       5
#    24  24  24  12  24
#     4  11  19  29  47  71  98 127 159 197 245 298
#     4   9  16  26  43  67  96 131 168 202 235 280
#     4  10  20  34  51  71  97 129 165 204 247 293
#     4  10  21  38  57  74  92 122 166 212 251 288
#     4  10  18  30  48  73 103 136 170 203 242 292
#
# _framework density 16.383900000000001
#
# number of rings (size 3 to 8) (size 9 to 14) (size 15 to 20)
#    0.000    2.000    4.444    2.333    0.000    0.000 
#    0.000    0.556    0.000    5.778    0.000    1.556 
#    0.000    0.000    0.000    0.889    0.000    0.444 
#
# Total GULP energy -1338274.458027 kJ/mol
# GULP energy per Si atom -12391.430167 kJ/mol
# Density = 1.634661 g / cm^3
# Si number density = 16.383900 Si / 1000 Ang^3
#
#
#
# Elastic Constant Matrix: (Units=GPa)
#
#
# Indices 1 2 3 4 5 6 
#
# 1 102.2501 56.4159 48.6818 0.0000 0.0000 0.0000
# 2 56.4159 102.2501 48.6818 0.0000 0.0000 0.0000
# 3 48.6818 48.6818 85.1570 0.0000 0.0000 0.0000
# 4 0.0000 0.0000 0.0000 16.5206 0.0000 0.0000
# 5 0.0000 0.0000 0.0000 0.0000 16.5206 0.0000
# 6 0.0000 0.0000 0.0000 0.0000 0.0000 22.9171
#
#
#
# Elastic Compliance Matrix: (Units=1/GPa)
#
#
# Indices 1 2 3 4 5 6 
#
# 1 0.015763 -0.006055 -0.005550 0.000000 0.000000 0.000000
# 2 -0.006055 0.015763 -0.005550 0.000000 0.000000 0.000000
# 3 -0.005550 -0.005550 0.018088 0.000000 0.000000 0.000000
# 4 0.000000 0.000000 0.000000 0.060531 0.000000 0.000000
# 5 0.000000 0.000000 0.000000 0.000000 0.060531 0.000000
# 6 0.000000 0.000000 0.000000 0.000000 0.000000 0.043636
#
#
# Mechanical properties :
#
#
# Convention : Reuss Voigt Hill
#
# Bulk Modulus (GPa) = 65.33706 66.35734 65.84720
# Shear Modulus (GPa) = 19.70662 20.25016 19.97839
#
# Velocity S-wave (km/s) = 3.47191 3.51946 3.49577
# Velocity P-wave (km/s) = 7.48583 7.55678 7.52139
#
# Compressibility (1/GPa) = 0.01530525
#
# Stress axis : x y z
#
# Youngs Moduli (GPa) = 63.43977 63.43977 55.28398
#
# Poissons Ratio (x) = 0.38412 0.30682
# Poissons Ratio (y) = 0.38412 0.30682
# Poissons Ratio (z) = 0.35208 0.35208
#
# Static dielectric constant tensor:
#      x y z
#    x 3.570550 0.000000 0.000000 
#    y 0.000000 3.570550 0.000000 
#    z 0.000000 0.000000 2.995020 
# 
# 
# High freq. dielectric constant tensor:
#      x y z
#    x 1.634620 0.000000 0.000000 
#    y 0.000000 1.634620 0.000000 
#    z 0.000000 0.000000 1.598750 
# 
# From -- ./inp_files/9227.got.cif
#   From: 2010.03.12/outbox.cif.g09.slc.cpg/sg194_5_cif.got.tgz:9227.got - 2010.04.01 12:26:19.
