data_PCOD8330541
_publ_section_title
;
Structure prediction by ZEFSAII (Michael W. Deem and Ramdas Pophale) SiO2 
 PCOD8330541
Probable space group: P 63/M M C
;
_chemical_formula_sum "Si O2"
_cell_formula_units_Z 192
_cell_length_a 28.207360
_cell_length_b 28.207360
_cell_length_c 17.061553
_cell_angle_alpha 90.000000
_cell_angle_beta 90.000000
_cell_angle_gamma 120.000000
_cell_volume 11756.392415
_symmetry_space_group_name_H-M "P 63/M M C"
_symmetry_group_IT_number 194
_symmetry_cell_setting 'hexagonal'
loop_
_space_group_symop_operation_xyz
x,y,z
x-y,x,1/2+z
-y,x-y,z
-x,-y,1/2+z
-x+y,-x,z
y,-x+y,1/2+z
x-y,-y,-z
-x,-x+y,-z
y,x,-z
-y,-x,1/2-z
-x+y,y,1/2-z
x,x-y,1/2-z
-x,-y,-z
-x+y,-x,1/2-z
y,-x+y,-z
x,y,1/2-z
x-y,x,-z
-y,x-y,1/2-z
-x+y,y,z
x,x-y,z
-y,-x,z
y,x,1/2+z
x-y,-y,1/2+z
-x,-x+y,1/2+z
loop_
_atom_site_type_symbol
_atom_site_label
_atom_site_fract_x
_atom_site_fract_y
_atom_site_fract_z
Si Si1 0.666446 0.884951 0.093897
Si Si2 0.670640 0.550069 0.156945
Si Si3 0.666667 0.226611 0.156808
Si Si4 0.825880 0.277361 0.658437
Si Si5 0.397261 0.496831 0.342912
Si Si6 0.401397 0.005236 0.407502
Si Si7 0.773640 0.653845 0.089940
Si Si8 0.998885 0.707595 0.407644
O O1 0.692827 0.846414 0.109565
O O2 0.612700 0.865815 0.145123
O O3 0.711014 0.947238 0.119939
O O4 0.648643 0.881063 0.003554
O O5 0.668880 0.554660 0.250000
O O6 0.663590 0.492697 0.128744
O O7 0.620215 0.553786 0.119017
O O8 0.729589 0.596343 0.126041
O O9 0.667307 0.229098 0.250000
O O10 0.614132 0.228263 0.123386
O O11 0.721454 0.278547 0.123024
O O12 0.818955 0.281817 0.750000
O O13 0.765301 0.234700 0.622405
O O14 0.854029 0.338478 0.621410
O O15 0.394055 0.494945 0.250000
O O16 0.443530 0.556471 0.372928
O O17 0.414049 0.452744 0.369134
O O18 0.402867 0.000000 0.500000
O O19 0.343073 0.995285 0.376150
O O20 0.834549 0.669097 0.117296
O O21 0.760340 0.701140 0.120137
O O22 0.000000 0.706195 0.500000
#
# Coordination Sequence:
#
# PCOD8330541 Si02
#       8
#    24  24  24  24  24  24  24  24
#     4   9  15  26  45  65  85 112 147 185 227 268
#     4  10  20  31  46  67  91 118 146 184 223 263
#     4   9  17  30  48  67  86 110 144 186 228 267
#     4   9  17  29  47  67  85 106 137 177 217 262
#     4  10  20  32  47  67  92 117 140 172 219 272
#     4  10  19  32  49  65  89 117 147 179 214 259
#     4   9  17  27  42  62  87 123 156 178 212 265
#     4   8  14  25  40  60  85 109 139 182 217 252
#
# _framework density 16.331541000000001
#
# number of rings (size 3 to 8) (size 9 to 14) (size 15 to 20)
#    0.000    2.750    1.250    1.625    0.000    2.000 
#    0.000    1.250    0.000    0.250    0.000    1.750 
#    0.000    0.000    0.000    0.375    0.000   12.000 
#
# Total GULP energy -2378972.925696 kJ/mol
# GULP energy per Si atom -12390.483988 kJ/mol
# Density = 1.629437 g / cm^3
# Si number density = 16.331541 Si / 1000 Ang^3
#
#
#
# Elastic Constant Matrix: (Units=GPa)
#
#
# Indices 1 2 3 4 5 6 
#
# 1 137.8565 87.1121 14.8150 0.0000 0.0000 0.0000
# 2 87.1121 137.8565 14.8150 0.0000 0.0000 0.0000
# 3 14.8150 14.8150 17.5770 0.0000 0.0000 0.0000
# 4 0.0000 0.0000 0.0000 15.0096 0.0000 0.0000
# 5 0.0000 0.0000 0.0000 0.0000 15.0096 0.0000
# 6 0.0000 0.0000 0.0000 0.0000 0.0000 25.3722
#
#
#
# Elastic Compliance Matrix: (Units=1/GPa)
#
#
# Indices 1 2 3 4 5 6 
#
# 1 0.012353 -0.007353 -0.004214 0.000000 0.000000 0.000000
# 2 -0.007353 0.012353 -0.004214 0.000000 0.000000 0.000000
# 3 -0.004214 -0.004214 0.063997 0.000000 0.000000 0.000000
# 4 0.000000 0.000000 0.000000 0.066624 0.000000 0.000000
# 5 0.000000 0.000000 0.000000 0.000000 0.066624 0.000000
# 6 0.000000 0.000000 0.000000 0.000000 0.000000 0.039413
#
#
# Mechanical properties :
#
#
# Convention : Reuss Voigt Hill
#
# Bulk Modulus (GPa) = 17.50104 58.53046 38.01575
# Shear Modulus (GPa) = 16.02688 22.84814 19.43751
#
# Velocity S-wave (km/s) = 3.13604 3.74440 3.45364
# Velocity P-wave (km/s) = 4.88389 7.38991 6.26351
#
# Compressibility (1/GPa) = 0.05713947
#
# Stress axis : x y z
#
# Youngs Moduli (GPa) = 80.94967 80.94967 15.62576
#
# Poissons Ratio (x) = 0.59524 0.06585
# Poissons Ratio (y) = 0.59524 0.06585
# Poissons Ratio (z) = 0.34116 0.34116
#
# Static dielectric constant tensor:
#      x y z
#    x 3.381290 0.000000 0.000000 
#    y 0.000000 3.381290 0.000000 
#    z 0.000000 0.000000 2.845580 
# 
# 
# High freq. dielectric constant tensor:
#      x y z
#    x 1.617530 0.000000 0.000000 
#    y 0.000000 1.617530 0.000000 
#    z 0.000000 0.000000 1.604350 
# 
# From -- ./inp_files/5735.got.cif
#   From: 2010.03.12/outbox.cif.g09.slc.cpg/sg194_3_cif.got.tgz:5735.got - 2010.04.01 12:26:19.
