data_PCOD8330931
_publ_section_title
;
Structure prediction by ZEFSAII (Michael W. Deem and Ramdas Pophale) SiO2 
 PCOD8330931
Probable space group: F D 3
;
_chemical_formula_sum "Si O2"
_cell_formula_units_Z 232
_cell_length_a 25.423173
_cell_length_b 25.423173
_cell_length_c 25.423173
_cell_angle_alpha 90.000000
_cell_angle_beta 90.000000
_cell_angle_gamma 90.000000
_cell_volume 16431.955809
_symmetry_space_group_name_H-M "F D 3"
_symmetry_group_IT_number 203
_space_group.IT_coordinate_system_code '2'
_symmetry_cell_setting 'cubic'
loop_
_space_group_symop_operation_xyz
x,y,z
z,x,y
y,z,x
1/4-y,1/4-z,x
z,1/4-x,1/4-y
1/4-y,z,1/4-x
1/4-z,1/4-x,y
1/4-z,x,1/4-y
y,1/4-z,1/4-x
1/4-x,1/4-y,z
x,1/4-y,1/4-z
1/4-x,y,1/4-z
-x,-y,-z
-z,-x,-y
-y,-z,-x
3/4+y,3/4+z,-x
-z,3/4+x,3/4+y
3/4+y,-z,3/4+x
3/4+z,3/4+x,-y
3/4+z,-x,3/4+y
-y,3/4+z,3/4+x
3/4+x,3/4+y,-z
-x,3/4+y,3/4+z
3/4+x,-y,3/4+z
x,1/2+y,1/2+z
z,1/2+x,1/2+y
y,1/2+z,1/2+x
1/4-y,3/4-z,1/2+x
z,3/4-x,3/4-y
1/4-y,1/2+z,3/4-x
1/4-z,3/4-x,1/2+y
1/4-z,1/2+x,3/4-y
y,3/4-z,3/4-x
1/4-x,3/4-y,1/2+z
x,3/4-y,3/4-z
1/4-x,1/2+y,3/4-z
-x,1/2-y,1/2-z
-z,1/2-x,1/2-y
-y,1/2-z,1/2-x
3/4+y,1/4+z,1/2-x
-z,1/4+x,1/4+y
3/4+y,1/2-z,1/4+x
3/4+z,1/4+x,1/2-y
3/4+z,1/2-x,1/4+y
-y,1/4+z,1/4+x
3/4+x,1/4+y,1/2-z
-x,1/4+y,1/4+z
3/4+x,1/2-y,1/4+z
1/2+x,y,1/2+z
1/2+z,x,1/2+y
1/2+y,z,1/2+x
3/4-y,1/4-z,1/2+x
1/2+z,1/4-x,3/4-y
3/4-y,z,3/4-x
3/4-z,1/4-x,1/2+y
3/4-z,x,3/4-y
1/2+y,1/4-z,3/4-x
3/4-x,1/4-y,1/2+z
1/2+x,1/4-y,3/4-z
3/4-x,y,3/4-z
1/2-x,-y,1/2-z
1/2-z,-x,1/2-y
1/2-y,-z,1/2-x
1/4+y,3/4+z,1/2-x
1/2-z,3/4+x,1/4+y
1/4+y,-z,1/4+x
1/4+z,3/4+x,1/2-y
1/4+z,-x,1/4+y
1/2-y,3/4+z,1/4+x
1/4+x,3/4+y,1/2-z
1/2-x,3/4+y,1/4+z
1/4+x,-y,1/4+z
1/2+x,1/2+y,z
1/2+z,1/2+x,y
1/2+y,1/2+z,x
3/4-y,3/4-z,x
1/2+z,3/4-x,1/4-y
3/4-y,1/2+z,1/4-x
3/4-z,3/4-x,y
3/4-z,1/2+x,1/4-y
1/2+y,3/4-z,1/4-x
3/4-x,3/4-y,z
1/2+x,3/4-y,1/4-z
3/4-x,1/2+y,1/4-z
1/2-x,1/2-y,-z
1/2-z,1/2-x,-y
1/2-y,1/2-z,-x
1/4+y,1/4+z,-x
1/2-z,1/4+x,3/4+y
1/4+y,1/2-z,3/4+x
1/4+z,1/4+x,-y
1/4+z,1/2-x,3/4+y
1/2-y,1/4+z,3/4+x
1/4+x,1/4+y,-z
1/2-x,1/4+y,3/4+z
1/4+x,1/2-y,3/4+z
loop_
_atom_site_type_symbol
_atom_site_label
_atom_site_fract_x
_atom_site_fract_y
_atom_site_fract_z
Si Si1 0.947209 0.447209 0.302793
Si Si2 0.329750 0.058823 0.415257
Si Si3 0.591496 0.915454 0.497770
Si Si4 0.375000 0.875000 0.375000
O O1 0.951354 0.505656 0.324367
O O2 0.911088 0.411087 0.338914
O O3 0.375000 0.043408 0.375000
O O4 0.355245 0.083598 0.467655
O O5 0.287864 0.097543 0.387178
O O6 0.539152 0.913188 0.533374
#
# Coordination Sequence:
#
# PCOD8330931 Si02
#       4
#    32  96  96   8
#     4  12  18  30  39  60  91 124 156 183 216 246
#     4  10  20  30  44  62  88 121 151 184 214 258
#     4  10  19  30  44  63  88 118 152 182 220 259
#     4  12  24  24  36  64 100 132 168 192 192 264
#
# _framework density 14.118830000000001
#
# number of rings (size 3 to 8) (size 9 to 14) (size 15 to 20)
#    0.000    1.655    6.207    0.414    0.000    0.000 
#    0.000    0.000    0.000    0.828    0.000    0.000 
#    0.000    0.000    0.000    0.000    0.000    0.000 
#
# Total GULP energy -718910.774479 kJ/mol
# GULP energy per Si atom -12395.013353 kJ/mol
# Density = 1.408669 g / cm^3
# Si number density = 14.118830 Si / 1000 Ang^3
#
#
#
# Elastic Constant Matrix: (Units=GPa)
#
#
# Indices 1 2 3 4 5 6 
#
# 1 69.9267 36.7637 36.7642 0.0000 0.0000 0.0000
# 2 36.7637 69.9267 36.7645 0.0000 0.0000 0.0000
# 3 36.7642 36.7645 69.9263 0.0000 0.0000 0.0000
# 4 0.0000 0.0000 0.0000 21.7629 0.0000 0.0000
# 5 0.0000 0.0000 0.0000 0.0000 21.7611 0.0000
# 6 0.0000 0.0000 0.0000 0.0000 0.0000 21.7622
#
#
#
# Elastic Compliance Matrix: (Units=1/GPa)
#
#
# Indices 1 2 3 4 5 6 
#
# 1 0.022426 -0.007728 -0.007728 0.000000 0.000000 0.000000
# 2 -0.007728 0.022427 -0.007728 0.000000 0.000000 0.000000
# 3 -0.007728 -0.007728 0.022427 0.000000 0.000000 0.000000
# 4 0.000000 0.000000 0.000000 0.045950 0.000000 0.000000
# 5 0.000000 0.000000 0.000000 0.000000 0.045954 0.000000
# 6 0.000000 0.000000 0.000000 0.000000 0.000000 0.045951
#
#
# Mechanical properties :
#
#
# Convention : Reuss Voigt Hill
#
# Bulk Modulus (GPa) = 47.81827 47.81827 47.81827
# Shear Modulus (GPa) = 19.34437 19.68971 19.51704
#
# Velocity S-wave (km/s) = 3.70552 3.73845 3.72202
# Velocity P-wave (km/s) = 7.22840 7.25097 7.23970
#
# Compressibility (1/GPa) = 0.02091251
#
# Stress axis : x y z
#
# Youngs Moduli (GPa) = 44.59019 44.58997 44.58910
#
# Poissons Ratio (x) = 0.34457 0.34458
# Poissons Ratio (y) = 0.34457 0.34459
# Poissons Ratio (z) = 0.34459 0.34460
#
# Static dielectric constant tensor:
#      x y z
#    x 2.768680 0.000000 0.000000 
#    y 0.000000 2.768680 0.000000 
#    z 0.000000 0.000000 2.768700 
# 
# 
# High freq. dielectric constant tensor:
#      x y z
#    x 1.528310 0.000000 0.000000 
#    y 0.000000 1.528310 0.000000 
#    z 0.000000 0.000000 1.528310 
# 
# From -- ./inp_files/482.got.cif
#   From: 2010.03.12/outbox.cif.g09.slc.cpg/sg203_cif.got.tgz:482.got - 2010.03.30 09:02:32.
