data_PCOD8330352
_publ_section_title
;
Structure prediction by ZEFSAII (Michael W. Deem and Ramdas Pophale) SiO2 
 PCOD8330352
Probable space group: P 63/M M C
;
_chemical_formula_sum "Si O2"
_cell_formula_units_Z 96
_cell_length_a 28.934775
_cell_length_b 28.934775
_cell_length_c 8.928561
_cell_angle_alpha 90.000000
_cell_angle_beta 90.000000
_cell_angle_gamma 120.000000
_cell_volume 6473.696291
_symmetry_space_group_name_H-M "P 63/M M C"
_symmetry_group_IT_number 194
_symmetry_cell_setting 'hexagonal'
loop_
_space_group_symop_operation_xyz
x,y,z
x-y,x,1/2+z
-y,x-y,z
-x,-y,1/2+z
-x+y,-x,z
y,-x+y,1/2+z
x-y,-y,-z
-x,-x+y,-z
y,x,-z
-y,-x,1/2-z
-x+y,y,1/2-z
x,x-y,1/2-z
-x,-y,-z
-x+y,-x,1/2-z
y,-x+y,-z
x,y,1/2-z
x-y,x,-z
-y,x-y,1/2-z
-x+y,y,z
x,x-y,z
-y,-x,z
y,x,1/2+z
x-y,-y,1/2+z
-x,-x+y,1/2+z
loop_
_atom_site_type_symbol
_atom_site_label
_atom_site_fract_x
_atom_site_fract_y
_atom_site_fract_z
Si Si1 0.306344 0.153172 0.573954
Si Si2 0.885788 0.572004 0.418899
Si Si3 0.945400 0.420572 0.574846
Si Si4 0.792673 0.207328 0.419398
Si Si5 0.942618 0.696823 0.073640
O O1 0.294124 0.147062 0.750000
O O2 0.369527 0.184764 0.545178
O O3 0.282156 0.094864 0.498288
O O4 0.899496 0.563812 0.250000
O O5 0.898455 0.535722 0.526849
O O6 0.822223 0.550813 0.437071
O O7 0.918915 0.634307 0.462848
O O8 0.953574 0.421857 0.750000
O O9 0.931087 0.465544 0.523386
O O10 0.000000 0.430748 0.500000
O O11 0.805740 0.194261 0.250000
O O12 0.946733 0.707305 0.250000
O O13 0.000000 0.729707 0.000000
#
# Coordination Sequence:
#
# PCOD8330352 Si02
#       5
#    12  24  24  12  24
#     4  10  18  28  42  60  82 110 141 173 208 244
#     4   9  17  29  45  62  82 107 136 170 207 246
#     4  10  20  31  42  58  82 111 141 172 205 244
#     4   8  16  30  44  60  82 106 132 167 207 244
#     4  10  19  30  43  61  84 111 143 177 211 247
#
# _framework density 14.829241
#
# number of rings (size 3 to 8) (size 9 to 14) (size 15 to 20)
#    0.000    2.500    0.000    4.875    0.000    8.500 
#    0.000    0.000    0.000    0.000    0.000    0.000 
#    1.250    0.000    0.750    0.375    1.000    5.250 
#
# Total GULP energy -1190014.011504 kJ/mol
# GULP energy per Si atom -12395.979286 kJ/mol
# Density = 1.479549 g / cm^3
# Si number density = 14.829241 Si / 1000 Ang^3
#
#
#
# Elastic Constant Matrix: (Units=GPa)
#
#
# Indices 1 2 3 4 5 6 
#
# 1 86.2090 44.9165 39.7667 0.0000 0.0000 0.0000
# 2 44.9165 86.2090 39.7667 0.0000 0.0000 0.0000
# 3 39.7667 39.7667 80.5495 0.0000 0.0000 0.0000
# 4 0.0000 0.0000 0.0000 24.6963 0.0000 0.0000
# 5 0.0000 0.0000 0.0000 0.0000 24.6963 0.0000
# 6 0.0000 0.0000 0.0000 0.0000 0.0000 20.6462
#
#
#
# Elastic Compliance Matrix: (Units=1/GPa)
#
#
# Indices 1 2 3 4 5 6 
#
# 1 0.017552 -0.006666 -0.005374 0.000000 0.000000 0.000000
# 2 -0.006666 0.017552 -0.005374 0.000000 0.000000 0.000000
# 3 -0.005374 -0.005374 0.017721 0.000000 0.000000 0.000000
# 4 0.000000 0.000000 0.000000 0.040492 0.000000 0.000000
# 5 0.000000 0.000000 0.000000 0.000000 0.040492 0.000000
# 6 0.000000 0.000000 0.000000 0.000000 0.000000 0.048435
#
#
# Mechanical properties :
#
#
# Convention : Reuss Voigt Hill
#
# Bulk Modulus (GPa) = 55.56805 55.76304 55.66555
# Shear Modulus (GPa) = 22.41437 22.57560 22.49498
#
# Velocity S-wave (km/s) = 3.89202 3.90599 3.89901
# Velocity P-wave (km/s) = 7.59937 7.61757 7.60847
#
# Compressibility (1/GPa) = 0.01799595
#
# Stress axis : x y z
#
# Youngs Moduli (GPa) = 56.97429 56.97429 56.42921
#
# Poissons Ratio (x) = 0.37977 0.30327
# Poissons Ratio (y) = 0.37977 0.30327
# Poissons Ratio (z) = 0.30620 0.30620
#
# Static dielectric constant tensor:
#      x y z
#    x 2.833020 0.000000 0.000000 
#    y 0.000000 2.833020 0.000000 
#    z 0.000000 0.000000 2.912320 
# 
# 
# High freq. dielectric constant tensor:
#      x y z
#    x 1.543710 0.000000 0.000000 
#    y 0.000000 1.543710 0.000000 
#    z 0.000000 0.000000 1.580500 
# 
# From -- ./inp_files/1759.got.cif
#   From: 2010.03.12/outbox.cif.g09.slc.cpg/sg194_1_cif.got.tgz:1759.got - 2010.04.01 12:26:19.
