data_PCOD8330194
_publ_section_title
;
Structure prediction by ZEFSAII (Michael W. Deem and Ramdas Pophale) SiO2 
 PCOD8330194
Probable space group: P 63/M C M
;
_chemical_formula_sum "Si O2"
_cell_formula_units_Z 144
_cell_length_a 30.891928
_cell_length_b 30.891928
_cell_length_c 8.846758
_cell_angle_alpha 90.000000
_cell_angle_beta 90.000000
_cell_angle_gamma 120.000000
_cell_volume 7311.471763
_symmetry_space_group_name_H-M "P 63/M C M"
_symmetry_group_IT_number 193
_symmetry_cell_setting 'hexagonal'
loop_
_space_group_symop_operation_xyz
x,y,z
x-y,x,1/2+z
-y,x-y,z
-x,-y,1/2+z
-x+y,-x,z
y,-x+y,1/2+z
x-y,-y,1/2-z
-x,-x+y,1/2-z
y,x,1/2-z
-y,-x,-z
-x+y,y,-z
x,x-y,-z
-x,-y,-z
-x+y,-x,1/2-z
y,-x+y,-z
x,y,1/2-z
x-y,x,-z
-y,x-y,1/2-z
-x+y,y,1/2+z
x,x-y,1/2+z
-y,-x,1/2+z
y,x,z
x-y,-y,z
-x,-x+y,z
loop_
_atom_site_type_symbol
_atom_site_label
_atom_site_fract_x
_atom_site_fract_y
_atom_site_fract_z
Si Si1 0.055483 0.854130 0.927987
Si Si2 0.242727 0.667500 0.925764
Si Si3 0.760910 0.612288 0.571564
Si Si4 0.699443 0.756904 0.425673
Si Si5 0.482995 0.057543 0.573484
Si Si6 0.524811 0.668724 0.074012
O O1 0.059069 0.859439 0.750000
O O2 0.067545 0.811174 0.977572
O O3 0.000000 0.839075 0.983428
O O4 0.093376 0.906625 0.000000
O O5 0.255395 0.670656 0.750000
O O6 0.185584 0.652988 0.953152
O O7 0.279030 0.720970 0.000000
O O8 0.252138 0.626069 0.000000
O O9 0.814985 0.629969 0.500000
O O10 0.764182 0.609262 0.750000
O O11 0.743118 0.651432 0.526858
O O12 0.721460 0.558284 0.507328
O O13 0.686483 0.757417 0.250000
O O14 0.715442 0.715442 0.455340
O O15 0.535353 0.070705 0.500000
O O16 0.492066 0.069677 0.750000
O O17 0.463492 0.091525 0.497829
O O18 0.441592 0.000000 0.543481
O O19 0.538593 0.674246 0.250000
#
# Coordination Sequence:
#
# PCOD8330194 Si02
#       6
#    24  24  24  24  24  24
#     4   9  18  32  51  77 107 139 178 224 274 327
#     4  11  24  41  63  89 117 148 184 228 278 333
#     4  12  25  40  59  83 115 153 193 236 282 337
#     4   9  19  37  59  83 113 147 184 230 282 335
#     4  10  21  38  61  89 120 154 193 238 288 341
#     4  11  24  41  62  87 115 152 195 238 287 339
#
# _framework density 19.695077000000001
#
# number of rings (size 3 to 8) (size 9 to 14) (size 15 to 20)
#    0.000    1.667    0.000    5.667    0.000    9.667 
#    0.000    1.667    0.000    0.167    0.000    0.000 
#    0.000    0.000    0.000    0.000    0.000    0.000 
#
# Total GULP energy -1786402.040214 kJ/mol
# GULP energy per Si atom -12405.569724 kJ/mol
# Density = 1.965025 g / cm^3
# Si number density = 19.695077 Si / 1000 Ang^3
#
#
#
# Elastic Constant Matrix: (Units=GPa)
#
#
# Indices 1 2 3 4 5 6 
#
# 1 88.8352 37.7544 50.6535 0.0000 0.0000 0.0000
# 2 37.7544 88.8352 50.6535 0.0000 0.0000 0.0000
# 3 50.6535 50.6535 128.7738 0.0000 0.0000 0.0000
# 4 0.0000 0.0000 0.0000 35.3265 0.0000 0.0000
# 5 0.0000 0.0000 0.0000 0.0000 35.3265 0.0000
# 6 0.0000 0.0000 0.0000 0.0000 0.0000 25.5404
#
#
#
# Elastic Compliance Matrix: (Units=1/GPa)
#
#
# Indices 1 2 3 4 5 6 
#
# 1 0.015553 -0.004024 -0.004535 0.000000 0.000000 0.000000
# 2 -0.004024 0.015553 -0.004535 0.000000 0.000000 0.000000
# 3 -0.004535 -0.004535 0.011333 0.000000 0.000000 0.000000
# 4 0.000000 0.000000 0.000000 0.028307 0.000000 0.000000
# 5 0.000000 0.000000 0.000000 0.000000 0.028307 0.000000
# 6 0.000000 0.000000 0.000000 0.000000 0.000000 0.039154
#
#
# Mechanical properties :
#
#
# Convention : Reuss Voigt Hill
#
# Bulk Modulus (GPa) = 61.53410 64.95189 63.24299
# Shear Modulus (GPa) = 29.44440 30.39753 29.92097
#
# Velocity S-wave (km/s) = 3.87073 3.93288 3.90193
# Velocity P-wave (km/s) = 7.16156 7.32624 7.24437
#
# Compressibility (1/GPa) = 0.01625115
#
# Stress axis : x y z
#
# Youngs Moduli (GPa) = 64.29727 64.29727 88.23685
#
# Poissons Ratio (x) = 0.25874 0.40014
# Poissons Ratio (y) = 0.25874 0.40014
# Poissons Ratio (z) = 0.29158 0.29158
#
# Static dielectric constant tensor:
#      x y z
#    x 3.112660 0.000000 0.000000 
#    y 0.000000 3.112660 0.000000 
#    z 0.000000 0.000000 3.579450 
# 
# 
# High freq. dielectric constant tensor:
#      x y z
#    x 1.770190 0.000000 0.000000 
#    y 0.000000 1.770190 0.000000 
#    z 0.000000 0.000000 1.773140 
# 
# From -- ./inp_files/1499.got.cif
#   From: 2010.03.12/outbox.cif.g09.slc.cpg/sg193_1_cif.got.tgz:1499.got - 2010.04.01 12:20:39.
