data_PCOD8330872
_publ_section_title
;
Structure prediction by ZEFSAII (Michael W. Deem and Ramdas Pophale) SiO2 
 PCOD8330872
Probable space group: P 2 3
;
_chemical_formula_sum "Si O2"
_cell_formula_units_Z 60
_cell_length_a 15.584469
_cell_length_b 15.584469
_cell_length_c 15.584469
_cell_angle_alpha 90.000000
_cell_angle_beta 90.000000
_cell_angle_gamma 90.000000
_cell_volume 3785.088412
_symmetry_space_group_name_H-M "P 2 3"
_symmetry_group_IT_number 195
_symmetry_cell_setting 'cubic'
loop_
_space_group_symop_operation_xyz
x,y,z
z,x,y
y,z,x
-y,-z,x
z,-x,-y
-y,z,-x
-z,-x,y
-z,x,-y
y,-z,-x
-x,-y,z
x,-y,-z
-x,y,-z
loop_
_atom_site_type_symbol
_atom_site_label
_atom_site_fract_x
_atom_site_fract_y
_atom_site_fract_z
Si Si1 0.000000 0.137914 0.500000
Si Si2 0.223215 0.637722 0.499210
Si Si3 0.110594 0.388054 0.249684
Si Si4 0.889406 0.249684 0.611946
Si Si5 0.499210 0.362278 0.776785
Si Si6 0.500000 0.862086 0.000000
O O1 0.971640 0.195748 0.580765
O O2 0.920484 0.079516 0.468369
O O3 0.142166 0.692741 0.531740
O O4 0.302340 0.697660 0.473298
O O5 0.193646 0.584010 0.415990
O O6 0.254567 0.575105 0.575105
O O7 0.187671 0.358104 0.187671
O O8 0.082579 0.307676 0.307676
O O9 0.142166 0.468260 0.307259
O O10 0.028360 0.419235 0.195748
#
# Coordination Sequence:
#
# PCOD8330872 Si02
#       6
#     6  12  12  12  12   6
#     4   9  18  32  48  65  84 106 132 163 202 248
#     4   9  16  25  37  55  81 114 150 183 210 233
#     4   9  17  29  45  63  83 108 138 170 203 241
#     4   9  17  29  45  63  83 108 138 170 203 241
#     4   9  16  25  37  55  81 114 150 183 210 233
#     4   9  18  32  48  65  84 106 132 163 202 248
#
# _framework density 15.851677
#
# number of rings (size 3 to 8) (size 9 to 14) (size 15 to 20)
#    0.000    3.000    0.000    1.200    0.000    4.800 
#    0.000    0.000    0.000    4.000    0.000    0.000 
#    0.000    0.000    0.000    0.000    0.000    0.000 
#
# Total GULP energy -743911.729591 kJ/mol
# GULP energy per Si atom -12398.528827 kJ/mol
# Density = 1.581560 g / cm^3
# Si number density = 15.851677 Si / 1000 Ang^3
#
#
#
# Elastic Constant Matrix: (Units=GPa)
#
#
# Indices 1 2 3 4 5 6 
#
# 1 87.5691 50.8261 50.8261 0.0000 0.0000 0.0000
# 2 50.8261 87.5691 50.8261 0.0000 0.0000 0.0000
# 3 50.8261 50.8261 87.5691 0.0000 0.0000 0.0000
# 4 0.0000 0.0000 0.0000 18.1301 0.0000 0.0000
# 5 0.0000 0.0000 0.0000 0.0000 18.1301 0.0000
# 6 0.0000 0.0000 0.0000 0.0000 0.0000 18.1301
#
#
#
# Elastic Compliance Matrix: (Units=1/GPa)
#
#
# Indices 1 2 3 4 5 6 
#
# 1 0.019906 -0.007310 -0.007310 0.000000 0.000000 0.000000
# 2 -0.007310 0.019906 -0.007310 0.000000 0.000000 0.000000
# 3 -0.007310 -0.007310 0.019906 0.000000 0.000000 0.000000
# 4 0.000000 0.000000 0.000000 0.055157 0.000000 0.000000
# 5 0.000000 0.000000 0.000000 0.000000 0.055157 0.000000
# 6 0.000000 0.000000 0.000000 0.000000 0.000000 0.055157
#
#
# Mechanical properties :
#
#
# Convention : Reuss Voigt Hill
#
# Bulk Modulus (GPa) = 63.07376 63.07376 63.07376
# Shear Modulus (GPa) = 18.22586 18.22662 18.22624
#
# Velocity S-wave (km/s) = 3.39451 3.39458 3.39455
# Velocity P-wave (km/s) = 7.43236 7.43240 7.43238
#
# Compressibility (1/GPa) = 0.01585445
#
# Stress axis : x y z
#
# Youngs Moduli (GPa) = 50.23691 50.23691 50.23691
#
# Poissons Ratio (x) = 0.36725 0.36725
# Poissons Ratio (y) = 0.36725 0.36725
# Poissons Ratio (z) = 0.36725 0.36725
#
# Static dielectric constant tensor:
#      x y z
#    x 2.959840 0.000000 0.000000 
#    y 0.000000 2.959840 0.000000 
#    z 0.000000 0.000000 2.959840 
# 
# 
# High freq. dielectric constant tensor:
#      x y z
#    x 1.598280 0.000000 0.000000 
#    y 0.000000 1.598280 0.000000 
#    z 0.000000 0.000000 1.598280 
# 
# From -- ./inp_files/421.got.cif
#   From: 2010.03.12/outbox.cif.g09.slc.cpg/sg195_cif.got.tgz:421.got - 2010.04.01 12:33:13.
