data_PCOD8330385
_publ_section_title
;
Structure prediction by ZEFSAII (Michael W. Deem and Ramdas Pophale) SiO2 
 PCOD8330385
Probable space group: P 63/M M C
;
_chemical_formula_sum "Si O2"
_cell_formula_units_Z 168
_cell_length_a 22.290092
_cell_length_b 22.290092
_cell_length_c 22.988611
_cell_angle_alpha 90.000000
_cell_angle_beta 90.000000
_cell_angle_gamma 120.000000
_cell_volume 9891.612282
_symmetry_space_group_name_H-M "P 63/M M C"
_symmetry_group_IT_number 194
_symmetry_cell_setting 'hexagonal'
loop_
_space_group_symop_operation_xyz
x,y,z
x-y,x,1/2+z
-y,x-y,z
-x,-y,1/2+z
-x+y,-x,z
y,-x+y,1/2+z
x-y,-y,-z
-x,-x+y,-z
y,x,-z
-y,-x,1/2-z
-x+y,y,1/2-z
x,x-y,1/2-z
-x,-y,-z
-x+y,-x,1/2-z
y,-x+y,-z
x,y,1/2-z
x-y,x,-z
-y,x-y,1/2-z
-x+y,y,z
x,x-y,z
-y,-x,z
y,x,1/2+z
x-y,-y,1/2+z
-x,-x+y,1/2+z
loop_
_atom_site_type_symbol
_atom_site_label
_atom_site_fract_x
_atom_site_fract_y
_atom_site_fract_z
Si Si1 0.286296 0.433833 0.899486
Si Si2 0.541933 0.941421 0.682617
Si Si3 0.921179 0.530292 0.998172
Si Si4 0.786302 0.077185 0.570104
Si Si5 0.420038 0.342051 0.622884
Si Si6 0.716516 0.792595 0.936549
Si Si7 0.201310 0.666902 0.317827
O O1 0.229178 0.458356 0.899243
O O2 0.335556 0.465022 0.842762
O O3 0.249015 0.350422 0.895915
O O4 0.331842 0.461231 0.957672
O O5 0.564205 0.950140 0.750000
O O6 0.470101 0.940202 0.674871
O O7 0.599802 0.002253 0.643257
O O8 0.919487 0.459744 0.014624
O O9 0.895743 0.529155 0.932775
O O10 0.000000 0.595181 0.000000
O O11 0.863477 0.136524 0.588634
O O12 0.730184 0.081807 0.609896
O O13 0.771641 0.083773 0.502525
O O14 0.776937 0.001053 0.579678
O O15 0.461570 0.329806 0.673558
O O16 0.749968 0.874984 0.927769
O O17 0.213797 0.667321 0.250000
O O18 0.194488 0.597244 0.345572
O O19 0.266580 0.733421 0.347033
#
# Coordination Sequence:
#
# PCOD8330385 Si02
#       7
#    24  24  24  24  24  24  24
#     4  11  21  35  54  78 107 136 175 225 276 330
#     4  11  23  38  56  78 106 142 188 237 280 327
#     4  11  20  32  53  79 106 134 168 211 267 335
#     4  10  18  29  49  78 110 140 170 207 257 317
#     4  12  20  32  51  81 109 137 169 219 273 324
#     4   9  17  31  49  74 106 137 171 210 253 314
#     4  10  21  36  51  67  93 135 182 219 254 303
#
# _framework density 16.984086999999999
#
# number of rings (size 3 to 8) (size 9 to 14) (size 15 to 20)
#    0.000    1.429    4.286    2.714    0.000    2.571 
#    0.000    0.000    0.000    2.571    0.000    2.000 
#    0.000    0.000    0.000    0.000    0.000    2.857 
#
# Total GULP energy -2082975.803872 kJ/mol
# GULP energy per Si atom -12398.665499 kJ/mol
# Density = 1.694543 g / cm^3
# Si number density = 16.984087 Si / 1000 Ang^3
#
#
#
# Elastic Constant Matrix: (Units=GPa)
#
#
# Indices 1 2 3 4 5 6 
#
# 1 111.6483 55.8369 30.6061 0.0000 0.0000 0.0000
# 2 55.8369 111.6483 30.6061 0.0000 0.0000 0.0000
# 3 30.6061 30.6061 67.0115 0.0000 0.0000 0.0000
# 4 0.0000 0.0000 0.0000 20.7722 0.0000 0.0000
# 5 0.0000 0.0000 0.0000 0.0000 20.7722 0.0000
# 6 0.0000 0.0000 0.0000 0.0000 0.0000 27.9057
#
#
#
# Elastic Compliance Matrix: (Units=1/GPa)
#
#
# Indices 1 2 3 4 5 6 
#
# 1 0.012542 -0.005375 -0.003273 0.000000 0.000000 0.000000
# 2 -0.005375 0.012542 -0.003273 0.000000 0.000000 0.000000
# 3 -0.003273 -0.003273 0.017913 0.000000 0.000000 0.000000
# 4 0.000000 0.000000 0.000000 0.048141 0.000000 0.000000
# 5 0.000000 0.000000 0.000000 0.000000 0.048141 0.000000
# 6 0.000000 0.000000 0.000000 0.000000 0.000000 0.035835
#
#
# Mechanical properties :
#
#
# Convention : Reuss Voigt Hill
#
# Bulk Modulus (GPa) = 52.21004 58.26739 55.23872
# Shear Modulus (GPa) = 24.34943 25.44060 24.89502
#
# Velocity S-wave (km/s) = 3.79048 3.87448 3.83271
# Velocity P-wave (km/s) = 7.06854 7.37543 7.22362
#
# Compressibility (1/GPa) = 0.01915340
#
# Stress axis : x y z
#
# Youngs Moduli (GPa) = 79.73044 79.73044 55.82565
#
# Poissons Ratio (x) = 0.42857 0.18274
# Poissons Ratio (y) = 0.42857 0.18274
# Poissons Ratio (z) = 0.26099 0.26099
#
# Static dielectric constant tensor:
#      x y z
#    x 3.206850 0.000000 0.000000 
#    y 0.000000 3.206850 0.000000 
#    z 0.000000 0.000000 3.055230 
# 
# 
# High freq. dielectric constant tensor:
#      x y z
#    x 1.648720 0.000000 0.000000 
#    y 0.000000 1.648720 0.000000 
#    z 0.000000 0.000000 1.636310 
# 
# From -- ./inp_files/9793.got.cif
#   From: 2010.03.12/outbox.cif.g09.slc.cpg/sg194_5_cif.got.tgz:9793.got - 2010.04.01 12:26:19.
