data_PCOD8330211
_publ_section_title
;
Structure prediction by ZEFSAII (Michael W. Deem and Ramdas Pophale) SiO2 
 PCOD8330211
Probable space group: P 63/M C M
;
_chemical_formula_sum "Si O2"
_cell_formula_units_Z 60
_cell_length_a 11.532047
_cell_length_b 11.532047
_cell_length_c 27.931401
_cell_angle_alpha 90.000000
_cell_angle_beta 90.000000
_cell_angle_gamma 120.000000
_cell_volume 3216.889617
_symmetry_space_group_name_H-M "P 63/M C M"
_symmetry_group_IT_number 193
_symmetry_cell_setting 'hexagonal'
loop_
_space_group_symop_operation_xyz
x,y,z
x-y,x,1/2+z
-y,x-y,z
-x,-y,1/2+z
-x+y,-x,z
y,-x+y,1/2+z
x-y,-y,1/2-z
-x,-x+y,1/2-z
y,x,1/2-z
-y,-x,-z
-x+y,y,-z
x,x-y,-z
-x,-y,-z
-x+y,-x,1/2-z
y,-x+y,-z
x,y,1/2-z
x-y,x,-z
-y,x-y,1/2-z
-x+y,y,1/2+z
x,x-y,1/2+z
-y,-x,1/2+z
y,x,z
x-y,-y,z
-x,-x+y,z
loop_
_atom_site_type_symbol
_atom_site_label
_atom_site_fract_x
_atom_site_fract_y
_atom_site_fract_z
Si Si1 0.000000 0.510958 0.304255
Si Si2 0.854546 0.569686 0.118872
Si Si3 0.666668 0.333334 0.556499
Si Si4 0.000000 0.000000 0.694035
Si Si5 0.732863 0.732863 0.159326
O O1 0.130641 0.627653 0.332684
O O2 0.000000 0.559428 0.250000
O O3 0.000000 0.370147 0.301040
O O4 0.793595 0.466174 0.075899
O O5 0.770914 0.643364 0.126987
O O6 0.000000 0.682813 0.101085
O O7 0.666668 0.333334 0.500000
O O8 0.135095 0.135095 0.678602
O O9 0.000000 0.000000 0.750000
#
# Coordination Sequence:
#
# PCOD8330211 Si02
#       5
#    12  24   8   4  12
#     4  10  22  38  61  88 133 178 210 261 324 384
#     4  10  22  42  62  92 131 164 221 266 328 399
#     4  12  24  45  70  92 121 168 225 291 331 389
#     4  12  24  36  63  99 127 185 223 243 312 402
#     4  12  21  40  64  93 139 167 217 273 318 384
#
# _framework density 18.651558000000001
#
# number of rings (size 3 to 8) (size 9 to 14) (size 15 to 20)
#    1.200    0.000    6.000    0.600    0.000    5.600 
#    0.000    0.000    0.000    0.000    0.000    2.800 
#    0.000    0.000    0.000    0.000    0.000    0.000 
#
# Total GULP energy -743307.558846 kJ/mol
# GULP energy per Si atom -12388.459314 kJ/mol
# Density = 1.860911 g / cm^3
# Si number density = 18.651558 Si / 1000 Ang^3
#
#
#
# Elastic Constant Matrix: (Units=GPa)
#
#
# Indices 1 2 3 4 5 6 
#
# 1 118.2585 33.6430 49.1600 0.0001 0.0001 -0.0001
# 2 33.6430 118.2573 49.1601 0.0002 0.0001 -0.0002
# 3 49.1600 49.1601 154.3807 0.0001 -0.0003 0.0000
# 4 0.0001 0.0002 0.0001 14.8115 -0.0002 0.0000
# 5 0.0001 0.0001 -0.0003 -0.0002 14.8120 0.0000
# 6 -0.0001 -0.0002 0.0000 0.0000 0.0000 42.3070
#
#
#
# Elastic Compliance Matrix: (Units=1/GPa)
#
#
# Indices 1 2 3 4 5 6 
#
# 1 0.010055 -0.001763 -0.002641 0.000000 0.000000 0.000000
# 2 -0.001763 0.010055 -0.002641 0.000000 0.000000 0.000000
# 3 -0.002641 -0.002641 0.008159 0.000000 0.000000 0.000000
# 4 0.000000 0.000000 0.000000 0.067515 0.000001 0.000000
# 5 0.000000 0.000000 0.000000 0.000001 0.067513 0.000000
# 6 0.000000 0.000000 0.000000 0.000000 0.000000 0.023637
#
#
# Mechanical properties :
#
#
# Convention : Reuss Voigt Hill
#
# Bulk Modulus (GPa) = 70.51358 72.75807 71.63582
# Shear Modulus (GPa) = 24.30139 31.64835 27.97487
#
# Velocity S-wave (km/s) = 3.61351 4.12372 3.87701
# Velocity P-wave (km/s) = 7.43624 7.85921 7.65065
#
# Compressibility (1/GPa) = 0.01418166
#
# Stress axis : x y z
#
# Youngs Moduli (GPa) = 99.45046 99.44919 122.56121
#
# Poissons Ratio (x) = 0.17532 0.32363
# Poissons Ratio (y) = 0.17532 0.32364
# Poissons Ratio (z) = 0.26260 0.26261
#
# Static dielectric constant tensor:
#      x y z
#    x 4.249450 -0.000010 -0.000010 
#    y -0.000010 4.249430 0.000000 
#    z -0.000010 0.000000 2.957650 
# 
# 
# High freq. dielectric constant tensor:
#      x y z
#    x 1.738340 0.000000 0.000000 
#    y 0.000000 1.738340 0.000000 
#    z 0.000000 0.000000 1.680710 
# 
# From -- ./inp_files/8633.got.cif
#   From: 2010.03.12/outbox.cif.g09.slc.cpg/sg193_5_cif.got.tgz:8633.got - 2010.04.01 12:20:39.
