data_PCOD8330212
_publ_section_title
;
Structure prediction by ZEFSAII (Michael W. Deem and Ramdas Pophale) SiO2 
 PCOD8330212
Probable space group: P 63/M C M
;
_chemical_formula_sum "Si O2"
_cell_formula_units_Z 56
_cell_length_a 13.530134
_cell_length_b 13.530134
_cell_length_c 17.859453
_cell_angle_alpha 90.000000
_cell_angle_beta 90.000000
_cell_angle_gamma 120.000000
_cell_volume 2831.411427
_symmetry_space_group_name_H-M "P 63/M C M"
_symmetry_group_IT_number 193
_symmetry_cell_setting 'hexagonal'
loop_
_space_group_symop_operation_xyz
x,y,z
x-y,x,1/2+z
-y,x-y,z
-x,-y,1/2+z
-x+y,-x,z
y,-x+y,1/2+z
x-y,-y,1/2-z
-x,-x+y,1/2-z
y,x,1/2-z
-y,-x,-z
-x+y,y,-z
x,x-y,-z
-x,-y,-z
-x+y,-x,1/2-z
y,-x+y,-z
x,y,1/2-z
x-y,x,-z
-y,x-y,1/2-z
-x+y,y,1/2+z
x,x-y,1/2+z
-y,-x,1/2+z
y,x,z
x-y,-y,z
-x,-x+y,z
loop_
_atom_site_type_symbol
_atom_site_label
_atom_site_fract_x
_atom_site_fract_y
_atom_site_fract_z
Si Si1 0.869565 0.130781 0.913978
Si Si2 0.666668 0.333335 0.411543
Si Si3 0.536240 0.667700 0.337317
O O1 0.794684 0.164593 0.862255
O O2 0.000000 0.210247 0.889600
O O3 0.836471 0.000000 0.901878
O O4 0.848977 0.151024 0.000000
O O5 0.666668 0.333334 0.500000
O O6 0.625784 0.419245 0.381771
O O7 0.513001 0.669967 0.250000
O O8 0.579480 0.579480 0.356730
#
# Coordination Sequence:
#
# PCOD8330212 Si02
#       3
#    24   8  24
#     4   9  17  31  53  82 116 153 192 233 277 326
#     4  12  25  41  64  87 109 143 184 228 277 329
#     4  10  22  39  57  81 114 147 183 230 278 328
#
# _framework density 19.778122
#
# number of rings (size 3 to 8) (size 9 to 14) (size 15 to 20)
#    0.000    2.143    0.000    3.000    0.000    5.143 
#    0.000    0.000    0.000    2.571    0.000    0.000 
#    0.000    0.000    0.000    0.000    0.000    0.000 
#
# Total GULP energy -694694.511238 kJ/mol
# GULP energy per Si atom -12405.259129 kJ/mol
# Density = 1.973311 g / cm^3
# Si number density = 19.778122 Si / 1000 Ang^3
#
#
#
# Elastic Constant Matrix: (Units=GPa)
#
#
# Indices 1 2 3 4 5 6 
#
# 1 103.2354 47.3019 58.6455 -0.0001 -0.0001 0.0000
# 2 47.3019 103.2334 58.6446 -0.0003 0.0003 -0.0004
# 3 58.6455 58.6446 116.2727 0.0002 -0.0004 -0.0003
# 4 -0.0001 -0.0003 0.0002 28.8923 -0.0002 -0.0002
# 5 -0.0001 0.0003 -0.0004 -0.0002 28.8940 -0.0001
# 6 0.0000 -0.0004 -0.0003 -0.0002 -0.0001 27.9658
#
#
#
# Elastic Compliance Matrix: (Units=1/GPa)
#
#
# Indices 1 2 3 4 5 6 
#
# 1 0.014411 -0.003468 -0.005520 0.000000 0.000000 0.000000
# 2 -0.003468 0.014411 -0.005520 0.000000 0.000000 0.000000
# 3 -0.005520 -0.005520 0.014168 0.000000 0.000000 0.000000
# 4 0.000000 0.000000 0.000000 0.034611 0.000000 0.000000
# 5 0.000000 0.000000 0.000000 0.000000 0.034609 0.000000
# 6 0.000000 0.000000 0.000000 0.000000 0.000000 0.035758
#
#
# Mechanical properties :
#
#
# Convention : Reuss Voigt Hill
#
# Bulk Modulus (GPa) = 71.54660 72.43617 71.99139
# Shear Modulus (GPa) = 27.52669 27.69372 27.61021
#
# Velocity S-wave (km/s) = 3.73470 3.74601 3.74036
# Velocity P-wave (km/s) = 7.40611 7.44406 7.42511
#
# Compressibility (1/GPa) = 0.01397690
#
# Stress axis : x y z
#
# Youngs Moduli (GPa) = 69.39135 69.39035 70.57954
#
# Poissons Ratio (x) = 0.24062 0.38958
# Poissons Ratio (y) = 0.24062 0.38957
# Poissons Ratio (z) = 0.38302 0.38301
#
# Static dielectric constant tensor:
#      x y z
#    x 3.588270 0.000010 0.000000 
#    y 0.000010 3.588290 0.000010 
#    z 0.000000 0.000010 3.557070 
# 
# 
# High freq. dielectric constant tensor:
#      x y z
#    x 1.771240 0.000000 0.000000 
#    y 0.000000 1.771250 0.000000 
#    z 0.000000 0.000000 1.771290 
# 
# From -- ./inp_files/2951.got.cif
#   From: 2010.03.12/outbox.cif.g09.slc.cpg/sg193_2_cif.got.tgz:2951.got - 2010.04.01 12:20:39.
