data_PCOD8330088
_publ_section_title
;
Structure prediction by ZEFSAII (Michael W. Deem and Ramdas Pophale) SiO2 
 PCOD8330088
Probable space group: P 63/M C M
;
_chemical_formula_sum "Si O2"
_cell_formula_units_Z 152
_cell_length_a 17.327353
_cell_length_b 17.327353
_cell_length_c 30.696605
_cell_angle_alpha 90.000000
_cell_angle_beta 90.000000
_cell_angle_gamma 120.000000
_cell_volume 7981.516646
_symmetry_space_group_name_H-M "P 63/M C M"
_symmetry_group_IT_number 193
_symmetry_cell_setting 'hexagonal'
loop_
_space_group_symop_operation_xyz
x,y,z
x-y,x,1/2+z
-y,x-y,z
-x,-y,1/2+z
-x+y,-x,z
y,-x+y,1/2+z
x-y,-y,1/2-z
-x,-x+y,1/2-z
y,x,1/2-z
-y,-x,-z
-x+y,y,-z
x,x-y,-z
-x,-y,-z
-x+y,-x,1/2-z
y,-x+y,-z
x,y,1/2-z
x-y,x,-z
-y,x-y,1/2-z
-x+y,y,1/2+z
x,x-y,1/2+z
-y,-x,1/2+z
y,x,z
x-y,-y,z
-x,-x+y,z
loop_
_atom_site_type_symbol
_atom_site_label
_atom_site_fract_x
_atom_site_fract_y
_atom_site_fract_z
Si Si1 0.664641 0.500690 0.669658
Si Si2 0.101181 0.731793 0.917922
Si Si3 0.666668 0.333334 0.302288
Si Si4 0.640524 0.102785 0.665126
Si Si5 0.846360 0.332092 0.998889
Si Si6 0.622832 0.897862 0.413488
Si Si7 0.729820 0.629656 0.750000
Si Si8 0.270896 0.894725 0.250000
O O1 0.703410 0.433635 0.679205
O O2 0.559680 0.442289 0.664962
O O3 0.702388 0.553933 0.625503
O O4 0.684912 0.568936 0.708279
O O5 0.140062 0.700146 0.878072
O O6 0.102598 0.679338 0.960444
O O7 0.168062 0.838670 0.922257
O O8 0.000000 0.711243 0.910675
O O9 0.666667 0.333334 0.250000
O O10 0.699294 0.141518 0.708631
O O11 0.607070 0.000000 0.666214
O O12 0.742636 0.257365 0.000000
O O13 0.855452 0.427726 0.000000
O O14 0.895356 0.327612 0.955652
O O15 0.697199 0.000000 0.402961
O O16 0.711512 0.711512 0.750000
O O17 0.837479 0.674269 0.750000
O O18 0.305032 0.000000 0.250000
#
# Coordination Sequence:
#
# PCOD8330088 Si02
#       8
#    24  24   8  24  24  24  12  12
#     4  12  23  36  53  79 112 146 183 221 265 315
#     4  10  21  38  58  80 107 147 191 231 282 343
#     4  12  24  39  54  75 112 158 193 225 261 316
#     4  10  20  35  56  79 107 143 183 222 265 323
#     4  10  21  36  56  82 115 153 192 234 277 326
#     4  11  23  38  56  82 112 143 184 238 290 336
#     4  12  23  35  53  76 103 135 172 218 271 323
#     4  10  21  37  55  76 103 137 178 224 271 323
#
# _framework density 19.044
#
# number of rings (size 3 to 8) (size 9 to 14) (size 15 to 20)
#    0.000    1.263    0.789    6.316    0.000    4.421 
#    0.000    0.000    0.000    0.474    0.000    0.000 
#    0.000    8.842    0.000    0.000    0.000    1.579 
#
# Total GULP energy -1884692.034216 kJ/mol
# GULP energy per Si atom -12399.289699 kJ/mol
# Density = 1.900065 g / cm^3
# Si number density = 19.044000 Si / 1000 Ang^3
#
#
#
# Elastic Constant Matrix: (Units=GPa)
#
#
# Indices 1 2 3 4 5 6 
#
# 1 106.3930 60.1176 33.9570 0.0000 0.0000 0.0000
# 2 60.1176 106.3932 33.9570 0.0001 0.0000 0.0000
# 3 33.9570 33.9570 144.3084 0.0000 0.0000 0.0000
# 4 0.0000 0.0001 0.0000 22.8167 0.0000 0.0000
# 5 0.0000 0.0000 0.0000 0.0000 22.8167 0.0000
# 6 0.0000 0.0000 0.0000 0.0000 0.0000 23.1378
#
#
#
# Elastic Compliance Matrix: (Units=1/GPa)
#
#
# Indices 1 2 3 4 5 6 
#
# 1 0.014126 -0.007483 -0.001563 0.000000 0.000000 0.000000
# 2 -0.007483 0.014126 -0.001563 0.000000 0.000000 0.000000
# 3 -0.001563 -0.001563 0.007665 0.000000 0.000000 0.000000
# 4 0.000000 0.000000 0.000000 0.043827 0.000000 0.000000
# 5 0.000000 0.000000 0.000000 0.000000 0.043828 0.000000
# 6 0.000000 0.000000 0.000000 0.000000 0.000000 0.043219
#
#
# Mechanical properties :
#
#
# Convention : Reuss Voigt Hill
#
# Bulk Modulus (GPa) = 68.03248 68.12864 68.08056
# Shear Modulus (GPa) = 25.91864 29.02513 27.47188
#
# Velocity S-wave (km/s) = 3.69316 3.90822 3.80221
# Velocity P-wave (km/s) = 7.34760 7.49784 7.42310
#
# Compressibility (1/GPa) = 0.01469886
#
# Stress axis : x y z
#
# Youngs Moduli (GPa) = 70.78913 70.78926 130.45849
#
# Poissons Ratio (x) = 0.52973 0.20393
# Poissons Ratio (y) = 0.52973 0.20393
# Poissons Ratio (z) = 0.11066 0.11066
#
# Static dielectric constant tensor:
#      x y z
#    x 3.450530 0.000000 0.000000 
#    y 0.000000 3.450530 0.000000 
#    z 0.000000 0.000000 3.937180 
# 
# 
# High freq. dielectric constant tensor:
#      x y z
#    x 1.730350 0.000000 0.000000 
#    y 0.000000 1.730350 0.000000 
#    z 0.000000 0.000000 1.763490 
# 
# From -- ./inp_files/9274.got.cif
#   From: 2010.03.12/outbox.cif.g09.slc.cpg/sg193_5_cif.got.tgz:9274.got - 2010.04.01 12:20:39.
