data_PCOD8330981
_publ_section_title
;
Structure prediction by ZEFSAII (Michael W. Deem and Ramdas Pophale) SiO2 
 PCOD8330981
Probable space group: P 42 3 2
;
_chemical_formula_sum "Si O2"
_cell_formula_units_Z 104
_cell_length_a 18.309707
_cell_length_b 18.309707
_cell_length_c 18.309707
_cell_angle_alpha 90.000000
_cell_angle_beta 90.000000
_cell_angle_gamma 90.000000
_cell_volume 6138.244506
_symmetry_space_group_name_H-M "P 42 3 2"
_symmetry_group_IT_number 208
_symmetry_cell_setting 'cubic'
loop_
_space_group_symop_operation_xyz
x,y,z
1/2-y,1/2+x,1/2+z
-x,-y,z
1/2+y,1/2-x,1/2+z
1/2+x,1/2-z,1/2+y
x,-y,-z
1/2+x,1/2+z,1/2-y
1/2+z,1/2+y,1/2-x
-x,y,-z
1/2-z,1/2+y,1/2+x
z,x,y
y,z,x
-y,-z,x
z,-x,-y
-y,z,-x
-z,-x,y
-z,x,-y
y,-z,-x
1/2+y,1/2+x,1/2-z
1/2-y,1/2-x,1/2-z
1/2-x,1/2+z,1/2+y
1/2-x,1/2-z,1/2-y
1/2+z,1/2-y,1/2+x
1/2-z,1/2-y,1/2-x
loop_
_atom_site_type_symbol
_atom_site_label
_atom_site_fract_x
_atom_site_fract_y
_atom_site_fract_z
Si Si1 0.003565 0.583979 0.913895
Si Si2 0.065297 0.265099 0.260465
Si Si3 0.800001 0.800001 0.800001
Si Si4 0.834806 0.640974 0.365687
Si Si5 0.818679 0.582742 0.699008
O O1 0.944752 0.634866 0.871266
O O2 0.000000 0.500000 0.886751
O O3 0.083732 0.611369 0.899798
O O4 0.000000 0.590244 0.000000
O O5 0.110754 0.311884 0.317508
O O6 0.069561 0.183215 0.292271
O O7 0.104855 0.270782 0.182395
O O8 0.982430 0.290871 0.251150
O O9 0.750000 0.750000 0.750000
O O10 0.869874 0.751955 0.826655
O O11 0.870330 0.629671 0.750000
#
# Coordination Sequence:
#
# PCOD8330981 Si02
#       5
#    24  24   8  24  24
#     4  10  21  34  51  75 106 137 171 214 264 320
#     4   9  17  29  51  74 102 129 163 213 254 308
#     4   9  21  36  51  75  96 135 186 216 249 294
#     4   9  17  30  48  76 101 130 166 206 262 306
#     4  10  20  35  54  74 101 139 176 215 252 313
#
# _framework density 16.942955000000001
#
# number of rings (size 3 to 8) (size 9 to 14) (size 15 to 20)
#    0.000    2.538    0.000    1.846    3.231    4.154 
#    0.000    0.000    0.000    2.769    0.000    0.000 
#    0.000    0.000    0.000    0.000    0.000    0.000 
#
# Total GULP energy -1288522.146480 kJ/mol
# GULP energy per Si atom -12389.636024 kJ/mol
# Density = 1.690439 g / cm^3
# Si number density = 16.942955 Si / 1000 Ang^3
#
#
#
# Elastic Constant Matrix: (Units=GPa)
#
#
# Indices 1 2 3 4 5 6 
#
# 1 95.1015 49.2951 49.2953 0.0000 0.0000 0.0000
# 2 49.2951 95.1015 49.2953 0.0000 0.0000 0.0000
# 3 49.2953 49.2953 95.1015 0.0000 0.0000 0.0000
# 4 0.0000 0.0000 0.0000 30.3214 0.0000 0.0000
# 5 0.0000 0.0000 0.0000 0.0000 30.3214 0.0000
# 6 0.0000 0.0000 0.0000 0.0000 0.0000 30.3215
#
#
#
# Elastic Compliance Matrix: (Units=1/GPa)
#
#
# Indices 1 2 3 4 5 6 
#
# 1 0.016275 -0.005556 -0.005556 0.000000 0.000000 0.000000
# 2 -0.005556 0.016275 -0.005556 0.000000 0.000000 0.000000
# 3 -0.005556 -0.005556 0.016275 0.000000 0.000000 0.000000
# 4 0.000000 0.000000 0.000000 0.032980 0.000000 0.000000
# 5 0.000000 0.000000 0.000000 0.000000 0.032980 0.000000
# 6 0.000000 0.000000 0.000000 0.000000 0.000000 0.032980
#
#
# Mechanical properties :
#
#
# Convention : Reuss Voigt Hill
#
# Bulk Modulus (GPa) = 64.56397 64.56397 64.56397
# Shear Modulus (GPa) = 26.84360 27.35413 27.09887
#
# Velocity S-wave (km/s) = 3.98471 4.02242 4.00361
# Velocity P-wave (km/s) = 7.70454 7.73063 7.71760
#
# Compressibility (1/GPa) = 0.01548851
#
# Stress axis : x y z
#
# Youngs Moduli (GPa) = 61.44399 61.44399 61.44391
#
# Poissons Ratio (x) = 0.34139 0.34139
# Poissons Ratio (y) = 0.34139 0.34139
# Poissons Ratio (z) = 0.34139 0.34139
#
# Static dielectric constant tensor:
#      x y z
#    x 3.718660 0.000000 0.000000 
#    y 0.000000 3.718660 0.000000 
#    z 0.000000 0.000000 3.718660 
# 
# 
# High freq. dielectric constant tensor:
#      x y z
#    x 1.651980 0.000000 0.000000 
#    y 0.000000 1.651980 0.000000 
#    z 0.000000 0.000000 1.651980 
# 
# From -- ./inp_files/882.got.cif
#   From: 2010.03.12/outbox.cif.g09.slc.cpg/sg208_cif.got.tgz:882.got - 2010.03.30 09:03:42.
