data_PCOD8330231
_publ_section_title
;
Structure prediction by ZEFSAII (Michael W. Deem and Ramdas Pophale) SiO2 
 PCOD8330231
Probable space group: P 63/M C M
;
_chemical_formula_sum "Si O2"
_cell_formula_units_Z 168
_cell_length_a 19.568602
_cell_length_b 19.568602
_cell_length_c 28.855128
_cell_angle_alpha 90.000000
_cell_angle_beta 90.000000
_cell_angle_gamma 120.000000
_cell_volume 9569.147250
_symmetry_space_group_name_H-M "P 63/M C M"
_symmetry_group_IT_number 193
_symmetry_cell_setting 'hexagonal'
loop_
_space_group_symop_operation_xyz
x,y,z
x-y,x,1/2+z
-y,x-y,z
-x,-y,1/2+z
-x+y,-x,z
y,-x+y,1/2+z
x-y,-y,1/2-z
-x,-x+y,1/2-z
y,x,1/2-z
-y,-x,-z
-x+y,y,-z
x,x-y,-z
-x,-y,-z
-x+y,-x,1/2-z
y,-x+y,-z
x,y,1/2-z
x-y,x,-z
-y,x-y,1/2-z
-x+y,y,1/2+z
x,x-y,1/2+z
-y,-x,1/2+z
y,x,z
x-y,-y,z
-x,-x+y,z
loop_
_atom_site_type_symbol
_atom_site_label
_atom_site_fract_x
_atom_site_fract_y
_atom_site_fract_z
Si Si1 0.092008 0.684698 0.468105
Si Si2 0.215101 0.303890 0.196837
Si Si3 0.090667 0.250330 0.951645
Si Si4 0.907209 0.370731 0.699598
Si Si5 0.093891 0.666766 0.928818
Si Si6 0.905651 0.425559 0.604069
Si Si7 0.090228 0.796012 0.626746
O O1 0.107039 0.767551 0.448640
O O2 0.129670 0.696817 0.519627
O O3 0.128347 0.647529 0.432255
O O4 0.000000 0.623227 0.472961
O O5 0.191094 0.282295 0.250000
O O6 0.246684 0.246684 0.176888
O O7 0.282397 0.393935 0.190996
O O8 0.139358 0.294000 0.170576
O O9 0.143265 0.240130 0.912936
O O10 0.000000 0.188080 0.942210
O O11 0.115465 0.230929 0.000000
O O12 0.871586 0.376104 0.750000
O O13 0.871943 0.394851 0.655984
O O14 0.000000 0.428546 0.701890
O O15 0.124953 0.609580 0.910696
O O16 0.122380 0.740019 0.893628
O O17 0.000000 0.622199 0.931462
O O18 0.000000 0.468780 0.604580
O O19 0.000000 0.744395 0.642760
#
# Coordination Sequence:
#
# PCOD8330231 Si02
#       7
#    24  24  24  24  24  24  24
#     4   9  16  27  44  66  92 123 161 198 237 291
#     4   9  18  34  55  75  94 123 171 226 274 323
#     4  11  20  32  50  70  95 130 172 218 271 325
#     4   8  14  26  45  70  95 116 147 195 245 294
#     4   9  17  28  40  63  99 131 154 185 231 296
#     4   9  15  24  42  66  94 126 150 175 224 287
#     4  11  21  33  48  69 101 135 168 214 274 332
#
# _framework density 17.556422999999999
#
# number of rings (size 3 to 8) (size 9 to 14) (size 15 to 20)
#    0.000    2.571    1.429    3.000    0.000    4.286 
#    0.000    0.714    0.000    8.000    0.000    0.000 
#   11.429    0.571    0.000    0.000    0.000    0.000 
#
# Total GULP energy -2082312.767480 kJ/mol
# GULP energy per Si atom -12394.718854 kJ/mol
# Density = 1.751646 g / cm^3
# Si number density = 17.556423 Si / 1000 Ang^3
#
#
#
# Elastic Constant Matrix: (Units=GPa)
#
#
# Indices 1 2 3 4 5 6 
#
# 1 46.2127 13.9537 23.1208 0.0000 0.0000 0.0000
# 2 13.9537 46.2127 23.1208 0.0000 0.0000 0.0000
# 3 23.1208 23.1208 94.9059 0.0000 0.0000 0.0000
# 4 0.0000 0.0000 0.0000 24.4644 0.0000 0.0000
# 5 0.0000 0.0000 0.0000 0.0000 24.4644 0.0000
# 6 0.0000 0.0000 0.0000 0.0000 0.0000 16.1295
#
#
#
# Elastic Compliance Matrix: (Units=1/GPa)
#
#
# Indices 1 2 3 4 5 6 
#
# 1 0.025724 -0.005275 -0.004982 0.000000 0.000000 0.000000
# 2 -0.005275 0.025724 -0.004982 0.000000 0.000000 0.000000
# 3 -0.004982 -0.004982 0.012964 0.000000 0.000000 0.000000
# 4 0.000000 0.000000 0.000000 0.040876 0.000000 0.000000
# 5 0.000000 0.000000 0.000000 0.000000 0.040876 0.000000
# 6 0.000000 0.000000 0.000000 0.000000 0.000000 0.061998
#
#
# Mechanical properties :
#
#
# Convention : Reuss Voigt Hill
#
# Bulk Modulus (GPa) = 29.46759 34.19129 31.82944
# Shear Modulus (GPa) = 20.00392 21.48742 20.74567
#
# Velocity S-wave (km/s) = 3.37917 3.50223 3.44125
# Velocity P-wave (km/s) = 5.66092 5.98929 5.82742
#
# Compressibility (1/GPa) = 0.03393558
#
# Stress axis : x y z
#
# Youngs Moduli (GPa) = 38.87381 38.87381 77.13615
#
# Poissons Ratio (x) = 0.20505 0.38428
# Poissons Ratio (y) = 0.20505 0.38428
# Poissons Ratio (z) = 0.19366 0.19366
#
# Static dielectric constant tensor:
#      x y z
#    x 3.019470 0.000000 0.000000 
#    y 0.000000 3.019470 0.000000 
#    z 0.000000 0.000000 2.940010 
# 
# 
# High freq. dielectric constant tensor:
#      x y z
#    x 1.643990 0.000000 0.000000 
#    y 0.000000 1.643990 0.000000 
#    z 0.000000 0.000000 1.691750 
# 
# From -- ./inp_files/8510.got.cif
#   From: 2010.03.12/outbox.cif.g09.slc.cpg/sg193_5_cif.got.tgz:8510.got - 2010.04.01 12:20:39.
