data_PCOD8330389
_publ_section_title
;
Structure prediction by ZEFSAII (Michael W. Deem and Ramdas Pophale) SiO2 
 PCOD8330389
Probable space group: P 63/M M C
;
_chemical_formula_sum "Si O2"
_cell_formula_units_Z 120
_cell_length_a 25.929337
_cell_length_b 25.929337
_cell_length_c 13.578934
_cell_angle_alpha 90.000000
_cell_angle_beta 90.000000
_cell_angle_gamma 120.000000
_cell_volume 7906.406394
_symmetry_space_group_name_H-M "P 63/M M C"
_symmetry_group_IT_number 194
_symmetry_cell_setting 'hexagonal'
loop_
_space_group_symop_operation_xyz
x,y,z
x-y,x,1/2+z
-y,x-y,z
-x,-y,1/2+z
-x+y,-x,z
y,-x+y,1/2+z
x-y,-y,-z
-x,-x+y,-z
y,x,-z
-y,-x,1/2-z
-x+y,y,1/2-z
x,x-y,1/2-z
-x,-y,-z
-x+y,-x,1/2-z
y,-x+y,-z
x,y,1/2-z
x-y,x,-z
-y,x-y,1/2-z
-x+y,y,z
x,x-y,z
-y,-x,z
y,x,1/2+z
x-y,-y,1/2+z
-x,-x+y,1/2+z
loop_
_atom_site_type_symbol
_atom_site_label
_atom_site_fract_x
_atom_site_fract_y
_atom_site_fract_z
Si Si1 0.724280 0.160072 0.862864
Si Si2 0.904725 0.692969 0.953303
Si Si3 0.025613 0.413518 0.637823
Si Si4 0.024514 0.292382 0.861361
Si Si5 0.091031 0.605091 0.459156
O O1 0.715066 0.137767 0.750000
O O2 0.769279 0.230722 0.869233
O O3 0.749337 0.124766 0.923652
O O4 0.662286 0.146864 0.910575
O O5 0.858232 0.716464 0.936139
O O6 0.963620 0.731945 0.887885
O O7 0.922071 0.699401 0.068578
O O8 0.043145 0.434473 0.750000
O O9 0.012091 0.346586 0.621529
O O10 0.079974 0.459096 0.569389
O O11 0.966956 0.415717 0.608363
O O12 0.043404 0.289302 0.750000
O O13 0.108019 0.554010 0.463519
#
# Coordination Sequence:
#
# PCOD8330389 Si02
#       5
#    24  24  24  24  24
#     4  10  19  31  46  63  84 110 145 188 227 269
#     4  10  18  30  47  65  88 121 158 187 217 261
#     4  10  18  30  44  65  95 122 145 176 223 271
#     4  10  18  30  47  66  95 124 149 188 227 257
#     4  11  20  30  45  65  88 116 149 183 225 277
#
# _framework density 15.177566000000001
#
# number of rings (size 3 to 8) (size 9 to 14) (size 15 to 20)
#    0.000    1.800    4.000    3.600    0.000    4.400 
#    0.000    0.000    0.000    1.000    0.000    0.000 
#    0.000    0.000    0.000   19.200    0.000   41.600 
#
# Total GULP energy -1488030.873104 kJ/mol
# GULP energy per Si atom -12400.257276 kJ/mol
# Density = 1.514302 g / cm^3
# Si number density = 15.177566 Si / 1000 Ang^3
#
#
#
# Elastic Constant Matrix: (Units=GPa)
#
#
# Indices 1 2 3 4 5 6 
#
# 1 69.8648 38.6604 40.9005 0.0000 0.0000 0.0000
# 2 38.6604 69.8648 40.9005 0.0000 0.0000 0.0000
# 3 40.9005 40.9005 119.4977 0.0000 0.0000 0.0000
# 4 0.0000 0.0000 0.0000 15.1736 0.0000 0.0000
# 5 0.0000 0.0000 0.0000 0.0000 15.1736 0.0000
# 6 0.0000 0.0000 0.0000 0.0000 0.0000 15.6022
#
#
#
# Elastic Compliance Matrix: (Units=1/GPa)
#
#
# Indices 1 2 3 4 5 6 
#
# 1 0.022232 -0.009814 -0.004250 0.000000 0.000000 0.000000
# 2 -0.009814 0.022232 -0.004250 0.000000 0.000000 0.000000
# 3 -0.004250 -0.004250 0.011278 0.000000 0.000000 0.000000
# 4 0.000000 0.000000 0.000000 0.065904 0.000000 0.000000
# 5 0.000000 0.000000 0.000000 0.000000 0.065904 0.000000
# 6 0.000000 0.000000 0.000000 0.000000 0.000000 0.064093
#
#
# Mechanical properties :
#
#
# Convention : Reuss Voigt Hill
#
# Bulk Modulus (GPa) = 52.32102 55.57223 53.94662
# Shear Modulus (GPa) = 16.96957 18.44095 17.70526
#
# Velocity S-wave (km/s) = 3.34738 3.48949 3.41917
# Velocity P-wave (km/s) = 7.03473 7.27527 7.15601
#
# Compressibility (1/GPa) = 0.01911278
#
# Stress axis : x y z
#
# Youngs Moduli (GPa) = 44.97929 44.97929 88.66890
#
# Poissons Ratio (x) = 0.44144 0.37688
# Poissons Ratio (y) = 0.44144 0.37688
# Poissons Ratio (z) = 0.19118 0.19118
#
# Static dielectric constant tensor:
#      x y z
#    x 2.764470 0.000000 0.000000 
#    y 0.000000 2.764470 0.000000 
#    z 0.000000 0.000000 3.134870 
# 
# 
# High freq. dielectric constant tensor:
#      x y z
#    x 1.552040 0.000000 0.000000 
#    y 0.000000 1.552040 0.000000 
#    z 0.000000 0.000000 1.599240 
# 
# From -- ./inp_files/5100.got.cif
#   From: 2010.03.12/outbox.cif.g09.slc.cpg/sg194_3_cif.got.tgz:5100.got - 2010.04.01 12:26:19.
