data_PCOD8330067
_publ_section_title
;
Structure prediction by ZEFSAII (Michael W. Deem and Ramdas Pophale) SiO2 
 PCOD8330067
Probable space group: P 63/M C M
;
_chemical_formula_sum "Si O2"
_cell_formula_units_Z 144
_cell_length_a 30.837861
_cell_length_b 30.837861
_cell_length_c 8.581635
_cell_angle_alpha 90.000000
_cell_angle_beta 90.000000
_cell_angle_gamma 120.000000
_cell_volume 7067.554460
_symmetry_space_group_name_H-M "P 63/M C M"
_symmetry_group_IT_number 193
_symmetry_cell_setting 'hexagonal'
loop_
_space_group_symop_operation_xyz
x,y,z
x-y,x,1/2+z
-y,x-y,z
-x,-y,1/2+z
-x+y,-x,z
y,-x+y,1/2+z
x-y,-y,1/2-z
-x,-x+y,1/2-z
y,x,1/2-z
-y,-x,-z
-x+y,y,-z
x,x-y,-z
-x,-y,-z
-x+y,-x,1/2-z
y,-x+y,-z
x,y,1/2-z
x-y,x,-z
-y,x-y,1/2-z
-x+y,y,1/2+z
x,x-y,1/2+z
-y,-x,1/2+z
y,x,z
x-y,-y,z
-x,-x+y,z
loop_
_atom_site_type_symbol
_atom_site_label
_atom_site_fract_x
_atom_site_fract_y
_atom_site_fract_z
Si Si1 0.388087 0.148191 0.066965
Si Si2 0.424718 0.482073 0.933047
Si Si3 0.760931 0.057402 0.431642
Si Si4 0.942880 0.146541 0.068952
Si Si5 0.519094 0.852044 0.066681
Si Si6 0.666884 0.240481 0.933969
O O1 0.396771 0.155292 0.250000
O O2 0.369274 0.184637 0.000000
O O3 0.346562 0.091284 0.028658
O O4 0.440053 0.162480 0.985004
O O5 0.419809 0.486936 0.750000
O O6 0.442120 0.442120 0.973872
O O7 0.463816 0.536185 0.000000
O O8 0.371391 0.462710 0.014117
O O9 0.760056 0.068362 0.250000
O O10 0.816474 0.070584 0.477788
O O11 0.721626 0.000000 0.473972
O O12 0.931882 0.148747 0.250000
O O13 0.000000 0.161072 0.039709
O O14 0.908831 0.091170 0.000000
O O15 0.511819 0.846449 0.250000
O O16 0.466427 0.815466 0.985512
O O17 0.667638 0.244090 0.750000
O O18 0.721694 0.278307 0.000000
O O19 0.627794 0.255587 0.000000
#
# Coordination Sequence:
#
# PCOD8330067 Si02
#       6
#    24  24  24  24  24  24
#     4  12  25  42  62  85 117 156 197 240 289 346
#     4  10  21  39  63  91 122 157 198 244 295 348
#     4  10  21  38  60  86 116 151 192 238 287 340
#     4  10  20  34  54  81 112 147 188 235 287 342
#     4  12  25  42  63  89 121 158 200 244 292 347
#     4  12  25  44  67  94 125 158 197 241 294 350
#
# _framework density 20.374798999999999
#
# number of rings (size 3 to 8) (size 9 to 14) (size 15 to 20)
#    0.000    1.000    0.000    7.667    0.000    3.667 
#    0.000    0.000    0.000    0.167    0.000    0.000 
#    0.000    0.000    0.000    0.000    0.000    0.000 
#
# Total GULP energy -1786902.452374 kJ/mol
# GULP energy per Si atom -12409.044808 kJ/mol
# Density = 2.032842 g / cm^3
# Si number density = 20.374799 Si / 1000 Ang^3
#
#
#
# Elastic Constant Matrix: (Units=GPa)
#
#
# Indices 1 2 3 4 5 6 
#
# 1 95.4614 31.5472 41.6123 0.0000 0.0000 0.0000
# 2 31.5472 95.4614 41.6123 0.0000 0.0000 0.0000
# 3 41.6123 41.6123 136.3818 0.0000 0.0000 0.0000
# 4 0.0000 0.0000 0.0000 37.9582 0.0000 0.0000
# 5 0.0000 0.0000 0.0000 0.0000 37.9582 0.0000
# 6 0.0000 0.0000 0.0000 0.0000 0.0000 31.9571
#
#
#
# Elastic Compliance Matrix: (Units=1/GPa)
#
#
# Indices 1 2 3 4 5 6 
#
# 1 0.012743 -0.002902 -0.003003 0.000000 0.000000 0.000000
# 2 -0.002902 0.012743 -0.003003 0.000000 0.000000 0.000000
# 3 -0.003003 -0.003003 0.009165 0.000000 0.000000 0.000000
# 4 0.000000 0.000000 0.000000 0.026345 0.000000 0.000000
# 5 0.000000 0.000000 0.000000 0.000000 0.026345 0.000000
# 6 0.000000 0.000000 0.000000 0.000000 0.000000 0.031292
#
#
# Mechanical properties :
#
#
# Convention : Reuss Voigt Hill
#
# Bulk Modulus (GPa) = 59.39616 61.87200 60.63408
# Shear Modulus (GPa) = 35.19624 35.74359 35.46991
#
# Velocity S-wave (km/s) = 4.16076 4.19299 4.17690
# Velocity P-wave (km/s) = 7.23171 7.33991 7.28601
#
# Compressibility (1/GPa) = 0.01683611
#
# Stress axis : x y z
#
# Youngs Moduli (GPa) = 78.47144 78.47144 109.11470
#
# Poissons Ratio (x) = 0.22776 0.32763
# Poissons Ratio (y) = 0.22776 0.32763
# Poissons Ratio (z) = 0.23562 0.23562
#
# Static dielectric constant tensor:
#      x y z
#    x 3.703780 0.000000 0.000000 
#    y 0.000000 3.703780 0.000000 
#    z 0.000000 0.000000 3.796880 
# 
# 
# High freq. dielectric constant tensor:
#      x y z
#    x 1.798030 0.000000 0.000000 
#    y 0.000000 1.798030 0.000000 
#    z 0.000000 0.000000 1.815550 
# 
# From -- ./inp_files/1544.got.cif
#   From: 2010.03.12/outbox.cif.g09.slc.cpg/sg193_1_cif.got.tgz:1544.got - 2010.04.01 12:20:39.
