data_PCOD8330625
_publ_section_title
;
Structure prediction by ZEFSAII (Michael W. Deem and Ramdas Pophale) SiO2 
 PCOD8330625
Probable space group: P 63/M M C
;
_chemical_formula_sum "Si O2"
_cell_formula_units_Z 132
_cell_length_a 17.057746
_cell_length_b 17.057746
_cell_length_c 26.147504
_cell_angle_alpha 90.000000
_cell_angle_beta 90.000000
_cell_angle_gamma 120.000000
_cell_volume 6588.767098
_symmetry_space_group_name_H-M "P 63/M M C"
_symmetry_group_IT_number 194
_symmetry_cell_setting 'hexagonal'
loop_
_space_group_symop_operation_xyz
x,y,z
x-y,x,1/2+z
-y,x-y,z
-x,-y,1/2+z
-x+y,-x,z
y,-x+y,1/2+z
x-y,-y,-z
-x,-x+y,-z
y,x,-z
-y,-x,1/2-z
-x+y,y,1/2-z
x,x-y,1/2-z
-x,-y,-z
-x+y,-x,1/2-z
y,-x+y,-z
x,y,1/2-z
x-y,x,-z
-y,x-y,1/2-z
-x+y,y,z
x,x-y,z
-y,-x,z
y,x,1/2+z
x-y,-y,1/2+z
-x,-x+y,1/2+z
loop_
_atom_site_type_symbol
_atom_site_label
_atom_site_fract_x
_atom_site_fract_y
_atom_site_fract_z
Si Si1 0.293771 0.055810 0.949444
Si Si2 0.054891 0.759207 0.652835
Si Si3 0.998651 0.184510 0.750000
Si Si4 0.665201 0.153675 0.803762
Si Si5 0.333376 0.488242 0.689904
Si Si6 0.514559 0.848681 0.414459
O O1 0.270600 0.135300 0.945026
O O2 0.402449 0.096679 0.953088
O O3 0.250625 0.992558 0.900863
O O4 0.248521 0.000000 0.000000
O O5 0.145198 0.854803 0.654016
O O6 0.080314 0.680678 0.660341
O O7 0.991247 0.755608 0.699642
O O8 0.917006 0.082994 0.750000
O O9 0.091222 0.182444 0.750000
O O10 0.643941 0.095482 0.750000
O O11 0.595606 0.191212 0.808506
O O12 0.764752 0.235249 0.798005
O O13 0.658285 0.104558 0.857992
O O14 0.330336 0.469959 0.750000
O O15 0.256180 0.512359 0.675095
O O16 0.429456 0.570545 0.672215
O O17 0.428747 0.857494 0.432128
O O18 0.485190 0.742595 0.412395
#
# Coordination Sequence:
#
# PCOD8330625 Si02
#       6
#    24  24  12  24  24  24
#     4  11  24  42  62  83 107 144 191 240 296 356
#     4  10  20  37  60  86 118 152 187 234 295 354
#     4  10  19  34  57  86 116 146 180 226 291 368
#     4   8  12  20  37  64 100 141 181 219 256 302
#     4   9  16  29  52  86 127 170 210 243 277 324
#     4   9  18  33  54  81 113 151 194 235 279 331
#
# _framework density 20.034096999999999
#
# number of rings (size 3 to 8) (size 9 to 14) (size 15 to 20)
#    0.000    2.545    0.909    1.727    0.000    4.000 
#    1.636    0.000    0.000    4.364    0.000    2.545 
#    0.000    0.000    0.000    0.364    0.000    0.000 
#
# Total GULP energy -1635686.129876 kJ/mol
# GULP energy per Si atom -12391.561590 kJ/mol
# Density = 1.998850 g / cm^3
# Si number density = 20.034097 Si / 1000 Ang^3
#
#
#
# Elastic Constant Matrix: (Units=GPa)
#
#
# Indices 1 2 3 4 5 6 
#
# 1 71.9481 32.5812 39.8564 0.0000 0.0000 0.0000
# 2 32.5812 71.9481 39.8564 0.0000 0.0000 0.0000
# 3 39.8564 39.8564 105.7485 0.0000 0.0000 0.0000
# 4 0.0000 0.0000 0.0000 27.5662 0.0000 0.0000
# 5 0.0000 0.0000 0.0000 0.0000 27.5662 0.0000
# 6 0.0000 0.0000 0.0000 0.0000 0.0000 19.6835
#
#
#
# Elastic Compliance Matrix: (Units=1/GPa)
#
#
# Indices 1 2 3 4 5 6 
#
# 1 0.019414 -0.005988 -0.005060 0.000000 0.000000 0.000000
# 2 -0.005988 0.019414 -0.005060 0.000000 0.000000 0.000000
# 3 -0.005060 -0.005060 0.013271 0.000000 0.000000 0.000000
# 4 0.000000 0.000000 0.000000 0.036276 0.000000 0.000000
# 5 0.000000 0.000000 0.000000 0.000000 0.036276 0.000000
# 6 0.000000 0.000000 0.000000 0.000000 0.000000 0.050804
#
#
# Mechanical properties :
#
#
# Convention : Reuss Voigt Hill
#
# Bulk Modulus (GPa) = 50.29830 52.69252 51.49541
# Shear Modulus (GPa) = 23.33193 24.11988 23.72590
#
# Velocity S-wave (km/s) = 3.41634 3.47355 3.44506
# Velocity P-wave (km/s) = 6.38143 6.51505 6.44859
#
# Compressibility (1/GPa) = 0.01988139
#
# Stress axis : x y z
#
# Youngs Moduli (GPa) = 51.50994 51.50994 75.35444
#
# Poissons Ratio (x) = 0.30846 0.38129
# Poissons Ratio (y) = 0.30846 0.38129
# Poissons Ratio (z) = 0.26064 0.26064
#
# Static dielectric constant tensor:
#      x y z
#    x 3.553590 0.000000 0.000000 
#    y 0.000000 3.553590 0.000000 
#    z 0.000000 0.000000 3.569730 
# 
# 
# High freq. dielectric constant tensor:
#      x y z
#    x 1.779460 0.000000 0.000000 
#    y 0.000000 1.779460 0.000000 
#    z 0.000000 0.000000 1.763030 
# 
# From -- ./inp_files/9486.got.cif
#   From: 2010.03.12/outbox.cif.g09.slc.cpg/sg194_5_cif.got.tgz:9486.got - 2010.04.01 12:26:19.
