data_PCOD8330213
_publ_section_title
;
Structure prediction by ZEFSAII (Michael W. Deem and Ramdas Pophale) SiO2 
 PCOD8330213
Probable space group: P 63/M C M
;
_chemical_formula_sum "Si O2"
_cell_formula_units_Z 144
_cell_length_a 31.004642
_cell_length_b 31.004642
_cell_length_c 8.984731
_cell_angle_alpha 90.000000
_cell_angle_beta 90.000000
_cell_angle_gamma 120.000000
_cell_volume 7479.785658
_symmetry_space_group_name_H-M "P 63/M C M"
_symmetry_group_IT_number 193
_symmetry_cell_setting 'hexagonal'
loop_
_space_group_symop_operation_xyz
x,y,z
x-y,x,1/2+z
-y,x-y,z
-x,-y,1/2+z
-x+y,-x,z
y,-x+y,1/2+z
x-y,-y,1/2-z
-x,-x+y,1/2-z
y,x,1/2-z
-y,-x,-z
-x+y,y,-z
x,x-y,-z
-x,-y,-z
-x+y,-x,1/2-z
y,-x+y,-z
x,y,1/2-z
x-y,x,-z
-y,x-y,1/2-z
-x+y,y,1/2+z
x,x-y,1/2+z
-y,-x,1/2+z
y,x,z
x-y,-y,z
-x,-x+y,z
loop_
_atom_site_type_symbol
_atom_site_label
_atom_site_fract_x
_atom_site_fract_y
_atom_site_fract_z
Si Si1 0.424047 0.756480 0.922737
Si Si2 0.237546 0.852395 0.574284
Si Si3 0.483609 0.056031 0.424237
Si Si4 0.942722 0.242050 0.077019
Si Si5 0.200280 0.055598 0.424868
Si Si6 0.674198 0.526747 0.421370
O O1 0.412433 0.742469 0.750000
O O2 0.469135 0.812297 0.944249
O O3 0.375538 0.751075 0.000000
O O4 0.439415 0.719708 0.000000
O O5 0.184689 0.815312 0.500000
O O6 0.231276 0.847780 0.750000
O O7 0.255686 0.908526 0.522453
O O8 0.278436 0.838050 0.524297
O O9 0.535983 0.071966 0.500000
O O10 0.493829 0.060132 0.250000
O O11 0.464920 0.093872 0.472903
O O12 0.441797 0.000000 0.471165
O O13 0.929861 0.242589 0.250000
O O14 0.932419 0.187692 0.028643
O O15 0.000000 0.283087 0.046491
O O16 0.185941 0.092971 0.500000
O O17 0.197893 0.060391 0.250000
O O18 0.160273 0.000000 0.477450
O O19 0.689025 0.542965 0.250000
#
# Coordination Sequence:
#
# PCOD8330213 Si02
#       6
#    24  24  24  24  24  24
#     4  11  23  39  60  84 111 141 178 224 274 331
#     4  12  25  39  57  81 112 149 189 231 274 325
#     4   9  18  34  57  84 113 145 182 225 274 327
#     4   9  19  37  59  82 111 145 180 224 277 329
#     4   9  18  32  51  77 106 137 176 220 268 321
#     4  10  22  39  58  82 112 148 188 227 273 327
#
# _framework density 19.251888999999998
#
# number of rings (size 3 to 8) (size 9 to 14) (size 15 to 20)
#    0.000    2.000    0.000    4.667    0.000    6.667 
#    0.000    3.333    0.000    0.167    0.000    0.000 
#    0.000    0.000    0.000    0.000    0.000    0.000 
#
# Total GULP energy -1786141.891864 kJ/mol
# GULP energy per Si atom -12403.763138 kJ/mol
# Density = 1.920807 g / cm^3
# Si number density = 19.251889 Si / 1000 Ang^3
#
#
#
# Elastic Constant Matrix: (Units=GPa)
#
#
# Indices 1 2 3 4 5 6 
#
# 1 93.6424 34.0920 43.1029 0.0000 0.0000 0.0000
# 2 34.0920 93.6424 43.1029 0.0000 0.0000 0.0000
# 3 43.1029 43.1029 94.3632 0.0000 0.0000 0.0000
# 4 0.0000 0.0000 0.0000 32.0786 0.0000 0.0000
# 5 0.0000 0.0000 0.0000 0.0000 32.0786 0.0000
# 6 0.0000 0.0000 0.0000 0.0000 0.0000 29.7752
#
#
#
# Elastic Compliance Matrix: (Units=1/GPa)
#
#
# Indices 1 2 3 4 5 6 
#
# 1 0.014055 -0.002737 -0.005170 0.000000 0.000000 0.000000
# 2 -0.002737 0.014055 -0.005170 0.000000 0.000000 0.000000
# 3 -0.005170 -0.005170 0.015320 0.000000 0.000000 0.000000
# 4 0.000000 0.000000 0.000000 0.031173 0.000000 0.000000
# 5 0.000000 0.000000 0.000000 0.000000 0.031173 0.000000
# 6 0.000000 0.000000 0.000000 0.000000 0.000000 0.033585
#
#
# Mechanical properties :
#
#
# Convention : Reuss Voigt Hill
#
# Bulk Modulus (GPa) = 57.88095 58.02705 57.95400
# Shear Modulus (GPa) = 29.19289 29.54313 29.36801
#
# Velocity S-wave (km/s) = 3.89828 3.92159 3.90995
# Velocity P-wave (km/s) = 7.09876 7.12121 7.10999
#
# Compressibility (1/GPa) = 0.01727684
#
# Stress axis : x y z
#
# Youngs Moduli (GPa) = 71.14865 71.14865 65.27373
#
# Poissons Ratio (x) = 0.19476 0.33744
# Poissons Ratio (y) = 0.19476 0.33744
# Poissons Ratio (z) = 0.36781 0.36781
#
# Static dielectric constant tensor:
#      x y z
#    x 3.743410 0.000000 0.000000 
#    y 0.000000 3.743410 0.000000 
#    z 0.000000 0.000000 3.441040 
# 
# 
# High freq. dielectric constant tensor:
#      x y z
#    x 1.752440 0.000000 0.000000 
#    y 0.000000 1.752440 0.000000 
#    z 0.000000 0.000000 1.742870 
# 
# From -- ./inp_files/1542.got.cif
#   From: 2010.03.12/outbox.cif.g09.slc.cpg/sg193_1_cif.got.tgz:1542.got - 2010.04.01 12:20:39.
