data_PCOD8330781
_publ_section_title
;
Structure prediction by ZEFSAII (Michael W. Deem and Ramdas Pophale) SiO2 
 PCOD8330781
Probable space group: P 63/M M C
;
_chemical_formula_sum "Si O2"
_cell_formula_units_Z 58
_cell_length_a 19.304912
_cell_length_b 19.304912
_cell_length_c 9.966263
_cell_angle_alpha 90.000000
_cell_angle_beta 90.000000
_cell_angle_gamma 120.000000
_cell_volume 3216.611630
_symmetry_space_group_name_H-M "P 63/M M C"
_symmetry_group_IT_number 194
_symmetry_cell_setting 'hexagonal'
loop_
_space_group_symop_operation_xyz
x,y,z
x-y,x,1/2+z
-y,x-y,z
-x,-y,1/2+z
-x+y,-x,z
y,-x+y,1/2+z
x-y,-y,-z
-x,-x+y,-z
y,x,-z
-y,-x,1/2-z
-x+y,y,1/2-z
x,x-y,1/2-z
-x,-y,-z
-x+y,-x,1/2-z
y,-x+y,-z
x,y,1/2-z
x-y,x,-z
-y,x-y,1/2-z
-x+y,y,z
x,x-y,z
-y,-x,z
y,x,1/2+z
x-y,-y,1/2+z
-x,-x+y,1/2+z
loop_
_atom_site_type_symbol
_atom_site_label
_atom_site_fract_x
_atom_site_fract_y
_atom_site_fract_z
Si Si1 0.052854 0.268193 0.750000
Si Si2 0.666668 0.333334 0.408540
Si Si3 0.574793 0.149585 0.039243
Si Si4 0.536646 0.463355 0.750000
Si Si5 0.000000 0.835777 0.500000
Si Si6 0.559638 0.631048 0.750000
O O1 0.139523 0.279045 0.750000
O O2 0.001981 0.217098 0.875681
O O3 0.066762 0.356410 0.750000
O O4 0.666667 0.333334 0.250000
O O5 0.755699 0.377850 0.463541
O O6 0.626462 0.116790 0.116572
O O7 0.562825 0.125650 0.884017
O O8 0.577871 0.558831 0.750000
O O9 0.923438 0.846876 0.508430
#
# Coordination Sequence:
#
# PCOD8330781 Si02
#       6
#    12   4  12   6  12  12
#     4  10  23  35  58  89 122 148 200 243 299 342
#     4  12  21  43  62  88 120 157 224 241 288 367
#     4  10  23  37  65  85 117 159 203 245 297 351
#     4  10  22  40  58  94 110 160 196 238 310 348
#     4  10  21  40  60  87 118 160 198 246 294 357
#     4  10  20  38  62  83 123 161 195 238 292 381
#
# _framework density 18.031396000000001
#
# number of rings (size 3 to 8) (size 9 to 14) (size 15 to 20)
#    0.000    2.069    2.069    3.310    8.690    0.828 
#    0.000    2.069    4.552    0.000    0.000    0.000 
#    0.000    0.000    0.000    0.000    0.000    0.000 
#
# Total GULP energy -719147.201137 kJ/mol
# GULP energy per Si atom -12399.089675 kJ/mol
# Density = 1.799036 g / cm^3
# Si number density = 18.031396 Si / 1000 Ang^3
#
#
#
# Elastic Constant Matrix: (Units=GPa)
#
#
# Indices 1 2 3 4 5 6 
#
# 1 108.2233 51.3081 69.7953 0.0000 0.0000 -0.0001
# 2 51.3081 108.2232 69.7953 0.0002 0.0000 0.0000
# 3 69.7953 69.7953 185.8528 0.0000 0.0000 0.0000
# 4 0.0000 0.0002 0.0000 14.2822 0.0001 0.0000
# 5 0.0000 0.0000 0.0000 0.0001 14.2819 0.0001
# 6 -0.0001 0.0000 0.0000 0.0000 0.0001 28.4576
#
#
#
# Elastic Compliance Matrix: (Units=1/GPa)
#
#
# Indices 1 2 3 4 5 6 
#
# 1 0.013453 -0.004117 -0.003506 0.000000 0.000000 0.000000
# 2 -0.004117 0.013453 -0.003506 0.000000 0.000000 0.000000
# 3 -0.003506 -0.003506 0.008014 0.000000 0.000000 0.000000
# 4 0.000000 0.000000 0.000000 0.070017 0.000000 0.000000
# 5 0.000000 0.000000 0.000000 0.000000 0.070018 0.000000
# 6 0.000000 0.000000 0.000000 0.000000 0.000000 0.035140
#
#
# Mechanical properties :
#
#
# Convention : Reuss Voigt Hill
#
# Bulk Modulus (GPa) = 78.97689 87.12186 83.04938
# Shear Modulus (GPa) = 21.13497 25.49773 23.31635
#
# Velocity S-wave (km/s) = 3.42734 3.76450 3.59987
# Velocity P-wave (km/s) = 7.71731 8.20469 7.96473
#
# Compressibility (1/GPa) = 0.01266193
#
# Stress axis : x y z
#
# Youngs Moduli (GPa) = 74.33217 74.33209 124.78166
#
# Poissons Ratio (x) = 0.30602 0.43750
# Poissons Ratio (y) = 0.30602 0.43750
# Poissons Ratio (z) = 0.26062 0.26062
#
# Static dielectric constant tensor:
#      x y z
#    x 3.297980 0.000000 0.000000 
#    y 0.000000 3.297990 0.000000 
#    z 0.000000 0.000000 3.509920 
# 
# 
# High freq. dielectric constant tensor:
#      x y z
#    x 1.699940 0.000000 0.000000 
#    y 0.000000 1.699940 0.000000 
#    z 0.000000 0.000000 1.709320 
# 
# From -- ./inp_files/2640.got.cif
#   From: 2010.03.12/outbox.cif.g09.slc.cpg/sg194_2_cif.got.tgz:2640.got - 2010.04.01 12:26:19.
