data_PCOD8330707
_publ_section_title
;
Structure prediction by ZEFSAII (Michael W. Deem and Ramdas Pophale) SiO2 
 PCOD8330707
Probable space group: P 63/M M C
;
_chemical_formula_sum "Si O2"
_cell_formula_units_Z 144
_cell_length_a 17.951167
_cell_length_b 17.951167
_cell_length_c 27.060391
_cell_angle_alpha 90.000000
_cell_angle_beta 90.000000
_cell_angle_gamma 120.000000
_cell_volume 7551.792938
_symmetry_space_group_name_H-M "P 63/M M C"
_symmetry_group_IT_number 194
_symmetry_cell_setting 'hexagonal'
loop_
_space_group_symop_operation_xyz
x,y,z
x-y,x,1/2+z
-y,x-y,z
-x,-y,1/2+z
-x+y,-x,z
y,-x+y,1/2+z
x-y,-y,-z
-x,-x+y,-z
y,x,-z
-y,-x,1/2-z
-x+y,y,1/2-z
x,x-y,1/2-z
-x,-y,-z
-x+y,-x,1/2-z
y,-x+y,-z
x,y,1/2-z
x-y,x,-z
-y,x-y,1/2-z
-x+y,y,z
x,x-y,z
-y,-x,z
y,x,1/2+z
x-y,-y,1/2+z
-x,-x+y,1/2+z
loop_
_atom_site_type_symbol
_atom_site_label
_atom_site_fract_x
_atom_site_fract_y
_atom_site_fract_z
Si Si1 0.503586 0.835507 0.407703
Si Si2 0.092415 0.632985 0.512132
Si Si3 0.089933 0.739717 0.806413
Si Si4 0.169956 0.999892 0.443317
Si Si5 0.313699 0.243073 0.634860
Si Si6 0.163019 0.494286 0.884913
O O1 0.426935 0.853870 0.393737
O O2 0.476697 0.738349 0.392864
O O3 0.522376 0.843943 0.466310
O O4 0.588407 0.903410 0.378154
O O5 0.079527 0.539764 0.522315
O O6 0.130901 0.686489 0.562543
O O7 0.000000 0.623391 0.500000
O O8 0.091336 0.713006 0.750000
O O9 0.159896 0.840105 0.815061
O O10 0.109572 0.679472 0.841088
O O11 0.994809 0.721938 0.819242
O O12 0.069850 0.930151 0.435040
O O13 0.231252 0.976546 0.412351
O O14 0.195675 0.000000 0.500000
O O15 0.184837 0.092419 0.426715
O O16 0.308588 0.154294 0.650180
O O17 0.263708 0.527417 0.879230
O O18 0.148314 0.574157 0.880648
#
# Coordination Sequence:
#
# PCOD8330707 Si02
#       6
#    24  24  24  24  24  24
#     4  10  20  34  52  76 108 145 183 219 258 308
#     4   9  17  29  47  72 103 139 176 214 255 301
#     4  10  22  39  57  77 102 134 171 214 269 326
#     4   9  17  30  50  77 109 142 172 203 246 307
#     4  10  21  35  54  80 105 134 174 218 264 313
#     4  10  20  34  53  77 106 141 181 222 262 307
#
# _framework density 19.06832
#
# number of rings (size 3 to 8) (size 9 to 14) (size 15 to 20)
#    0.000    2.333    0.000    2.500    0.000    5.333 
#    0.000    5.000    0.000    1.333    0.000    0.000 
#    0.000    1.333    0.000    0.000    0.000    0.000 
#
# Total GULP energy -1785591.559393 kJ/mol
# GULP energy per Si atom -12399.941385 kJ/mol
# Density = 1.902492 g / cm^3
# Si number density = 19.068320 Si / 1000 Ang^3
#
#
#
# Elastic Constant Matrix: (Units=GPa)
#
#
# Indices 1 2 3 4 5 6 
#
# 1 94.3145 55.1602 36.5808 0.0000 0.0000 0.0000
# 2 55.1602 94.3145 36.5808 0.0000 0.0000 0.0000
# 3 36.5808 36.5808 85.8061 0.0000 0.0000 0.0000
# 4 0.0000 0.0000 0.0000 25.4660 0.0000 0.0000
# 5 0.0000 0.0000 0.0000 0.0000 25.4660 0.0000
# 6 0.0000 0.0000 0.0000 0.0000 0.0000 19.5771
#
#
#
# Elastic Compliance Matrix: (Units=1/GPa)
#
#
# Indices 1 2 3 4 5 6 
#
# 1 0.016997 -0.008543 -0.003604 0.000000 0.000000 0.000000
# 2 -0.008543 0.016997 -0.003604 0.000000 0.000000 0.000000
# 3 -0.003604 -0.003604 0.014727 0.000000 0.000000 0.000000
# 4 0.000000 0.000000 0.000000 0.039268 0.000000 0.000000
# 5 0.000000 0.000000 0.000000 0.000000 0.039268 0.000000
# 6 0.000000 0.000000 0.000000 0.000000 0.000000 0.051080
#
#
# Mechanical properties :
#
#
# Convention : Reuss Voigt Hill
#
# Bulk Modulus (GPa) = 58.07574 59.00874 58.54224
# Shear Modulus (GPa) = 23.19329 23.84273 23.51801
#
# Velocity S-wave (km/s) = 3.49137 3.53991 3.51573
# Velocity P-wave (km/s) = 6.83927 6.90805 6.87375
#
# Compressibility (1/GPa) = 0.01721890
#
# Stress axis : x y z
#
# Youngs Moduli (GPa) = 58.83357 58.83357 67.90134
#
# Poissons Ratio (x) = 0.50261 0.24473
# Poissons Ratio (y) = 0.50261 0.24473
# Poissons Ratio (z) = 0.21205 0.21205
#
# Static dielectric constant tensor:
#      x y z
#    x 3.455210 0.000000 0.000000 
#    y 0.000000 3.455210 0.000000 
#    z 0.000000 0.000000 3.333570 
# 
# 
# High freq. dielectric constant tensor:
#      x y z
#    x 1.743580 0.000000 0.000000 
#    y 0.000000 1.743580 0.000000 
#    z 0.000000 0.000000 1.713530 
# 
# From -- ./inp_files/8202.got.cif
#   From: 2010.03.12/outbox.cif.g09.slc.cpg/sg194_5_cif.got.tgz:8202.got - 2010.04.01 12:26:19.
