data_PCOD8330209
_publ_section_title
;
Structure prediction by ZEFSAII (Michael W. Deem and Ramdas Pophale) SiO2 
 PCOD8330209
Probable space group: P 63/M C M
;
_chemical_formula_sum "Si O2"
_cell_formula_units_Z 152
_cell_length_a 17.356503
_cell_length_b 17.356503
_cell_length_c 30.899081
_cell_angle_alpha 90.000000
_cell_angle_beta 90.000000
_cell_angle_gamma 120.000000
_cell_volume 8061.217703
_symmetry_space_group_name_H-M "P 63/M C M"
_symmetry_group_IT_number 193
_symmetry_cell_setting 'hexagonal'
loop_
_space_group_symop_operation_xyz
x,y,z
x-y,x,1/2+z
-y,x-y,z
-x,-y,1/2+z
-x+y,-x,z
y,-x+y,1/2+z
x-y,-y,1/2-z
-x,-x+y,1/2-z
y,x,1/2-z
-y,-x,-z
-x+y,y,-z
x,x-y,-z
-x,-y,-z
-x+y,-x,1/2-z
y,-x+y,-z
x,y,1/2-z
x-y,x,-z
-y,x-y,1/2-z
-x+y,y,1/2+z
x,x-y,1/2+z
-y,-x,1/2+z
y,x,z
x-y,-y,z
-x,-x+y,z
loop_
_atom_site_type_symbol
_atom_site_label
_atom_site_fract_x
_atom_site_fract_y
_atom_site_fract_z
Si Si1 0.324896 0.820084 0.667880
Si Si2 0.104966 0.377314 0.250000
Si Si3 0.900035 0.529541 0.831655
Si Si4 0.757836 0.184009 0.903790
Si Si5 0.666668 0.333334 0.300193
Si Si6 0.213715 0.314284 0.464199
Si Si7 0.276456 0.379490 0.250000
Si Si8 0.635021 0.102476 0.981753
O O1 0.426610 0.854206 0.657081
O O2 0.277872 0.810976 0.621788
O O3 0.282859 0.718421 0.684096
O O4 0.315749 0.879060 0.705777
O O5 0.136580 0.444745 0.289938
O O6 0.168543 0.333235 0.250000
O O7 0.000000 0.301429 0.250000
O O8 0.892182 0.587298 0.870408
O O9 0.000000 0.557314 0.822456
O O10 0.837519 0.170771 0.922025
O O11 0.692503 0.173473 0.944052
O O12 0.666667 0.333334 0.250000
O O13 0.136148 0.272295 0.500000
O O14 0.242646 0.242646 0.452157
O O15 0.297623 0.407488 0.480310
O O16 0.302897 0.302897 0.250000
O O17 0.582811 0.000000 0.964327
O O18 0.564599 0.129197 0.000000
#
# Coordination Sequence:
#
# PCOD8330209 Si02
#       8
#    24  12  24  24   8  24  12  24
#     4  12  23  36  53  84 118 166 203 250 290 338
#     4  10  21  43  63  82 111 155 203 245 296 356
#     4  11  23  39  58  80 115 160 207 242 284 347
#     4  11  22  35  55  85 117 147 199 243 298 344
#     4  12  21  36  57  66 118 164 214 237 279 327
#     4   9  20  38  60  83 109 144 186 232 289 358
#     4  12  23  39  59  88 121 155 203 251 304 358
#     4   9  19  37  59  80 109 152 196 241 288 344
#
# _framework density 18.855713000000002
#
# number of rings (size 3 to 8) (size 9 to 14) (size 15 to 20)
#    0.000    1.421    3.947    1.421    2.211    2.526 
#    0.000    0.000    0.000    0.316    0.000    0.000 
#    0.000    1.263    0.000    0.000    0.000    0.000 
#
# Total GULP energy -1883166.938149 kJ/mol
# GULP energy per Si atom -12389.256172 kJ/mol
# Density = 1.881280 g / cm^3
# Si number density = 18.855713 Si / 1000 Ang^3
#
#
#
# Elastic Constant Matrix: (Units=GPa)
#
#
# Indices 1 2 3 4 5 6 
#
# 1 88.2111 36.4523 31.1301 0.0002 0.0000 0.0000
# 2 36.4523 88.2112 31.1302 0.0001 0.0000 0.0000
# 3 31.1301 31.1302 109.4045 0.0001 0.0000 0.0000
# 4 0.0002 0.0001 0.0001 20.7259 0.0001 0.0000
# 5 0.0000 0.0000 0.0000 0.0001 20.7256 0.0000
# 6 0.0000 0.0000 0.0000 0.0000 0.0000 25.8795
#
#
#
# Elastic Compliance Matrix: (Units=1/GPa)
#
#
# Indices 1 2 3 4 5 6 
#
# 1 0.014335 -0.004985 -0.002661 0.000000 0.000000 0.000000
# 2 -0.004985 0.014335 -0.002661 0.000000 0.000000 0.000000
# 3 -0.002661 -0.002661 0.010654 0.000000 0.000000 0.000000
# 4 0.000000 0.000000 0.000000 0.048249 0.000000 0.000000
# 5 0.000000 0.000000 0.000000 0.000000 0.048249 0.000000
# 6 0.000000 0.000000 0.000000 0.000000 0.000000 0.038641
#
#
# Mechanical properties :
#
#
# Convention : Reuss Voigt Hill
#
# Bulk Modulus (GPa) = 53.43899 53.69465 53.56682
# Shear Modulus (GPa) = 24.83682 25.94048 25.38865
#
# Velocity S-wave (km/s) = 3.63327 3.71312 3.67341
# Velocity P-wave (km/s) = 6.78258 6.84992 6.81633
#
# Compressibility (1/GPa) = 0.01871293
#
# Stress axis : x y z
#
# Youngs Moduli (GPa) = 69.75754 69.75754 93.85734
#
# Poissons Ratio (x) = 0.34774 0.24971
# Poissons Ratio (y) = 0.34774 0.24971
# Poissons Ratio (z) = 0.18559 0.18559
#
# Static dielectric constant tensor:
#      x y z
#    x 3.370050 0.000000 0.000000 
#    y 0.000000 3.370050 0.000000 
#    z 0.000000 0.000000 3.578520 
# 
# 
# High freq. dielectric constant tensor:
#      x y z
#    x 1.719020 0.000000 0.000000 
#    y 0.000000 1.719020 0.000000 
#    z 0.000000 0.000000 1.739210 
# 
# From -- ./inp_files/9276.got.cif
#   From: 2010.03.12/outbox.cif.g09.slc.cpg/sg193_5_cif.got.tgz:9276.got - 2010.04.01 12:20:39.
