data_PCOD8330714
_publ_section_title
;
Structure prediction by ZEFSAII (Michael W. Deem and Ramdas Pophale) SiO2 
 PCOD8330714
Probable space group: P 63/M M C
;
_chemical_formula_sum "Si O2"
_cell_formula_units_Z 144
_cell_length_a 31.516829
_cell_length_b 31.516829
_cell_length_c 8.944953
_cell_angle_alpha 90.000000
_cell_angle_beta 90.000000
_cell_angle_gamma 120.000000
_cell_volume 7694.736023
_symmetry_space_group_name_H-M "P 63/M M C"
_symmetry_group_IT_number 194
_symmetry_cell_setting 'hexagonal'
loop_
_space_group_symop_operation_xyz
x,y,z
x-y,x,1/2+z
-y,x-y,z
-x,-y,1/2+z
-x+y,-x,z
y,-x+y,1/2+z
x-y,-y,-z
-x,-x+y,-z
y,x,-z
-y,-x,1/2-z
-x+y,y,1/2-z
x,x-y,1/2-z
-x,-y,-z
-x+y,-x,1/2-z
y,-x+y,-z
x,y,1/2-z
x-y,x,-z
-y,x-y,1/2-z
-x+y,y,z
x,x-y,z
-y,-x,z
y,x,1/2+z
x-y,-y,1/2+z
-x,-x+y,1/2+z
loop_
_atom_site_type_symbol
_atom_site_label
_atom_site_fract_x
_atom_site_fract_y
_atom_site_fract_z
Si Si1 0.854144 0.050306 0.572866
Si Si2 0.430897 0.666802 0.922353
Si Si3 0.850949 0.249764 0.417298
Si Si4 0.483576 0.339140 0.573684
Si Si5 0.304487 0.101888 0.584285
Si Si6 0.574560 0.524155 0.075461
O O1 0.853812 0.046104 0.750000
O O2 0.907195 0.092806 0.516898
O O3 0.811960 0.062642 0.522373
O O4 0.844230 0.000000 0.500000
O O5 0.447072 0.669833 0.750000
O O6 0.436578 0.718289 0.974452
O O7 0.374675 0.625326 0.944299
O O8 0.464423 0.653224 0.021794
O O9 0.864066 0.271805 0.250000
O O10 0.800648 0.199353 0.417193
O O11 0.844074 0.285431 0.528083
O O12 0.894928 0.241400 0.474665
O O13 0.484699 0.345923 0.750000
O O14 0.471949 0.377691 0.496860
O O15 0.312873 0.086856 0.750000
O O16 0.307446 0.153723 0.595145
O O17 0.583356 0.535800 0.250000
O O18 0.529936 0.470064 0.044338
O O19 0.564410 0.564410 0.000000
#
# Coordination Sequence:
#
# PCOD8330714 Si02
#       6
#    24  24  24  24  24  24
#     4   9  18  32  51  77 108 141 178 221 268 317
#     4  10  21  38  59  82 110 146 189 237 288 339
#     4  10  20  34  53  77 105 138 178 223 269 318
#     4  12  24  36  54  81 112 146 183 222 267 323
#     4   8  15  30  50  71  98 131 166 206 254 309
#     4  10  21  39  62  84 106 133 167 211 263 317
#
# _framework density 18.714092999999998
#
# number of rings (size 3 to 8) (size 9 to 14) (size 15 to 20)
#    0.000    2.167    0.000    4.667    0.000    8.333 
#    0.000    2.500    0.000    3.167    0.000    0.000 
#    0.000    0.000    0.000    0.000    0.000    0.000 
#
# Total GULP energy -1785715.836819 kJ/mol
# GULP energy per Si atom -12400.804422 kJ/mol
# Density = 1.867150 g / cm^3
# Si number density = 18.714093 Si / 1000 Ang^3
#
#
#
# Elastic Constant Matrix: (Units=GPa)
#
#
# Indices 1 2 3 4 5 6 
#
# 1 84.7790 34.3532 37.3627 0.0000 0.0000 0.0000
# 2 34.3532 84.7790 37.3627 0.0000 0.0000 0.0000
# 3 37.3627 37.3627 87.4081 0.0000 0.0000 0.0000
# 4 0.0000 0.0000 0.0000 30.0104 0.0000 0.0000
# 5 0.0000 0.0000 0.0000 0.0000 30.0104 0.0000
# 6 0.0000 0.0000 0.0000 0.0000 0.0000 25.2129
#
#
#
# Elastic Compliance Matrix: (Units=1/GPa)
#
#
# Indices 1 2 3 4 5 6 
#
# 1 0.015650 -0.004181 -0.004902 0.000000 0.000000 0.000000
# 2 -0.004181 0.015650 -0.004902 0.000000 0.000000 0.000000
# 3 -0.004902 -0.004902 0.015632 0.000000 0.000000 0.000000
# 4 0.000000 0.000000 0.000000 0.033322 0.000000 0.000000
# 5 0.000000 0.000000 0.000000 0.000000 0.033322 0.000000
# 6 0.000000 0.000000 0.000000 0.000000 0.000000 0.039662
#
#
# Mechanical properties :
#
#
# Convention : Reuss Voigt Hill
#
# Bulk Modulus (GPa) = 52.74258 52.79147 52.76702
# Shear Modulus (GPa) = 26.66244 26.90590 26.78417
#
# Velocity S-wave (km/s) = 3.77865 3.79586 3.78726
# Velocity P-wave (km/s) = 6.87620 6.89073 6.88347
#
# Compressibility (1/GPa) = 0.01896001
#
# Stress axis : x y z
#
# Youngs Moduli (GPa) = 63.89736 63.89736 63.97243
#
# Poissons Ratio (x) = 0.26715 0.31362
# Poissons Ratio (y) = 0.26715 0.31362
# Poissons Ratio (z) = 0.31326 0.31326
#
# Static dielectric constant tensor:
#      x y z
#    x 3.451350 0.000000 0.000000 
#    y 0.000000 3.451350 0.000000 
#    z 0.000000 0.000000 3.577050 
# 
# 
# High freq. dielectric constant tensor:
#      x y z
#    x 1.719010 0.000000 0.000000 
#    y 0.000000 1.719010 0.000000 
#    z 0.000000 0.000000 1.727920 
# 
# From -- ./inp_files/2095.got.cif
#   From: 2010.03.12/outbox.cif.g09.slc.cpg/sg194_2_cif.got.tgz:2095.got - 2010.04.01 12:26:19.
