data_PCOD8330580
_publ_section_title
;
Structure prediction by ZEFSAII (Michael W. Deem and Ramdas Pophale) SiO2 
 PCOD8330580
Probable space group: P 63/M M C
;
_chemical_formula_sum "Si O2"
_cell_formula_units_Z 156
_cell_length_a 21.739513
_cell_length_b 21.739513
_cell_length_c 20.160422
_cell_angle_alpha 90.000000
_cell_angle_beta 90.000000
_cell_angle_gamma 120.000000
_cell_volume 8251.442396
_symmetry_space_group_name_H-M "P 63/M M C"
_symmetry_group_IT_number 194
_symmetry_cell_setting 'hexagonal'
loop_
_space_group_symop_operation_xyz
x,y,z
x-y,x,1/2+z
-y,x-y,z
-x,-y,1/2+z
-x+y,-x,z
y,-x+y,1/2+z
x-y,-y,-z
-x,-x+y,-z
y,x,-z
-y,-x,1/2-z
-x+y,y,1/2-z
x,x-y,1/2-z
-x,-y,-z
-x+y,-x,1/2-z
y,-x+y,-z
x,y,1/2-z
x-y,x,-z
-y,x-y,1/2-z
-x+y,y,z
x,x-y,z
-y,-x,z
y,x,1/2+z
x-y,-y,1/2+z
-x,-x+y,1/2+z
loop_
_atom_site_type_symbol
_atom_site_label
_atom_site_fract_x
_atom_site_fract_y
_atom_site_fract_z
Si Si1 0.858667 0.999310 0.250000
Si Si2 0.808689 0.331454 0.888345
Si Si3 0.063619 0.663349 0.326486
Si Si4 0.551419 0.964238 0.571653
Si Si5 0.576783 0.719785 0.986629
Si Si6 0.000521 0.144603 0.394230
Si Si7 0.702884 0.922511 0.418585
O O1 0.877600 0.938800 0.250000
O O2 0.822746 0.997778 0.179635
O O3 0.932789 0.067212 0.250000
O O4 0.818439 0.409220 0.885489
O O5 0.726656 0.273345 0.876226
O O6 0.855659 0.321284 0.832103
O O7 0.835476 0.320127 0.959039
O O8 0.040119 0.652913 0.250000
O O9 0.054055 0.726712 0.356470
O O10 0.015578 0.591760 0.367612
O O11 0.468842 0.937684 0.579893
O O12 0.562484 0.896082 0.574097
O O13 0.579615 0.000000 0.500000
O O14 0.575214 0.787607 0.957341
O O15 0.654219 0.743587 0.017336
O O16 0.923668 0.076333 0.413077
O O17 0.060942 0.121884 0.402790
O O18 0.019578 0.214773 0.437368
O O19 0.698243 0.849122 0.396991
#
# Coordination Sequence:
#
# PCOD8330580 Si02
#       7
#    12  24  24  24  24  24  24
#     4   8  13  20  32  52  80 118 163 212 262 314
#     4  10  19  32  51  79 114 149 181 213 257 316
#     4  11  23  36  53  79 112 145 182 226 268 316
#     4  11  20  35  61  84 106 143 186 223 263 314
#     4   9  18  34  56  81 108 138 180 230 271 315
#     4   9  16  26  41  64  95 133 177 227 280 332
#     4   9  18  31  49  73 103 142 183 221 270 328
#
# _framework density 18.905785000000002
#
# number of rings (size 3 to 8) (size 9 to 14) (size 15 to 20)
#    0.000    2.308    3.077    2.692    1.077    3.692 
#    0.000    0.769    0.000    4.462    0.000    0.000 
#    0.000    0.000    0.000   25.231    0.000    4.154 
#
# Total GULP energy -1932929.630042 kJ/mol
# GULP energy per Si atom -12390.574552 kJ/mol
# Density = 1.886275 g / cm^3
# Si number density = 18.905785 Si / 1000 Ang^3
#
#
#
# Elastic Constant Matrix: (Units=GPa)
#
#
# Indices 1 2 3 4 5 6 
#
# 1 118.3798 56.4850 20.1683 0.0000 0.0000 0.0000
# 2 56.4850 118.3798 20.1683 0.0000 0.0000 0.0000
# 3 20.1683 20.1683 46.7021 0.0000 0.0000 0.0000
# 4 0.0000 0.0000 0.0000 12.9970 0.0000 0.0000
# 5 0.0000 0.0000 0.0000 0.0000 12.9970 0.0000
# 6 0.0000 0.0000 0.0000 0.0000 0.0000 30.9474
#
#
#
# Elastic Compliance Matrix: (Units=1/GPa)
#
#
# Indices 1 2 3 4 5 6 
#
# 1 0.011254 -0.004903 -0.002743 0.000000 0.000000 0.000000
# 2 -0.004903 0.011254 -0.002743 0.000000 0.000000 0.000000
# 3 -0.002743 -0.002743 0.023781 0.000000 0.000000 0.000000
# 4 0.000000 0.000000 0.000000 0.076941 0.000000 0.000000
# 5 0.000000 0.000000 0.000000 0.000000 0.076941 0.000000
# 6 0.000000 0.000000 0.000000 0.000000 0.000000 0.032313
#
#
# Mechanical properties :
#
#
# Convention : Reuss Voigt Hill
#
# Bulk Modulus (GPa) = 39.19612 53.01164 46.10388
# Shear Modulus (GPa) = 19.10111 23.83094 21.46602
#
# Velocity S-wave (km/s) = 3.18202 3.55422 3.37326
# Velocity P-wave (km/s) = 5.85471 6.70403 6.29372
#
# Compressibility (1/GPa) = 0.02551273
#
# Stress axis : x y z
#
# Youngs Moduli (GPa) = 88.85790 88.85790 42.04982
#
# Poissons Ratio (x) = 0.43563 0.11534
# Poissons Ratio (y) = 0.43563 0.11534
# Poissons Ratio (z) = 0.24372 0.24372
#
# Static dielectric constant tensor:
#      x y z
#    x 3.557970 0.000000 0.000000 
#    y 0.000000 3.557970 0.000000 
#    z 0.000000 0.000000 3.229170 
# 
# 
# High freq. dielectric constant tensor:
#      x y z
#    x 1.735350 0.000000 0.000000 
#    y 0.000000 1.735350 0.000000 
#    z 0.000000 0.000000 1.695470 
# 
# From -- ./inp_files/8404.got.cif
#   From: 2010.03.12/outbox.cif.g09.slc.cpg/sg194_5_cif.got.tgz:8404.got - 2010.04.01 12:26:19.
