data_PCOD8330555
_publ_section_title
;
Structure prediction by ZEFSAII (Michael W. Deem and Ramdas Pophale) SiO2 
 PCOD8330555
Probable space group: P 63/M M C
;
_chemical_formula_sum "Si O2"
_cell_formula_units_Z 108
_cell_length_a 21.628278
_cell_length_b 21.628278
_cell_length_c 14.972957
_cell_angle_alpha 90.000000
_cell_angle_beta 90.000000
_cell_angle_gamma 120.000000
_cell_volume 6065.716319
_symmetry_space_group_name_H-M "P 63/M M C"
_symmetry_group_IT_number 194
_symmetry_cell_setting 'hexagonal'
loop_
_space_group_symop_operation_xyz
x,y,z
x-y,x,1/2+z
-y,x-y,z
-x,-y,1/2+z
-x+y,-x,z
y,-x+y,1/2+z
x-y,-y,-z
-x,-x+y,-z
y,x,-z
-y,-x,1/2-z
-x+y,y,1/2-z
x,x-y,1/2-z
-x,-y,-z
-x+y,-x,1/2-z
y,-x+y,-z
x,y,1/2-z
x-y,x,-z
-y,x-y,1/2-z
-x+y,y,z
x,x-y,z
-y,-x,z
y,x,1/2+z
x-y,-y,1/2+z
-x,-x+y,1/2+z
loop_
_atom_site_type_symbol
_atom_site_label
_atom_site_fract_x
_atom_site_fract_y
_atom_site_fract_z
Si Si1 0.807665 0.757924 0.584181
Si Si2 0.333418 0.523493 0.647614
Si Si3 0.386875 0.468260 0.495148
Si Si4 0.999614 0.144840 0.750000
Si Si5 0.870990 0.272264 0.851158
O O1 0.773252 0.773252 0.500000
O O2 0.884880 0.769759 0.558225
O O3 0.813947 0.810378 0.663203
O O4 0.755195 0.678159 0.615256
O O5 0.332235 0.499862 0.750000
O O6 0.258336 0.516671 0.620616
O O7 0.394592 0.605409 0.633411
O O8 0.347999 0.470867 0.586246
O O9 0.403825 0.403825 0.500000
O O10 0.458064 0.541937 0.477835
O O11 0.336836 0.457224 0.411353
O O12 0.072579 0.145157 0.750000
O O13 0.936025 0.063976 0.750000
O O14 0.891426 0.299687 0.750000
O O15 0.789476 0.210525 0.857408
#
# Coordination Sequence:
#
# PCOD8330555 Si02
#       5
#    24  24  24  12  24
#     4  10  19  33  52  75 102 136 176 218 262 309
#     4   9  17  31  53  80 109 140 174 213 260 313
#     4  10  21  35  52  78 108 138 171 209 258 313
#     4  10  19  32  50  76 107 138 172 212 262 314
#     4  10  20  36  56  75  97 132 177 218 257 304
#
# _framework density 17.804987000000001
#
# number of rings (size 3 to 8) (size 9 to 14) (size 15 to 20)
#    0.000    2.222    1.111    2.333    0.000    2.222 
#    0.000    2.222    0.000    4.000    0.000    0.000 
#    0.000    0.000    0.000    0.000    0.000    0.000 
#
# Total GULP energy -1339441.898944 kJ/mol
# GULP energy per Si atom -12402.239805 kJ/mol
# Density = 1.776446 g / cm^3
# Si number density = 17.804987 Si / 1000 Ang^3
#
#
#
# Elastic Constant Matrix: (Units=GPa)
#
#
# Indices 1 2 3 4 5 6 
#
# 1 72.0031 36.5929 61.9541 0.0000 0.0000 0.0000
# 2 36.5929 72.0031 61.9541 0.0000 0.0000 0.0000
# 3 61.9541 61.9541 145.5848 0.0000 0.0000 0.0000
# 4 0.0000 0.0000 0.0000 27.8806 0.0000 0.0000
# 5 0.0000 0.0000 0.0000 0.0000 27.8806 0.0000
# 6 0.0000 0.0000 0.0000 0.0000 0.0000 17.7051
#
#
#
# Elastic Compliance Matrix: (Units=1/GPa)
#
#
# Indices 1 2 3 4 5 6 
#
# 1 0.023070 -0.005170 -0.007617 0.000000 0.000000 0.000000
# 2 -0.005170 0.023070 -0.007617 0.000000 0.000000 0.000000
# 3 -0.007617 -0.007617 0.013352 0.000000 0.000000 0.000000
# 4 0.000000 0.000000 0.000000 0.035867 0.000000 0.000000
# 5 0.000000 0.000000 0.000000 0.000000 0.035867 0.000000
# 6 0.000000 0.000000 0.000000 0.000000 0.000000 0.056481
#
#
# Mechanical properties :
#
#
# Convention : Reuss Voigt Hill
#
# Bulk Modulus (GPa) = 53.52648 67.84368 60.68508
# Shear Modulus (GPa) = 21.29972 23.29928 22.29950
#
# Velocity S-wave (km/s) = 3.46248 3.62136 3.54281
# Velocity P-wave (km/s) = 6.79065 7.46137 7.13390
#
# Compressibility (1/GPa) = 0.01868234
#
# Stress axis : x y z
#
# Youngs Moduli (GPa) = 43.34611 43.34611 74.89515
#
# Poissons Ratio (x) = 0.22411 0.57050
# Poissons Ratio (y) = 0.22411 0.57050
# Poissons Ratio (z) = 0.33018 0.33018
#
# Static dielectric constant tensor:
#      x y z
#    x 3.271080 0.000000 0.000000 
#    y 0.000000 3.271080 0.000000 
#    z 0.000000 0.000000 3.423170 
# 
# 
# High freq. dielectric constant tensor:
#      x y z
#    x 1.686860 0.000000 0.000000 
#    y 0.000000 1.686860 0.000000 
#    z 0.000000 0.000000 1.698240 
# 
# From -- ./inp_files/3227.got.cif
#   From: 2010.03.12/outbox.cif.g09.slc.cpg/sg194_2_cif.got.tgz:3227.got - 2010.04.01 12:26:19.
