data_PCOD8330259
_publ_section_title
;
Structure prediction by ZEFSAII (Michael W. Deem and Ramdas Pophale) SiO2 
 PCOD8330259
Probable space group: P 63/M C M
;
_chemical_formula_sum "Si O2"
_cell_formula_units_Z 68
_cell_length_a 16.024262
_cell_length_b 16.024262
_cell_length_c 13.965526
_cell_angle_alpha 90.000000
_cell_angle_beta 90.000000
_cell_angle_gamma 120.000000
_cell_volume 3105.589171
_symmetry_space_group_name_H-M "P 63/M C M"
_symmetry_group_IT_number 193
_symmetry_cell_setting 'hexagonal'
loop_
_space_group_symop_operation_xyz
x,y,z
x-y,x,1/2+z
-y,x-y,z
-x,-y,1/2+z
-x+y,-x,z
y,-x+y,1/2+z
x-y,-y,1/2-z
-x,-x+y,1/2-z
y,x,1/2-z
-y,-x,-z
-x+y,y,-z
x,x-y,-z
-x,-y,-z
-x+y,-x,1/2-z
y,-x+y,-z
x,y,1/2-z
x-y,x,-z
-y,x-y,1/2-z
-x+y,y,1/2+z
x,x-y,1/2+z
-y,-x,1/2+z
y,x,z
x-y,-y,z
-x,-x+y,z
loop_
_atom_site_type_symbol
_atom_site_label
_atom_site_fract_x
_atom_site_fract_y
_atom_site_fract_z
Si Si1 0.827739 0.172262 0.000000
Si Si2 0.842025 0.523903 0.851530
Si Si3 0.666668 0.333334 0.888076
Si Si4 0.000000 0.721542 0.136859
Si Si5 0.000000 0.523512 0.391514
O O1 0.865505 0.272393 0.057270
O O2 0.807115 0.091784 0.080615
O O3 0.859820 0.580773 0.750000
O O4 0.730702 0.441952 0.851968
O O5 0.904722 0.471186 0.849096
O O6 0.666668 0.333334 0.000000
O O7 0.000000 0.621351 0.131630
O O8 0.000000 0.747945 0.250000
O O9 0.000000 0.500000 0.500000
#
# Coordination Sequence:
#
# PCOD8330259 Si02
#       5
#    12  24   8  12  12
#     4  12  24  44  66  95 134 165 220 268 328 400
#     4  12  23  37  59  86 122 172 221 271 322 378
#     4  12  22  38  52  79 122 166 223 278 319 370
#     4  12  26  45  70 100 136 178 218 276 337 391
#     4  12  22  43  61  90 133 173 222 269 319 380
#
# _framework density 21.896007000000001
#
# number of rings (size 3 to 8) (size 9 to 14) (size 15 to 20)
#    0.000    0.000    5.294    6.882    0.000    0.000 
#    0.000    2.647    0.000    0.353    0.000    0.000 
#    0.000    0.000    0.000    0.000    0.000    0.000 
#
# Total GULP energy -842666.359873 kJ/mol
# GULP energy per Si atom -12392.152351 kJ/mol
# Density = 2.184617 g / cm^3
# Si number density = 21.896007 Si / 1000 Ang^3
#
#
#
# Elastic Constant Matrix: (Units=GPa)
#
#
# Indices 1 2 3 4 5 6 
#
# 1 87.7336 19.0852 33.7478 0.0020 -0.0022 -0.0018
# 2 19.0852 87.7308 33.7490 -0.0024 0.0028 0.0000
# 3 33.7478 33.7490 202.8130 -0.0007 0.0014 -0.0001
# 4 0.0020 -0.0024 -0.0007 98.0524 -0.0058 -0.0025
# 5 -0.0022 0.0028 0.0014 -0.0058 98.0604 -0.0022
# 6 -0.0018 0.0000 -0.0001 -0.0025 -0.0022 34.3303
#
#
#
# Elastic Compliance Matrix: (Units=1/GPa)
#
#
# Indices 1 2 3 4 5 6 
#
# 1 0.012514 -0.002053 -0.001741 0.000000 0.000000 0.000001
# 2 -0.002053 0.012515 -0.001741 0.000000 0.000000 0.000000
# 3 -0.001741 -0.001741 0.005510 0.000000 0.000000 0.000000
# 4 0.000000 0.000000 0.000000 0.010199 0.000001 0.000001
# 5 0.000000 0.000000 0.000000 0.000001 0.010198 0.000001
# 6 0.000001 0.000000 0.000000 0.000001 0.000001 0.029129
#
#
# Mechanical properties :
#
#
# Convention : Reuss Voigt Hill
#
# Bulk Modulus (GPa) = 51.36061 61.27127 56.31594
# Shear Modulus (GPa) = 51.21732 65.53499 58.37615
#
# Velocity S-wave (km/s) = 4.84169 5.47678 5.16900
# Velocity P-wave (km/s) = 7.40023 8.24846 7.83583
#
# Compressibility (1/GPa) = 0.01947017
#
# Stress axis : x y z
#
# Youngs Moduli (GPa) = 79.90866 79.90551 181.48782
#
# Poissons Ratio (x) = 0.16403 0.31593
# Poissons Ratio (y) = 0.16403 0.31596
# Poissons Ratio (z) = 0.13910 0.13911
#
# Static dielectric constant tensor:
#      x y z
#    x 3.633640 -0.000010 0.000000 
#    y -0.000010 3.633640 0.000020 
#    z 0.000000 0.000020 4.509740 
# 
# 
# High freq. dielectric constant tensor:
#      x y z
#    x 1.826500 0.000000 0.000000 
#    y 0.000000 1.826500 0.000000 
#    z 0.000000 0.000000 1.903340 
# 
# From -- ./inp_files/3198.got.cif
#   From: 2010.03.12/outbox.cif.g09.slc.cpg/sg193_2_cif.got.tgz:3198.got - 2010.04.01 12:20:39.
