data_PCOD8330500
_publ_section_title
;
Structure prediction by ZEFSAII (Michael W. Deem and Ramdas Pophale) SiO2 
 PCOD8330500
Probable space group: P 63/M M C
;
_chemical_formula_sum "Si O2"
_cell_formula_units_Z 144
_cell_length_a 32.657778
_cell_length_b 32.657778
_cell_length_c 9.147619
_cell_angle_alpha 90.000000
_cell_angle_beta 90.000000
_cell_angle_gamma 120.000000
_cell_volume 8449.129459
_symmetry_space_group_name_H-M "P 63/M M C"
_symmetry_group_IT_number 194
_symmetry_cell_setting 'hexagonal'
loop_
_space_group_symop_operation_xyz
x,y,z
x-y,x,1/2+z
-y,x-y,z
-x,-y,1/2+z
-x+y,-x,z
y,-x+y,1/2+z
x-y,-y,-z
-x,-x+y,-z
y,x,-z
-y,-x,1/2-z
-x+y,y,1/2-z
x,x-y,1/2-z
-x,-y,-z
-x+y,-x,1/2-z
y,-x+y,-z
x,y,1/2-z
x-y,x,-z
-y,x-y,1/2-z
-x+y,y,z
x,x-y,z
-y,-x,z
y,x,1/2+z
x-y,-y,1/2+z
-x,-x+y,1/2+z
loop_
_atom_site_type_symbol
_atom_site_label
_atom_site_fract_x
_atom_site_fract_y
_atom_site_fract_z
Si Si1 0.476785 0.615313 0.422026
Si Si2 0.865457 0.635335 0.918938
Si Si3 0.809032 0.528971 0.923035
Si Si4 0.765480 0.717628 0.077879
Si Si5 0.047315 0.187769 0.578677
Si Si6 0.570486 0.526335 0.087309
O O1 0.484138 0.612910 0.250000
O O2 0.422862 0.577139 0.467118
O O3 0.489120 0.667519 0.473474
O O4 0.514471 0.605676 0.501665
O O5 0.881482 0.643084 0.750000
O O6 0.823142 0.646283 0.942330
O O7 0.848508 0.581754 0.971131
O O8 0.909089 0.669084 0.020091
O O9 0.805629 0.529358 0.750000
O O10 0.757852 0.515704 0.990092
O O11 0.756202 0.713681 0.250000
O O12 0.817759 0.759918 0.037832
O O13 0.726559 0.726559 0.000000
O O14 0.039552 0.178707 0.750000
O O15 0.091410 0.182820 0.523092
O O16 0.000000 0.148206 0.500000
O O17 0.590269 0.544414 0.250000
O O18 0.519104 0.480897 0.097083
O O19 0.567680 0.567680 0.000000
#
# Coordination Sequence:
#
# PCOD8330500 Si02
#       6
#    24  24  24  24  24  24
#     4   9  16  27  46  70  92 117 152 190 227 269
#     4   9  17  30  48  67  87 116 154 190 224 267
#     4   8  15  29  48  68  91 120 153 189 228 270
#     4  10  19  31  47  68  95 123 151 186 228 273
#     4   9  18  31  46  66  91 117 146 182 225 270
#     4   9  16  26  41  62  89 118 146 178 216 258
#
# _framework density 17.043175999999999
#
# number of rings (size 3 to 8) (size 9 to 14) (size 15 to 20)
#    0.000    3.000    0.000    2.500    0.000    4.000 
#    0.000    1.667    0.000    2.000    0.000    2.333 
#    0.000    0.000    0.000    0.000    0.000    0.167 
#
# Total GULP energy -1785073.998179 kJ/mol
# GULP energy per Si atom -12396.347210 kJ/mol
# Density = 1.700438 g / cm^3
# Si number density = 17.043176 Si / 1000 Ang^3
#
#
#
# Elastic Constant Matrix: (Units=GPa)
#
#
# Indices 1 2 3 4 5 6 
#
# 1 114.4611 71.2123 38.4856 0.0000 0.0000 0.0000
# 2 71.2123 114.4611 38.4856 0.0000 0.0000 0.0000
# 3 38.4856 38.4856 55.8754 0.0000 0.0000 0.0000
# 4 0.0000 0.0000 0.0000 16.8339 0.0000 0.0000
# 5 0.0000 0.0000 0.0000 0.0000 16.8339 0.0000
# 6 0.0000 0.0000 0.0000 0.0000 0.0000 21.6244
#
#
#
# Elastic Compliance Matrix: (Units=1/GPa)
#
#
# Indices 1 2 3 4 5 6 
#
# 1 0.015330 -0.007792 -0.005192 0.000000 0.000000 0.000000
# 2 -0.007792 0.015330 -0.005192 0.000000 0.000000 0.000000
# 3 -0.005192 -0.005192 0.025049 0.000000 0.000000 0.000000
# 4 0.000000 0.000000 0.000000 0.059404 0.000000 0.000000
# 5 0.000000 0.000000 0.000000 0.000000 0.059404 0.000000
# 6 0.000000 0.000000 0.000000 0.000000 0.000000 0.046244
#
#
# Mechanical properties :
#
#
# Convention : Reuss Voigt Hill
#
# Bulk Modulus (GPa) = 51.66019 64.57388 58.11704
# Shear Modulus (GPa) = 18.97056 20.16605 19.56831
#
# Velocity S-wave (km/s) = 3.33992 3.44355 3.39213
# Velocity P-wave (km/s) = 6.72685 7.33358 7.03676
#
# Compressibility (1/GPa) = 0.01935726
#
# Stress axis : x y z
#
# Youngs Moduli (GPa) = 65.23112 65.23112 39.92113
#
# Poissons Ratio (x) = 0.50827 0.20728
# Poissons Ratio (y) = 0.50827 0.20728
# Poissons Ratio (z) = 0.33869 0.33869
#
# Static dielectric constant tensor:
#      x y z
#    x 3.264070 0.000000 0.000000 
#    y 0.000000 3.264070 0.000000 
#    z 0.000000 0.000000 3.079540 
# 
# 
# High freq. dielectric constant tensor:
#      x y z
#    x 1.644170 0.000000 0.000000 
#    y 0.000000 1.644170 0.000000 
#    z 0.000000 0.000000 1.644880 
# 
# From -- ./inp_files/2165.got.cif
#   From: 2010.03.12/outbox.cif.g09.slc.cpg/sg194_2_cif.got.tgz:2165.got - 2010.04.01 12:26:19.
