data_PCOD8330486
_publ_section_title
;
Structure prediction by ZEFSAII (Michael W. Deem and Ramdas Pophale) SiO2 
 PCOD8330486
Probable space group: P 63/M M C
;
_chemical_formula_sum "Si O2"
_cell_formula_units_Z 168
_cell_length_a 17.598526
_cell_length_b 17.598526
_cell_length_c 30.713859
_cell_angle_alpha 90.000000
_cell_angle_beta 90.000000
_cell_angle_gamma 120.000000
_cell_volume 8237.920683
_symmetry_space_group_name_H-M "P 63/M M C"
_symmetry_group_IT_number 194
_symmetry_cell_setting 'hexagonal'
loop_
_space_group_symop_operation_xyz
x,y,z
x-y,x,1/2+z
-y,x-y,z
-x,-y,1/2+z
-x+y,-x,z
y,-x+y,1/2+z
x-y,-y,-z
-x,-x+y,-z
y,x,-z
-y,-x,1/2-z
-x+y,y,1/2-z
x,x-y,1/2-z
-x,-y,-z
-x+y,-x,1/2-z
y,-x+y,-z
x,y,1/2-z
x-y,x,-z
-y,x-y,1/2-z
-x+y,y,z
x,x-y,z
-y,-x,z
y,x,1/2+z
x-y,-y,1/2+z
-x,-x+y,1/2+z
loop_
_atom_site_type_symbol
_atom_site_label
_atom_site_fract_x
_atom_site_fract_y
_atom_site_fract_z
Si Si1 0.644637 0.737984 0.823176
Si Si2 0.948455 0.387492 0.702590
Si Si3 0.508089 0.664758 0.116845
Si Si4 0.502673 0.835589 0.897776
Si Si5 0.168067 0.000777 0.361745
Si Si6 0.967936 0.771296 0.954700
Si Si7 0.388199 0.385807 0.950940
O O1 0.650324 0.825162 0.800580
O O2 0.620921 0.656511 0.791752
O O3 0.569263 0.703186 0.858404
O O4 0.737147 0.761224 0.844597
O O5 0.900021 0.357942 0.750000
O O6 0.977942 0.488971 0.693278
O O7 0.887478 0.329882 0.662463
O O8 0.521455 0.760728 0.106936
O O9 0.404846 0.595155 0.122000
O O10 0.544801 0.632067 0.077129
O O11 0.406674 0.813347 0.881335
O O12 0.496062 0.748031 0.918888
O O13 0.535972 0.913506 0.932044
O O14 0.095794 0.904206 0.344860
O O15 0.169677 0.006525 0.414136
O O16 0.142003 0.071002 0.344325
O O17 0.861397 0.722793 0.953229
O O18 0.003081 0.704492 0.951153
O O19 0.000000 0.824413 0.000000
O O20 0.419232 0.419232 0.000000
#
# Coordination Sequence:
#
# PCOD8330486 Si02
#       7
#    24  24  24  24  24  24  24
#     4  10  20  35  58  86 118 154 193 239 290 353
#     4  10  21  39  64  92 123 159 198 247 310 376
#     4  11  23  41  63  89 122 161 206 256 312 373
#     4  11  22  38  59  84 115 150 192 243 299 360
#     4  10  19  32  50  76 109 149 193 240 290 341
#     4  10  19  30  48  74 107 147 193 242 292 345
#     4  11  23  38  60  85 116 157 203 249 303 364
#
# _framework density 20.393495999999999
#
# number of rings (size 3 to 8) (size 9 to 14) (size 15 to 20)
#    0.000    1.571    2.857    2.143    0.000    6.286 
#    0.000    0.000    0.000    5.143    0.000    0.000 
#    0.000    1.143    0.000    0.000    0.000    0.000 
#
# Total GULP energy -2081603.832107 kJ/mol
# GULP energy per Si atom -12390.499001 kJ/mol
# Density = 2.034708 g / cm^3
# Si number density = 20.393496 Si / 1000 Ang^3
#
#
#
# Elastic Constant Matrix: (Units=GPa)
#
#
# Indices 1 2 3 4 5 6 
#
# 1 113.9088 58.1030 28.7733 0.0000 0.0000 0.0000
# 2 58.1030 113.9088 28.7733 0.0000 0.0000 0.0000
# 3 28.7733 28.7733 95.6706 0.0000 0.0000 0.0000
# 4 0.0000 0.0000 0.0000 19.7630 0.0000 0.0000
# 5 0.0000 0.0000 0.0000 0.0000 19.7630 0.0000
# 6 0.0000 0.0000 0.0000 0.0000 0.0000 27.9029
#
#
#
# Elastic Compliance Matrix: (Units=1/GPa)
#
#
# Indices 1 2 3 4 5 6 
#
# 1 0.012192 -0.005728 -0.001944 0.000000 0.000000 0.000000
# 2 -0.005728 0.012192 -0.001944 0.000000 0.000000 0.000000
# 3 -0.001944 -0.001944 0.011622 0.000000 0.000000 0.000000
# 4 0.000000 0.000000 0.000000 0.050600 0.000000 0.000000
# 5 0.000000 0.000000 0.000000 0.000000 0.050600 0.000000
# 6 0.000000 0.000000 0.000000 0.000000 0.000000 0.035839
#
#
# Mechanical properties :
#
#
# Convention : Reuss Voigt Hill
#
# Bulk Modulus (GPa) = 59.61765 61.64304 60.63034
# Shear Modulus (GPa) = 25.26970 27.34170 26.30570
#
# Velocity S-wave (km/s) = 3.52391 3.66554 3.59542
# Velocity P-wave (km/s) = 6.77159 6.94315 6.85791
#
# Compressibility (1/GPa) = 0.01677356
#
# Stress axis : x y z
#
# Youngs Moduli (GPa) = 82.02363 82.02363 86.04447
#
# Poissons Ratio (x) = 0.46980 0.16728
# Poissons Ratio (y) = 0.46980 0.16728
# Poissons Ratio (z) = 0.15946 0.15946
#
# Static dielectric constant tensor:
#      x y z
#    x 3.814340 0.000000 0.000000 
#    y 0.000000 3.814340 0.000000 
#    z 0.000000 0.000000 3.640040 
# 
# 
# High freq. dielectric constant tensor:
#      x y z
#    x 1.799990 0.000000 0.000000 
#    y 0.000000 1.799990 0.000000 
#    z 0.000000 0.000000 1.777280 
# 
# From -- ./inp_files/12266.got.cif
#   From: 2010.03.12/outbox.cif.g09.slc.cpg/sg194_7_cif.got.tgz:12266.got - 2010.04.01 12:26:19.
