data_PCOD8330048
_publ_section_title
;
Structure prediction by ZEFSAII (Michael W. Deem and Ramdas Pophale) SiO2 
 PCOD8330048
Probable space group: P 63/M C M
;
_chemical_formula_sum "Si O2"
_cell_formula_units_Z 144
_cell_length_a 30.150056
_cell_length_b 30.150056
_cell_length_c 8.978752
_cell_angle_alpha 90.000000
_cell_angle_beta 90.000000
_cell_angle_gamma 120.000000
_cell_volume 7068.428253
_symmetry_space_group_name_H-M "P 63/M C M"
_symmetry_group_IT_number 193
_symmetry_cell_setting 'hexagonal'
loop_
_space_group_symop_operation_xyz
x,y,z
x-y,x,1/2+z
-y,x-y,z
-x,-y,1/2+z
-x+y,-x,z
y,-x+y,1/2+z
x-y,-y,1/2-z
-x,-x+y,1/2-z
y,x,1/2-z
-y,-x,-z
-x+y,y,-z
x,x-y,-z
-x,-y,-z
-x+y,-x,1/2-z
y,-x+y,-z
x,y,1/2-z
x-y,x,-z
-y,x-y,1/2-z
-x+y,y,1/2+z
x,x-y,1/2+z
-y,-x,1/2+z
y,x,z
x-y,-y,z
-x,-x+y,z
loop_
_atom_site_type_symbol
_atom_site_label
_atom_site_fract_x
_atom_site_fract_y
_atom_site_fract_z
Si Si1 0.940615 0.697521 0.414470
Si Si2 0.914988 0.328231 0.925582
Si Si3 0.664109 0.248947 0.914442
Si Si4 0.429489 0.942192 0.412932
Si Si5 0.213586 0.060167 0.426112
Si Si6 0.188525 0.464401 0.418018
O O1 0.914330 0.687582 0.250000
O O2 0.931233 0.643870 0.485263
O O3 0.921257 0.728209 0.518494
O O4 0.000000 0.733939 0.394132
O O5 0.924553 0.335824 0.750000
O O6 0.944529 0.383800 0.000855
O O7 0.857095 0.306274 0.969604
O O8 0.654096 0.261739 0.750000
O O9 0.690676 0.215267 0.910170
O O10 0.698412 0.301588 0.000000
O O11 0.609589 0.219178 0.000000
O O12 0.457669 0.915337 0.500000
O O13 0.409940 0.914975 0.250000
O O14 0.473036 0.000000 0.384261
O O15 0.195013 0.097507 0.500000
O O16 0.215584 0.067788 0.250000
O O17 0.174082 0.000000 0.467102
O O18 0.222136 0.444272 0.500000
O O19 0.173760 0.441257 0.250000
#
# Coordination Sequence:
#
# PCOD8330048 Si02
#       6
#    24  24  24  24  24  24
#     4   9  19  36  57  82 113 149 189 234 283 334
#     4  11  22  36  57  82 109 144 185 230 283 344
#     4  10  20  34  53  74  96 122 155 198 249 308
#     4  10  21  37  57  81 110 144 183 230 283 340
#     4  10  21  37  60  91 125 163 206 250 297 348
#     4  10  22  39  55  73 100 134 172 214 262 316
#
# _framework density 20.37228
#
# number of rings (size 3 to 8) (size 9 to 14) (size 15 to 20)
#    0.000    2.000    0.000    3.167    0.000    7.333 
#    0.000    3.333    0.000    0.167    0.000    0.000 
#    0.000    0.000    0.000    0.000    0.000    0.000 
#
# Total GULP energy -1784267.135190 kJ/mol
# GULP energy per Si atom -12390.743994 kJ/mol
# Density = 2.032591 g / cm^3
# Si number density = 20.372280 Si / 1000 Ang^3
#
#
#
# Elastic Constant Matrix: (Units=GPa)
#
#
# Indices 1 2 3 4 5 6 
#
# 1 71.6660 35.4398 47.8186 0.0000 0.0000 0.0000
# 2 35.4398 71.6660 47.8186 0.0000 0.0000 0.0000
# 3 47.8186 47.8186 129.8751 0.0000 0.0000 0.0000
# 4 0.0000 0.0000 0.0000 26.5535 0.0000 0.0000
# 5 0.0000 0.0000 0.0000 0.0000 26.5535 0.0000
# 6 0.0000 0.0000 0.0000 0.0000 0.0000 18.1131
#
#
#
# Elastic Compliance Matrix: (Units=1/GPa)
#
#
# Indices 1 2 3 4 5 6 
#
# 1 0.020757 -0.006847 -0.005121 0.000000 0.000000 0.000000
# 2 -0.006847 0.020757 -0.005121 0.000000 0.000000 0.000000
# 3 -0.005121 -0.005121 0.011471 0.000000 0.000000 0.000000
# 4 0.000000 0.000000 0.000000 0.037660 0.000000 0.000000
# 5 0.000000 0.000000 0.000000 0.000000 0.037660 0.000000
# 6 0.000000 0.000000 0.000000 0.000000 0.000000 0.055209
#
#
# Mechanical properties :
#
#
# Convention : Reuss Voigt Hill
#
# Bulk Modulus (GPa) = 53.17836 59.48459 56.33148
# Shear Modulus (GPa) = 22.32526 23.71936 23.02231
#
# Velocity S-wave (km/s) = 3.31398 3.41588 3.36531
# Velocity P-wave (km/s) = 6.38774 6.69476 6.54305
#
# Compressibility (1/GPa) = 0.01880464
#
# Stress axis : x y z
#
# Youngs Moduli (GPa) = 48.17666 48.17666 87.17675
#
# Poissons Ratio (x) = 0.32989 0.44646
# Poissons Ratio (y) = 0.32989 0.44646
# Poissons Ratio (z) = 0.24673 0.24673
#
# Static dielectric constant tensor:
#      x y z
#    x 3.444650 0.000000 0.000000 
#    y 0.000000 3.444650 0.000000 
#    z 0.000000 0.000000 2.480850 
# 
# 
# High freq. dielectric constant tensor:
#      x y z
#    x 1.784290 0.000000 0.000000 
#    y 0.000000 1.784290 0.000000 
#    z 0.000000 0.000000 1.809210 
# 
# From -- ./inp_files/1491.got.cif
#   From: 2010.03.12/outbox.cif.g09.slc.cpg/sg193_1_cif.got.tgz:1491.got - 2010.04.01 12:20:39.
