data_PCOD8330018
_publ_section_title
;
Structure prediction by ZEFSAII (Michael W. Deem and Ramdas Pophale) SiO2 
 PCOD8330018
Probable space group: P 63/M C M
;
_chemical_formula_sum "Si O2"
_cell_formula_units_Z 144
_cell_length_a 32.541480
_cell_length_b 32.541480
_cell_length_c 8.659794
_cell_angle_alpha 90.000000
_cell_angle_beta 90.000000
_cell_angle_gamma 120.000000
_cell_volume 7941.687515
_symmetry_space_group_name_H-M "P 63/M C M"
_symmetry_group_IT_number 193
_symmetry_cell_setting 'hexagonal'
loop_
_space_group_symop_operation_xyz
x,y,z
x-y,x,1/2+z
-y,x-y,z
-x,-y,1/2+z
-x+y,-x,z
y,-x+y,1/2+z
x-y,-y,1/2-z
-x,-x+y,1/2-z
y,x,1/2-z
-y,-x,-z
-x+y,y,-z
x,x-y,-z
-x,-y,-z
-x+y,-x,1/2-z
y,-x+y,-z
x,y,1/2-z
x-y,x,-z
-y,x-y,1/2-z
-x+y,y,1/2+z
x,x-y,1/2+z
-y,-x,1/2+z
y,x,z
x-y,-y,z
-x,-x+y,z
loop_
_atom_site_type_symbol
_atom_site_label
_atom_site_fract_x
_atom_site_fract_y
_atom_site_fract_z
Si Si1 0.811557 0.864471 0.431516
Si Si2 0.646790 0.944778 0.919552
Si Si3 0.436927 0.054475 0.570629
Si Si4 0.666936 0.242109 0.434782
Si Si5 0.526803 0.384077 0.567506
Si Si6 0.782841 0.726242 0.922668
O O1 0.833691 0.916846 0.500000
O O2 0.811436 0.866016 0.250000
O O3 0.844238 0.844238 0.494981
O O4 0.757912 0.832148 0.490023
O O5 0.625842 0.922674 0.750000
O O6 0.682526 0.000000 0.898312
O O7 0.606216 0.936143 0.040773
O O8 0.675955 0.921127 0.989218
O O9 0.450678 0.062119 0.750000
O O10 0.479388 0.093734 0.469674
O O11 0.421513 0.000000 0.521127
O O12 0.717138 0.282863 0.500000
O O13 0.624972 0.249943 0.500000
O O14 0.667032 0.244282 0.250000
O O15 0.658711 0.190590 0.489887
O O16 0.567575 0.432426 0.500000
O O17 0.531923 0.381362 0.750000
O O18 0.793948 0.716983 0.750000
O O19 0.751842 0.751842 0.921539
#
# Coordination Sequence:
#
# PCOD8330018 Si02
#       6
#    24  24  24  24  24  24
#     4  10  20  33  50  73 100 130 164 203 248 299
#     4   9  16  27  45  70  98 127 162 205 249 293
#     4  10  20  34  52  75 104 141 185 229 271 315
#     4  11  21  36  57  83 111 138 170 210 261 319
#     4  11  22  37  55  77 106 141 181 226 275 322
#     4   9  16  27  45  69  96 125 156 193 239 289
#
# _framework density 18.132166999999999
#
# number of rings (size 3 to 8) (size 9 to 14) (size 15 to 20)
#    0.000    2.000    0.000    6.167    0.000    6.333 
#    0.000    0.000    0.000    1.167    0.000    7.000 
#    0.000    0.000    0.000    0.000    0.000    0.000 
#
# Total GULP energy -1784958.069536 kJ/mol
# GULP energy per Si atom -12395.542150 kJ/mol
# Density = 1.809090 g / cm^3
# Si number density = 18.132167 Si / 1000 Ang^3
#
#
#
# Elastic Constant Matrix: (Units=GPa)
#
#
# Indices 1 2 3 4 5 6 
#
# 1 92.3016 51.0817 38.7601 0.0000 0.0000 0.0000
# 2 51.0817 92.3016 38.7601 0.0000 0.0000 0.0000
# 3 38.7601 38.7601 121.1878 0.0000 0.0000 0.0000
# 4 0.0000 0.0000 0.0000 29.1184 0.0000 0.0000
# 5 0.0000 0.0000 0.0000 0.0000 29.1184 0.0000
# 6 0.0000 0.0000 0.0000 0.0000 0.0000 20.6100
#
#
#
# Elastic Compliance Matrix: (Units=1/GPa)
#
#
# Indices 1 2 3 4 5 6 
#
# 1 0.016346 -0.007914 -0.002697 0.000000 0.000000 0.000000
# 2 -0.007914 0.016346 -0.002697 0.000000 0.000000 0.000000
# 3 -0.002697 -0.002697 0.009977 0.000000 0.000000 0.000000
# 4 0.000000 0.000000 0.000000 0.034343 0.000000 0.000000
# 5 0.000000 0.000000 0.000000 0.000000 0.034343 0.000000
# 6 0.000000 0.000000 0.000000 0.000000 0.000000 0.048520
#
#
# Mechanical properties :
#
#
# Convention : Reuss Voigt Hill
#
# Bulk Modulus (GPa) = 62.29069 62.55497 62.42283
# Shear Modulus (GPa) = 26.06318 27.58196 26.82257
#
# Velocity S-wave (km/s) = 3.79542 3.90444 3.85031
# Velocity P-wave (km/s) = 7.32361 7.40949 7.36667
#
# Compressibility (1/GPa) = 0.01605376
#
# Stress axis : x y z
#
# Youngs Moduli (GPa) = 61.17605 61.17605 100.23210
#
# Poissons Ratio (x) = 0.48414 0.27033
# Poissons Ratio (y) = 0.48414 0.27033
# Poissons Ratio (z) = 0.16499 0.16499
#
# Static dielectric constant tensor:
#      x y z
#    x 3.315220 0.000000 0.000000 
#    y 0.000000 3.315220 0.000000 
#    z 0.000000 0.000000 3.454050 
# 
# 
# High freq. dielectric constant tensor:
#      x y z
#    x 1.681600 0.000000 0.000000 
#    y 0.000000 1.681600 0.000000 
#    z 0.000000 0.000000 1.724640 
# 
# From -- ./inp_files/1495.got.cif
#   From: 2010.03.12/outbox.cif.g09.slc.cpg/sg193_1_cif.got.tgz:1495.got - 2010.04.01 12:20:39.
