data_PCOD8330340
_publ_section_title
;
Structure prediction by ZEFSAII (Michael W. Deem and Ramdas Pophale) SiO2 
 PCOD8330340
Probable space group: P 63/M M C
;
_chemical_formula_sum "Si O2"
_cell_formula_units_Z 108
_cell_length_a 17.239530
_cell_length_b 17.239530
_cell_length_c 28.568279
_cell_angle_alpha 90.000000
_cell_angle_beta 90.000000
_cell_angle_gamma 120.000000
_cell_volume 7353.016716
_symmetry_space_group_name_H-M "P 63/M M C"
_symmetry_group_IT_number 194
_symmetry_cell_setting 'hexagonal'
loop_
_space_group_symop_operation_xyz
x,y,z
x-y,x,1/2+z
-y,x-y,z
-x,-y,1/2+z
-x+y,-x,z
y,-x+y,1/2+z
x-y,-y,-z
-x,-x+y,-z
y,x,-z
-y,-x,1/2-z
-x+y,y,1/2-z
x,x-y,1/2-z
-x,-y,-z
-x+y,-x,1/2-z
y,-x+y,-z
x,y,1/2-z
x-y,x,-z
-y,x-y,1/2-z
-x+y,y,z
x,x-y,z
-y,-x,z
y,x,1/2+z
x-y,-y,1/2+z
-x,-x+y,1/2+z
loop_
_atom_site_type_symbol
_atom_site_label
_atom_site_fract_x
_atom_site_fract_y
_atom_site_fract_z
Si Si1 0.393889 0.964246 0.388306
Si Si2 0.512061 0.666241 0.196946
Si Si3 0.349481 0.087387 0.057535
Si Si4 0.178537 0.178537 0.000000
Si Si5 0.488991 0.334296 0.522765
O O1 0.500210 0.000419 0.388441
O O2 0.351713 0.926844 0.337430
O O3 0.344016 0.884691 0.425558
O O4 0.376498 0.045413 0.399768
O O5 0.542706 0.664062 0.250000
O O6 0.521701 0.760851 0.184701
O O7 0.408784 0.591217 0.189110
O O8 0.370206 0.185103 0.074152
O O9 0.407595 0.095189 0.011857
O O10 0.244957 0.026114 0.044333
O O11 0.166960 0.083480 0.984525
O O12 0.514677 0.257339 0.523623
O O13 0.574663 0.425338 0.505275
#
# Coordination Sequence:
#
# PCOD8330340 Si02
#       5
#    24  24  24  12  24
#     4  10  18  28  43  62  86 113 143 177 209 249
#     4   9  17  28  43  64  90 118 144 170 202 243
#     4  10  19  30  44  60  82 111 143 177 213 252
#     4  10  19  30  43  58  78 104 138 178 219 256
#     4  10  18  27  40  61  89 119 146 170 199 240
#
# _framework density 14.687849999999999
#
# number of rings (size 3 to 8) (size 9 to 14) (size 15 to 20)
#    0.000    2.222    2.222    1.889    0.000    3.556 
#    0.000    2.222    0.000    1.111    0.000    0.000 
#    0.000    0.000    0.000    0.000    0.000    0.000 
#
# Total GULP energy -1339330.409914 kJ/mol
# GULP energy per Si atom -12401.207499 kJ/mol
# Density = 1.465442 g / cm^3
# Si number density = 14.687850 Si / 1000 Ang^3
#
#
#
# Elastic Constant Matrix: (Units=GPa)
#
#
# Indices 1 2 3 4 5 6 
#
# 1 94.4854 49.7768 44.1334 0.0000 0.0000 0.0000
# 2 49.7768 94.4854 44.1334 0.0000 0.0000 0.0000
# 3 44.1334 44.1334 82.8705 0.0000 0.0000 0.0000
# 4 0.0000 0.0000 0.0000 20.1963 0.0000 0.0000
# 5 0.0000 0.0000 0.0000 0.0000 20.1963 0.0000
# 6 0.0000 0.0000 0.0000 0.0000 0.0000 22.3543
#
#
#
# Elastic Compliance Matrix: (Units=1/GPa)
#
#
# Indices 1 2 3 4 5 6 
#
# 1 0.016325 -0.006042 -0.005476 0.000000 0.000000 0.000000
# 2 -0.006042 0.016325 -0.005476 0.000000 0.000000 0.000000
# 3 -0.005476 -0.005476 0.017900 0.000000 0.000000 0.000000
# 4 0.000000 0.000000 0.000000 0.049514 0.000000 0.000000
# 5 0.000000 0.000000 0.000000 0.000000 0.049514 0.000000
# 6 0.000000 0.000000 0.000000 0.000000 0.000000 0.044734
#
#
# Mechanical properties :
#
#
# Convention : Reuss Voigt Hill
#
# Bulk Modulus (GPa) = 60.38503 60.88094 60.63298
# Shear Modulus (GPa) = 21.38402 21.46923 21.42663
#
# Velocity S-wave (km/s) = 3.81976 3.82737 3.82357
# Velocity P-wave (km/s) = 7.78817 7.81483 7.80151
#
# Compressibility (1/GPa) = 0.01656040
#
# Stress axis : x y z
#
# Youngs Moduli (GPa) = 61.25704 61.25704 55.86745
#
# Poissons Ratio (x) = 0.37014 0.30592
# Poissons Ratio (y) = 0.37014 0.30592
# Poissons Ratio (z) = 0.33544 0.33544
#
# Static dielectric constant tensor:
#      x y z
#    x 2.866450 0.000000 0.000000 
#    y 0.000000 2.866450 0.000000 
#    z 0.000000 0.000000 2.736130 
# 
# 
# High freq. dielectric constant tensor:
#      x y z
#    x 1.560380 0.000000 0.000000 
#    y 0.000000 1.560380 0.000000 
#    z 0.000000 0.000000 1.532100 
# 
# From -- ./inp_files/9229.got.cif
#   From: 2010.03.12/outbox.cif.g09.slc.cpg/sg194_5_cif.got.tgz:9229.got - 2010.04.01 12:26:19.
