data_PCOD8330457
_publ_section_title
;
Structure prediction by ZEFSAII (Michael W. Deem and Ramdas Pophale) SiO2 
 PCOD8330457
Probable space group: P 63/M M C
;
_chemical_formula_sum "Si O2"
_cell_formula_units_Z 168
_cell_length_a 18.722046
_cell_length_b 18.722046
_cell_length_c 28.562853
_cell_angle_alpha 90.000000
_cell_angle_beta 90.000000
_cell_angle_gamma 120.000000
_cell_volume 8670.393985
_symmetry_space_group_name_H-M "P 63/M M C"
_symmetry_group_IT_number 194
_symmetry_cell_setting 'hexagonal'
loop_
_space_group_symop_operation_xyz
x,y,z
x-y,x,1/2+z
-y,x-y,z
-x,-y,1/2+z
-x+y,-x,z
y,-x+y,1/2+z
x-y,-y,-z
-x,-x+y,-z
y,x,-z
-y,-x,1/2-z
-x+y,y,1/2-z
x,x-y,1/2-z
-x,-y,-z
-x+y,-x,1/2-z
y,-x+y,-z
x,y,1/2-z
x-y,x,-z
-y,x-y,1/2-z
-x+y,y,z
x,x-y,z
-y,-x,z
y,x,1/2+z
x-y,-y,1/2+z
-x,-x+y,1/2+z
loop_
_atom_site_type_symbol
_atom_site_label
_atom_site_fract_x
_atom_site_fract_y
_atom_site_fract_z
Si Si1 0.344665 0.024798 0.049894
Si Si2 0.919128 0.243062 0.697134
Si Si3 0.124569 0.640200 0.075761
Si Si4 0.823948 0.332427 0.024561
Si Si5 0.332871 0.500575 0.695808
Si Si6 0.753026 0.084269 0.144485
Si Si7 0.332328 0.506337 0.177679
O O1 0.440225 0.083925 0.037691
O O2 0.319790 0.071998 0.087981
O O3 0.332985 0.944268 0.076101
O O4 0.293811 0.000000 0.000000
O O5 0.937277 0.229181 0.750000
O O6 0.840392 0.159609 0.677056
O O7 0.899342 0.318015 0.695776
O O8 0.999715 0.263389 0.667814
O O9 0.080888 0.540444 0.075059
O O10 0.179589 0.675812 0.121676
O O11 0.184817 0.676771 0.031470
O O12 0.807682 0.403841 0.043355
O O13 0.754319 0.245682 0.046903
O O14 0.333371 0.475219 0.750000
O O15 0.262776 0.525551 0.688407
O O16 0.421123 0.578878 0.681875
O O17 0.314478 0.423290 0.662309
O O18 0.843906 0.156095 0.158870
O O19 0.261624 0.523247 0.198053
O O20 0.421627 0.578374 0.195160
#
# Coordination Sequence:
#
# PCOD8330457 Si02
#       7
#    24  24  24  24  24  24  24
#     4  10  20  35  52  75 104 142 185 229 276 335
#     4  10  22  40  60  83 112 147 185 225 278 344
#     4   9  17  30  48  68  95 137 185 233 279 326
#     4  10  19  30  45  67 100 140 186 236 284 327
#     4   9  18  32  52  80 117 161 204 244 285 329
#     4  11  22  38  60  88 117 146 186 235 283 334
#     4  10  19  32  52  79 111 148 193 240 284 328
#
# _framework density 19.376282
#
# number of rings (size 3 to 8) (size 9 to 14) (size 15 to 20)
#    0.000    2.143    1.429    2.143    0.000    5.143 
#    0.000    2.143    0.000    2.857    0.000    0.000 
#    0.000    0.571    0.000    0.000    0.000    0.000 
#
# Total GULP energy -2082310.168461 kJ/mol
# GULP energy per Si atom -12394.703384 kJ/mol
# Density = 1.933218 g / cm^3
# Si number density = 19.376282 Si / 1000 Ang^3
#
#
#
# Elastic Constant Matrix: (Units=GPa)
#
#
# Indices 1 2 3 4 5 6 
#
# 1 86.1207 46.2525 27.7861 0.0000 0.0000 0.0000
# 2 46.2525 86.1207 27.7861 0.0000 0.0000 0.0000
# 3 27.7861 27.7861 89.1085 0.0000 0.0000 0.0000
# 4 0.0000 0.0000 0.0000 15.8441 0.0000 0.0000
# 5 0.0000 0.0000 0.0000 0.0000 15.8441 0.0000
# 6 0.0000 0.0000 0.0000 0.0000 0.0000 19.9341
#
#
#
# Elastic Compliance Matrix: (Units=1/GPa)
#
#
# Indices 1 2 3 4 5 6 
#
# 1 0.016887 -0.008195 -0.002710 0.000000 0.000000 0.000000
# 2 -0.008195 0.016887 -0.002710 0.000000 0.000000 0.000000
# 3 -0.002710 -0.002710 0.012913 0.000000 0.000000 0.000000
# 4 0.000000 0.000000 0.000000 0.063115 0.000000 0.000000
# 5 0.000000 0.000000 0.000000 0.000000 0.063115 0.000000
# 6 0.000000 0.000000 0.000000 0.000000 0.000000 0.050165
#
#
# Mechanical properties :
#
#
# Convention : Reuss Voigt Hill
#
# Bulk Modulus (GPa) = 51.39965 51.66660 51.53312
# Shear Modulus (GPa) = 19.47041 20.95948 20.21495
#
# Velocity S-wave (km/s) = 3.17339 3.29250 3.23349
# Velocity P-wave (km/s) = 6.32549 6.41692 6.37137
#
# Compressibility (1/GPa) = 0.01945539
#
# Stress axis : x y z
#
# Youngs Moduli (GPa) = 59.21551 59.21551 77.44348
#
# Poissons Ratio (x) = 0.48528 0.20991
# Poissons Ratio (y) = 0.48528 0.20991
# Poissons Ratio (z) = 0.16050 0.16050
#
# Static dielectric constant tensor:
#      x y z
#    x 3.277690 0.000000 0.000000 
#    y 0.000000 3.277690 0.000000 
#    z 0.000000 0.000000 3.655270 
# 
# 
# High freq. dielectric constant tensor:
#      x y z
#    x 1.729070 0.000000 0.000000 
#    y 0.000000 1.729070 0.000000 
#    z 0.000000 0.000000 1.762180 
# 
# From -- ./inp_files/12225.got.cif
#   From: 2010.03.12/outbox.cif.g09.slc.cpg/sg194_7_cif.got.tgz:12225.got - 2010.04.01 12:26:19.
