data_PCOD8330760
_publ_section_title
;
Structure prediction by ZEFSAII (Michael W. Deem and Ramdas Pophale) SiO2 
 PCOD8330760
Probable space group: P 63/M M C
;
_chemical_formula_sum "Si O2"
_cell_formula_units_Z 138
_cell_length_a 31.360787
_cell_length_b 31.360787
_cell_length_c 8.372217
_cell_angle_alpha 90.000000
_cell_angle_beta 90.000000
_cell_angle_gamma 120.000000
_cell_volume 7130.910959
_symmetry_space_group_name_H-M "P 63/M M C"
_symmetry_group_IT_number 194
_symmetry_cell_setting 'hexagonal'
loop_
_space_group_symop_operation_xyz
x,y,z
x-y,x,1/2+z
-y,x-y,z
-x,-y,1/2+z
-x+y,-x,z
y,-x+y,1/2+z
x-y,-y,-z
-x,-x+y,-z
y,x,-z
-y,-x,1/2-z
-x+y,y,1/2-z
x,x-y,1/2-z
-x,-y,-z
-x+y,-x,1/2-z
y,-x+y,-z
x,y,1/2-z
x-y,x,-z
-y,x-y,1/2-z
-x+y,y,z
x,x-y,z
-y,-x,z
y,x,1/2+z
x-y,-y,1/2+z
-x,-x+y,1/2+z
loop_
_atom_site_type_symbol
_atom_site_label
_atom_site_fract_x
_atom_site_fract_y
_atom_site_fract_z
Si Si1 0.850002 0.053795 0.060133
Si Si2 0.312127 0.206624 0.073237
Si Si3 0.793854 0.396927 0.567225
Si Si4 0.948218 0.424002 0.566569
Si Si5 0.364441 0.635560 0.750000
Si Si6 0.743451 0.587651 0.572969
Si Si7 0.149105 0.498113 0.931059
O O1 0.849238 0.054459 0.250000
O O2 0.904800 0.095201 0.999994
O O3 0.808980 0.067477 0.996443
O O4 0.837199 0.000000 0.000000
O O5 0.315856 0.228257 0.250000
O O6 0.315941 0.157971 0.082814
O O7 0.358709 0.248559 0.975721
O O8 0.771411 0.385706 0.750000
O O9 0.756261 0.378131 0.419829
O O10 0.825907 0.455906 0.552044
O O11 0.942552 0.407809 0.750000
O O12 0.941217 0.470609 0.542321
O O13 0.909041 0.379950 0.458411
O O14 0.000000 0.434269 0.500000
O O15 0.390006 0.695003 0.750000
O O16 0.720749 0.576051 0.750000
O O17 0.795165 0.590330 0.566206
O O18 0.707502 0.542659 0.459763
O O19 0.163100 0.517945 0.750000
#
# Coordination Sequence:
#
# PCOD8330760 Si02
#       7
#    24  24  12  24   6  24  24
#     4   9  18  32  52  80 113 151 196 246 298 354
#     4   8  15  31  52  73 103 140 179 224 280 342
#     4  12  24  44  69  95 123 159 205 257 310 372
#     4  10  20  35  57  84 113 146 183 227 280 337
#     4  10  26  50  70  92 126 156 206 256 322 384
#     4  10  21  36  55  83 113 145 188 240 297 356
#     4  12  23  38  61  88 121 158 199 247 296 357
#
# _framework density 19.352366
#
# number of rings (size 3 to 8) (size 9 to 14) (size 15 to 20)
#    0.087    1.913    1.739    3.652    0.000    3.826 
#    0.000    2.609    0.000    2.261    0.000    0.000 
#    0.000    0.000    0.000    0.000    0.000    0.000 
#
# Total GULP energy -1710359.371289 kJ/mol
# GULP energy per Si atom -12393.908488 kJ/mol
# Density = 1.930832 g / cm^3
# Si number density = 19.352366 Si / 1000 Ang^3
#
#
#
# Elastic Constant Matrix: (Units=GPa)
#
#
# Indices 1 2 3 4 5 6 
#
# 1 86.3698 43.7209 31.1926 0.0000 0.0000 0.0000
# 2 43.7209 86.3698 31.1926 0.0000 0.0000 0.0000
# 3 31.1926 31.1926 102.9328 0.0000 0.0000 0.0000
# 4 0.0000 0.0000 0.0000 26.5594 0.0000 0.0000
# 5 0.0000 0.0000 0.0000 0.0000 26.5594 0.0000
# 6 0.0000 0.0000 0.0000 0.0000 0.0000 21.3244
#
#
#
# Elastic Compliance Matrix: (Units=1/GPa)
#
#
# Indices 1 2 3 4 5 6 
#
# 1 0.016221 -0.007227 -0.002726 0.000000 0.000000 0.000000
# 2 -0.007227 0.016221 -0.002726 0.000000 0.000000 0.000000
# 3 -0.002726 -0.002726 0.011367 0.000000 0.000000 0.000000
# 4 0.000000 0.000000 0.000000 0.037651 0.000000 0.000000
# 5 0.000000 0.000000 0.000000 0.000000 0.037651 0.000000
# 6 0.000000 0.000000 0.000000 0.000000 0.000000 0.046895
#
#
# Mechanical properties :
#
#
# Convention : Reuss Voigt Hill
#
# Bulk Modulus (GPa) = 54.19227 54.20940 54.20083
# Shear Modulus (GPa) = 25.31493 26.19308 25.75400
#
# Velocity S-wave (km/s) = 3.62070 3.68296 3.65196
# Velocity P-wave (km/s) = 6.74855 6.79398 6.77131
#
# Compressibility (1/GPa) = 0.01845282
#
# Stress axis : x y z
#
# Youngs Moduli (GPa) = 61.64994 61.64994 87.97433
#
# Poissons Ratio (x) = 0.44552 0.23978
# Poissons Ratio (y) = 0.44552 0.23978
# Poissons Ratio (z) = 0.16803 0.16803
#
# Static dielectric constant tensor:
#      x y z
#    x 3.540310 0.000000 0.000000 
#    y 0.000000 3.540310 0.000000 
#    z 0.000000 0.000000 3.622780 
# 
# 
# High freq. dielectric constant tensor:
#      x y z
#    x 1.737960 0.000000 0.000000 
#    y 0.000000 1.737960 0.000000 
#    z 0.000000 0.000000 1.755290 
# 
# From -- ./inp_files/2186.got.cif
#   From: 2010.03.12/outbox.cif.g09.slc.cpg/sg194_2_cif.got.tgz:2186.got - 2010.04.01 12:26:19.
