data_PCOD8330946
_publ_section_title
;
Structure prediction by ZEFSAII (Michael W. Deem and Ramdas Pophale) SiO2 
 PCOD8330946
Probable space group: P A 3
;
_chemical_formula_sum "Si O2"
_cell_formula_units_Z 168
_cell_length_a 21.453320
_cell_length_b 21.453320
_cell_length_c 21.453320
_cell_angle_alpha 90.000000
_cell_angle_beta 90.000000
_cell_angle_gamma 90.000000
_cell_volume 9873.781955
_symmetry_space_group_name_H-M "P A 3"
_symmetry_group_IT_number 205
_symmetry_cell_setting 'cubic'
loop_
_space_group_symop_operation_xyz
x,y,z
z,x,y
y,z,x
1/2-y,-z,1/2+x
1/2+z,1/2-x,-y
-y,1/2+z,1/2-x
1/2-z,-x,1/2+y
-z,1/2+x,1/2-y
1/2+y,1/2-z,-x
1/2-x,-y,1/2+z
1/2+x,1/2-y,-z
-x,1/2+y,1/2-z
-x,-y,-z
-z,-x,-y
-y,-z,-x
1/2+y,z,1/2-x
1/2-z,1/2+x,y
y,1/2-z,1/2+x
1/2+z,x,1/2-y
z,1/2-x,1/2+y
1/2-y,1/2+z,x
1/2+x,y,1/2-z
1/2-x,1/2+y,z
x,1/2-y,1/2+z
loop_
_atom_site_type_symbol
_atom_site_label
_atom_site_fract_x
_atom_site_fract_y
_atom_site_fract_z
Si Si1 0.489862 0.291729 0.421844
Si Si2 0.343781 0.455122 0.052924
Si Si3 0.302694 0.989894 0.874392
Si Si4 0.423416 0.793829 0.967522
Si Si5 0.437312 0.038466 0.657340
Si Si6 0.487212 0.168286 0.669446
Si Si7 0.803315 0.623811 0.035186
O O1 0.422961 0.303024 0.453430
O O2 0.496989 0.327094 0.357807
O O3 0.543899 0.315821 0.468391
O O4 0.494563 0.217922 0.407333
O O5 0.279873 0.470955 0.088186
O O6 0.398891 0.480002 0.096450
O O7 0.346779 0.381394 0.040514
O O8 0.348478 0.491476 0.986731
O O9 0.238944 0.984737 0.834785
O O10 0.312188 0.924930 0.909363
O O11 0.357145 0.825542 0.958269
O O12 0.468398 0.809476 0.909494
O O13 0.436049 0.113366 0.664005
O O14 0.457436 0.236108 0.657063
#
# Coordination Sequence:
#
# PCOD8330946 Si02
#       7
#    24  24  24  24  24  24  24
#     4   9  19  32  49  74  99 130 165 207 242 298
#     4  10  19  32  50  73 102 130 165 205 252 293
#     4  10  19  33  52  73 101 131 165 203 254 289
#     4   9  19  32  49  74 100 127 170 203 242 298
#     4  10  19  32  50  73 102 128 166 204 251 297
#     4  10  20  32  49  74 101 128 165 204 242 301
#     4  10  19  33  52  73 101 132 164 207 247 292
#
# _framework density 17.014755999999998
#
# number of rings (size 3 to 8) (size 9 to 14) (size 15 to 20)
#    0.000    2.286    0.000    5.714    2.000    0.000 
#    0.000    1.429    0.000    4.571    0.000    0.000 
#   20.000    0.000    0.000    0.000    0.000    0.000 
#
# Total GULP energy -2082698.622002 kJ/mol
# GULP energy per Si atom -12397.015607 kJ/mol
# Density = 1.697603 g / cm^3
# Si number density = 17.014756 Si / 1000 Ang^3
#
#
#
# Elastic Constant Matrix: (Units=GPa)
#
#
# Indices 1 2 3 4 5 6 
#
# 1 103.9645 48.9424 48.9424 0.0000 0.0000 0.0000
# 2 48.9424 103.9645 48.9424 0.0000 0.0000 0.0000
# 3 48.9424 48.9424 103.9645 0.0000 0.0000 0.0000
# 4 0.0000 0.0000 0.0000 23.4100 0.0000 0.0000
# 5 0.0000 0.0000 0.0000 0.0000 23.4100 0.0000
# 6 0.0000 0.0000 0.0000 0.0000 0.0000 23.4100
#
#
#
# Elastic Compliance Matrix: (Units=1/GPa)
#
#
# Indices 1 2 3 4 5 6 
#
# 1 0.013768 -0.004407 -0.004407 0.000000 0.000000 0.000000
# 2 -0.004407 0.013768 -0.004407 0.000000 0.000000 0.000000
# 3 -0.004407 -0.004407 0.013768 0.000000 0.000000 0.000000
# 4 0.000000 0.000000 0.000000 0.042717 0.000000 0.000000
# 5 0.000000 0.000000 0.000000 0.000000 0.042717 0.000000
# 6 0.000000 0.000000 0.000000 0.000000 0.000000 0.042717
#
#
# Mechanical properties :
#
#
# Convention : Reuss Voigt Hill
#
# Bulk Modulus (GPa) = 67.28312 67.28312 67.28312
# Shear Modulus (GPa) = 24.89437 25.05039 24.97238
#
# Velocity S-wave (km/s) = 3.82920 3.84119 3.83520
# Velocity P-wave (km/s) = 7.69287 7.70083 7.69685
#
# Compressibility (1/GPa) = 0.01486257
#
# Stress axis : x y z
#
# Youngs Moduli (GPa) = 72.63349 72.63349 72.63349
#
# Poissons Ratio (x) = 0.32008 0.32008
# Poissons Ratio (y) = 0.32008 0.32008
# Poissons Ratio (z) = 0.32008 0.32008
#
# Static dielectric constant tensor:
#      x y z
#    x 3.123520 0.000000 0.000000 
#    y 0.000000 3.123520 0.000000 
#    z 0.000000 0.000000 3.123520 
# 
# 
# High freq. dielectric constant tensor:
#      x y z
#    x 1.653030 0.000000 0.000000 
#    y 0.000000 1.653030 0.000000 
#    z 0.000000 0.000000 1.653030 
# 
# From -- ./inp_files/542.got.cif
#   From: 2010.03.12/outbox.cif.g09.slc.cpg/sg205_cif.got.tgz:542.got - 2010.03.30 09:02:58.
