data_PCOD8330274
_publ_section_title
;
Structure prediction by ZEFSAII (Michael W. Deem and Ramdas Pophale) SiO2 
 PCOD8330274
Probable space group: P 63/M C M
;
_chemical_formula_sum "Si O2"
_cell_formula_units_Z 168
_cell_length_a 30.237471
_cell_length_b 30.237471
_cell_length_c 15.543663
_cell_angle_alpha 90.000000
_cell_angle_beta 90.000000
_cell_angle_gamma 120.000000
_cell_volume 12307.644212
_symmetry_space_group_name_H-M "P 63/M C M"
_symmetry_group_IT_number 193
_symmetry_cell_setting 'hexagonal'
loop_
_space_group_symop_operation_xyz
x,y,z
x-y,x,1/2+z
-y,x-y,z
-x,-y,1/2+z
-x+y,-x,z
y,-x+y,1/2+z
x-y,-y,1/2-z
-x,-x+y,1/2-z
y,x,1/2-z
-y,-x,-z
-x+y,y,-z
x,x-y,-z
-x,-y,-z
-x+y,-x,1/2-z
y,-x+y,-z
x,y,1/2-z
x-y,x,-z
-y,x-y,1/2-z
-x+y,y,1/2+z
x,x-y,1/2+z
-y,-x,1/2+z
y,x,z
x-y,-y,z
-x,-x+y,z
loop_
_atom_site_type_symbol
_atom_site_label
_atom_site_fract_x
_atom_site_fract_y
_atom_site_fract_z
Si Si1 0.060599 0.624210 0.655381
Si Si2 0.060599 0.624208 0.344619
Si Si3 0.156381 0.942118 0.152523
Si Si4 0.057881 0.214261 0.652523
Si Si5 0.940016 0.218594 0.500001
Si Si6 0.316526 0.377650 0.499998
Si Si7 0.469647 0.530356 0.402662
O O1 0.077029 0.649282 0.750000
O O2 0.082396 0.668829 0.584246
O O3 0.082352 0.585433 0.642308
O O4 0.000000 0.592235 0.646147
O O5 0.077028 0.649279 0.250000
O O6 0.082396 0.668827 0.415753
O O7 0.082351 0.585429 0.357690
O O8 0.000000 0.592233 0.353855
O O9 0.173832 0.939005 0.250000
O O10 0.095375 0.904626 0.142430
O O11 0.184588 0.923206 0.086525
O O12 0.169806 0.000000 0.131130
O O13 0.060995 0.234825 0.750000
O O14 0.076793 0.261381 0.586526
O O15 0.000000 0.169804 0.631130
O O16 0.915606 0.255338 0.500003
O O17 0.000000 0.254088 0.499999
O O18 0.346245 0.346245 0.499997
O O19 0.460031 0.539970 0.500000
O O20 0.500002 0.500002 0.397697
#
# Coordination Sequence:
#
# PCOD8330274 Si02
#       7
#    24  24  24  24  24  24  24
#     4   9  15  21  29  40  55  78 107 139 175 209
#     4   9  15  21  29  40  55  78 107 139 175 209
#     4   9  17  29  45  63  80  97 116 137 162 197
#     4   9  17  29  45  63  80  97 116 137 162 197
#     4   9  17  27  39  54  73  94 115 137 164 197
#     4   9  16  24  31  43  62  83 107 136 166 200
#     4   9  13  19  29  38  53  75 104 143 179 208
#
# _framework density 13.650054000000001
#
# number of rings (size 3 to 8) (size 9 to 14) (size 15 to 20)
#    0.000    3.000    1.429    0.857    0.000    2.857 
#    0.000    5.714    0.000    0.286    0.000    2.000 
#    0.000    3.429    0.000    0.286    0.000    0.000 
#
# Total GULP energy -2081657.260495 kJ/mol
# GULP energy per Si atom -12390.817027 kJ/mol
# Density = 1.361899 g / cm^3
# Si number density = 13.650054 Si / 1000 Ang^3
#
#
#
# Elastic Constant Matrix: (Units=GPa)
#
#
# Indices 1 2 3 4 5 6 
#
# 1 56.7416 30.6165 38.8782 0.0000 0.0000 0.0000
# 2 30.6165 56.7416 38.8782 0.0000 0.0000 0.0000
# 3 38.8782 38.8782 118.8591 0.0000 0.0000 0.0000
# 4 0.0000 0.0000 0.0000 11.7238 0.0000 0.0000
# 5 0.0000 0.0000 0.0000 0.0000 11.7238 0.0000
# 6 0.0000 0.0000 0.0000 0.0000 0.0000 13.0626
#
#
#
# Elastic Compliance Matrix: (Units=1/GPa)
#
#
# Indices 1 2 3 4 5 6 
#
# 1 0.027213 -0.011064 -0.005282 0.000000 0.000000 0.000000
# 2 -0.011064 0.027213 -0.005282 0.000000 0.000000 0.000000
# 3 -0.005282 -0.005282 0.011869 0.000000 0.000000 0.000000
# 4 0.000000 0.000000 0.000000 0.085296 0.000000 0.000000
# 5 0.000000 0.000000 0.000000 0.000000 0.085296 0.000000
# 6 0.000000 0.000000 0.000000 0.000000 0.000000 0.076555
#
#
# Mechanical properties :
#
#
# Convention : Reuss Voigt Hill
#
# Bulk Modulus (GPa) = 43.40719 49.89866 46.65293
# Shear Modulus (GPa) = 13.72199 15.56667 14.64433
#
# Velocity S-wave (km/s) = 3.17404 3.38066 3.27898
# Velocity P-wave (km/s) = 6.73066 7.20233 6.97048
#
# Compressibility (1/GPa) = 0.02303766
#
# Stress axis : x y z
#
# Youngs Moduli (GPa) = 36.74712 36.74712 84.25407
#
# Poissons Ratio (x) = 0.40658 0.44504
# Poissons Ratio (y) = 0.40658 0.44504
# Poissons Ratio (z) = 0.19410 0.19410
#
# Static dielectric constant tensor:
#      x y z
#    x 2.485540 0.000000 0.000000 
#    y 0.000000 2.485540 0.000000 
#    z 0.000000 0.000000 2.989670 
# 
# 
# High freq. dielectric constant tensor:
#      x y z
#    x 1.471610 0.000000 0.000000 
#    y 0.000000 1.471610 0.000000 
#    z 0.000000 0.000000 1.545060 
# 
# From -- ./inp_files/4429.got.cif
#   From: 2010.03.12/outbox.cif.g09.slc.cpg/sg193_3_cif.got.tgz:4429.got - 2010.04.01 12:20:39.
