data_PCOD8330748
_publ_section_title
;
Structure prediction by ZEFSAII (Michael W. Deem and Ramdas Pophale) SiO2 
 PCOD8330748
Probable space group: P 63/M M C
;
_chemical_formula_sum "Si O2"
_cell_formula_units_Z 72
_cell_length_a 22.348392
_cell_length_b 22.348392
_cell_length_c 9.146504
_cell_angle_alpha 90.000000
_cell_angle_beta 90.000000
_cell_angle_gamma 120.000000
_cell_volume 3956.200753
_symmetry_space_group_name_H-M "P 63/M M C"
_symmetry_group_IT_number 194
_symmetry_cell_setting 'hexagonal'
loop_
_space_group_symop_operation_xyz
x,y,z
x-y,x,1/2+z
-y,x-y,z
-x,-y,1/2+z
-x+y,-x,z
y,-x+y,1/2+z
x-y,-y,-z
-x,-x+y,-z
y,x,-z
-y,-x,1/2-z
-x+y,y,1/2-z
x,x-y,1/2-z
-x,-y,-z
-x+y,-x,1/2-z
y,-x+y,-z
x,y,1/2-z
x-y,x,-z
-y,x-y,1/2-z
-x+y,y,z
x,x-y,z
-y,-x,z
y,x,1/2+z
x-y,-y,1/2+z
-x,-x+y,1/2+z
loop_
_atom_site_type_symbol
_atom_site_label
_atom_site_fract_x
_atom_site_fract_y
_atom_site_fract_z
Si Si1 0.727085 0.795770 0.078753
Si Si2 0.333111 0.804202 0.582541
Si Si3 0.930624 0.341617 0.578295
O O1 0.740339 0.797935 0.250000
O O2 0.733813 0.866907 0.022115
O O3 0.650910 0.734515 0.037683
O O4 0.785262 0.785262 0.000000
O O5 0.329517 0.824701 0.750000
O O6 0.392180 0.784359 0.562403
O O7 0.261410 0.738591 0.533701
O O8 0.349331 0.867524 0.478058
O O9 0.939248 0.355652 0.750000
O O10 0.000000 0.399095 0.500000
#
# Coordination Sequence:
#
# PCOD8330748 Si02
#       3
#    24  24  24
#     4   9  18  32  50  74 103 132 164 204 249 297
#     4  10  21  37  56  77 103 137 176 216 258 306
#     4  10  20  35  55  79 106 135 169 212 262 312
#
# _framework density 18.199278
#
# number of rings (size 3 to 8) (size 9 to 14) (size 15 to 20)
#    0.000    2.333    0.000    2.333    0.000    6.667 
#    0.000    0.000    0.000    2.333    0.000    0.000 
#    0.000    0.000    0.000    0.000    0.000    0.000 
#
# Total GULP energy -893112.134784 kJ/mol
# GULP energy per Si atom -12404.335205 kJ/mol
# Density = 1.815786 g / cm^3
# Si number density = 18.199278 Si / 1000 Ang^3
#
#
#
# Elastic Constant Matrix: (Units=GPa)
#
#
# Indices 1 2 3 4 5 6 
#
# 1 100.9611 45.1971 44.1080 0.0000 0.0000 0.0000
# 2 45.1971 100.9611 44.1080 0.0000 0.0000 0.0000
# 3 44.1080 44.1080 69.8892 0.0000 0.0000 0.0000
# 4 0.0000 0.0000 0.0000 31.1502 0.0000 0.0000
# 5 0.0000 0.0000 0.0000 0.0000 31.1502 0.0000
# 6 0.0000 0.0000 0.0000 0.0000 0.0000 27.8820
#
#
#
# Elastic Compliance Matrix: (Units=1/GPa)
#
#
# Indices 1 2 3 4 5 6 
#
# 1 0.014492 -0.003441 -0.006975 0.000000 0.000000 0.000000
# 2 -0.003441 0.014492 -0.006975 0.000000 0.000000 0.000000
# 3 -0.006975 -0.006975 0.023112 0.000000 0.000000 0.000000
# 4 0.000000 0.000000 0.000000 0.032103 0.000000 0.000000
# 5 0.000000 0.000000 0.000000 0.000000 0.032103 0.000000
# 6 0.000000 0.000000 0.000000 0.000000 0.000000 0.035865
#
#
# Mechanical properties :
#
#
# Convention : Reuss Voigt Hill
#
# Bulk Modulus (GPa) = 57.74961 59.84861 58.79911
# Shear Modulus (GPa) = 25.94443 27.26304 26.60374
#
# Velocity S-wave (km/s) = 3.77977 3.87464 3.82750
# Velocity P-wave (km/s) = 7.13089 7.27830 7.20497
#
# Compressibility (1/GPa) = 0.01731613
#
# Stress axis : x y z
#
# Youngs Moduli (GPa) = 69.00263 69.00263 43.26719
#
# Poissons Ratio (x) = 0.23740 0.30178
# Poissons Ratio (y) = 0.23740 0.30178
# Poissons Ratio (z) = 0.48128 0.48128
#
# Static dielectric constant tensor:
#      x y z
#    x 3.351420 0.000000 0.000000 
#    y 0.000000 3.351420 0.000000 
#    z 0.000000 0.000000 3.318270 
# 
# 
# High freq. dielectric constant tensor:
#      x y z
#    x 1.703250 0.000000 0.000000 
#    y 0.000000 1.703250 0.000000 
#    z 0.000000 0.000000 1.704960 
# 
# From -- ./inp_files/871.got.cif
#   From: 2010.03.12/outbox.cif.g09.slc.cpg/sg194_1_cif.got.tgz:871.got - 2010.04.01 12:26:19.
