data_PCOD8330632
_publ_section_title
;
Structure prediction by ZEFSAII (Michael W. Deem and Ramdas Pophale) SiO2 
 PCOD8330632
Probable space group: P 63/M M C
;
_chemical_formula_sum "Si O2"
_cell_formula_units_Z 100
_cell_length_a 26.398980
_cell_length_b 26.398980
_cell_length_c 8.966867
_cell_angle_alpha 90.000000
_cell_angle_beta 90.000000
_cell_angle_gamma 120.000000
_cell_volume 5411.848792
_symmetry_space_group_name_H-M "P 63/M M C"
_symmetry_group_IT_number 194
_symmetry_cell_setting 'hexagonal'
loop_
_space_group_symop_operation_xyz
x,y,z
x-y,x,1/2+z
-y,x-y,z
-x,-y,1/2+z
-x+y,-x,z
y,-x+y,1/2+z
x-y,-y,-z
-x,-x+y,-z
y,x,-z
-y,-x,1/2-z
-x+y,y,1/2-z
x,x-y,1/2-z
-x,-y,-z
-x+y,-x,1/2-z
y,-x+y,-z
x,y,1/2-z
x-y,x,-z
-y,x-y,1/2-z
-x+y,y,z
x,x-y,z
-y,-x,z
y,x,1/2+z
x-y,-y,1/2+z
-x,-x+y,1/2+z
loop_
_atom_site_type_symbol
_atom_site_label
_atom_site_fract_x
_atom_site_fract_y
_atom_site_fract_z
Si Si1 0.727827 0.455654 0.078337
Si Si2 0.333334 0.666667 0.424524
Si Si3 0.532157 0.467844 0.572422
Si Si4 0.522394 0.657041 0.575697
Si Si5 0.767682 0.941214 0.575098
Si Si6 0.638619 0.763358 0.573213
O O1 0.718186 0.436372 0.250000
O O2 0.796474 0.491281 0.041162
O O3 0.699650 0.399300 0.977521
O O4 0.333334 0.666667 0.250000
O O5 0.500000 0.500000 0.500000
O O6 0.528654 0.471347 0.750000
O O7 0.599361 0.497909 0.522785
O O8 0.515917 0.639605 0.750000
O O9 0.589903 0.698166 0.525286
O O10 0.772712 0.950287 0.750000
O O11 0.780447 0.890224 0.526742
O O12 0.702748 0.925088 0.519275
O O13 0.816301 0.000000 0.500000
O O14 0.637944 0.768345 0.750000
O O15 0.624596 0.812298 0.507016
#
# Coordination Sequence:
#
# PCOD8330632 Si02
#       6
#    12   4  12  24  24  24
#     4  10  20  35  59  86 110 142 185 228 277 343
#     4  12  25  35  46  69 109 149 184 234 292 335
#     4  12  27  44  57  75 108 151 192 234 282 334
#     4  10  19  36  62  86 107 138 181 227 273 330
#     4   9  18  32  52  79 111 143 173 209 253 300
#     4   8  14  29  54  82 108 135 170 213 263 318
#
# _framework density 18.477975000000001
#
# number of rings (size 3 to 8) (size 9 to 14) (size 15 to 20)
#    0.000    2.400    1.200    3.600    0.000    5.280 
#    0.000    3.600    0.000    1.680    0.000    0.000 
#    0.000    0.000    0.000    0.000    0.000    0.000 
#
# Total GULP energy -1239472.954734 kJ/mol
# GULP energy per Si atom -12394.729547 kJ/mol
# Density = 1.843592 g / cm^3
# Si number density = 18.477975 Si / 1000 Ang^3
#
#
#
# Elastic Constant Matrix: (Units=GPa)
#
#
# Indices 1 2 3 4 5 6 
#
# 1 132.8852 84.4239 55.0718 0.0002 0.0000 0.0000
# 2 84.4239 132.8850 55.0718 0.0001 0.0000 0.0000
# 3 55.0718 55.0718 69.3859 0.0002 0.0000 0.0000
# 4 0.0002 0.0001 0.0002 13.0634 -0.0001 0.0000
# 5 0.0000 0.0000 0.0000 -0.0001 13.0629 0.0000
# 6 0.0000 0.0000 0.0000 0.0000 0.0000 24.2306
#
#
#
# Elastic Compliance Matrix: (Units=1/GPa)
#
#
# Indices 1 2 3 4 5 6 
#
# 1 0.014167 -0.006468 -0.006111 0.000000 0.000000 0.000000
# 2 -0.006468 0.014167 -0.006111 0.000000 0.000000 0.000000
# 3 -0.006111 -0.006111 0.024112 0.000000 0.000000 0.000000
# 4 0.000000 0.000000 0.000000 0.076550 0.000001 0.000000
# 5 0.000000 0.000000 0.000000 0.000001 0.076553 0.000000
# 6 0.000000 0.000000 0.000000 0.000000 0.000000 0.041270
#
#
# Mechanical properties :
#
#
# Convention : Reuss Voigt Hill
#
# Bulk Modulus (GPa) = 66.36816 80.47679 73.42248
# Shear Modulus (GPa) = 17.28786 19.44396 18.36591
#
# Velocity S-wave (km/s) = 3.06206 3.24740 3.15609
# Velocity P-wave (km/s) = 6.96398 7.59659 7.28716
#
# Compressibility (1/GPa) = 0.01506747
#
# Stress axis : x y z
#
# Youngs Moduli (GPa) = 70.58659 70.58652 41.47260
#
# Poissons Ratio (x) = 0.45656 0.25343
# Poissons Ratio (y) = 0.45656 0.25343
# Poissons Ratio (z) = 0.43133 0.43133
#
# Static dielectric constant tensor:
#      x y z
#    x 3.589980 0.000000 0.000000 
#    y 0.000000 3.589980 0.000000 
#    z 0.000000 0.000000 3.054790 
# 
# 
# High freq. dielectric constant tensor:
#      x y z
#    x 1.720580 0.000000 0.000000 
#    y 0.000000 1.720580 0.000000 
#    z 0.000000 0.000000 1.682910 
# 
# From -- ./inp_files/1664.got.cif
#   From: 2010.03.12/outbox.cif.g09.slc.cpg/sg194_1_cif.got.tgz:1664.got - 2010.04.01 12:26:19.
