data_PCOD8330574
_publ_section_title
;
Structure prediction by ZEFSAII (Michael W. Deem and Ramdas Pophale) SiO2 
 PCOD8330574
Probable space group: P 63/M M C
;
_chemical_formula_sum "Si O2"
_cell_formula_units_Z 144
_cell_length_a 21.760686
_cell_length_b 21.760686
_cell_length_c 20.107614
_cell_angle_alpha 90.000000
_cell_angle_beta 90.000000
_cell_angle_gamma 120.000000
_cell_volume 8245.867193
_symmetry_space_group_name_H-M "P 63/M M C"
_symmetry_group_IT_number 194
_symmetry_cell_setting 'hexagonal'
loop_
_space_group_symop_operation_xyz
x,y,z
x-y,x,1/2+z
-y,x-y,z
-x,-y,1/2+z
-x+y,-x,z
y,-x+y,1/2+z
x-y,-y,-z
-x,-x+y,-z
y,x,-z
-y,-x,1/2-z
-x+y,y,1/2-z
x,x-y,1/2-z
-x,-y,-z
-x+y,-x,1/2-z
y,-x+y,-z
x,y,1/2-z
x-y,x,-z
-y,x-y,1/2-z
-x+y,y,z
x,x-y,z
-y,-x,z
y,x,1/2+z
x-y,-y,1/2+z
-x,-x+y,1/2+z
loop_
_atom_site_type_symbol
_atom_site_label
_atom_site_fract_x
_atom_site_fract_y
_atom_site_fract_z
Si Si1 0.132619 0.406835 0.322531
Si Si2 0.278865 0.278865 0.500000
Si Si3 0.261382 0.879543 0.678139
Si Si4 0.861123 0.580510 0.463843
Si Si5 0.001987 0.858331 0.250000
Si Si6 0.666724 0.189500 0.924442
Si Si7 0.746068 0.760904 0.144255
O O1 0.104924 0.415067 0.250000
O O2 0.212783 0.425565 0.316274
O O3 0.132834 0.463921 0.373569
O O4 0.087984 0.326791 0.348235
O O5 0.357187 0.289644 0.495529
O O6 0.236711 0.233884 0.565274
O O7 0.293171 0.873370 0.750000
O O8 0.178690 0.821310 0.673968
O O9 0.301973 0.870235 0.614785
O O10 0.266639 0.954865 0.675400
O O11 0.801273 0.602546 0.474553
O O12 0.837817 0.506781 0.501254
O O13 0.058003 0.941998 0.250000
O O14 0.015671 0.825407 0.316587
O O15 0.922754 0.845508 0.250000
O O16 0.594420 0.188840 0.912980
O O17 0.730986 0.269014 0.913368
#
# Coordination Sequence:
#
# PCOD8330574 Si02
#       7
#    24  12  24  24  12  24  24
#     4  10  19  32  51  77 104 135 176 223 268 314
#     4  10  20  32  55  84 111 134 174 226 284 324
#     4   9  16  28  48  75 103 131 168 220 272 316
#     4   9  18  31  50  76 108 138 172 220 268 317
#     4  12  25  40  56  78 109 148 190 230 272 322
#     4  10  20  35  54  77 108 145 183 218 261 321
#     4  11  19  32  55  80 108 139 178 222 274 324
#
# _framework density 17.463294000000001
#
# number of rings (size 3 to 8) (size 9 to 14) (size 15 to 20)
#    0.000    2.000    3.333    1.250    0.000    1.667 
#    0.000    0.417    0.000    1.500    0.000    1.167 
#    0.000    1.333    0.000    0.000    0.000    0.000 
#
# Total GULP energy -1784610.098142 kJ/mol
# GULP energy per Si atom -12393.125682 kJ/mol
# Density = 1.742355 g / cm^3
# Si number density = 17.463294 Si / 1000 Ang^3
#
#
#
# Elastic Constant Matrix: (Units=GPa)
#
#
# Indices 1 2 3 4 5 6 
#
# 1 77.1363 30.5660 40.1699 0.0000 0.0000 0.0000
# 2 30.5660 77.1363 40.1699 0.0000 0.0000 0.0000
# 3 40.1699 40.1699 152.9990 0.0000 0.0000 0.0000
# 4 0.0000 0.0000 0.0000 18.4056 0.0000 0.0000
# 5 0.0000 0.0000 0.0000 0.0000 18.4056 0.0000
# 6 0.0000 0.0000 0.0000 0.0000 0.0000 23.2852
#
#
#
# Elastic Compliance Matrix: (Units=1/GPa)
#
#
# Indices 1 2 3 4 5 6 
#
# 1 0.016510 -0.004963 -0.003031 0.000000 0.000000 0.000000
# 2 -0.004963 0.016510 -0.003031 0.000000 0.000000 0.000000
# 3 -0.003031 -0.003031 0.008128 0.000000 0.000000 0.000000
# 4 0.000000 0.000000 0.000000 0.054331 0.000000 0.000000
# 5 0.000000 0.000000 0.000000 0.000000 0.054331 0.000000
# 6 0.000000 0.000000 0.000000 0.000000 0.000000 0.042946
#
#
# Mechanical properties :
#
#
# Convention : Reuss Voigt Hill
#
# Bulk Modulus (GPa) = 52.37162 58.78702 55.57932
# Shear Modulus (GPa) = 22.60680 25.11034 23.85857
#
# Velocity S-wave (km/s) = 3.60186 3.79607 3.70024
# Velocity P-wave (km/s) = 6.88132 7.27666 7.08175
#
# Compressibility (1/GPa) = 0.01909431
#
# Stress axis : x y z
#
# Youngs Moduli (GPa) = 60.57112 60.57112 123.03460
#
# Poissons Ratio (x) = 0.30064 0.37297
# Poissons Ratio (y) = 0.30064 0.37297
# Poissons Ratio (z) = 0.18362 0.18362
#
# Static dielectric constant tensor:
#      x y z
#    x 2.999770 0.000000 0.000000 
#    y 0.000000 2.999770 0.000000 
#    z 0.000000 0.000000 3.884490 
# 
# 
# High freq. dielectric constant tensor:
#      x y z
#    x 1.646600 0.000000 0.000000 
#    y 0.000000 1.646600 0.000000 
#    z 0.000000 0.000000 1.700820 
# 
# From -- ./inp_files/8321.got.cif
#   From: 2010.03.12/outbox.cif.g09.slc.cpg/sg194_5_cif.got.tgz:8321.got - 2010.04.01 12:26:19.
