data_PCOD8330768
_publ_section_title
;
Structure prediction by ZEFSAII (Michael W. Deem and Ramdas Pophale) SiO2 
 PCOD8330768
Probable space group: P 63/M M C
;
_chemical_formula_sum "Si O2"
_cell_formula_units_Z 168
_cell_length_a 21.360718
_cell_length_b 21.360718
_cell_length_c 21.754297
_cell_angle_alpha 90.000000
_cell_angle_beta 90.000000
_cell_angle_gamma 120.000000
_cell_volume 8596.217162
_symmetry_space_group_name_H-M "P 63/M M C"
_symmetry_group_IT_number 194
_symmetry_cell_setting 'hexagonal'
loop_
_space_group_symop_operation_xyz
x,y,z
x-y,x,1/2+z
-y,x-y,z
-x,-y,1/2+z
-x+y,-x,z
y,-x+y,1/2+z
x-y,-y,-z
-x,-x+y,-z
y,x,-z
-y,-x,1/2-z
-x+y,y,1/2-z
x,x-y,1/2-z
-x,-y,-z
-x+y,-x,1/2-z
y,-x+y,-z
x,y,1/2-z
x-y,x,-z
-y,x-y,1/2-z
-x+y,y,z
x,x-y,z
-y,-x,z
y,x,1/2+z
x-y,-y,1/2+z
-x,-x+y,1/2+z
loop_
_atom_site_type_symbol
_atom_site_label
_atom_site_fract_x
_atom_site_fract_y
_atom_site_fract_z
Si Si1 0.051750 0.456302 0.677810
Si Si2 0.753344 0.803389 0.179040
Si Si3 0.597144 0.683031 0.321107
Si Si4 0.524242 0.332259 0.608538
Si Si5 0.761090 0.953720 0.936454
Si Si6 0.130127 0.725862 0.597293
Si Si7 0.469843 0.387543 0.998594
O O1 0.053742 0.462259 0.750000
O O2 0.066923 0.533462 0.649781
O O3 0.107808 0.430483 0.658543
O O4 0.974044 0.394916 0.651877
O O5 0.766845 0.784554 0.250000
O O6 0.766331 0.883166 0.180267
O O7 0.672484 0.748532 0.153744
O O8 0.806342 0.802057 0.126393
O O9 0.608950 0.681992 0.250000
O O10 0.529059 0.694960 0.332845
O O11 0.531291 0.265646 0.581539
O O12 0.603883 0.396118 0.625663
O O13 0.481688 0.359402 0.565644
O O14 0.777663 0.888832 0.946112
O O15 0.677194 0.924322 0.923249
O O16 0.784648 0.000000 0.000000
O O17 0.209066 0.790935 0.610553
O O18 0.132625 0.676146 0.544048
O O19 0.540975 0.459026 0.020658
O O20 0.402719 0.402719 0.000000
#
# Coordination Sequence:
#
# PCOD8330768 Si02
#       7
#    24  24  24  24  24  24  24
#     4  10  20  36  59  85 116 152 194 251 308 358
#     4  10  21  39  64  92 123 161 206 256 308 366
#     4  10  20  36  57  84 114 148 194 245 297 348
#     4  11  23  37  54  77 110 152 195 239 289 352
#     4  11  24  40  61  92 130 165 200 247 304 370
#     4  11  22  35  55  84 116 151 193 242 297 358
#     4  10  21  37  57  80 106 140 187 241 294 349
#
# _framework density 19.543479999999999
#
# number of rings (size 3 to 8) (size 9 to 14) (size 15 to 20)
#    0.000    1.571    1.429    3.571    2.000    3.429 
#    0.000    1.429    0.000    6.571    0.000    0.000 
#    0.000    0.000    0.000    0.000    0.000    0.000 
#
# Total GULP energy -2081686.141236 kJ/mol
# GULP energy per Si atom -12390.988936 kJ/mol
# Density = 1.949900 g / cm^3
# Si number density = 19.543480 Si / 1000 Ang^3
#
#
#
# Elastic Constant Matrix: (Units=GPa)
#
#
# Indices 1 2 3 4 5 6 
#
# 1 111.8926 52.2137 39.3743 0.0000 0.0000 0.0000
# 2 52.2137 111.8926 39.3743 0.0000 0.0000 0.0000
# 3 39.3743 39.3743 69.3328 0.0000 0.0000 0.0000
# 4 0.0000 0.0000 0.0000 28.8440 0.0000 0.0000
# 5 0.0000 0.0000 0.0000 0.0000 28.8440 0.0000
# 6 0.0000 0.0000 0.0000 0.0000 0.0000 29.8394
#
#
#
# Elastic Compliance Matrix: (Units=1/GPa)
#
#
# Indices 1 2 3 4 5 6 
#
# 1 0.012566 -0.004190 -0.004757 0.000000 0.000000 0.000000
# 2 -0.004190 0.012566 -0.004757 0.000000 0.000000 0.000000
# 3 -0.004757 -0.004757 0.019826 0.000000 0.000000 0.000000
# 4 0.000000 0.000000 0.000000 0.034669 0.000000 0.000000
# 5 0.000000 0.000000 0.000000 0.000000 0.034669 0.000000
# 6 0.000000 0.000000 0.000000 0.000000 0.000000 0.033513
#
#
# Mechanical properties :
#
#
# Convention : Reuss Voigt Hill
#
# Bulk Modulus (GPa) = 56.97675 61.67140 59.32408
# Shear Modulus (GPa) = 27.61392 28.31585 27.96489
#
# Velocity S-wave (km/s) = 3.76300 3.81052 3.78684
# Velocity P-wave (km/s) = 6.93522 7.14035 7.03854
#
# Compressibility (1/GPa) = 0.01755102
#
# Stress axis : x y z
#
# Youngs Moduli (GPa) = 79.57782 79.57782 50.43851
#
# Poissons Ratio (x) = 0.33343 0.23993
# Poissons Ratio (y) = 0.33343 0.23993
# Poissons Ratio (z) = 0.37855 0.37855
#
# Static dielectric constant tensor:
#      x y z
#    x 3.747280 0.000000 0.000000 
#    y 0.000000 3.747280 0.000000 
#    z 0.000000 0.000000 3.644950 
# 
# 
# High freq. dielectric constant tensor:
#      x y z
#    x 1.756500 0.000000 0.000000 
#    y 0.000000 1.756500 0.000000 
#    z 0.000000 0.000000 1.764790 
# 
# From -- ./inp_files/9848.got.cif
#   From: 2010.03.12/outbox.cif.g09.slc.cpg/sg194_5_cif.got.tgz:9848.got - 2010.04.01 12:26:19.
