data_PCOD8330788
_publ_section_title
;
Structure prediction by ZEFSAII (Michael W. Deem and Ramdas Pophale) SiO2 
 PCOD8330788
Probable space group: P 63/M M C
;
_chemical_formula_sum "Si O2"
_cell_formula_units_Z 96
_cell_length_a 18.478740
_cell_length_b 18.478740
_cell_length_c 18.255224
_cell_angle_alpha 90.000000
_cell_angle_beta 90.000000
_cell_angle_gamma 120.000000
_cell_volume 5398.368264
_symmetry_space_group_name_H-M "P 63/M M C"
_symmetry_group_IT_number 194
_symmetry_cell_setting 'hexagonal'
loop_
_space_group_symop_operation_xyz
x,y,z
x-y,x,1/2+z
-y,x-y,z
-x,-y,1/2+z
-x+y,-x,z
y,-x+y,1/2+z
x-y,-y,-z
-x,-x+y,-z
y,x,-z
-y,-x,1/2-z
-x+y,y,1/2-z
x,x-y,1/2-z
-x,-y,-z
-x+y,-x,1/2-z
y,-x+y,-z
x,y,1/2-z
x-y,x,-z
-y,x-y,1/2-z
-x+y,y,z
x,x-y,z
-y,-x,z
y,x,1/2+z
x-y,-y,1/2+z
-x,-x+y,1/2+z
loop_
_atom_site_type_symbol
_atom_site_label
_atom_site_fract_x
_atom_site_fract_y
_atom_site_fract_z
Si Si1 0.499162 0.832141 0.165308
Si Si2 0.083784 0.749291 0.835585
Si Si3 0.165994 0.000128 0.915648
Si Si4 0.583866 0.583218 0.414467
O O1 0.523115 0.854565 0.250000
O O2 0.403892 0.807784 0.150984
O O3 0.509189 0.754594 0.140191
O O4 0.562111 0.911004 0.117304
O O5 0.068145 0.731746 0.750000
O O6 0.177083 0.822918 0.852923
O O7 0.016233 0.772517 0.865769
O O8 0.072322 0.666797 0.875601
O O9 0.177182 0.088591 0.891867
O O10 0.069892 0.930109 0.902651
O O11 0.190897 0.000000 0.000000
O O12 0.599932 0.599932 0.500000
O O13 0.510387 0.489614 0.397379
#
# Coordination Sequence:
#
# PCOD8330788 Si02
#       4
#    24  24  24  24
#     4   9  17  30  50  77 107 135 161 193 239 296
#     4  10  21  35  50  70  97 131 169 207 250 295
#     4   9  17  30  49  73 102 137 175 212 248 286
#     4  10  21  36  54  76 100 128 163 202 247 298
#
# _framework density 17.783149999999999
#
# number of rings (size 3 to 8) (size 9 to 14) (size 15 to 20)
#    0.000    2.500    0.000    2.000    0.000    6.000 
#    0.000    0.000    0.000    2.000    0.000    0.000 
#    0.000    0.000    0.000    0.000    0.000    0.000 
#
# Total GULP energy -1190746.475161 kJ/mol
# GULP energy per Si atom -12403.609116 kJ/mol
# Density = 1.774268 g / cm^3
# Si number density = 17.783150 Si / 1000 Ang^3
#
#
#
# Elastic Constant Matrix: (Units=GPa)
#
#
# Indices 1 2 3 4 5 6 
#
# 1 105.9880 64.2957 64.1287 0.0000 0.0000 0.0000
# 2 64.2957 105.9880 64.1287 0.0000 0.0000 0.0000
# 3 64.1287 64.1287 100.2668 0.0000 0.0000 0.0000
# 4 0.0000 0.0000 0.0000 27.5319 0.0000 0.0000
# 5 0.0000 0.0000 0.0000 0.0000 27.5319 0.0000
# 6 0.0000 0.0000 0.0000 0.0000 0.0000 20.8461
#
#
#
# Elastic Compliance Matrix: (Units=1/GPa)
#
#
# Indices 1 2 3 4 5 6 
#
# 1 0.017658 -0.006327 -0.007247 0.000000 0.000000 0.000000
# 2 -0.006327 0.017658 -0.007247 0.000000 0.000000 0.000000
# 3 -0.007247 -0.007247 0.019244 0.000000 0.000000 0.000000
# 4 0.000000 0.000000 0.000000 0.036322 0.000000 0.000000
# 5 0.000000 0.000000 0.000000 0.000000 0.036322 0.000000
# 6 0.000000 0.000000 0.000000 0.000000 0.000000 0.047971
#
#
# Mechanical properties :
#
#
# Convention : Reuss Voigt Hill
#
# Bulk Modulus (GPa) = 77.41581 77.48322 77.44952
# Shear Modulus (GPa) = 22.61194 23.16129 22.88661
#
# Velocity S-wave (km/s) = 3.56973 3.61283 3.59135
# Velocity P-wave (km/s) = 7.78578 7.81468 7.80024
#
# Compressibility (1/GPa) = 0.01291726
#
# Stress axis : x y z
#
# Youngs Moduli (GPa) = 56.63098 56.63098 51.96520
#
# Poissons Ratio (x) = 0.35831 0.37660
# Poissons Ratio (y) = 0.35831 0.37660
# Poissons Ratio (z) = 0.41041 0.41041
#
# Static dielectric constant tensor:
#      x y z
#    x 3.284600 0.000000 0.000000 
#    y 0.000000 3.284600 0.000000 
#    z 0.000000 0.000000 3.284180 
# 
# 
# High freq. dielectric constant tensor:
#      x y z
#    x 1.684160 0.000000 0.000000 
#    y 0.000000 1.684160 0.000000 
#    z 0.000000 0.000000 1.689280 
# 
# From -- ./inp_files/7755.got.cif
#   From: 2010.03.12/outbox.cif.g09.slc.cpg/sg194_4_cif.got.tgz:7755.got - 2010.04.01 12:26:19.
