data_PCOD8330403
_publ_section_title
;
Structure prediction by ZEFSAII (Michael W. Deem and Ramdas Pophale) SiO2 
 PCOD8330403
Probable space group: P 63/M M C
;
_chemical_formula_sum "Si O2"
_cell_formula_units_Z 112
_cell_length_a 29.631738
_cell_length_b 29.631738
_cell_length_c 8.825582
_cell_angle_alpha 90.000000
_cell_angle_beta 90.000000
_cell_angle_gamma 120.000000
_cell_volume 6711.015412
_symmetry_space_group_name_H-M "P 63/M M C"
_symmetry_group_IT_number 194
_symmetry_cell_setting 'hexagonal'
loop_
_space_group_symop_operation_xyz
x,y,z
x-y,x,1/2+z
-y,x-y,z
-x,-y,1/2+z
-x+y,-x,z
y,-x+y,1/2+z
x-y,-y,-z
-x,-x+y,-z
y,x,-z
-y,-x,1/2-z
-x+y,y,1/2-z
x,x-y,1/2-z
-x,-y,-z
-x+y,-x,1/2-z
y,-x+y,-z
x,y,1/2-z
x-y,x,-z
-y,x-y,1/2-z
-x+y,y,z
x,x-y,z
-y,-x,z
y,x,1/2+z
x-y,-y,1/2+z
-x,-x+y,1/2+z
loop_
_atom_site_type_symbol
_atom_site_label
_atom_site_fract_x
_atom_site_fract_y
_atom_site_fract_z
Si Si1 0.052217 0.398419 0.573259
Si Si2 0.609790 0.219579 0.427058
Si Si3 0.666667 0.333334 0.570593
Si Si4 0.781190 0.218811 0.572486
Si Si5 0.161160 0.838841 0.429014
Si Si6 0.751284 0.698224 0.570344
Si Si7 0.671405 0.161804 0.075507
O O1 0.042647 0.384382 0.750000
O O2 0.065026 0.357421 0.493191
O O3 0.099618 0.456918 0.546322
O O4 0.000000 0.393676 0.500000
O O5 0.616614 0.233227 0.250000
O O6 0.636944 0.273888 0.515114
O O7 0.549739 0.183978 0.473409
O O8 0.666667 0.333334 0.750000
O O9 0.783927 0.216074 0.750000
O O10 0.809939 0.190062 0.497773
O O11 0.809436 0.278176 0.525622
O O12 0.164187 0.835814 0.250000
O O13 0.191779 0.899498 0.479145
O O14 0.744807 0.744807 0.500000
O O15 0.745272 0.697808 0.750000
O O16 0.688146 0.174483 0.250000
#
# Coordination Sequence:
#
# PCOD8330403 Si02
#       7
#    24  12   4  12  12  24  24
#     4  10  19  31  48  71  97 126 159 199 240 283
#     4  10  22  41  60  73  95 129 156 186 239 301
#     4  12  25  41  58  84 106 119 148 192 244 302
#     4  11  20  32  51  74  99 125 150 195 248 291
#     4   9  18  30  46  69 100 133 162 193 242 292
#     4  10  18  31  47  69  99 134 168 200 242 287
#     4  10  21  36  53  74  96 123 162 200 236 288
#
# _framework density 16.688980000000001
#
# number of rings (size 3 to 8) (size 9 to 14) (size 15 to 20)
#    0.000    1.929    2.143    3.857    0.000    4.286 
#    0.000    2.679    0.000    0.000    0.000    0.000 
#    0.000    0.000    0.000    0.321    0.000    3.857 
#
# Total GULP energy -1388512.223596 kJ/mol
# GULP energy per Si atom -12397.430568 kJ/mol
# Density = 1.665100 g / cm^3
# Si number density = 16.688980 Si / 1000 Ang^3
#
#
#
# Elastic Constant Matrix: (Units=GPa)
#
#
# Indices 1 2 3 4 5 6 
#
# 1 134.3899 72.5568 44.4727 -0.0001 0.0000 0.0001
# 2 72.5568 134.3896 44.4726 0.0000 0.0000 0.0000
# 3 44.4727 44.4726 73.8408 -0.0001 0.0000 0.0000
# 4 -0.0001 0.0000 -0.0001 17.3915 0.0000 0.0000
# 5 0.0000 0.0000 0.0000 0.0000 17.3915 0.0000
# 6 0.0001 0.0000 0.0000 0.0000 0.0000 30.9166
#
#
#
# Elastic Compliance Matrix: (Units=1/GPa)
#
#
# Indices 1 2 3 4 5 6 
#
# 1 0.011346 -0.004826 -0.003927 0.000000 0.000000 0.000000
# 2 -0.004826 0.011346 -0.003927 0.000000 0.000000 0.000000
# 3 -0.003927 -0.003927 0.018273 0.000000 0.000000 0.000000
# 4 0.000000 0.000000 0.000000 0.057499 0.000000 0.000000
# 5 0.000000 0.000000 0.000000 0.000000 0.057499 0.000000
# 6 0.000000 0.000000 0.000000 0.000000 0.000000 0.032345
#
#
# Mechanical properties :
#
#
# Convention : Reuss Voigt Hill
#
# Bulk Modulus (GPa) = 64.08072 73.95829 69.01950
# Shear Modulus (GPa) = 22.84458 25.21448 24.02953
#
# Velocity S-wave (km/s) = 3.70380 3.89118 3.79864
# Velocity P-wave (km/s) = 7.53467 8.03742 7.79010
#
# Compressibility (1/GPa) = 0.01560532
#
# Stress axis : x y z
#
# Youngs Moduli (GPa) = 88.13492 88.13472 54.72655
#
# Poissons Ratio (x) = 0.42537 0.21490
# Poissons Ratio (y) = 0.42537 0.21490
# Poissons Ratio (z) = 0.34609 0.34609
#
# Static dielectric constant tensor:
#      x y z
#    x 3.364130 0.000000 0.000000 
#    y 0.000000 3.364130 0.000000 
#    z 0.000000 0.000000 3.137080 
# 
# 
# High freq. dielectric constant tensor:
#      x y z
#    x 1.632010 0.000000 0.000000 
#    y 0.000000 1.632010 0.000000 
#    z 0.000000 0.000000 1.645570 
# 
# From -- ./inp_files/1977.got.cif
#   From: 2010.03.12/outbox.cif.g09.slc.cpg/sg194_1_cif.got.tgz:1977.got - 2010.04.01 12:26:19.
