data_PCOD8330179
_publ_section_title
;
Structure prediction by ZEFSAII (Michael W. Deem and Ramdas Pophale) SiO2 
 PCOD8330179
Probable space group: P 63/M C M
;
_chemical_formula_sum "Si O2"
_cell_formula_units_Z 72
_cell_length_a 17.354578
_cell_length_b 17.354578
_cell_length_c 14.337765
_cell_angle_alpha 90.000000
_cell_angle_beta 90.000000
_cell_angle_gamma 120.000000
_cell_volume 3739.729627
_symmetry_space_group_name_H-M "P 63/M C M"
_symmetry_group_IT_number 193
_symmetry_cell_setting 'hexagonal'
loop_
_space_group_symop_operation_xyz
x,y,z
x-y,x,1/2+z
-y,x-y,z
-x,-y,1/2+z
-x+y,-x,z
y,-x+y,1/2+z
x-y,-y,1/2-z
-x,-x+y,1/2-z
y,x,1/2-z
-y,-x,-z
-x+y,y,-z
x,x-y,-z
-x,-y,-z
-x+y,-x,1/2-z
y,-x+y,-z
x,y,1/2-z
x-y,x,-z
-y,x-y,1/2-z
-x+y,y,1/2+z
x,x-y,1/2+z
-y,-x,1/2+z
y,x,z
x-y,-y,z
-x,-x+y,z
loop_
_atom_site_type_symbol
_atom_site_label
_atom_site_fract_x
_atom_site_fract_y
_atom_site_fract_z
Si Si1 0.900149 0.392004 0.076623
Si Si2 0.000000 0.692647 0.988789
Si Si3 0.000000 0.818998 0.140197
Si Si4 0.000000 0.830706 0.640804
Si Si5 0.227166 0.574753 0.250000
O O1 0.911032 0.315109 0.023570
O O2 0.830522 0.353068 0.160489
O O3 0.000000 0.468411 0.111344
O O4 0.861070 0.430535 0.000000
O O5 0.000000 0.746738 0.899958
O O6 0.000000 0.737378 0.086884
O O7 0.917730 0.829315 0.106914
O O8 0.000000 0.800899 0.250000
O O9 0.000000 0.823384 0.750000
O O10 0.320795 0.573534 0.250000
#
# Coordination Sequence:
#
# PCOD8330179 Si02
#       5
#    24  12  12  12  12
#     4   9  21  44  65  87 124 169 203 253 328 381
#     4  10  21  38  61  90 121 167 206 254 316 374
#     4  10  21  41  57  92 130 163 219 258 311 376
#     4  10  21  37  61  86 122 169 206 257 311 369
#     4  10  23  42  64 100 120 159 216 260 316 380
#
# _framework density 19.252728999999999
#
# number of rings (size 3 to 8) (size 9 to 14) (size 15 to 20)
#    1.333    1.000    0.000    1.833    2.333    2.667 
#   15.000    1.667    0.000    0.000    0.000    0.000 
#    0.000    0.000    0.000    0.000    0.000    0.000 
#
# Total GULP energy -892040.096200 kJ/mol
# GULP energy per Si atom -12389.445781 kJ/mol
# Density = 1.920891 g / cm^3
# Si number density = 19.252729 Si / 1000 Ang^3
#
#
#
# Elastic Constant Matrix: (Units=GPa)
#
#
# Indices 1 2 3 4 5 6 
#
# 1 94.7091 73.5957 60.7931 0.0000 0.0000 0.0000
# 2 73.5957 94.7091 60.7931 0.0000 0.0000 0.0000
# 3 60.7931 60.7931 102.0972 0.0000 0.0000 0.0000
# 4 0.0000 0.0000 0.0000 51.7391 0.0000 0.0000
# 5 0.0000 0.0000 0.0000 0.0000 51.7391 0.0000
# 6 0.0000 0.0000 0.0000 0.0000 0.0000 10.5567
#
#
#
# Elastic Compliance Matrix: (Units=1/GPa)
#
#
# Indices 1 2 3 4 5 6 
#
# 1 0.028895 -0.018468 -0.006209 0.000000 0.000000 0.000000
# 2 -0.018468 0.028895 -0.006209 0.000000 0.000000 0.000000
# 3 -0.006209 -0.006209 0.017188 0.000000 0.000000 0.000000
# 4 0.000000 0.000000 0.000000 0.019328 0.000000 0.000000
# 5 0.000000 0.000000 0.000000 0.000000 0.019328 0.000000
# 6 0.000000 0.000000 0.000000 0.000000 0.000000 0.094727
#
#
# Mechanical properties :
#
#
# Convention : Reuss Voigt Hill
#
# Bulk Modulus (GPa) = 75.71400 75.76438 75.73919
# Shear Modulus (GPa) = 18.21270 29.22921 23.72096
#
# Velocity S-wave (km/s) = 3.07902 3.90062 3.51391
# Velocity P-wave (km/s) = 7.21472 7.72816 7.47585
#
# Compressibility (1/GPa) = 0.01320760
#
# Stress axis : x y z
#
# Youngs Moduli (GPa) = 34.60802 34.60802 58.17919
#
# Poissons Ratio (x) = 0.63915 0.36121
# Poissons Ratio (y) = 0.63915 0.36121
# Poissons Ratio (z) = 0.21487 0.21487
#
# Static dielectric constant tensor:
#      x y z
#    x 3.558630 0.000000 0.000000 
#    y 0.000000 3.558630 0.000000 
#    z 0.000000 0.000000 3.345350 
# 
# 
# High freq. dielectric constant tensor:
#      x y z
#    x 1.742430 0.000000 0.000000 
#    y 0.000000 1.742430 0.000000 
#    z 0.000000 0.000000 1.752090 
# 
# From -- ./inp_files/4865.got.cif
#   From: 2010.03.12/outbox.cif.g09.slc.cpg/sg193_3_cif.got.tgz:4865.got - 2010.04.01 12:20:39.
