data_PCOD8330287
_publ_section_title
;
Structure prediction by ZEFSAII (Michael W. Deem and Ramdas Pophale) SiO2 
 PCOD8330287
Probable space group: P 63/M M C
;
_chemical_formula_sum "Si O2"
_cell_formula_units_Z 108
_cell_length_a 31.600885
_cell_length_b 31.600885
_cell_length_c 8.837232
_cell_angle_alpha 90.000000
_cell_angle_beta 90.000000
_cell_angle_gamma 120.000000
_cell_volume 7642.674775
_symmetry_space_group_name_H-M "P 63/M M C"
_symmetry_group_IT_number 194
_symmetry_cell_setting 'hexagonal'
loop_
_space_group_symop_operation_xyz
x,y,z
x-y,x,1/2+z
-y,x-y,z
-x,-y,1/2+z
-x+y,-x,z
y,-x+y,1/2+z
x-y,-y,-z
-x,-x+y,-z
y,x,-z
-y,-x,1/2-z
-x+y,y,1/2-z
x,x-y,1/2-z
-x,-y,-z
-x+y,-x,1/2-z
y,-x+y,-z
x,y,1/2-z
x-y,x,-z
-y,x-y,1/2-z
-x+y,y,z
x,x-y,z
-y,-x,z
y,x,1/2+z
x-y,-y,1/2+z
-x,-x+y,1/2+z
loop_
_atom_site_type_symbol
_atom_site_label
_atom_site_fract_x
_atom_site_fract_y
_atom_site_fract_z
Si Si1 0.947655 0.555270 0.925117
Si Si2 0.802402 0.701619 0.427684
Si Si3 0.298397 0.351471 0.425839
Si Si4 0.049471 0.853673 0.073017
Si Si5 0.527189 0.054377 0.429311
O O1 0.952964 0.545930 0.750000
O O2 0.923835 0.589761 0.946763
O O3 0.918791 0.502303 0.009567
O O4 0.000000 0.585357 0.000000
O O5 0.796985 0.705105 0.250000
O O6 0.844267 0.688534 0.468452
O O7 0.751959 0.659712 0.496909
O O8 0.814796 0.753019 0.499546
O O9 0.319787 0.319787 0.500000
O O10 0.290201 0.337435 0.250000
O O11 0.042564 0.843376 0.250000
O O12 0.091419 0.908582 0.036063
O O13 0.000000 0.846928 0.000000
O O14 0.526766 0.053531 0.250000
O O15 0.500000 0.000000 0.500000
#
# Coordination Sequence:
#
# PCOD8330287 Si02
#       5
#    24  24  24  24  12
#     4   9  16  25  36  51  71  96 125 156 190 223
#     4  10  20  32  45  60  79 103 129 159 194 232
#     4  10  19  29  42  58  77 101 128 161 197 232
#     4  10  20  33  49  67  85 104 125 151 185 227
#     4  10  16  22  34  50  70  96 124 156 190 220
#
# _framework density 14.131178
#
# number of rings (size 3 to 8) (size 9 to 14) (size 15 to 20)
#    0.000    2.222    0.000    5.667    0.000    5.333 
#    0.000    0.000    0.000    0.222    0.000    0.000 
#    0.000    0.000    0.000    0.000    0.000    0.000 
#
# Total GULP energy -1338644.840194 kJ/mol
# GULP energy per Si atom -12394.859631 kJ/mol
# Density = 1.409901 g / cm^3
# Si number density = 14.131178 Si / 1000 Ang^3
#
#
#
# Elastic Constant Matrix: (Units=GPa)
#
#
# Indices 1 2 3 4 5 6 
#
# 1 79.6997 41.1500 45.2848 0.0000 0.0000 0.0000
# 2 41.1500 79.6997 45.2848 0.0000 0.0000 0.0000
# 3 45.2848 45.2848 108.0580 0.0000 0.0000 0.0000
# 4 0.0000 0.0000 0.0000 22.2908 0.0000 0.0000
# 5 0.0000 0.0000 0.0000 0.0000 22.2908 0.0000
# 6 0.0000 0.0000 0.0000 0.0000 0.0000 19.2748
#
#
#
# Elastic Compliance Matrix: (Units=1/GPa)
#
#
# Indices 1 2 3 4 5 6 
#
# 1 0.019002 -0.006938 -0.005056 0.000000 0.000000 0.000000
# 2 -0.006938 0.019002 -0.005056 0.000000 0.000000 0.000000
# 3 -0.005056 -0.005056 0.013492 0.000000 0.000000 0.000000
# 4 0.000000 0.000000 0.000000 0.044861 0.000000 0.000000
# 5 0.000000 0.000000 0.000000 0.000000 0.044861 0.000000
# 6 0.000000 0.000000 0.000000 0.000000 0.000000 0.051881
#
#
# Mechanical properties :
#
#
# Convention : Reuss Voigt Hill
#
# Bulk Modulus (GPa) = 57.48284 58.98850 58.23567
# Shear Modulus (GPa) = 21.45941 21.82050 21.63995
#
# Velocity S-wave (km/s) = 3.90113 3.93382 3.91751
# Velocity P-wave (km/s) = 7.81397 7.90363 7.85893
#
# Compressibility (1/GPa) = 0.01739650
#
# Stress axis : x y z
#
# Youngs Moduli (GPa) = 52.62582 52.62582 74.11989
#
# Poissons Ratio (x) = 0.36514 0.37472
# Poissons Ratio (y) = 0.36514 0.37472
# Poissons Ratio (z) = 0.26605 0.26605
#
# Static dielectric constant tensor:
#      x y z
#    x 2.973460 0.000000 0.000000 
#    y 0.000000 2.973460 0.000000 
#    z 0.000000 0.000000 2.987140 
# 
# 
# High freq. dielectric constant tensor:
#      x y z
#    x 1.511880 0.000000 0.000000 
#    y 0.000000 1.511880 0.000000 
#    z 0.000000 0.000000 1.565370 
# 
# From -- ./inp_files/1855.got.cif
#   From: 2010.03.12/outbox.cif.g09.slc.cpg/sg194_1_cif.got.tgz:1855.got - 2010.04.01 12:26:19.
