data_PCOD8330653
_publ_section_title
;
Structure prediction by ZEFSAII (Michael W. Deem and Ramdas Pophale) SiO2 
 PCOD8330653
Probable space group: P 63/M M C
;
_chemical_formula_sum "Si O2"
_cell_formula_units_Z 168
_cell_length_a 18.012119
_cell_length_b 18.012119
_cell_length_c 30.464507
_cell_angle_alpha 90.000000
_cell_angle_beta 90.000000
_cell_angle_gamma 120.000000
_cell_volume 8559.618352
_symmetry_space_group_name_H-M "P 63/M M C"
_symmetry_group_IT_number 194
_symmetry_cell_setting 'hexagonal'
loop_
_space_group_symop_operation_xyz
x,y,z
x-y,x,1/2+z
-y,x-y,z
-x,-y,1/2+z
-x+y,-x,z
y,-x+y,1/2+z
x-y,-y,-z
-x,-x+y,-z
y,x,-z
-y,-x,1/2-z
-x+y,y,1/2-z
x,x-y,1/2-z
-x,-y,-z
-x+y,-x,1/2-z
y,-x+y,-z
x,y,1/2-z
x-y,x,-z
-y,x-y,1/2-z
-x+y,y,z
x,x-y,z
-y,-x,z
y,x,1/2+z
x-y,-y,1/2+z
-x,-x+y,1/2+z
loop_
_atom_site_type_symbol
_atom_site_label
_atom_site_fract_x
_atom_site_fract_y
_atom_site_fract_z
Si Si1 0.001970 0.171528 0.633643
Si Si2 0.423901 0.020256 0.143197
Si Si3 0.837539 0.500576 0.606314
Si Si4 0.914866 0.348193 0.516944
Si Si5 0.669055 0.163903 0.072618
Si Si6 0.960556 0.209340 0.543953
Si Si7 0.923918 0.677853 0.199383
O O1 0.068982 0.137963 0.637648
O O2 0.015439 0.237095 0.672151
O O3 0.017564 0.219725 0.586703
O O4 0.907631 0.092369 0.638801
O O5 0.512486 0.024971 0.156012
O O6 0.436356 0.080192 0.101540
O O7 0.396294 0.056641 0.184354
O O8 0.351325 0.922021 0.132420
O O9 0.760386 0.520772 0.613121
O O10 0.809025 0.404513 0.623285
O O11 0.862119 0.500527 0.555279
O O12 0.851553 0.306199 0.476017
O O13 0.952275 0.292125 0.537620
O O14 0.000000 0.435895 0.500000
O O15 0.592143 0.184286 0.070494
O O16 0.753192 0.246808 0.092118
O O17 0.867440 0.132561 0.553319
O O18 0.000000 0.191804 0.500000
O O19 0.948969 0.698667 0.250000
O O20 0.823921 0.647841 0.191486
#
# Coordination Sequence:
#
# PCOD8330653 Si02
#       7
#    24  24  24  24  24  24  24
#     4  10  21  37  58  84 118 157 200 245 291 341
#     4  10  22  39  61  87 114 148 186 234 294 355
#     4  11  22  37  56  80 112 151 196 244 294 348
#     4  11  21  33  50  74 107 150 195 243 288 339
#     4  11  22  36  55  80 112 150 193 239 289 346
#     4  10  20  32  48  75 108 148 195 239 285 335
#     4  10  22  40  62  90 120 150 188 236 287 344
#
# _framework density 19.627044000000001
#
# number of rings (size 3 to 8) (size 9 to 14) (size 15 to 20)
#    0.000    1.571    1.429    3.857    2.000    2.857 
#    0.000    1.429    0.000    3.429    0.000    0.000 
#    0.000    1.143    0.000    0.000    0.000    0.000 
#
# Total GULP energy -2082733.043734 kJ/mol
# GULP energy per Si atom -12397.220498 kJ/mol
# Density = 1.958237 g / cm^3
# Si number density = 19.627044 Si / 1000 Ang^3
#
#
#
# Elastic Constant Matrix: (Units=GPa)
#
#
# Indices 1 2 3 4 5 6 
#
# 1 100.5521 69.3093 46.8181 0.0000 0.0000 0.0000
# 2 69.3093 100.5521 46.8181 0.0000 0.0000 0.0000
# 3 46.8181 46.8181 125.6356 0.0000 0.0000 0.0000
# 4 0.0000 0.0000 0.0000 24.0852 0.0000 0.0000
# 5 0.0000 0.0000 0.0000 0.0000 24.0852 0.0000
# 6 0.0000 0.0000 0.0000 0.0000 0.0000 15.6214
#
#
#
# Elastic Compliance Matrix: (Units=1/GPa)
#
#
# Indices 1 2 3 4 5 6 
#
# 1 0.019708 -0.012299 -0.002761 0.000000 0.000000 0.000000
# 2 -0.012299 0.019708 -0.002761 0.000000 0.000000 0.000000
# 3 -0.002761 -0.002761 0.010017 0.000000 0.000000 0.000000
# 4 0.000000 0.000000 0.000000 0.041519 0.000000 0.000000
# 5 0.000000 0.000000 0.000000 0.000000 0.041519 0.000000
# 6 0.000000 0.000000 0.000000 0.000000 0.000000 0.064015
#
#
# Mechanical properties :
#
#
# Convention : Reuss Voigt Hill
#
# Bulk Modulus (GPa) = 72.50817 72.51456 72.51137
# Shear Modulus (GPa) = 21.12141 23.67797 22.39969
#
# Velocity S-wave (km/s) = 3.28401 3.47709 3.38193
# Velocity P-wave (km/s) = 7.16958 7.29017 7.23013
#
# Compressibility (1/GPa) = 0.01379155
#
# Stress axis : x y z
#
# Youngs Moduli (GPa) = 50.74017 50.74017 99.82708
#
# Poissons Ratio (x) = 0.62406 0.27563
# Poissons Ratio (y) = 0.62406 0.27563
# Poissons Ratio (z) = 0.14010 0.14010
#
# Static dielectric constant tensor:
#      x y z
#    x 3.614120 0.000000 0.000000 
#    y 0.000000 3.614120 0.000000 
#    z 0.000000 0.000000 3.656190 
# 
# 
# High freq. dielectric constant tensor:
#      x y z
#    x 1.769250 0.000000 0.000000 
#    y 0.000000 1.769250 0.000000 
#    z 0.000000 0.000000 1.737830 
# 
# From -- ./inp_files/12296.got.cif
#   From: 2010.03.12/outbox.cif.g09.slc.cpg/sg194_7_cif.got.tgz:12296.got - 2010.04.01 12:26:19.
