data_PCOD8330416
_publ_section_title
;
Structure prediction by ZEFSAII (Michael W. Deem and Ramdas Pophale) SiO2 
 PCOD8330416
Probable space group: P 63/M M C
;
_chemical_formula_sum "Si O2"
_cell_formula_units_Z 60
_cell_length_a 20.958157
_cell_length_b 20.958157
_cell_length_c 8.549635
_cell_angle_alpha 90.000000
_cell_angle_beta 90.000000
_cell_angle_gamma 120.000000
_cell_volume 3252.253463
_symmetry_space_group_name_H-M "P 63/M M C"
_symmetry_group_IT_number 194
_symmetry_cell_setting 'hexagonal'
loop_
_space_group_symop_operation_xyz
x,y,z
x-y,x,1/2+z
-y,x-y,z
-x,-y,1/2+z
-x+y,-x,z
y,-x+y,1/2+z
x-y,-y,-z
-x,-x+y,-z
y,x,-z
-y,-x,1/2-z
-x+y,y,1/2-z
x,x-y,1/2-z
-x,-y,-z
-x+y,-x,1/2-z
y,-x+y,-z
x,y,1/2-z
x-y,x,-z
-y,x-y,1/2-z
-x+y,y,z
x,x-y,z
-y,-x,z
y,x,1/2+z
x-y,-y,1/2+z
-x,-x+y,1/2+z
loop_
_atom_site_type_symbol
_atom_site_label
_atom_site_fract_x
_atom_site_fract_y
_atom_site_fract_z
Si Si1 0.918143 0.081858 0.434598
Si Si2 0.166861 0.833140 0.564819
Si Si3 0.081698 0.411109 0.435125
Si Si4 0.541155 0.458845 0.064469
O O1 0.922051 0.077950 0.250000
O O2 0.875672 0.124329 0.487847
O O3 0.000000 0.125006 0.500000
O O4 0.170620 0.829381 0.750000
O O5 0.247173 0.873262 0.493629
O O6 0.079677 0.412068 0.250000
O O7 0.120269 0.495502 0.499481
O O8 0.000000 0.363391 0.500000
O O9 0.541778 0.458223 0.250000
O O10 0.500000 0.500000 0.000000
#
# Coordination Sequence:
#
# PCOD8330416 Si02
#       4
#    12  12  24  12
#     4  11  24  40  59  79 107 145 192 243 295 351
#     4  11  23  38  56  82 112 146 186 234 286 338
#     4  11  21  35  55  81 111 144 180 223 272 327
#     4  10  18  32  54  79 106 137 172 213 256 309
#
# _framework density 18.448746
#
# number of rings (size 3 to 8) (size 9 to 14) (size 15 to 20)
#    0.000    1.200    0.000   10.400    0.000    6.400 
#    0.000    0.000    0.000    0.800    0.000    5.600 
#    0.000    0.000    0.000    0.000    0.000    0.000 
#
# Total GULP energy -743995.637182 kJ/mol
# GULP energy per Si atom -12399.927286 kJ/mol
# Density = 1.840676 g / cm^3
# Si number density = 18.448746 Si / 1000 Ang^3
#
#
#
# Elastic Constant Matrix: (Units=GPa)
#
#
# Indices 1 2 3 4 5 6 
#
# 1 146.2143 103.3242 73.5743 0.0000 0.0000 0.0000
# 2 103.3242 146.2143 73.5743 0.0000 0.0000 0.0000
# 3 73.5743 73.5743 162.4954 0.0000 0.0000 0.0000
# 4 0.0000 0.0000 0.0000 31.6456 0.0000 0.0000
# 5 0.0000 0.0000 0.0000 0.0000 31.6456 0.0000
# 6 0.0000 0.0000 0.0000 0.0000 0.0000 21.4450
#
#
#
# Elastic Compliance Matrix: (Units=1/GPa)
#
#
# Indices 1 2 3 4 5 6 
#
# 1 0.014391 -0.008924 -0.002475 0.000000 0.000000 0.000000
# 2 -0.008924 0.014391 -0.002475 0.000000 0.000000 0.000000
# 3 -0.002475 -0.002475 0.008396 0.000000 0.000000 0.000000
# 4 0.000000 0.000000 0.000000 0.031600 0.000000 0.000000
# 5 0.000000 0.000000 0.000000 0.000000 0.031600 0.000000
# 6 0.000000 0.000000 0.000000 0.000000 0.000000 0.046631
#
#
# Mechanical properties :
#
#
# Convention : Reuss Voigt Hill
#
# Bulk Modulus (GPa) = 106.06389 106.20774 106.13581
# Shear Modulus (GPa) = 28.10546 30.57734 29.34140
#
# Velocity S-wave (km/s) = 3.90735 4.07556 3.99234
# Velocity P-wave (km/s) = 8.83020 8.93538 8.88295
#
# Compressibility (1/GPa) = 0.00942828
#
# Stress axis : x y z
#
# Youngs Moduli (GPa) = 69.48669 69.48669 119.10984
#
# Poissons Ratio (x) = 0.62011 0.29484
# Poissons Ratio (y) = 0.62011 0.29484
# Poissons Ratio (z) = 0.17201 0.17201
#
# Static dielectric constant tensor:
#      x y z
#    x 3.789460 0.000000 0.000000 
#    y 0.000000 3.789460 0.000000 
#    z 0.000000 0.000000 3.651790 
# 
# 
# High freq. dielectric constant tensor:
#      x y z
#    x 1.713320 0.000000 0.000000 
#    y 0.000000 1.713320 0.000000 
#    z 0.000000 0.000000 1.742200 
# 
# From -- ./inp_files/816.got.cif
#   From: 2010.03.12/outbox.cif.g09.slc.cpg/sg194_1_cif.got.tgz:816.got - 2010.04.01 12:26:19.
