data_PCOD8330925
_publ_section_title
;
Structure prediction by ZEFSAII (Michael W. Deem and Ramdas Pophale) SiO2 
 PCOD8330925
Probable space group: P N 3
;
_chemical_formula_sum "Si O2"
_cell_formula_units_Z 120
_cell_length_a 17.331956
_cell_length_b 17.331956
_cell_length_c 17.331956
_cell_angle_alpha 90.000000
_cell_angle_beta 90.000000
_cell_angle_gamma 90.000000
_cell_volume 5206.462366
_symmetry_space_group_name_H-M "P N 3"
_symmetry_group_IT_number 201
_space_group.IT_coordinate_system_code '2'
_symmetry_cell_setting 'cubic'
loop_
_space_group_symop_operation_xyz
x,y,z
z,x,y
y,z,x
1/2-y,1/2-z,x
z,1/2-x,1/2-y
1/2-y,z,1/2-x
1/2-z,1/2-x,y
1/2-z,x,1/2-y
y,1/2-z,1/2-x
1/2-x,1/2-y,z
x,1/2-y,1/2-z
1/2-x,y,1/2-z
-x,-y,-z
-z,-x,-y
-y,-z,-x
1/2+y,1/2+z,-x
-z,1/2+x,1/2+y
1/2+y,-z,1/2+x
1/2+z,1/2+x,-y
1/2+z,-x,1/2+y
-y,1/2+z,1/2+x
1/2+x,1/2+y,-z
-x,1/2+y,1/2+z
1/2+x,-y,1/2+z
loop_
_atom_site_type_symbol
_atom_site_label
_atom_site_fract_x
_atom_site_fract_y
_atom_site_fract_z
Si Si1 0.495989 0.382246 0.237784
Si Si2 0.243504 0.364028 0.996245
Si Si3 0.440444 0.393614 0.891069
Si Si4 0.715005 0.594525 0.331158
Si Si5 0.228516 0.579985 0.831905
O O1 0.515574 0.336115 0.316565
O O2 0.464227 0.313878 0.182556
O O3 0.437106 0.448053 0.265655
O O4 0.564137 0.422535 0.187247
O O5 0.266358 0.387233 0.907347
O O6 0.394522 0.469246 0.918937
O O7 0.417074 0.386695 0.802514
O O8 0.750000 0.625934 0.250000
O O9 0.631423 0.633681 0.340220
O O10 0.696106 0.505161 0.322626
O O11 0.250000 0.615815 0.750000
#
# Coordination Sequence:
#
# PCOD8330925 Si02
#       5
#    24  24  24  24  24
#     4  11  23  42  65  99 135 183 237 294 370 438
#     4  11  24  42  68  96 138 184 238 302 359 446
#     4  12  23  39  65  98 134 173 227 300 375 446
#     4  11  24  42  63  94 127 169 218 273 347 423
#     4  11  23  40  62  87 124 167 212 268 335 421
#
# _framework density 23.048279999999998
#
# number of rings (size 3 to 8) (size 9 to 14) (size 15 to 20)
#    0.000    0.800    0.000    9.400    0.000    3.600 
#    0.000    0.000    0.000    4.800    0.000    0.000 
#    0.000    0.000    0.000    0.000    0.000    0.000 
#
# Total GULP energy -1486567.754217 kJ/mol
# GULP energy per Si atom -12388.064618 kJ/mol
# Density = 2.299582 g / cm^3
# Si number density = 23.048280 Si / 1000 Ang^3
#
#
#
# Elastic Constant Matrix: (Units=GPa)
#
#
# Indices 1 2 3 4 5 6 
#
# 1 109.0911 37.1367 37.1367 0.0000 0.0000 0.0000
# 2 37.1367 109.0911 37.1367 0.0000 0.0000 0.0000
# 3 37.1367 37.1367 109.0911 0.0000 0.0000 0.0000
# 4 0.0000 0.0000 0.0000 38.0203 0.0000 0.0000
# 5 0.0000 0.0000 0.0000 0.0000 38.0203 0.0000
# 6 0.0000 0.0000 0.0000 0.0000 0.0000 38.0203
#
#
#
# Elastic Compliance Matrix: (Units=1/GPa)
#
#
# Indices 1 2 3 4 5 6 
#
# 1 0.011083 -0.002815 -0.002815 0.000000 0.000000 0.000000
# 2 -0.002815 0.011083 -0.002815 0.000000 0.000000 0.000000
# 3 -0.002815 -0.002815 0.011083 0.000000 0.000000 0.000000
# 4 0.000000 0.000000 0.000000 0.026302 0.000000 0.000000
# 5 0.000000 0.000000 0.000000 0.000000 0.026302 0.000000
# 6 0.000000 0.000000 0.000000 0.000000 0.000000 0.026302
#
#
# Mechanical properties :
#
#
# Convention : Reuss Voigt Hill
#
# Bulk Modulus (GPa) = 61.12151 61.12151 61.12151
# Shear Modulus (GPa) = 37.17580 37.20303 37.18942
#
# Velocity S-wave (km/s) = 4.02052 4.02199 4.02125
# Velocity P-wave (km/s) = 6.93752 6.93866 6.93809
#
# Compressibility (1/GPa) = 0.01636085
#
# Stress axis : x y z
#
# Youngs Moduli (GPa) = 90.22822 90.22822 90.22822
#
# Poissons Ratio (x) = 0.25396 0.25396
# Poissons Ratio (y) = 0.25396 0.25396
# Poissons Ratio (z) = 0.25396 0.25396
#
# Static dielectric constant tensor:
#      x y z
#    x 4.185640 0.000000 0.000000 
#    y 0.000000 4.185640 0.000000 
#    z 0.000000 0.000000 4.185640 
# 
# 
# High freq. dielectric constant tensor:
#      x y z
#    x 1.911570 0.000000 0.000000 
#    y 0.000000 1.911570 0.000000 
#    z 0.000000 0.000000 1.911570 
# 
# From -- ./inp_files/633.got.cif
#   From: 2010.03.12/outbox.cif.g09.slc.cpg/sg201_cif.got.tgz:633.got - 2010.03.30 09:02:05.
