data_PCOD8330428
_publ_section_title
;
Structure prediction by ZEFSAII (Michael W. Deem and Ramdas Pophale) SiO2 
 PCOD8330428
Probable space group: P 63/M M C
;
_chemical_formula_sum "Si O2"
_cell_formula_units_Z 88
_cell_length_a 25.859002
_cell_length_b 25.859002
_cell_length_c 9.058032
_cell_angle_alpha 90.000000
_cell_angle_beta 90.000000
_cell_angle_gamma 120.000000
_cell_volume 5245.513412
_symmetry_space_group_name_H-M "P 63/M M C"
_symmetry_group_IT_number 194
_symmetry_cell_setting 'hexagonal'
loop_
_space_group_symop_operation_xyz
x,y,z
x-y,x,1/2+z
-y,x-y,z
-x,-y,1/2+z
-x+y,-x,z
y,-x+y,1/2+z
x-y,-y,-z
-x,-x+y,-z
y,x,-z
-y,-x,1/2-z
-x+y,y,1/2-z
x,x-y,1/2-z
-x,-y,-z
-x+y,-x,1/2-z
y,-x+y,-z
x,y,1/2-z
x-y,x,-z
-y,x-y,1/2-z
-x+y,y,z
x,x-y,z
-y,-x,z
y,x,1/2+z
x-y,-y,1/2+z
-x,-x+y,1/2+z
loop_
_atom_site_type_symbol
_atom_site_label
_atom_site_fract_x
_atom_site_fract_y
_atom_site_fract_z
Si Si1 0.303854 0.487247 0.922959
Si Si2 0.629370 0.753517 0.086927
Si Si3 0.599433 0.198866 0.574115
Si Si4 0.238592 0.060749 0.924560
Si Si5 0.333334 0.666668 0.424622
O O1 0.316293 0.494409 0.750000
O O2 0.248890 0.497780 0.965890
O O3 0.289563 0.421387 0.972010
O O4 0.363940 0.533032 0.008931
O O5 0.615620 0.723422 0.250000
O O6 0.630560 0.815280 0.100684
O O7 0.694869 0.769079 0.030282
O O8 0.596644 0.193288 0.750000
O O9 0.633266 0.266531 0.514971
O O10 0.231268 0.054211 0.750000
O O11 0.227671 0.113836 0.980364
O O12 0.189593 0.000000 0.000000
O O13 0.333334 0.666667 0.250000
#
# Coordination Sequence:
#
# PCOD8330428 Si02
#       5
#    24  24  12  24   4
#     4  10  19  28  39  59  85 113 149 197 247 288
#     4   8  15  29  46  63  87 120 154 189 229 277
#     4  11  19  29  41  55  78 116 161 197 237 297
#     4   9  18  32  51  77 106 133 162 193 227 267
#     4   9  18  27  37  53  73 108 160 197 229 291
#
# _framework density 16.776242
#
# number of rings (size 3 to 8) (size 9 to 14) (size 15 to 20)
#    0.000    2.727    1.364    2.864    0.000    2.727 
#    0.000    2.727    0.000    0.273    0.000    0.955 
#    0.000    0.000    0.000    0.000    0.000    0.000 
#
# Total GULP energy -1090829.009839 kJ/mol
# GULP energy per Si atom -12395.784203 kJ/mol
# Density = 1.673806 g / cm^3
# Si number density = 16.776242 Si / 1000 Ang^3
#
#
#
# Elastic Constant Matrix: (Units=GPa)
#
#
# Indices 1 2 3 4 5 6 
#
# 1 85.9279 44.3584 38.9755 0.0000 0.0000 0.0000
# 2 44.3584 85.9282 38.9755 0.0000 0.0000 0.0000
# 3 38.9755 38.9755 72.2018 0.0000 0.0000 0.0000
# 4 0.0000 0.0000 0.0000 23.7748 0.0000 0.0000
# 5 0.0000 0.0000 0.0000 0.0000 23.7748 0.0000
# 6 0.0000 0.0000 0.0000 0.0000 0.0000 20.7848
#
#
#
# Elastic Compliance Matrix: (Units=1/GPa)
#
#
# Indices 1 2 3 4 5 6 
#
# 1 0.017697 -0.006360 -0.006120 0.000000 0.000000 0.000000
# 2 -0.006360 0.017696 -0.006120 0.000000 0.000000 0.000000
# 3 -0.006120 -0.006120 0.020457 0.000000 0.000000 0.000000
# 4 0.000000 0.000000 0.000000 0.042061 0.000000 0.000000
# 5 0.000000 0.000000 0.000000 0.000000 0.042061 0.000000
# 6 0.000000 0.000000 0.000000 0.000000 0.000000 0.048112
#
#
# Mechanical properties :
#
#
# Convention : Reuss Voigt Hill
#
# Bulk Modulus (GPa) = 53.61426 54.29738 53.95582
# Shear Modulus (GPa) = 21.59822 21.78345 21.69084
#
# Velocity S-wave (km/s) = 3.59197 3.60734 3.59966
# Velocity P-wave (km/s) = 7.01647 7.05595 7.03624
#
# Compressibility (1/GPa) = 0.01865176
#
# Stress axis : x y z
#
# Youngs Moduli (GPa) = 56.50831 56.50859 48.88255
#
# Poissons Ratio (x) = 0.35937 0.29915
# Poissons Ratio (y) = 0.35937 0.29915
# Poissons Ratio (z) = 0.34582 0.34582
#
# Static dielectric constant tensor:
#      x y z
#    x 3.065540 0.000000 0.000000 
#    y 0.000000 3.065530 0.000000 
#    z 0.000000 0.000000 3.037490 
# 
# 
# High freq. dielectric constant tensor:
#      x y z
#    x 1.619600 0.000000 0.000000 
#    y 0.000000 1.619600 0.000000 
#    z 0.000000 0.000000 1.645940 
# 
# From -- ./inp_files/1459.got.cif
#   From: 2010.03.12/outbox.cif.g09.slc.cpg/sg194_1_cif.got.tgz:1459.got - 2010.04.01 12:26:19.
