data_PCOD8330751
_publ_section_title
;
Structure prediction by ZEFSAII (Michael W. Deem and Ramdas Pophale) SiO2 
 PCOD8330751
Probable space group: P 63/M M C
;
_chemical_formula_sum "Si O2"
_cell_formula_units_Z 120
_cell_length_a 23.044919
_cell_length_b 23.044919
_cell_length_c 14.244382
_cell_angle_alpha 90.000000
_cell_angle_beta 90.000000
_cell_angle_gamma 120.000000
_cell_volume 6551.256680
_symmetry_space_group_name_H-M "P 63/M M C"
_symmetry_group_IT_number 194
_symmetry_cell_setting 'hexagonal'
loop_
_space_group_symop_operation_xyz
x,y,z
x-y,x,1/2+z
-y,x-y,z
-x,-y,1/2+z
-x+y,-x,z
y,-x+y,1/2+z
x-y,-y,-z
-x,-x+y,-z
y,x,-z
-y,-x,1/2-z
-x+y,y,1/2-z
x,x-y,1/2-z
-x,-y,-z
-x+y,-x,1/2-z
y,-x+y,-z
x,y,1/2-z
x-y,x,-z
-y,x-y,1/2-z
-x+y,y,z
x,x-y,z
-y,-x,z
y,x,1/2+z
x-y,-y,1/2+z
-x,-x+y,1/2+z
loop_
_atom_site_type_symbol
_atom_site_label
_atom_site_fract_x
_atom_site_fract_y
_atom_site_fract_z
Si Si1 0.793164 0.077229 0.499832
Si Si2 0.645851 0.485034 0.147988
Si Si3 0.367492 0.051520 0.354936
Si Si4 0.796743 0.465490 0.946105
Si Si5 0.292889 0.391583 0.139936
O O1 0.872661 0.127340 0.482807
O O2 0.750595 0.083955 0.416482
O O3 0.773597 0.103690 0.593623
O O4 0.777278 0.000000 0.500000
O O5 0.678806 0.483946 0.250000
O O6 0.567859 0.432142 0.150113
O O7 0.647979 0.554085 0.132564
O O8 0.679694 0.470700 0.059152
O O9 0.342591 0.051670 0.250000
O O10 0.350011 0.976989 0.383600
O O11 0.724585 0.449169 0.905772
O O12 0.810926 0.405463 0.917960
O O13 0.853252 0.535798 0.904168
O O14 0.279201 0.394095 0.250000
#
# Coordination Sequence:
#
# PCOD8330751 Si02
#       5
#    24  24  24  24  24
#     4  10  20  35  55  81 111 141 173 208 252 304
#     4   9  18  32  51  76 104 134 168 210 265 325
#     4   9  18  33  54  82 111 133 162 209 265 320
#     4  11  23  37  52  71  98 136 183 230 271 311
#     4  10  21  36  54  77 105 138 174 213 261 313
#
# _framework density 18.317094999999998
#
# number of rings (size 3 to 8) (size 9 to 14) (size 15 to 20)
#    0.000    2.200    2.000    0.800    0.000    3.600 
#    0.000    6.000    0.000    2.600    0.000    0.000 
#    0.000    0.000    0.000   10.000    0.000    0.000 
#
# Total GULP energy -1486693.400348 kJ/mol
# GULP energy per Si atom -12389.111670 kJ/mol
# Density = 1.827540 g / cm^3
# Si number density = 18.317095 Si / 1000 Ang^3
#
#
#
# Elastic Constant Matrix: (Units=GPa)
#
#
# Indices 1 2 3 4 5 6 
#
# 1 101.2051 68.7713 34.5745 0.0000 0.0000 0.0000
# 2 68.7713 101.2051 34.5745 0.0000 0.0000 0.0000
# 3 34.5745 34.5745 90.8445 0.0000 0.0000 0.0000
# 4 0.0000 0.0000 0.0000 11.9278 0.0000 0.0000
# 5 0.0000 0.0000 0.0000 0.0000 11.9278 0.0000
# 6 0.0000 0.0000 0.0000 0.0000 0.0000 16.2169
#
#
#
# Elastic Compliance Matrix: (Units=1/GPa)
#
#
# Indices 1 2 3 4 5 6 
#
# 1 0.018897 -0.011936 -0.002649 0.000000 0.000000 0.000000
# 2 -0.011936 0.018897 -0.002649 0.000000 0.000000 0.000000
# 3 -0.002649 -0.002649 0.013024 0.000000 0.000000 0.000000
# 4 0.000000 0.000000 0.000000 0.083838 0.000000 0.000000
# 5 0.000000 0.000000 0.000000 0.000000 0.083838 0.000000
# 6 0.000000 0.000000 0.000000 0.000000 0.000000 0.061664
#
#
# Mechanical properties :
#
#
# Convention : Reuss Voigt Hill
#
# Bulk Modulus (GPa) = 61.16505 63.23281 62.19893
# Shear Modulus (GPa) = 15.62135 18.37012 16.99573
#
# Velocity S-wave (km/s) = 2.92349 3.17029 3.04939
# Velocity P-wave (km/s) = 6.69780 6.92799 6.81387
#
# Compressibility (1/GPa) = 0.01634921
#
# Stress axis : x y z
#
# Youngs Moduli (GPa) = 52.91982 52.91982 76.77907
#
# Poissons Ratio (x) = 0.63163 0.20341
# Poissons Ratio (y) = 0.63163 0.20341
# Poissons Ratio (z) = 0.14020 0.14020
#
# Static dielectric constant tensor:
#      x y z
#    x 3.240450 0.000000 0.000000 
#    y 0.000000 3.240450 0.000000 
#    z 0.000000 0.000000 3.761910 
# 
# 
# High freq. dielectric constant tensor:
#      x y z
#    x 1.693500 0.000000 0.000000 
#    y 0.000000 1.693500 0.000000 
#    z 0.000000 0.000000 1.724860 
# 
# From -- ./inp_files/5059.got.cif
#   From: 2010.03.12/outbox.cif.g09.slc.cpg/sg194_3_cif.got.tgz:5059.got - 2010.04.01 12:26:19.
