data_PCOD8330672
_publ_section_title
;
Structure prediction by ZEFSAII (Michael W. Deem and Ramdas Pophale) SiO2 
 PCOD8330672
Probable space group: P 63/M M C
;
_chemical_formula_sum "Si O2"
_cell_formula_units_Z 60
_cell_length_a 16.614331
_cell_length_b 16.614331
_cell_length_c 13.511732
_cell_angle_alpha 90.000000
_cell_angle_beta 90.000000
_cell_angle_gamma 120.000000
_cell_volume 3230.036063
_symmetry_space_group_name_H-M "P 63/M M C"
_symmetry_group_IT_number 194
_symmetry_cell_setting 'hexagonal'
loop_
_space_group_symop_operation_xyz
x,y,z
x-y,x,1/2+z
-y,x-y,z
-x,-y,1/2+z
-x+y,-x,z
y,-x+y,1/2+z
x-y,-y,-z
-x,-x+y,-z
y,x,-z
-y,-x,1/2-z
-x+y,y,1/2-z
x,x-y,1/2-z
-x,-y,-z
-x+y,-x,1/2-z
y,-x+y,-z
x,y,1/2-z
x-y,x,-z
-y,x-y,1/2-z
-x+y,y,z
x,x-y,z
-y,-x,z
y,x,1/2+z
x-y,-y,1/2+z
-x,-x+y,1/2+z
loop_
_atom_site_type_symbol
_atom_site_label
_atom_site_fract_x
_atom_site_fract_y
_atom_site_fract_z
Si Si1 0.320572 0.320572 0.500000
Si Si2 0.478779 0.144667 0.362090
Si Si3 0.999482 0.180741 0.362058
O O1 0.338359 0.414405 0.552051
O O2 0.279503 0.240367 0.583535
O O3 0.444485 0.106061 0.250000
O O4 0.581255 0.162509 0.379807
O O5 0.481433 0.240717 0.376691
O O6 0.982881 0.198437 0.250000
O O7 0.072467 0.144933 0.370340
O O8 0.900805 0.099196 0.406777
#
# Coordination Sequence:
#
# PCOD8330672 Si02
#       3
#    12  24  24
#     4  12  21  32  51  80 110 132 164 214 271 316
#     4  10  21  38  59  81 105 135 172 213 257 307
#     4  10  20  33  49  71 103 145 188 224 258 302
#
# _framework density 18.575645000000002
#
# number of rings (size 3 to 8) (size 9 to 14) (size 15 to 20)
#    0.000    1.600    0.000    6.200    0.000    6.400 
#    0.000    2.000    0.000    0.000    0.000    0.000 
#    0.000   19.200    0.000    0.000    0.000    0.000 
#
# Total GULP energy -743467.381082 kJ/mol
# GULP energy per Si atom -12391.123018 kJ/mol
# Density = 1.853337 g / cm^3
# Si number density = 18.575645 Si / 1000 Ang^3
#
#
#
# Elastic Constant Matrix: (Units=GPa)
#
#
# Indices 1 2 3 4 5 6 
#
# 1 107.0589 43.8963 57.1299 0.0000 0.0000 0.0000
# 2 43.8963 107.0589 57.1299 0.0000 0.0000 0.0000
# 3 57.1299 57.1299 117.9497 0.0000 0.0000 0.0000
# 4 0.0000 0.0000 0.0000 54.8155 0.0000 0.0000
# 5 0.0000 0.0000 0.0000 0.0000 54.8155 0.0000
# 6 0.0000 0.0000 0.0000 0.0000 0.0000 31.5813
#
#
#
# Elastic Compliance Matrix: (Units=1/GPa)
#
#
# Indices 1 2 3 4 5 6 
#
# 1 0.013146 -0.002687 -0.005066 0.000000 0.000000 0.000000
# 2 -0.002687 0.013146 -0.005066 0.000000 0.000000 0.000000
# 3 -0.005066 -0.005066 0.013386 0.000000 0.000000 0.000000
# 4 0.000000 0.000000 0.000000 0.018243 0.000000 0.000000
# 5 0.000000 0.000000 0.000000 0.000000 0.018243 0.000000
# 6 0.000000 0.000000 0.000000 0.000000 0.000000 0.031664
#
#
# Mechanical properties :
#
#
# Convention : Reuss Voigt Hill
#
# Bulk Modulus (GPa) = 71.22535 72.04217 71.63376
# Shear Modulus (GPa) = 36.19424 39.83657 38.01540
#
# Velocity S-wave (km/s) = 4.41895 4.63596 4.52875
# Velocity P-wave (km/s) = 8.02887 8.21727 8.12362
#
# Compressibility (1/GPa) = 0.01403994
#
# Stress axis : x y z
#
# Youngs Moduli (GPa) = 76.07157 76.07157 74.70742
#
# Poissons Ratio (x) = 0.20438 0.37846
# Poissons Ratio (y) = 0.20438 0.37846
# Poissons Ratio (z) = 0.38537 0.38537
#
# Static dielectric constant tensor:
#      x y z
#    x 3.394380 0.000000 0.000000 
#    y 0.000000 3.394380 0.000000 
#    z 0.000000 0.000000 3.730270 
# 
# 
# High freq. dielectric constant tensor:
#      x y z
#    x 1.714580 0.000000 0.000000 
#    y 0.000000 1.714580 0.000000 
#    z 0.000000 0.000000 1.736460 
# 
# From -- ./inp_files/3928.got.cif
#   From: 2010.03.12/outbox.cif.g09.slc.cpg/sg194_2_cif.got.tgz:3928.got - 2010.04.01 12:26:19.
