data_PCOD8330216
_publ_section_title
;
Structure prediction by ZEFSAII (Michael W. Deem and Ramdas Pophale) SiO2 
 PCOD8330216
Probable space group: P 63/M C M
;
_chemical_formula_sum "Si O2"
_cell_formula_units_Z 68
_cell_length_a 12.358254
_cell_length_b 12.358254
_cell_length_c 24.589110
_cell_angle_alpha 90.000000
_cell_angle_beta 90.000000
_cell_angle_gamma 120.000000
_cell_volume 3252.278106
_symmetry_space_group_name_H-M "P 63/M C M"
_symmetry_group_IT_number 193
_symmetry_cell_setting 'hexagonal'
loop_
_space_group_symop_operation_xyz
x,y,z
x-y,x,1/2+z
-y,x-y,z
-x,-y,1/2+z
-x+y,-x,z
y,-x+y,1/2+z
x-y,-y,1/2-z
-x,-x+y,1/2-z
y,x,1/2-z
-y,-x,-z
-x+y,y,-z
x,x-y,-z
-x,-y,-z
-x+y,-x,1/2-z
y,-x+y,-z
x,y,1/2-z
x-y,x,-z
-y,x-y,1/2-z
-x+y,y,1/2+z
x,x-y,1/2+z
-y,-x,1/2+z
y,x,z
x-y,-y,z
-x,-x+y,z
loop_
_atom_site_type_symbol
_atom_site_label
_atom_site_fract_x
_atom_site_fract_y
_atom_site_fract_z
Si Si1 0.333334 0.666667 0.563839
Si Si2 0.604385 0.745792 0.442004
Si Si3 0.505535 0.251850 0.750000
Si Si4 0.856911 0.143770 0.332866
O O1 0.333334 0.666667 0.500000
O O2 0.313927 0.534315 0.583207
O O3 0.621805 0.810903 0.500000
O O4 0.633579 0.633579 0.448847
O O5 0.696037 0.846375 0.398150
O O6 0.596486 0.191331 0.750000
O O7 0.420791 0.208585 0.696295
O O8 0.000000 0.211711 0.313154
O O9 0.791593 0.000000 0.315732
#
# Coordination Sequence:
#
# PCOD8330216 Si02
#       4
#     8  24  12  24
#     4   9  21  36  54  85 122 163 216 261 307 368
#     4  10  22  39  62  94 130 170 211 257 318 378
#     4  10  26  46  64  94 126 162 216 264 328 384
#     4  11  24  42  68  96 129 170 213 265 317 380
#
# _framework density 20.908421000000001
#
# number of rings (size 3 to 8) (size 9 to 14) (size 15 to 20)
#    0.353    1.412    0.000    2.471    4.941   10.588 
#    0.000    1.765    0.000    5.647    0.000    0.000 
#    0.000    0.000    0.000    0.000    0.000    0.000 
#
# Total GULP energy -843075.613380 kJ/mol
# GULP energy per Si atom -12398.170785 kJ/mol
# Density = 2.086083 g / cm^3
# Si number density = 20.908421 Si / 1000 Ang^3
#
#
#
# Elastic Constant Matrix: (Units=GPa)
#
#
# Indices 1 2 3 4 5 6 
#
# 1 158.8496 86.4163 42.7237 0.0000 -0.0001 0.0000
# 2 86.4163 158.8495 42.7239 0.0001 -0.0001 0.0000
# 3 42.7237 42.7239 108.7073 0.0000 0.0000 0.0000
# 4 0.0000 0.0001 0.0000 25.3559 0.0000 0.0000
# 5 -0.0001 -0.0001 0.0000 0.0000 25.3555 0.0000
# 6 0.0000 0.0000 0.0000 0.0000 0.0000 36.2166
#
#
#
# Elastic Compliance Matrix: (Units=1/GPa)
#
#
# Indices 1 2 3 4 5 6 
#
# 1 0.009265 -0.004541 -0.001857 0.000000 0.000000 0.000000
# 2 -0.004541 0.009265 -0.001857 0.000000 0.000000 0.000000
# 3 -0.001857 -0.001857 0.010658 0.000000 0.000000 0.000000
# 4 0.000000 0.000000 0.000000 0.039439 0.000000 0.000000
# 5 0.000000 0.000000 0.000000 0.000000 0.039439 0.000000
# 6 0.000000 0.000000 0.000000 0.000000 0.000000 0.027612
#
#
# Mechanical properties :
#
#
# Convention : Reuss Voigt Hill
#
# Bulk Modulus (GPa) = 78.86465 85.57046 82.21756
# Shear Modulus (GPa) = 31.96674 34.35510 33.16092
#
# Velocity S-wave (km/s) = 3.91435 4.05794 3.98679
# Velocity P-wave (km/s) = 7.63089 7.93543 7.78465
#
# Compressibility (1/GPa) = 0.01267995
#
# Stress axis : x y z
#
# Youngs Moduli (GPa) = 107.93407 107.93392 93.82285
#
# Poissons Ratio (x) = 0.49012 0.17419
# Poissons Ratio (y) = 0.49012 0.17419
# Poissons Ratio (z) = 0.20039 0.20039
#
# Static dielectric constant tensor:
#      x y z
#    x 4.049190 0.000000 0.000000 
#    y 0.000000 4.049180 0.000000 
#    z 0.000000 0.000000 3.731370 
# 
# 
# High freq. dielectric constant tensor:
#      x y z
#    x 1.818830 0.000000 0.000000 
#    y 0.000000 1.818830 0.000000 
#    z 0.000000 0.000000 1.827910 
# 
# From -- ./inp_files/8646.got.cif
#   From: 2010.03.12/outbox.cif.g09.slc.cpg/sg193_5_cif.got.tgz:8646.got - 2010.04.01 12:20:39.
