data_PCOD8330674
_publ_section_title
;
Structure prediction by ZEFSAII (Michael W. Deem and Ramdas Pophale) SiO2 
 PCOD8330674
Probable space group: P 63/M M C
;
_chemical_formula_sum "Si O2"
_cell_formula_units_Z 132
_cell_length_a 18.217438
_cell_length_b 18.217438
_cell_length_c 25.098049
_cell_angle_alpha 90.000000
_cell_angle_beta 90.000000
_cell_angle_gamma 120.000000
_cell_volume 7213.486027
_symmetry_space_group_name_H-M "P 63/M M C"
_symmetry_group_IT_number 194
_symmetry_cell_setting 'hexagonal'
loop_
_space_group_symop_operation_xyz
x,y,z
x-y,x,1/2+z
-y,x-y,z
-x,-y,1/2+z
-x+y,-x,z
y,-x+y,1/2+z
x-y,-y,-z
-x,-x+y,-z
y,x,-z
-y,-x,1/2-z
-x+y,y,1/2-z
x,x-y,1/2-z
-x,-y,-z
-x+y,-x,1/2-z
y,-x+y,-z
x,y,1/2-z
x-y,x,-z
-y,x-y,1/2-z
-x+y,y,z
x,x-y,z
-y,-x,z
y,x,1/2+z
x-y,-y,1/2+z
-x,-x+y,1/2+z
loop_
_atom_site_type_symbol
_atom_site_label
_atom_site_fract_x
_atom_site_fract_y
_atom_site_fract_z
Si Si1 0.242887 0.316804 0.959170
Si Si2 0.501022 0.834693 0.994864
Si Si3 0.173127 0.171904 0.250000
Si Si4 0.929678 0.691308 0.161687
Si Si5 0.166066 0.666773 0.117921
Si Si6 0.586357 0.008250 0.810963
O O1 0.153344 0.306687 0.976139
O O2 0.240410 0.283409 0.899572
O O3 0.260731 0.260731 0.000000
O O4 0.314666 0.416209 0.961254
O O5 0.423988 0.847976 0.976318
O O6 0.473872 0.736936 0.985092
O O7 0.524207 0.858807 0.056509
O O8 0.089672 0.179343 0.250000
O O9 0.227825 0.218830 0.197611
O O10 0.146862 0.073431 0.250000
O O11 0.832259 0.664518 0.170878
O O12 0.934248 0.608205 0.178653
O O13 0.192624 0.596312 0.128770
O O14 0.243459 0.756541 0.135040
O O15 0.087010 0.651120 0.153340
O O16 0.602915 0.037867 0.750000
O O17 0.488509 0.977017 0.826511
#
# Coordination Sequence:
#
# PCOD8330674 Si02
#       6
#    24  24  12  24  24  24
#     4  10  21  35  53  78 108 140 173 213 263 316
#     4   9  17  30  49  75 106 142 181 220 260 301
#     4  10  21  38  61  86 106 128 162 208 259 314
#     4  10  21  38  57  78 105 138 174 214 267 320
#     4   9  17  29  46  70 105 145 182 217 254 300
#     4  10  20  33  49  72 100 134 176 220 262 307
#
# _framework density 18.299057999999999
#
# number of rings (size 3 to 8) (size 9 to 14) (size 15 to 20)
#    0.000    2.364    0.909    1.545    0.000    4.364 
#    0.000    0.000    0.000    1.636    0.000    0.000 
#    0.000    0.000    0.000    0.000    0.000    0.000 
#
# Total GULP energy -1636996.842866 kJ/mol
# GULP energy per Si atom -12401.491234 kJ/mol
# Density = 1.825741 g / cm^3
# Si number density = 18.299058 Si / 1000 Ang^3
#
#
#
# Elastic Constant Matrix: (Units=GPa)
#
#
# Indices 1 2 3 4 5 6 
#
# 1 107.1439 67.6723 54.9268 0.0000 0.0000 0.0000
# 2 67.6723 107.1439 54.9268 0.0000 0.0000 0.0000
# 3 54.9268 54.9268 99.3914 0.0000 0.0000 0.0000
# 4 0.0000 0.0000 0.0000 23.1319 0.0000 0.0000
# 5 0.0000 0.0000 0.0000 0.0000 23.1319 0.0000
# 6 0.0000 0.0000 0.0000 0.0000 0.0000 19.7358
#
#
#
# Elastic Compliance Matrix: (Units=1/GPa)
#
#
# Indices 1 2 3 4 5 6 
#
# 1 0.017049 -0.008285 -0.004843 0.000000 0.000000 0.000000
# 2 -0.008285 0.017049 -0.004843 0.000000 0.000000 0.000000
# 3 -0.004843 -0.004843 0.015414 0.000000 0.000000 0.000000
# 4 0.000000 0.000000 0.000000 0.043230 0.000000 0.000000
# 5 0.000000 0.000000 0.000000 0.000000 0.043230 0.000000
# 6 0.000000 0.000000 0.000000 0.000000 0.000000 0.050669
#
#
# Mechanical properties :
#
#
# Convention : Reuss Voigt Hill
#
# Bulk Modulus (GPa) = 73.69673 74.30345 74.00009
# Shear Modulus (GPa) = 22.01589 22.27682 22.14635
#
# Velocity S-wave (km/s) = 3.47236 3.49288 3.48263
# Velocity P-wave (km/s) = 7.51248 7.54719 7.52986
#
# Compressibility (1/GPa) = 0.01356912
#
# Stress axis : x y z
#
# Youngs Moduli (GPa) = 58.65397 58.65397 64.87572
#
# Poissons Ratio (x) = 0.48598 0.31420
# Poissons Ratio (y) = 0.48598 0.31420
# Poissons Ratio (z) = 0.28407 0.28407
#
# Static dielectric constant tensor:
#      x y z
#    x 3.326180 0.000000 0.000000 
#    y 0.000000 3.326180 0.000000 
#    z 0.000000 0.000000 3.467730 
# 
# 
# High freq. dielectric constant tensor:
#      x y z
#    x 1.702340 0.000000 0.000000 
#    y 0.000000 1.702340 0.000000 
#    z 0.000000 0.000000 1.712810 
# 
# From -- ./inp_files/9533.got.cif
#   From: 2010.03.12/outbox.cif.g09.slc.cpg/sg194_5_cif.got.tgz:9533.got - 2010.04.01 12:26:19.
