data_PCOD8330094
_publ_section_title
;
Structure prediction by ZEFSAII (Michael W. Deem and Ramdas Pophale) SiO2 
 PCOD8330094
Probable space group: P 63/M C M
;
_chemical_formula_sum "Si O2"
_cell_formula_units_Z 144
_cell_length_a 22.362742
_cell_length_b 22.362742
_cell_length_c 19.054487
_cell_angle_alpha 90.000000
_cell_angle_beta 90.000000
_cell_angle_gamma 120.000000
_cell_volume 8252.356844
_symmetry_space_group_name_H-M "P 63/M C M"
_symmetry_group_IT_number 193
_symmetry_cell_setting 'hexagonal'
loop_
_space_group_symop_operation_xyz
x,y,z
x-y,x,1/2+z
-y,x-y,z
-x,-y,1/2+z
-x+y,-x,z
y,-x+y,1/2+z
x-y,-y,1/2-z
-x,-x+y,1/2-z
y,x,1/2-z
-y,-x,-z
-x+y,y,-z
x,x-y,-z
-x,-y,-z
-x+y,-x,1/2-z
y,-x+y,-z
x,y,1/2-z
x-y,x,-z
-y,x-y,1/2-z
-x+y,y,1/2+z
x,x-y,1/2+z
-y,-x,1/2+z
y,x,z
x-y,-y,z
-x,-x+y,z
loop_
_atom_site_type_symbol
_atom_site_label
_atom_site_fract_x
_atom_site_fract_y
_atom_site_fract_z
Si Si1 0.254017 0.173906 0.558649
Si Si2 0.215371 0.701521 0.670022
Si Si3 0.077718 0.156588 0.830901
Si Si4 0.081018 0.598575 0.456677
Si Si5 0.415136 0.265439 0.544356
Si Si6 0.368548 0.547769 0.169960
O O1 0.232431 0.116216 0.500000
O O2 0.218506 0.218506 0.540461
O O3 0.227108 0.132376 0.631292
O O4 0.335135 0.224281 0.563011
O O5 0.195055 0.707402 0.750000
O O6 0.165511 0.712762 0.618868
O O7 0.206538 0.627433 0.654964
O O8 0.293719 0.757255 0.653665
O O9 0.082251 0.176322 0.750000
O O10 0.097120 0.097120 0.843625
O O11 0.000000 0.127504 0.859359
O O12 0.105656 0.552828 0.500000
O O13 0.100016 0.667439 0.499336
O O14 0.116305 0.616672 0.380629
O O15 0.000000 0.556796 0.443034
O O16 0.438182 0.219091 0.500000
O O17 0.374552 0.527623 0.250000
#
# Coordination Sequence:
#
# PCOD8330094 Si02
#       6
#    24  24  24  24  24  24
#     4  10  21  35  53  76 104 139 179 221 268 316
#     4  10  20  35  57  84 113 141 174 220 276 330
#     4   9  17  31  53  80 108 137 171 215 268 325
#     4  11  22  36  56  80 110 146 186 228 270 321
#     4  11  21  36  56  78 104 143 185 225 268 320
#     4  10  20  36  58  85 115 144 178 223 277 332
#
# _framework density 17.449560999999999
#
# number of rings (size 3 to 8) (size 9 to 14) (size 15 to 20)
#    0.000    1.833    3.333    1.500    0.000    3.000 
#    0.000    0.000    0.000    4.167    0.000    0.000 
#    0.000    0.000    0.000    0.000    0.000    0.000 
#
# Total GULP energy -1785922.878847 kJ/mol
# GULP energy per Si atom -12402.242214 kJ/mol
# Density = 1.740984 g / cm^3
# Si number density = 17.449561 Si / 1000 Ang^3
#
#
#
# Elastic Constant Matrix: (Units=GPa)
#
#
# Indices 1 2 3 4 5 6 
#
# 1 133.6372 -4.9049 58.0544 0.0000 0.0000 0.0000
# 2 -4.9049 133.6372 58.0544 0.0000 0.0000 0.0000
# 3 58.0544 58.0544 111.7325 0.0000 0.0000 0.0000
# 4 0.0000 0.0000 0.0000 32.6100 0.0000 0.0000
# 5 0.0000 0.0000 0.0000 0.0000 32.6100 0.0000
# 6 0.0000 0.0000 0.0000 0.0000 0.0000 69.2711
#
#
#
# Elastic Compliance Matrix: (Units=1/GPa)
#
#
# Indices 1 2 3 4 5 6 
#
# 1 0.010919 0.003700 -0.007596 0.000000 0.000000 0.000000
# 2 0.003700 0.010919 -0.007596 0.000000 0.000000 0.000000
# 3 -0.007596 -0.007596 0.016843 0.000000 0.000000 0.000000
# 4 0.000000 0.000000 0.000000 0.030665 0.000000 0.000000
# 5 0.000000 0.000000 0.000000 0.000000 0.030665 0.000000
# 6 0.000000 0.000000 0.000000 0.000000 0.000000 0.014436
#
#
# Mechanical properties :
#
#
# Convention : Reuss Voigt Hill
#
# Bulk Modulus (GPa) = 63.70206 66.82384 65.26295
# Shear Modulus (GPa) = 35.04785 44.75175 39.89980
#
# Velocity S-wave (km/s) = 4.48652 5.06972 4.78701
# Velocity P-wave (km/s) = 7.96392 8.52338 8.24839
#
# Compressibility (1/GPa) = 0.01569808
#
# Stress axis : x y z
#
# Youngs Moduli (GPa) = 91.58753 91.58753 59.37093
#
# Poissons Ratio (x) = -0.33892 0.45097
# Poissons Ratio (y) = -0.33892 0.45097
# Poissons Ratio (z) = 0.69568 0.69568
#
# Static dielectric constant tensor:
#      x y z
#    x 3.232360 0.000000 0.000000 
#    y 0.000000 3.232360 0.000000 
#    z 0.000000 0.000000 3.348750 
# 
# 
# High freq. dielectric constant tensor:
#      x y z
#    x 1.676980 0.000000 0.000000 
#    y 0.000000 1.676980 0.000000 
#    z 0.000000 0.000000 1.680720 
# 
# From -- ./inp_files/6575.got.cif
#   From: 2010.03.12/outbox.cif.g09.slc.cpg/sg193_4_cif.got.tgz:6575.got - 2010.04.01 12:20:39.
