data_PCOD8330544
_publ_section_title
;
Structure prediction by ZEFSAII (Michael W. Deem and Ramdas Pophale) SiO2 
 PCOD8330544
Probable space group: P 63/M M C
;
_chemical_formula_sum "Si O2"
_cell_formula_units_Z 192
_cell_length_a 23.933872
_cell_length_b 23.933872
_cell_length_c 22.010630
_cell_angle_alpha 90.000000
_cell_angle_beta 90.000000
_cell_angle_gamma 120.000000
_cell_volume 10919.155056
_symmetry_space_group_name_H-M "P 63/M M C"
_symmetry_group_IT_number 194
_symmetry_cell_setting 'hexagonal'
loop_
_space_group_symop_operation_xyz
x,y,z
x-y,x,1/2+z
-y,x-y,z
-x,-y,1/2+z
-x+y,-x,z
y,-x+y,1/2+z
x-y,-y,-z
-x,-x+y,-z
y,x,-z
-y,-x,1/2-z
-x+y,y,1/2-z
x,x-y,1/2-z
-x,-y,-z
-x+y,-x,1/2-z
y,-x+y,-z
x,y,1/2-z
x-y,x,-z
-y,x-y,1/2-z
-x+y,y,z
x,x-y,z
-y,-x,z
y,x,1/2+z
x-y,-y,1/2+z
-x,-x+y,1/2+z
loop_
_atom_site_type_symbol
_atom_site_label
_atom_site_fract_x
_atom_site_fract_y
_atom_site_fract_z
Si Si1 0.106734 0.344552 0.407523
Si Si2 0.995730 0.334918 0.819164
Si Si3 0.725404 0.146228 0.479530
Si Si4 0.005016 0.802941 0.066732
Si Si5 0.224245 0.322458 0.882518
Si Si6 0.873529 0.998556 0.182443
Si Si7 0.917640 0.521723 0.320803
Si Si8 0.537310 0.203733 0.403723
O O1 0.175784 0.351567 0.388594
O O2 0.113492 0.399925 0.454682
O O3 0.060996 0.276119 0.439142
O O4 0.070903 0.354913 0.350939
O O5 0.976111 0.330415 0.750000
O O6 0.050936 0.314741 0.826849
O O7 0.025391 0.408608 0.843272
O O8 0.799945 0.200056 0.479089
O O9 0.720885 0.100440 0.423812
O O10 0.678246 0.175080 0.466459
O O11 0.934569 0.742419 0.078158
O O12 0.023791 0.849248 0.125270
O O13 0.000000 0.830964 0.000000
O O14 0.167988 0.335976 0.858435
O O15 0.841533 0.993809 0.250000
O O16 0.928770 0.071231 0.170897
O O17 0.903713 0.951857 0.183271
O O18 0.904834 0.524862 0.250000
O O19 0.940646 0.470323 0.335777
O O20 0.848474 0.498957 0.351281
O O21 0.609400 0.218800 0.415750
O O22 0.538739 0.269370 0.384354
#
# Coordination Sequence:
#
# PCOD8330544 Si02
#       8
#    24  24  24  24  24  24  24  24
#     4  10  21  36  54  74  99 133 168 208 265 323
#     4  10  21  34  51  76 102 134 174 215 262 312
#     4   9  17  32  52  72  98 136 176 209 252 308
#     4  11  21  33  53  77  98 123 160 212 259 307
#     4  10  19  32  49  71  99 133 169 206 251 306
#     4  10  22  39  55  69  91 125 161 198 250 318
#     4   9  18  33  50  70 102 142 180 216 254 300
#     4  10  19  32  52  79 111 145 182 224 265 306
#
# _framework density 17.583777999999999
#
# number of rings (size 3 to 8) (size 9 to 14) (size 15 to 20)
#    0.000    2.125    2.500    1.000    0.000    4.750 
#    0.000    1.875    0.000    3.000    0.000    0.000 
#    0.000    0.000    0.000    0.375    0.000    5.125 
#
# Total GULP energy -2378734.862500 kJ/mol
# GULP energy per Si atom -12389.244076 kJ/mol
# Density = 1.754376 g / cm^3
# Si number density = 17.583778 Si / 1000 Ang^3
#
#
#
# Elastic Constant Matrix: (Units=GPa)
#
#
# Indices 1 2 3 4 5 6 
#
# 1 88.8937 39.8963 40.0596 0.0000 0.0000 0.0000
# 2 39.8963 88.8937 40.0596 0.0000 0.0000 0.0000
# 3 40.0596 40.0596 95.5716 0.0000 0.0000 0.0000
# 4 0.0000 0.0000 0.0000 20.6124 0.0000 0.0000
# 5 0.0000 0.0000 0.0000 0.0000 20.6124 0.0000
# 6 0.0000 0.0000 0.0000 0.0000 0.0000 24.4987
#
#
#
# Elastic Compliance Matrix: (Units=1/GPa)
#
#
# Indices 1 2 3 4 5 6 
#
# 1 0.015456 -0.004953 -0.004403 0.000000 0.000000 0.000000
# 2 -0.004953 0.015456 -0.004403 0.000000 0.000000 0.000000
# 3 -0.004403 -0.004403 0.014154 0.000000 0.000000 0.000000
# 4 0.000000 0.000000 0.000000 0.048515 0.000000 0.000000
# 5 0.000000 0.000000 0.000000 0.000000 0.048515 0.000000
# 6 0.000000 0.000000 0.000000 0.000000 0.000000 0.040819
#
#
# Mechanical properties :
#
#
# Convention : Reuss Voigt Hill
#
# Bulk Modulus (GPa) = 56.97821 57.04334 57.01078
# Shear Modulus (GPa) = 23.11811 23.36759 23.24285
#
# Velocity S-wave (km/s) = 3.62987 3.64940 3.63965
# Velocity P-wave (km/s) = 7.07405 7.09005 7.08205
#
# Compressibility (1/GPa) = 0.01755057
#
# Stress axis : x y z
#
# Youngs Moduli (GPa) = 64.69846 64.69846 70.65084
#
# Poissons Ratio (x) = 0.32045 0.31105
# Poissons Ratio (y) = 0.32045 0.31105
# Poissons Ratio (z) = 0.28484 0.28484
#
# Static dielectric constant tensor:
#      x y z
#    x 3.232020 0.000000 0.000000 
#    y 0.000000 3.232020 0.000000 
#    z 0.000000 0.000000 3.251540 
# 
# 
# High freq. dielectric constant tensor:
#      x y z
#    x 1.668170 0.000000 0.000000 
#    y 0.000000 1.668170 0.000000 
#    z 0.000000 0.000000 1.671070 
# 
# From -- ./inp_files/8739.got.cif
#   From: 2010.03.12/outbox.cif.g09.slc.cpg/sg194_5_cif.got.tgz:8739.got - 2010.04.01 12:26:19.
