data_PCOD8330755
_publ_section_title
;
Structure prediction by ZEFSAII (Michael W. Deem and Ramdas Pophale) SiO2 
 PCOD8330755
Probable space group: P 63/M M C
;
_chemical_formula_sum "Si O2"
_cell_formula_units_Z 168
_cell_length_a 23.309181
_cell_length_b 23.309181
_cell_length_c 19.265016
_cell_angle_alpha 90.000000
_cell_angle_beta 90.000000
_cell_angle_gamma 120.000000
_cell_volume 9064.712497
_symmetry_space_group_name_H-M "P 63/M M C"
_symmetry_group_IT_number 194
_symmetry_cell_setting 'hexagonal'
loop_
_space_group_symop_operation_xyz
x,y,z
x-y,x,1/2+z
-y,x-y,z
-x,-y,1/2+z
-x+y,-x,z
y,-x+y,1/2+z
x-y,-y,-z
-x,-x+y,-z
y,x,-z
-y,-x,1/2-z
-x+y,y,1/2-z
x,x-y,1/2-z
-x,-y,-z
-x+y,-x,1/2-z
y,-x+y,-z
x,y,1/2-z
x-y,x,-z
-y,x-y,1/2-z
-x+y,y,z
x,x-y,z
-y,-x,z
y,x,1/2+z
x-y,-y,1/2+z
-x,-x+y,1/2+z
loop_
_atom_site_type_symbol
_atom_site_label
_atom_site_fract_x
_atom_site_fract_y
_atom_site_fract_z
Si Si1 0.333119 0.538415 0.168048
Si Si2 0.792579 0.716945 0.670421
Si Si3 0.134860 0.736256 0.905380
Si Si4 0.930102 0.734534 0.329569
Si Si5 0.937956 0.404007 0.613239
Si Si6 0.604026 0.077996 0.328077
Si Si7 0.356299 0.063802 0.539386
O O1 0.330768 0.540116 0.250000
O O2 0.261664 0.523327 0.137681
O O3 0.390113 0.609888 0.140060
O O4 0.350158 0.481885 0.147288
O O5 0.769790 0.690080 0.750000
O O6 0.867425 0.734850 0.657541
O O7 0.791453 0.785302 0.659226
O O8 0.745643 0.664234 0.613026
O O9 0.209809 0.790192 0.884647
O O10 0.081684 0.750753 0.868541
O O11 0.118561 0.663746 0.881689
O O12 0.126626 0.741103 0.988021
O O13 0.915498 0.714205 0.250000
O O14 0.879406 0.758811 0.356678
O O15 0.934017 0.467009 0.584273
O O16 0.952774 0.367718 0.551147
O O17 0.998359 0.428027 0.667306
O O18 0.631158 0.098336 0.250000
O O19 0.549633 0.099265 0.345263
O O20 0.296742 0.000000 0.500000
#
# Coordination Sequence:
#
# PCOD8330755 Si02
#       7
#    24  24  24  24  24  24  24
#     4   9  17  30  49  74 104 141 184 227 269 316
#     4  10  21  37  57  81 114 154 190 227 276 335
#     4  11  22  36  55  79 109 144 186 231 279 333
#     4   9  17  31  53  80 109 142 183 228 271 320
#     4  10  21  35  53  75 105 142 180 222 276 333
#     4  10  20  35  56  83 113 142 179 229 285 343
#     4  12  22  37  54  82 111 145 182 229 281 334
#
# _framework density 18.533405999999999
#
# number of rings (size 3 to 8) (size 9 to 14) (size 15 to 20)
#    0.000    1.857    2.857    1.429    0.000    7.429 
#    0.000    1.429    0.000    0.571    0.000    3.000 
#    0.000    0.571    0.000    0.000    0.000    0.000 
#
# Total GULP energy -2082126.676528 kJ/mol
# GULP energy per Si atom -12393.611170 kJ/mol
# Density = 1.849122 g / cm^3
# Si number density = 18.533406 Si / 1000 Ang^3
#
#
#
# Elastic Constant Matrix: (Units=GPa)
#
#
# Indices 1 2 3 4 5 6 
#
# 1 98.6993 57.0241 44.3784 0.0000 0.0000 0.0000
# 2 57.0241 98.6993 44.3784 0.0000 0.0000 0.0000
# 3 44.3784 44.3784 85.6160 0.0000 0.0000 0.0000
# 4 0.0000 0.0000 0.0000 21.3378 0.0000 0.0000
# 5 0.0000 0.0000 0.0000 0.0000 21.3378 0.0000
# 6 0.0000 0.0000 0.0000 0.0000 0.0000 20.8376
#
#
#
# Elastic Compliance Matrix: (Units=1/GPa)
#
#
# Indices 1 2 3 4 5 6 
#
# 1 0.016555 -0.007440 -0.004724 0.000000 0.000000 0.000000
# 2 -0.007440 0.016555 -0.004724 0.000000 0.000000 0.000000
# 3 -0.004724 -0.004724 0.016578 0.000000 0.000000 0.000000
# 4 0.000000 0.000000 0.000000 0.046865 0.000000 0.000000
# 5 0.000000 0.000000 0.000000 0.000000 0.046865 0.000000
# 6 0.000000 0.000000 0.000000 0.000000 0.000000 0.047990
#
#
# Mechanical properties :
#
#
# Convention : Reuss Voigt Hill
#
# Bulk Modulus (GPa) = 62.85745 63.84183 63.34964
# Shear Modulus (GPa) = 21.69304 21.85157 21.77231
#
# Velocity S-wave (km/s) = 3.42494 3.43744 3.43120
# Velocity P-wave (km/s) = 7.04484 7.09058 7.06774
#
# Compressibility (1/GPa) = 0.01590901
#
# Stress axis : x y z
#
# Youngs Moduli (GPa) = 60.40572 60.40572 60.32193
#
# Poissons Ratio (x) = 0.44944 0.28498
# Poissons Ratio (y) = 0.44944 0.28498
# Poissons Ratio (z) = 0.28538 0.28538
#
# Static dielectric constant tensor:
#      x y z
#    x 3.448030 0.000000 0.000000 
#    y 0.000000 3.448030 0.000000 
#    z 0.000000 0.000000 3.366610 
# 
# 
# High freq. dielectric constant tensor:
#      x y z
#    x 1.709310 0.000000 0.000000 
#    y 0.000000 1.709310 0.000000 
#    z 0.000000 0.000000 1.712850 
# 
# From -- ./inp_files/8612.got.cif
#   From: 2010.03.12/outbox.cif.g09.slc.cpg/sg194_5_cif.got.tgz:8612.got - 2010.04.01 12:26:19.
