data_PCOD8330710
_publ_section_title
;
Structure prediction by ZEFSAII (Michael W. Deem and Ramdas Pophale) SiO2 
 PCOD8330710
Probable space group: P 63/M M C
;
_chemical_formula_sum "Si O2"
_cell_formula_units_Z 144
_cell_length_a 31.545297
_cell_length_b 31.545297
_cell_length_c 8.925960
_cell_angle_alpha 90.000000
_cell_angle_beta 90.000000
_cell_angle_gamma 120.000000
_cell_volume 7692.275131
_symmetry_space_group_name_H-M "P 63/M M C"
_symmetry_group_IT_number 194
_symmetry_cell_setting 'hexagonal'
loop_
_space_group_symop_operation_xyz
x,y,z
x-y,x,1/2+z
-y,x-y,z
-x,-y,1/2+z
-x+y,-x,z
y,-x+y,1/2+z
x-y,-y,-z
-x,-x+y,-z
y,x,-z
-y,-x,1/2-z
-x+y,y,1/2-z
x,x-y,1/2-z
-x,-y,-z
-x+y,-x,1/2-z
y,-x+y,-z
x,y,1/2-z
x-y,x,-z
-y,x-y,1/2-z
-x+y,y,z
x,x-y,z
-y,-x,z
y,x,1/2+z
x-y,-y,1/2+z
-x,-x+y,1/2+z
loop_
_atom_site_type_symbol
_atom_site_label
_atom_site_fract_x
_atom_site_fract_y
_atom_site_fract_z
Si Si1 0.472246 0.327653 0.927180
Si Si2 0.760186 0.618846 0.425573
Si Si3 0.426905 0.950160 0.426348
Si Si4 0.194255 0.049446 0.926375
Si Si5 0.333408 0.571783 0.072178
Si Si6 0.758391 0.708340 0.573195
O O1 0.463500 0.317941 0.750000
O O2 0.468631 0.374685 0.977837
O O3 0.525037 0.337124 0.977150
O O4 0.433786 0.280511 0.017279
O O5 0.753912 0.623697 0.250000
O O6 0.813151 0.626301 0.463981
O O7 0.752992 0.658691 0.512953
O O8 0.428447 0.956780 0.250000
O O9 0.469587 0.939174 0.479014
O O10 0.434627 0.000000 0.500000
O O11 0.187553 0.044152 0.750000
O O12 0.189007 0.094504 0.987373
O O13 0.247418 0.058900 0.974287
O O14 0.151766 0.000000 0.000000
O O15 0.333540 0.575204 0.250000
O O16 0.283999 0.567998 0.006682
O O17 0.380005 0.619996 0.005374
O O18 0.716429 0.716429 0.500000
O O19 0.750918 0.704567 0.750000
#
# Coordination Sequence:
#
# PCOD8330710 Si02
#       6
#    24  24  24  24  24  24
#     4  10  20  34  53  76 103 137 175 215 261 315
#     4  11  24  39  54  75 106 143 182 223 264 308
#     4   9  18  33  53  77 104 134 171 216 264 313
#     4   9  18  32  51  77 106 135 170 212 257 305
#     4   9  16  27  47  76 106 132 162 206 261 319
#     4  10  20  36  58  82 108 138 174 217 265 317
#
# _framework density 18.720078000000001
#
# number of rings (size 3 to 8) (size 9 to 14) (size 15 to 20)
#    0.000    2.333    0.000    2.667    0.000    7.667 
#    0.000    1.667    0.000    1.667    0.000    0.000 
#    0.000    1.333    0.000    0.000    0.000    0.000 
#
# Total GULP energy -1785965.885420 kJ/mol
# GULP energy per Si atom -12402.540871 kJ/mol
# Density = 1.867747 g / cm^3
# Si number density = 18.720078 Si / 1000 Ang^3
#
#
#
# Elastic Constant Matrix: (Units=GPa)
#
#
# Indices 1 2 3 4 5 6 
#
# 1 129.6669 62.8552 34.2123 0.0000 0.0000 0.0000
# 2 62.8552 129.6669 34.2123 0.0000 0.0000 0.0000
# 3 34.2123 34.2123 42.8610 0.0000 0.0000 0.0000
# 4 0.0000 0.0000 0.0000 25.3974 0.0000 0.0000
# 5 0.0000 0.0000 0.0000 0.0000 25.3974 0.0000
# 6 0.0000 0.0000 0.0000 0.0000 0.0000 33.4059
#
#
#
# Elastic Compliance Matrix: (Units=1/GPa)
#
#
# Indices 1 2 3 4 5 6 
#
# 1 0.011109 -0.003858 -0.005788 0.000000 0.000000 0.000000
# 2 -0.003858 0.011109 -0.005788 0.000000 0.000000 0.000000
# 3 -0.005788 -0.005788 0.032572 0.000000 0.000000 0.000000
# 4 0.000000 0.000000 0.000000 0.039374 0.000000 0.000000
# 5 0.000000 0.000000 0.000000 0.000000 0.039374 0.000000
# 6 0.000000 0.000000 0.000000 0.000000 0.000000 0.029935
#
#
# Mechanical properties :
#
#
# Convention : Reuss Voigt Hill
#
# Bulk Modulus (GPa) = 41.80293 62.75048 52.27670
# Shear Modulus (GPa) = 24.71378 28.23446 26.47412
#
# Velocity S-wave (km/s) = 3.63736 3.88783 3.76468
# Velocity P-wave (km/s) = 6.32610 7.33122 6.84713
#
# Compressibility (1/GPa) = 0.02392177
#
# Stress axis : x y z
#
# Youngs Moduli (GPa) = 90.01376 90.01376 30.70152
#
# Poissons Ratio (x) = 0.34727 0.17771
# Poissons Ratio (y) = 0.34727 0.17771
# Poissons Ratio (z) = 0.52102 0.52102
#
# Static dielectric constant tensor:
#      x y z
#    x 3.561400 0.000000 0.000000 
#    y 0.000000 3.561400 0.000000 
#    z 0.000000 0.000000 3.213930 
# 
# 
# High freq. dielectric constant tensor:
#      x y z
#    x 1.733970 0.000000 0.000000 
#    y 0.000000 1.733970 0.000000 
#    z 0.000000 0.000000 1.704580 
# 
# From -- ./inp_files/2100.got.cif
#   From: 2010.03.12/outbox.cif.g09.slc.cpg/sg194_2_cif.got.tgz:2100.got - 2010.04.01 12:26:19.
