data_PCOD8330343
_publ_section_title
;
Structure prediction by ZEFSAII (Michael W. Deem and Ramdas Pophale) SiO2 
 PCOD8330343
Probable space group: P 63/M M C
;
_chemical_formula_sum "Si O2"
_cell_formula_units_Z 108
_cell_length_a 16.804480
_cell_length_b 16.804480
_cell_length_c 28.558120
_cell_angle_alpha 90.000000
_cell_angle_beta 90.000000
_cell_angle_gamma 120.000000
_cell_volume 6984.099245
_symmetry_space_group_name_H-M "P 63/M M C"
_symmetry_group_IT_number 194
_symmetry_cell_setting 'hexagonal'
loop_
_space_group_symop_operation_xyz
x,y,z
x-y,x,1/2+z
-y,x-y,z
-x,-y,1/2+z
-x+y,-x,z
y,-x+y,1/2+z
x-y,-y,-z
-x,-x+y,-z
y,x,-z
-y,-x,1/2-z
-x+y,y,1/2-z
x,x-y,1/2-z
-x,-y,-z
-x+y,-x,1/2-z
y,-x+y,-z
x,y,1/2-z
x-y,x,-z
-y,x-y,1/2-z
-x+y,y,z
x,x-y,z
-y,-x,z
y,x,1/2+z
x-y,-y,1/2+z
-x,-x+y,1/2+z
loop_
_atom_site_type_symbol
_atom_site_label
_atom_site_fract_x
_atom_site_fract_y
_atom_site_fract_z
Si Si1 0.845055 0.514721 0.924048
Si Si2 0.423975 0.388933 0.658742
Si Si3 0.479008 0.333336 0.110690
Si Si4 0.524593 0.666574 0.250000
Si Si5 0.098493 0.726005 0.983575
O O1 0.741312 0.482624 0.908927
O O2 0.861849 0.430925 0.924194
O O3 0.912634 0.588436 0.885798
O O4 0.862908 0.553110 0.975897
O O5 0.525345 0.474656 0.658388
O O6 0.350749 0.424898 0.653197
O O7 0.414186 0.333431 0.706222
O O8 0.480697 0.240349 0.121036
O O9 0.583041 0.416960 0.106450
O O10 0.425255 0.328393 0.063022
O O11 0.421421 0.578579 0.250000
O O12 0.517099 0.758550 0.250000
O O13 0.164793 0.835208 0.975987
O O14 0.000000 0.709397 0.000000
#
# Coordination Sequence:
#
# PCOD8330343 Si02
#       5
#    24  24  24  12  24
#     4  10  18  27  41  63  92 125 156 186 221 267
#     4   9  18  30  45  63  89 121 152 191 232 267
#     4  10  19  31  47  67  93 127 163 196 228 268
#     4  10  19  32  49  70  94 122 154 188 229 278
#     4  10  19  30  46  67  94 124 155 193 235 276
#
# _framework density 15.463697
#
# number of rings (size 3 to 8) (size 9 to 14) (size 15 to 20)
#    0.000    2.222    2.222    1.889    0.000    0.889 
#    0.000    5.000    0.000    0.222    0.000    1.556 
#    0.000    0.000    0.000    7.778    0.000    0.000 
#
# Total GULP energy -1338298.226387 kJ/mol
# GULP energy per Si atom -12391.650244 kJ/mol
# Density = 1.542850 g / cm^3
# Si number density = 15.463697 Si / 1000 Ang^3
#
#
#
# Elastic Constant Matrix: (Units=GPa)
#
#
# Indices 1 2 3 4 5 6 
#
# 1 75.7189 35.2223 36.6771 0.0000 0.0000 0.0000
# 2 35.2223 75.7189 36.6771 0.0000 0.0000 0.0000
# 3 36.6771 36.6771 87.7427 0.0000 0.0000 0.0000
# 4 0.0000 0.0000 0.0000 20.0046 0.0000 0.0000
# 5 0.0000 0.0000 0.0000 0.0000 20.0046 0.0000
# 6 0.0000 0.0000 0.0000 0.0000 0.0000 20.2483
#
#
#
# Elastic Compliance Matrix: (Units=1/GPa)
#
#
# Indices 1 2 3 4 5 6 
#
# 1 0.018575 -0.006118 -0.005207 0.000000 0.000000 0.000000
# 2 -0.006118 0.018575 -0.005207 0.000000 0.000000 0.000000
# 3 -0.005207 -0.005207 0.015750 0.000000 0.000000 0.000000
# 4 0.000000 0.000000 0.000000 0.049988 0.000000 0.000000
# 5 0.000000 0.000000 0.000000 0.000000 0.049988 0.000000
# 6 0.000000 0.000000 0.000000 0.000000 0.000000 0.049387
#
#
# Mechanical properties :
#
#
# Convention : Reuss Voigt Hill
#
# Bulk Modulus (GPa) = 50.41477 50.70372 50.55924
# Shear Modulus (GPa) = 20.66627 20.75846 20.71236
#
# Velocity S-wave (km/s) = 3.65970 3.66785 3.66378
# Velocity P-wave (km/s) = 7.10849 7.12724 7.11787
#
# Compressibility (1/GPa) = 0.01983546
#
# Stress axis : x y z
#
# Youngs Moduli (GPa) = 53.83579 53.83579 63.49188
#
# Poissons Ratio (x) = 0.32939 0.33060
# Poissons Ratio (y) = 0.32939 0.33060
# Poissons Ratio (z) = 0.28032 0.28032
#
# Static dielectric constant tensor:
#      x y z
#    x 2.952990 0.000000 0.000000 
#    y 0.000000 2.952990 0.000000 
#    z 0.000000 0.000000 3.194530 
# 
# 
# High freq. dielectric constant tensor:
#      x y z
#    x 1.575490 0.000000 0.000000 
#    y 0.000000 1.575490 0.000000 
#    z 0.000000 0.000000 1.595340 
# 
# From -- ./inp_files/10605.got.cif
#   From: 2010.03.12/outbox.cif.g09.slc.cpg/sg194_6_cif.got.tgz:10605.got - 2010.04.01 12:26:19.
