data_PCOD8330546
_publ_section_title
;
Structure prediction by ZEFSAII (Michael W. Deem and Ramdas Pophale) SiO2 
 PCOD8330546
Probable space group: P 63/M M C
;
_chemical_formula_sum "Si O2"
_cell_formula_units_Z 144
_cell_length_a 22.488781
_cell_length_b 22.488781
_cell_length_c 19.170720
_cell_angle_alpha 90.000000
_cell_angle_beta 90.000000
_cell_angle_gamma 120.000000
_cell_volume 8396.550150
_symmetry_space_group_name_H-M "P 63/M M C"
_symmetry_group_IT_number 194
_symmetry_cell_setting 'hexagonal'
loop_
_space_group_symop_operation_xyz
x,y,z
x-y,x,1/2+z
-y,x-y,z
-x,-y,1/2+z
-x+y,-x,z
y,-x+y,1/2+z
x-y,-y,-z
-x,-x+y,-z
y,x,-z
-y,-x,1/2-z
-x+y,y,1/2-z
x,x-y,1/2-z
-x,-y,-z
-x+y,-x,1/2-z
y,-x+y,-z
x,y,1/2-z
x-y,x,-z
-y,x-y,1/2-z
-x+y,y,z
x,x-y,z
-y,-x,z
y,x,1/2+z
x-y,-y,1/2+z
-x,-x+y,1/2+z
loop_
_atom_site_type_symbol
_atom_site_label
_atom_site_fract_x
_atom_site_fract_y
_atom_site_fract_z
Si Si1 0.199631 0.259112 0.328944
Si Si2 0.473223 0.080478 0.828524
Si Si3 0.871878 0.607658 0.428148
Si Si4 0.185996 0.951898 0.567857
Si Si5 0.921961 0.528633 0.168648
Si Si6 0.872896 0.606117 0.913175
O O1 0.227572 0.266634 0.250000
O O2 0.125734 0.251467 0.328785
O O3 0.192507 0.191151 0.365835
O O4 0.253152 0.324170 0.375037
O O5 0.454950 0.089202 0.750000
O O6 0.553207 0.106413 0.836416
O O7 0.458544 0.129361 0.876570
O O8 0.428184 0.001579 0.851223
O O9 0.791750 0.583500 0.422571
O O10 0.918137 0.687054 0.407774
O O11 0.882076 0.555925 0.378794
O O12 0.893193 0.604078 0.507390
O O13 0.107362 0.892639 0.553424
O O14 0.215616 0.000000 0.500000
O O15 0.909712 0.537537 0.250000
O O16 0.896585 0.448293 0.153228
O O17 0.799173 0.598346 0.906110
#
# Coordination Sequence:
#
# PCOD8330546 Si02
#       6
#    24  24  24  24  24  24
#     4  10  20  34  53  76 101 133 175 220 267 320
#     4   9  18  31  47  71 101 130 163 203 245 297
#     4  10  21  33  50  77 106 135 169 213 258 301
#     4  11  21  35  54  76 107 141 173 215 266 320
#     4   9  19  35  53  75 105 138 170 210 260 308
#     4  10  19  32  49  73 104 135 168 210 260 310
#
# _framework density 17.149899999999999
#
# number of rings (size 3 to 8) (size 9 to 14) (size 15 to 20)
#    0.000    2.167    1.667    3.000    0.000    4.333 
#    0.000    3.333    0.000    3.667    0.000    0.000 
#    0.000    0.000    0.000    0.000    0.000    0.000 
#
# Total GULP energy -1785188.370583 kJ/mol
# GULP energy per Si atom -12397.141462 kJ/mol
# Density = 1.711087 g / cm^3
# Si number density = 17.149900 Si / 1000 Ang^3
#
#
#
# Elastic Constant Matrix: (Units=GPa)
#
#
# Indices 1 2 3 4 5 6 
#
# 1 58.7713 17.2095 44.0573 0.0000 0.0000 0.0000
# 2 17.2095 58.7713 44.0573 0.0000 0.0000 0.0000
# 3 44.0573 44.0573 118.6790 0.0000 0.0000 0.0000
# 4 0.0000 0.0000 0.0000 32.8321 0.0000 0.0000
# 5 0.0000 0.0000 0.0000 0.0000 32.8321 0.0000
# 6 0.0000 0.0000 0.0000 0.0000 0.0000 20.7809
#
#
#
# Elastic Compliance Matrix: (Units=1/GPa)
#
#
# Indices 1 2 3 4 5 6 
#
# 1 0.023586 -0.000475 -0.008579 0.000000 0.000000 0.000000
# 2 -0.000475 0.023586 -0.008579 0.000000 0.000000 0.000000
# 3 -0.008579 -0.008579 0.014796 0.000000 0.000000 0.000000
# 4 0.000000 0.000000 0.000000 0.030458 0.000000 0.000000
# 5 0.000000 0.000000 0.000000 0.000000 0.030458 0.000000
# 6 0.000000 0.000000 0.000000 0.000000 0.000000 0.048121
#
#
# Mechanical properties :
#
#
# Convention : Reuss Voigt Hill
#
# Bulk Modulus (GPa) = 37.45347 49.65219 43.55283
# Shear Modulus (GPa) = 23.23726 26.01554 24.62640
#
# Velocity S-wave (km/s) = 3.68496 3.89903 3.79350
# Velocity P-wave (km/s) = 6.32388 7.02030 6.68117
#
# Compressibility (1/GPa) = 0.02669980
#
# Stress axis : x y z
#
# Youngs Moduli (GPa) = 42.39867 42.39867 67.58585
#
# Poissons Ratio (x) = 0.02013 0.57985
# Poissons Ratio (y) = 0.02013 0.57985
# Poissons Ratio (z) = 0.36376 0.36376
#
# Static dielectric constant tensor:
#      x y z
#    x 3.094880 0.000000 0.000000 
#    y 0.000000 3.094880 0.000000 
#    z 0.000000 0.000000 3.305190 
# 
# 
# High freq. dielectric constant tensor:
#      x y z
#    x 1.647210 0.000000 0.000000 
#    y 0.000000 1.647210 0.000000 
#    z 0.000000 0.000000 1.671630 
# 
# From -- ./inp_files/8220.got.cif
#   From: 2010.03.12/outbox.cif.g09.slc.cpg/sg194_5_cif.got.tgz:8220.got - 2010.04.01 12:26:19.
