data_PCOD8330225
_publ_section_title
;
Structure prediction by ZEFSAII (Michael W. Deem and Ramdas Pophale) SiO2 
 PCOD8330225
Probable space group: P 63/M C M
;
_chemical_formula_sum "Si O2"
_cell_formula_units_Z 64
_cell_length_a 14.201671
_cell_length_b 14.201671
_cell_length_c 17.467731
_cell_angle_alpha 90.000000
_cell_angle_beta 90.000000
_cell_angle_gamma 120.000000
_cell_volume 3051.026795
_symmetry_space_group_name_H-M "P 63/M C M"
_symmetry_group_IT_number 193
_symmetry_cell_setting 'hexagonal'
loop_
_space_group_symop_operation_xyz
x,y,z
x-y,x,1/2+z
-y,x-y,z
-x,-y,1/2+z
-x+y,-x,z
y,-x+y,1/2+z
x-y,-y,1/2-z
-x,-x+y,1/2-z
y,x,1/2-z
-y,-x,-z
-x+y,y,-z
x,x-y,-z
-x,-y,-z
-x+y,-x,1/2-z
y,-x+y,-z
x,y,1/2-z
x-y,x,-z
-y,x-y,1/2-z
-x+y,y,1/2+z
x,x-y,1/2+z
-y,-x,1/2+z
y,x,z
x-y,-y,z
-x,-x+y,z
loop_
_atom_site_type_symbol
_atom_site_label
_atom_site_fract_x
_atom_site_fract_y
_atom_site_fract_z
Si Si1 0.000000 0.793203 0.840606
Si Si2 0.000000 0.000000 0.590476
Si Si3 0.448467 0.573724 0.585632
Si Si4 0.794264 0.226999 0.339458
O O1 0.000000 0.893517 0.880594
O O2 0.894036 0.682082 0.867157
O O3 0.000000 0.808093 0.750000
O O4 0.000000 0.000000 0.500000
O O5 0.413679 0.586322 0.500000
O O6 0.483982 0.483982 0.586627
O O7 0.346399 0.532262 0.642107
O O8 0.547186 0.687562 0.615214
O O9 0.774018 0.204665 0.250000
#
# Coordination Sequence:
#
# PCOD8330225 Si02
#       4
#    12   4  24  24
#     4  10  24  46  68  94 132 172 220 280 330 384
#     4  12  28  44  67  96 127 176 223 270 334 404
#     4  11  24  41  64  96 132 171 209 264 330 392
#     4  11  23  42  68  96 129 170 220 271 319 388
#
# _framework density 20.976544000000001
#
# number of rings (size 3 to 8) (size 9 to 14) (size 15 to 20)
#    0.000    1.125    1.875    3.562    2.625    5.250 
#    0.000    0.000    0.000    0.000    0.000    0.000 
#    0.000    0.000    0.000    0.000    0.000    0.000 
#
# Total GULP energy -793990.179539 kJ/mol
# GULP energy per Si atom -12406.096555 kJ/mol
# Density = 2.092880 g / cm^3
# Si number density = 20.976544 Si / 1000 Ang^3
#
#
#
# Elastic Constant Matrix: (Units=GPa)
#
#
# Indices 1 2 3 4 5 6 
#
# 1 109.4457 37.5550 44.5243 0.0000 0.0000 0.0000
# 2 37.5550 109.4457 44.5243 0.0000 0.0000 0.0000
# 3 44.5243 44.5243 97.4328 0.0000 0.0000 0.0000
# 4 0.0000 0.0000 0.0000 32.7916 0.0000 0.0000
# 5 0.0000 0.0000 0.0000 0.0000 32.7916 0.0000
# 6 0.0000 0.0000 0.0000 0.0000 0.0000 35.9453
#
#
#
# Elastic Compliance Matrix: (Units=1/GPa)
#
#
# Indices 1 2 3 4 5 6 
#
# 1 0.011658 -0.002252 -0.004299 0.000000 0.000000 0.000000
# 2 -0.002252 0.011658 -0.004299 0.000000 0.000000 0.000000
# 3 -0.004299 -0.004299 0.014192 0.000000 0.000000 0.000000
# 4 0.000000 0.000000 0.000000 0.030496 0.000000 0.000000
# 5 0.000000 0.000000 0.000000 0.000000 0.030496 0.000000
# 6 0.000000 0.000000 0.000000 0.000000 0.000000 0.027820
#
#
# Mechanical properties :
#
#
# Convention : Reuss Voigt Hill
#
# Bulk Modulus (GPa) = 63.24674 63.28126 63.26400
# Shear Modulus (GPa) = 32.61831 32.95376 32.78603
#
# Velocity S-wave (km/s) = 3.94761 3.96786 3.95775
# Velocity P-wave (km/s) = 7.14107 7.15716 7.14912
#
# Compressibility (1/GPa) = 0.01581109
#
# Stress axis : x y z
#
# Youngs Moduli (GPa) = 85.77563 85.77563 70.46135
#
# Poissons Ratio (x) = 0.19314 0.30288
# Poissons Ratio (y) = 0.19314 0.30288
# Poissons Ratio (z) = 0.36871 0.36871
#
# Static dielectric constant tensor:
#      x y z
#    x 3.830000 0.000000 0.000000 
#    y 0.000000 3.830000 0.000000 
#    z 0.000000 0.000000 3.788000 
# 
# 
# High freq. dielectric constant tensor:
#      x y z
#    x 1.829430 0.000000 0.000000 
#    y 0.000000 1.829430 0.000000 
#    z 0.000000 0.000000 1.823730 
# 
# From -- ./inp_files/4741.got.cif
#   From: 2010.03.12/outbox.cif.g09.slc.cpg/sg193_3_cif.got.tgz:4741.got - 2010.04.01 12:20:39.
