data_PCOD8330717
_publ_section_title
;
Structure prediction by ZEFSAII (Michael W. Deem and Ramdas Pophale) SiO2 
 PCOD8330717
Probable space group: P 63/M M C
;
_chemical_formula_sum "Si O2"
_cell_formula_units_Z 168
_cell_length_a 17.898923
_cell_length_b 17.898923
_cell_length_c 32.706380
_cell_angle_alpha 90.000000
_cell_angle_beta 90.000000
_cell_angle_gamma 120.000000
_cell_volume 9074.378905
_symmetry_space_group_name_H-M "P 63/M M C"
_symmetry_group_IT_number 194
_symmetry_cell_setting 'hexagonal'
loop_
_space_group_symop_operation_xyz
x,y,z
x-y,x,1/2+z
-y,x-y,z
-x,-y,1/2+z
-x+y,-x,z
y,-x+y,1/2+z
x-y,-y,-z
-x,-x+y,-z
y,x,-z
-y,-x,1/2-z
-x+y,y,1/2-z
x,x-y,1/2-z
-x,-y,-z
-x+y,-x,1/2-z
y,-x+y,-z
x,y,1/2-z
x-y,x,-z
-y,x-y,1/2-z
-x+y,y,z
x,x-y,z
-y,-x,z
y,x,1/2+z
x-y,-y,1/2+z
-x,-x+y,1/2+z
loop_
_atom_site_type_symbol
_atom_site_label
_atom_site_fract_x
_atom_site_fract_y
_atom_site_fract_z
Si Si1 0.620732 0.723887 0.053172
Si Si2 0.498350 0.333993 0.296766
Si Si3 0.076549 0.319902 0.666013
Si Si4 0.905122 0.636752 0.796276
Si Si5 0.505962 0.668347 0.975643
Si Si6 0.332496 0.842080 0.367565
Si Si7 0.672765 0.919430 0.929141
O O1 0.646679 0.823340 0.051461
O O2 0.573440 0.679220 0.095381
O O3 0.710147 0.722333 0.048632
O O4 0.557200 0.670443 0.016443
O O5 0.471949 0.336920 0.250000
O O6 0.529397 0.264699 0.301959
O O7 0.574924 0.425077 0.311532
O O8 0.418828 0.313472 0.325571
O O9 0.149272 0.298544 0.682529
O O10 0.064083 0.304279 0.618134
O O11 0.987821 0.261482 0.689780
O O12 0.915862 0.612269 0.750000
O O13 0.828089 0.656178 0.800115
O O14 0.888056 0.557102 0.825396
O O15 0.471239 0.735620 0.980018
O O16 0.426593 0.573408 0.968840
O O17 0.570156 0.692859 0.937012
O O18 0.423049 0.846097 0.371647
O O19 0.257524 0.742477 0.368529
O O20 0.700662 0.850331 0.945932
#
# Coordination Sequence:
#
# PCOD8330717 Si02
#       7
#    24  24  24  24  24  24  24
#     4  10  20  36  58  81 105 140 182 226 274 321
#     4   9  17  29  45  66  93 126 165 207 248 291
#     4  10  20  35  54  75 102 137 176 217 263 318
#     4  10  21  37  56  78 104 136 176 222 277 335
#     4  10  21  36  55  80 113 150 189 228 270 316
#     4  10  20  34  53  78 107 140 178 220 268 320
#     4  10  21  36  53  78 109 142 176 216 268 323
#
# _framework density 18.513665
#
# number of rings (size 3 to 8) (size 9 to 14) (size 15 to 20)
#    0.000    2.143    1.429    1.714    0.000    4.571 
#    0.000    1.429    0.000    3.143    0.000    0.000 
#    0.000    3.429    0.000    0.000    0.000    0.000 
#
# Total GULP energy -2082957.403774 kJ/mol
# GULP energy per Si atom -12398.555975 kJ/mol
# Density = 1.847153 g / cm^3
# Si number density = 18.513665 Si / 1000 Ang^3
#
#
#
# Elastic Constant Matrix: (Units=GPa)
#
#
# Indices 1 2 3 4 5 6 
#
# 1 82.4543 47.5897 12.4496 0.0000 0.0000 0.0000
# 2 47.5897 82.4543 12.4496 0.0000 0.0000 0.0000
# 3 12.4496 12.4496 58.4905 0.0000 0.0000 0.0000
# 4 0.0000 0.0000 0.0000 24.3114 0.0000 0.0000
# 5 0.0000 0.0000 0.0000 0.0000 24.3114 0.0000
# 6 0.0000 0.0000 0.0000 0.0000 0.0000 17.4323
#
#
#
# Elastic Compliance Matrix: (Units=1/GPa)
#
#
# Indices 1 2 3 4 5 6 
#
# 1 0.018349 -0.010333 -0.001706 0.000000 0.000000 0.000000
# 2 -0.010333 0.018349 -0.001706 0.000000 0.000000 0.000000
# 3 -0.001706 -0.001706 0.017823 0.000000 0.000000 0.000000
# 4 0.000000 0.000000 0.000000 0.041133 0.000000 0.000000
# 5 0.000000 0.000000 0.000000 0.000000 0.041133 0.000000
# 6 0.000000 0.000000 0.000000 0.000000 0.000000 0.057365
#
#
# Mechanical properties :
#
#
# Convention : Reuss Voigt Hill
#
# Bulk Modulus (GPa) = 36.99476 40.93076 38.96276
# Shear Modulus (GPa) = 21.67750 23.27172 22.47461
#
# Velocity S-wave (km/s) = 3.42554 3.54927 3.48795
# Velocity P-wave (km/s) = 5.97257 6.24122 6.10837
#
# Compressibility (1/GPa) = 0.02703085
#
# Stress axis : x y z
#
# Youngs Moduli (GPa) = 54.49770 54.49770 56.10685
#
# Poissons Ratio (x) = 0.56312 0.09573
# Poissons Ratio (y) = 0.56312 0.09573
# Poissons Ratio (z) = 0.09299 0.09299
#
# Static dielectric constant tensor:
#      x y z
#    x 3.389070 0.000000 0.000000 
#    y 0.000000 3.389070 0.000000 
#    z 0.000000 0.000000 3.553210 
# 
# 
# High freq. dielectric constant tensor:
#      x y z
#    x 1.708140 0.000000 0.000000 
#    y 0.000000 1.708140 0.000000 
#    z 0.000000 0.000000 1.725810 
# 
# From -- ./inp_files/12281.got.cif
#   From: 2010.03.12/outbox.cif.g09.slc.cpg/sg194_7_cif.got.tgz:12281.got - 2010.04.01 12:26:19.
