data_PCOD8330561
_publ_section_title
;
Structure prediction by ZEFSAII (Michael W. Deem and Ramdas Pophale) SiO2 
 PCOD8330561
Probable space group: P 63/M M C
;
_chemical_formula_sum "Si O2"
_cell_formula_units_Z 192
_cell_length_a 23.502543
_cell_length_b 23.502543
_cell_length_c 21.367064
_cell_angle_alpha 90.000000
_cell_angle_beta 90.000000
_cell_angle_gamma 120.000000
_cell_volume 10221.277858
_symmetry_space_group_name_H-M "P 63/M M C"
_symmetry_group_IT_number 194
_symmetry_cell_setting 'hexagonal'
loop_
_space_group_symop_operation_xyz
x,y,z
x-y,x,1/2+z
-y,x-y,z
-x,-y,1/2+z
-x+y,-x,z
y,-x+y,1/2+z
x-y,-y,-z
-x,-x+y,-z
y,x,-z
-y,-x,1/2-z
-x+y,y,1/2-z
x,x-y,1/2-z
-x,-y,-z
-x+y,-x,1/2-z
y,-x+y,-z
x,y,1/2-z
x-y,x,-z
-y,x-y,1/2-z
-x+y,y,z
x,x-y,z
-y,-x,z
y,x,1/2+z
x-y,-y,1/2+z
-x,-x+y,1/2+z
loop_
_atom_site_type_symbol
_atom_site_label
_atom_site_fract_x
_atom_site_fract_y
_atom_site_fract_z
Si Si1 0.071600 0.367327 0.518014
Si Si2 0.303223 0.480882 0.820191
Si Si3 0.734828 0.964186 0.178943
Si Si4 0.771330 0.104968 0.146033
Si Si5 0.125213 0.125851 0.676025
Si Si6 0.597645 0.063720 0.676606
Si Si7 0.865759 0.601400 0.613446
Si Si8 0.403603 0.470361 0.898703
O O1 0.101240 0.342235 0.571586
O O2 0.121579 0.394561 0.460478
O O3 0.062874 0.427170 0.542511
O O4 0.000000 0.307328 0.500000
O O5 0.327490 0.506902 0.750000
O O6 0.252941 0.505882 0.843225
O O7 0.263877 0.402484 0.819231
O O8 0.365668 0.504020 0.865239
O O9 0.725909 0.938587 0.250000
O O10 0.674024 0.910636 0.140322
O O11 0.739688 0.034349 0.177379
O O12 0.802231 0.974488 0.147842
O O13 0.850239 0.149762 0.156662
O O14 0.129962 0.137432 0.750000
O O15 0.071171 0.142341 0.647648
O O16 0.101530 0.050765 0.659382
O O17 0.610090 0.061742 0.750000
O O18 0.542000 0.083999 0.664014
O O19 0.666309 0.117092 0.644897
O O20 0.574674 0.991263 0.649862
O O21 0.789120 0.578240 0.625465
O O22 0.471616 0.528385 0.925230
#
# Coordination Sequence:
#
# PCOD8330561 Si02
#       8
#    24  24  24  24  24  24  24  24
#     4  11  20  37  53  76 107 141 181 226 273 327
#     4   9  17  29  47  75 111 146 176 205 245 311
#     4  11  21  32  49  77 109 137 174 224 278 333
#     4  10  19  32  51  73 104 144 182 221 270 323
#     4   9  17  29  44  63  91 129 172 215 258 307
#     4  10  21  37  58  87 118 144 177 223 275 336
#     4  12  24  38  57  80 111 149 186 226 278 333
#     4  10  20  34  58  84 109 141 176 222 277 328
#
# _framework density 18.784344999999998
#
# number of rings (size 3 to 8) (size 9 to 14) (size 15 to 20)
#    0.000    1.750    2.500    3.125    0.000    5.250 
#    0.000    0.000    0.000    0.500    0.000    0.875 
#    0.000    0.000    0.000    5.375    0.000    2.375 
#
# Total GULP energy -2380157.200190 kJ/mol
# GULP energy per Si atom -12396.652084 kJ/mol
# Density = 1.874159 g / cm^3
# Si number density = 18.784345 Si / 1000 Ang^3
#
#
#
# Elastic Constant Matrix: (Units=GPa)
#
#
# Indices 1 2 3 4 5 6 
#
# 1 85.3877 34.4729 20.8818 0.0000 0.0000 0.0000
# 2 34.4729 85.3877 20.8818 0.0000 0.0000 0.0000
# 3 20.8818 20.8818 73.8990 0.0000 0.0000 0.0000
# 4 0.0000 0.0000 0.0000 17.6932 0.0000 0.0000
# 5 0.0000 0.0000 0.0000 0.0000 17.6932 0.0000
# 6 0.0000 0.0000 0.0000 0.0000 0.0000 25.4574
#
#
#
# Elastic Compliance Matrix: (Units=1/GPa)
#
#
# Indices 1 2 3 4 5 6 
#
# 1 0.014447 -0.005193 -0.002615 0.000000 0.000000 0.000000
# 2 -0.005193 0.014447 -0.002615 0.000000 0.000000 0.000000
# 3 -0.002615 -0.002615 0.015010 0.000000 0.000000 0.000000
# 4 0.000000 0.000000 0.000000 0.056519 0.000000 0.000000
# 5 0.000000 0.000000 0.000000 0.000000 0.056519 0.000000
# 6 0.000000 0.000000 0.000000 0.000000 0.000000 0.039281
#
#
# Mechanical properties :
#
#
# Convention : Reuss Voigt Hill
#
# Bulk Modulus (GPa) = 43.36840 44.12751 43.74795
# Shear Modulus (GPa) = 22.24629 23.39793 22.82211
#
# Velocity S-wave (km/s) = 3.44510 3.53315 3.48940
# Velocity P-wave (km/s) = 6.24200 6.33931 6.29084
#
# Compressibility (1/GPa) = 0.02305827
#
# Stress axis : x y z
#
# Youngs Moduli (GPa) = 69.21652 69.21652 66.62300
#
# Poissons Ratio (x) = 0.35946 0.17422
# Poissons Ratio (y) = 0.35946 0.17422
# Poissons Ratio (z) = 0.18100 0.18100
#
# Static dielectric constant tensor:
#      x y z
#    x 3.512720 0.000000 0.000000 
#    y 0.000000 3.512720 0.000000 
#    z 0.000000 0.000000 3.280570 
# 
# 
# High freq. dielectric constant tensor:
#      x y z
#    x 1.722820 0.000000 0.000000 
#    y 0.000000 1.722820 0.000000 
#    z 0.000000 0.000000 1.712260 
# 
# From -- ./inp_files/8676.got.cif
#   From: 2010.03.12/outbox.cif.g09.slc.cpg/sg194_5_cif.got.tgz:8676.got - 2010.04.01 12:26:19.
