data_PCOD8330492
_publ_section_title
;
Structure prediction by ZEFSAII (Michael W. Deem and Ramdas Pophale) SiO2 
 PCOD8330492
Probable space group: P 63/M M C
;
_chemical_formula_sum "Si O2"
_cell_formula_units_Z 168
_cell_length_a 24.188997
_cell_length_b 24.188997
_cell_length_c 19.545770
_cell_angle_alpha 90.000000
_cell_angle_beta 90.000000
_cell_angle_gamma 120.000000
_cell_volume 9904.193965
_symmetry_space_group_name_H-M "P 63/M M C"
_symmetry_group_IT_number 194
_symmetry_cell_setting 'hexagonal'
loop_
_space_group_symop_operation_xyz
x,y,z
x-y,x,1/2+z
-y,x-y,z
-x,-y,1/2+z
-x+y,-x,z
y,-x+y,1/2+z
x-y,-y,-z
-x,-x+y,-z
y,x,-z
-y,-x,1/2-z
-x+y,y,1/2-z
x,x-y,1/2-z
-x,-y,-z
-x+y,-x,1/2-z
y,-x+y,-z
x,y,1/2-z
x-y,x,-z
-y,x-y,1/2-z
-x+y,y,z
x,x-y,z
-y,-x,z
y,x,1/2+z
x-y,-y,1/2+z
-x,-x+y,1/2+z
loop_
_atom_site_type_symbol
_atom_site_label
_atom_site_fract_x
_atom_site_fract_y
_atom_site_fract_z
Si Si1 0.919511 0.672443 0.173931
Si Si2 0.366799 0.121732 0.591081
Si Si3 0.029609 0.182935 0.673802
Si Si4 0.774802 0.948410 0.442512
Si Si5 0.150976 0.727656 0.943194
Si Si6 0.388055 0.359064 0.672442
Si Si7 0.541746 0.587237 0.562247
O O1 0.889928 0.651514 0.250000
O O2 0.932011 0.742069 0.156242
O O3 0.869145 0.624257 0.120305
O O4 0.986008 0.673656 0.169773
O O5 0.383451 0.191726 0.618341
O O6 0.291611 0.072326 0.595132
O O7 0.383986 0.124227 0.512091
O O8 0.405061 0.096447 0.637284
O O9 0.999352 0.171398 0.750000
O O10 0.077869 0.155737 0.669733
O O11 0.975637 0.147301 0.616882
O O12 0.775117 0.887559 0.476291
O O13 0.787285 0.000000 0.500000
O O14 0.229943 0.770058 0.944288
O O15 0.116408 0.650602 0.937288
O O16 0.414674 0.373100 0.750000
O O17 0.419050 0.425868 0.631691
O O18 0.585109 0.585109 0.500000
O O19 0.470392 0.529609 0.556794
#
# Coordination Sequence:
#
# PCOD8330492 Si02
#       7
#    24  24  24  24  24  24  24
#     4   9  17  28  45  70  98 127 157 191 241 300
#     4  10  20  31  47  73 101 131 164 198 243 306
#     4  10  19  31  47  65  87 114 148 191 237 291
#     4  11  22  33  48  67  90 118 152 196 244 298
#     4  10  19  31  49  72 102 135 168 208 248 296
#     4  10  19  32  50  72 104 138 165 204 247 293
#     4  10  20  34  54  76 102 141 181 216 255 304
#
# _framework density 16.962510999999999
#
# number of rings (size 3 to 8) (size 9 to 14) (size 15 to 20)
#    0.000    2.000    2.857    1.714    2.000    2.857 
#    0.000    1.429    0.000    2.857    0.000    0.000 
#    0.000    0.000    0.000    7.143    0.000   13.000 
#
# Total GULP energy -2082123.778734 kJ/mol
# GULP energy per Si atom -12393.593921 kJ/mol
# Density = 1.692390 g / cm^3
# Si number density = 16.962511 Si / 1000 Ang^3
#
#
#
# Elastic Constant Matrix: (Units=GPa)
#
#
# Indices 1 2 3 4 5 6 
#
# 1 61.8459 27.2638 22.0159 0.0000 0.0000 0.0000
# 2 27.2638 61.8459 22.0159 0.0000 0.0000 0.0000
# 3 22.0159 22.0159 92.9921 0.0000 0.0000 0.0000
# 4 0.0000 0.0000 0.0000 14.8312 0.0000 0.0000
# 5 0.0000 0.0000 0.0000 0.0000 14.8312 0.0000
# 6 0.0000 0.0000 0.0000 0.0000 0.0000 17.2911
#
#
#
# Elastic Compliance Matrix: (Units=1/GPa)
#
#
# Indices 1 2 3 4 5 6 
#
# 1 0.020813 -0.008104 -0.003009 0.000000 0.000000 0.000000
# 2 -0.008104 0.020813 -0.003009 0.000000 0.000000 0.000000
# 3 -0.003009 -0.003009 0.012178 0.000000 0.000000 0.000000
# 4 0.000000 0.000000 0.000000 0.067425 0.000000 0.000000
# 5 0.000000 0.000000 0.000000 0.000000 0.067425 0.000000
# 6 0.000000 0.000000 0.000000 0.000000 0.000000 0.057833
#
#
# Mechanical properties :
#
#
# Convention : Reuss Voigt Hill
#
# Bulk Modulus (GPa) = 39.12255 39.91948 39.52101
# Shear Modulus (GPa) = 17.65218 19.08325 18.36771
#
# Velocity S-wave (km/s) = 3.22942 3.35778 3.29423
# Velocity P-wave (km/s) = 6.08439 6.21433 6.14970
#
# Compressibility (1/GPa) = 0.02556070
#
# Stress axis : x y z
#
# Youngs Moduli (GPa) = 48.04741 48.04741 82.11332
#
# Poissons Ratio (x) = 0.38937 0.24707
# Poissons Ratio (y) = 0.38937 0.24707
# Poissons Ratio (z) = 0.14457 0.14457
#
# Static dielectric constant tensor:
#      x y z
#    x 2.987350 0.000000 0.000000 
#    y 0.000000 2.987350 0.000000 
#    z 0.000000 0.000000 3.399930 
# 
# 
# High freq. dielectric constant tensor:
#      x y z
#    x 1.624080 0.000000 0.000000 
#    y 0.000000 1.624080 0.000000 
#    z 0.000000 0.000000 1.668510 
# 
# From -- ./inp_files/8596.got.cif
#   From: 2010.03.12/outbox.cif.g09.slc.cpg/sg194_5_cif.got.tgz:8596.got - 2010.04.01 12:26:19.
