data_PCOD8330255
_publ_section_title
;
Structure prediction by ZEFSAII (Michael W. Deem and Ramdas Pophale) SiO2 
 PCOD8330255
Probable space group: P 63/M C M
;
_chemical_formula_sum "Si O2"
_cell_formula_units_Z 32
_cell_length_a 9.567715
_cell_length_b 9.567715
_cell_length_c 17.188013
_cell_angle_alpha 90.000000
_cell_angle_beta 90.000000
_cell_angle_gamma 120.000000
_cell_volume 1362.613745
_symmetry_space_group_name_H-M "P 63/M C M"
_symmetry_group_IT_number 193
_symmetry_cell_setting 'hexagonal'
loop_
_space_group_symop_operation_xyz
x,y,z
x-y,x,1/2+z
-y,x-y,z
-x,-y,1/2+z
-x+y,-x,z
y,-x+y,1/2+z
x-y,-y,1/2-z
-x,-x+y,1/2-z
y,x,1/2-z
-y,-x,-z
-x+y,y,-z
x,x-y,-z
-x,-y,-z
-x+y,-x,1/2-z
y,-x+y,-z
x,y,1/2-z
x-y,x,-z
-y,x-y,1/2-z
-x+y,y,1/2+z
x,x-y,1/2+z
-y,-x,1/2+z
y,x,z
x-y,-y,z
-x,-x+y,z
loop_
_atom_site_type_symbol
_atom_site_label
_atom_site_fract_x
_atom_site_fract_y
_atom_site_fract_z
Si Si1 0.000000 0.484137 0.157345
Si Si2 0.174240 0.000000 0.158711
Si Si3 0.333333 0.666666 0.908191
O O1 0.000000 0.326396 0.120301
O O2 0.838044 0.475449 0.124724
O O3 0.000000 0.494274 0.250000
O O4 0.158906 0.158906 0.136657
O O5 0.201372 0.000000 0.250000
O O6 0.333334 0.666667 0.000000
#
# Coordination Sequence:
#
# PCOD8330255 Si02
#       3
#    12  12   8
#     4  11  23  42  71 101 134 181 241 293 342 419
#     4   7  14  30  57  93 128 161 209 279 338 387
#     4  12  28  47  67  99 148 188 226 294 373 422
#
# _framework density 23.484279000000001
#
# number of rings (size 3 to 8) (size 9 to 14) (size 15 to 20)
#    0.750    1.500    0.000    3.375    5.250    0.000 
#    0.000    0.000    0.000    2.250    0.000    0.000 
#    0.000    0.000    0.000    0.000    0.000    0.000 
#
# Total GULP energy -396457.414398 kJ/mol
# GULP energy per Si atom -12389.294200 kJ/mol
# Density = 2.343083 g / cm^3
# Si number density = 23.484279 Si / 1000 Ang^3
#
#
#
# Elastic Constant Matrix: (Units=GPa)
#
#
# Indices 1 2 3 4 5 6 
#
# 1 64.1275 7.0417 37.0165 -0.0002 -0.0003 0.0002
# 2 7.0417 64.1270 37.0165 0.0005 -0.0011 0.0005
# 3 37.0165 37.0165 138.2453 -0.0013 0.0011 -0.0001
# 4 -0.0002 0.0005 -0.0013 -3.5528 -0.0013 0.0004
# 5 -0.0003 -0.0011 0.0011 -0.0013 -3.5428 0.0004
# 6 0.0002 0.0005 -0.0001 0.0004 0.0004 28.5434
#
#
#
# Elastic Compliance Matrix: (Units=1/GPa)
#
#
# Indices 1 2 3 4 5 6 
#
# 1 0.018497 0.000979 -0.005215 0.000001 -0.000004 0.000000
# 2 0.000979 0.018497 -0.005215 0.000005 -0.000008 0.000000
# 3 -0.005215 -0.005215 0.010026 -0.000004 0.000005 0.000000
# 4 0.000001 0.000005 -0.000004 -0.281471 0.000107 0.000004
# 5 -0.000004 -0.000008 0.000005 0.000107 -0.282263 0.000004
# 6 0.000000 0.000000 0.000000 0.000004 0.000004 0.035034
#
#
# Mechanical properties :
#
#
# Convention : Reuss Voigt Hill
#
# Bulk Modulus (GPa) = 35.56394 47.62769 41.59581
# Shear Modulus (GPa) = -11.02764 16.65124 2.81180
#
# Velocity S-wave (km/s) = -2.16932 2.66567 1.09540
# Velocity P-wave (km/s) = 2.98362 5.45885 4.39892
#
# Compressibility (1/GPa) = 0.02811837
#
# Stress axis : x y z
#
# Youngs Moduli (GPa) = 54.06409 54.06356 99.73920
#
# Poissons Ratio (x) = -0.05293 0.52012
# Poissons Ratio (y) = -0.05293 0.52012
# Poissons Ratio (z) = 0.28193 0.28193
#
# Static dielectric constant tensor:
#      x y z
#    x 4.783470 0.000000 0.000000 
#    y 0.000000 4.783490 0.000000 
#    z 0.000000 0.000000 3.472750 
# 
# 
# High freq. dielectric constant tensor:
#      x y z
#    x 1.938100 0.000000 0.000000 
#    y 0.000000 1.938100 0.000000 
#    z 0.000000 0.000000 1.870040 
# 
# From -- ./inp_files/2759.got.cif
#   From: 2010.03.12/outbox.cif.g09.slc.cpg/sg193_2_cif.got.tgz:2759.got - 2010.04.01 12:20:39.
