data_PCOD8330495
_publ_section_title
;
Structure prediction by ZEFSAII (Michael W. Deem and Ramdas Pophale) SiO2 
 PCOD8330495
Probable space group: P 63/M M C
;
_chemical_formula_sum "Si O2"
_cell_formula_units_Z 192
_cell_length_a 27.849327
_cell_length_b 27.849327
_cell_length_c 18.515681
_cell_angle_alpha 90.000000
_cell_angle_beta 90.000000
_cell_angle_gamma 120.000000
_cell_volume 12436.544573
_symmetry_space_group_name_H-M "P 63/M M C"
_symmetry_group_IT_number 194
_symmetry_cell_setting 'hexagonal'
loop_
_space_group_symop_operation_xyz
x,y,z
x-y,x,1/2+z
-y,x-y,z
-x,-y,1/2+z
-x+y,-x,z
y,-x+y,1/2+z
x-y,-y,-z
-x,-x+y,-z
y,x,-z
-y,-x,1/2-z
-x+y,y,1/2-z
x,x-y,1/2-z
-x,-y,-z
-x+y,-x,1/2-z
y,-x+y,-z
x,y,1/2-z
x-y,x,-z
-y,x-y,1/2-z
-x+y,y,z
x,x-y,z
-y,-x,z
y,x,1/2+z
x-y,-y,1/2+z
-x,-x+y,1/2+z
loop_
_atom_site_type_symbol
_atom_site_label
_atom_site_fract_x
_atom_site_fract_y
_atom_site_fract_z
Si Si1 0.891493 0.673426 0.584130
Si Si2 0.713652 0.713651 0.835828
Si Si3 0.888573 0.498957 0.835590
Si Si4 0.603669 0.603669 0.835581
Si Si5 0.888574 0.498957 0.335590
Si Si6 0.546076 0.827801 0.417061
Si Si7 0.673426 0.891493 0.584133
Si Si8 0.281725 0.827801 0.582941
O O1 0.845875 0.691749 0.599362
O O2 0.945478 0.711991 0.631940
O O3 0.866750 0.609609 0.607723
O O4 0.907598 0.680945 0.499999
O O5 0.719010 0.719008 0.750000
O O6 0.658450 0.658449 0.862339
O O7 0.711991 0.766514 0.868057
O O8 0.885385 0.501212 0.750000
O O9 0.883014 0.441507 0.861730
O O10 0.838735 0.504790 0.868962
O O11 0.946256 0.549259 0.865660
O O12 0.601795 0.601795 0.750000
O O13 0.549260 0.603004 0.865660
O O14 0.885387 0.501212 0.250000
O O15 0.883015 0.441508 0.361730
O O16 0.838735 0.504790 0.368961
O O17 0.527932 0.763966 0.405478
O O18 0.539645 0.839739 0.500001
O O19 0.691749 0.845875 0.599365
O O20 0.609609 0.866750 0.607725
O O21 0.236035 0.763966 0.594524
#
# Coordination Sequence:
#
# PCOD8330495 Si02
#       8
#    24  24  24  24  24  24  24  24
#     4   9  18  32  48  66  91 125 160 191 227 270
#     4  11  19  28  47  71  96 126 159 194 231 268
#     4  10  19  31  47  66  90 119 148 181 224 276
#     4   9  17  29  42  63  93 123 149 176 220 272
#     4  10  19  31  47  66  90 119 148 181 224 276
#     4   9  18  32  48  65  86 112 144 185 229 273
#     4   9  18  32  48  66  91 125 160 191 227 270
#     4   9  18  32  48  65  86 112 144 185 229 273
#
# _framework density 15.438371999999999
#
# number of rings (size 3 to 8) (size 9 to 14) (size 15 to 20)
#    0.000    2.500    2.500    2.250    0.000    3.000 
#    0.000    3.125    0.000    2.000    0.000    0.000 
#    0.000    0.000    0.000    0.375    0.000    7.250 
#
# Total GULP energy -2380883.588796 kJ/mol
# GULP energy per Si atom -12400.435358 kJ/mol
# Density = 1.540323 g / cm^3
# Si number density = 15.438372 Si / 1000 Ang^3
#
#
#
# Elastic Constant Matrix: (Units=GPa)
#
#
# Indices 1 2 3 4 5 6 
#
# 1 91.9105 44.2696 39.3751 0.0000 0.0000 0.0000
# 2 44.2696 91.9105 39.3751 0.0000 0.0000 0.0000
# 3 39.3751 39.3751 47.5201 0.0000 0.0000 0.0000
# 4 0.0000 0.0000 0.0000 25.7284 0.0000 0.0000
# 5 0.0000 0.0000 0.0000 0.0000 25.7284 0.0000
# 6 0.0000 0.0000 0.0000 0.0000 0.0000 23.8204
#
#
#
# Elastic Compliance Matrix: (Units=1/GPa)
#
#
# Indices 1 2 3 4 5 6 
#
# 1 0.017545 -0.003446 -0.011682 0.000000 0.000000 0.000000
# 2 -0.003446 0.017545 -0.011682 0.000000 0.000000 0.000000
# 3 -0.011682 -0.011682 0.040404 0.000000 0.000000 0.000000
# 4 0.000000 0.000000 0.000000 0.038867 0.000000 0.000000
# 5 0.000000 0.000000 0.000000 0.000000 0.038867 0.000000
# 6 0.000000 0.000000 0.000000 0.000000 0.000000 0.041981
#
#
# Mechanical properties :
#
#
# Convention : Reuss Voigt Hill
#
# Bulk Modulus (GPa) = 45.72030 53.04232 49.38131
# Shear Modulus (GPa) = 19.52208 22.27687 20.89947
#
# Velocity S-wave (km/s) = 3.55986 3.80274 3.68331
# Velocity P-wave (km/s) = 6.82465 7.32893 7.08128
#
# Compressibility (1/GPa) = 0.02187212
#
# Stress axis : x y z
#
# Youngs Moduli (GPa) = 56.99747 56.99747 24.75023
#
# Poissons Ratio (x) = 0.19640 0.28914
# Poissons Ratio (y) = 0.19640 0.28914
# Poissons Ratio (z) = 0.66586 0.66586
#
# Static dielectric constant tensor:
#      x y z
#    x 2.852500 0.000000 0.000000 
#    y 0.000000 2.852500 0.000000 
#    z 0.000000 0.000000 2.766540 
# 
# 
# High freq. dielectric constant tensor:
#      x y z
#    x 1.575570 0.000000 0.000000 
#    y 0.000000 1.575570 0.000000 
#    z 0.000000 0.000000 1.583400 
# 
# From -- ./inp_files/8704.got.cif
#   From: 2010.03.12/outbox.cif.g09.slc.cpg/sg194_5_cif.got.tgz:8704.got - 2010.04.01 12:26:19.
