data_PCOD8330783
_publ_section_title
;
Structure prediction by ZEFSAII (Michael W. Deem and Ramdas Pophale) SiO2 
 PCOD8330783
Probable space group: P 63/M M C
;
_chemical_formula_sum "Si O2"
_cell_formula_units_Z 60
_cell_length_a 21.564253
_cell_length_b 21.564253
_cell_length_c 7.420893
_cell_angle_alpha 90.000000
_cell_angle_beta 90.000000
_cell_angle_gamma 120.000000
_cell_volume 2988.516365
_symmetry_space_group_name_H-M "P 63/M M C"
_symmetry_group_IT_number 194
_symmetry_cell_setting 'hexagonal'
loop_
_space_group_symop_operation_xyz
x,y,z
x-y,x,1/2+z
-y,x-y,z
-x,-y,1/2+z
-x+y,-x,z
y,-x+y,1/2+z
x-y,-y,-z
-x,-x+y,-z
y,x,-z
-y,-x,1/2-z
-x+y,y,1/2-z
x,x-y,1/2-z
-x,-y,-z
-x+y,-x,1/2-z
y,-x+y,-z
x,y,1/2-z
x-y,x,-z
-y,x-y,1/2-z
-x+y,y,z
x,x-y,z
-y,-x,z
y,x,1/2+z
x-y,-y,1/2+z
-x,-x+y,1/2+z
loop_
_atom_site_type_symbol
_atom_site_label
_atom_site_fract_x
_atom_site_fract_y
_atom_site_fract_z
Si Si1 0.570295 0.649450 0.038863
Si Si2 0.788130 0.076844 0.959512
Si Si3 0.525506 0.189415 0.250000
O O1 0.555581 0.653219 0.250000
O O2 0.640527 0.719978 0.962535
O O3 0.581609 0.581609 0.000000
O O4 0.504737 0.645164 0.928282
O O5 0.791017 0.090441 0.750000
O O6 0.860954 0.139047 0.050500
O O7 0.780729 0.000000 0.000000
O O8 0.610956 0.221911 0.250000
O O9 0.508468 0.254234 0.250000
#
# Coordination Sequence:
#
# PCOD8330783 Si02
#       3
#    24  24  12
#     4  10  20  40  65  95 123 152 200 262 324 368
#     4   9  18  31  50  78 111 142 181 232 289 352
#     4  12  27  44  64  90 127 172 212 250 304 380
#
# _framework density 20.076854000000001
#
# number of rings (size 3 to 8) (size 9 to 14) (size 15 to 20)
#    0.000    2.000    2.000    1.400    2.800    4.800 
#    0.000    0.000    0.000    2.800    0.000    0.000 
#    0.000    0.000    0.000    0.000    0.000    0.000 
#
# Total GULP energy -743795.723091 kJ/mol
# GULP energy per Si atom -12396.595385 kJ/mol
# Density = 2.003116 g / cm^3
# Si number density = 20.076854 Si / 1000 Ang^3
#
#
#
# Elastic Constant Matrix: (Units=GPa)
#
#
# Indices 1 2 3 4 5 6 
#
# 1 100.5824 46.5183 27.5561 0.0000 0.0000 0.0000
# 2 46.5183 100.5824 27.5561 0.0000 0.0000 0.0000
# 3 27.5561 27.5561 100.4278 0.0000 0.0000 0.0000
# 4 0.0000 0.0000 0.0000 16.5473 0.0000 0.0000
# 5 0.0000 0.0000 0.0000 0.0000 16.5473 0.0000
# 6 0.0000 0.0000 0.0000 0.0000 0.0000 27.0321
#
#
#
# Elastic Compliance Matrix: (Units=1/GPa)
#
#
# Indices 1 2 3 4 5 6 
#
# 1 0.013037 -0.005460 -0.002079 0.000000 0.000000 0.000000
# 2 -0.005460 0.013037 -0.002079 0.000000 0.000000 0.000000
# 3 -0.002079 -0.002079 0.011098 0.000000 0.000000 0.000000
# 4 0.000000 0.000000 0.000000 0.060433 0.000000 0.000000
# 5 0.000000 0.000000 0.000000 0.000000 0.060433 0.000000
# 6 0.000000 0.000000 0.000000 0.000000 0.000000 0.036993
#
#
# Mechanical properties :
#
#
# Convention : Reuss Voigt Hill
#
# Bulk Modulus (GPa) = 55.75327 56.09488 55.92408
# Shear Modulus (GPa) = 22.70198 25.35613 24.02905
#
# Velocity S-wave (km/s) = 3.36632 3.55766 3.46331
# Velocity P-wave (km/s) = 6.55284 6.69900 6.62632
#
# Compressibility (1/GPa) = 0.01793617
#
# Stress axis : x y z
#
# Youngs Moduli (GPa) = 76.70611 76.70611 90.10372
#
# Poissons Ratio (x) = 0.41880 0.18733
# Poissons Ratio (y) = 0.41880 0.18733
# Poissons Ratio (z) = 0.15947 0.15947
#
# Static dielectric constant tensor:
#      x y z
#    x 3.965860 0.000000 0.000000 
#    y 0.000000 3.965860 0.000000 
#    z 0.000000 0.000000 3.528120 
# 
# 
# High freq. dielectric constant tensor:
#      x y z
#    x 1.769480 0.000000 0.000000 
#    y 0.000000 1.769480 0.000000 
#    z 0.000000 0.000000 1.788110 
# 
# From -- ./inp_files/769.got.cif
#   From: 2010.03.12/outbox.cif.g09.slc.cpg/sg194_1_cif.got.tgz:769.got - 2010.04.01 12:26:19.
