data_PCOD8330741
_publ_section_title
;
Structure prediction by ZEFSAII (Michael W. Deem and Ramdas Pophale) SiO2 
 PCOD8330741
Probable space group: P 63/M M C
;
_chemical_formula_sum "Si O2"
_cell_formula_units_Z 138
_cell_length_a 31.262161
_cell_length_b 31.262161
_cell_length_c 8.470075
_cell_angle_alpha 90.000000
_cell_angle_beta 90.000000
_cell_angle_gamma 120.000000
_cell_volume 7168.955397
_symmetry_space_group_name_H-M "P 63/M M C"
_symmetry_group_IT_number 194
_symmetry_cell_setting 'hexagonal'
loop_
_space_group_symop_operation_xyz
x,y,z
x-y,x,1/2+z
-y,x-y,z
-x,-y,1/2+z
-x+y,-x,z
y,-x+y,1/2+z
x-y,-y,-z
-x,-x+y,-z
y,x,-z
-y,-x,1/2-z
-x+y,y,1/2-z
x,x-y,1/2-z
-x,-y,-z
-x+y,-x,1/2-z
y,-x+y,-z
x,y,1/2-z
x-y,x,-z
-y,x-y,1/2-z
-x+y,y,z
x,x-y,z
-y,-x,z
y,x,1/2+z
x-y,-y,1/2+z
-x,-x+y,1/2+z
loop_
_atom_site_type_symbol
_atom_site_label
_atom_site_fract_x
_atom_site_fract_y
_atom_site_fract_z
Si Si1 0.428077 0.477227 0.932891
Si Si2 0.254673 0.408622 0.425468
Si Si3 0.364375 0.728749 0.750000
Si Si4 0.396142 0.792283 0.433049
Si Si5 0.946654 0.150421 0.935556
Si Si6 0.655284 0.502440 0.433156
Si Si7 0.204658 0.896824 0.573360
O O1 0.437430 0.479848 0.750000
O O2 0.471437 0.528564 0.009102
O O3 0.374791 0.469603 0.970715
O O4 0.430394 0.430394 0.000000
O O5 0.277137 0.415956 0.250000
O O6 0.201487 0.402973 0.420196
O O7 0.288546 0.457300 0.529130
O O8 0.248963 0.357857 0.496253
O O9 0.304808 0.695193 0.750000
O O10 0.377533 0.755065 0.580325
O O11 0.385483 0.770966 0.250000
O O12 0.367776 0.822884 0.453186
O O13 0.948248 0.147800 0.750000
O O14 0.902783 0.097218 0.001469
O O15 0.935786 0.194297 0.981479
O O16 0.000000 0.162309 0.000000
O O17 0.650182 0.485003 0.250000
O O18 0.220921 0.916926 0.750000
O O19 0.155807 0.844194 0.572961
#
# Coordination Sequence:
#
# PCOD8330741 Si02
#       7
#    24  24   6  12  24  24  24
#     4   9  18  33  54  79 108 141 179 223 273 333
#     4  10  21  36  54  82 114 146 190 243 296 353
#     4  10  26  50  70  88 122 160 194 256 328 360
#     4  12  24  42  69  95 119 157 206 250 306 378
#     4  10  20  34  55  84 117 156 201 252 304 357
#     4  11  21  38  60  85 121 157 194 244 300 358
#     4   9  17  32  54  78 107 144 186 230 286 348
#
# _framework density 19.249668
#
# number of rings (size 3 to 8) (size 9 to 14) (size 15 to 20)
#    0.087    1.913    1.739    2.087    0.000    6.609 
#    0.000    0.870    0.000    2.261    0.000    0.000 
#    0.000    0.000    0.000    0.000    0.000    0.000 
#
# Total GULP energy -1710142.776239 kJ/mol
# GULP energy per Si atom -12392.338958 kJ/mol
# Density = 1.920585 g / cm^3
# Si number density = 19.249668 Si / 1000 Ang^3
#
#
#
# Elastic Constant Matrix: (Units=GPa)
#
#
# Indices 1 2 3 4 5 6 
#
# 1 81.5554 34.8415 38.7879 0.0000 0.0000 0.0000
# 2 34.8415 81.5554 38.7879 0.0000 0.0000 0.0000
# 3 38.7879 38.7879 105.5084 0.0000 0.0000 0.0000
# 4 0.0000 0.0000 0.0000 29.1053 0.0000 0.0000
# 5 0.0000 0.0000 0.0000 0.0000 29.1053 0.0000
# 6 0.0000 0.0000 0.0000 0.0000 0.0000 23.3570
#
#
#
# Elastic Compliance Matrix: (Units=1/GPa)
#
#
# Indices 1 2 3 4 5 6 
#
# 1 0.016393 -0.005014 -0.004183 0.000000 0.000000 0.000000
# 2 -0.005014 0.016393 -0.004183 0.000000 0.000000 0.000000
# 3 -0.004183 -0.004183 0.012554 0.000000 0.000000 0.000000
# 4 0.000000 0.000000 0.000000 0.034358 0.000000 0.000000
# 5 0.000000 0.000000 0.000000 0.000000 0.034358 0.000000
# 6 0.000000 0.000000 0.000000 0.000000 0.000000 0.042814
#
#
# Mechanical properties :
#
#
# Convention : Reuss Voigt Hill
#
# Bulk Modulus (GPa) = 53.82408 54.82821 54.32614
# Shear Modulus (GPa) = 26.34018 26.72697 26.53358
#
# Velocity S-wave (km/s) = 3.70313 3.73022 3.71670
# Velocity P-wave (km/s) = 6.80485 6.86274 6.83386
#
# Compressibility (1/GPa) = 0.01857904
#
# Stress axis : x y z
#
# Youngs Moduli (GPa) = 61.00101 61.00101 79.65711
#
# Poissons Ratio (x) = 0.30584 0.33324
# Poissons Ratio (y) = 0.30584 0.33324
# Poissons Ratio (z) = 0.25519 0.25519
#
# Static dielectric constant tensor:
#      x y z
#    x 3.428520 0.000000 0.000000 
#    y 0.000000 3.428520 0.000000 
#    z 0.000000 0.000000 3.661010 
# 
# 
# High freq. dielectric constant tensor:
#      x y z
#    x 1.731670 0.000000 0.000000 
#    y 0.000000 1.731670 0.000000 
#    z 0.000000 0.000000 1.758270 
# 
# From -- ./inp_files/2196.got.cif
#   From: 2010.03.12/outbox.cif.g09.slc.cpg/sg194_2_cif.got.tgz:2196.got - 2010.04.01 12:26:19.
