data_PCOD8330505
_publ_section_title
;
Structure prediction by ZEFSAII (Michael W. Deem and Ramdas Pophale) SiO2 
 PCOD8330505
Probable space group: P 63/M M C
;
_chemical_formula_sum "Si O2"
_cell_formula_units_Z 132
_cell_length_a 17.927807
_cell_length_b 17.927807
_cell_length_c 25.976336
_cell_angle_alpha 90.000000
_cell_angle_beta 90.000000
_cell_angle_gamma 120.000000
_cell_volume 7230.408945
_symmetry_space_group_name_H-M "P 63/M M C"
_symmetry_group_IT_number 194
_symmetry_cell_setting 'hexagonal'
loop_
_space_group_symop_operation_xyz
x,y,z
x-y,x,1/2+z
-y,x-y,z
-x,-y,1/2+z
-x+y,-x,z
y,-x+y,1/2+z
x-y,-y,-z
-x,-x+y,-z
y,x,-z
-y,-x,1/2-z
-x+y,y,1/2-z
x,x-y,1/2-z
-x,-y,-z
-x+y,-x,1/2-z
y,-x+y,-z
x,y,1/2-z
x-y,x,-z
-y,x-y,1/2-z
-x+y,y,z
x,x-y,z
-y,-x,z
y,x,1/2+z
x-y,-y,1/2+z
-x,-x+y,1/2+z
loop_
_atom_site_type_symbol
_atom_site_label
_atom_site_fract_x
_atom_site_fract_y
_atom_site_fract_z
Si Si1 0.367550 0.097450 0.155557
Si Si2 0.499957 0.331876 0.069122
Si Si3 0.000045 0.840419 0.559959
Si Si4 0.078288 0.329462 0.113762
Si Si5 0.373198 0.456335 0.033071
Si Si6 0.668477 0.160533 0.250000
O O1 0.333175 0.166588 0.160238
O O2 0.413358 0.106546 0.100559
O O3 0.435196 0.114522 0.200207
O O4 0.293155 0.995491 0.158746
O O5 0.533298 0.266649 0.084887
O O6 0.571646 0.428354 0.084526
O O7 0.483676 0.323120 0.007649
O O8 0.095226 0.904775 0.582948
O O9 0.000000 0.853019 0.500000
O O10 0.932397 0.864794 0.585332
O O11 0.969191 0.742066 0.570155
O O12 0.167463 0.334925 0.134004
O O13 0.100017 0.417708 0.085076
O O14 0.462248 0.537753 0.052001
O O15 0.391346 0.391346 0.000000
O O16 0.738289 0.261712 0.250000
O O17 0.574207 0.148414 0.250000
#
# Coordination Sequence:
#
# PCOD8330505 Si02
#       6
#    24  24  24  24  24  12
#     4  10  21  35  53  77 107 136 167 209 262 314
#     4  10  19  31  49  73 102 136 170 207 251 310
#     4   9  17  27  42  65  98 136 172 208 245 287
#     4  11  21  33  50  74 101 136 180 218 254 301
#     4  10  19  31  47  69 101 139 179 220 261 304
#     4  10  21  38  61  88 114 140 166 202 255 322
#
# _framework density 18.256229999999999
#
# number of rings (size 3 to 8) (size 9 to 14) (size 15 to 20)
#    0.000    2.000    1.818    2.636    0.000    1.455 
#    0.000    2.273    0.000    0.727    0.000    0.000 
#    0.000    0.000    0.000    0.000    0.000    0.000 
#
# Total GULP energy -1635258.272111 kJ/mol
# GULP energy per Si atom -12388.320243 kJ/mol
# Density = 1.821468 g / cm^3
# Si number density = 18.256230 Si / 1000 Ang^3
#
#
#
# Elastic Constant Matrix: (Units=GPa)
#
#
# Indices 1 2 3 4 5 6 
#
# 1 99.0772 48.9186 28.9526 0.0000 0.0000 0.0000
# 2 48.9186 99.0772 28.9526 0.0000 0.0000 0.0000
# 3 28.9526 28.9526 50.6758 0.0000 0.0000 0.0000
# 4 0.0000 0.0000 0.0000 19.3350 0.0000 0.0000
# 5 0.0000 0.0000 0.0000 0.0000 19.3350 0.0000
# 6 0.0000 0.0000 0.0000 0.0000 0.0000 25.0793
#
#
#
# Elastic Compliance Matrix: (Units=1/GPa)
#
#
# Indices 1 2 3 4 5 6 
#
# 1 0.014320 -0.005617 -0.004972 0.000000 0.000000 0.000000
# 2 -0.005617 0.014320 -0.004972 0.000000 0.000000 0.000000
# 3 -0.004972 -0.004972 0.025414 0.000000 0.000000 0.000000
# 4 0.000000 0.000000 0.000000 0.051720 0.000000 0.000000
# 5 0.000000 0.000000 0.000000 0.000000 0.051720 0.000000
# 6 0.000000 0.000000 0.000000 0.000000 0.000000 0.039874
#
#
# Mechanical properties :
#
#
# Convention : Reuss Voigt Hill
#
# Bulk Modulus (GPa) = 43.60814 51.38642 47.49728
# Shear Modulus (GPa) = 21.17457 22.21693 21.69575
#
# Velocity S-wave (km/s) = 3.40936 3.49227 3.45106
# Velocity P-wave (km/s) = 6.27988 6.66856 6.47713
#
# Compressibility (1/GPa) = 0.02293150
#
# Stress axis : x y z
#
# Youngs Moduli (GPa) = 69.83478 69.83478 39.34780
#
# Poissons Ratio (x) = 0.39228 0.19563
# Poissons Ratio (y) = 0.39228 0.19563
# Poissons Ratio (z) = 0.34721 0.34721
#
# Static dielectric constant tensor:
#      x y z
#    x 3.515210 0.000000 0.000000 
#    y 0.000000 3.515210 0.000000 
#    z 0.000000 0.000000 3.009920 
# 
# 
# High freq. dielectric constant tensor:
#      x y z
#    x 1.711960 0.000000 0.000000 
#    y 0.000000 1.711960 0.000000 
#    z 0.000000 0.000000 1.652650 
# 
# From -- ./inp_files/12027.got.cif
#   From: 2010.03.12/outbox.cif.g09.slc.cpg/sg194_7_cif.got.tgz:12027.got - 2010.04.01 12:26:19.
