data_PCOD8330691
_publ_section_title
;
Structure prediction by ZEFSAII (Michael W. Deem and Ramdas Pophale) SiO2 
 PCOD8330691
Probable space group: P 63/M M C
;
_chemical_formula_sum "Si O2"
_cell_formula_units_Z 88
_cell_length_a 25.654754
_cell_length_b 25.654754
_cell_length_c 9.177144
_cell_angle_alpha 90.000000
_cell_angle_beta 90.000000
_cell_angle_gamma 120.000000
_cell_volume 5230.869523
_symmetry_space_group_name_H-M "P 63/M M C"
_symmetry_group_IT_number 194
_symmetry_cell_setting 'hexagonal'
loop_
_space_group_symop_operation_xyz
x,y,z
x-y,x,1/2+z
-y,x-y,z
-x,-y,1/2+z
-x+y,-x,z
y,-x+y,1/2+z
x-y,-y,-z
-x,-x+y,-z
y,x,-z
-y,-x,1/2-z
-x+y,y,1/2-z
x,x-y,1/2-z
-x,-y,-z
-x+y,-x,1/2-z
y,-x+y,-z
x,y,1/2-z
x-y,x,-z
-y,x-y,1/2-z
-x+y,y,z
x,x-y,z
-y,-x,z
y,x,1/2+z
x-y,-y,1/2+z
-x,-x+y,1/2+z
loop_
_atom_site_type_symbol
_atom_site_label
_atom_site_fract_x
_atom_site_fract_y
_atom_site_fract_z
Si Si1 0.666668 0.333334 0.422147
Si Si2 0.598686 0.197371 0.423408
Si Si3 0.304287 0.815794 0.421548
Si Si4 0.239016 0.354651 0.089494
Si Si5 0.179728 0.238641 0.920102
O O1 0.666667 0.333334 0.250000
O O2 0.632889 0.265778 0.480917
O O3 0.595470 0.190940 0.250000
O O4 0.531768 0.167198 0.488886
O O5 0.315468 0.814415 0.250000
O O6 0.248793 0.751207 0.472277
O O7 0.290668 0.869597 0.459483
O O8 0.253511 0.338580 0.250000
O O9 0.178495 0.356989 0.099522
O O10 0.231878 0.304021 0.975582
O O11 0.188430 0.234944 0.750000
O O12 0.113874 0.227748 0.958668
O O13 0.186647 0.186647 0.000000
#
# Coordination Sequence:
#
# PCOD8330691 Si02
#       5
#     4  12  24  24  24
#     4   9  18  27  31  47  79 114 154 197 247 297
#     4  11  19  27  37  53  82 118 157 201 249 299
#     4   9  17  28  41  58  81 114 156 198 243 294
#     4   8  15  29  47  66  91 121 154 196 241 281
#     4  10  20  33  52  79 107 134 163 191 224 266
#
# _framework density 16.823205999999999
#
# number of rings (size 3 to 8) (size 9 to 14) (size 15 to 20)
#    0.000    2.727    1.364    2.864    0.000    2.727 
#    0.000    2.727    0.000    0.273    0.000    0.955 
#    0.000    0.000    0.000    0.000    0.000    0.000 
#
# Total GULP energy -1090874.300149 kJ/mol
# GULP energy per Si atom -12396.298865 kJ/mol
# Density = 1.678492 g / cm^3
# Si number density = 16.823206 Si / 1000 Ang^3
#
#
#
# Elastic Constant Matrix: (Units=GPa)
#
#
# Indices 1 2 3 4 5 6 
#
# 1 82.2611 44.5900 52.6230 0.0000 0.0000 0.0000
# 2 44.5900 82.2608 52.6230 0.0000 0.0000 0.0000
# 3 52.6230 52.6230 92.8121 0.0000 0.0000 0.0000
# 4 0.0000 0.0000 0.0000 24.6687 0.0000 0.0000
# 5 0.0000 0.0000 0.0000 0.0000 24.6688 0.0000
# 6 0.0000 0.0000 0.0000 0.0000 0.0000 18.8355
#
#
#
# Elastic Compliance Matrix: (Units=1/GPa)
#
#
# Indices 1 2 3 4 5 6 
#
# 1 0.020716 -0.005830 -0.008440 0.000000 0.000000 0.000000
# 2 -0.005830 0.020716 -0.008440 0.000000 0.000000 0.000000
# 3 -0.008440 -0.008440 0.020345 0.000000 0.000000 0.000000
# 4 0.000000 0.000000 0.000000 0.040537 0.000000 0.000000
# 5 0.000000 0.000000 0.000000 0.000000 0.040537 0.000000
# 6 0.000000 0.000000 0.000000 0.000000 0.000000 0.053091
#
#
# Mechanical properties :
#
#
# Convention : Reuss Voigt Hill
#
# Bulk Modulus (GPa) = 61.13699 61.88955 61.51327
# Shear Modulus (GPa) = 20.25816 20.80114 20.52965
#
# Velocity S-wave (km/s) = 3.47389 3.52014 3.49709
# Velocity P-wave (km/s) = 7.24640 7.30684 7.27668
#
# Compressibility (1/GPa) = 0.01635671
#
# Stress axis : x y z
#
# Youngs Moduli (GPa) = 48.27264 48.27238 49.15178
#
# Poissons Ratio (x) = 0.28143 0.41484
# Poissons Ratio (y) = 0.28143 0.41484
# Poissons Ratio (z) = 0.40742 0.40742
#
# Static dielectric constant tensor:
#      x y z
#    x 3.062370 0.000000 0.000000 
#    y 0.000000 3.062370 0.000000 
#    z 0.000000 0.000000 3.114020 
# 
# 
# High freq. dielectric constant tensor:
#      x y z
#    x 1.624220 0.000000 0.000000 
#    y 0.000000 1.624220 0.000000 
#    z 0.000000 0.000000 1.649700 
# 
# From -- ./inp_files/1516.got.cif
#   From: 2010.03.12/outbox.cif.g09.slc.cpg/sg194_1_cif.got.tgz:1516.got - 2010.04.01 12:26:19.
