data_PCOD8330736
_publ_section_title
;
Structure prediction by ZEFSAII (Michael W. Deem and Ramdas Pophale) SiO2 
 PCOD8330736
Probable space group: P 63/M M C
;
_chemical_formula_sum "Si O2"
_cell_formula_units_Z 120
_cell_length_a 17.612401
_cell_length_b 17.612401
_cell_length_c 21.276484
_cell_angle_alpha 90.000000
_cell_angle_beta 90.000000
_cell_angle_gamma 120.000000
_cell_volume 5715.676269
_symmetry_space_group_name_H-M "P 63/M M C"
_symmetry_group_IT_number 194
_symmetry_cell_setting 'hexagonal'
loop_
_space_group_symop_operation_xyz
x,y,z
x-y,x,1/2+z
-y,x-y,z
-x,-y,1/2+z
-x+y,-x,z
y,-x+y,1/2+z
x-y,-y,-z
-x,-x+y,-z
y,x,-z
-y,-x,1/2-z
-x+y,y,1/2-z
x,x-y,1/2-z
-x,-y,-z
-x+y,-x,1/2-z
y,-x+y,-z
x,y,1/2-z
x-y,x,-z
-y,x-y,1/2-z
-x+y,y,z
x,x-y,z
-y,-x,z
y,x,1/2+z
x-y,-y,1/2+z
-x,-x+y,1/2+z
loop_
_atom_site_type_symbol
_atom_site_label
_atom_site_fract_x
_atom_site_fract_y
_atom_site_fract_z
Si Si1 0.430578 0.030731 0.679682
Si Si2 0.291511 0.057082 0.626473
Si Si3 0.836661 0.503410 0.491755
Si Si4 0.834359 0.333175 0.342995
Si Si5 0.000000 0.309412 0.500000
Si Si6 0.821728 0.000884 0.750000
O O1 0.450049 0.068444 0.750000
O O2 0.520494 0.040987 0.649710
O O3 0.392555 0.081747 0.639617
O O4 0.354358 0.929020 0.681058
O O5 0.290441 0.145221 0.612223
O O6 0.233512 0.007107 0.687291
O O7 0.255692 0.995530 0.563634
O O8 0.746428 0.492856 0.519055
O O9 0.849818 0.424909 0.518890
O O10 0.832788 0.499014 0.417406
O O11 0.915967 0.596591 0.511774
O O12 0.813497 0.406749 0.316907
O O13 0.761354 0.238647 0.316528
O O14 0.922109 0.077892 0.750000
O O15 0.818867 0.909434 0.750000
#
# Coordination Sequence:
#
# PCOD8330736 Si02
#       6
#    24  24  24  24  12  12
#     4  10  20  36  57  85 119 159 206 257 307 355
#     4  11  24  42  64  92 124 160 204 254 310 373
#     4  10  20  34  54  81 117 161 208 254 298 351
#     4   9  17  30  49  77 115 159 202 242 288 348
#     4  12  23  38  60  92 127 164 202 256 317 372
#     4  10  23  44  71  96 120 154 198 250 307 376
#
# _framework density 20.994890000000002
#
# number of rings (size 3 to 8) (size 9 to 14) (size 15 to 20)
#    0.000    1.800    3.000    1.400    0.000    5.200 
#    0.000    0.000    0.000    1.600    0.000    3.500 
#    0.000    0.000    0.000    0.000    0.000    0.000 
#
# Total GULP energy -1487422.701442 kJ/mol
# GULP energy per Si atom -12395.189179 kJ/mol
# Density = 2.094710 g / cm^3
# Si number density = 20.994890 Si / 1000 Ang^3
#
#
#
# Elastic Constant Matrix: (Units=GPa)
#
#
# Indices 1 2 3 4 5 6 
#
# 1 86.9458 37.8837 40.1720 0.0000 0.0000 0.0000
# 2 37.8837 86.9458 40.1720 0.0000 0.0000 0.0000
# 3 40.1720 40.1720 116.4925 0.0000 0.0000 0.0000
# 4 0.0000 0.0000 0.0000 11.5643 0.0000 0.0000
# 5 0.0000 0.0000 0.0000 0.0000 11.5643 0.0000
# 6 0.0000 0.0000 0.0000 0.0000 0.0000 24.5311
#
#
#
# Elastic Compliance Matrix: (Units=1/GPa)
#
#
# Indices 1 2 3 4 5 6 
#
# 1 0.015339 -0.005043 -0.003551 0.000000 0.000000 0.000000
# 2 -0.005043 0.015339 -0.003551 0.000000 0.000000 0.000000
# 3 -0.003551 -0.003551 0.011033 0.000000 0.000000 0.000000
# 4 0.000000 0.000000 0.000000 0.086473 0.000000 0.000000
# 5 0.000000 0.000000 0.000000 0.000000 0.086473 0.000000
# 6 0.000000 0.000000 0.000000 0.000000 0.000000 0.040765
#
#
# Mechanical properties :
#
#
# Convention : Reuss Voigt Hill
#
# Bulk Modulus (GPa) = 57.39523 58.53772 57.96647
# Shear Modulus (GPa) = 17.51204 21.00905 19.26054
#
# Velocity S-wave (km/s) = 2.89123 3.16678 3.03213
# Velocity P-wave (km/s) = 6.20827 6.42757 6.31888
#
# Compressibility (1/GPa) = 0.01742305
#
# Stress axis : x y z
#
# Youngs Moduli (GPa) = 65.19221 65.19221 90.63668
#
# Poissons Ratio (x) = 0.32877 0.32181
# Poissons Ratio (y) = 0.32877 0.32181
# Poissons Ratio (z) = 0.23147 0.23147
#
# Static dielectric constant tensor:
#      x y z
#    x 3.791690 0.000000 0.000000 
#    y 0.000000 3.791690 0.000000 
#    z 0.000000 0.000000 3.793010 
# 
# 
# High freq. dielectric constant tensor:
#      x y z
#    x 1.808050 0.000000 0.000000 
#    y 0.000000 1.808050 0.000000 
#    z 0.000000 0.000000 1.827640 
# 
# From -- ./inp_files/9432.got.cif
#   From: 2010.03.12/outbox.cif.g09.slc.cpg/sg194_5_cif.got.tgz:9432.got - 2010.04.01 12:26:19.
