data_PCOD8330121
_publ_section_title
;
Structure prediction by ZEFSAII (Michael W. Deem and Ramdas Pophale) SiO2 
 PCOD8330121
Probable space group: P 63/M C M
;
_chemical_formula_sum "Si O2"
_cell_formula_units_Z 144
_cell_length_a 23.471819
_cell_length_b 23.471819
_cell_length_c 17.035487
_cell_angle_alpha 90.000000
_cell_angle_beta 90.000000
_cell_angle_gamma 120.000000
_cell_volume 8127.906146
_symmetry_space_group_name_H-M "P 63/M C M"
_symmetry_group_IT_number 193
_symmetry_cell_setting 'hexagonal'
loop_
_space_group_symop_operation_xyz
x,y,z
x-y,x,1/2+z
-y,x-y,z
-x,-y,1/2+z
-x+y,-x,z
y,-x+y,1/2+z
x-y,-y,1/2-z
-x,-x+y,1/2-z
y,x,1/2-z
-y,-x,-z
-x+y,y,-z
x,x-y,-z
-x,-y,-z
-x+y,-x,1/2-z
y,-x+y,-z
x,y,1/2-z
x-y,x,-z
-y,x-y,1/2-z
-x+y,y,1/2+z
x,x-y,1/2+z
-y,-x,1/2+z
y,x,z
x-y,-y,z
-x,-x+y,z
loop_
_atom_site_type_symbol
_atom_site_label
_atom_site_fract_x
_atom_site_fract_y
_atom_site_fract_z
Si Si1 0.581902 0.126559 0.338706
Si Si2 0.195366 0.335861 0.158347
Si Si3 0.273033 0.348619 0.842264
Si Si4 0.484744 0.160202 0.075956
Si Si5 0.715141 0.000000 0.342760
Si Si6 0.520982 0.805464 0.399513
Si Si7 0.586456 0.586456 0.843104
O O1 0.554075 0.117090 0.250000
O O2 0.539861 0.144054 0.396684
O O3 0.658468 0.183377 0.338787
O O4 0.581951 0.062494 0.372452
O O5 0.205756 0.349290 0.250000
O O6 0.120149 0.315010 0.136193
O O7 0.216562 0.282296 0.131611
O O8 0.248172 0.402125 0.117271
O O9 0.284861 0.366443 0.750000
O O10 0.297773 0.297773 0.865242
O O11 0.312719 0.414822 0.892453
O O12 0.502372 0.231234 0.109329
O O13 0.486872 0.167566 0.982973
O O14 0.708625 0.000000 0.250000
O O15 0.650712 0.000000 0.378504
O O16 0.590315 0.590315 0.750000
#
# Coordination Sequence:
#
# PCOD8330121 Si02
#       7
#    24  24  24  24  12  24  12
#     4  11  21  35  54  74  97 125 166 212 252 297
#     4   9  16  29  52  75  97 128 166 205 245 290
#     4   9  18  33  51  72 100 133 166 202 245 298
#     4  10  22  36  51  71  97 131 163 197 258 310
#     4   9  14  26  47  75 101 125 162 204 248 288
#     4  10  20  37  52  68  98 128 162 206 251 300
#     4   9  18  30  48  74 100 122 150 207 260 288
#
# _framework density 17.716740999999999
#
# number of rings (size 3 to 8) (size 9 to 14) (size 15 to 20)
#    0.000    2.333    1.667    1.500    1.167    2.000 
#    4.000    0.833    0.000    0.000    0.000    0.000 
#    0.833    0.000    2.500    0.000    0.000    9.000 
#
# Total GULP energy -1784355.187873 kJ/mol
# GULP energy per Si atom -12391.355471 kJ/mol
# Density = 1.767642 g / cm^3
# Si number density = 17.716741 Si / 1000 Ang^3
#
#
#
# Elastic Constant Matrix: (Units=GPa)
#
#
# Indices 1 2 3 4 5 6 
#
# 1 115.1782 65.3660 19.1246 0.0000 0.0000 0.0000
# 2 65.3660 115.1782 19.1246 0.0000 0.0000 0.0000
# 3 19.1246 19.1246 21.1518 0.0000 0.0000 0.0000
# 4 0.0000 0.0000 0.0000 17.3162 0.0000 0.0000
# 5 0.0000 0.0000 0.0000 0.0000 17.3162 0.0000
# 6 0.0000 0.0000 0.0000 0.0000 0.0000 24.9061
#
#
#
# Elastic Compliance Matrix: (Units=1/GPa)
#
#
# Indices 1 2 3 4 5 6 
#
# 1 0.013463 -0.006612 -0.006195 0.000000 0.000000 0.000000
# 2 -0.006612 0.013463 -0.006195 0.000000 0.000000 0.000000
# 3 -0.006195 -0.006195 0.058479 0.000000 0.000000 0.000000
# 4 0.000000 0.000000 0.000000 0.057749 0.000000 0.000000
# 5 0.000000 0.000000 0.000000 0.000000 0.057749 0.000000
# 6 0.000000 0.000000 0.000000 0.000000 0.000000 0.040151
#
#
# Mechanical properties :
#
#
# Convention : Reuss Voigt Hill
#
# Bulk Modulus (GPa) = 21.09568 50.97097 36.03332
# Shear Modulus (GPa) = 16.95728 21.76721 19.36224
#
# Velocity S-wave (km/s) = 3.09711 3.50898 3.30946
# Velocity P-wave (km/s) = 4.97218 6.72678 5.91490
#
# Compressibility (1/GPa) = 0.04740308
#
# Stress axis : x y z
#
# Youngs Moduli (GPa) = 74.27606 74.27606 17.10020
#
# Poissons Ratio (x) = 0.49112 0.10593
# Poissons Ratio (y) = 0.49112 0.10593
# Poissons Ratio (z) = 0.46010 0.46010
#
# Static dielectric constant tensor:
#      x y z
#    x 3.449630 0.000000 0.000000 
#    y 0.000000 3.449630 0.000000 
#    z 0.000000 0.000000 3.149770 
# 
# 
# High freq. dielectric constant tensor:
#      x y z
#    x 1.673780 0.000000 0.000000 
#    y 0.000000 1.673780 0.000000 
#    z 0.000000 0.000000 1.674410 
# 
# From -- ./inp_files/5609.got.cif
#   From: 2010.03.12/outbox.cif.g09.slc.cpg/sg193_3_cif.got.tgz:5609.got - 2010.04.01 12:20:39.
