data_PCOD8330129
_publ_section_title
;
Structure prediction by ZEFSAII (Michael W. Deem and Ramdas Pophale) SiO2 
 PCOD8330129
Probable space group: P 63/M C M
;
_chemical_formula_sum "Si O2"
_cell_formula_units_Z 136
_cell_length_a 16.995927
_cell_length_b 16.995927
_cell_length_c 26.759768
_cell_angle_alpha 90.000000
_cell_angle_beta 90.000000
_cell_angle_gamma 120.000000
_cell_volume 6694.261753
_symmetry_space_group_name_H-M "P 63/M C M"
_symmetry_group_IT_number 193
_symmetry_cell_setting 'hexagonal'
loop_
_space_group_symop_operation_xyz
x,y,z
x-y,x,1/2+z
-y,x-y,z
-x,-y,1/2+z
-x+y,-x,z
y,-x+y,1/2+z
x-y,-y,1/2-z
-x,-x+y,1/2-z
y,x,1/2-z
-y,-x,-z
-x+y,y,-z
x,x-y,-z
-x,-y,-z
-x+y,-x,1/2-z
y,-x+y,-z
x,y,1/2-z
x-y,x,-z
-y,x-y,1/2-z
-x+y,y,1/2+z
x,x-y,1/2+z
-y,-x,1/2+z
y,x,z
x-y,-y,z
-x,-x+y,z
loop_
_atom_site_type_symbol
_atom_site_label
_atom_site_fract_x
_atom_site_fract_y
_atom_site_fract_z
Si Si1 0.362242 0.468523 0.805580
Si Si2 0.321369 0.105930 0.459694
Si Si3 0.108007 0.618747 0.134234
Si Si4 0.170091 0.355431 0.851307
Si Si5 0.000000 0.000000 0.690787
Si Si6 0.107376 0.632162 0.477066
Si Si7 0.822402 0.822402 0.690785
O O1 0.347354 0.496457 0.750000
O O2 0.429559 0.429559 0.802185
O O3 0.410580 0.558287 0.841036
O O4 0.268196 0.388931 0.827610
O O5 0.267372 0.133686 0.500000
O O6 0.341668 0.166432 0.410485
O O7 0.416070 0.133695 0.487535
O O8 0.263425 0.000000 0.445928
O O9 0.142765 0.712267 0.164094
O O10 0.147174 0.653632 0.078843
O O11 0.000000 0.561807 0.134634
O O12 0.092574 0.261372 0.829191
O O13 0.088686 0.000000 0.670618
O O14 0.000000 0.000000 0.750000
O O15 0.149849 0.574925 0.500000
O O16 0.000000 0.573015 0.473242
O O17 0.816689 0.816689 0.750000
#
# Coordination Sequence:
#
# PCOD8330129 Si02
#       7
#    24  24  24  24   4  24  12
#     4  10  23  41  63  90 125 161 207 269 331 400
#     4  11  23  37  61  94 132 175 221 276 335 400
#     4  10  20  39  62  91 122 159 207 261 318 387
#     4  12  23  41  67  98 129 173 224 273 341 409
#     4   9  24  48  66  96 136 173 232 300 348 375
#     4   9  17  33  59  87 117 154 199 253 314 381
#     4  11  26  44  70  98 131 179 237 296 342 399
#
# _framework density 20.315908
#
# number of rings (size 3 to 8) (size 9 to 14) (size 15 to 20)
#    0.000    1.588    2.647    2.118    3.706    4.235 
#    1.059    0.000    0.000    0.529    0.000    0.000 
#    0.000    0.000    0.000    0.000    0.000    0.000 
#
# Total GULP energy -1685646.399565 kJ/mol
# GULP energy per Si atom -12394.458820 kJ/mol
# Density = 2.026967 g / cm^3
# Si number density = 20.315908 Si / 1000 Ang^3
#
#
#
# Elastic Constant Matrix: (Units=GPa)
#
#
# Indices 1 2 3 4 5 6 
#
# 1 102.3245 43.5855 42.5117 0.0000 0.0000 0.0000
# 2 43.5855 102.3245 42.5117 0.0000 0.0000 0.0000
# 3 42.5117 42.5117 131.2540 0.0000 0.0000 0.0000
# 4 0.0000 0.0000 0.0000 29.4406 0.0000 0.0000
# 5 0.0000 0.0000 0.0000 0.0000 29.4406 0.0000
# 6 0.0000 0.0000 0.0000 0.0000 0.0000 29.3695
#
#
#
# Elastic Compliance Matrix: (Units=1/GPa)
#
#
# Indices 1 2 3 4 5 6 
#
# 1 0.012736 -0.004288 -0.002736 0.000000 0.000000 0.000000
# 2 -0.004288 0.012736 -0.002736 0.000000 0.000000 0.000000
# 3 -0.002736 -0.002736 0.009391 0.000000 0.000000 0.000000
# 4 0.000000 0.000000 0.000000 0.033967 0.000000 0.000000
# 5 0.000000 0.000000 0.000000 0.000000 0.033967 0.000000
# 6 0.000000 0.000000 0.000000 0.000000 0.000000 0.034049
#
#
# Mechanical properties :
#
#
# Convention : Reuss Voigt Hill
#
# Bulk Modulus (GPa) = 65.17896 65.90233 65.54065
# Shear Modulus (GPa) = 30.96329 31.46973 31.21651
#
# Velocity S-wave (km/s) = 3.90820 3.94003 3.92414
# Velocity P-wave (km/s) = 7.24691 7.29436 7.27067
#
# Compressibility (1/GPa) = 0.01534237
#
# Stress axis : x y z
#
# Youngs Moduli (GPa) = 78.51631 78.51631 106.48194
#
# Poissons Ratio (x) = 0.33670 0.29136
# Poissons Ratio (y) = 0.33670 0.29136
# Poissons Ratio (z) = 0.21484 0.21484
#
# Static dielectric constant tensor:
#      x y z
#    x 3.648470 0.000000 0.000000 
#    y 0.000000 3.648470 0.000000 
#    z 0.000000 0.000000 3.922440 
# 
# 
# High freq. dielectric constant tensor:
#      x y z
#    x 1.785690 0.000000 0.000000 
#    y 0.000000 1.785690 0.000000 
#    z 0.000000 0.000000 1.802960 
# 
# From -- ./inp_files/8368.got.cif
#   From: 2010.03.12/outbox.cif.g09.slc.cpg/sg193_5_cif.got.tgz:8368.got - 2010.04.01 12:20:39.
