data_PCOD8330025
_publ_section_title
;
Structure prediction by ZEFSAII (Michael W. Deem and Ramdas Pophale) SiO2 
 PCOD8330025
Probable space group: P 63/M C M
;
_chemical_formula_sum "Si O2"
_cell_formula_units_Z 144
_cell_length_a 31.166378
_cell_length_b 31.166378
_cell_length_c 9.050297
_cell_angle_alpha 90.000000
_cell_angle_beta 90.000000
_cell_angle_gamma 120.000000
_cell_volume 7613.180571
_symmetry_space_group_name_H-M "P 63/M C M"
_symmetry_group_IT_number 193
_symmetry_cell_setting 'hexagonal'
loop_
_space_group_symop_operation_xyz
x,y,z
x-y,x,1/2+z
-y,x-y,z
-x,-y,1/2+z
-x+y,-x,z
y,-x+y,1/2+z
x-y,-y,1/2-z
-x,-x+y,1/2-z
y,x,1/2-z
-y,-x,-z
-x+y,y,-z
x,x-y,-z
-x,-y,-z
-x+y,-x,1/2-z
y,-x+y,-z
x,y,1/2-z
x-y,x,-z
-y,x-y,1/2-z
-x+y,y,1/2+z
x,x-y,1/2+z
-y,-x,1/2+z
y,x,z
x-y,-y,z
-x,-x+y,z
loop_
_atom_site_type_symbol
_atom_site_label
_atom_site_fract_x
_atom_site_fract_y
_atom_site_fract_z
Si Si1 0.141729 0.663323 0.077602
Si Si2 0.056774 0.198701 0.422083
Si Si3 0.756833 0.332663 0.575087
Si Si4 0.770311 0.714550 0.579452
Si Si5 0.236900 0.851356 0.921427
Si Si6 0.572776 0.056509 0.577602
O O1 0.127951 0.655815 0.250000
O O2 0.187410 0.654831 0.042411
O O3 0.155957 0.718091 0.024358
O O4 0.093238 0.626492 0.986411
O O5 0.089196 0.178392 0.500000
O O6 0.068124 0.204169 0.250000
O O7 0.071488 0.252593 0.483153
O O8 0.000000 0.159534 0.458123
O O9 0.719637 0.280364 0.500000
O O10 0.748435 0.374218 0.500000
O O11 0.746367 0.330244 0.750000
O O12 0.786106 0.726204 0.750000
O O13 0.727125 0.727125 0.540534
O O14 0.749847 0.657194 0.541610
O O15 0.227563 0.839755 0.750000
O O16 0.186656 0.813345 0.000000
O O17 0.534505 0.069010 0.500000
O O18 0.571667 0.066384 0.750000
O O19 0.558838 0.000000 0.545565
#
# Coordination Sequence:
#
# PCOD8330025 Si02
#       6
#    24  24  24  24  24  24
#     4  10  22  38  57  82 111 145 183 222 266 317
#     4  10  20  33  51  76 104 135 173 217 264 314
#     4  11  23  39  59  83 110 140 176 219 269 322
#     4   9  18  33  53  77 106 140 177 219 266 314
#     4  10  21  36  54  78 108 144 184 222 265 317
#     4  10  21  37  58  84 112 143 180 222 269 318
#
# _framework density 18.914566000000001
#
# number of rings (size 3 to 8) (size 9 to 14) (size 15 to 20)
#    0.000    2.000    0.000    3.167    0.000    8.000 
#    0.000    1.667    0.000    2.167    0.000    0.000 
#    0.000    0.000    0.000    0.000    0.000    0.000 
#
# Total GULP energy -1786161.163074 kJ/mol
# GULP energy per Si atom -12403.896966 kJ/mol
# Density = 1.887152 g / cm^3
# Si number density = 18.914566 Si / 1000 Ang^3
#
#
#
# Elastic Constant Matrix: (Units=GPa)
#
#
# Indices 1 2 3 4 5 6 
#
# 1 102.0242 44.1089 48.5752 0.0000 0.0000 0.0000
# 2 44.1089 102.0242 48.5752 0.0000 0.0000 0.0000
# 3 48.5752 48.5752 83.7403 0.0000 0.0000 0.0000
# 4 0.0000 0.0000 0.0000 30.5594 0.0000 0.0000
# 5 0.0000 0.0000 0.0000 0.0000 30.5594 0.0000
# 6 0.0000 0.0000 0.0000 0.0000 0.0000 28.9576
#
#
#
# Elastic Compliance Matrix: (Units=1/GPa)
#
#
# Indices 1 2 3 4 5 6 
#
# 1 0.014203 -0.003064 -0.006461 0.000000 0.000000 0.000000
# 2 -0.003064 0.014203 -0.006461 0.000000 0.000000 0.000000
# 3 -0.006461 -0.006461 0.019437 0.000000 0.000000 0.000000
# 4 0.000000 0.000000 0.000000 0.032723 0.000000 0.000000
# 5 0.000000 0.000000 0.000000 0.000000 0.032723 0.000000
# 6 0.000000 0.000000 0.000000 0.000000 0.000000 0.034533
#
#
# Mechanical properties :
#
#
# Convention : Reuss Voigt Hill
#
# Bulk Modulus (GPa) = 63.01188 63.36748 63.18968
# Shear Modulus (GPa) = 27.01469 27.78391 27.39930
#
# Velocity S-wave (km/s) = 3.78332 3.83680 3.81015
# Velocity P-wave (km/s) = 7.24368 7.29402 7.26889
#
# Compressibility (1/GPa) = 0.01587002
#
# Stress axis : x y z
#
# Youngs Moduli (GPa) = 70.40999 70.40999 51.44714
#
# Poissons Ratio (x) = 0.21574 0.33240
# Poissons Ratio (y) = 0.21574 0.33240
# Poissons Ratio (z) = 0.45492 0.45492
#
# Static dielectric constant tensor:
#      x y z
#    x 3.495650 0.000000 0.000000 
#    y 0.000000 3.495650 0.000000 
#    z 0.000000 0.000000 3.525700 
# 
# 
# High freq. dielectric constant tensor:
#      x y z
#    x 1.737090 0.000000 0.000000 
#    y 0.000000 1.737090 0.000000 
#    z 0.000000 0.000000 1.738990 
# 
# From -- ./inp_files/1508.got.cif
#   From: 2010.03.12/outbox.cif.g09.slc.cpg/sg193_1_cif.got.tgz:1508.got - 2010.04.01 12:20:39.
