data_PCOD8330901
_publ_section_title
;
Structure prediction by ZEFSAII (Michael W. Deem and Ramdas Pophale) SiO2 
 PCOD8330901
Probable space group: I 21 3
;
_chemical_formula_sum "Si O2"
_cell_formula_units_Z 104
_cell_length_a 17.285568
_cell_length_b 17.285568
_cell_length_c 17.285568
_cell_angle_alpha 90.000000
_cell_angle_beta 90.000000
_cell_angle_gamma 90.000000
_cell_volume 5164.769747
_symmetry_space_group_name_H-M "I 21 3"
_symmetry_group_IT_number 199
_symmetry_cell_setting 'cubic'
loop_
_space_group_symop_operation_xyz
x,y,z
z,x,y
y,z,x
-y,1/2-z,x
z,-x,1/2-y
1/2-y,z,-x
-z,1/2-x,y
1/2-z,x,-y
y,-z,1/2-x
-x,1/2-y,z
x,-y,1/2-z
1/2-x,y,-z
1/2+x,1/2+y,1/2+z
1/2+z,1/2+x,1/2+y
1/2+y,1/2+z,1/2+x
1/2-y,-z,1/2+x
1/2+z,1/2-x,-y
-y,1/2+z,1/2-x
1/2-z,-x,1/2+y
-z,1/2+x,1/2-y
1/2+y,1/2-z,-x
1/2-x,-y,1/2+z
1/2+x,1/2-y,-z
-x,1/2+y,1/2-z
loop_
_atom_site_type_symbol
_atom_site_label
_atom_site_fract_x
_atom_site_fract_y
_atom_site_fract_z
Si Si1 0.346314 0.852526 0.297387
Si Si2 0.053733 0.553732 0.946269
Si Si3 0.519770 0.405489 0.101320
Si Si4 0.171690 0.373192 0.324668
Si Si5 0.827829 0.327829 0.172172
Si Si6 0.433756 0.066246 0.933755
Si Si7 0.656429 0.843573 0.156429
O O1 0.405477 0.906320 0.343394
O O2 0.351043 0.872081 0.205654
O O3 0.373743 0.766589 0.316936
O O4 0.258201 0.864041 0.325967
O O5 0.104969 0.604969 0.895033
O O6 0.010099 0.492728 0.891937
O O7 0.450835 0.347772 0.126497
O O8 0.544549 0.387402 0.012548
O O9 0.256337 0.368955 0.362161
O O10 0.880846 0.380846 0.119156
#
# Coordination Sequence:
#
# PCOD8330901 Si02
#       7
#    24   8  24  24   8   8   8
#     4   9  19  39  66  97 117 160 214 262 314 369
#     4  10  25  40  49  91 125 175 202 244 298 388
#     4  10  21  40  58  88 130 163 206 249 312 370
#     4   9  19  37  65  93 123 159 205 261 309 378
#     4   9  20  44  69  91 122 157 228 263 308 381
#     4  10  25  46  58  88 128 175 205 265 316 361
#     4   9  20  38  60  91 128 160 201 248 320 363
#
# _framework density 20.136426
#
# number of rings (size 3 to 8) (size 9 to 14) (size 15 to 20)
#    0.000    2.769    0.000    2.538    3.231    1.846 
#   20.769    0.000    0.000    0.000    0.000    0.000 
#    0.000    0.000    0.000    0.000    0.000    0.000 
#
# Total GULP energy -644492.059045 kJ/mol
# GULP energy per Si atom -12394.078059 kJ/mol
# Density = 2.009059 g / cm^3
# Si number density = 20.136426 Si / 1000 Ang^3
#
#
#
# Elastic Constant Matrix: (Units=GPa)
#
#
# Indices 1 2 3 4 5 6 
#
# 1 91.1956 58.9170 58.9182 0.0000 0.0000 0.0000
# 2 58.9170 91.1929 58.9175 0.0000 0.0000 0.0000
# 3 58.9182 58.9175 91.1966 0.0000 0.0000 0.0000
# 4 0.0000 0.0000 0.0000 55.6506 0.0000 0.0000
# 5 0.0000 0.0000 0.0000 0.0000 55.6804 0.0000
# 6 0.0000 0.0000 0.0000 0.0000 0.0000 55.6561
#
#
#
# Elastic Compliance Matrix: (Units=1/GPa)
#
#
# Indices 1 2 3 4 5 6 
#
# 1 0.022249 -0.008732 -0.008732 0.000000 0.000000 0.000000
# 2 -0.008732 0.022249 -0.008733 0.000000 0.000000 0.000000
# 3 -0.008732 -0.008733 0.022249 0.000000 0.000000 0.000000
# 4 0.000000 0.000000 0.000000 0.017969 0.000000 0.000000
# 5 0.000000 0.000000 0.000000 0.000000 0.017960 0.000000
# 6 0.000000 0.000000 0.000000 0.000000 0.000000 0.017967
#
#
# Mechanical properties :
#
#
# Convention : Reuss Voigt Hill
#
# Bulk Modulus (GPa) = 69.67673 69.67673 69.67673
# Shear Modulus (GPa) = 28.11804 39.85293 33.98549
#
# Velocity S-wave (km/s) = 3.74087 4.45359 4.11269
# Velocity P-wave (km/s) = 7.30317 7.81814 7.56504
#
# Compressibility (1/GPa) = 0.01435199
#
# Stress axis : x y z
#
# Youngs Moduli (GPa) = 44.94642 44.94492 44.94675
#
# Poissons Ratio (x) = 0.39248 0.39249
# Poissons Ratio (y) = 0.39249 0.39250
# Poissons Ratio (z) = 0.39249 0.39248
#
# Static dielectric constant tensor:
#      x y z
#    x 3.316140 0.000000 0.000000 
#    y 0.000000 3.315690 0.000000 
#    z 0.000000 0.000000 3.315990 
# 
# 
# High freq. dielectric constant tensor:
#      x y z
#    x 1.783970 0.000000 0.000000 
#    y 0.000000 1.783970 0.000000 
#    z 0.000000 0.000000 1.783970 
# 
# From -- ./inp_files/605.got.cif
#   From: 2010.03.12/outbox.cif.g09.slc.cpg/sg199_cif.got.tgz:605.got - 2010.04.01 12:34:00.
