data_PCOD8330860
_publ_section_title
;
Structure prediction by ZEFSAII (Michael W. Deem and Ramdas Pophale) SiO2 
 PCOD8330860
Probable space group: P 63/M M C
;
_chemical_formula_sum "Si O2"
_cell_formula_units_Z 88
_cell_length_a 25.581050
_cell_length_b 25.581050
_cell_length_c 9.855446
_cell_angle_alpha 90.000000
_cell_angle_beta 90.000000
_cell_angle_gamma 120.000000
_cell_volume 5585.263250
_symmetry_space_group_name_H-M "P 63/M M C"
_symmetry_group_IT_number 194
_symmetry_cell_setting 'hexagonal'
loop_
_space_group_symop_operation_xyz
x,y,z
x-y,x,1/2+z
-y,x-y,z
-x,-y,1/2+z
-x+y,-x,z
y,-x+y,1/2+z
x-y,-y,-z
-x,-x+y,-z
y,x,-z
-y,-x,1/2-z
-x+y,y,1/2-z
x,x-y,1/2-z
-x,-y,-z
-x+y,-x,1/2-z
y,-x+y,-z
x,y,1/2-z
x-y,x,-z
-y,x-y,1/2-z
-x+y,y,z
x,x-y,z
-y,-x,z
y,x,1/2+z
x-y,-y,1/2+z
-x,-x+y,1/2+z
loop_
_atom_site_type_symbol
_atom_site_label
_atom_site_fract_x
_atom_site_fract_y
_atom_site_fract_z
Si Si1 0.297956 0.473249 0.092644
Si Si2 0.632343 0.754218 0.899780
Si Si3 0.600101 0.200201 0.589739
Si Si4 0.232101 0.176675 0.407716
Si Si5 0.333334 0.666668 0.413012
O O1 0.298991 0.458071 0.250000
O O2 0.243784 0.487568 0.065357
O O3 0.362391 0.529911 0.045537
O O4 0.290727 0.416274 0.007983
O O5 0.616821 0.724064 0.750000
O O6 0.630302 0.815151 0.893891
O O7 0.699649 0.771033 0.943290
O O8 0.603702 0.207403 0.750000
O O9 0.633257 0.266513 0.525593
O O10 0.186070 0.186070 0.500000
O O11 0.218304 0.180385 0.250000
O O12 0.222583 0.111292 0.442796
O O13 0.333334 0.666667 0.250000
#
# Coordination Sequence:
#
# PCOD8330860 Si02
#       5
#    24  24  12  24   4
#     4   9  15  22  35  55  77 105 145 187 223 264
#     4   8  15  28  42  57  83 115 141 171 215 260
#     4   9  14  20  31  51  78 108 143 185 230 272
#     4   9  18  32  50  73  99 124 148 174 207 246
#     4   9  12  18  30  45  73 110 142 177 229 278
#
# _framework density 15.755747
#
# number of rings (size 3 to 8) (size 9 to 14) (size 15 to 20)
#    0.000    3.273    1.364    1.636    0.000    1.636 
#    0.000    3.409    0.000    0.273    0.000    0.955 
#    0.000    0.000    0.000    0.000    0.000    0.000 
#
# Total GULP energy -1090469.743395 kJ/mol
# GULP energy per Si atom -12391.701629 kJ/mol
# Density = 1.571989 g / cm^3
# Si number density = 15.755747 Si / 1000 Ang^3
#
#
#
# Elastic Constant Matrix: (Units=GPa)
#
#
# Indices 1 2 3 4 5 6 
#
# 1 78.0034 41.0791 50.4347 0.0000 0.0000 0.0000
# 2 41.0791 78.0036 50.4347 0.0000 0.0000 0.0000
# 3 50.4347 50.4347 72.4047 0.0000 0.0000 0.0000
# 4 0.0000 0.0000 0.0000 23.3018 0.0000 0.0000
# 5 0.0000 0.0000 0.0000 0.0000 23.3018 0.0000
# 6 0.0000 0.0000 0.0000 0.0000 0.0000 18.4622
#
#
#
# Elastic Compliance Matrix: (Units=1/GPa)
#
#
# Indices 1 2 3 4 5 6 
#
# 1 0.023783 -0.003300 -0.014268 0.000000 0.000000 0.000000
# 2 -0.003300 0.023783 -0.014268 0.000000 0.000000 0.000000
# 3 -0.014268 -0.014268 0.033688 0.000000 0.000000 0.000000
# 4 0.000000 0.000000 0.000000 0.042915 0.000000 0.000000
# 5 0.000000 0.000000 0.000000 0.000000 0.042915 0.000000
# 6 0.000000 0.000000 0.000000 0.000000 0.000000 0.054165
#
#
# Mechanical properties :
#
#
# Convention : Reuss Voigt Hill
#
# Bulk Modulus (GPa) = 56.87273 56.92320 56.89796
# Shear Modulus (GPa) = 17.19505 18.77736 17.98620
#
# Velocity S-wave (km/s) = 3.30714 3.45596 3.38237
# Velocity P-wave (km/s) = 7.12445 7.22024 7.17250
#
# Compressibility (1/GPa) = 0.01758312
#
# Stress axis : x y z
#
# Youngs Moduli (GPa) = 42.04701 42.04725 29.68372
#
# Poissons Ratio (x) = 0.13874 0.42353
# Poissons Ratio (y) = 0.13874 0.42353
# Poissons Ratio (z) = 0.59993 0.59993
#
# Static dielectric constant tensor:
#      x y z
#    x 2.870160 0.000000 0.000000 
#    y 0.000000 2.870160 0.000000 
#    z 0.000000 0.000000 2.961340 
# 
# 
# High freq. dielectric constant tensor:
#      x y z
#    x 1.580930 0.000000 0.000000 
#    y 0.000000 1.580930 0.000000 
#    z 0.000000 0.000000 1.589040 
# 
# From -- ./inp_files/1465.got.cif
#   From: 2010.03.12/outbox.cif.g09.slc.cpg/sg194_1_cif.got.tgz:1465.got - 2010.04.01 12:26:19.
