data_PCOD8330035
_publ_section_title
;
Structure prediction by ZEFSAII (Michael W. Deem and Ramdas Pophale) SiO2 
 PCOD8330035
Probable space group: P 63/M C M
;
_chemical_formula_sum "Si O2"
_cell_formula_units_Z 144
_cell_length_a 30.923669
_cell_length_b 30.923669
_cell_length_c 8.927505
_cell_angle_alpha 90.000000
_cell_angle_beta 90.000000
_cell_angle_gamma 120.000000
_cell_volume 7393.375531
_symmetry_space_group_name_H-M "P 63/M C M"
_symmetry_group_IT_number 193
_symmetry_cell_setting 'hexagonal'
loop_
_space_group_symop_operation_xyz
x,y,z
x-y,x,1/2+z
-y,x-y,z
-x,-y,1/2+z
-x+y,-x,z
y,-x+y,1/2+z
x-y,-y,1/2-z
-x,-x+y,1/2-z
y,x,1/2-z
-y,-x,-z
-x+y,y,-z
x,x-y,-z
-x,-y,-z
-x+y,-x,1/2-z
y,-x+y,-z
x,y,1/2-z
x-y,x,-z
-y,x-y,1/2-z
-x+y,y,1/2+z
x,x-y,1/2+z
-y,-x,1/2+z
y,x,z
x-y,-y,z
-x,-x+y,z
loop_
_atom_site_type_symbol
_atom_site_label
_atom_site_fract_x
_atom_site_fract_y
_atom_site_fract_z
Si Si1 0.857038 0.524345 0.924434
Si Si2 0.943804 0.232813 0.921854
Si Si3 0.610180 0.760777 0.925110
Si Si4 0.056698 0.855653 0.925420
Si Si5 0.516646 0.942630 0.424717
Si Si6 0.242820 0.667467 0.925004
O O1 0.867643 0.536492 0.750000
O O2 0.814117 0.467531 0.952375
O O3 0.838629 0.559546 0.996119
O O4 0.908132 0.535968 0.004086
O O5 0.940048 0.215952 0.750000
O O6 0.906724 0.253991 0.953720
O O7 0.000000 0.276400 0.961791
O O8 0.927381 0.183989 0.021212
O O9 0.600064 0.762898 0.750000
O O10 0.628441 0.814221 0.000000
O O11 0.064186 0.861541 0.750000
O O12 0.000000 0.837118 0.973816
O O13 0.090835 0.909166 0.000000
O O14 0.464748 0.929496 0.500000
O O15 0.506691 0.930876 0.250000
O O16 0.558406 0.000000 0.454207
O O17 0.255220 0.670500 0.750000
O O18 0.279345 0.720656 0.000000
O O19 0.251764 0.625882 0.000000
#
# Coordination Sequence:
#
# PCOD8330035 Si02
#       6
#    24  24  24  24  24  24
#     4  11  24  40  60  86 115 151 193 235 282 335
#     4   9  19  36  57  81 110 145 184 227 276 328
#     4  11  23  38  57  81 113 152 192 234 280 334
#     4  10  20  33  52  79 108 140 180 225 274 327
#     4  10  21  38  61  88 118 152 190 234 284 336
#     4  11  24  41  62  87 115 146 182 226 277 332
#
# _framework density 19.476894999999999
#
# number of rings (size 3 to 8) (size 9 to 14) (size 15 to 20)
#    0.000    1.667    0.000    4.167    0.000   10.667 
#    0.000    1.667    0.000    0.167    0.000    0.000 
#    0.000    0.000    0.000    0.000    0.000    0.000 
#
# Total GULP energy -1786443.746123 kJ/mol
# GULP energy per Si atom -12405.859348 kJ/mol
# Density = 1.943256 g / cm^3
# Si number density = 19.476895 Si / 1000 Ang^3
#
#
#
# Elastic Constant Matrix: (Units=GPa)
#
#
# Indices 1 2 3 4 5 6 
#
# 1 94.0320 33.1999 50.6799 0.0000 0.0000 0.0000
# 2 33.1999 94.0320 50.6799 0.0000 0.0000 0.0000
# 3 50.6799 50.6799 115.7086 0.0000 0.0000 0.0000
# 4 0.0000 0.0000 0.0000 34.3257 0.0000 0.0000
# 5 0.0000 0.0000 0.0000 0.0000 34.3257 0.0000
# 6 0.0000 0.0000 0.0000 0.0000 0.0000 30.4161
#
#
#
# Elastic Compliance Matrix: (Units=1/GPa)
#
#
# Indices 1 2 3 4 5 6 
#
# 1 0.014255 -0.002183 -0.005287 0.000000 0.000000 0.000000
# 2 -0.002183 0.014255 -0.005287 0.000000 0.000000 0.000000
# 3 -0.005287 -0.005287 0.013274 0.000000 0.000000 0.000000
# 4 0.000000 0.000000 0.000000 0.029133 0.000000 0.000000
# 5 0.000000 0.000000 0.000000 0.000000 0.029133 0.000000
# 6 0.000000 0.000000 0.000000 0.000000 0.000000 0.032877
#
#
# Mechanical properties :
#
#
# Convention : Reuss Voigt Hill
#
# Bulk Modulus (GPa) = 61.46957 63.65466 62.56211
# Shear Modulus (GPa) = 30.51258 31.09437 30.80348
#
# Velocity S-wave (km/s) = 3.96233 3.99993 3.98117
# Velocity P-wave (km/s) = 7.24998 7.35429 7.30232
#
# Compressibility (1/GPa) = 0.01626821
#
# Stress axis : x y z
#
# Youngs Moduli (GPa) = 70.14932 70.14932 75.33423
#
# Poissons Ratio (x) = 0.15316 0.39833
# Poissons Ratio (y) = 0.15316 0.39833
# Poissons Ratio (z) = 0.37091 0.37091
#
# Static dielectric constant tensor:
#      x y z
#    x 3.505430 0.000000 0.000000 
#    y 0.000000 3.505430 0.000000 
#    z 0.000000 0.000000 3.691560 
# 
# 
# High freq. dielectric constant tensor:
#      x y z
#    x 1.759150 0.000000 0.000000 
#    y 0.000000 1.759150 0.000000 
#    z 0.000000 0.000000 1.772870 
# 
# From -- ./inp_files/1496.got.cif
#   From: 2010.03.12/outbox.cif.g09.slc.cpg/sg193_1_cif.got.tgz:1496.got - 2010.04.01 12:20:39.
