data_PCOD8330029
_publ_section_title
;
Structure prediction by ZEFSAII (Michael W. Deem and Ramdas Pophale) SiO2 
 PCOD8330029
Probable space group: P 63/M C M
;
_chemical_formula_sum "Si O2"
_cell_formula_units_Z 96
_cell_length_a 18.110534
_cell_length_b 18.110534
_cell_length_c 19.006201
_cell_angle_alpha 90.000000
_cell_angle_beta 90.000000
_cell_angle_gamma 120.000000
_cell_volume 5398.690882
_symmetry_space_group_name_H-M "P 63/M C M"
_symmetry_group_IT_number 193
_symmetry_cell_setting 'hexagonal'
loop_
_space_group_symop_operation_xyz
x,y,z
x-y,x,1/2+z
-y,x-y,z
-x,-y,1/2+z
-x+y,-x,z
y,-x+y,1/2+z
x-y,-y,1/2-z
-x,-x+y,1/2-z
y,x,1/2-z
-y,-x,-z
-x+y,y,-z
x,x-y,-z
-x,-y,-z
-x+y,-x,1/2-z
y,-x+y,-z
x,y,1/2-z
x-y,x,-z
-y,x-y,1/2-z
-x+y,y,1/2+z
x,x-y,1/2+z
-y,-x,1/2+z
y,x,z
x-y,-y,z
-x,-x+y,z
loop_
_atom_site_type_symbol
_atom_site_label
_atom_site_fract_x
_atom_site_fract_y
_atom_site_fract_z
Si Si1 0.239504 0.335038 0.537244
Si Si2 0.411356 0.309987 0.673758
Si Si3 0.420337 0.520862 0.330388
Si Si4 0.171266 0.506400 0.530765
O O1 0.148600 0.297200 0.500000
O O2 0.257812 0.257812 0.542460
O O3 0.237034 0.373828 0.613922
O O4 0.313318 0.412786 0.493451
O O5 0.400089 0.266036 0.750000
O O6 0.358839 0.358839 0.670524
O O7 0.509546 0.379554 0.660616
O O8 0.385531 0.503536 0.250000
O O9 0.460951 0.460951 0.348288
O O10 0.343938 0.505516 0.383962
O O11 0.263082 0.526164 0.500000
O O12 0.147653 0.573827 0.500000
#
# Coordination Sequence:
#
# PCOD8330029 Si02
#       4
#    24  24  24  24
#     4  10  20  33  52  78 102 131 167 212 263 313
#     4   8  14  27  50  77  98 122 165 214 256 301
#     4   9  17  31  52  74  96 130 177 225 269 311
#     4  11  21  33  48  72 103 140 177 217 258 309
#
# _framework density 17.782088999999999
#
# number of rings (size 3 to 8) (size 9 to 14) (size 15 to 20)
#    0.000    2.500    2.500    2.500    0.000    1.000 
#    0.000    6.250    0.000    2.500    0.000    0.000 
#    0.000    0.000    0.000    0.000    0.000    2.250 
#
# Total GULP energy -1189382.995324 kJ/mol
# GULP energy per Si atom -12389.406201 kJ/mol
# Density = 1.774162 g / cm^3
# Si number density = 17.782089 Si / 1000 Ang^3
#
#
#
# Elastic Constant Matrix: (Units=GPa)
#
#
# Indices 1 2 3 4 5 6 
#
# 1 54.3029 24.7182 43.7879 0.0000 0.0000 0.0000
# 2 24.7182 54.3029 43.7879 0.0000 0.0000 0.0000
# 3 43.7879 43.7879 174.2076 0.0000 0.0000 0.0000
# 4 0.0000 0.0000 0.0000 26.3190 0.0000 0.0000
# 5 0.0000 0.0000 0.0000 0.0000 26.3190 0.0000
# 6 0.0000 0.0000 0.0000 0.0000 0.0000 14.7923
#
#
#
# Elastic Compliance Matrix: (Units=1/GPa)
#
#
# Indices 1 2 3 4 5 6 
#
# 1 0.025671 -0.008130 -0.004409 0.000000 0.000000 0.000000
# 2 -0.008130 0.025671 -0.004409 0.000000 0.000000 0.000000
# 3 -0.004409 -0.004409 0.007957 0.000000 0.000000 0.000000
# 4 0.000000 0.000000 0.000000 0.037995 0.000000 0.000000
# 5 0.000000 0.000000 0.000000 0.000000 0.037995 0.000000
# 6 0.000000 0.000000 0.000000 0.000000 0.000000 0.067603
#
#
# Mechanical properties :
#
#
# Convention : Reuss Voigt Hill
#
# Bulk Modulus (GPa) = 39.36552 56.37795 47.87173
# Shear Modulus (GPa) = 20.38682 24.85403 22.62042
#
# Velocity S-wave (km/s) = 3.38965 3.74264 3.57051
# Velocity P-wave (km/s) = 6.12416 7.10283 6.63158
#
# Compressibility (1/GPa) = 0.02540294
#
# Stress axis : x y z
#
# Youngs Moduli (GPa) = 38.95407 38.95407 125.67921
#
# Poissons Ratio (x) = 0.31670 0.55413
# Poissons Ratio (y) = 0.31670 0.55413
# Poissons Ratio (z) = 0.17175 0.17175
#
# Static dielectric constant tensor:
#      x y z
#    x 2.907840 0.000000 0.000000 
#    y 0.000000 2.907840 0.000000 
#    z 0.000000 0.000000 3.980250 
# 
# 
# High freq. dielectric constant tensor:
#      x y z
#    x 1.649310 0.000000 0.000000 
#    y 0.000000 1.649310 0.000000 
#    z 0.000000 0.000000 1.713220 
# 
# From -- ./inp_files/5187.got.cif
#   From: 2010.03.12/outbox.cif.g09.slc.cpg/sg193_3_cif.got.tgz:5187.got - 2010.04.01 12:20:39.
