data_PCOD8330105
_publ_section_title
;
Structure prediction by ZEFSAII (Michael W. Deem and Ramdas Pophale) SiO2 
 PCOD8330105
Probable space group: P 63/M C M
;
_chemical_formula_sum "Si O2"
_cell_formula_units_Z 120
_cell_length_a 14.843700
_cell_length_b 14.843700
_cell_length_c 30.612225
_cell_angle_alpha 90.000000
_cell_angle_beta 90.000000
_cell_angle_gamma 120.000000
_cell_volume 5841.304758
_symmetry_space_group_name_H-M "P 63/M C M"
_symmetry_group_IT_number 193
_symmetry_cell_setting 'hexagonal'
loop_
_space_group_symop_operation_xyz
x,y,z
x-y,x,1/2+z
-y,x-y,z
-x,-y,1/2+z
-x+y,-x,z
y,-x+y,1/2+z
x-y,-y,1/2-z
-x,-x+y,1/2-z
y,x,1/2-z
-y,-x,-z
-x+y,y,-z
x,x-y,-z
-x,-y,-z
-x+y,-x,1/2-z
y,-x+y,-z
x,y,1/2-z
x-y,x,-z
-y,x-y,1/2-z
-x+y,y,1/2+z
x,x-y,1/2+z
-y,-x,1/2+z
y,x,z
x-y,-y,z
-x,-x+y,z
loop_
_atom_site_type_symbol
_atom_site_label
_atom_site_fract_x
_atom_site_fract_y
_atom_site_fract_z
Si Si1 0.734033 0.164008 0.703333
Si Si2 0.248517 0.367602 0.606991
Si Si3 0.389166 0.880716 0.682903
Si Si4 0.120019 0.384192 0.538225
Si Si5 0.566527 0.445874 0.590045
O O1 0.747437 0.117218 0.750000
O O2 0.766548 0.125710 0.659665
O O3 0.805853 0.287183 0.709657
O O4 0.613876 0.128943 0.700256
O O5 0.292003 0.292003 0.592977
O O6 0.140869 0.333546 0.581526
O O7 0.322161 0.486371 0.587987
O O8 0.361462 0.837538 0.633052
O O9 0.416314 0.000000 0.687714
O O10 0.195563 0.391125 0.500000
O O11 0.140901 0.501448 0.547870
O O12 0.000000 0.310419 0.524475
O O13 0.491457 0.491457 0.599340
#
# Coordination Sequence:
#
# PCOD8330105 Si02
#       5
#    24  24  24  24  24
#     4  11  21  32  53  83 116 159 206 247 296 353
#     4  10  21  38  59  83 118 160 197 242 298 353
#     4  10  20  36  54  79 118 159 201 250 297 349
#     4  11  22  39  63  89 117 150 192 246 303 362
#     4   8  17  35  57  81 112 149 188 233 284 343
#
# _framework density 20.543354000000001
#
# number of rings (size 3 to 8) (size 9 to 14) (size 15 to 20)
#    0.000    2.000    2.000    3.400    0.000    3.600 
#    1.200    3.000    0.000    3.600    0.000    0.000 
#    0.000    0.000    0.000    0.000    0.000    0.000 
#
# Total GULP energy -1486601.889990 kJ/mol
# GULP energy per Si atom -12388.349083 kJ/mol
# Density = 2.049660 g / cm^3
# Si number density = 20.543354 Si / 1000 Ang^3
#
#
#
# Elastic Constant Matrix: (Units=GPa)
#
#
# Indices 1 2 3 4 5 6 
#
# 1 58.6188 12.2587 26.5029 0.0000 0.0000 0.0000
# 2 12.2587 58.6188 26.5029 0.0000 0.0000 0.0000
# 3 26.5029 26.5029 118.8023 0.0000 0.0000 0.0000
# 4 0.0000 0.0000 0.0000 41.5098 0.0000 0.0000
# 5 0.0000 0.0000 0.0000 0.0000 41.5098 0.0000
# 6 0.0000 0.0000 0.0000 0.0000 0.0000 23.1800
#
#
#
# Elastic Compliance Matrix: (Units=1/GPa)
#
#
# Indices 1 2 3 4 5 6 
#
# 1 0.019252 -0.002318 -0.003778 0.000000 0.000000 0.000000
# 2 -0.002318 0.019252 -0.003778 0.000000 0.000000 0.000000
# 3 -0.003778 -0.003778 0.010103 0.000000 0.000000 0.000000
# 4 0.000000 0.000000 0.000000 0.024091 0.000000 0.000000
# 5 0.000000 0.000000 0.000000 0.000000 0.024091 0.000000
# 6 0.000000 0.000000 0.000000 0.000000 0.000000 0.043141
#
#
# Mechanical properties :
#
#
# Convention : Reuss Voigt Hill
#
# Bulk Modulus (GPa) = 34.64998 40.72987 37.68993
# Shear Modulus (GPa) = 29.53404 32.62496 31.07950
#
# Velocity S-wave (km/s) = 3.79574 3.98942 3.89379
# Velocity P-wave (km/s) = 6.00946 6.41015 6.21303
#
# Compressibility (1/GPa) = 0.02886004
#
# Stress axis : x y z
#
# Youngs Moduli (GPa) = 51.94225 51.94225 98.98207
#
# Poissons Ratio (x) = 0.12041 0.37393
# Poissons Ratio (y) = 0.12041 0.37393
# Poissons Ratio (z) = 0.19622 0.19622
#
# Static dielectric constant tensor:
#      x y z
#    x 3.536940 0.000000 0.000000 
#    y 0.000000 3.536940 0.000000 
#    z 0.000000 0.000000 4.119670 
# 
# 
# High freq. dielectric constant tensor:
#      x y z
#    x 1.776230 0.000000 0.000000 
#    y 0.000000 1.776230 0.000000 
#    z 0.000000 0.000000 1.820200 
# 
# From -- ./inp_files/8952.got.cif
#   From: 2010.03.12/outbox.cif.g09.slc.cpg/sg193_5_cif.got.tgz:8952.got - 2010.04.01 12:20:39.
