data_PCOD8330685
_publ_section_title
;
Structure prediction by ZEFSAII (Michael W. Deem and Ramdas Pophale) SiO2 
 PCOD8330685
Probable space group: P 63/M M C
;
_chemical_formula_sum "Si O2"
_cell_formula_units_Z 144
_cell_length_a 31.866960
_cell_length_b 31.866960
_cell_length_c 9.139510
_cell_angle_alpha 90.000000
_cell_angle_beta 90.000000
_cell_angle_gamma 120.000000
_cell_volume 8037.755930
_symmetry_space_group_name_H-M "P 63/M M C"
_symmetry_group_IT_number 194
_symmetry_cell_setting 'hexagonal'
loop_
_space_group_symop_operation_xyz
x,y,z
x-y,x,1/2+z
-y,x-y,z
-x,-y,1/2+z
-x+y,-x,z
y,-x+y,1/2+z
x-y,-y,-z
-x,-x+y,-z
y,x,-z
-y,-x,1/2-z
-x+y,y,1/2-z
x,x-y,1/2-z
-x,-y,-z
-x+y,-x,1/2-z
y,-x+y,-z
x,y,1/2-z
x-y,x,-z
-y,x-y,1/2-z
-x+y,y,z
x,x-y,z
-y,-x,z
y,x,1/2+z
x-y,-y,1/2+z
-x,-x+y,1/2+z
loop_
_atom_site_type_symbol
_atom_site_label
_atom_site_fract_x
_atom_site_fract_y
_atom_site_fract_z
Si Si1 0.560312 0.950746 0.079618
Si Si2 0.140907 0.520887 0.585338
Si Si3 0.049334 0.193067 0.578558
Si Si4 0.303347 0.103725 0.418894
Si Si5 0.658679 0.706848 0.418318
Si Si6 0.666898 0.236432 0.579284
O O1 0.550305 0.954764 0.250000
O O2 0.605082 0.942093 0.056209
O O3 0.514569 0.905560 0.008759
O O4 0.570228 0.000000 0.000000
O O5 0.137158 0.500457 0.750000
O O6 0.143193 0.571597 0.590592
O O7 0.190076 0.528798 0.509265
O O8 0.040237 0.188512 0.750000
O O9 0.089024 0.178047 0.535309
O O10 0.068494 0.248234 0.529304
O O11 0.000000 0.156419 0.500000
O O12 0.309552 0.094531 0.250000
O O13 0.318468 0.159234 0.444814
O O14 0.339244 0.093703 0.515881
O O15 0.697983 0.697983 0.500000
O O16 0.673287 0.715028 0.250000
O O17 0.667624 0.225408 0.750000
O O18 0.623382 0.246764 0.543862
O O19 0.716721 0.283280 0.529811
#
# Coordination Sequence:
#
# PCOD8330685 Si02
#       6
#    24  24  24  24  24  24
#     4  10  21  37  56  77 101 132 170 212 257 304
#     4  10  21  36  54  78 107 137 171 213 259 306
#     4   9  18  31  46  67  94 121 152 191 233 280
#     4   9  18  32  49  71 100 130 159 195 240 287
#     4  10  20  33  51  74  98 126 162 202 242 288
#     4   9  17  31  53  80 109 141 176 213 254 302
#
# _framework density 17.915448000000001
#
# number of rings (size 3 to 8) (size 9 to 14) (size 15 to 20)
#    0.000    2.500    0.000    3.167    0.000    7.000 
#    0.000    2.500    0.000    2.167    0.000    0.000 
#    0.000    0.000    0.000    0.000    0.000    0.000 
#
# Total GULP energy -1785809.756880 kJ/mol
# GULP energy per Si atom -12401.456645 kJ/mol
# Density = 1.787467 g / cm^3
# Si number density = 17.915448 Si / 1000 Ang^3
#
#
#
# Elastic Constant Matrix: (Units=GPa)
#
#
# Indices 1 2 3 4 5 6 
#
# 1 75.3636 28.4597 41.8875 0.0000 0.0000 0.0000
# 2 28.4597 75.3636 41.8875 0.0000 0.0000 0.0000
# 3 41.8875 41.8875 92.0106 0.0000 0.0000 0.0000
# 4 0.0000 0.0000 0.0000 32.8299 0.0000 0.0000
# 5 0.0000 0.0000 0.0000 0.0000 32.8299 0.0000
# 6 0.0000 0.0000 0.0000 0.0000 0.0000 23.4519
#
#
#
# Elastic Compliance Matrix: (Units=1/GPa)
#
#
# Indices 1 2 3 4 5 6 
#
# 1 0.018272 -0.003048 -0.006931 0.000000 0.000000 0.000000
# 2 -0.003048 0.018272 -0.006931 0.000000 0.000000 0.000000
# 3 -0.006931 -0.006931 0.017179 0.000000 0.000000 0.000000
# 4 0.000000 0.000000 0.000000 0.030460 0.000000 0.000000
# 5 0.000000 0.000000 0.000000 0.000000 0.030460 0.000000
# 6 0.000000 0.000000 0.000000 0.000000 0.000000 0.042640
#
#
# Mechanical properties :
#
#
# Convention : Reuss Voigt Hill
#
# Bulk Modulus (GPa) = 50.24102 51.91190 51.07646
# Shear Modulus (GPa) = 25.28607 26.52254 25.90431
#
# Velocity S-wave (km/s) = 3.76095 3.85181 3.80665
# Velocity P-wave (km/s) = 6.85303 6.98719 6.92043
#
# Compressibility (1/GPa) = 0.01990406
#
# Stress axis : x y z
#
# Youngs Moduli (GPa) = 54.72796 54.72796 58.21160
#
# Poissons Ratio (x) = 0.16681 0.40345
# Poissons Ratio (y) = 0.16681 0.40345
# Poissons Ratio (z) = 0.37931 0.37931
#
# Static dielectric constant tensor:
#      x y z
#    x 3.246610 0.000000 0.000000 
#    y 0.000000 3.246610 0.000000 
#    z 0.000000 0.000000 3.403870 
# 
# 
# High freq. dielectric constant tensor:
#      x y z
#    x 1.686010 0.000000 0.000000 
#    y 0.000000 1.686010 0.000000 
#    z 0.000000 0.000000 1.699500 
# 
# From -- ./inp_files/2102.got.cif
#   From: 2010.03.12/outbox.cif.g09.slc.cpg/sg194_2_cif.got.tgz:2102.got - 2010.04.01 12:26:19.
