data_PCOD8330001
_publ_section_title
;
Structure prediction by ZEFSAII (Michael W. Deem and Ramdas Pophale) SiO2 
 PCOD8330001
Probable space group: P 63/M C M
;
_chemical_formula_sum "Si O2"
_cell_formula_units_Z 152
_cell_length_a 23.955403
_cell_length_b 23.955403
_cell_length_c 17.784364
_cell_angle_alpha 90.000000
_cell_angle_beta 90.000000
_cell_angle_gamma 120.000000
_cell_volume 8838.446411
_symmetry_space_group_name_H-M "P 63/M C M"
_symmetry_group_IT_number 193
_symmetry_cell_setting 'hexagonal'
loop_
_space_group_symop_operation_xyz
x,y,z
x-y,x,1/2+z
-y,x-y,z
-x,-y,1/2+z
-x+y,-x,z
y,-x+y,1/2+z
x-y,-y,1/2-z
-x,-x+y,1/2-z
y,x,1/2-z
-y,-x,-z
-x+y,y,-z
x,x-y,-z
-x,-y,-z
-x+y,-x,1/2-z
y,-x+y,-z
x,y,1/2-z
x-y,x,-z
-y,x-y,1/2-z
-x+y,y,1/2+z
x,x-y,1/2+z
-y,-x,1/2+z
y,x,z
x-y,-y,z
-x,-x+y,z
loop_
_atom_site_type_symbol
_atom_site_label
_atom_site_fract_x
_atom_site_fract_y
_atom_site_fract_z
Si Si1 0.333897 0.853280 0.338346
Si Si2 0.340231 0.266238 0.613152
Si Si3 0.859980 0.191672 0.832873
Si Si4 0.607478 0.197466 0.088749
Si Si5 0.796467 0.275392 0.664203
Si Si6 0.192214 0.264073 0.024282
Si Si7 0.666668 0.333334 0.160349
O O1 0.344860 0.868859 0.250000
O O2 0.320960 0.906157 0.378630
O O3 0.397310 0.857994 0.377013
O O4 0.275037 0.781746 0.354079
O O5 0.295159 0.295159 0.639944
O O6 0.326454 0.204727 0.663295
O O7 0.324526 0.241952 0.526827
O O8 0.888849 0.198472 0.750000
O O9 0.844900 0.248731 0.848892
O O10 0.915251 0.201398 0.889825
O O11 0.664548 0.182558 0.108066
O O12 0.621173 0.262320 0.129961
O O13 0.601615 0.203229 0.000000
O O14 0.799329 0.298956 0.750000
O O15 0.204637 0.204637 0.016108
O O16 0.118883 0.237766 0.000000
O O17 0.666667 0.333334 0.250000
#
# Coordination Sequence:
#
# PCOD8330001 Si02
#       7
#    24  24  24  24  24  24   8
#     4  10  20  32  49  70  92 125 163 202 259 315
#     4   9  18  33  54  77 102 130 166 213 254 294
#     4   9  18  31  51  78 105 134 168 203 252 305
#     4  12  23  31  46  68  94 124 167 211 259 316
#     4   9  18  32  47  64  95 129 158 204 261 312
#     4   9  18  33  54  80 110 139 168 203 247 286
#     4  12  22  35  46  60  94 131 163 213 271 320
#
# _framework density 17.197593000000001
#
# number of rings (size 3 to 8) (size 9 to 14) (size 15 to 20)
#    0.000    2.211    1.579    3.316    2.211    1.579 
#    0.000    0.000    0.000    1.579    0.000    2.211 
#    0.000    0.000    0.000    0.474    0.000    0.000 
#
# Total GULP energy -1884407.648614 kJ/mol
# GULP energy per Si atom -12397.418741 kJ/mol
# Density = 1.715845 g / cm^3
# Si number density = 17.197593 Si / 1000 Ang^3
#
#
#
# Elastic Constant Matrix: (Units=GPa)
#
#
# Indices 1 2 3 4 5 6 
#
# 1 78.5644 45.6316 50.2902 0.0000 0.0001 0.0001
# 2 45.6316 78.5635 50.2892 0.0000 0.0000 -0.0001
# 3 50.2902 50.2892 129.4508 0.0000 0.0000 -0.0003
# 4 0.0000 0.0000 0.0000 19.0707 0.0000 0.0001
# 5 0.0001 0.0000 0.0000 0.0000 19.0707 0.0000
# 6 0.0001 -0.0001 -0.0003 0.0001 0.0000 16.4674
#
#
#
# Elastic Compliance Matrix: (Units=1/GPa)
#
#
# Indices 1 2 3 4 5 6 
#
# 1 0.021057 -0.009309 -0.004564 0.000000 0.000000 0.000000
# 2 -0.009309 0.021057 -0.004564 0.000000 0.000000 0.000000
# 3 -0.004564 -0.004564 0.011271 0.000000 0.000000 0.000000
# 4 0.000000 0.000000 0.000000 0.052437 0.000000 0.000000
# 5 0.000000 0.000000 0.000000 0.000000 0.052436 0.000000
# 6 0.000000 0.000000 0.000000 0.000000 0.000000 0.060726
#
#
# Mechanical properties :
#
#
# Convention : Reuss Voigt Hill
#
# Bulk Modulus (GPa) = 60.56506 64.33342 62.44924
# Shear Modulus (GPa) = 19.13074 20.27962 19.70518
#
# Velocity S-wave (km/s) = 3.33890 3.43769 3.38865
# Velocity P-wave (km/s) = 7.08223 7.29702 7.19043
#
# Compressibility (1/GPa) = 0.01651117
#
# Stress axis : x y z
#
# Youngs Moduli (GPa) = 47.49121 47.49110 88.72387
#
# Poissons Ratio (x) = 0.44208 0.40493
# Poissons Ratio (y) = 0.44208 0.40491
# Poissons Ratio (z) = 0.21675 0.21674
#
# Static dielectric constant tensor:
#      x y z
#    x 3.061410 0.000000 0.000000 
#    y 0.000000 3.061420 0.000000 
#    z 0.000000 0.000000 3.256170 
# 
# 
# High freq. dielectric constant tensor:
#      x y z
#    x 1.640230 0.000000 0.000000 
#    y 0.000000 1.640230 0.000000 
#    z 0.000000 0.000000 1.673290 
# 
# From -- ./inp_files/4334.got.cif
#   From: 2010.03.12/outbox.cif.g09.slc.cpg/sg193_3_cif.got.tgz:4334.got - 2010.04.01 12:20:39.
