data_PCOD8330443
_publ_section_title
;
Structure prediction by ZEFSAII (Michael W. Deem and Ramdas Pophale) SiO2 
 PCOD8330443
Probable space group: P 63/M M C
;
_chemical_formula_sum "Si O2"
_cell_formula_units_Z 120
_cell_length_a 17.125666
_cell_length_b 17.125666
_cell_length_c 30.559058
_cell_angle_alpha 90.000000
_cell_angle_beta 90.000000
_cell_angle_gamma 120.000000
_cell_volume 7761.855154
_symmetry_space_group_name_H-M "P 63/M M C"
_symmetry_group_IT_number 194
_symmetry_cell_setting 'hexagonal'
loop_
_space_group_symop_operation_xyz
x,y,z
x-y,x,1/2+z
-y,x-y,z
-x,-y,1/2+z
-x+y,-x,z
y,-x+y,1/2+z
x-y,-y,-z
-x,-x+y,-z
y,x,-z
-y,-x,1/2-z
-x+y,y,1/2-z
x,x-y,1/2-z
-x,-y,-z
-x+y,-x,1/2-z
y,-x+y,-z
x,y,1/2-z
x-y,x,-z
-y,x-y,1/2-z
-x+y,y,z
x,x-y,z
-y,-x,z
y,x,1/2+z
x-y,-y,1/2+z
-x,-x+y,1/2+z
loop_
_atom_site_type_symbol
_atom_site_label
_atom_site_fract_x
_atom_site_fract_y
_atom_site_fract_z
Si Si1 0.851753 0.334422 0.013625
Si Si2 0.999755 0.180739 0.700072
Si Si3 0.397845 0.422144 0.068083
Si Si4 0.825096 0.000363 0.951572
Si Si5 0.931024 0.245462 0.625754
O O1 0.826402 0.413201 0.018110
O O2 0.762683 0.237318 0.019617
O O3 0.925812 0.346933 0.050112
O O4 0.896395 0.340576 0.966549
O O5 0.997527 0.209217 0.750000
O O6 0.092978 0.185956 0.688503
O O7 0.987169 0.248791 0.668667
O O8 0.921302 0.078699 0.690866
O O9 0.489838 0.510163 0.079226
O O10 0.344860 0.394969 0.114506
O O11 0.804678 0.902339 0.937028
O O12 0.778869 0.033660 0.917560
O O13 0.932699 0.067302 0.952423
O O14 0.786145 0.000000 0.000000
O O15 0.825383 0.174618 0.633521
#
# Coordination Sequence:
#
# PCOD8330443 Si02
#       5
#    24  24  24  24  24
#     4   9  17  29  45  62  82 110 145 179 211 251
#     4   9  17  29  45  66  93 123 152 178 203 235
#     4   9  19  32  43  60  84 111 139 175 224 265
#     4   9  17  26  36  54  84 120 151 173 194 229
#     4  10  19  29  43  63  84 111 146 181 216 253
#
# _framework density 15.460221000000001
#
# number of rings (size 3 to 8) (size 9 to 14) (size 15 to 20)
#    0.000    2.800    0.000    3.000    2.800    3.200 
#    0.000    2.000    0.000    1.000    0.000    0.000 
#    0.000    0.000    0.000    0.000    0.000    0.000 
#
# Total GULP energy -1487478.339359 kJ/mol
# GULP energy per Si atom -12395.652828 kJ/mol
# Density = 1.542503 g / cm^3
# Si number density = 15.460221 Si / 1000 Ang^3
#
#
#
# Elastic Constant Matrix: (Units=GPa)
#
#
# Indices 1 2 3 4 5 6 
#
# 1 74.1976 38.2922 34.9453 0.0000 0.0000 0.0000
# 2 38.2922 74.1976 34.9453 0.0000 0.0000 0.0000
# 3 34.9453 34.9453 81.0636 0.0000 0.0000 0.0000
# 4 0.0000 0.0000 0.0000 23.0440 0.0000 0.0000
# 5 0.0000 0.0000 0.0000 0.0000 23.0440 0.0000
# 6 0.0000 0.0000 0.0000 0.0000 0.0000 17.9527
#
#
#
# Elastic Compliance Matrix: (Units=1/GPa)
#
#
# Indices 1 2 3 4 5 6 
#
# 1 0.019996 -0.007855 -0.005234 0.000000 0.000000 0.000000
# 2 -0.007855 0.019996 -0.005234 0.000000 0.000000 0.000000
# 3 -0.005234 -0.005234 0.016849 0.000000 0.000000 0.000000
# 4 0.000000 0.000000 0.000000 0.043395 0.000000 0.000000
# 5 0.000000 0.000000 0.000000 0.000000 0.043395 0.000000
# 6 0.000000 0.000000 0.000000 0.000000 0.000000 0.055702
#
#
# Mechanical properties :
#
#
# Convention : Reuss Voigt Hill
#
# Bulk Modulus (GPa) = 49.51565 49.53606 49.52585
# Shear Modulus (GPa) = 20.60059 20.89319 20.74689
#
# Velocity S-wave (km/s) = 3.65429 3.68015 3.66724
# Velocity P-wave (km/s) = 7.06416 7.08297 7.07358
#
# Compressibility (1/GPa) = 0.02019564
#
# Stress axis : x y z
#
# Youngs Moduli (GPa) = 50.00918 50.00918 59.35182
#
# Poissons Ratio (x) = 0.39281 0.31065
# Poissons Ratio (y) = 0.39281 0.31065
# Poissons Ratio (z) = 0.26175 0.26175
#
# Static dielectric constant tensor:
#      x y z
#    x 2.931960 0.000000 0.000000 
#    y 0.000000 2.931960 0.000000 
#    z 0.000000 0.000000 2.886900 
# 
# 
# High freq. dielectric constant tensor:
#      x y z
#    x 1.583960 0.000000 0.000000 
#    y 0.000000 1.583960 0.000000 
#    z 0.000000 0.000000 1.568410 
# 
# From -- ./inp_files/11888.got.cif
#   From: 2010.03.12/outbox.cif.g09.slc.cpg/sg194_6_cif.got.tgz:11888.got - 2010.04.01 12:26:19.
