data_PCOD8330881
_publ_section_title
;
Structure prediction by ZEFSAII (Michael W. Deem and Ramdas Pophale) SiO2 
 PCOD8330881
Probable space group: I 2 3
;
_chemical_formula_sum "Si O2"
_cell_formula_units_Z 120
_cell_length_a 17.795845
_cell_length_b 17.795845
_cell_length_c 17.795845
_cell_angle_alpha 90.000000
_cell_angle_beta 90.000000
_cell_angle_gamma 90.000000
_cell_volume 5635.803511
_symmetry_space_group_name_H-M "I 2 3"
_symmetry_group_IT_number 197
_symmetry_cell_setting 'cubic'
loop_
_space_group_symop_operation_xyz
x,y,z
z,x,y
y,z,x
-y,-z,x
z,-x,-y
-y,z,-x
-z,-x,y
-z,x,-y
y,-z,-x
-x,-y,z
x,-y,-z
-x,y,-z
1/2+x,1/2+y,1/2+z
1/2+z,1/2+x,1/2+y
1/2+y,1/2+z,1/2+x
1/2-y,1/2-z,1/2+x
1/2+z,1/2-x,1/2-y
1/2-y,1/2+z,1/2-x
1/2-z,1/2-x,1/2+y
1/2-z,1/2+x,1/2-y
1/2+y,1/2-z,1/2-x
1/2-x,1/2-y,1/2+z
1/2+x,1/2-y,1/2-z
1/2-x,1/2+y,1/2-z
loop_
_atom_site_type_symbol
_atom_site_label
_atom_site_fract_x
_atom_site_fract_y
_atom_site_fract_z
Si Si1 0.394327 0.270175 0.833212
Si Si2 0.327874 0.867003 0.080974
Si Si3 0.939459 0.938617 0.822987
Si Si4 0.684372 0.078083 0.536719
Si Si5 0.698720 0.579784 0.830183
O O1 0.340866 0.211139 0.876086
O O2 0.476271 0.275754 0.869052
O O3 0.407155 0.245528 0.746974
O O4 0.354648 0.349627 0.840859
O O5 0.247800 0.902178 0.102981
O O6 0.389376 0.927943 0.107594
O O7 0.327036 0.856037 0.991585
O O8 0.873504 0.977929 0.873007
O O9 0.000000 0.000000 0.797536
O O10 0.745612 0.066252 0.601001
O O11 0.660863 0.000000 0.500000
#
# Coordination Sequence:
#
# PCOD8330881 Si02
#       5
#    24  24  24  24  24
#     4  11  25  44  71 100 142 181 233 293 366 425
#     4  11  26  44  69 106 136 186 240 293 359 434
#     4  10  25  43  72 100 145 189 240 292 358 436
#     4  11  25  46  70  99 141 187 232 298 365 429
#     4  11  25  43  73  99 142 181 238 289 362 432
#
# _framework density 21.292438000000001
#
# number of rings (size 3 to 8) (size 9 to 14) (size 15 to 20)
#    0.400    0.800    2.000    2.000   14.000    0.000 
#    0.000    1.000    0.000    0.000    0.000    0.000 
#    0.000    0.000    0.000    0.000    0.000    0.000 
#
# Total GULP energy -744030.073712 kJ/mol
# GULP energy per Si atom -12400.501229 kJ/mol
# Density = 2.124398 g / cm^3
# Si number density = 21.292438 Si / 1000 Ang^3
#
#
#
# Elastic Constant Matrix: (Units=GPa)
#
#
# Indices 1 2 3 4 5 6 
#
# 1 105.1868 35.0651 35.0651 0.0000 0.0000 0.0000
# 2 35.0651 105.1868 35.0651 0.0000 0.0000 0.0000
# 3 35.0651 35.0651 105.1868 0.0000 0.0000 0.0000
# 4 0.0000 0.0000 0.0000 32.1653 0.0000 0.0000
# 5 0.0000 0.0000 0.0000 0.0000 32.1653 0.0000
# 6 0.0000 0.0000 0.0000 0.0000 0.0000 32.1653
#
#
#
# Elastic Compliance Matrix: (Units=1/GPa)
#
#
# Indices 1 2 3 4 5 6 
#
# 1 0.011409 -0.002852 -0.002852 0.000000 0.000000 0.000000
# 2 -0.002852 0.011409 -0.002852 0.000000 0.000000 0.000000
# 3 -0.002852 -0.002852 0.011409 0.000000 0.000000 0.000000
# 4 0.000000 0.000000 0.000000 0.031089 0.000000 0.000000
# 5 0.000000 0.000000 0.000000 0.000000 0.031089 0.000000
# 6 0.000000 0.000000 0.000000 0.000000 0.000000 0.031089
#
#
# Mechanical properties :
#
#
# Convention : Reuss Voigt Hill
#
# Bulk Modulus (GPa) = 58.43900 58.43900 58.43900
# Shear Modulus (GPa) = 33.26415 33.32351 33.29383
#
# Velocity S-wave (km/s) = 3.95682 3.96035 3.95859
# Velocity P-wave (km/s) = 6.95563 6.95830 6.95696
#
# Compressibility (1/GPa) = 0.01711186
#
# Stress axis : x y z
#
# Youngs Moduli (GPa) = 87.65318 87.65318 87.65318
#
# Poissons Ratio (x) = 0.25002 0.25002
# Poissons Ratio (y) = 0.25002 0.25002
# Poissons Ratio (z) = 0.25002 0.25002
#
# Static dielectric constant tensor:
#      x y z
#    x 3.883030 0.000000 0.000000 
#    y 0.000000 3.883030 0.000000 
#    z 0.000000 0.000000 3.883030 
# 
# 
# High freq. dielectric constant tensor:
#      x y z
#    x 1.840060 0.000000 0.000000 
#    y 0.000000 1.840060 0.000000 
#    z 0.000000 0.000000 1.840060 
# 
# From -- ./inp_files/594.got.cif
#   From: 2010.03.12/outbox.cif.g09.slc.cpg/sg197_cif.got.tgz:594.got - 2010.04.01 12:33:32.
