data_PCOD8330564
_publ_section_title
;
Structure prediction by ZEFSAII (Michael W. Deem and Ramdas Pophale) SiO2 
 PCOD8330564
Probable space group: P 63/M M C
;
_chemical_formula_sum "Si O2"
_cell_formula_units_Z 168
_cell_length_a 20.791648
_cell_length_b 20.791648
_cell_length_c 26.665700
_cell_angle_alpha 90.000000
_cell_angle_beta 90.000000
_cell_angle_gamma 120.000000
_cell_volume 9983.008675
_symmetry_space_group_name_H-M "P 63/M M C"
_symmetry_group_IT_number 194
_symmetry_cell_setting 'hexagonal'
loop_
_space_group_symop_operation_xyz
x,y,z
x-y,x,1/2+z
-y,x-y,z
-x,-y,1/2+z
-x+y,-x,z
y,-x+y,1/2+z
x-y,-y,-z
-x,-x+y,-z
y,x,-z
-y,-x,1/2-z
-x+y,y,1/2-z
x,x-y,1/2-z
-x,-y,-z
-x+y,-x,1/2-z
y,-x+y,-z
x,y,1/2-z
x-y,x,-z
-y,x-y,1/2-z
-x+y,y,z
x,x-y,z
-y,-x,z
y,x,1/2+z
x-y,-y,1/2+z
-x,-x+y,1/2+z
loop_
_atom_site_type_symbol
_atom_site_label
_atom_site_fract_x
_atom_site_fract_y
_atom_site_fract_z
Si Si1 0.485482 0.666736 0.001369
Si Si2 0.453826 0.299167 0.194278
Si Si3 0.209905 0.277598 0.122471
Si Si4 0.858940 0.859379 0.446442
Si Si5 0.380869 0.474011 0.905292
Si Si6 0.619497 0.956509 0.449330
Si Si7 0.278424 0.068478 0.306796
O O1 0.487228 0.743614 0.014237
O O2 0.401407 0.598594 0.006974
O O3 0.538442 0.652003 0.038589
O O4 0.517545 0.673427 0.944987
O O5 0.477004 0.336031 0.250000
O O6 0.485073 0.242537 0.186946
O O7 0.485764 0.360711 0.150951
O O8 0.366175 0.254346 0.189386
O O9 0.150469 0.300938 0.142749
O O10 0.165881 0.199233 0.096756
O O11 0.260812 0.336822 0.080945
O O12 0.251866 0.262047 0.166804
O O13 0.821642 0.821642 0.500000
O O14 0.896177 0.948089 0.454301
O O15 0.918715 0.837430 0.429003
O O16 0.463445 0.536556 0.918142
O O17 0.382872 0.398457 0.911633
O O18 0.661740 0.000000 0.500000
O O19 0.250591 0.049100 0.250000
O O20 0.251633 0.125817 0.328063
#
# Coordination Sequence:
#
# PCOD8330564 Si02
#       7
#    24  24  24  24  24  24  24
#     4  10  20  34  52  73  99 132 169 204 239 286
#     4   9  17  31  51  74  99 126 161 200 237 286
#     4  11  20  30  46  69  95 123 158 203 247 286
#     4   9  17  28  41  59  85 118 153 189 232 282
#     4  10  19  32  51  74 101 131 163 201 246 292
#     4  10  20  34  48  69  99 133 166 200 244 291
#     4   9  18  33  51  69  91 122 160 200 243 294
#
# _framework density 16.828593999999999
#
# number of rings (size 3 to 8) (size 9 to 14) (size 15 to 20)
#    0.000    2.286    1.429    3.286    0.000    2.857 
#    0.000    1.429    0.000    0.571    0.000    0.000 
#    0.000    0.000    0.000    0.000    0.000   10.143 
#
# Total GULP energy -2081342.724852 kJ/mol
# GULP energy per Si atom -12388.944791 kJ/mol
# Density = 1.679029 g / cm^3
# Si number density = 16.828594 Si / 1000 Ang^3
#
#
#
# Elastic Constant Matrix: (Units=GPa)
#
#
# Indices 1 2 3 4 5 6 
#
# 1 69.0705 21.5803 18.6690 0.0000 0.0000 0.0000
# 2 21.5803 69.0705 18.6690 0.0000 0.0000 0.0000
# 3 18.6690 18.6690 66.6330 0.0000 0.0000 0.0000
# 4 0.0000 0.0000 0.0000 24.5335 0.0000 0.0000
# 5 0.0000 0.0000 0.0000 0.0000 24.5335 0.0000
# 6 0.0000 0.0000 0.0000 0.0000 0.0000 23.7451
#
#
#
# Elastic Compliance Matrix: (Units=1/GPa)
#
#
# Indices 1 2 3 4 5 6 
#
# 1 0.016764 -0.004293 -0.003494 0.000000 0.000000 0.000000
# 2 -0.004293 0.016764 -0.003494 0.000000 0.000000 0.000000
# 3 -0.003494 -0.003494 0.016965 0.000000 0.000000 0.000000
# 4 0.000000 0.000000 0.000000 0.040761 0.000000 0.000000
# 5 0.000000 0.000000 0.000000 0.000000 0.040761 0.000000
# 6 0.000000 0.000000 0.000000 0.000000 0.000000 0.042114
#
#
# Mechanical properties :
#
#
# Convention : Reuss Voigt Hill
#
# Bulk Modulus (GPa) = 35.80303 35.84563 35.82433
# Shear Modulus (GPa) = 24.27179 24.28612 24.27896
#
# Velocity S-wave (km/s) = 3.80188 3.80300 3.80244
# Velocity P-wave (km/s) = 6.37131 6.37420 6.37276
#
# Compressibility (1/GPa) = 0.02793060
#
# Stress axis : x y z
#
# Youngs Moduli (GPa) = 59.65262 59.65262 58.94339
#
# Poissons Ratio (x) = 0.25610 0.20594
# Poissons Ratio (y) = 0.25610 0.20594
# Poissons Ratio (z) = 0.20842 0.20842
#
# Static dielectric constant tensor:
#      x y z
#    x 2.701260 0.000000 0.000000 
#    y 0.000000 2.701260 0.000000 
#    z 0.000000 0.000000 3.201840 
# 
# 
# High freq. dielectric constant tensor:
#      x y z
#    x 1.642410 0.000000 0.000000 
#    y 0.000000 1.642410 0.000000 
#    z 0.000000 0.000000 1.638100 
# 
# From -- ./inp_files/9861.got.cif
#   From: 2010.03.12/outbox.cif.g09.slc.cpg/sg194_5_cif.got.tgz:9861.got - 2010.04.01 12:26:19.
