data_PCOD8330575
_publ_section_title
;
Structure prediction by ZEFSAII (Michael W. Deem and Ramdas Pophale) SiO2 
 PCOD8330575
Probable space group: P 63/M M C
;
_chemical_formula_sum "Si O2"
_cell_formula_units_Z 136
_cell_length_a 17.366034
_cell_length_b 17.366034
_cell_length_c 27.443371
_cell_angle_alpha 90.000000
_cell_angle_beta 90.000000
_cell_angle_gamma 120.000000
_cell_volume 7167.527739
_symmetry_space_group_name_H-M "P 63/M M C"
_symmetry_group_IT_number 194
_symmetry_cell_setting 'hexagonal'
loop_
_space_group_symop_operation_xyz
x,y,z
x-y,x,1/2+z
-y,x-y,z
-x,-y,1/2+z
-x+y,-x,z
y,-x+y,1/2+z
x-y,-y,-z
-x,-x+y,-z
y,x,-z
-y,-x,1/2-z
-x+y,y,1/2-z
x,x-y,1/2-z
-x,-y,-z
-x+y,-x,1/2-z
y,-x+y,-z
x,y,1/2-z
x-y,x,-z
-y,x-y,1/2-z
-x+y,y,z
x,x-y,z
-y,-x,z
y,x,1/2+z
x-y,-y,1/2+z
-x,-x+y,1/2+z
loop_
_atom_site_type_symbol
_atom_site_label
_atom_site_fract_x
_atom_site_fract_y
_atom_site_fract_z
Si Si1 0.364935 0.021063 0.694736
Si Si2 0.567709 0.135418 0.692917
Si Si3 0.333334 0.666668 0.191437
Si Si4 0.331159 0.842383 0.462618
Si Si5 0.750919 0.076305 0.900225
Si Si6 0.153506 0.667516 0.847370
Si Si7 0.899393 0.621676 0.444424
O O1 0.348197 0.041691 0.750000
O O2 0.465928 0.081028 0.677377
O O3 0.309957 0.045972 0.656571
O O4 0.337833 0.918058 0.691704
O O5 0.574499 0.148998 0.750000
O O6 0.616860 0.233720 0.669217
O O7 0.333334 0.666667 0.250000
O O8 0.428452 0.856904 0.455291
O O9 0.261049 0.738952 0.474058
O O10 0.304115 0.873848 0.413535
O O11 0.330604 0.903574 0.506783
O O12 0.856243 0.143758 0.909136
O O13 0.714540 0.990352 0.935105
O O14 0.165800 0.582900 0.843298
O O15 0.246619 0.753382 0.834733
O O16 0.119386 0.671910 0.901010
O O17 0.824385 0.648770 0.448832
#
# Coordination Sequence:
#
# PCOD8330575 Si02
#       7
#    24  12   4  24  24  24  24
#     4  10  21  36  51  68  98 139 177 215 261 312
#     4   9  18  32  48  64  89 123 167 213 252 296
#     4   9  18  30  48  72  84 111 171 225 255 294
#     4  10  20  34  52  77 109 144 178 212 250 295
#     4  10  22  35  52  78 103 131 171 217 264 312
#     4  10  19  32  51  77 105 136 176 218 262 310
#     4   9  19  35  55  76 103 138 172 210 259 315
#
# _framework density 18.974464999999999
#
# number of rings (size 3 to 8) (size 9 to 14) (size 15 to 20)
#    0.000    2.294    0.882    1.412    2.471    2.824 
#    0.000    1.765    0.000    1.412    0.000    0.000 
#    0.000    4.235    0.000    0.529    0.000    0.000 
#
# Total GULP energy -1686070.546817 kJ/mol
# GULP energy per Si atom -12397.577550 kJ/mol
# Density = 1.893128 g / cm^3
# Si number density = 18.974465 Si / 1000 Ang^3
#
#
#
# Elastic Constant Matrix: (Units=GPa)
#
#
# Indices 1 2 3 4 5 6 
#
# 1 99.3051 34.9468 14.5562 0.0000 0.0000 -0.0002
# 2 34.9468 99.3051 14.5561 0.0000 0.0000 0.0002
# 3 14.5562 14.5561 77.2242 0.0000 0.0000 0.0000
# 4 0.0000 0.0000 0.0000 18.7430 0.0000 0.0000
# 5 0.0000 0.0000 0.0000 0.0000 18.7430 0.0000
# 6 -0.0002 0.0002 0.0000 0.0000 0.0000 32.1795
#
#
#
# Elastic Compliance Matrix: (Units=1/GPa)
#
#
# Indices 1 2 3 4 5 6 
#
# 1 0.011652 -0.003886 -0.001464 0.000000 0.000000 0.000000
# 2 -0.003886 0.011652 -0.001464 0.000000 0.000000 0.000000
# 3 -0.001464 -0.001464 0.013501 0.000000 0.000000 0.000000
# 4 0.000000 0.000000 0.000000 0.053353 0.000000 0.000000
# 5 0.000000 0.000000 0.000000 0.000000 0.053353 0.000000
# 6 0.000000 0.000000 0.000000 0.000000 0.000000 0.031076
#
#
# Mechanical properties :
#
#
# Convention : Reuss Voigt Hill
#
# Bulk Modulus (GPa) = 43.14439 44.88363 44.01401
# Shear Modulus (GPa) = 25.51792 28.05146 26.78469
#
# Velocity S-wave (km/s) = 3.67121 3.84914 3.76123
# Velocity P-wave (km/s) = 6.38419 6.59247 6.48916
#
# Compressibility (1/GPa) = 0.02317798
#
# Stress axis : x y z
#
# Youngs Moduli (GPa) = 85.82165 85.82167 74.06770
#
# Poissons Ratio (x) = 0.33350 0.10842
# Poissons Ratio (y) = 0.33350 0.10842
# Poissons Ratio (z) = 0.12563 0.12563
#
# Static dielectric constant tensor:
#      x y z
#    x 3.339910 0.000010 0.000000 
#    y 0.000010 3.339930 0.000000 
#    z 0.000000 0.000000 3.453220 
# 
# 
# High freq. dielectric constant tensor:
#      x y z
#    x 1.719590 0.000000 0.000000 
#    y 0.000000 1.719590 0.000000 
#    z 0.000000 0.000000 1.743210 
# 
# From -- ./inp_files/10859.got.cif
#   From: 2010.03.12/outbox.cif.g09.slc.cpg/sg194_6_cif.got.tgz:10859.got - 2010.04.01 12:26:19.
