data_PCOD8330987
_publ_section_title
;
Structure prediction by ZEFSAII (Michael W. Deem and Ramdas Pophale) SiO2 
 PCOD8330987
Probable space group: P 42 3 2
;
_chemical_formula_sum "Si O2"
_cell_formula_units_Z 52
_cell_length_a 13.439276
_cell_length_b 13.439276
_cell_length_c 13.439276
_cell_angle_alpha 90.000000
_cell_angle_beta 90.000000
_cell_angle_gamma 90.000000
_cell_volume 2427.323269
_symmetry_space_group_name_H-M "P 42 3 2"
_symmetry_group_IT_number 208
_symmetry_cell_setting 'cubic'
loop_
_space_group_symop_operation_xyz
x,y,z
1/2-y,1/2+x,1/2+z
-x,-y,z
1/2+y,1/2-x,1/2+z
1/2+x,1/2-z,1/2+y
x,-y,-z
1/2+x,1/2+z,1/2-y
1/2+z,1/2+y,1/2-x
-x,y,-z
1/2-z,1/2+y,1/2+x
z,x,y
y,z,x
-y,-z,x
z,-x,-y
-y,z,-x
-z,-x,y
-z,x,-y
y,-z,-x
1/2+y,1/2+x,1/2-z
1/2-y,1/2-x,1/2-z
1/2-x,1/2+z,1/2+y
1/2-x,1/2-z,1/2-y
1/2+z,1/2-y,1/2+x
1/2-z,1/2-y,1/2-x
loop_
_atom_site_type_symbol
_atom_site_label
_atom_site_fract_x
_atom_site_fract_y
_atom_site_fract_z
Si Si1 0.865619 0.865618 0.865618
Si Si2 0.944558 0.843384 0.652270
Si Si3 0.000000 0.000000 0.000000
Si Si4 0.000000 0.000000 0.500000
Si Si5 0.340373 0.840373 0.750000
O O1 0.897242 0.885071 0.752574
O O2 0.932729 0.932729 0.932729
O O3 0.881093 0.750000 0.618908
O O4 0.932335 0.929598 0.569698
O O5 0.058923 0.812857 0.666890
O O6 0.250000 0.830102 0.669899
#
# Coordination Sequence:
#
# PCOD8330987 Si02
#       5
#     8  24   2   6  12
#     4  12  31  46  78 105 154 190 252 319 395 472
#     4  12  25  50  68 111 143 194 248 311 378 452
#     4  12  30  52  76 106 148 192 246 316 404 478
#     4  12  24  44  78  96 148 190 252 296 374 456
#     4  10  25  42  74 103 146 188 252 308 368 455
#
# _framework density 21.422775999999999
#
# number of rings (size 3 to 8) (size 9 to 14) (size 15 to 20)
#    0.462    0.000    4.615    2.769   12.923    0.000 
#    0.000    3.462    0.000    0.000    0.000    0.000 
#    0.000    0.000    0.000    0.000    0.000    0.000 
#
# Total GULP energy -644952.121635 kJ/mol
# GULP energy per Si atom -12402.925416 kJ/mol
# Density = 2.137402 g / cm^3
# Si number density = 21.422776 Si / 1000 Ang^3
#
#
#
# Elastic Constant Matrix: (Units=GPa)
#
#
# Indices 1 2 3 4 5 6 
#
# 1 143.6787 60.7168 60.7170 0.0000 0.0000 0.0000
# 2 60.7168 143.6787 60.7170 0.0000 0.0000 0.0000
# 3 60.7170 60.7170 143.6796 0.0000 0.0000 0.0000
# 4 0.0000 0.0000 0.0000 32.8490 0.0000 0.0000
# 5 0.0000 0.0000 0.0000 0.0000 32.8490 0.0000
# 6 0.0000 0.0000 0.0000 0.0000 0.0000 32.8494
#
#
#
# Elastic Compliance Matrix: (Units=1/GPa)
#
#
# Indices 1 2 3 4 5 6 
#
# 1 0.009293 -0.002761 -0.002761 0.000000 0.000000 0.000000
# 2 -0.002761 0.009293 -0.002761 0.000000 0.000000 0.000000
# 3 -0.002761 -0.002761 0.009293 0.000000 0.000000 0.000000
# 4 0.000000 0.000000 0.000000 0.030442 0.000000 0.000000
# 5 0.000000 0.000000 0.000000 0.000000 0.030442 0.000000
# 6 0.000000 0.000000 0.000000 0.000000 0.000000 0.030442
#
#
# Mechanical properties :
#
#
# Convention : Reuss Voigt Hill
#
# Bulk Modulus (GPa) = 88.37094 88.37094 88.37094
# Shear Modulus (GPa) = 35.83167 36.30191 36.06679
#
# Velocity S-wave (km/s) = 4.09418 4.12095 4.10759
# Velocity P-wave (km/s) = 7.98061 7.99897 7.98980
#
# Compressibility (1/GPa) = 0.01131594
#
# Stress axis : x y z
#
# Youngs Moduli (GPa) = 107.60619 107.60619 107.60690
#
# Poissons Ratio (x) = 0.29706 0.29706
# Poissons Ratio (y) = 0.29706 0.29706
# Poissons Ratio (z) = 0.29705 0.29705
#
# Static dielectric constant tensor:
#      x y z
#    x 3.982640 0.000000 0.000000 
#    y 0.000000 3.982640 0.000000 
#    z 0.000000 0.000000 3.982630 
# 
# 
# High freq. dielectric constant tensor:
#      x y z
#    x 1.849170 0.000000 0.000000 
#    y 0.000000 1.849170 0.000000 
#    z 0.000000 0.000000 1.849170 
# 
# From -- ./inp_files/431.got.cif
#   From: 2010.03.12/outbox.cif.g09.slc.cpg/sg208_cif.got.tgz:431.got - 2010.03.30 09:03:42.
