data_PCOD8330777
_publ_section_title
;
Structure prediction by ZEFSAII (Michael W. Deem and Ramdas Pophale) SiO2 
 PCOD8330777
Probable space group: P 63/M M C
;
_chemical_formula_sum "Si O2"
_cell_formula_units_Z 168
_cell_length_a 18.294926
_cell_length_b 18.294926
_cell_length_c 28.284862
_cell_angle_alpha 90.000000
_cell_angle_beta 90.000000
_cell_angle_gamma 120.000000
_cell_volume 8198.719159
_symmetry_space_group_name_H-M "P 63/M M C"
_symmetry_group_IT_number 194
_symmetry_cell_setting 'hexagonal'
loop_
_space_group_symop_operation_xyz
x,y,z
x-y,x,1/2+z
-y,x-y,z
-x,-y,1/2+z
-x+y,-x,z
y,-x+y,1/2+z
x-y,-y,-z
-x,-x+y,-z
y,x,-z
-y,-x,1/2-z
-x+y,y,1/2-z
x,x-y,1/2-z
-x,-y,-z
-x+y,-x,1/2-z
y,-x+y,-z
x,y,1/2-z
x-y,x,-z
-y,x-y,1/2-z
-x+y,y,z
x,x-y,z
-y,-x,z
y,x,1/2+z
x-y,-y,1/2+z
-x,-x+y,1/2+z
loop_
_atom_site_type_symbol
_atom_site_label
_atom_site_fract_x
_atom_site_fract_y
_atom_site_fract_z
Si Si1 0.305877 0.860028 0.053087
Si Si2 0.337213 0.501868 0.954015
Si Si3 0.248716 0.207523 0.549515
Si Si4 0.348325 0.258413 0.111388
Si Si5 0.333334 0.014984 0.803734
Si Si6 0.496736 0.335494 0.654790
Si Si7 0.841054 0.840586 0.805449
O O1 0.237041 0.762960 0.058427
O O2 0.263491 0.915574 0.042011
O O3 0.355294 0.882895 0.102869
O O4 0.362548 0.867945 0.007980
O O5 0.258741 0.517481 0.951488
O O6 0.418305 0.581696 0.930752
O O7 0.315742 0.415839 0.927920
O O8 0.202914 0.202914 0.500000
O O9 0.223752 0.111876 0.564526
O O10 0.224977 0.253264 0.590993
O O11 0.356951 0.178476 0.125254
O O12 0.374721 0.318590 0.157819
O O13 0.327886 0.982024 0.750000
O O14 0.421951 0.100649 0.809825
O O15 0.256299 0.030529 0.816096
O O16 0.506969 0.253485 0.656636
O O17 0.584014 0.415987 0.671500
O O18 0.851819 0.854087 0.750000
O O19 0.814419 0.907210 0.826349
O O20 0.930061 0.860121 0.828047
#
# Coordination Sequence:
#
# PCOD8330777 Si02
#       7
#    24  24  24  24  24  24  24
#     4   9  18  34  58  89 124 157 192 234 287 350
#     4  10  20  36  60  92 126 157 192 237 294 360
#     4  11  20  36  60  89 124 164 206 245 291 352
#     4  11  23  40  62  88 118 157 202 249 306 365
#     4  11  24  41  60  83 114 154 203 258 311 359
#     4  11  23  40  62  90 124 162 201 244 296 358
#     4   9  17  31  54  83 111 138 173 224 288 353
#
# _framework density 20.491005999999999
#
# number of rings (size 3 to 8) (size 9 to 14) (size 15 to 20)
#    0.000    1.714    2.857    2.143    0.000    3.714 
#    0.000    2.143    0.000    3.429    0.000    0.000 
#    0.000    1.143    0.000    0.000    0.000    0.000 
#
# Total GULP energy -2082048.844443 kJ/mol
# GULP energy per Si atom -12393.147884 kJ/mol
# Density = 2.044437 g / cm^3
# Si number density = 20.491006 Si / 1000 Ang^3
#
#
#
# Elastic Constant Matrix: (Units=GPa)
#
#
# Indices 1 2 3 4 5 6 
#
# 1 97.1695 43.5499 31.4834 0.0000 0.0000 0.0000
# 2 43.5499 97.1695 31.4834 0.0000 0.0000 0.0000
# 3 31.4834 31.4834 101.8542 0.0000 0.0000 0.0000
# 4 0.0000 0.0000 0.0000 18.7936 0.0000 0.0000
# 5 0.0000 0.0000 0.0000 0.0000 18.7936 0.0000
# 6 0.0000 0.0000 0.0000 0.0000 0.0000 26.8098
#
#
#
# Elastic Compliance Matrix: (Units=1/GPa)
#
#
# Indices 1 2 3 4 5 6 
#
# 1 0.013448 -0.005201 -0.002549 0.000000 0.000000 0.000000
# 2 -0.005201 0.013448 -0.002549 0.000000 0.000000 0.000000
# 3 -0.002549 -0.002549 0.011394 0.000000 0.000000 0.000000
# 4 0.000000 0.000000 0.000000 0.053210 0.000000 0.000000
# 5 0.000000 0.000000 0.000000 0.000000 0.053210 0.000000
# 6 0.000000 0.000000 0.000000 0.000000 0.000000 0.037300
#
#
# Mechanical properties :
#
#
# Convention : Reuss Voigt Hill
#
# Bulk Modulus (GPa) = 56.52532 56.58074 56.55303
# Shear Modulus (GPa) = 23.98004 25.52447 24.75226
#
# Velocity S-wave (km/s) = 3.42463 3.53320 3.47934
# Velocity P-wave (km/s) = 6.57897 6.65710 6.61815
#
# Compressibility (1/GPa) = 0.01769119
#
# Stress axis : x y z
#
# Youngs Moduli (GPa) = 74.35797 74.35797 87.76649
#
# Poissons Ratio (x) = 0.38677 0.22373
# Poissons Ratio (y) = 0.38677 0.22373
# Poissons Ratio (z) = 0.18955 0.18955
#
# Static dielectric constant tensor:
#      x y z
#    x 3.674890 0.000000 0.000000 
#    y 0.000000 3.674890 0.000000 
#    z 0.000000 0.000000 3.822110 
# 
# 
# High freq. dielectric constant tensor:
#      x y z
#    x 1.790070 0.000000 0.000000 
#    y 0.000000 1.790070 0.000000 
#    z 0.000000 0.000000 1.796200 
# 
# From -- ./inp_files/12261.got.cif
#   From: 2010.03.12/outbox.cif.g09.slc.cpg/sg194_7_cif.got.tgz:12261.got - 2010.04.01 12:26:19.
