data_PCOD8330205
_publ_section_title
;
Structure prediction by ZEFSAII (Michael W. Deem and Ramdas Pophale) SiO2 
 PCOD8330205
Probable space group: P 63/M C M
;
_chemical_formula_sum "Si O2"
_cell_formula_units_Z 96
_cell_length_a 17.473089
_cell_length_b 17.473089
_cell_length_c 18.433746
_cell_angle_alpha 90.000000
_cell_angle_beta 90.000000
_cell_angle_gamma 120.000000
_cell_volume 4873.978496
_symmetry_space_group_name_H-M "P 63/M C M"
_symmetry_group_IT_number 193
_symmetry_cell_setting 'hexagonal'
loop_
_space_group_symop_operation_xyz
x,y,z
x-y,x,1/2+z
-y,x-y,z
-x,-y,1/2+z
-x+y,-x,z
y,-x+y,1/2+z
x-y,-y,1/2-z
-x,-x+y,1/2-z
y,x,1/2-z
-y,-x,-z
-x+y,y,-z
x,x-y,-z
-x,-y,-z
-x+y,-x,1/2-z
y,-x+y,-z
x,y,1/2-z
x-y,x,-z
-y,x-y,1/2-z
-x+y,y,1/2+z
x,x-y,1/2+z
-y,-x,1/2+z
y,x,z
x-y,-y,z
-x,-x+y,z
loop_
_atom_site_type_symbol
_atom_site_label
_atom_site_fract_x
_atom_site_fract_y
_atom_site_fract_z
Si Si1 0.493982 0.595090 0.930268
Si Si2 0.899774 0.100999 0.165767
Si Si3 0.101462 0.644404 0.831198
Si Si4 0.821156 0.200452 0.917485
O O1 0.563586 0.563586 0.949049
O O2 0.437447 0.548620 0.858651
O O3 0.549140 0.697231 0.911014
O O4 0.428620 0.571381 0.000000
O O5 0.895287 0.120502 0.250000
O O6 0.828241 0.118020 0.125999
O O7 0.000000 0.163697 0.136694
O O8 0.874110 0.000000 0.152925
O O9 0.141469 0.670065 0.750000
O O10 0.149941 0.722911 0.887284
O O11 0.000000 0.619465 0.830258
O O12 0.824696 0.175305 0.000000
#
# Coordination Sequence:
#
# PCOD8330205 Si02
#       4
#    24  24  24  24
#     4  10  21  40  62  85 117 156 199 248 305 364
#     4  10  22  40  62  90 127 169 212 260 315 375
#     4  10  22  41  63  87 121 163 203 250 310 371
#     4  12  23  37  62  93 122 159 205 258 308 377
#
# _framework density 19.696434
#
# number of rings (size 3 to 8) (size 9 to 14) (size 15 to 20)
#    0.000    1.500    2.500    2.500    0.000    8.000 
#    1.500    3.750    0.000    1.500    0.000    0.000 
#    0.000    0.000    0.000    0.000    0.000    0.000 
#
# Total GULP energy -1190560.141626 kJ/mol
# GULP energy per Si atom -12401.668142 kJ/mol
# Density = 1.965160 g / cm^3
# Si number density = 19.696434 Si / 1000 Ang^3
#
#
#
# Elastic Constant Matrix: (Units=GPa)
#
#
# Indices 1 2 3 4 5 6 
#
# 1 107.1686 55.1375 52.1144 0.0000 0.0000 0.0000
# 2 55.1375 107.1686 52.1144 0.0000 0.0000 0.0000
# 3 52.1144 52.1144 109.6979 0.0000 0.0000 0.0000
# 4 0.0000 0.0000 0.0000 31.3118 0.0000 0.0000
# 5 0.0000 0.0000 0.0000 0.0000 31.3118 0.0000
# 6 0.0000 0.0000 0.0000 0.0000 0.0000 26.0155
#
#
#
# Elastic Compliance Matrix: (Units=1/GPa)
#
#
# Indices 1 2 3 4 5 6 
#
# 1 0.014043 -0.005177 -0.004212 0.000000 0.000000 0.000000
# 2 -0.005177 0.014043 -0.004212 0.000000 0.000000 0.000000
# 3 -0.004212 -0.004212 0.013118 0.000000 0.000000 0.000000
# 4 0.000000 0.000000 0.000000 0.031937 0.000000 0.000000
# 5 0.000000 0.000000 0.000000 0.000000 0.031937 0.000000
# 6 0.000000 0.000000 0.000000 0.000000 0.000000 0.038439
#
#
# Mechanical properties :
#
#
# Convention : Reuss Voigt Hill
#
# Bulk Modulus (GPa) = 71.41834 71.41865 71.41850
# Shear Modulus (GPa) = 28.50885 28.70575 28.60730
#
# Velocity S-wave (km/s) = 3.80861 3.82174 3.81518
# Velocity P-wave (km/s) = 7.46183 7.47079 7.46631
#
# Compressibility (1/GPa) = 0.01400201
#
# Stress axis : x y z
#
# Youngs Moduli (GPa) = 71.21158 71.21158 76.23136
#
# Poissons Ratio (x) = 0.36864 0.32109
# Poissons Ratio (y) = 0.36864 0.32109
# Poissons Ratio (z) = 0.29994 0.29994
#
# Static dielectric constant tensor:
#      x y z
#    x 3.566770 0.000000 0.000000 
#    y 0.000000 3.566770 0.000000 
#    z 0.000000 0.000000 3.771990 
# 
# 
# High freq. dielectric constant tensor:
#      x y z
#    x 1.767850 0.000000 0.000000 
#    y 0.000000 1.767850 0.000000 
#    z 0.000000 0.000000 1.774920 
# 
# From -- ./inp_files/6133.got.cif
#   From: 2010.03.12/outbox.cif.g09.slc.cpg/sg193_4_cif.got.tgz:6133.got - 2010.04.01 12:20:39.
