data_PCOD8330829
_publ_section_title
;
Structure prediction by ZEFSAII (Michael W. Deem and Ramdas Pophale) SiO2 
 PCOD8330829
Probable space group: P 63/M M C
;
_chemical_formula_sum "Si O2"
_cell_formula_units_Z 60
_cell_length_a 20.951188
_cell_length_b 20.951188
_cell_length_c 7.501599
_cell_angle_alpha 90.000000
_cell_angle_beta 90.000000
_cell_angle_gamma 120.000000
_cell_volume 2851.686532
_symmetry_space_group_name_H-M "P 63/M M C"
_symmetry_group_IT_number 194
_symmetry_cell_setting 'hexagonal'
loop_
_space_group_symop_operation_xyz
x,y,z
x-y,x,1/2+z
-y,x-y,z
-x,-y,1/2+z
-x+y,-x,z
y,-x+y,1/2+z
x-y,-y,-z
-x,-x+y,-z
y,x,-z
-y,-x,1/2-z
-x+y,y,1/2-z
x,x-y,1/2-z
-x,-y,-z
-x+y,-x,1/2-z
y,-x+y,-z
x,y,1/2-z
x-y,x,-z
-y,x-y,1/2-z
-x+y,y,z
x,x-y,z
-y,-x,z
y,x,1/2+z
x-y,-y,1/2+z
-x,-x+y,1/2+z
loop_
_atom_site_type_symbol
_atom_site_label
_atom_site_fract_x
_atom_site_fract_y
_atom_site_fract_z
Si Si1 0.328502 0.913962 0.540254
Si Si2 0.831585 0.915793 0.046616
Si Si3 0.479387 0.815428 0.250000
Si Si4 0.835095 0.670189 0.446862
O O1 0.332997 0.900112 0.750000
O O2 0.354407 0.866097 0.426584
O O3 0.245293 0.886317 0.466689
O O4 0.378831 0.000000 0.500000
O O5 0.806872 0.903436 0.250000
O O6 0.879943 0.879943 0.000000
O O7 0.757813 0.878907 0.933569
O O8 0.391919 0.783837 0.250000
O O9 0.494879 0.747440 0.250000
O O10 0.818558 0.637115 0.250000
#
# Coordination Sequence:
#
# PCOD8330829 Si02
#       4
#    24  12  12  12
#     4  11  23  42  69 103 141 181 227 287 344 407
#     4  12  25  39  58  84 125 176 232 290 344 405
#     4  12  27  48  74 101 140 182 232 276 340 409
#     4  10  22  39  65  96 132 174 227 275 341 405
#
# _framework density 21.040178999999998
#
# number of rings (size 3 to 8) (size 9 to 14) (size 15 to 20)
#    0.000    0.800    4.000    3.400    2.800    4.800 
#    0.000    0.000    0.000    2.400    0.000    0.000 
#    0.000    0.000    0.000    0.000    0.000    0.000 
#
# Total GULP energy -743862.181859 kJ/mol
# GULP energy per Si atom -12397.703031 kJ/mol
# Density = 2.099229 g / cm^3
# Si number density = 21.040179 Si / 1000 Ang^3
#
#
#
# Elastic Constant Matrix: (Units=GPa)
#
#
# Indices 1 2 3 4 5 6 
#
# 1 115.1356 42.8548 33.0676 0.0000 0.0000 0.0000
# 2 42.8548 115.1356 33.0676 0.0000 0.0000 0.0000
# 3 33.0676 33.0676 129.7152 0.0000 0.0000 0.0000
# 4 0.0000 0.0000 0.0000 10.2222 0.0000 0.0000
# 5 0.0000 0.0000 0.0000 0.0000 10.2222 0.0000
# 6 0.0000 0.0000 0.0000 0.0000 0.0000 36.1404
#
#
#
# Elastic Compliance Matrix: (Units=1/GPa)
#
#
# Indices 1 2 3 4 5 6 
#
# 1 0.010460 -0.003375 -0.001806 0.000000 0.000000 0.000000
# 2 -0.003375 0.010460 -0.001806 0.000000 0.000000 0.000000
# 3 -0.001806 -0.001806 0.008630 0.000000 0.000000 0.000000
# 4 0.000000 0.000000 0.000000 0.097827 0.000000 0.000000
# 5 0.000000 0.000000 0.000000 0.000000 0.097827 0.000000
# 6 0.000000 0.000000 0.000000 0.000000 0.000000 0.027670
#
#
# Mechanical properties :
#
#
# Convention : Reuss Voigt Hill
#
# Bulk Modulus (GPa) = 64.20061 64.21851 64.20956
# Shear Modulus (GPa) = 18.37961 28.05004 23.21483
#
# Velocity S-wave (km/s) = 2.95879 3.65521 3.32529
# Velocity P-wave (km/s) = 6.50017 6.95717 6.73255
#
# Compressibility (1/GPa) = 0.01557617
#
# Stress axis : x y z
#
# Youngs Moduli (GPa) = 95.59979 95.59979 115.87300
#
# Poissons Ratio (x) = 0.32262 0.20930
# Poissons Ratio (y) = 0.32262 0.20930
# Poissons Ratio (z) = 0.17268 0.17268
#
# Static dielectric constant tensor:
#      x y z
#    x 3.719640 0.000000 0.000000 
#    y 0.000000 3.719640 0.000000 
#    z 0.000000 0.000000 3.990150 
# 
# 
# High freq. dielectric constant tensor:
#      x y z
#    x 1.823870 0.000000 0.000000 
#    y 0.000000 1.823870 0.000000 
#    z 0.000000 0.000000 1.834300 
# 
# From -- ./inp_files/853.got.cif
#   From: 2010.03.12/outbox.cif.g09.slc.cpg/sg194_1_cif.got.tgz:853.got - 2010.04.01 12:26:19.
