data_PCOD8330325
_publ_section_title
;
Structure prediction by ZEFSAII (Michael W. Deem and Ramdas Pophale) SiO2 
 PCOD8330325
Probable space group: P 63/M M C
;
_chemical_formula_sum "Si O2"
_cell_formula_units_Z 144
_cell_length_a 21.133222
_cell_length_b 21.133222
_cell_length_c 20.833916
_cell_angle_alpha 90.000000
_cell_angle_beta 90.000000
_cell_angle_gamma 120.000000
_cell_volume 8058.105907
_symmetry_space_group_name_H-M "P 63/M M C"
_symmetry_group_IT_number 194
_symmetry_cell_setting 'hexagonal'
loop_
_space_group_symop_operation_xyz
x,y,z
x-y,x,1/2+z
-y,x-y,z
-x,-y,1/2+z
-x+y,-x,z
y,-x+y,1/2+z
x-y,-y,-z
-x,-x+y,-z
y,x,-z
-y,-x,1/2-z
-x+y,y,1/2-z
x,x-y,1/2-z
-x,-y,-z
-x+y,-x,1/2-z
y,-x+y,-z
x,y,1/2-z
x-y,x,-z
-y,x-y,1/2-z
-x+y,y,z
x,x-y,z
-y,-x,z
y,x,1/2+z
x-y,-y,1/2+z
-x,-x+y,1/2+z
loop_
_atom_site_type_symbol
_atom_site_label
_atom_site_fract_x
_atom_site_fract_y
_atom_site_fract_z
Si Si1 0.668737 0.188990 0.367331
Si Si2 0.590490 0.724892 0.979738
Si Si3 0.799993 0.050811 0.059721
Si Si4 0.407176 0.963244 0.818423
Si Si5 0.051031 0.596229 0.438366
Si Si6 0.000365 0.851717 0.823589
O O1 0.601414 0.202828 0.376024
O O2 0.737816 0.262185 0.340018
O O3 0.685904 0.166405 0.435415
O O4 0.651689 0.122951 0.319401
O O5 0.608300 0.804150 0.002066
O O6 0.663784 0.734830 0.944189
O O7 0.566733 0.678405 0.045268
O O8 0.877431 0.122570 0.053706
O O9 0.797688 0.011274 0.127516
O O10 0.792781 0.000000 0.000000
O O11 0.397078 0.993876 0.750000
O O12 0.486217 0.972433 0.823518
O O13 0.402098 0.007624 0.878541
O O14 0.082311 0.541156 0.423414
O O15 0.000000 0.565672 0.500000
O O16 0.000761 0.826209 0.750000
O O17 0.065061 0.934940 0.833079
O O18 0.924231 0.848462 0.839292
#
# Coordination Sequence:
#
# PCOD8330325 Si02
#       6
#    24  24  24  24  24  24
#     4  10  19  32  50  75 106 137 167 201 247 300
#     4  10  20  32  49  73 101 132 171 214 250 292
#     4  10  20  32  48  69  96 131 165 202 247 297
#     4   9  18  31  49  76 104 128 163 208 247 289
#     4  10  17  30  55  77  96 129 171 212 252 297
#     4   9  17  31  52  76  99 124 158 201 249 302
#
# _framework density 17.870204000000001
#
# number of rings (size 3 to 8) (size 9 to 14) (size 15 to 20)
#    0.000    2.333    1.667    1.833    0.000    1.000 
#    0.000    0.833    0.000    7.500    0.000    0.000 
#    0.000    0.000    0.000    0.000    0.000    0.000 
#
# Total GULP energy -1784130.573765 kJ/mol
# GULP energy per Si atom -12389.795651 kJ/mol
# Density = 1.782953 g / cm^3
# Si number density = 17.870204 Si / 1000 Ang^3
#
#
#
# Elastic Constant Matrix: (Units=GPa)
#
#
# Indices 1 2 3 4 5 6 
#
# 1 61.0217 33.4796 40.7650 0.0000 0.0000 0.0000
# 2 33.4796 61.0217 40.7650 0.0000 0.0000 0.0000
# 3 40.7650 40.7650 121.7849 0.0000 0.0000 0.0000
# 4 0.0000 0.0000 0.0000 34.7904 0.0000 0.0000
# 5 0.0000 0.0000 0.0000 0.0000 34.7904 0.0000
# 6 0.0000 0.0000 0.0000 0.0000 0.0000 13.7711
#
#
#
# Elastic Compliance Matrix: (Units=1/GPa)
#
#
# Indices 1 2 3 4 5 6 
#
# 1 0.025593 -0.010715 -0.004980 0.000000 0.000000 0.000000
# 2 -0.010715 0.025593 -0.004980 0.000000 0.000000 0.000000
# 3 -0.004980 -0.004980 0.011545 0.000000 0.000000 0.000000
# 4 0.000000 0.000000 0.000000 0.028744 0.000000 0.000000
# 5 0.000000 0.000000 0.000000 0.000000 0.028744 0.000000
# 6 0.000000 0.000000 0.000000 0.000000 0.000000 0.072616
#
#
# Mechanical properties :
#
#
# Convention : Reuss Voigt Hill
#
# Bulk Modulus (GPa) = 46.76994 52.64970 49.70982
# Shear Modulus (GPa) = 20.72003 25.25829 22.98916
#
# Velocity S-wave (km/s) = 3.40880 3.76364 3.59061
# Velocity P-wave (km/s) = 6.45926 6.95794 6.71323
#
# Compressibility (1/GPa) = 0.02138125
#
# Stress axis : x y z
#
# Youngs Moduli (GPa) = 39.07281 39.07281 86.61543
#
# Poissons Ratio (x) = 0.41865 0.43137
# Poissons Ratio (y) = 0.41865 0.43137
# Poissons Ratio (z) = 0.19459 0.19459
#
# Static dielectric constant tensor:
#      x y z
#    x 3.414170 0.000000 0.000000 
#    y 0.000000 3.414170 0.000000 
#    z 0.000000 0.000000 3.477450 
# 
# 
# High freq. dielectric constant tensor:
#      x y z
#    x 1.682350 0.000000 0.000000 
#    y 0.000000 1.682350 0.000000 
#    z 0.000000 0.000000 1.681140 
# 
# From -- ./inp_files/8277.got.cif
#   From: 2010.03.12/outbox.cif.g09.slc.cpg/sg194_5_cif.got.tgz:8277.got - 2010.04.01 12:26:19.
