data_PCOD8330642
_publ_section_title
;
Structure prediction by ZEFSAII (Michael W. Deem and Ramdas Pophale) SiO2 
 PCOD8330642
Probable space group: P 63/M M C
;
_chemical_formula_sum "Si O2"
_cell_formula_units_Z 72
_cell_length_a 12.915710
_cell_length_b 12.915710
_cell_length_c 30.196079
_cell_angle_alpha 90.000000
_cell_angle_beta 90.000000
_cell_angle_gamma 120.000000
_cell_volume 4362.322356
_symmetry_space_group_name_H-M "P 63/M M C"
_symmetry_group_IT_number 194
_symmetry_cell_setting 'hexagonal'
loop_
_space_group_symop_operation_xyz
x,y,z
x-y,x,1/2+z
-y,x-y,z
-x,-y,1/2+z
-x+y,-x,z
y,-x+y,1/2+z
x-y,-y,-z
-x,-x+y,-z
y,x,-z
-y,-x,1/2-z
-x+y,y,1/2-z
x,x-y,1/2-z
-x,-y,-z
-x+y,-x,1/2-z
y,-x+y,-z
x,y,1/2-z
x-y,x,-z
-y,x-y,1/2-z
-x+y,y,z
x,x-y,z
-y,-x,z
y,x,1/2+z
x-y,-y,1/2+z
-x,-x+y,1/2+z
loop_
_atom_site_type_symbol
_atom_site_label
_atom_site_fract_x
_atom_site_fract_y
_atom_site_fract_z
Si Si1 0.762001 0.000009 0.050478
Si Si2 0.238293 0.999783 0.800651
Si Si3 0.908376 0.576226 0.125125
O O1 0.900299 0.099702 0.057260
O O2 0.677278 0.026069 0.081416
O O3 0.747445 0.873723 0.064147
O O4 0.722142 0.000000 0.000000
O O5 0.276480 0.999313 0.750000
O O6 0.101233 0.898768 0.808805
O O7 0.325430 0.976372 0.831329
O O8 0.250579 0.125290 0.813850
O O9 0.770375 0.540749 0.125843
O O10 0.916923 0.458462 0.124665
#
# Coordination Sequence:
#
# PCOD8330642 Si02
#       3
#    24  24  24
#     4   9  17  30  50  75  98 118 144 185 238 288
#     4   9  17  30  50  75  98 118 144 185 238 288
#     4  10  20  32  46  65  92 127 163 194 222 258
#
# _framework density 16.504968999999999
#
# number of rings (size 3 to 8) (size 9 to 14) (size 15 to 20)
#    0.000    2.667    0.000    2.000    0.000    4.000 
#    0.000    3.333    0.000    7.333    0.000    0.000 
#    0.000    0.000    0.000    0.000    0.000    0.000 
#
# Total GULP energy -892907.875545 kJ/mol
# GULP energy per Si atom -12401.498271 kJ/mol
# Density = 1.646740 g / cm^3
# Si number density = 16.504969 Si / 1000 Ang^3
#
#
#
# Elastic Constant Matrix: (Units=GPa)
#
#
# Indices 1 2 3 4 5 6 
#
# 1 123.4019 74.3498 72.8376 0.0000 0.0000 0.0000
# 2 74.3498 123.4019 72.8376 0.0000 0.0000 0.0000
# 3 72.8376 72.8376 119.8473 0.0000 0.0000 0.0000
# 4 0.0000 0.0000 0.0000 22.6016 0.0000 0.0000
# 5 0.0000 0.0000 0.0000 0.0000 22.6016 0.0000
# 6 0.0000 0.0000 0.0000 0.0000 0.0000 24.5260
#
#
#
# Elastic Compliance Matrix: (Units=1/GPa)
#
#
# Indices 1 2 3 4 5 6 
#
# 1 0.014771 -0.005615 -0.005565 0.000000 0.000000 0.000000
# 2 -0.005615 0.014771 -0.005565 0.000000 0.000000 0.000000
# 3 -0.005565 -0.005565 0.015108 0.000000 0.000000 0.000000
# 4 0.000000 0.000000 0.000000 0.044245 0.000000 0.000000
# 5 0.000000 0.000000 0.000000 0.000000 0.044245 0.000000
# 6 0.000000 0.000000 0.000000 0.000000 0.000000 0.040773
#
#
# Mechanical properties :
#
#
# Convention : Reuss Voigt Hill
#
# Bulk Modulus (GPa) = 89.59442 89.63347 89.61395
# Shear Modulus (GPa) = 23.68299 23.72093 23.70196
#
# Velocity S-wave (km/s) = 3.79212 3.79515 3.79364
# Velocity P-wave (km/s) = 8.57757 8.58074 8.57916
#
# Compressibility (1/GPa) = 0.01116141
#
# Stress axis : x y z
#
# Youngs Moduli (GPa) = 67.69891 67.69891 66.19091
#
# Poissons Ratio (x) = 0.38014 0.36833
# Poissons Ratio (y) = 0.38014 0.36833
# Poissons Ratio (z) = 0.37672 0.37672
#
# Static dielectric constant tensor:
#      x y z
#    x 2.893880 0.000000 0.000000 
#    y 0.000000 2.893880 0.000000 
#    z 0.000000 0.000000 3.491970 
# 
# 
# High freq. dielectric constant tensor:
#      x y z
#    x 1.618400 0.000000 0.000000 
#    y 0.000000 1.618400 0.000000 
#    z 0.000000 0.000000 1.654790 
# 
# From -- ./inp_files/11285.got.cif
#   From: 2010.03.12/outbox.cif.g09.slc.cpg/sg194_6_cif.got.tgz:11285.got - 2010.04.01 12:26:19.
