data_PCOD8330856
_publ_section_title
;
Structure prediction by ZEFSAII (Michael W. Deem and Ramdas Pophale) SiO2 
 PCOD8330856
Probable space group: P 63/M M C
;
_chemical_formula_sum "Si O2"
_cell_formula_units_Z 144
_cell_length_a 25.815391
_cell_length_b 25.815391
_cell_length_c 24.281103
_cell_angle_alpha 90.000000
_cell_angle_beta 90.000000
_cell_angle_gamma 120.000000
_cell_volume 14013.817500
_symmetry_space_group_name_H-M "P 63/M M C"
_symmetry_group_IT_number 194
_symmetry_cell_setting 'hexagonal'
loop_
_space_group_symop_operation_xyz
x,y,z
x-y,x,1/2+z
-y,x-y,z
-x,-y,1/2+z
-x+y,-x,z
y,-x+y,1/2+z
x-y,-y,-z
-x,-x+y,-z
y,x,-z
-y,-x,1/2-z
-x+y,y,1/2-z
x,x-y,1/2-z
-x,-y,-z
-x+y,-x,1/2-z
y,-x+y,-z
x,y,1/2-z
x-y,x,-z
-y,x-y,1/2-z
-x+y,y,z
x,x-y,z
-y,-x,z
y,x,1/2+z
x-y,-y,1/2+z
-x,-x+y,1/2+z
loop_
_atom_site_type_symbol
_atom_site_label
_atom_site_fract_x
_atom_site_fract_y
_atom_site_fract_z
Si Si1 0.106104 0.493519 0.484222
Si Si2 0.026137 0.451338 0.112378
Si Si3 0.212165 0.666683 0.813638
Si Si4 0.384804 0.492027 0.893820
Si Si5 0.625975 0.128736 0.689303
Si Si6 0.666620 0.214868 0.904323
O O1 0.090450 0.545225 0.495008
O O2 0.051964 0.443106 0.446611
O O3 0.113966 0.471648 0.544490
O O4 0.168351 0.517954 0.453308
O O5 0.031111 0.515556 0.109993
O O6 0.067918 0.450935 0.161517
O O7 0.958800 0.399490 0.125447
O O8 0.193952 0.666563 0.750000
O O9 0.224565 0.612283 0.824654
O O10 0.272197 0.727804 0.828799
O O11 0.158334 0.661582 0.852213
O O12 0.444099 0.555902 0.893587
O O13 0.653544 0.135122 0.750000
O O14 0.562709 0.125417 0.691985
O O15 0.670932 0.185869 0.653135
O O16 0.618019 0.236037 0.899471
O O17 0.729722 0.270279 0.919065
#
# Coordination Sequence:
#
# PCOD8330856 Si02
#       6
#    24  24  24  24  24  24
#     4   8  14  23  32  43  58  71  82 101 132 160
#     4   8  13  21  33  46  58  69  79  98 129 160
#     4   9  17  27  35  42  54  72  91 109 129 152
#     4   9  15  22  34  48  56  65  84 105 124 154
#     4   8  14  23  32  42  56  71  85 104 132 158
#     4   9  16  24  32  41  54  73  95 115 131 149
#
# _framework density 10.275572
#
# number of rings (size 3 to 8) (size 9 to 14) (size 15 to 20)
#    0.000    3.500    0.000    2.833    0.000    4.333 
#    0.000    3.333    0.000    3.000    0.000    0.000 
#    0.000    0.000    0.000    0.000    0.000    0.000 
#
# Total GULP energy -1783951.926775 kJ/mol
# GULP energy per Si atom -12388.555047 kJ/mol
# Density = 1.025218 g / cm^3
# Si number density = 10.275572 Si / 1000 Ang^3
#
#
#
# Elastic Constant Matrix: (Units=GPa)
#
#
# Indices 1 2 3 4 5 6 
#
# 1 30.5444 17.6931 11.1800 0.0000 0.0000 0.0000
# 2 17.6931 30.5444 11.1800 0.0000 0.0000 0.0000
# 3 11.1800 11.1800 42.3941 0.0000 0.0000 0.0000
# 4 0.0000 0.0000 0.0000 8.7928 0.0000 0.0000
# 5 0.0000 0.0000 0.0000 0.0000 8.7928 0.0000
# 6 0.0000 0.0000 0.0000 0.0000 0.0000 6.4256
#
#
#
# Elastic Compliance Matrix: (Units=1/GPa)
#
#
# Indices 1 2 3 4 5 6 
#
# 1 0.050716 -0.027098 -0.006228 0.000000 0.000000 0.000000
# 2 -0.027098 0.050716 -0.006228 0.000000 0.000000 0.000000
# 3 -0.006228 -0.006228 0.026873 0.000000 0.000000 0.000000
# 4 0.000000 0.000000 0.000000 0.113729 0.000000 0.000000
# 5 0.000000 0.000000 0.000000 0.000000 0.113729 0.000000
# 6 0.000000 0.000000 0.000000 0.000000 0.000000 0.155627
#
#
# Mechanical properties :
#
#
# Convention : Reuss Voigt Hill
#
# Bulk Modulus (GPa) = 20.32711 20.39878 20.36294
# Shear Modulus (GPa) = 8.23862 9.03090 8.63476
#
# Velocity S-wave (km/s) = 2.83462 2.96779 2.90197
# Velocity P-wave (km/s) = 5.52615 5.62481 5.57570
#
# Compressibility (1/GPa) = 0.04919539
#
# Stress axis : x y z
#
# Youngs Moduli (GPa) = 19.71776 19.71776 37.21176
#
# Poissons Ratio (x) = 0.53431 0.23177
# Poissons Ratio (y) = 0.53431 0.23177
# Poissons Ratio (z) = 0.12281 0.12281
#
# Static dielectric constant tensor:
#      x y z
#    x 2.035300 0.000000 0.000000 
#    y 0.000000 2.035300 0.000000 
#    z 0.000000 0.000000 2.581210 
# 
# 
# High freq. dielectric constant tensor:
#      x y z
#    x 1.348070 0.000000 0.000000 
#    y 0.000000 1.348070 0.000000 
#    z 0.000000 0.000000 1.403440 
# 
# From -- ./inp_files/9945.got.cif
#   From: 2010.03.12/outbox.cif.g09.slc.cpg/sg194_5_cif.got.tgz:9945.got - 2010.04.01 12:26:19.
