data_PCOD8331051
_publ_section_title
;
Structure prediction by ZEFSAII (Michael W. Deem and Ramdas Pophale) SiO2 
 PCOD8331051
Probable space group: I -4 3 M 
;
_chemical_formula_sum "Si O2"
_cell_formula_units_Z 312
_cell_length_a 26.940410
_cell_length_b 26.940410
_cell_length_c 26.940410
_cell_angle_alpha 90.000000
_cell_angle_beta 90.000000
_cell_angle_gamma 90.000000
_cell_volume 19552.964087
_symmetry_space_group_name_H-M "I -4 3 M "
_symmetry_group_IT_number 217
_symmetry_cell_setting 'cubic'
loop_
_space_group_symop_operation_xyz
x,y,z
y,-x,-z
-x,-y,z
-y,x,-z
-x,z,-y
x,-y,-z
-x,-z,y
-z,-y,x
-x,y,-z
z,-y,-x
z,x,y
y,z,x
-y,-z,x
z,-x,-y
-y,z,-x
-z,-x,y
-z,x,-y
y,-z,-x
-y,-x,z
y,x,z
x,-z,-y
x,z,y
-z,y,-x
z,y,x
1/2+x,1/2+y,1/2+z
1/2+y,1/2-x,1/2-z
1/2-x,1/2-y,1/2+z
1/2-y,1/2+x,1/2-z
1/2-x,1/2+z,1/2-y
1/2+x,1/2-y,1/2-z
1/2-x,1/2-z,1/2+y
1/2-z,1/2-y,1/2+x
1/2-x,1/2+y,1/2-z
1/2+z,1/2-y,1/2-x
1/2+z,1/2+x,1/2+y
1/2+y,1/2+z,1/2+x
1/2-y,1/2-z,1/2+x
1/2+z,1/2-x,1/2-y
1/2-y,1/2+z,1/2-x
1/2-z,1/2-x,1/2+y
1/2-z,1/2+x,1/2-y
1/2+y,1/2-z,1/2-x
1/2-y,1/2-x,1/2+z
1/2+y,1/2+x,1/2+z
1/2+x,1/2-z,1/2-y
1/2+x,1/2+z,1/2+y
1/2-z,1/2+y,1/2-x
1/2+z,1/2+y,1/2+x
loop_
_atom_site_type_symbol
_atom_site_label
_atom_site_fract_x
_atom_site_fract_y
_atom_site_fract_z
Si Si1 0.000000 0.500000 0.079281
Si Si2 0.003138 0.635804 0.285273
Si Si3 0.987643 0.797102 0.280605
Si Si4 0.109895 0.602818 0.969746
Si Si5 0.819839 0.100037 0.659919
Si Si6 0.094799 0.769564 0.399779
Si Si7 0.640713 0.165943 0.561085
O O1 0.019297 0.455726 0.114177
O O2 0.955327 0.479814 0.044673
O O3 0.016673 0.662401 0.337600
O O4 0.047336 0.600895 0.266689
O O5 0.993816 0.677298 0.244139
O O6 0.954547 0.601923 0.292177
O O7 0.991439 0.774305 0.225696
O O8 0.932622 0.819736 0.289420
O O9 0.031269 0.837724 0.286557
O O10 0.057525 0.615250 0.942475
O O11 0.155544 0.617081 0.934183
O O12 0.112896 0.630775 0.021958
O O13 0.850216 0.149785 0.670714
O O14 0.764497 0.115247 0.642254
O O15 0.089960 0.815161 0.362123
O O16 0.601319 0.185338 0.601319
#
# Coordination Sequence:
#
# PCOD8331051 Si02
#       7
#    24  48  48  48  48  48  48
#     4   9  16  26  40  57  82 116 142 169 220 275
#     4   9  17  29  42  56  77 106 139 177 221 265
#     4   8  16  31  48  65  86 111 139 173 216 265
#     4   9  18  31  44  61  86 114 148 186 224 273
#     4   9  17  30  48  67  85 111 146 182 222 264
#     4  10  19  29  41  59  82 110 142 180 222 270
#     4  10  19  30  46  67  86 110 146 186 229 271
#
# _framework density 15.956659999999999
#
# number of rings (size 3 to 8) (size 9 to 14) (size 15 to 20)
#    0.000    2.846    0.000    2.308    0.000    3.692 
#    0.000    3.077    0.000    0.615    0.000    1.077 
#    0.000    0.000    0.000    0.000    0.000    0.000 
#
# Total GULP energy -1933744.229063 kJ/mol
# GULP energy per Si atom -12395.796340 kJ/mol
# Density = 1.592034 g / cm^3
# Si number density = 15.956660 Si / 1000 Ang^3
#
#
#
# Elastic Constant Matrix: (Units=GPa)
#
#
# Indices 1 2 3 4 5 6 
#
# 1 62.6898 35.2727 35.2727 0.0000 0.0000 0.0000
# 2 35.2727 62.6898 35.2727 0.0000 0.0000 0.0000
# 3 35.2727 35.2727 62.6898 0.0000 0.0000 0.0000
# 4 0.0000 0.0000 0.0000 21.2039 0.0000 0.0000
# 5 0.0000 0.0000 0.0000 0.0000 21.2039 0.0000
# 6 0.0000 0.0000 0.0000 0.0000 0.0000 21.2039
#
#
#
# Elastic Compliance Matrix: (Units=1/GPa)
#
#
# Indices 1 2 3 4 5 6 
#
# 1 0.026818 -0.009656 -0.009656 0.000000 0.000000 0.000000
# 2 -0.009656 0.026818 -0.009656 0.000000 0.000000 0.000000
# 3 -0.009656 -0.009656 0.026818 0.000000 0.000000 0.000000
# 4 0.000000 0.000000 0.000000 0.047161 0.000000 0.000000
# 5 0.000000 0.000000 0.000000 0.000000 0.047161 0.000000
# 6 0.000000 0.000000 0.000000 0.000000 0.000000 0.047161
#
#
# Mechanical properties :
#
#
# Convention : Reuss Voigt Hill
#
# Bulk Modulus (GPa) = 44.41173 44.41173 44.41173
# Shear Modulus (GPa) = 17.39871 18.20576 17.80224
#
# Velocity S-wave (km/s) = 3.30566 3.38146 3.34378
# Velocity P-wave (km/s) = 6.51637 6.56802 6.54224
#
# Compressibility (1/GPa) = 0.02251657
#
# Stress axis : x y z
#
# Youngs Moduli (GPa) = 37.28907 37.28907 37.28907
#
# Poissons Ratio (x) = 0.36006 0.36006
# Poissons Ratio (y) = 0.36006 0.36006
# Poissons Ratio (z) = 0.36006 0.36006
#
# Static dielectric constant tensor:
#      x y z
#    x 2.997830 0.000000 0.000000 
#    y 0.000000 2.997830 0.000000 
#    z 0.000000 0.000000 2.997830 
# 
# 
# High freq. dielectric constant tensor:
#      x y z
#    x 1.593780 0.000000 0.000000 
#    y 0.000000 1.593780 0.000000 
#    z 0.000000 0.000000 1.593780 
# 
# From -- ./inp_files/754.got.cif
#   From: 2010.03.12/outbox.cif.g09.slc.cpg/sg217_cif.got.tgz:754.got - 2010.03.30 09:07:03.
