data_PCOD8331093
_publ_section_title
;
Structure prediction by ZEFSAII (Michael W. Deem and Ramdas Pophale) SiO2 
 PCOD8331093
Probable space group: I -4 3 D
;
_chemical_formula_sum "Si O2"
_cell_formula_units_Z 80
_cell_length_a 15.687203
_cell_length_b 15.687203
_cell_length_c 15.687203
_cell_angle_alpha 90.000000
_cell_angle_beta 90.000000
_cell_angle_gamma 90.000000
_cell_volume 3860.437714
_symmetry_space_group_name_H-M "I -4 3 D"
_symmetry_group_IT_number 220
_symmetry_cell_setting 'cubic'
loop_
_space_group_symop_operation_xyz
x,y,z
1/4+y,3/4-x,1/4-z
-x,1/2-y,z
1/4-y,1/4+x,3/4-z
1/4-x,1/4+z,3/4-y
x,-y,1/2-z
3/4-x,1/4-z,1/4+y
3/4-z,1/4-y,1/4+x
1/2-x,y,-z
1/4+z,3/4-y,1/4-x
z,x,y
y,z,x
-y,1/2-z,x
z,-x,1/2-y
1/2-y,z,-x
-z,1/2-x,y
1/2-z,x,-y
y,-z,1/2-x
3/4-y,1/4-x,1/4+z
1/4+y,1/4+x,1/4+z
1/4+x,3/4-z,1/4-y
1/4+x,1/4+z,1/4+y
1/4-z,1/4+y,3/4-x
1/4+z,1/4+y,1/4+x
1/2+x,1/2+y,1/2+z
3/4+y,1/4-x,3/4-z
1/2-x,-y,1/2+z
3/4-y,3/4+x,1/4-z
3/4-x,3/4+z,1/4-y
1/2+x,1/2-y,-z
1/4-x,3/4-z,3/4+y
1/4-z,3/4-y,3/4+x
-x,1/2+y,1/2-z
3/4+z,1/4-y,3/4-x
1/2+z,1/2+x,1/2+y
1/2+y,1/2+z,1/2+x
1/2-y,-z,1/2+x
1/2+z,1/2-x,-y
-y,1/2+z,1/2-x
1/2-z,-x,1/2+y
-z,1/2+x,1/2-y
1/2+y,1/2-z,-x
1/4-y,3/4-x,3/4+z
3/4+y,3/4+x,3/4+z
3/4+x,1/4-z,3/4-y
3/4+x,3/4+z,3/4+y
3/4-z,3/4+y,1/4-x
3/4+z,3/4+y,3/4+x
loop_
_atom_site_type_symbol
_atom_site_label
_atom_site_fract_x
_atom_site_fract_y
_atom_site_fract_z
Si Si1 0.940884 0.940884 0.940884
Si Si2 0.512725 0.125955 0.087522
Si Si3 0.325088 0.325088 0.325088
O O1 0.883005 0.883005 0.883005
O O2 0.028759 0.891073 0.961692
O O3 0.438107 0.155938 0.152337
O O4 0.479260 0.133214 0.990254
#
# Coordination Sequence:
#
# PCOD8331093 Si02
#       3
#    16  48  16
#     4  10  23  40  64  92 124 172 215 262 337 395
#     4   9  20  39  61  89 126 162 207 266 319 384
#     4  10  23  40  61  95 124 160 218 268 322 395
#
# _framework density 20.723037000000001
#
# number of rings (size 3 to 8) (size 9 to 14) (size 15 to 20)
#    0.000    3.000    0.000    0.000    0.000   21.600 
#    0.000   12.000    0.000    2.400    0.000    0.000 
#    0.000    0.000    0.000    0.000    0.000    0.000 
#
# Total GULP energy -495806.201487 kJ/mol
# GULP energy per Si atom -12395.155037 kJ/mol
# Density = 2.067587 g / cm^3
# Si number density = 20.723037 Si / 1000 Ang^3
#
#
#
# Elastic Constant Matrix: (Units=GPa)
#
#
# Indices 1 2 3 4 5 6 
#
# 1 116.9012 64.6973 64.6975 0.0000 0.0000 0.0000
# 2 64.6973 116.9012 64.6975 0.0000 0.0000 0.0000
# 3 64.6975 64.6975 116.9018 0.0000 0.0000 0.0000
# 4 0.0000 0.0000 0.0000 55.3264 0.0000 0.0000
# 5 0.0000 0.0000 0.0000 0.0000 55.3264 0.0000
# 6 0.0000 0.0000 0.0000 0.0000 0.0000 55.3263
#
#
#
# Elastic Compliance Matrix: (Units=1/GPa)
#
#
# Indices 1 2 3 4 5 6 
#
# 1 0.014124 -0.005032 -0.005032 0.000000 0.000000 0.000000
# 2 -0.005032 0.014124 -0.005032 0.000000 0.000000 0.000000
# 3 -0.005032 -0.005032 0.014124 0.000000 0.000000 0.000000
# 4 0.000000 0.000000 0.000000 0.018075 0.000000 0.000000
# 5 0.000000 0.000000 0.000000 0.000000 0.018075 0.000000
# 6 0.000000 0.000000 0.000000 0.000000 0.000000 0.018075
#
#
# Mechanical properties :
#
#
# Convention : Reuss Voigt Hill
#
# Bulk Modulus (GPa) = 82.09873 82.09873 82.09873
# Shear Modulus (GPa) = 38.21282 43.63663 40.92473
#
# Velocity S-wave (km/s) = 4.29881 4.59378 4.44874
# Velocity P-wave (km/s) = 8.02140 8.23651 8.12967
#
# Compressibility (1/GPa) = 0.01218046
#
# Stress axis : x y z
#
# Youngs Moduli (GPa) = 70.80241 70.80241 70.80271
#
# Poissons Ratio (x) = 0.35626 0.35627
# Poissons Ratio (y) = 0.35626 0.35627
# Poissons Ratio (z) = 0.35627 0.35627
#
# Static dielectric constant tensor:
#      x y z
#    x 3.755400 0.000000 0.000000 
#    y 0.000000 3.755400 0.000000 
#    z 0.000000 0.000000 3.755390 
# 
# 
# High freq. dielectric constant tensor:
#      x y z
#    x 1.806640 0.000000 0.000000 
#    y 0.000000 1.806640 0.000000 
#    z 0.000000 0.000000 1.806640 
# 
# From -- ./inp_files/99.got.cif
#   From: 2010.03.12/outbox.cif.g09.slc.cpg/sg220_cif.got.tgz:99.got - 2010.03.30 09:07:51.
