data_PCOD8331160
_publ_section_title
;
Structure prediction by ZEFSAII (Michael W. Deem and Ramdas Pophale) SiO2 
 PCOD8331160
Probable space group: I M 3 M
;
_chemical_formula_sum "Si O2"
_cell_formula_units_Z 432
_cell_length_a 29.899497
_cell_length_b 29.899497
_cell_length_c 29.899497
_cell_angle_alpha 90.000000
_cell_angle_beta 90.000000
_cell_angle_gamma 90.000000
_cell_volume 26729.549962
_symmetry_space_group_name_H-M "I M 3 M"
_symmetry_group_IT_number 229
_symmetry_cell_setting 'cubic'
loop_
_space_group_symop_operation_xyz
x,y,z
-y,x,z
-x,-y,z
y,-x,z
x,-z,y
x,-y,-z
x,z,-y
z,y,-x
-x,y,-z
-z,y,x
z,x,y
y,z,x
-y,-z,x
z,-x,-y
-y,z,-x
-z,-x,y
-z,x,-y
y,-z,-x
y,x,-z
-y,-x,-z
-x,z,y
-x,-z,-y
z,-y,x
-z,-y,-x
-x,-y,-z
y,-x,-z
x,y,-z
-y,x,-z
-x,z,-y
-x,y,z
-x,-z,y
-z,-y,x
x,-y,z
z,-y,-x
-z,-x,-y
-y,-z,-x
y,z,-x
-z,x,y
y,-z,x
z,x,-y
z,-x,y
-y,z,x
-y,-x,z
y,x,z
x,-z,-y
x,z,y
-z,y,-x
z,y,x
1/2+x,1/2+y,1/2+z
1/2-y,1/2+x,1/2+z
1/2-x,1/2-y,1/2+z
1/2+y,1/2-x,1/2+z
1/2+x,1/2-z,1/2+y
1/2+x,1/2-y,1/2-z
1/2+x,1/2+z,1/2-y
1/2+z,1/2+y,1/2-x
1/2-x,1/2+y,1/2-z
1/2-z,1/2+y,1/2+x
1/2+z,1/2+x,1/2+y
1/2+y,1/2+z,1/2+x
1/2-y,1/2-z,1/2+x
1/2+z,1/2-x,1/2-y
1/2-y,1/2+z,1/2-x
1/2-z,1/2-x,1/2+y
1/2-z,1/2+x,1/2-y
1/2+y,1/2-z,1/2-x
1/2+y,1/2+x,1/2-z
1/2-y,1/2-x,1/2-z
1/2-x,1/2+z,1/2+y
1/2-x,1/2-z,1/2-y
1/2+z,1/2-y,1/2+x
1/2-z,1/2-y,1/2-x
1/2-x,1/2-y,1/2-z
1/2+y,1/2-x,1/2-z
1/2+x,1/2+y,1/2-z
1/2-y,1/2+x,1/2-z
1/2-x,1/2+z,1/2-y
1/2-x,1/2+y,1/2+z
1/2-x,1/2-z,1/2+y
1/2-z,1/2-y,1/2+x
1/2+x,1/2-y,1/2+z
1/2+z,1/2-y,1/2-x
1/2-z,1/2-x,1/2-y
1/2-y,1/2-z,1/2-x
1/2+y,1/2+z,1/2-x
1/2-z,1/2+x,1/2+y
1/2+y,1/2-z,1/2+x
1/2+z,1/2+x,1/2-y
1/2+z,1/2-x,1/2+y
1/2-y,1/2+z,1/2+x
1/2-y,1/2-x,1/2+z
1/2+y,1/2+x,1/2+z
1/2+x,1/2-z,1/2-y
1/2+x,1/2+z,1/2+y
1/2-z,1/2+y,1/2-x
1/2+z,1/2+y,1/2+x
loop_
_atom_site_type_symbol
_atom_site_label
_atom_site_fract_x
_atom_site_fract_y
_atom_site_fract_z
Si Si1 0.389100 0.753307 0.318018
Si Si2 0.127210 0.799636 0.646651
Si Si3 0.051930 0.500000 0.871564
Si Si4 0.376792 0.696282 0.449170
Si Si5 0.924807 0.550216 0.298993
O O1 0.388421 0.730147 0.269854
O O2 0.343567 0.740047 0.343567
O O3 0.393232 0.805713 0.311583
O O4 0.431285 0.737395 0.347135
O O5 0.166302 0.833699 0.632215
O O6 0.147561 0.750000 0.647561
O O7 0.085491 0.803484 0.614323
O O8 0.085636 0.500000 0.914365
O O9 0.061314 0.541996 0.839615
O O10 0.000000 0.500000 0.888466
O O11 0.388953 0.706769 0.500000
O O12 0.349631 0.650370 0.443667
O O13 0.422905 0.691254 0.422905
O O14 0.905902 0.500000 0.304741
O O15 0.947375 0.552626 0.250000
#
# Coordination Sequence:
#
# PCOD8331160 Si02
#       5
#    96  96  48  96  96
#     4   9  17  30  47  66  91 126 165 200 235 282
#     4  10  20  32  48  71 101 130 160 200 247 293
#     4  10  20  33  54  76 100 128 162 202 242 290
#     4   9  17  29  46  67  91 121 157 199 243 291
#     4  10  19  33  53  73  96 126 163 200 242 294
#
# _framework density 16.161888000000001
#
# number of rings (size 3 to 8) (size 9 to 14) (size 15 to 20)
#    0.000    2.444    1.111    1.778    0.000    3.000 
#    0.000    0.000    0.000    3.556    0.000    0.000 
#    0.000    5.333    0.000    6.889    0.000    0.000 
#
# Total GULP energy -2677897.311580 kJ/mol
# GULP energy per Si atom -12397.672739 kJ/mol
# Density = 1.612510 g / cm^3
# Si number density = 16.161888 Si / 1000 Ang^3
#
#
#
# Elastic Constant Matrix: (Units=GPa)
#
#
# Indices 1 2 3 4 5 6 
#
# 1 102.8047 55.3629 55.3629 0.0000 0.0000 0.0000
# 2 55.3629 102.8047 55.3629 0.0000 0.0000 0.0000
# 3 55.3629 55.3629 102.8047 0.0000 0.0000 0.0000
# 4 0.0000 0.0000 0.0000 21.3722 0.0000 0.0000
# 5 0.0000 0.0000 0.0000 0.0000 21.3722 0.0000
# 6 0.0000 0.0000 0.0000 0.0000 0.0000 21.3722
#
#
#
# Elastic Compliance Matrix: (Units=1/GPa)
#
#
# Indices 1 2 3 4 5 6 
#
# 1 0.015613 -0.005465 -0.005465 0.000000 0.000000 0.000000
# 2 -0.005465 0.015613 -0.005465 0.000000 0.000000 0.000000
# 3 -0.005465 -0.005465 0.015613 0.000000 0.000000 0.000000
# 4 0.000000 0.000000 0.000000 0.046790 0.000000 0.000000
# 5 0.000000 0.000000 0.000000 0.000000 0.046790 0.000000
# 6 0.000000 0.000000 0.000000 0.000000 0.000000 0.046790
#
#
# Mechanical properties :
#
#
# Convention : Reuss Voigt Hill
#
# Bulk Modulus (GPa) = 71.17680 71.17680 71.17680
# Shear Modulus (GPa) = 22.25359 22.31170 22.28265
#
# Velocity S-wave (km/s) = 3.71471 3.71956 3.71713
# Velocity P-wave (km/s) = 7.90786 7.91090 7.90938
#
# Compressibility (1/GPa) = 0.01404952
#
# Stress axis : x y z
#
# Youngs Moduli (GPa) = 64.04767 64.04767 64.04767
#
# Poissons Ratio (x) = 0.35003 0.35003
# Poissons Ratio (y) = 0.35003 0.35003
# Poissons Ratio (z) = 0.35003 0.35003
#
# Static dielectric constant tensor:
#      x y z
#    x 3.060760 0.000000 0.000000 
#    y 0.000000 3.060760 0.000000 
#    z 0.000000 0.000000 3.060760 
# 
# 
# High freq. dielectric constant tensor:
#      x y z
#    x 1.621770 0.000000 0.000000 
#    y 0.000000 1.621770 0.000000 
#    z 0.000000 0.000000 1.621770 
# 
# From -- ./inp_files/892.got.cif
#   From: 2010.03.12/outbox.cif.g09.slc.cpg/sg229_cif.got.tgz:892.got - 2010.03.30 09:10:17.
