data_PCOD8331158
_publ_section_title
;
Structure prediction by ZEFSAII (Michael W. Deem and Ramdas Pophale) SiO2 
 PCOD8331158
Probable space group: I M 3 M
;
_chemical_formula_sum "Si O2"
_cell_formula_units_Z 432
_cell_length_a 29.278641
_cell_length_b 29.278641
_cell_length_c 29.278641
_cell_angle_alpha 90.000000
_cell_angle_beta 90.000000
_cell_angle_gamma 90.000000
_cell_volume 25098.787627
_symmetry_space_group_name_H-M "I M 3 M"
_symmetry_group_IT_number 229
_symmetry_cell_setting 'cubic'
loop_
_space_group_symop_operation_xyz
x,y,z
-y,x,z
-x,-y,z
y,-x,z
x,-z,y
x,-y,-z
x,z,-y
z,y,-x
-x,y,-z
-z,y,x
z,x,y
y,z,x
-y,-z,x
z,-x,-y
-y,z,-x
-z,-x,y
-z,x,-y
y,-z,-x
y,x,-z
-y,-x,-z
-x,z,y
-x,-z,-y
z,-y,x
-z,-y,-x
-x,-y,-z
y,-x,-z
x,y,-z
-y,x,-z
-x,z,-y
-x,y,z
-x,-z,y
-z,-y,x
x,-y,z
z,-y,-x
-z,-x,-y
-y,-z,-x
y,z,-x
-z,x,y
y,-z,x
z,x,-y
z,-x,y
-y,z,x
-y,-x,z
y,x,z
x,-z,-y
x,z,y
-z,y,-x
z,y,x
1/2+x,1/2+y,1/2+z
1/2-y,1/2+x,1/2+z
1/2-x,1/2-y,1/2+z
1/2+y,1/2-x,1/2+z
1/2+x,1/2-z,1/2+y
1/2+x,1/2-y,1/2-z
1/2+x,1/2+z,1/2-y
1/2+z,1/2+y,1/2-x
1/2-x,1/2+y,1/2-z
1/2-z,1/2+y,1/2+x
1/2+z,1/2+x,1/2+y
1/2+y,1/2+z,1/2+x
1/2-y,1/2-z,1/2+x
1/2+z,1/2-x,1/2-y
1/2-y,1/2+z,1/2-x
1/2-z,1/2-x,1/2+y
1/2-z,1/2+x,1/2-y
1/2+y,1/2-z,1/2-x
1/2+y,1/2+x,1/2-z
1/2-y,1/2-x,1/2-z
1/2-x,1/2+z,1/2+y
1/2-x,1/2-z,1/2-y
1/2+z,1/2-y,1/2+x
1/2-z,1/2-y,1/2-x
1/2-x,1/2-y,1/2-z
1/2+y,1/2-x,1/2-z
1/2+x,1/2+y,1/2-z
1/2-y,1/2+x,1/2-z
1/2-x,1/2+z,1/2-y
1/2-x,1/2+y,1/2+z
1/2-x,1/2-z,1/2+y
1/2-z,1/2-y,1/2+x
1/2+x,1/2-y,1/2+z
1/2+z,1/2-y,1/2-x
1/2-z,1/2-x,1/2-y
1/2-y,1/2-z,1/2-x
1/2+y,1/2+z,1/2-x
1/2-z,1/2+x,1/2+y
1/2+y,1/2-z,1/2+x
1/2+z,1/2+x,1/2-y
1/2+z,1/2-x,1/2+y
1/2-y,1/2+z,1/2+x
1/2-y,1/2-x,1/2+z
1/2+y,1/2+x,1/2+z
1/2+x,1/2-z,1/2-y
1/2+x,1/2+z,1/2+y
1/2-z,1/2+y,1/2-x
1/2+z,1/2+y,1/2+x
loop_
_atom_site_type_symbol
_atom_site_label
_atom_site_fract_x
_atom_site_fract_y
_atom_site_fract_z
Si Si1 0.579659 0.947978 0.799912
Si Si2 0.074788 0.000000 0.848876
Si Si3 0.053563 0.500000 0.130158
Si Si4 0.252520 0.328498 0.403394
Si Si5 0.276270 0.500000 0.352739
Si Si6 0.155484 0.701048 0.626314
O O1 0.557784 0.942217 0.750000
O O2 0.543781 0.934324 0.839071
O O3 0.624286 0.917670 0.806191
O O4 0.595159 0.000000 0.805999
O O5 0.097228 0.000000 0.798751
O O6 0.045211 0.045211 0.854358
O O7 0.112073 0.000000 0.887928
O O8 0.084517 0.500000 0.084517
O O9 0.000000 0.500000 0.115990
O O10 0.295666 0.295666 0.398668
O O11 0.261870 0.372048 0.372048
O O12 0.245339 0.346102 0.455107
O O13 0.207809 0.301379 0.388441
O O14 0.315937 0.500000 0.315937
O O15 0.142139 0.662704 0.662704
O O16 0.148809 0.750000 0.648809
#
# Coordination Sequence:
#
# PCOD8331158 Si02
#       6
#    96  48  48  96  48  96
#     4  10  19  33  55  79 107 140 177 215 261 310
#     4  10  19  31  48  71 101 135 172 216 267 324
#     4  10  20  33  53  77 108 139 177 220 259 308
#     4  10  20  35  55  77 104 138 178 220 263 314
#     4   9  19  33  50  74 100 128 167 216 265 308
#     4  10  21  35  53  77 109 142 176 216 262 314
#
# _framework density 17.211987000000001
#
# number of rings (size 3 to 8) (size 9 to 14) (size 15 to 20)
#    0.000    2.111    1.111    2.444    1.556    0.111 
#    0.000    2.222    0.000    4.444    0.000    0.000 
#    0.000    0.000    0.000    0.000    0.000    0.000 
#
# Total GULP energy -2678722.063905 kJ/mol
# GULP energy per Si atom -12401.491037 kJ/mol
# Density = 1.717281 g / cm^3
# Si number density = 17.211987 Si / 1000 Ang^3
#
#
#
# Elastic Constant Matrix: (Units=GPa)
#
#
# Indices 1 2 3 4 5 6 
#
# 1 99.1356 57.0672 57.0672 0.0000 0.0000 0.0000
# 2 57.0672 99.1356 57.0672 0.0000 0.0000 0.0000
# 3 57.0672 57.0672 99.1356 0.0000 0.0000 0.0000
# 4 0.0000 0.0000 0.0000 16.0955 0.0000 0.0000
# 5 0.0000 0.0000 0.0000 0.0000 16.0955 0.0000
# 6 0.0000 0.0000 0.0000 0.0000 0.0000 16.0955
#
#
#
# Elastic Compliance Matrix: (Units=1/GPa)
#
#
# Indices 1 2 3 4 5 6 
#
# 1 0.017410 -0.006361 -0.006361 0.000000 0.000000 0.000000
# 2 -0.006361 0.017410 -0.006361 0.000000 0.000000 0.000000
# 3 -0.006361 -0.006361 0.017410 0.000000 0.000000 0.000000
# 4 0.000000 0.000000 0.000000 0.062129 0.000000 0.000000
# 5 0.000000 0.000000 0.000000 0.000000 0.062129 0.000000
# 6 0.000000 0.000000 0.000000 0.000000 0.000000 0.062129
#
#
# Mechanical properties :
#
#
# Convention : Reuss Voigt Hill
#
# Bulk Modulus (GPa) = 71.08999 71.08999 71.08999
# Shear Modulus (GPa) = 17.76386 18.07100 17.91743
#
# Velocity S-wave (km/s) = 3.21606 3.24374 3.22993
# Velocity P-wave (km/s) = 7.42852 7.44456 7.43655
#
# Compressibility (1/GPa) = 0.01406668
#
# Stress axis : x y z
#
# Youngs Moduli (GPa) = 57.43774 57.43774 57.43774
#
# Poissons Ratio (x) = 0.36534 0.36534
# Poissons Ratio (y) = 0.36534 0.36534
# Poissons Ratio (z) = 0.36534 0.36534
#
# Static dielectric constant tensor:
#      x y z
#    x 3.238670 0.000000 0.000000 
#    y 0.000000 3.238670 0.000000 
#    z 0.000000 0.000000 3.238670 
# 
# 
# High freq. dielectric constant tensor:
#      x y z
#    x 1.668590 0.000000 0.000000 
#    y 0.000000 1.668590 0.000000 
#    z 0.000000 0.000000 1.668590 
# 
# From -- ./inp_files/998.got.cif
#   From: 2010.03.12/outbox.cif.g09.slc.cpg/sg229_cif.got.tgz:998.got - 2010.03.30 09:10:17.
