data_PCOD8331109
_publ_section_title
;
Structure prediction by ZEFSAII (Michael W. Deem and Ramdas Pophale) SiO2 
 PCOD8331109
Probable space group: P M 3 M
;
_chemical_formula_sum "Si O2"
_cell_formula_units_Z 144
_cell_length_a 21.008571
_cell_length_b 21.008571
_cell_length_c 21.008571
_cell_angle_alpha 90.000000
_cell_angle_beta 90.000000
_cell_angle_gamma 90.000000
_cell_volume 9272.344062
_symmetry_space_group_name_H-M "P M 3 M"
_symmetry_group_IT_number 221
_symmetry_cell_setting 'cubic'
loop_
_space_group_symop_operation_xyz
x,y,z
-y,x,z
-x,-y,z
y,-x,z
x,-z,y
x,-y,-z
x,z,-y
z,y,-x
-x,y,-z
-z,y,x
z,x,y
y,z,x
-y,-z,x
z,-x,-y
-y,z,-x
-z,-x,y
-z,x,-y
y,-z,-x
y,x,-z
-y,-x,-z
-x,z,y
-x,-z,-y
z,-y,x
-z,-y,-x
-x,-y,-z
y,-x,-z
x,y,-z
-y,x,-z
-x,z,-y
-x,y,z
-x,-z,y
-z,-y,x
x,-y,z
z,-y,-x
-z,-x,-y
-y,-z,-x
y,z,-x
-z,x,y
y,-z,x
z,x,-y
z,-x,y
-y,z,x
-y,-x,z
y,x,z
x,-z,-y
x,z,y
-z,y,-x
z,y,x
loop_
_atom_site_type_symbol
_atom_site_label
_atom_site_fract_x
_atom_site_fract_y
_atom_site_fract_z
Si Si1 0.843764 0.365055 0.260629
Si Si2 0.292547 0.186167 0.500000
Si Si3 0.072992 0.718653 0.823277
Si Si4 0.604959 0.500000 0.288151
O O1 0.836011 0.323300 0.323300
O O2 0.778133 0.359054 0.221868
O O3 0.857384 0.437421 0.282640
O O4 0.902374 0.341547 0.217338
O O5 0.240566 0.240566 0.500000
O O6 0.361645 0.219064 0.500000
O O7 0.082215 0.782808 0.782808
O O8 0.111485 0.726515 0.888516
O O9 0.000000 0.706298 0.840891
O O10 0.563071 0.563071 0.294130
O O11 0.655331 0.500000 0.344670
#
# Coordination Sequence:
#
# PCOD8331109 Si02
#       4
#    48  24  48  24
#     4   9  16  27  43  62  84 110 142 180 222 266
#     4   9  17  27  40  59  80 103 135 178 224 264
#     4   9  17  29  46  68  93 120 148 177 209 247
#     4  10  19  29  40  55  78 109 145 183 224 272
#
# _framework density 15.530054
#
# number of rings (size 3 to 8) (size 9 to 14) (size 15 to 20)
#    0.000    2.833    0.000    2.000    0.000    3.000 
#    0.000    4.167    0.000    1.333    0.000    0.000 
#    0.000    6.667    0.000   30.667    0.000    0.000 
#
# Total GULP energy -1785397.285546 kJ/mol
# GULP energy per Si atom -12398.592261 kJ/mol
# Density = 1.549471 g / cm^3
# Si number density = 15.530054 Si / 1000 Ang^3
#
#
#
# Elastic Constant Matrix: (Units=GPa)
#
#
# Indices 1 2 3 4 5 6 
#
# 1 112.0206 53.6908 53.6908 0.0000 0.0000 0.0000
# 2 53.6908 112.0206 53.6908 0.0000 0.0000 0.0000
# 3 53.6908 53.6908 112.0206 0.0000 0.0000 0.0000
# 4 0.0000 0.0000 0.0000 16.4621 0.0000 0.0000
# 5 0.0000 0.0000 0.0000 0.0000 16.4621 0.0000
# 6 0.0000 0.0000 0.0000 0.0000 0.0000 16.4621
#
#
#
# Elastic Compliance Matrix: (Units=1/GPa)
#
#
# Indices 1 2 3 4 5 6 
#
# 1 0.012949 -0.004195 -0.004195 0.000000 0.000000 0.000000
# 2 -0.004195 0.012949 -0.004195 0.000000 0.000000 0.000000
# 3 -0.004195 -0.004195 0.012949 0.000000 0.000000 0.000000
# 4 0.000000 0.000000 0.000000 0.060745 0.000000 0.000000
# 5 0.000000 0.000000 0.000000 0.000000 0.060745 0.000000
# 6 0.000000 0.000000 0.000000 0.000000 0.000000 0.060745
#
#
# Mechanical properties :
#
#
# Convention : Reuss Voigt Hill
#
# Bulk Modulus (GPa) = 73.13405 73.13405 73.13405
# Shear Modulus (GPa) = 19.93526 21.54325 20.73925
#
# Velocity S-wave (km/s) = 3.58670 3.72855 3.65831
# Velocity P-wave (km/s) = 8.02164 8.10742 8.06465
#
# Compressibility (1/GPa) = 0.01367352
#
# Stress axis : x y z
#
# Youngs Moduli (GPa) = 77.22880 77.22880 77.22880
#
# Poissons Ratio (x) = 0.32400 0.32400
# Poissons Ratio (y) = 0.32400 0.32400
# Poissons Ratio (z) = 0.32400 0.32400
#
# Static dielectric constant tensor:
#      x y z
#    x 2.958060 0.000000 0.000000 
#    y 0.000000 2.958060 0.000000 
#    z 0.000000 0.000000 2.958060 
# 
# 
# High freq. dielectric constant tensor:
#      x y z
#    x 1.587420 0.000000 0.000000 
#    y 0.000000 1.587420 0.000000 
#    z 0.000000 0.000000 1.587420 
# 
# From -- ./inp_files/296.got.cif
#   From: 2010.03.12/outbox.cif.g09.slc.cpg/sg221_cif.got.tgz:296.got - 2010.03.30 09:08:03.
