data_PCOD8331079
_publ_section_title
;
Structure prediction by ZEFSAII (Michael W. Deem and Ramdas Pophale) SiO2 
 PCOD8331079
Probable space group: F -4 3 C
;
_chemical_formula_sum "Si O2"
_cell_formula_units_Z 272
_cell_length_a 23.618286
_cell_length_b 23.618286
_cell_length_c 23.618286
_cell_angle_alpha 90.000000
_cell_angle_beta 90.000000
_cell_angle_gamma 90.000000
_cell_volume 13174.833392
_symmetry_space_group_name_H-M "F -4 3 C"
_symmetry_group_IT_number 219
_symmetry_cell_setting 'cubic'
loop_
_space_group_symop_operation_xyz
x,y,z
y,-x,1/2-z
-x,-y,z
-y,x,1/2-z
-x,z,1/2-y
x,-y,-z
-x,-z,1/2+y
-z,-y,1/2+x
-x,y,-z
z,-y,1/2-x
z,x,y
y,z,x
-y,-z,x
z,-x,-y
-y,z,-x
-z,-x,y
-z,x,-y
y,-z,-x
-y,-x,1/2+z
y,x,1/2+z
x,-z,1/2-y
x,z,1/2+y
-z,y,1/2-x
z,y,1/2+x
x,1/2+y,1/2+z
y,1/2-x,-z
-x,1/2-y,1/2+z
-y,1/2+x,-z
-x,1/2+z,-y
x,1/2-y,1/2-z
-x,1/2-z,y
-z,1/2-y,x
-x,1/2+y,1/2-z
z,1/2-y,-x
z,1/2+x,1/2+y
y,1/2+z,1/2+x
-y,1/2-z,1/2+x
z,1/2-x,1/2-y
-y,1/2+z,1/2-x
-z,1/2-x,1/2+y
-z,1/2+x,1/2-y
y,1/2-z,1/2-x
-y,1/2-x,z
y,1/2+x,z
x,1/2-z,-y
x,1/2+z,y
-z,1/2+y,-x
z,1/2+y,x
1/2+x,y,1/2+z
1/2+y,-x,-z
1/2-x,-y,1/2+z
1/2-y,x,-z
1/2-x,z,-y
1/2+x,-y,1/2-z
1/2-x,-z,y
1/2-z,-y,x
1/2-x,y,1/2-z
1/2+z,-y,-x
1/2+z,x,1/2+y
1/2+y,z,1/2+x
1/2-y,-z,1/2+x
1/2+z,-x,1/2-y
1/2-y,z,1/2-x
1/2-z,-x,1/2+y
1/2-z,x,1/2-y
1/2+y,-z,1/2-x
1/2-y,-x,z
1/2+y,x,z
1/2+x,-z,-y
1/2+x,z,y
1/2-z,y,-x
1/2+z,y,x
1/2+x,1/2+y,z
1/2+y,1/2-x,1/2-z
1/2-x,1/2-y,z
1/2-y,1/2+x,1/2-z
1/2-x,1/2+z,1/2-y
1/2+x,1/2-y,-z
1/2-x,1/2-z,1/2+y
1/2-z,1/2-y,1/2+x
1/2-x,1/2+y,-z
1/2+z,1/2-y,1/2-x
1/2+z,1/2+x,y
1/2+y,1/2+z,x
1/2-y,1/2-z,x
1/2+z,1/2-x,-y
1/2-y,1/2+z,-x
1/2-z,1/2-x,y
1/2-z,1/2+x,-y
1/2+y,1/2-z,-x
1/2-y,1/2-x,1/2+z
1/2+y,1/2+x,1/2+z
1/2+x,1/2-z,1/2-y
1/2+x,1/2+z,1/2+y
1/2-z,1/2+y,1/2-x
1/2+z,1/2+y,1/2+x
loop_
_atom_site_type_symbol
_atom_site_label
_atom_site_fract_x
_atom_site_fract_y
_atom_site_fract_z
Si Si1 0.177443 0.393464 0.501753
Si Si2 0.576545 0.923457 0.076544
Si Si3 0.327961 0.672041 0.827961
Si Si4 0.293222 0.615580 0.439090
Si Si5 0.750000 0.250000 0.750000
Si Si6 0.500000 0.000000 0.500000
O O1 0.139056 0.422769 0.549539
O O2 0.233878 0.372093 0.531771
O O3 0.192725 0.436894 0.451345
O O4 0.144435 0.340599 0.476686
O O5 0.538249 0.961753 0.038249
O O6 0.357764 0.709812 0.876330
O O7 0.289062 0.710940 0.789061
#
# Coordination Sequence:
#
# PCOD8331079 Si02
#       6
#    96  32  32  96   8   8
#     4  11  23  41  64  91 124 162 208 261 317 382
#     4  12  24  37  62  94 120 162 211 254 313 384
#     4   9  24  43  62  91 126 165 211 260 319 384
#     4  10  23  43  63  89 126 165 207 259 317 385
#     4  12  24  40  68  94 132 168 208 284 328 354
#     4  12  24  40  56  82 132 168 196 248 304 366
#
# _framework density 20.645420999999999
#
# number of rings (size 3 to 8) (size 9 to 14) (size 15 to 20)
#    0.000    1.412    0.000    4.941    0.000   12.706 
#    0.000    0.000    0.000    0.000    0.000    0.000 
#    0.000    0.000    0.000    0.000    0.000    0.000 
#
# Total GULP energy -843529.874702 kJ/mol
# GULP energy per Si atom -12404.851099 kJ/mol
# Density = 2.059843 g / cm^3
# Si number density = 20.645421 Si / 1000 Ang^3
#
#
#
# Elastic Constant Matrix: (Units=GPa)
#
#
# Indices 1 2 3 4 5 6 
#
# 1 89.0585 28.4410 28.4390 0.0000 0.0000 0.0000
# 2 28.4410 89.0585 28.4390 0.0000 0.0000 0.0000
# 3 28.4390 28.4390 89.0563 0.0000 0.0000 0.0000
# 4 0.0000 0.0000 0.0000 31.1764 0.0000 0.0000
# 5 0.0000 0.0000 0.0000 0.0000 31.1764 0.0000
# 6 0.0000 0.0000 0.0000 0.0000 0.0000 31.1767
#
#
#
# Elastic Compliance Matrix: (Units=1/GPa)
#
#
# Indices 1 2 3 4 5 6 
#
# 1 0.013282 -0.003215 -0.003215 0.000000 0.000000 0.000000
# 2 -0.003215 0.013282 -0.003215 0.000000 0.000000 0.000000
# 3 -0.003215 -0.003215 0.013282 0.000000 0.000000 0.000000
# 4 0.000000 0.000000 0.000000 0.032076 0.000000 0.000000
# 5 0.000000 0.000000 0.000000 0.000000 0.032076 0.000000
# 6 0.000000 0.000000 0.000000 0.000000 0.000000 0.032075
#
#
# Mechanical properties :
#
#
# Convention : Reuss Voigt Hill
#
# Bulk Modulus (GPa) = 48.64569 48.64569 48.64569
# Shear Modulus (GPa) = 30.82363 30.82952 30.82657
#
# Velocity S-wave (km/s) = 3.86813 3.86850 3.86831
# Velocity P-wave (km/s) = 6.60027 6.60055 6.60041
#
# Compressibility (1/GPa) = 0.02055680
#
# Stress axis : x y z
#
# Youngs Moduli (GPa) = 75.29069 75.29069 75.28981
#
# Poissons Ratio (x) = 0.24206 0.24204
# Poissons Ratio (y) = 0.24206 0.24204
# Poissons Ratio (z) = 0.24204 0.24204
#
# Static dielectric constant tensor:
#      x y z
#    x 3.891400 0.000000 0.000000 
#    y 0.000000 3.891400 0.000000 
#    z 0.000000 0.000000 3.891400 
# 
# 
# High freq. dielectric constant tensor:
#      x y z
#    x 1.816390 0.000000 0.000000 
#    y 0.000000 1.816390 0.000000 
#    z 0.000000 0.000000 1.816390 
# 
# From -- ./inp_files/439.got.cif
#   From: 2010.03.12/outbox.cif.g09.slc.cpg/sg219_cif.got.tgz:439.got - 2010.03.30 09:07:44.
