data_PCOD8331114
_publ_section_title
;
Structure prediction by ZEFSAII (Michael W. Deem and Ramdas Pophale) SiO2 
 PCOD8331114
Probable space group: P M 3 M
;
_chemical_formula_sum "Si O2"
_cell_formula_units_Z 168
_cell_length_a 22.080838
_cell_length_b 22.080838
_cell_length_c 22.080838
_cell_angle_alpha 90.000000
_cell_angle_beta 90.000000
_cell_angle_gamma 90.000000
_cell_volume 10765.808600
_symmetry_space_group_name_H-M "P M 3 M"
_symmetry_group_IT_number 221
_symmetry_cell_setting 'cubic'
loop_
_space_group_symop_operation_xyz
x,y,z
-y,x,z
-x,-y,z
y,-x,z
x,-z,y
x,-y,-z
x,z,-y
z,y,-x
-x,y,-z
-z,y,x
z,x,y
y,z,x
-y,-z,x
z,-x,-y
-y,z,-x
-z,-x,y
-z,x,-y
y,-z,-x
y,x,-z
-y,-x,-z
-x,z,y
-x,-z,-y
z,-y,x
-z,-y,-x
-x,-y,-z
y,-x,-z
x,y,-z
-y,x,-z
-x,z,-y
-x,y,z
-x,-z,y
-z,-y,x
x,-y,z
z,-y,-x
-z,-x,-y
-y,-z,-x
y,z,-x
-z,x,y
y,-z,x
z,x,-y
z,-x,y
-y,z,x
-y,-x,z
y,x,z
x,-z,-y
x,z,y
-z,y,-x
z,y,x
loop_
_atom_site_type_symbol
_atom_site_label
_atom_site_fract_x
_atom_site_fract_y
_atom_site_fract_z
Si Si1 0.166902 0.833098 0.571870
Si Si2 0.735128 0.168311 0.932117
Si Si3 0.428231 0.931971 0.068029
Si Si4 0.000000 0.428849 0.332322
Si Si5 0.639347 0.897164 0.734902
O O1 0.169350 0.830651 0.500000
O O2 0.117070 0.882931 0.594714
O O3 0.232922 0.846597 0.598782
O O4 0.796983 0.203018 0.914241
O O5 0.723714 0.113392 0.886609
O O6 0.679910 0.215432 0.931008
O O7 0.740033 0.141998 0.000000
O O8 0.500000 0.932175 0.067826
O O9 0.405108 0.000000 0.085365
O O10 0.942207 0.408430 0.294539
O O11 0.000000 0.500000 0.341521
O O12 0.000000 0.398385 0.398385
O O13 0.683053 0.868604 0.683053
#
# Coordination Sequence:
#
# PCOD8331114 Si02
#       5
#    24  48  24  24  48
#     4  11  21  32  51  74  94 126 167 201 242 297
#     4  10  19  33  51  69  93 123 162 204 247 302
#     4   8  16  29  42  62  94 126 158 199 247 299
#     4  10  20  35  54  72  97 127 155 199 244 282
#     4  10  20  34  48  69  95 123 160 196 240 284
#
# _framework density 15.604958999999999
#
# number of rings (size 3 to 8) (size 9 to 14) (size 15 to 20)
#    0.000    2.143    2.857    1.571    2.000    0.429 
#    0.857    0.000    0.000    0.000    0.000    0.000 
#    0.000    0.000    0.000    8.857    0.000    0.000 
#
# Total GULP energy -2082355.503165 kJ/mol
# GULP energy per Si atom -12394.973233 kJ/mol
# Density = 1.556944 g / cm^3
# Si number density = 15.604959 Si / 1000 Ang^3
#
#
#
# Elastic Constant Matrix: (Units=GPa)
#
#
# Indices 1 2 3 4 5 6 
#
# 1 96.3902 51.5922 51.5922 0.0000 0.0000 0.0000
# 2 51.5922 96.3902 51.5922 0.0000 0.0000 0.0000
# 3 51.5922 51.5922 96.3902 0.0000 0.0000 0.0000
# 4 0.0000 0.0000 0.0000 4.9366 0.0000 0.0000
# 5 0.0000 0.0000 0.0000 0.0000 4.9366 0.0000
# 6 0.0000 0.0000 0.0000 0.0000 0.0000 4.9366
#
#
#
# Elastic Compliance Matrix: (Units=1/GPa)
#
#
# Indices 1 2 3 4 5 6 
#
# 1 0.016552 -0.005771 -0.005771 0.000000 0.000000 0.000000
# 2 -0.005771 0.016552 -0.005771 0.000000 0.000000 0.000000
# 3 -0.005771 -0.005771 0.016552 0.000000 0.000000 0.000000
# 4 0.000000 0.000000 0.000000 0.202569 0.000000 0.000000
# 5 0.000000 0.000000 0.000000 0.000000 0.202569 0.000000
# 6 0.000000 0.000000 0.000000 0.000000 0.000000 0.202569
#
#
# Mechanical properties :
#
#
# Convention : Reuss Voigt Hill
#
# Bulk Modulus (GPa) = 66.52484 66.52484 66.52484
# Shear Modulus (GPa) = 7.17364 11.92156 9.54760
#
# Velocity S-wave (km/s) = 2.14639 2.76698 2.47621
# Velocity P-wave (km/s) = 6.99041 7.27539 7.13432
#
# Compressibility (1/GPa) = 0.01503198
#
# Stress axis : x y z
#
# Youngs Moduli (GPa) = 60.41628 60.41628 60.41628
#
# Poissons Ratio (x) = 0.34864 0.34864
# Poissons Ratio (y) = 0.34864 0.34864
# Poissons Ratio (z) = 0.34864 0.34864
#
# Static dielectric constant tensor:
#      x y z
#    x 2.990480 0.000000 0.000000 
#    y 0.000000 2.990480 0.000000 
#    z 0.000000 0.000000 2.990480 
# 
# 
# High freq. dielectric constant tensor:
#      x y z
#    x 1.587130 0.000000 0.000000 
#    y 0.000000 1.587130 0.000000 
#    z 0.000000 0.000000 1.587130 
# 
# From -- ./inp_files/426.got.cif
#   From: 2010.03.12/outbox.cif.g09.slc.cpg/sg221_cif.got.tgz:426.got - 2010.03.30 09:08:03.
