data_PCOD8331128
_publ_section_title
;
Structure prediction by ZEFSAII (Michael W. Deem and Ramdas Pophale) SiO2 
 PCOD8331128
Probable space group: P N 3 N
;
_chemical_formula_sum "Si O2"
_cell_formula_units_Z 168
_cell_length_a 19.749374
_cell_length_b 19.749374
_cell_length_c 19.749374
_cell_angle_alpha 90.000000
_cell_angle_beta 90.000000
_cell_angle_gamma 90.000000
_cell_volume 7703.001861
_symmetry_space_group_name_H-M "P N 3 N"
_symmetry_group_IT_number 222
_space_group.IT_coordinate_system_code '2'
_symmetry_cell_setting 'cubic'
loop_
_space_group_symop_operation_xyz
x,y,z
1/2-y,x,z
1/2-x,1/2-y,z
y,1/2-x,z
x,1/2-z,y
x,1/2-y,1/2-z
x,z,1/2-y
z,y,1/2-x
1/2-x,y,1/2-z
1/2-z,y,x
z,x,y
y,z,x
1/2-y,1/2-z,x
z,1/2-x,1/2-y
1/2-y,z,1/2-x
1/2-z,1/2-x,y
1/2-z,x,1/2-y
y,1/2-z,1/2-x
y,x,1/2-z
1/2-y,1/2-x,1/2-z
1/2-x,z,y
1/2-x,1/2-z,1/2-y
z,1/2-y,x
1/2-z,1/2-y,1/2-x
-x,-y,-z
1/2+y,-x,-z
1/2+x,1/2+y,-z
-y,1/2+x,-z
-x,1/2+z,-y
-x,1/2+y,1/2+z
-x,-z,1/2+y
-z,-y,1/2+x
1/2+x,-y,1/2+z
1/2+z,-y,-x
-z,-x,-y
-y,-z,-x
1/2+y,1/2+z,-x
-z,1/2+x,1/2+y
1/2+y,-z,1/2+x
1/2+z,1/2+x,-y
1/2+z,-x,1/2+y
-y,1/2+z,1/2+x
-y,-x,1/2+z
1/2+y,1/2+x,1/2+z
1/2+x,-z,-y
1/2+x,1/2+z,1/2+y
-z,1/2+y,-x
1/2+z,1/2+y,1/2+x
loop_
_atom_site_type_symbol
_atom_site_label
_atom_site_fract_x
_atom_site_fract_y
_atom_site_fract_z
Si Si1 0.750000 0.861714 0.250000
Si Si2 0.607164 0.435456 0.249999
Si Si3 0.749999 0.527987 0.859765
Si Si4 0.891313 0.108687 0.000001
O O1 0.682674 0.817327 0.250000
O O2 0.750000 0.907021 0.316832
O O3 0.552091 0.375560 0.249998
O O4 0.595133 0.482979 0.313805
O O5 0.595136 0.482982 0.186196
O O6 0.816687 0.545764 0.816689
O O7 0.750000 0.571684 0.928317
O O8 0.912895 0.064129 0.064130
#
# Coordination Sequence:
#
# PCOD8331128 Si02
#       4
#    24  48  48  48
#     4  11  22  39  64  94 128 166 210 260 314 372
#     4  12  25  42  65  91 126 166 210 261 313 372
#     4  11  23  41  65  94 128 166 209 257 311 371
#     4  12  25  43  66  94 128 166 210 259 313 372
#
# _framework density 21.809678999999999
#
# number of rings (size 3 to 8) (size 9 to 14) (size 15 to 20)
#    0.000    0.429    0.000   10.286    0.000    2.286 
#    0.000    5.714    0.000    2.286    0.000    0.000 
#    0.000    0.000    0.000    0.000    0.000    0.000 
#
# Total GULP energy -2084543.515578 kJ/mol
# GULP energy per Si atom -12407.997117 kJ/mol
# Density = 2.176004 g / cm^3
# Si number density = 21.809679 Si / 1000 Ang^3
#
#
#
# Elastic Constant Matrix: (Units=GPa)
#
#
# Indices 1 2 3 4 5 6 
#
# 1 124.2338 48.1903 48.1903 0.0000 0.0000 0.0000
# 2 48.1903 124.2338 48.1903 0.0000 0.0000 0.0000
# 3 48.1903 48.1903 124.2338 0.0000 0.0000 0.0000
# 4 0.0000 0.0000 0.0000 -647.7475 0.0000 0.0000
# 5 0.0000 0.0000 0.0000 0.0000 -647.7475 0.0000
# 6 0.0000 0.0000 0.0000 0.0000 0.0000 -647.7475
#
#
#
# Elastic Compliance Matrix: (Units=1/GPa)
#
#
# Indices 1 2 3 4 5 6 
#
# 1 0.010278 -0.002873 -0.002873 0.000000 0.000000 0.000000
# 2 -0.002873 0.010278 -0.002873 0.000000 0.000000 0.000000
# 3 -0.002873 -0.002873 0.010278 0.000000 0.000000 0.000000
# 4 0.000000 0.000000 0.000000 -0.001544 0.000000 0.000000
# 5 0.000000 0.000000 0.000000 0.000000 -0.001544 0.000000
# 6 0.000000 0.000000 0.000000 0.000000 0.000000 -0.001544
#
#
# Mechanical properties :
#
#
# Convention : Reuss Voigt Hill
#
# Bulk Modulus (GPa) = 73.53815 73.53815 73.53815
# Shear Modulus (GPa) = 104.23163 -373.43983 -134.60410
#
# Velocity S-wave (km/s) = 6.92064 -13.09956 -7.86458
# Velocity P-wave (km/s) = 9.88188 13.96447 6.97692
#
# Compressibility (1/GPa) = 0.01359838
#
# Stress axis : x y z
#
# Youngs Moduli (GPa) = 97.29660 97.29660 97.29660
#
# Poissons Ratio (x) = 0.27949 0.27949
# Poissons Ratio (y) = 0.27949 0.27949
# Poissons Ratio (z) = 0.27949 0.27949
#
# Static dielectric constant tensor:
#      x y z
#    x 3.938260 0.000000 0.000000 
#    y 0.000000 3.938260 0.000000 
#    z 0.000000 0.000000 3.938260 
# 
# 
# High freq. dielectric constant tensor:
#      x y z
#    x 1.869030 0.000000 0.000000 
#    y 0.000000 1.869030 0.000000 
#    z 0.000000 0.000000 1.869030 
# 
# From -- ./inp_files/319.got.cif
#   From: 2010.03.12/outbox.cif.g09.slc.cpg/sg222_cif.got.tgz:319.got - 2010.03.30 09:08:40.
