data_PCOD8331001
_publ_section_title
;
Structure prediction by ZEFSAII (Michael W. Deem and Ramdas Pophale) SiO2 
 PCOD8331001
Probable space group: P 43 3 2
;
_chemical_formula_sum "Si O2"
_cell_formula_units_Z 168
_cell_length_a 20.752135
_cell_length_b 20.752135
_cell_length_c 20.752135
_cell_angle_alpha 90.000000
_cell_angle_beta 90.000000
_cell_angle_gamma 90.000000
_cell_volume 8936.929912
_symmetry_space_group_name_H-M "P 43 3 2"
_symmetry_group_IT_number 212
_symmetry_cell_setting 'cubic'
loop_
_space_group_symop_operation_xyz
x,y,z
3/4-y,1/4+x,3/4+z
1/2-x,-y,1/2+z
3/4+y,3/4-x,1/4+z
3/4+x,3/4-z,1/4+y
1/2+x,1/2-y,-z
1/4+x,3/4+z,3/4-y
1/4+z,3/4+y,3/4-x
-x,1/2+y,1/2-z
3/4-z,1/4+y,3/4+x
z,x,y
y,z,x
1/2-y,-z,1/2+x
1/2+z,1/2-x,-y
-y,1/2+z,1/2-x
1/2-z,-x,1/2+y
-z,1/2+x,1/2-y
1/2+y,1/2-z,-x
1/4+y,3/4+x,3/4-z
1/4-y,1/4-x,1/4-z
3/4-x,1/4+z,3/4+y
1/4-x,1/4-z,1/4-y
3/4+z,3/4-y,1/4+x
1/4-z,1/4-y,1/4-x
loop_
_atom_site_type_symbol
_atom_site_label
_atom_site_fract_x
_atom_site_fract_y
_atom_site_fract_z
Si Si1 0.213896 0.520561 0.155748
Si Si2 0.276877 0.906936 0.067048
Si Si3 0.275470 0.231173 0.949873
Si Si4 0.178128 0.379357 0.121544
Si Si5 0.148165 0.859853 0.536472
Si Si6 0.021825 0.522884 0.591918
Si Si7 0.981585 0.767726 0.944810
O O1 0.153326 0.566385 0.173321
O O2 0.181786 0.453583 0.138426
O O3 0.256729 0.519254 0.220564
O O4 0.256754 0.540422 0.094136
O O5 0.296302 0.953698 0.125000
O O6 0.204453 0.881141 0.070916
O O7 0.278948 0.950756 0.003595
O O8 0.332472 0.247519 0.900816
O O9 0.224486 0.184882 0.914733
O O10 0.299525 0.191503 0.011947
O O11 0.112190 0.354473 0.152297
O O12 0.236914 0.344099 0.158092
O O13 0.971634 0.464762 0.575169
O O14 0.056158 0.501791 0.657732
O O15 0.989143 0.739143 0.875000
#
# Coordination Sequence:
#
# PCOD8331001 Si02
#       7
#    24  24  24  24  24  24  24
#     4  11  23  41  63  91 126 163 205 264 315 383
#     4  12  23  39  61  89 125 165 207 251 316 380
#     4  10  21  35  61  84 114 157 202 247 302 352
#     4  11  22  38  59  88 124 158 204 254 309 371
#     4  10  20  38  57  86 115 155 203 252 292 358
#     4   9  22  41  61  90 122 158 205 259 310 369
#     4  11  22  41  67  91 123 163 210 259 320 384
#
# _framework density 18.798401999999999
#
# number of rings (size 3 to 8) (size 9 to 14) (size 15 to 20)
#    0.286    1.143    4.286    1.571    2.000    1.143 
#    0.857    0.000    0.000    0.000    0.000    0.000 
#    0.000    0.000    0.000    0.000    0.000    0.000 
#
# Total GULP energy -2082342.617342 kJ/mol
# GULP energy per Si atom -12394.896532 kJ/mol
# Density = 1.875562 g / cm^3
# Si number density = 18.798402 Si / 1000 Ang^3
#
#
#
# Elastic Constant Matrix: (Units=GPa)
#
#
# Indices 1 2 3 4 5 6 
#
# 1 62.7642 26.6551 26.6551 0.0000 0.0000 0.0000
# 2 26.6551 62.7642 26.6551 0.0000 0.0000 0.0000
# 3 26.6551 26.6551 62.7642 0.0000 0.0000 0.0000
# 4 0.0000 0.0000 0.0000 25.8811 0.0000 0.0000
# 5 0.0000 0.0000 0.0000 0.0000 25.8811 0.0000
# 6 0.0000 0.0000 0.0000 0.0000 0.0000 25.8811
#
#
#
# Elastic Compliance Matrix: (Units=1/GPa)
#
#
# Indices 1 2 3 4 5 6 
#
# 1 0.021334 -0.006360 -0.006360 0.000000 0.000000 0.000000
# 2 -0.006360 0.021334 -0.006360 0.000000 0.000000 0.000000
# 3 -0.006360 -0.006360 0.021334 0.000000 0.000000 0.000000
# 4 0.000000 0.000000 0.000000 0.038638 0.000000 0.000000
# 5 0.000000 0.000000 0.000000 0.000000 0.038638 0.000000
# 6 0.000000 0.000000 0.000000 0.000000 0.000000 0.038638
#
#
# Mechanical properties :
#
#
# Convention : Reuss Voigt Hill
#
# Bulk Modulus (GPa) = 38.69144 38.69144 38.69144
# Shear Modulus (GPa) = 22.05656 22.75050 22.40353
#
# Velocity S-wave (km/s) = 3.42909 3.48262 3.45596
# Velocity P-wave (km/s) = 6.02538 6.06618 6.04581
#
# Compressibility (1/GPa) = 0.02584551
#
# Stress axis : x y z
#
# Youngs Moduli (GPa) = 46.87291 46.87291 46.87291
#
# Poissons Ratio (x) = 0.29809 0.29809
# Poissons Ratio (y) = 0.29809 0.29809
# Poissons Ratio (z) = 0.29809 0.29809
#
# Static dielectric constant tensor:
#      x y z
#    x 3.583460 0.000000 0.000000 
#    y 0.000000 3.583460 0.000000 
#    z 0.000000 0.000000 3.583460 
# 
# 
# High freq. dielectric constant tensor:
#      x y z
#    x 1.732060 0.000000 0.000000 
#    y 0.000000 1.732060 0.000000 
#    z 0.000000 0.000000 1.732060 
# 
# From -- ./inp_files/677.got.cif
#   From: 2010.03.12/outbox.cif.g09.slc.cpg/sg212_cif.got.tgz:677.got - 2010.03.30 09:05:11.
