data_PCOD8331059
_publ_section_title
;
Structure prediction by ZEFSAII (Michael W. Deem and Ramdas Pophale) SiO2 
 PCOD8331059
Probable space group: P -4 3 N
;
_chemical_formula_sum "Si O2"
_cell_formula_units_Z 112
_cell_length_a 18.672555
_cell_length_b 18.672555
_cell_length_c 18.672555
_cell_angle_alpha 90.000000
_cell_angle_beta 90.000000
_cell_angle_gamma 90.000000
_cell_volume 6510.453509
_symmetry_space_group_name_H-M "P -4 3 N"
_symmetry_group_IT_number 218
_symmetry_cell_setting 'cubic'
loop_
_space_group_symop_operation_xyz
x,y,z
1/2+y,1/2-x,1/2-z
-x,-y,z
1/2-y,1/2+x,1/2-z
1/2-x,1/2+z,1/2-y
x,-y,-z
1/2-x,1/2-z,1/2+y
1/2-z,1/2-y,1/2+x
-x,y,-z
1/2+z,1/2-y,1/2-x
z,x,y
y,z,x
-y,-z,x
z,-x,-y
-y,z,-x
-z,-x,y
-z,x,-y
y,-z,-x
1/2-y,1/2-x,1/2+z
1/2+y,1/2+x,1/2+z
1/2+x,1/2-z,1/2-y
1/2+x,1/2+z,1/2+y
1/2-z,1/2+y,1/2-x
1/2+z,1/2+y,1/2+x
loop_
_atom_site_type_symbol
_atom_site_label
_atom_site_fract_x
_atom_site_fract_y
_atom_site_fract_z
Si Si1 0.199012 0.199012 0.199012
Si Si2 0.346181 0.920356 0.317340
Si Si3 0.302783 0.823172 0.079788
Si Si4 0.800973 0.199028 0.199028
Si Si5 0.153824 0.182664 0.579630
Si Si6 0.579773 0.676825 0.802777
O O1 0.249992 0.249992 0.249992
O O2 0.156749 0.138052 0.242876
O O3 0.262128 0.922739 0.303661
O O4 0.383733 0.883719 0.250004
O O5 0.358371 0.876489 0.391004
O O6 0.377531 0.999994 0.327871
O O7 0.242892 0.843248 0.138077
O O8 0.376500 0.858366 0.109002
O O9 0.287692 0.854010 0.000009
O O10 0.237877 0.196339 0.577241
#
# Coordination Sequence:
#
# PCOD8331059 Si02
#       6
#     8  24  24   8  24  24
#     4  12  15  33  54  69  96 135 169 212 262 315
#     4  10  18  30  48  72 102 136 171 206 251 307
#     4  10  18  29  50  75  96 127 169 218 261 296
#     4  12  15  33  54  69  96 135 169 212 262 315
#     4  10  18  30  48  72 102 136 171 206 251 307
#     4  10  18  29  50  75  96 127 169 218 261 296
#
# _framework density 17.203102999999999
#
# number of rings (size 3 to 8) (size 9 to 14) (size 15 to 20)
#    0.000    1.714    8.571    0.000    0.000    1.286 
#    0.000    4.286    0.000    5.143    0.000    3.000 
#    0.000    0.000    0.000    1.286    0.000    0.000 
#
# Total GULP energy -1387647.721611 kJ/mol
# GULP energy per Si atom -12389.711800 kJ/mol
# Density = 1.716395 g / cm^3
# Si number density = 17.203103 Si / 1000 Ang^3
#
#
#
# Elastic Constant Matrix: (Units=GPa)
#
#
# Indices 1 2 3 4 5 6 
#
# 1 84.0666 44.3756 44.3753 0.0000 0.0000 0.0000
# 2 44.3756 84.0666 44.3753 0.0000 0.0000 0.0000
# 3 44.3753 44.3753 84.0669 0.0000 0.0000 0.0000
# 4 0.0000 0.0000 0.0000 8.2113 0.0000 0.0000
# 5 0.0000 0.0000 0.0000 0.0000 8.2113 0.0000
# 6 0.0000 0.0000 0.0000 0.0000 0.0000 8.2112
#
#
#
# Elastic Compliance Matrix: (Units=1/GPa)
#
#
# Indices 1 2 3 4 5 6 
#
# 1 0.018725 -0.006469 -0.006469 0.000000 0.000000 0.000000
# 2 -0.006469 0.018725 -0.006469 0.000000 0.000000 0.000000
# 3 -0.006469 -0.006469 0.018725 0.000000 0.000000 0.000000
# 4 0.000000 0.000000 0.000000 0.121784 0.000000 0.000000
# 5 0.000000 0.000000 0.000000 0.000000 0.121784 0.000000
# 6 0.000000 0.000000 0.000000 0.000000 0.000000 0.121785
#
#
# Mechanical properties :
#
#
# Convention : Reuss Voigt Hill
#
# Bulk Modulus (GPa) = 57.60582 57.60582 57.60582
# Shear Modulus (GPa) = 10.72661 12.86501 11.79581
#
# Velocity S-wave (km/s) = 2.49976 2.73762 2.62139
# Velocity P-wave (km/s) = 6.47226 6.59933 6.53610
#
# Compressibility (1/GPa) = 0.01735936
#
# Stress axis : x y z
#
# Youngs Moduli (GPa) = 53.40405 53.40405 53.40460
#
# Poissons Ratio (x) = 0.34549 0.34549
# Poissons Ratio (y) = 0.34549 0.34549
# Poissons Ratio (z) = 0.34549 0.34549
#
# Static dielectric constant tensor:
#      x y z
#    x 3.361410 0.000000 0.000000 
#    y 0.000000 3.361410 0.000000 
#    z 0.000000 0.000000 3.361410 
# 
# 
# High freq. dielectric constant tensor:
#      x y z
#    x 1.644230 0.000000 0.000000 
#    y 0.000000 1.644230 0.000000 
#    z 0.000000 0.000000 1.644230 
# 
# From -- ./inp_files/716.got.cif
#   From: 2010.03.12/outbox.cif.g09.slc.cpg/sg218_cif.got.tgz:716.got - 2010.03.30 09:07:27.
