data_PCOD8331157
_publ_section_title
;
Structure prediction by ZEFSAII (Michael W. Deem and Ramdas Pophale) SiO2 
 PCOD8331157
Probable space group: I M 3 M
;
_chemical_formula_sum "Si O2"
_cell_formula_units_Z 432
_cell_length_a 29.788318
_cell_length_b 29.788318
_cell_length_c 29.788318
_cell_angle_alpha 90.000000
_cell_angle_beta 90.000000
_cell_angle_gamma 90.000000
_cell_volume 26432.481949
_symmetry_space_group_name_H-M "I M 3 M"
_symmetry_group_IT_number 229
_symmetry_cell_setting 'cubic'
loop_
_space_group_symop_operation_xyz
x,y,z
-y,x,z
-x,-y,z
y,-x,z
x,-z,y
x,-y,-z
x,z,-y
z,y,-x
-x,y,-z
-z,y,x
z,x,y
y,z,x
-y,-z,x
z,-x,-y
-y,z,-x
-z,-x,y
-z,x,-y
y,-z,-x
y,x,-z
-y,-x,-z
-x,z,y
-x,-z,-y
z,-y,x
-z,-y,-x
-x,-y,-z
y,-x,-z
x,y,-z
-y,x,-z
-x,z,-y
-x,y,z
-x,-z,y
-z,-y,x
x,-y,z
z,-y,-x
-z,-x,-y
-y,-z,-x
y,z,-x
-z,x,y
y,-z,x
z,x,-y
z,-x,y
-y,z,x
-y,-x,z
y,x,z
x,-z,-y
x,z,y
-z,y,-x
z,y,x
1/2+x,1/2+y,1/2+z
1/2-y,1/2+x,1/2+z
1/2-x,1/2-y,1/2+z
1/2+y,1/2-x,1/2+z
1/2+x,1/2-z,1/2+y
1/2+x,1/2-y,1/2-z
1/2+x,1/2+z,1/2-y
1/2+z,1/2+y,1/2-x
1/2-x,1/2+y,1/2-z
1/2-z,1/2+y,1/2+x
1/2+z,1/2+x,1/2+y
1/2+y,1/2+z,1/2+x
1/2-y,1/2-z,1/2+x
1/2+z,1/2-x,1/2-y
1/2-y,1/2+z,1/2-x
1/2-z,1/2-x,1/2+y
1/2-z,1/2+x,1/2-y
1/2+y,1/2-z,1/2-x
1/2+y,1/2+x,1/2-z
1/2-y,1/2-x,1/2-z
1/2-x,1/2+z,1/2+y
1/2-x,1/2-z,1/2-y
1/2+z,1/2-y,1/2+x
1/2-z,1/2-y,1/2-x
1/2-x,1/2-y,1/2-z
1/2+y,1/2-x,1/2-z
1/2+x,1/2+y,1/2-z
1/2-y,1/2+x,1/2-z
1/2-x,1/2+z,1/2-y
1/2-x,1/2+y,1/2+z
1/2-x,1/2-z,1/2+y
1/2-z,1/2-y,1/2+x
1/2+x,1/2-y,1/2+z
1/2+z,1/2-y,1/2-x
1/2-z,1/2-x,1/2-y
1/2-y,1/2-z,1/2-x
1/2+y,1/2+z,1/2-x
1/2-z,1/2+x,1/2+y
1/2+y,1/2-z,1/2+x
1/2+z,1/2+x,1/2-y
1/2+z,1/2-x,1/2+y
1/2-y,1/2+z,1/2+x
1/2-y,1/2-x,1/2+z
1/2+y,1/2+x,1/2+z
1/2+x,1/2-z,1/2-y
1/2+x,1/2+z,1/2+y
1/2-z,1/2+y,1/2-x
1/2+z,1/2+y,1/2+x
loop_
_atom_site_type_symbol
_atom_site_label
_atom_site_fract_x
_atom_site_fract_y
_atom_site_fract_z
Si Si1 0.448956 0.216508 0.377609
Si Si2 0.450451 0.890210 0.279613
Si Si3 0.323997 0.176003 0.750000
Si Si4 0.918639 0.295002 0.219684
Si Si5 0.619301 0.450669 0.889699
O O1 0.500000 0.236081 0.381202
O O2 0.416842 0.237328 0.416842
O O3 0.427357 0.227903 0.328842
O O4 0.450483 0.163619 0.384151
O O5 0.500000 0.908379 0.267129
O O6 0.412557 0.912557 0.250000
O O7 0.452666 0.836333 0.273161
O O8 0.438035 0.903801 0.330409
O O9 0.319752 0.215917 0.784084
O O10 0.318707 0.130024 0.777708
O O11 0.926199 0.257747 0.257747
O O12 0.606299 0.500000 0.907909
O O13 0.585389 0.414612 0.911287
#
# Coordination Sequence:
#
# PCOD8331157 Si02
#       5
#    96  96  48  96  96
#     4   9  17  29  45  66  93 123 157 196 236 279
#     4  10  20  33  46  64  89 117 151 189 228 271
#     4  10  19  30  46  68  95 128 162 194 228 274
#     4  10  19  31  48  69  94 125 157 194 239 283
#     4   8  15  27  44  65  88 113 140 176 221 267
#
# _framework density 16.343527999999999
#
# number of rings (size 3 to 8) (size 9 to 14) (size 15 to 20)
#    0.000    2.667    1.111    2.778    0.000    4.222 
#    0.000    2.222    0.000    0.444    0.000    0.000 
#    0.000    0.000    0.000    4.889    0.000    3.333 
#
# Total GULP energy -2676892.556660 kJ/mol
# GULP energy per Si atom -12393.021096 kJ/mol
# Density = 1.630633 g / cm^3
# Si number density = 16.343528 Si / 1000 Ang^3
#
#
#
# Elastic Constant Matrix: (Units=GPa)
#
#
# Indices 1 2 3 4 5 6 
#
# 1 67.9117 43.5263 43.5263 0.0000 0.0000 0.0000
# 2 43.5263 67.9117 43.5263 0.0000 0.0000 0.0000
# 3 43.5263 43.5263 67.9117 0.0000 0.0000 0.0000
# 4 0.0000 0.0000 0.0000 10.5576 0.0000 0.0000
# 5 0.0000 0.0000 0.0000 0.0000 10.5576 0.0000
# 6 0.0000 0.0000 0.0000 0.0000 0.0000 10.5576
#
#
#
# Elastic Compliance Matrix: (Units=1/GPa)
#
#
# Indices 1 2 3 4 5 6 
#
# 1 0.029490 -0.011518 -0.011518 0.000000 0.000000 0.000000
# 2 -0.011518 0.029490 -0.011518 0.000000 0.000000 0.000000
# 3 -0.011518 -0.011518 0.029490 0.000000 0.000000 0.000000
# 4 0.000000 0.000000 0.000000 0.094718 0.000000 0.000000
# 5 0.000000 0.000000 0.000000 0.000000 0.094718 0.000000
# 6 0.000000 0.000000 0.000000 0.000000 0.000000 0.094718
#
#
# Mechanical properties :
#
#
# Convention : Reuss Voigt Hill
#
# Bulk Modulus (GPa) = 51.65473 51.65473 51.65473
# Shear Modulus (GPa) = 11.15604 11.21165 11.18384
#
# Velocity S-wave (km/s) = 2.61549 2.62200 2.61875
# Velocity P-wave (km/s) = 6.38712 6.39068 6.38890
#
# Compressibility (1/GPa) = 0.01935931
#
# Stress axis : x y z
#
# Youngs Moduli (GPa) = 33.91002 33.91002 33.91002
#
# Poissons Ratio (x) = 0.39059 0.39059
# Poissons Ratio (y) = 0.39059 0.39059
# Poissons Ratio (z) = 0.39059 0.39059
#
# Static dielectric constant tensor:
#      x y z
#    x 3.089120 0.000000 0.000000 
#    y 0.000000 3.089120 0.000000 
#    z 0.000000 0.000000 3.089120 
# 
# 
# High freq. dielectric constant tensor:
#      x y z
#    x 1.613390 0.000000 0.000000 
#    y 0.000000 1.613390 0.000000 
#    z 0.000000 0.000000 1.613390 
# 
# From -- ./inp_files/886.got.cif
#   From: 2010.03.12/outbox.cif.g09.slc.cpg/sg229_cif.got.tgz:886.got - 2010.03.30 09:10:17.
