data_PCOD8331020
_publ_section_title
;
Structure prediction by ZEFSAII (Michael W. Deem and Ramdas Pophale) SiO2 
 PCOD8331020
Probable space group: P -4 3 M
;
_chemical_formula_sum "Si O2"
_cell_formula_units_Z 168
_cell_length_a 23.124257
_cell_length_b 23.124257
_cell_length_c 23.124257
_cell_angle_alpha 90.000000
_cell_angle_beta 90.000000
_cell_angle_gamma 90.000000
_cell_volume 12365.263124
_symmetry_space_group_name_H-M "P -4 3 M"
_symmetry_group_IT_number 215
_symmetry_cell_setting 'cubic'
loop_
_space_group_symop_operation_xyz
x,y,z
y,-x,-z
-x,-y,z
-y,x,-z
-x,z,-y
x,-y,-z
-x,-z,y
-z,-y,x
-x,y,-z
z,-y,-x
z,x,y
y,z,x
-y,-z,x
z,-x,-y
-y,z,-x
-z,-x,y
-z,x,-y
y,-z,-x
-y,-x,z
y,x,z
x,-z,-y
x,z,y
-z,y,-x
z,y,x
loop_
_atom_site_type_symbol
_atom_site_label
_atom_site_fract_x
_atom_site_fract_y
_atom_site_fract_z
Si Si1 0.646583 0.839159 0.743348
Si Si2 0.761000 0.330170 0.853709
Si Si3 0.223712 0.590096 0.682859
Si Si4 0.621475 0.940336 0.151713
Si Si5 0.203331 0.936728 0.501497
Si Si6 0.071458 0.624815 0.162938
Si Si7 0.268875 0.483883 0.826651
O O1 0.659664 0.786069 0.786069
O O2 0.692949 0.840367 0.692949
O O3 0.650489 0.899692 0.778514
O O4 0.583471 0.830526 0.713615
O O5 0.724481 0.275520 0.874017
O O6 0.808253 0.308381 0.808253
O O7 0.720792 0.378209 0.824564
O O8 0.790772 0.354508 0.910643
O O9 0.228188 0.619100 0.619100
O O10 0.286287 0.595118 0.713714
O O11 0.202687 0.522746 0.680025
O O12 0.640923 0.906969 0.093031
O O13 0.552369 0.936631 0.156091
O O14 0.645590 0.005754 0.152806
O O15 0.167045 0.923835 0.444100
O O16 0.254252 0.889992 0.509175
O O17 0.233559 0.000000 0.500000
O O18 0.107579 0.646072 0.107579
O O19 0.210656 0.491410 0.789345
#
# Coordination Sequence:
#
# PCOD8331020 Si02
#       7
#    24  24  24  24  24  24  24
#     4   9  17  29  45  61  75  93 121 161 205 242
#     4   9  16  24  35  52  74  99 124 150 178 208
#     4   9  15  23  37  57  81 105 129 154 182 220
#     4  10  17  25  38  53  72  99 126 151 179 216
#     4   9  15  24  37  51  70  97 125 154 185 219
#     4   9  18  28  38  53  72  95 120 150 190 227
#     4   9  15  25  40  55  75 100 125 155 192 229
#
# _framework density 13.586448000000001
#
# number of rings (size 3 to 8) (size 9 to 14) (size 15 to 20)
#    0.000    2.857    1.429    2.571    0.000    2.000 
#    0.000    0.000    0.000    3.000    0.000    0.000 
#    0.000    0.000    0.000    3.286    0.000    0.000 
#
# Total GULP energy -2081971.207459 kJ/mol
# GULP energy per Si atom -12392.685759 kJ/mol
# Density = 1.355552 g / cm^3
# Si number density = 13.586448 Si / 1000 Ang^3
#
#
#
# Elastic Constant Matrix: (Units=GPa)
#
#
# Indices 1 2 3 4 5 6 
#
# 1 66.0047 30.5283 30.5283 0.0000 0.0000 0.0000
# 2 30.5283 66.0047 30.5283 0.0000 0.0000 0.0000
# 3 30.5283 30.5283 66.0047 0.0000 0.0000 0.0000
# 4 0.0000 0.0000 0.0000 15.1005 0.0000 0.0000
# 5 0.0000 0.0000 0.0000 0.0000 15.1005 0.0000
# 6 0.0000 0.0000 0.0000 0.0000 0.0000 15.1005
#
#
#
# Elastic Compliance Matrix: (Units=1/GPa)
#
#
# Indices 1 2 3 4 5 6 
#
# 1 0.021415 -0.006773 -0.006773 0.000000 0.000000 0.000000
# 2 -0.006773 0.021415 -0.006773 0.000000 0.000000 0.000000
# 3 -0.006773 -0.006773 0.021415 0.000000 0.000000 0.000000
# 4 0.000000 0.000000 0.000000 0.066223 0.000000 0.000000
# 5 0.000000 0.000000 0.000000 0.000000 0.066223 0.000000
# 6 0.000000 0.000000 0.000000 0.000000 0.000000 0.066223
#
#
# Mechanical properties :
#
#
# Convention : Reuss Voigt Hill
#
# Bulk Modulus (GPa) = 42.35378 42.35378 42.35378
# Shear Modulus (GPa) = 16.05550 16.15558 16.10554
#
# Velocity S-wave (km/s) = 3.44136 3.45207 3.44672
# Velocity P-wave (km/s) = 6.85797 6.86515 6.86156
#
# Compressibility (1/GPa) = 0.02361064
#
# Stress axis : x y z
#
# Youngs Moduli (GPa) = 46.69564 46.69564 46.69564
#
# Poissons Ratio (x) = 0.31625 0.31625
# Poissons Ratio (y) = 0.31625 0.31625
# Poissons Ratio (z) = 0.31625 0.31625
#
# Static dielectric constant tensor:
#      x y z
#    x 2.616260 0.000000 0.000000 
#    y 0.000000 2.616260 0.000000 
#    z 0.000000 0.000000 2.616260 
# 
# 
# High freq. dielectric constant tensor:
#      x y z
#    x 1.499930 0.000000 0.000000 
#    y 0.000000 1.499930 0.000000 
#    z 0.000000 0.000000 1.499930 
# 
# From -- ./inp_files/1017.got.cif
#   From: 2010.03.12/outbox.cif.g09.slc.cpg/sg215_cif.got.tgz:1017.got - 2010.03.30 09:06:09.
