data_PCOD8331078
_publ_section_title
;
Structure prediction by ZEFSAII (Michael W. Deem and Ramdas Pophale) SiO2 
 PCOD8331078
Probable space group: F -4 3 C
;
_chemical_formula_sum "Si O2"
_cell_formula_units_Z 352
_cell_length_a 26.453440
_cell_length_b 26.453440
_cell_length_c 26.453440
_cell_angle_alpha 90.000000
_cell_angle_beta 90.000000
_cell_angle_gamma 90.000000
_cell_volume 18511.706962
_symmetry_space_group_name_H-M "F -4 3 C"
_symmetry_group_IT_number 219
_symmetry_cell_setting 'cubic'
loop_
_space_group_symop_operation_xyz
x,y,z
y,-x,1/2-z
-x,-y,z
-y,x,1/2-z
-x,z,1/2-y
x,-y,-z
-x,-z,1/2+y
-z,-y,1/2+x
-x,y,-z
z,-y,1/2-x
z,x,y
y,z,x
-y,-z,x
z,-x,-y
-y,z,-x
-z,-x,y
-z,x,-y
y,-z,-x
-y,-x,1/2+z
y,x,1/2+z
x,-z,1/2-y
x,z,1/2+y
-z,y,1/2-x
z,y,1/2+x
x,1/2+y,1/2+z
y,1/2-x,-z
-x,1/2-y,1/2+z
-y,1/2+x,-z
-x,1/2+z,-y
x,1/2-y,1/2-z
-x,1/2-z,y
-z,1/2-y,x
-x,1/2+y,1/2-z
z,1/2-y,-x
z,1/2+x,1/2+y
y,1/2+z,1/2+x
-y,1/2-z,1/2+x
z,1/2-x,1/2-y
-y,1/2+z,1/2-x
-z,1/2-x,1/2+y
-z,1/2+x,1/2-y
y,1/2-z,1/2-x
-y,1/2-x,z
y,1/2+x,z
x,1/2-z,-y
x,1/2+z,y
-z,1/2+y,-x
z,1/2+y,x
1/2+x,y,1/2+z
1/2+y,-x,-z
1/2-x,-y,1/2+z
1/2-y,x,-z
1/2-x,z,-y
1/2+x,-y,1/2-z
1/2-x,-z,y
1/2-z,-y,x
1/2-x,y,1/2-z
1/2+z,-y,-x
1/2+z,x,1/2+y
1/2+y,z,1/2+x
1/2-y,-z,1/2+x
1/2+z,-x,1/2-y
1/2-y,z,1/2-x
1/2-z,-x,1/2+y
1/2-z,x,1/2-y
1/2+y,-z,1/2-x
1/2-y,-x,z
1/2+y,x,z
1/2+x,-z,-y
1/2+x,z,y
1/2-z,y,-x
1/2+z,y,x
1/2+x,1/2+y,z
1/2+y,1/2-x,1/2-z
1/2-x,1/2-y,z
1/2-y,1/2+x,1/2-z
1/2-x,1/2+z,1/2-y
1/2+x,1/2-y,-z
1/2-x,1/2-z,1/2+y
1/2-z,1/2-y,1/2+x
1/2-x,1/2+y,-z
1/2+z,1/2-y,1/2-x
1/2+z,1/2+x,y
1/2+y,1/2+z,x
1/2-y,1/2-z,x
1/2+z,1/2-x,-y
1/2-y,1/2+z,-x
1/2-z,1/2-x,y
1/2-z,1/2+x,-y
1/2+y,1/2-z,-x
1/2-y,1/2-x,1/2+z
1/2+y,1/2+x,1/2+z
1/2+x,1/2-z,1/2-y
1/2+x,1/2+z,1/2+y
1/2-z,1/2+y,1/2-x
1/2+z,1/2+y,1/2+x
loop_
_atom_site_type_symbol
_atom_site_label
_atom_site_fract_x
_atom_site_fract_y
_atom_site_fract_z
Si Si1 0.569627 0.930375 0.069626
Si Si2 0.179708 0.583087 0.967604
Si Si3 0.000000 0.000000 0.000000
Si Si4 0.214730 0.573651 0.576622
Si Si5 0.174611 0.034894 0.172624
Si Si6 0.750000 0.000000 0.250000
O O1 0.561317 0.945543 0.127858
O O2 0.534850 0.965152 0.034850
O O3 0.224449 0.575683 0.926946
O O4 0.194351 0.554275 0.020112
O O5 0.174682 0.643087 0.981040
O O6 0.198367 0.577817 0.635651
O O7 0.187750 0.617243 0.545319
O O8 0.207940 0.034376 0.223127
#
# Coordination Sequence:
#
# PCOD8331078 Si02
#       6
#    32  96   8  96  96  24
#     4  12  30  45  63  93 135 177 222 271 320 403
#     4  10  26  40  66  89 131 168 221 264 323 388
#     4  12  36  48  60  90 132 192 228 256 356 382
#     4  10  22  41  65  95 125 174 214 267 331 388
#     4  10  22  39  66  93 130 167 215 271 328 389
#     4  12  20  40  68  96 128 158 224 276 328 372
#
# _framework density 19.014994000000002
#
# number of rings (size 3 to 8) (size 9 to 14) (size 15 to 20)
#    1.636    0.000    2.727    0.545   11.455    0.545 
#    0.000    0.000    0.000    0.000    0.000    0.000 
#    0.000    0.000    0.000    0.000    0.000    0.000 
#
# Total GULP energy -1090493.964608 kJ/mol
# GULP energy per Si atom -12391.976871 kJ/mol
# Density = 1.897171 g / cm^3
# Si number density = 19.014994 Si / 1000 Ang^3
#
#
#
# Elastic Constant Matrix: (Units=GPa)
#
#
# Indices 1 2 3 4 5 6 
#
# 1 103.1888 39.3898 39.3895 0.0000 0.0000 0.0000
# 2 39.3898 103.1888 39.3895 0.0000 0.0000 0.0000
# 3 39.3895 39.3895 103.1892 0.0000 0.0000 0.0000
# 4 0.0000 0.0000 0.0000 27.2864 0.0000 0.0000
# 5 0.0000 0.0000 0.0000 0.0000 27.2864 0.0000
# 6 0.0000 0.0000 0.0000 0.0000 0.0000 27.2838
#
#
#
# Elastic Compliance Matrix: (Units=1/GPa)
#
#
# Indices 1 2 3 4 5 6 
#
# 1 0.012281 -0.003393 -0.003393 0.000000 0.000000 0.000000
# 2 -0.003393 0.012281 -0.003393 0.000000 0.000000 0.000000
# 3 -0.003393 -0.003393 0.012281 0.000000 0.000000 0.000000
# 4 0.000000 0.000000 0.000000 0.036648 0.000000 0.000000
# 5 0.000000 0.000000 0.000000 0.000000 0.036648 0.000000
# 6 0.000000 0.000000 0.000000 0.000000 0.000000 0.036652
#
#
# Mechanical properties :
#
#
# Convention : Reuss Voigt Hill
#
# Bulk Modulus (GPa) = 60.65605 60.65605 60.65605
# Shear Modulus (GPa) = 28.96117 29.13119 29.04618
#
# Velocity S-wave (km/s) = 3.90689 3.91834 3.91262
# Velocity P-wave (km/s) = 7.23326 7.24151 7.23739
#
# Compressibility (1/GPa) = 0.01648640
#
# Stress axis : x y z
#
# Youngs Moduli (GPa) = 81.42467 81.42467 81.42526
#
# Poissons Ratio (x) = 0.27627 0.27627
# Poissons Ratio (y) = 0.27627 0.27627
# Poissons Ratio (z) = 0.27626 0.27626
#
# Static dielectric constant tensor:
#      x y z
#    x 3.414110 0.000000 0.000000 
#    y 0.000000 3.414110 0.000000 
#    z 0.000000 0.000000 3.414100 
# 
# 
# High freq. dielectric constant tensor:
#      x y z
#    x 1.733770 0.000000 0.000000 
#    y 0.000000 1.733770 0.000000 
#    z 0.000000 0.000000 1.733770 
# 
# From -- ./inp_files/504.got.cif
#   From: 2010.03.12/outbox.cif.g09.slc.cpg/sg219_cif.got.tgz:504.got - 2010.03.30 09:07:44.
