data_PCOD8331015
_publ_section_title
;
Structure prediction by ZEFSAII (Michael W. Deem and Ramdas Pophale) SiO2 
 PCOD8331015
Probable space group: P 41 3 2
;
_chemical_formula_sum "Si O2"
_cell_formula_units_Z 116
_cell_length_a 17.989981
_cell_length_b 17.989981
_cell_length_c 17.989981
_cell_angle_alpha 90.000000
_cell_angle_beta 90.000000
_cell_angle_gamma 90.000000
_cell_volume 5822.266952
_symmetry_space_group_name_H-M "P 41 3 2"
_symmetry_group_IT_number 213
_symmetry_cell_setting 'cubic'
loop_
_space_group_symop_operation_xyz
x,y,z
1/4-y,3/4+x,1/4+z
1/2-x,-y,1/2+z
1/4+y,1/4-x,3/4+z
1/4+x,1/4-z,3/4+y
1/2+x,1/2-y,-z
3/4+x,1/4+z,1/4-y
3/4+z,1/4+y,1/4-x
-x,1/2+y,1/2-z
1/4-z,3/4+y,1/4+x
z,x,y
y,z,x
1/2-y,-z,1/2+x
1/2+z,1/2-x,-y
-y,1/2+z,1/2-x
1/2-z,-x,1/2+y
-z,1/2+x,1/2-y
1/2+y,1/2-z,-x
3/4+y,1/4+x,1/4-z
3/4-y,3/4-x,3/4-z
1/4-x,3/4+z,1/4+y
3/4-x,3/4-z,3/4-y
1/4+z,1/4-y,3/4+x
3/4-z,3/4-y,3/4-x
loop_
_atom_site_type_symbol
_atom_site_label
_atom_site_fract_x
_atom_site_fract_y
_atom_site_fract_z
Si Si1 0.552758 0.170857 0.763822
Si Si2 0.591915 0.383152 0.433651
Si Si3 0.058551 0.946515 0.938534
Si Si4 0.175033 0.675033 0.824969
Si Si5 0.696760 0.457330 0.051378
Si Si6 0.375000 0.844652 0.905349
O O1 0.617111 0.199339 0.710218
O O2 0.513949 0.242187 0.800522
O O3 0.488039 0.130231 0.721074
O O4 0.588886 0.108465 0.816987
O O5 0.636133 0.332362 0.373532
O O6 0.509398 0.401756 0.406549
O O7 0.587324 0.345044 0.513897
O O8 0.128872 0.989766 0.975343
O O9 0.004143 0.011688 0.904659
O O10 0.125000 0.625000 0.875000
O O11 0.674324 0.375000 0.075677
#
# Coordination Sequence:
#
# PCOD8331015 Si02
#       6
#    24  24  24   8  24  12
#     4  11  22  37  61  96 129 173 220 265 335 404
#     4  11  24  44  66  94 132 172 224 290 341 407
#     4   9  22  45  66  93 132 178 231 279 333 404
#     4  12  27  45  69 102 132 168 231 291 360 405
#     4  11  21  36  61  97 137 175 217 267 333 410
#     4  12  22  40  68  92 128 176 216 280 340 398
#
# _framework density 19.923511999999999
#
# number of rings (size 3 to 8) (size 9 to 14) (size 15 to 20)
#    0.414    0.828    5.172    1.241    0.000    1.655 
#    1.241    2.069    0.000    0.000    0.000    0.000 
#    0.000    0.000    0.000    0.000    0.000    0.000 
#
# Total GULP energy -1437096.869452 kJ/mol
# GULP energy per Si atom -12388.766116 kJ/mol
# Density = 1.987817 g / cm^3
# Si number density = 19.923512 Si / 1000 Ang^3
#
#
#
# Elastic Constant Matrix: (Units=GPa)
#
#
# Indices 1 2 3 4 5 6 
#
# 1 98.4134 44.8360 44.8387 0.0000 0.0000 0.0000
# 2 44.8360 98.4134 44.8387 0.0000 0.0000 0.0000
# 3 44.8387 44.8387 98.4091 0.0000 0.0000 0.0000
# 4 0.0000 0.0000 0.0000 29.2928 0.0000 0.0000
# 5 0.0000 0.0000 0.0000 0.0000 29.2928 0.0000
# 6 0.0000 0.0000 0.0000 0.0000 0.0000 29.2925
#
#
#
# Elastic Compliance Matrix: (Units=1/GPa)
#
#
# Indices 1 2 3 4 5 6 
#
# 1 0.014216 -0.004449 -0.004450 0.000000 0.000000 0.000000
# 2 -0.004449 0.014216 -0.004450 0.000000 0.000000 0.000000
# 3 -0.004450 -0.004450 0.014217 0.000000 0.000000 0.000000
# 4 0.000000 0.000000 0.000000 0.034138 0.000000 0.000000
# 5 0.000000 0.000000 0.000000 0.000000 0.034138 0.000000
# 6 0.000000 0.000000 0.000000 0.000000 0.000000 0.034138
#
#
# Mechanical properties :
#
#
# Convention : Reuss Voigt Hill
#
# Bulk Modulus (GPa) = 62.69586 62.69586 62.69586
# Shear Modulus (GPa) = 28.23622 28.29044 28.26333
#
# Velocity S-wave (km/s) = 3.76870 3.77231 3.77051
# Velocity P-wave (km/s) = 7.10451 7.10707 7.10579
#
# Compressibility (1/GPa) = 0.01595002
#
# Stress axis : x y z
#
# Youngs Moduli (GPa) = 70.34515 70.34515 70.33903
#
# Poissons Ratio (x) = 0.31296 0.31301
# Poissons Ratio (y) = 0.31296 0.31301
# Poissons Ratio (z) = 0.31304 0.31304
#
# Static dielectric constant tensor:
#      x y z
#    x 3.622910 0.000000 0.000000 
#    y 0.000000 3.622910 0.000000 
#    z 0.000000 0.000000 3.622840 
# 
# 
# High freq. dielectric constant tensor:
#      x y z
#    x 1.775950 0.000000 0.000000 
#    y 0.000000 1.775950 0.000000 
#    z 0.000000 0.000000 1.775950 
# 
# From -- ./inp_files/609.got.cif
#   From: 2010.03.12/outbox.cif.g09.slc.cpg/sg213_cif.got.tgz:609.got - 2010.03.30 09:05:31.
