data_PCOD8331111
_publ_section_title
;
Structure prediction by ZEFSAII (Michael W. Deem and Ramdas Pophale) SiO2 
 PCOD8331111
Probable space group: P M 3 M
;
_chemical_formula_sum "Si O2"
_cell_formula_units_Z 216
_cell_length_a 24.273554
_cell_length_b 24.273554
_cell_length_c 24.273554
_cell_angle_alpha 90.000000
_cell_angle_beta 90.000000
_cell_angle_gamma 90.000000
_cell_volume 14302.109671
_symmetry_space_group_name_H-M "P M 3 M"
_symmetry_group_IT_number 221
_symmetry_cell_setting 'cubic'
loop_
_space_group_symop_operation_xyz
x,y,z
-y,x,z
-x,-y,z
y,-x,z
x,-z,y
x,-y,-z
x,z,-y
z,y,-x
-x,y,-z
-z,y,x
z,x,y
y,z,x
-y,-z,x
z,-x,-y
-y,z,-x
-z,-x,y
-z,x,-y
y,-z,-x
y,x,-z
-y,-x,-z
-x,z,y
-x,-z,-y
z,-y,x
-z,-y,-x
-x,-y,-z
y,-x,-z
x,y,-z
-y,x,-z
-x,z,-y
-x,y,z
-x,-z,y
-z,-y,x
x,-y,z
z,-y,-x
-z,-x,-y
-y,-z,-x
y,z,-x
-z,x,y
y,-z,x
z,x,-y
z,-x,y
-y,z,x
-y,-x,z
y,x,z
x,-z,-y
x,z,y
-z,y,-x
z,y,x
loop_
_atom_site_type_symbol
_atom_site_label
_atom_site_fract_x
_atom_site_fract_y
_atom_site_fract_z
Si Si1 0.726404 0.362623 0.185048
Si Si2 0.814890 0.000000 0.349957
Si Si3 0.000000 0.306203 0.603042
Si Si4 0.800565 0.289427 0.109912
Si Si5 0.000000 0.436925 0.910326
Si Si6 0.113643 0.346496 0.562925
O O1 0.683002 0.316999 0.205811
O O2 0.763088 0.381628 0.236913
O O3 0.763923 0.337177 0.137166
O O4 0.695575 0.415315 0.160018
O O5 0.756090 0.000000 0.378323
O O6 0.824297 0.947209 0.311637
O O7 0.857639 0.000000 0.399136
O O8 0.053624 0.319017 0.566869
O O9 0.000000 0.341155 0.658846
O O10 0.764716 0.235285 0.098819
O O11 0.850868 0.272705 0.149133
O O12 0.000000 0.500000 0.890406
O O13 0.054138 0.424465 0.945863
O O14 0.127144 0.360579 0.500000
O O15 0.115334 0.403112 0.596889
#
# Coordination Sequence:
#
# PCOD8331111 Si02
#       6
#    48  24  24  48  24  48
#     4   9  17  30  47  67  91 119 147 177 221 275
#     4  12  19  30  51  73  92 114 160 196 231 270
#     4  10  19  33  47  62  91 120 145 185 237 277
#     4  10  19  31  47  69  95 122 150 186 231 280
#     4   9  20  38  52  63  89 129 166 199 235 274
#     4  10  20  33  48  65  87 117 150 186 228 269
#
# _framework density 15.102668
#
# number of rings (size 3 to 8) (size 9 to 14) (size 15 to 20)
#    0.000    2.111    2.222    2.778    0.000    3.333 
#    0.000    0.000    0.000    2.000    0.000    0.000 
#    0.000    0.000    0.000    0.000    0.000    0.000 
#
# Total GULP energy -2678894.876423 kJ/mol
# GULP energy per Si atom -12402.291095 kJ/mol
# Density = 1.506829 g / cm^3
# Si number density = 15.102668 Si / 1000 Ang^3
#
#
#
# Elastic Constant Matrix: (Units=GPa)
#
#
# Indices 1 2 3 4 5 6 
#
# 1 83.9013 35.8538 35.8538 0.0000 0.0000 0.0000
# 2 35.8538 83.9013 35.8538 0.0000 0.0000 0.0000
# 3 35.8538 35.8538 83.9013 0.0000 0.0000 0.0000
# 4 0.0000 0.0000 0.0000 17.0716 0.0000 0.0000
# 5 0.0000 0.0000 0.0000 0.0000 17.0716 0.0000
# 6 0.0000 0.0000 0.0000 0.0000 0.0000 17.0716
#
#
#
# Elastic Compliance Matrix: (Units=1/GPa)
#
#
# Indices 1 2 3 4 5 6 
#
# 1 0.016017 -0.004795 -0.004795 0.000000 0.000000 0.000000
# 2 -0.004795 0.016017 -0.004795 0.000000 0.000000 0.000000
# 3 -0.004795 -0.004795 0.016017 0.000000 0.000000 0.000000
# 4 0.000000 0.000000 0.000000 0.058577 0.000000 0.000000
# 5 0.000000 0.000000 0.000000 0.000000 0.058577 0.000000
# 6 0.000000 0.000000 0.000000 0.000000 0.000000 0.058577
#
#
# Mechanical properties :
#
#
# Convention : Reuss Voigt Hill
#
# Bulk Modulus (GPa) = 51.86961 51.86961 51.86961
# Shear Modulus (GPa) = 19.30638 19.85245 19.57941
#
# Velocity S-wave (km/s) = 3.57927 3.62954 3.60449
# Velocity P-wave (km/s) = 7.17641 7.20999 7.19322
#
# Compressibility (1/GPa) = 0.01927911
#
# Stress axis : x y z
#
# Youngs Moduli (GPa) = 62.43264 62.43264 62.43264
#
# Poissons Ratio (x) = 0.29939 0.29939
# Poissons Ratio (y) = 0.29939 0.29939
# Poissons Ratio (z) = 0.29939 0.29939
#
# Static dielectric constant tensor:
#      x y z
#    x 2.860650 0.000000 0.000000 
#    y 0.000000 2.860650 0.000000 
#    z 0.000000 0.000000 2.860650 
# 
# 
# High freq. dielectric constant tensor:
#      x y z
#    x 1.572180 0.000000 0.000000 
#    y 0.000000 1.572180 0.000000 
#    z 0.000000 0.000000 1.572180 
# 
# From -- ./inp_files/727.got.cif
#   From: 2010.03.12/outbox.cif.g09.slc.cpg/sg221_cif.got.tgz:727.got - 2010.03.30 09:08:03.
