data_PCOD8331105
_publ_section_title
;
Structure prediction by ZEFSAII (Michael W. Deem and Ramdas Pophale) SiO2 
 PCOD8331105
Probable space group: P M 3 M
;
_chemical_formula_sum "Si O2"
_cell_formula_units_Z 168
_cell_length_a 22.199703
_cell_length_b 22.199703
_cell_length_c 22.199703
_cell_angle_alpha 90.000000
_cell_angle_beta 90.000000
_cell_angle_gamma 90.000000
_cell_volume 10940.608885
_symmetry_space_group_name_H-M "P M 3 M"
_symmetry_group_IT_number 221
_symmetry_cell_setting 'cubic'
loop_
_space_group_symop_operation_xyz
x,y,z
-y,x,z
-x,-y,z
y,-x,z
x,-z,y
x,-y,-z
x,z,-y
z,y,-x
-x,y,-z
-z,y,x
z,x,y
y,z,x
-y,-z,x
z,-x,-y
-y,z,-x
-z,-x,y
-z,x,-y
y,-z,-x
y,x,-z
-y,-x,-z
-x,z,y
-x,-z,-y
z,-y,x
-z,-y,-x
-x,-y,-z
y,-x,-z
x,y,-z
-y,x,-z
-x,z,-y
-x,y,z
-x,-z,y
-z,-y,x
x,-y,z
z,-y,-x
-z,-x,-y
-y,-z,-x
y,z,-x
-z,x,y
y,-z,x
z,x,-y
z,-x,y
-y,z,x
-y,-x,z
y,x,z
x,-z,-y
x,z,y
-z,y,-x
z,y,x
loop_
_atom_site_type_symbol
_atom_site_label
_atom_site_fract_x
_atom_site_fract_y
_atom_site_fract_z
Si Si1 0.069569 0.167154 0.733611
Si Si2 0.068262 0.838456 0.500000
Si Si3 0.385783 0.124643 0.220919
Si Si4 0.569819 0.930762 0.665309
O O1 0.104705 0.104705 0.742712
O O2 0.078859 0.207417 0.792584
O O3 0.094957 0.203351 0.676986
O O4 0.000000 0.151414 0.722840
O O5 0.096293 0.903708 0.500000
O O6 0.085593 0.802843 0.559238
O O7 0.000000 0.852400 0.500000
O O8 0.389045 0.193073 0.193073
O O9 0.394892 0.118247 0.292696
O O10 0.500000 0.912958 0.660157
O O11 0.599309 0.925383 0.599309
O O12 0.576911 0.000000 0.689379
#
# Coordination Sequence:
#
# PCOD8331105 Si02
#       4
#    48  24  48  48
#     4  10  20  33  49  68  90 116 147 184 226 272
#     4  10  18  27  40  58  81 109 141 175 211 253
#     4  10  19  30  46  66  87 115 149 181 216 262
#     4  10  19  30  46  66  89 118 150 184 221 260
#
# _framework density 15.355636000000001
#
# number of rings (size 3 to 8) (size 9 to 14) (size 15 to 20)
#    0.000    2.000    1.429    3.714    0.000    3.000 
#    0.000    1.429    0.000    5.714    0.000    0.000 
#    0.000    0.000    0.000    8.857    0.000    0.000 
#
# Total GULP energy -2081988.142214 kJ/mol
# GULP energy per Si atom -12392.786561 kJ/mol
# Density = 1.532069 g / cm^3
# Si number density = 15.355636 Si / 1000 Ang^3
#
#
#
# Elastic Constant Matrix: (Units=GPa)
#
#
# Indices 1 2 3 4 5 6 
#
# 1 68.1702 31.3491 31.3491 0.0000 0.0000 0.0000
# 2 31.3491 68.1702 31.3491 0.0000 0.0000 0.0000
# 3 31.3491 31.3491 68.1702 0.0000 0.0000 0.0000
# 4 0.0000 0.0000 0.0000 23.6484 0.0000 0.0000
# 5 0.0000 0.0000 0.0000 0.0000 23.6484 0.0000
# 6 0.0000 0.0000 0.0000 0.0000 0.0000 23.6484
#
#
#
# Elastic Compliance Matrix: (Units=1/GPa)
#
#
# Indices 1 2 3 4 5 6 
#
# 1 0.020653 -0.006506 -0.006506 0.000000 0.000000 0.000000
# 2 -0.006506 0.020653 -0.006506 0.000000 0.000000 0.000000
# 3 -0.006506 -0.006506 0.020653 0.000000 0.000000 0.000000
# 4 0.000000 0.000000 0.000000 0.042286 0.000000 0.000000
# 5 0.000000 0.000000 0.000000 0.000000 0.042286 0.000000
# 6 0.000000 0.000000 0.000000 0.000000 0.000000 0.042286
#
#
# Mechanical properties :
#
#
# Convention : Reuss Voigt Hill
#
# Bulk Modulus (GPa) = 43.62279 43.62279 43.62279
# Shear Modulus (GPa) = 21.23220 21.55330 21.39275
#
# Velocity S-wave (km/s) = 3.72250 3.75054 3.73655
# Velocity P-wave (km/s) = 6.85171 6.87207 6.86190
#
# Compressibility (1/GPa) = 0.02292380
#
# Stress axis : x y z
#
# Youngs Moduli (GPa) = 48.42004 48.42004 48.42004
#
# Poissons Ratio (x) = 0.31500 0.31500
# Poissons Ratio (y) = 0.31500 0.31500
# Poissons Ratio (z) = 0.31500 0.31500
#
# Static dielectric constant tensor:
#      x y z
#    x 3.000750 0.000000 0.000000 
#    y 0.000000 3.000750 0.000000 
#    z 0.000000 0.000000 3.000750 
# 
# 
# High freq. dielectric constant tensor:
#      x y z
#    x 1.582350 0.000000 0.000000 
#    y 0.000000 1.582350 0.000000 
#    z 0.000000 0.000000 1.582350 
# 
# From -- ./inp_files/380.got.cif
#   From: 2010.03.12/outbox.cif.g09.slc.cpg/sg221_cif.got.tgz:380.got - 2010.03.30 09:08:03.
