data_PCOD8331082
_publ_section_title
;
Structure prediction by ZEFSAII (Michael W. Deem and Ramdas Pophale) SiO2 
 PCOD8331082
Probable space group: F -4 3 C
;
_chemical_formula_sum "Si O2"
_cell_formula_units_Z 352
_cell_length_a 26.899285
_cell_length_b 26.899285
_cell_length_c 26.899285
_cell_angle_alpha 90.000000
_cell_angle_beta 90.000000
_cell_angle_gamma 90.000000
_cell_volume 19463.556898
_symmetry_space_group_name_H-M "F -4 3 C"
_symmetry_group_IT_number 219
_symmetry_cell_setting 'cubic'
loop_
_space_group_symop_operation_xyz
x,y,z
y,-x,1/2-z
-x,-y,z
-y,x,1/2-z
-x,z,1/2-y
x,-y,-z
-x,-z,1/2+y
-z,-y,1/2+x
-x,y,-z
z,-y,1/2-x
z,x,y
y,z,x
-y,-z,x
z,-x,-y
-y,z,-x
-z,-x,y
-z,x,-y
y,-z,-x
-y,-x,1/2+z
y,x,1/2+z
x,-z,1/2-y
x,z,1/2+y
-z,y,1/2-x
z,y,1/2+x
x,1/2+y,1/2+z
y,1/2-x,-z
-x,1/2-y,1/2+z
-y,1/2+x,-z
-x,1/2+z,-y
x,1/2-y,1/2-z
-x,1/2-z,y
-z,1/2-y,x
-x,1/2+y,1/2-z
z,1/2-y,-x
z,1/2+x,1/2+y
y,1/2+z,1/2+x
-y,1/2-z,1/2+x
z,1/2-x,1/2-y
-y,1/2+z,1/2-x
-z,1/2-x,1/2+y
-z,1/2+x,1/2-y
y,1/2-z,1/2-x
-y,1/2-x,z
y,1/2+x,z
x,1/2-z,-y
x,1/2+z,y
-z,1/2+y,-x
z,1/2+y,x
1/2+x,y,1/2+z
1/2+y,-x,-z
1/2-x,-y,1/2+z
1/2-y,x,-z
1/2-x,z,-y
1/2+x,-y,1/2-z
1/2-x,-z,y
1/2-z,-y,x
1/2-x,y,1/2-z
1/2+z,-y,-x
1/2+z,x,1/2+y
1/2+y,z,1/2+x
1/2-y,-z,1/2+x
1/2+z,-x,1/2-y
1/2-y,z,1/2-x
1/2-z,-x,1/2+y
1/2-z,x,1/2-y
1/2+y,-z,1/2-x
1/2-y,-x,z
1/2+y,x,z
1/2+x,-z,-y
1/2+x,z,y
1/2-z,y,-x
1/2+z,y,x
1/2+x,1/2+y,z
1/2+y,1/2-x,1/2-z
1/2-x,1/2-y,z
1/2-y,1/2+x,1/2-z
1/2-x,1/2+z,1/2-y
1/2+x,1/2-y,-z
1/2-x,1/2-z,1/2+y
1/2-z,1/2-y,1/2+x
1/2-x,1/2+y,-z
1/2+z,1/2-y,1/2-x
1/2+z,1/2+x,y
1/2+y,1/2+z,x
1/2-y,1/2-z,x
1/2+z,1/2-x,-y
1/2-y,1/2+z,-x
1/2-z,1/2-x,y
1/2-z,1/2+x,-y
1/2+y,1/2-z,-x
1/2-y,1/2-x,1/2+z
1/2+y,1/2+x,1/2+z
1/2+x,1/2-z,1/2-y
1/2+x,1/2+z,1/2+y
1/2-z,1/2+y,1/2-x
1/2+z,1/2+y,1/2+x
loop_
_atom_site_type_symbol
_atom_site_label
_atom_site_fract_x
_atom_site_fract_y
_atom_site_fract_z
Si Si1 0.856947 0.508824 0.410776
Si Si2 0.136130 0.636130 0.863870
Si Si3 0.714018 0.581859 0.916132
Si Si4 0.030477 0.405133 0.813367
Si Si5 0.432272 0.432272 0.932272
O O1 0.816874 0.466483 0.402166
O O2 0.839506 0.543309 0.455529
O O3 0.863200 0.535088 0.356405
O O4 0.910602 0.487716 0.428295
O O5 0.116651 0.628196 0.807167
O O6 0.101975 0.601975 0.898027
O O7 0.770169 0.571506 0.897879
O O8 0.709886 0.592581 0.975146
#
# Coordination Sequence:
#
# PCOD8331082 Si02
#       5
#    96  32  96  96  32
#     4  11  21  33  47  76 108 144 184 236 263 317
#     4   9  18  39  54  75 108 138 183 243 276 324
#     4  11  20  34  57  76 107 149 192 223 272 339
#     4  12  22  34  55  80 111 151 194 227 274 335
#     4   9  18  30  45  63 111 141 177 222 264 297
#
# _framework density 18.085080999999999
#
# number of rings (size 3 to 8) (size 9 to 14) (size 15 to 20)
#    0.000    1.091   10.909    1.364    0.000    0.000 
#    0.000    0.000    0.000    5.727    0.000    0.000 
#    0.000    0.000    0.000    1.636    0.000    0.000 
#
# Total GULP energy -1090267.053142 kJ/mol
# GULP energy per Si atom -12389.398331 kJ/mol
# Density = 1.804392 g / cm^3
# Si number density = 18.085081 Si / 1000 Ang^3
#
#
#
# Elastic Constant Matrix: (Units=GPa)
#
#
# Indices 1 2 3 4 5 6 
#
# 1 52.6082 20.4494 20.4495 0.0000 0.0000 0.0000
# 2 20.4494 52.6082 20.4495 0.0000 0.0000 0.0000
# 3 20.4495 20.4495 52.6080 0.0000 0.0000 0.0000
# 4 0.0000 0.0000 0.0000 17.9047 0.0000 0.0000
# 5 0.0000 0.0000 0.0000 0.0000 17.9047 0.0000
# 6 0.0000 0.0000 0.0000 0.0000 0.0000 17.9045
#
#
#
# Elastic Compliance Matrix: (Units=1/GPa)
#
#
# Indices 1 2 3 4 5 6 
#
# 1 0.024295 -0.006800 -0.006801 0.000000 0.000000 0.000000
# 2 -0.006800 0.024295 -0.006801 0.000000 0.000000 0.000000
# 3 -0.006801 -0.006801 0.024295 0.000000 0.000000 0.000000
# 4 0.000000 0.000000 0.000000 0.055851 0.000000 0.000000
# 5 0.000000 0.000000 0.000000 0.000000 0.055851 0.000000
# 6 0.000000 0.000000 0.000000 0.000000 0.000000 0.055852
#
#
# Mechanical properties :
#
#
# Convention : Reuss Voigt Hill
#
# Bulk Modulus (GPa) = 31.16902 31.16902 31.16902
# Shear Modulus (GPa) = 17.12695 17.17452 17.15073
#
# Velocity S-wave (km/s) = 3.08071 3.08498 3.08285
# Velocity P-wave (km/s) = 5.47051 5.47372 5.47211
#
# Compressibility (1/GPa) = 0.03208314
#
# Stress axis : x y z
#
# Youngs Moduli (GPa) = 41.16022 41.16022 41.15993
#
# Poissons Ratio (x) = 0.27991 0.27991
# Poissons Ratio (y) = 0.27991 0.27991
# Poissons Ratio (z) = 0.27991 0.27991
#
# Static dielectric constant tensor:
#      x y z
#    x 3.546700 0.000000 0.000000 
#    y 0.000000 3.546700 0.000000 
#    z 0.000000 0.000000 3.546680 
# 
# 
# High freq. dielectric constant tensor:
#      x y z
#    x 1.678830 0.000000 0.000000 
#    y 0.000000 1.678830 0.000000 
#    z 0.000000 0.000000 1.678830 
# 
# From -- ./inp_files/478.got.cif
#   From: 2010.03.12/outbox.cif.g09.slc.cpg/sg219_cif.got.tgz:478.got - 2010.03.30 09:07:44.
