data_PCOD8331088
_publ_section_title
;
Structure prediction by ZEFSAII (Michael W. Deem and Ramdas Pophale) SiO2 
 PCOD8331088
Probable space group: I -4 3 D
;
_chemical_formula_sum "Si O2"
_cell_formula_units_Z 72
_cell_length_a 15.366316
_cell_length_b 15.366316
_cell_length_c 15.366316
_cell_angle_alpha 90.000000
_cell_angle_beta 90.000000
_cell_angle_gamma 90.000000
_cell_volume 3628.350889
_symmetry_space_group_name_H-M "I -4 3 D"
_symmetry_group_IT_number 220
_symmetry_cell_setting 'cubic'
loop_
_space_group_symop_operation_xyz
x,y,z
1/4+y,3/4-x,1/4-z
-x,1/2-y,z
1/4-y,1/4+x,3/4-z
1/4-x,1/4+z,3/4-y
x,-y,1/2-z
3/4-x,1/4-z,1/4+y
3/4-z,1/4-y,1/4+x
1/2-x,y,-z
1/4+z,3/4-y,1/4-x
z,x,y
y,z,x
-y,1/2-z,x
z,-x,1/2-y
1/2-y,z,-x
-z,1/2-x,y
1/2-z,x,-y
y,-z,1/2-x
3/4-y,1/4-x,1/4+z
1/4+y,1/4+x,1/4+z
1/4+x,3/4-z,1/4-y
1/4+x,1/4+z,1/4+y
1/4-z,1/4+y,3/4-x
1/4+z,1/4+y,1/4+x
1/2+x,1/2+y,1/2+z
3/4+y,1/4-x,3/4-z
1/2-x,-y,1/2+z
3/4-y,3/4+x,1/4-z
3/4-x,3/4+z,1/4-y
1/2+x,1/2-y,-z
1/4-x,3/4-z,3/4+y
1/4-z,3/4-y,3/4+x
-x,1/2+y,1/2-z
3/4+z,1/4-y,3/4-x
1/2+z,1/2+x,1/2+y
1/2+y,1/2+z,1/2+x
1/2-y,-z,1/2+x
1/2+z,1/2-x,-y
-y,1/2+z,1/2-x
1/2-z,-x,1/2+y
-z,1/2+x,1/2-y
1/2+y,1/2-z,-x
1/4-y,3/4-x,3/4+z
3/4+y,3/4+x,3/4+z
3/4+x,1/4-z,3/4-y
3/4+x,3/4+z,3/4+y
3/4-z,3/4+y,1/4-x
3/4+z,3/4+y,3/4+x
loop_
_atom_site_type_symbol
_atom_site_label
_atom_site_fract_x
_atom_site_fract_y
_atom_site_fract_z
Si Si1 0.313006 0.425702 0.101236
Si Si2 0.500000 0.250000 0.418600
O O1 0.214380 0.389611 0.114043
O O2 0.360225 0.433399 0.193505
O O3 0.311865 0.521786 0.059348
#
# Coordination Sequence:
#
# PCOD8331088 Si02
#       2
#    48  24
#     4   9  21  36  52  82 112 137 188 234 265 338
#     4  10  19  36  57  76 108 150 176 224 291 322
#
# _framework density 19.843726
#
# number of rings (size 3 to 8) (size 9 to 14) (size 15 to 20)
#    0.000    3.333    0.000    1.333    0.000   10.667 
#    0.000    0.000    0.000    0.000    0.000    0.000 
#    0.000    0.000    0.000    0.000    0.000    0.000 
#
# Total GULP energy -446239.563657 kJ/mol
# GULP energy per Si atom -12395.543435 kJ/mol
# Density = 1.979856 g / cm^3
# Si number density = 19.843726 Si / 1000 Ang^3
#
#
#
# Elastic Constant Matrix: (Units=GPa)
#
#
# Indices 1 2 3 4 5 6 
#
# 1 86.5677 45.0952 45.0952 0.0000 0.0000 0.0000
# 2 45.0952 86.5677 45.0952 0.0000 0.0000 0.0000
# 3 45.0952 45.0952 86.5677 0.0000 0.0000 0.0000
# 4 0.0000 0.0000 0.0000 26.5165 0.0000 0.0000
# 5 0.0000 0.0000 0.0000 0.0000 26.5165 0.0000
# 6 0.0000 0.0000 0.0000 0.0000 0.0000 26.5165
#
#
#
# Elastic Compliance Matrix: (Units=1/GPa)
#
#
# Indices 1 2 3 4 5 6 
#
# 1 0.017961 -0.006152 -0.006152 0.000000 0.000000 0.000000
# 2 -0.006152 0.017961 -0.006152 0.000000 0.000000 0.000000
# 3 -0.006152 -0.006152 0.017961 0.000000 0.000000 0.000000
# 4 0.000000 0.000000 0.000000 0.037712 0.000000 0.000000
# 5 0.000000 0.000000 0.000000 0.000000 0.037712 0.000000
# 6 0.000000 0.000000 0.000000 0.000000 0.000000 0.037712
#
#
# Mechanical properties :
#
#
# Convention : Reuss Voigt Hill
#
# Bulk Modulus (GPa) = 58.91935 58.91935 58.91935
# Shear Modulus (GPa) = 23.85650 24.20441 24.03046
#
# Velocity S-wave (km/s) = 3.47106 3.49628 3.48370
# Velocity P-wave (km/s) = 6.76909 6.78637 6.77773
#
# Compressibility (1/GPa) = 0.01697235
#
# Stress axis : x y z
#
# Youngs Moduli (GPa) = 55.67705 55.67705 55.67706
#
# Poissons Ratio (x) = 0.34250 0.34250
# Poissons Ratio (y) = 0.34250 0.34250
# Poissons Ratio (z) = 0.34250 0.34250
#
# Static dielectric constant tensor:
#      x y z
#    x 3.471270 0.000000 0.000000 
#    y 0.000000 3.471270 0.000000 
#    z 0.000000 0.000000 3.471270 
# 
# 
# High freq. dielectric constant tensor:
#      x y z
#    x 1.763080 0.000000 0.000000 
#    y 0.000000 1.763080 0.000000 
#    z 0.000000 0.000000 1.763080 
# 
# From -- ./inp_files/74.got.cif
#   From: 2010.03.12/outbox.cif.g09.slc.cpg/sg220_cif.got.tgz:74.got - 2010.03.30 09:07:51.
