data_PCOD8331171
_publ_section_title
;
Structure prediction by ZEFSAII (Michael W. Deem and Ramdas Pophale) SiO2 
 PCOD8331171
Probable space group: I A 3 D 
;
_chemical_formula_sum "Si O2"
_cell_formula_units_Z 360
_cell_length_a 26.655669
_cell_length_b 26.655669
_cell_length_c 26.655669
_cell_angle_alpha 90.000000
_cell_angle_beta 90.000000
_cell_angle_gamma 90.000000
_cell_volume 18939.510949
_symmetry_space_group_name_H-M "I A 3 D "
_symmetry_group_IT_number 230
_symmetry_cell_setting 'cubic'
loop_
_space_group_symop_operation_xyz
x,y,z
1/4-y,3/4+x,1/4+z
-x,1/2-y,z
1/4+y,1/4-x,3/4+z
1/4+x,1/4-z,3/4+y
x,-y,1/2-z
3/4+x,1/4+z,1/4-y
3/4+z,1/4+y,1/4-x
1/2-x,y,-z
1/4-z,3/4+y,1/4+x
z,x,y
y,z,x
-y,1/2-z,x
z,-x,1/2-y
1/2-y,z,-x
-z,1/2-x,y
1/2-z,x,-y
y,-z,1/2-x
3/4+y,1/4+x,1/4-z
1/4-y,1/4-x,1/4-z
1/4-x,3/4+z,1/4+y
1/4-x,1/4-z,1/4-y
1/4+z,1/4-y,3/4+x
1/4-z,1/4-y,1/4-x
-x,-y,-z
3/4+y,1/4-x,3/4-z
x,1/2+y,-z
3/4-y,3/4+x,1/4-z
3/4-x,3/4+z,1/4-y
-x,y,1/2+z
1/4-x,3/4-z,3/4+y
1/4-z,3/4-y,3/4+x
1/2+x,-y,z
3/4+z,1/4-y,3/4-x
-z,-x,-y
-y,-z,-x
y,1/2+z,-x
-z,x,1/2+y
1/2+y,-z,x
z,1/2+x,-y
1/2+z,-x,y
-y,z,1/2+x
1/4-y,3/4-x,3/4+z
3/4+y,3/4+x,3/4+z
3/4+x,1/4-z,3/4-y
3/4+x,3/4+z,3/4+y
3/4-z,3/4+y,1/4-x
3/4+z,3/4+y,3/4+x
1/2+x,1/2+y,1/2+z
3/4-y,1/4+x,3/4+z
1/2-x,-y,1/2+z
3/4+y,3/4-x,1/4+z
3/4+x,3/4-z,1/4+y
1/2+x,1/2-y,-z
1/4+x,3/4+z,3/4-y
1/4+z,3/4+y,3/4-x
-x,1/2+y,1/2-z
3/4-z,1/4+y,3/4+x
1/2+z,1/2+x,1/2+y
1/2+y,1/2+z,1/2+x
1/2-y,-z,1/2+x
1/2+z,1/2-x,-y
-y,1/2+z,1/2-x
1/2-z,-x,1/2+y
-z,1/2+x,1/2-y
1/2+y,1/2-z,-x
1/4+y,3/4+x,3/4-z
3/4-y,3/4-x,3/4-z
3/4-x,1/4+z,3/4+y
3/4-x,3/4-z,3/4-y
3/4+z,3/4-y,1/4+x
3/4-z,3/4-y,3/4-x
1/2-x,1/2-y,1/2-z
1/4+y,3/4-x,1/4-z
1/2+x,y,1/2-z
1/4-y,1/4+x,3/4-z
1/4-x,1/4+z,3/4-y
1/2-x,1/2+y,z
3/4-x,1/4-z,1/4+y
3/4-z,1/4-y,1/4+x
x,1/2-y,1/2+z
1/4+z,3/4-y,1/4-x
1/2-z,1/2-x,1/2-y
1/2-y,1/2-z,1/2-x
1/2+y,z,1/2-x
1/2-z,1/2+x,y
y,1/2-z,1/2+x
1/2+z,x,1/2-y
z,1/2-x,1/2+y
1/2-y,1/2+z,x
3/4-y,1/4-x,1/4+z
1/4+y,1/4+x,1/4+z
1/4+x,3/4-z,1/4-y
1/4+x,1/4+z,1/4+y
1/4-z,1/4+y,3/4-x
1/4+z,1/4+y,1/4+x
loop_
_atom_site_type_symbol
_atom_site_label
_atom_site_fract_x
_atom_site_fract_y
_atom_site_fract_z
Si Si1 0.000000 0.750000 0.125000
Si Si2 0.251099 0.600387 0.308155
Si Si3 0.844820 0.839709 0.662432
Si Si4 0.258120 0.491881 0.875000
Si Si5 0.963177 0.043540 0.186524
O O1 0.036332 0.783419 0.159741
O O2 0.205314 0.638824 0.312846
O O3 0.305310 0.626279 0.307511
O O4 0.249352 0.564374 0.355925
O O5 0.244291 0.568629 0.257554
O O6 0.875000 0.870521 0.620521
O O7 0.882705 0.817967 0.703472
O O8 0.250913 0.531820 0.830428
#
# Coordination Sequence:
#
# PCOD8331171 Si02
#       5
#    24  96  96  48  96
#     4  12  20  40  72  96 130 156 212 288 332 392
#     4  12  23  39  63  98 129 168 211 266 329 388
#     4  12  23  38  64  96 132 166 207 267 326 389
#     4  12  22  40  66  90 132 164 217 269 326 392
#     4  12  24  40  63  98 127 170 216 266 334 390
#
# _framework density 19.007883
#
# number of rings (size 3 to 8) (size 9 to 14) (size 15 to 20)
#    0.000    0.000    9.333    3.200    0.000    0.000 
#    1.600    2.667    0.000    0.000    0.000    0.000 
#    0.000    0.000    0.000    0.000    0.000    0.000 
#
# Total GULP energy -2233121.658662 kJ/mol
# GULP energy per Si atom -12406.231437 kJ/mol
# Density = 1.896462 g / cm^3
# Si number density = 19.007883 Si / 1000 Ang^3
#
#
#
# Elastic Constant Matrix: (Units=GPa)
#
#
# Indices 1 2 3 4 5 6 
#
# 1 99.1675 41.6997 41.6997 0.0000 0.0000 0.0000
# 2 41.6997 99.1675 41.6997 0.0000 0.0000 0.0000
# 3 41.6997 41.6997 99.1675 0.0000 0.0000 0.0000
# 4 0.0000 0.0000 0.0000 32.8693 0.0000 0.0000
# 5 0.0000 0.0000 0.0000 0.0000 32.8693 0.0000
# 6 0.0000 0.0000 0.0000 0.0000 0.0000 32.8693
#
#
#
# Elastic Compliance Matrix: (Units=1/GPa)
#
#
# Indices 1 2 3 4 5 6 
#
# 1 0.013427 -0.003975 -0.003975 0.000000 0.000000 0.000000
# 2 -0.003975 0.013427 -0.003975 0.000000 0.000000 0.000000
# 3 -0.003975 -0.003975 0.013427 0.000000 0.000000 0.000000
# 4 0.000000 0.000000 0.000000 0.030424 0.000000 0.000000
# 5 0.000000 0.000000 0.000000 0.000000 0.030424 0.000000
# 6 0.000000 0.000000 0.000000 0.000000 0.000000 0.030424
#
#
# Mechanical properties :
#
#
# Convention : Reuss Voigt Hill
#
# Bulk Modulus (GPa) = 60.85566 60.85566 60.85566
# Shear Modulus (GPa) = 31.08005 31.21512 31.14758
#
# Velocity S-wave (km/s) = 4.04804 4.05683 4.05244
# Velocity P-wave (km/s) = 7.34400 7.35046 7.34723
#
# Compressibility (1/GPa) = 0.01643233
#
# Stress axis : x y z
#
# Youngs Moduli (GPa) = 74.47943 74.47943 74.47943
#
# Poissons Ratio (x) = 0.29602 0.29602
# Poissons Ratio (y) = 0.29602 0.29602
# Poissons Ratio (z) = 0.29602 0.29602
#
# Static dielectric constant tensor:
#      x y z
#    x 3.466970 0.000000 0.000000 
#    y 0.000000 3.466970 0.000000 
#    z 0.000000 0.000000 3.466970 
# 
# 
# High freq. dielectric constant tensor:
#      x y z
#    x 1.734350 0.000000 0.000000 
#    y 0.000000 1.734350 0.000000 
#    z 0.000000 0.000000 1.734350 
# 
# From -- ./inp_files/655.got.cif
#   From: 2010.03.12/outbox.cif.g09.slc.cpg/sg230_cif.got.tgz:655.got - 2010.03.30 09:10:43.
