data_PCOD8331023
_publ_section_title
;
Structure prediction by ZEFSAII (Michael W. Deem and Ramdas Pophale) SiO2 
 PCOD8331023
Probable space group: P -4 3 M
;
_chemical_formula_sum "Si O2"
_cell_formula_units_Z 168
_cell_length_a 21.075097
_cell_length_b 21.075097
_cell_length_c 21.075097
_cell_angle_alpha 90.000000
_cell_angle_beta 90.000000
_cell_angle_gamma 90.000000
_cell_volume 9360.709047
_symmetry_space_group_name_H-M "P -4 3 M"
_symmetry_group_IT_number 215
_symmetry_cell_setting 'cubic'
loop_
_space_group_symop_operation_xyz
x,y,z
y,-x,-z
-x,-y,z
-y,x,-z
-x,z,-y
x,-y,-z
-x,-z,y
-z,-y,x
-x,y,-z
z,-y,-x
z,x,y
y,z,x
-y,-z,x
z,-x,-y
-y,z,-x
-z,-x,y
-z,x,-y
y,-z,-x
-y,-x,z
y,x,z
x,-z,-y
x,z,y
-z,y,-x
z,y,x
loop_
_atom_site_type_symbol
_atom_site_label
_atom_site_fract_x
_atom_site_fract_y
_atom_site_fract_z
Si Si1 0.876781 0.222610 0.634723
Si Si2 0.166644 0.511147 0.927621
Si Si3 0.306332 0.006061 0.791373
Si Si4 0.789124 0.104375 0.001043
Si Si5 0.325230 0.218956 0.572317
Si Si6 0.320961 0.424430 0.214799
Si Si7 0.394140 0.775700 0.124091
O O1 0.820069 0.179932 0.665702
O O2 0.911829 0.180773 0.582767
O O3 0.934616 0.235554 0.682387
O O4 0.847138 0.286939 0.605998
O O5 0.094327 0.495513 0.905674
O O6 0.214198 0.469010 0.885793
O O7 0.176029 0.500000 0.000000
O O8 0.250526 0.036146 0.749475
O O9 0.280887 0.003972 0.863575
O O10 0.364243 0.054286 0.780931
O O11 0.843993 0.156008 0.993453
O O12 0.790946 0.059919 0.940082
O O13 0.800649 0.065027 0.065027
O O14 0.280641 0.280641 0.577906
O O15 0.391859 0.231898 0.608142
O O16 0.338365 0.203242 0.498290
O O17 0.291999 0.159483 0.608782
O O18 0.385834 0.385834 0.227479
O O19 0.275406 0.417449 0.275406
O O20 0.364608 0.830310 0.169691
#
# Coordination Sequence:
#
# PCOD8331023 Si02
#       7
#    24  24  24  24  24  24  24
#     4  10  19  33  51  72 100 136 172 208 249 299
#     4  10  18  31  50  70  99 135 169 211 258 298
#     4  11  21  32  50  75 102 132 165 206 256 305
#     4  10  21  37  55  75  99 130 169 216 268 320
#     4  10  20  35  55  79 106 136 172 213 259 311
#     4  10  20  35  55  79 106 136 172 213 259 311
#     4  10  19  33  51  72 100 136 172 208 249 299
#
# _framework density 17.947357
#
# number of rings (size 3 to 8) (size 9 to 14) (size 15 to 20)
#    0.000    1.857    2.857    2.286    0.000    0.429 
#    0.000    0.000    0.000   10.286    0.000    0.000 
#    0.000    4.571    0.000    8.857    0.000    0.000 
#
# Total GULP energy -2081666.681310 kJ/mol
# GULP energy per Si atom -12390.873103 kJ/mol
# Density = 1.790651 g / cm^3
# Si number density = 17.947357 Si / 1000 Ang^3
#
#
#
# Elastic Constant Matrix: (Units=GPa)
#
#
# Indices 1 2 3 4 5 6 
#
# 1 65.6819 45.0645 45.0645 0.0000 0.0000 0.0000
# 2 45.0645 65.6819 45.0645 0.0000 0.0000 0.0000
# 3 45.0645 45.0645 65.6819 0.0000 0.0000 0.0000
# 4 0.0000 0.0000 0.0000 24.5080 0.0000 0.0000
# 5 0.0000 0.0000 0.0000 0.0000 24.5080 0.0000
# 6 0.0000 0.0000 0.0000 0.0000 0.0000 24.5080
#
#
#
# Elastic Compliance Matrix: (Units=1/GPa)
#
#
# Indices 1 2 3 4 5 6 
#
# 1 0.034475 -0.014028 -0.014028 0.000000 0.000000 0.000000
# 2 -0.014028 0.034475 -0.014028 0.000000 0.000000 0.000000
# 3 -0.014028 -0.014028 0.034475 0.000000 0.000000 0.000000
# 4 0.000000 0.000000 0.000000 0.040803 0.000000 0.000000
# 5 0.000000 0.000000 0.000000 0.000000 0.040803 0.000000
# 6 0.000000 0.000000 0.000000 0.000000 0.000000 0.040803
#
#
# Mechanical properties :
#
#
# Convention : Reuss Voigt Hill
#
# Bulk Modulus (GPa) = 51.93694 51.93694 51.93694
# Shear Modulus (GPa) = 15.80178 18.82827 17.31503
#
# Velocity S-wave (km/s) = 2.97046 3.24247 3.10944
# Velocity P-wave (km/s) = 6.38484 6.55892 6.47246
#
# Compressibility (1/GPa) = 0.01925412
#
# Stress axis : x y z
#
# Youngs Moduli (GPa) = 29.00695 29.00695 29.00695
#
# Poissons Ratio (x) = 0.40692 0.40692
# Poissons Ratio (y) = 0.40692 0.40692
# Poissons Ratio (z) = 0.40692 0.40692
#
# Static dielectric constant tensor:
#      x y z
#    x 3.407250 0.000000 0.000000 
#    y 0.000000 3.407250 0.000000 
#    z 0.000000 0.000000 3.407250 
# 
# 
# High freq. dielectric constant tensor:
#      x y z
#    x 1.690890 0.000000 0.000000 
#    y 0.000000 1.690890 0.000000 
#    z 0.000000 0.000000 1.690890 
# 
# From -- ./inp_files/887.got.cif
#   From: 2010.03.12/outbox.cif.g09.slc.cpg/sg215_cif.got.tgz:887.got - 2010.03.30 09:06:09.
