data_PCOD8331035
_publ_section_title
;
Structure prediction by ZEFSAII (Michael W. Deem and Ramdas Pophale) SiO2 
 PCOD8331035
Probable space group: P -4 3 M
;
_chemical_formula_sum "Si O2"
_cell_formula_units_Z 168
_cell_length_a 21.114862
_cell_length_b 21.114862
_cell_length_c 21.114862
_cell_angle_alpha 90.000000
_cell_angle_beta 90.000000
_cell_angle_gamma 90.000000
_cell_volume 9413.795118
_symmetry_space_group_name_H-M "P -4 3 M"
_symmetry_group_IT_number 215
_symmetry_cell_setting 'cubic'
loop_
_space_group_symop_operation_xyz
x,y,z
y,-x,-z
-x,-y,z
-y,x,-z
-x,z,-y
x,-y,-z
-x,-z,y
-z,-y,x
-x,y,-z
z,-y,-x
z,x,y
y,z,x
-y,-z,x
z,-x,-y
-y,z,-x
-z,-x,y
-z,x,-y
y,-z,-x
-y,-x,z
y,x,z
x,-z,-y
x,z,y
-z,y,-x
z,y,x
loop_
_atom_site_type_symbol
_atom_site_label
_atom_site_fract_x
_atom_site_fract_y
_atom_site_fract_z
Si Si1 0.663997 0.434884 0.763321
Si Si2 0.719582 0.821815 0.076696
Si Si3 0.431388 0.023065 0.322805
Si Si4 0.168642 0.067806 0.725788
Si Si5 0.137649 0.401212 0.238810
Si Si6 0.424418 0.783521 0.319026
Si Si7 0.733482 0.371366 0.097740
O O1 0.594891 0.405110 0.760068
O O2 0.693126 0.437004 0.693126
O O3 0.709382 0.392437 0.807634
O O4 0.654573 0.505041 0.789817
O O5 0.785144 0.785144 0.083027
O O6 0.725385 0.887143 0.112858
O O7 0.665112 0.777195 0.104901
O O8 0.707037 0.841601 0.004790
O O9 0.381869 0.036198 0.381869
O O10 0.442141 0.083301 0.275299
O O11 0.500000 0.000000 0.350016
O O12 0.405940 0.968674 0.276633
O O13 0.101936 0.101936 0.739853
O O14 0.212960 0.075133 0.787041
O O15 0.199533 0.099997 0.664098
O O16 0.173868 0.428489 0.173868
O O17 0.412658 0.718888 0.281113
O O18 0.377951 0.786037 0.377951
O O19 0.418122 0.842536 0.270831
O O20 0.679166 0.320835 0.107582
#
# Coordination Sequence:
#
# PCOD8331035 Si02
#       7
#    24  24  24  24  24  24  24
#     4  10  20  33  51  75 103 134 170 213 262 316
#     4  10  19  32  52  77 105 136 174 220 270 320
#     4  11  21  35  56  81 114 152 188 231 282 339
#     4  10  19  32  51  75 104 137 173 214 262 317
#     4  10  20  35  56  79 104 140 184 228 276 327
#     4  10  20  34  52  75 102 134 173 215 260 312
#     4   9  18  32  49  72 101 132 168 210 260 313
#
# _framework density 17.846150000000002
#
# number of rings (size 3 to 8) (size 9 to 14) (size 15 to 20)
#    0.000    2.000    1.429    3.143    0.000    0.714 
#    0.000    3.571    0.000    4.571    0.000    0.000 
#    0.000    0.000    0.000   17.714    0.000    0.000 
#
# Total GULP energy -2081527.528561 kJ/mol
# GULP energy per Si atom -12390.044813 kJ/mol
# Density = 1.780553 g / cm^3
# Si number density = 17.846150 Si / 1000 Ang^3
#
#
#
# Elastic Constant Matrix: (Units=GPa)
#
#
# Indices 1 2 3 4 5 6 
#
# 1 89.2897 48.1032 48.1032 0.0000 0.0000 0.0000
# 2 48.1032 89.2897 48.1032 0.0000 0.0000 0.0000
# 3 48.1032 48.1032 89.2897 0.0000 0.0000 0.0000
# 4 0.0000 0.0000 0.0000 24.1329 0.0000 0.0000
# 5 0.0000 0.0000 0.0000 0.0000 24.1329 0.0000
# 6 0.0000 0.0000 0.0000 0.0000 0.0000 24.1329
#
#
#
# Elastic Compliance Matrix: (Units=1/GPa)
#
#
# Indices 1 2 3 4 5 6 
#
# 1 0.017984 -0.006296 -0.006296 0.000000 0.000000 0.000000
# 2 -0.006296 0.017984 -0.006296 0.000000 0.000000 0.000000
# 3 -0.006296 -0.006296 0.017984 0.000000 0.000000 0.000000
# 4 0.000000 0.000000 0.000000 0.041437 0.000000 0.000000
# 5 0.000000 0.000000 0.000000 0.000000 0.041437 0.000000
# 6 0.000000 0.000000 0.000000 0.000000 0.000000 0.041437
#
#
# Mechanical properties :
#
#
# Convention : Reuss Voigt Hill
#
# Bulk Modulus (GPa) = 61.83206 61.83206 61.83206
# Shear Modulus (GPa) = 22.58039 22.71702 22.64871
#
# Velocity S-wave (km/s) = 3.56094 3.57169 3.56632
# Velocity P-wave (km/s) = 7.18537 7.19248 7.18893
#
# Compressibility (1/GPa) = 0.01617284
#
# Stress axis : x y z
#
# Youngs Moduli (GPa) = 55.60642 55.60642 55.60642
#
# Poissons Ratio (x) = 0.35011 0.35011
# Poissons Ratio (y) = 0.35011 0.35011
# Poissons Ratio (z) = 0.35011 0.35011
#
# Static dielectric constant tensor:
#      x y z
#    x 3.318270 0.000000 0.000000 
#    y 0.000000 3.318270 0.000000 
#    z 0.000000 0.000000 3.318270 
# 
# 
# High freq. dielectric constant tensor:
#      x y z
#    x 1.684670 0.000000 0.000000 
#    y 0.000000 1.684670 0.000000 
#    z 0.000000 0.000000 1.684670 
# 
# From -- ./inp_files/902.got.cif
#   From: 2010.03.12/outbox.cif.g09.slc.cpg/sg215_cif.got.tgz:902.got - 2010.03.30 09:06:09.
