data_PCOD8331135
_publ_section_title
;
Structure prediction by ZEFSAII (Michael W. Deem and Ramdas Pophale) SiO2 
 PCOD8331135
Probable space group: P N 3 M
;
_chemical_formula_sum "Si O2"
_cell_formula_units_Z 168
_cell_length_a 22.440576
_cell_length_b 22.440576
_cell_length_c 22.440576
_cell_angle_alpha 90.000000
_cell_angle_beta 90.000000
_cell_angle_gamma 90.000000
_cell_volume 11300.612947
_symmetry_space_group_name_H-M "P N 3 M"
_symmetry_group_IT_number 224
_space_group.IT_coordinate_system_code '2'
_symmetry_cell_setting 'cubic'
loop_
_space_group_symop_operation_xyz
x,y,z
-y,1/2+x,1/2+z
1/2-x,1/2-y,z
1/2+y,-x,1/2+z
1/2+x,-z,1/2+y
x,1/2-y,1/2-z
1/2+x,1/2+z,-y
1/2+z,1/2+y,-x
1/2-x,y,1/2-z
-z,1/2+y,1/2+x
z,x,y
y,z,x
1/2-y,1/2-z,x
z,1/2-x,1/2-y
1/2-y,z,1/2-x
1/2-z,1/2-x,y
1/2-z,x,1/2-y
y,1/2-z,1/2-x
1/2+y,1/2+x,-z
-y,-x,-z
-x,1/2+z,1/2+y
-x,-z,-y
1/2+z,-y,1/2+x
-z,-y,-x
-x,-y,-z
y,1/2-x,1/2-z
1/2+x,1/2+y,-z
1/2-y,x,1/2-z
1/2-x,z,1/2-y
-x,1/2+y,1/2+z
1/2-x,1/2-z,y
1/2-z,1/2-y,x
1/2+x,-y,1/2+z
z,1/2-y,1/2-x
-z,-x,-y
-y,-z,-x
1/2+y,1/2+z,-x
-z,1/2+x,1/2+y
1/2+y,-z,1/2+x
1/2+z,1/2+x,-y
1/2+z,-x,1/2+y
-y,1/2+z,1/2+x
1/2-y,1/2-x,z
y,x,z
x,1/2-z,1/2-y
x,z,y
1/2-z,y,1/2-x
z,y,x
loop_
_atom_site_type_symbol
_atom_site_label
_atom_site_fract_x
_atom_site_fract_y
_atom_site_fract_z
Si Si1 0.577663 0.153947 0.247030
Si Si2 0.610566 0.198450 0.706425
Si Si3 0.972944 0.432514 0.332566
Si Si4 0.355147 0.855147 0.500000
O O1 0.570643 0.207856 0.292145
O O2 0.564867 0.180058 0.180058
O O3 0.643554 0.126933 0.250822
O O4 0.533435 0.100847 0.268327
O O5 0.589643 0.250000 0.750000
O O6 0.667960 0.217643 0.667960
O O7 0.556901 0.184682 0.661448
O O8 0.965614 0.385430 0.385430
O O9 0.923772 0.483666 0.342829
O O10 0.037869 0.462132 0.333836
#
# Coordination Sequence:
#
# PCOD8331135 Si02
#       4
#    48  48  48  24
#     4   8  15  27  41  57  77 101 128 160 200 241
#     4  10  18  27  41  59  80 107 140 175 206 241
#     4  10  18  28  43  61  82 107 137 170 203 245
#     4  10  19  30  39  56  86 118 140 164 207 252
#
# _framework density 14.86645
#
# number of rings (size 3 to 8) (size 9 to 14) (size 15 to 20)
#    0.000    2.571    0.000    5.857    0.000    1.429 
#    0.000    1.429    0.000    0.571    0.000    0.000 
#    0.000    0.000    0.000    0.000    0.000   59.429 
#
# Total GULP energy -2081928.401271 kJ/mol
# GULP energy per Si atom -12392.430960 kJ/mol
# Density = 1.483261 g / cm^3
# Si number density = 14.866450 Si / 1000 Ang^3
#
#
#
# Elastic Constant Matrix: (Units=GPa)
#
#
# Indices 1 2 3 4 5 6 
#
# 1 67.5799 35.2244 35.2244 0.0000 0.0000 0.0000
# 2 35.2244 67.5799 35.2244 0.0000 0.0000 0.0000
# 3 35.2244 35.2244 67.5799 0.0000 0.0000 0.0000
# 4 0.0000 0.0000 0.0000 17.4724 0.0000 0.0000
# 5 0.0000 0.0000 0.0000 0.0000 17.4724 0.0000
# 6 0.0000 0.0000 0.0000 0.0000 0.0000 17.4724
#
#
#
# Elastic Compliance Matrix: (Units=1/GPa)
#
#
# Indices 1 2 3 4 5 6 
#
# 1 0.023019 -0.007887 -0.007887 0.000000 0.000000 0.000000
# 2 -0.007887 0.023019 -0.007887 0.000000 0.000000 0.000000
# 3 -0.007887 -0.007887 0.023019 0.000000 0.000000 0.000000
# 4 0.000000 0.000000 0.000000 0.057233 0.000000 0.000000
# 5 0.000000 0.000000 0.000000 0.000000 0.057233 0.000000
# 6 0.000000 0.000000 0.000000 0.000000 0.000000 0.057233
#
#
# Mechanical properties :
#
#
# Convention : Reuss Voigt Hill
#
# Bulk Modulus (GPa) = 46.00956 46.00956 46.00956
# Shear Modulus (GPa) = 16.93043 16.95452 16.94247
#
# Velocity S-wave (km/s) = 3.37832 3.38073 3.37953
# Velocity P-wave (km/s) = 6.79950 6.80109 6.80030
#
# Compressibility (1/GPa) = 0.02173461
#
# Stress axis : x y z
#
# Youngs Moduli (GPa) = 43.44158 43.44158 43.44158
#
# Poissons Ratio (x) = 0.34264 0.34264
# Poissons Ratio (y) = 0.34264 0.34264
# Poissons Ratio (z) = 0.34264 0.34264
#
# Static dielectric constant tensor:
#      x y z
#    x 2.659650 0.000000 0.000000 
#    y 0.000000 2.659650 0.000000 
#    z 0.000000 0.000000 2.659650 
# 
# 
# High freq. dielectric constant tensor:
#      x y z
#    x 1.556210 0.000000 0.000000 
#    y 0.000000 1.556210 0.000000 
#    z 0.000000 0.000000 1.556210 
# 
# From -- ./inp_files/467.got.cif
#   From: 2010.03.12/outbox.cif.g09.slc.cpg/sg224_cif.got.tgz:467.got - 2010.03.30 09:09:26.
