data_PCOD8331007
_publ_section_title
;
Structure prediction by ZEFSAII (Michael W. Deem and Ramdas Pophale) SiO2 
 PCOD8331007
Probable space group: P 43 3 2
;
_chemical_formula_sum "Si O2"
_cell_formula_units_Z 56
_cell_length_a 13.337830
_cell_length_b 13.337830
_cell_length_c 13.337830
_cell_angle_alpha 90.000000
_cell_angle_beta 90.000000
_cell_angle_gamma 90.000000
_cell_volume 2372.769401
_symmetry_space_group_name_H-M "P 43 3 2"
_symmetry_group_IT_number 212
_symmetry_cell_setting 'cubic'
loop_
_space_group_symop_operation_xyz
x,y,z
3/4-y,1/4+x,3/4+z
1/2-x,-y,1/2+z
3/4+y,3/4-x,1/4+z
3/4+x,3/4-z,1/4+y
1/2+x,1/2-y,-z
1/4+x,3/4+z,3/4-y
1/4+z,3/4+y,3/4-x
-x,1/2+y,1/2-z
3/4-z,1/4+y,3/4+x
z,x,y
y,z,x
1/2-y,-z,1/2+x
1/2+z,1/2-x,-y
-y,1/2+z,1/2-x
1/2-z,-x,1/2+y
-z,1/2+x,1/2-y
1/2+y,1/2-z,-x
1/4+y,3/4+x,3/4-z
1/4-y,1/4-x,1/4-z
3/4-x,1/4+z,3/4+y
1/4-x,1/4-z,1/4-y
3/4+z,3/4-y,1/4+x
1/4-z,1/4-y,1/4-x
loop_
_atom_site_type_symbol
_atom_site_label
_atom_site_fract_x
_atom_site_fract_y
_atom_site_fract_z
Si Si1 0.255979 0.425788 0.671236
Si Si2 0.806493 0.693508 0.306494
Si Si3 0.631066 0.573575 0.230958
O O1 0.175836 0.397385 0.761985
O O2 0.363139 0.458027 0.719475
O O3 0.206182 0.519915 0.614426
O O4 0.875000 0.625000 0.375000
O O5 0.695211 0.647129 0.301382
O O6 0.689647 0.560354 0.125000
#
# Coordination Sequence:
#
# PCOD8331007 Si02
#       3
#    24   8  24
#     4  10  24  40  73 113 143 175 250 328 383 421
#     4  12  30  45  69  99 150 213 244 269 388 480
#     4  12  22  45  71 100 148 194 239 309 375 448
#
# _framework density 23.601113999999999
#
# number of rings (size 3 to 8) (size 9 to 14) (size 15 to 20)
#    0.857    0.000    4.286    3.857    0.000    3.429 
#    0.000    0.000    0.000    0.857    0.000    0.000 
#    0.000    0.000    0.000    0.000    0.000    0.000 
#
# Total GULP energy -693934.324575 kJ/mol
# GULP energy per Si atom -12391.684367 kJ/mol
# Density = 2.354740 g / cm^3
# Si number density = 23.601114 Si / 1000 Ang^3
#
#
#
# Elastic Constant Matrix: (Units=GPa)
#
#
# Indices 1 2 3 4 5 6 
#
# 1 85.4855 30.5476 30.5482 0.0000 0.0000 0.0000
# 2 30.5476 85.4855 30.5482 0.0000 0.0000 0.0000
# 3 30.5482 30.5482 85.4863 0.0000 0.0000 0.0000
# 4 0.0000 0.0000 0.0000 39.7087 0.0000 0.0000
# 5 0.0000 0.0000 0.0000 0.0000 39.7087 0.0000
# 6 0.0000 0.0000 0.0000 0.0000 0.0000 39.7077
#
#
#
# Elastic Compliance Matrix: (Units=1/GPa)
#
#
# Indices 1 2 3 4 5 6 
#
# 1 0.014409 -0.003793 -0.003793 0.000000 0.000000 0.000000
# 2 -0.003793 0.014409 -0.003793 0.000000 0.000000 0.000000
# 3 -0.003793 -0.003793 0.014409 0.000000 0.000000 0.000000
# 4 0.000000 0.000000 0.000000 0.025183 0.000000 0.000000
# 5 0.000000 0.000000 0.000000 0.000000 0.025183 0.000000
# 6 0.000000 0.000000 0.000000 0.000000 0.000000 0.025184
#
#
# Mechanical properties :
#
#
# Convention : Reuss Voigt Hill
#
# Bulk Modulus (GPa) = 48.86057 48.86057 48.86057
# Shear Modulus (GPa) = 33.70170 34.81258 34.25714
#
# Velocity S-wave (km/s) = 3.78295 3.84479 3.81400
# Velocity P-wave (km/s) = 6.31099 6.36062 6.33585
#
# Compressibility (1/GPa) = 0.02046640
#
# Stress axis : x y z
#
# Youngs Moduli (GPa) = 69.40102 69.40102 69.40140
#
# Poissons Ratio (x) = 0.26326 0.26327
# Poissons Ratio (y) = 0.26326 0.26327
# Poissons Ratio (z) = 0.26327 0.26327
#
# Static dielectric constant tensor:
#      x y z
#    x 4.320570 0.000000 0.000000 
#    y 0.000000 4.320570 0.000000 
#    z 0.000000 0.000000 4.320550 
# 
# 
# High freq. dielectric constant tensor:
#      x y z
#    x 1.932420 0.000000 0.000000 
#    y 0.000000 1.932420 0.000000 
#    z 0.000000 0.000000 1.932420 
# 
# From -- ./inp_files/244.got.cif
#   From: 2010.03.12/outbox.cif.g09.slc.cpg/sg212_cif.got.tgz:244.got - 2010.03.30 09:05:11.
