data_PCOD8331153
_publ_section_title
;
Structure prediction by ZEFSAII (Michael W. Deem and Ramdas Pophale) SiO2 
 PCOD8331153
Probable space group: F D 3 C 
;
_chemical_formula_sum "Si O2"
_cell_formula_units_Z 528
_cell_length_a 27.846989
_cell_length_b 27.846989
_cell_length_c 27.846989
_cell_angle_alpha 90.000000
_cell_angle_beta 90.000000
_cell_angle_gamma 90.000000
_cell_volume 21594.081184
_symmetry_space_group_name_H-M "F D 3 C "
_symmetry_group_IT_number 228
_space_group.IT_coordinate_system_code '2'
_symmetry_cell_setting 'cubic'
loop_
_space_group_symop_operation_xyz
x,y,z
-y,1/4+x,3/4+z
1/4-x,1/4-y,z
1/4+y,-x,3/4+z
1/4+x,-z,3/4+y
x,1/4-y,1/4-z
1/4+x,3/4+z,-y
1/4+z,3/4+y,-x
1/4-x,y,1/4-z
-z,1/4+y,3/4+x
z,x,y
y,z,x
1/4-y,1/4-z,x
z,1/4-x,1/4-y
1/4-y,z,1/4-x
1/4-z,1/4-x,y
1/4-z,x,1/4-y
y,1/4-z,1/4-x
1/4+y,3/4+x,-z
-y,-x,1/2-z
-x,1/4+z,3/4+y
-x,-z,1/2-y
1/4+z,-y,3/4+x
-z,-y,1/2-x
-x,-y,-z
y,3/4-x,1/4-z
3/4+x,3/4+y,-z
3/4-y,x,1/4-z
3/4-x,z,1/4-y
-x,3/4+y,3/4+z
3/4-x,1/4-z,y
3/4-z,1/4-y,x
3/4+x,-y,3/4+z
z,3/4-y,1/4-x
-z,-x,-y
-y,-z,-x
3/4+y,3/4+z,-x
-z,3/4+x,3/4+y
3/4+y,-z,3/4+x
3/4+z,3/4+x,-y
3/4+z,-x,3/4+y
-y,3/4+z,3/4+x
3/4-y,1/4-x,z
y,x,1/2+z
x,3/4-z,1/4-y
x,z,1/2+y
3/4-z,y,1/4-x
z,y,1/2+x
x,1/2+y,1/2+z
-y,3/4+x,1/4+z
1/4-x,3/4-y,1/2+z
1/4+y,1/2-x,1/4+z
1/4+x,1/2-z,1/4+y
x,3/4-y,3/4-z
1/4+x,1/4+z,1/2-y
1/4+z,1/4+y,1/2-x
1/4-x,1/2+y,3/4-z
-z,3/4+y,1/4+x
z,1/2+x,1/2+y
y,1/2+z,1/2+x
1/4-y,3/4-z,1/2+x
z,3/4-x,3/4-y
1/4-y,1/2+z,3/4-x
1/4-z,3/4-x,1/2+y
1/4-z,1/2+x,3/4-y
y,3/4-z,3/4-x
1/4+y,1/4+x,1/2-z
-y,1/2-x,-z
-x,3/4+z,1/4+y
-x,1/2-z,-y
1/4+z,1/2-y,1/4+x
-z,1/2-y,-x
-x,1/2-y,1/2-z
y,1/4-x,3/4-z
3/4+x,1/4+y,1/2-z
3/4-y,1/2+x,3/4-z
3/4-x,1/2+z,3/4-y
-x,1/4+y,1/4+z
3/4-x,3/4-z,1/2+y
3/4-z,3/4-y,1/2+x
3/4+x,1/2-y,1/4+z
z,1/4-y,3/4-x
-z,1/2-x,1/2-y
-y,1/2-z,1/2-x
3/4+y,1/4+z,1/2-x
-z,1/4+x,1/4+y
3/4+y,1/2-z,1/4+x
3/4+z,1/4+x,1/2-y
3/4+z,1/2-x,1/4+y
-y,1/4+z,1/4+x
3/4-y,3/4-x,1/2+z
y,1/2+x,z
x,1/4-z,3/4-y
x,1/2+z,y
3/4-z,1/2+y,3/4-x
z,1/2+y,x
1/2+x,y,1/2+z
1/2-y,1/4+x,1/4+z
3/4-x,1/4-y,1/2+z
3/4+y,-x,1/4+z
3/4+x,-z,1/4+y
1/2+x,1/4-y,3/4-z
3/4+x,3/4+z,1/2-y
3/4+z,3/4+y,1/2-x
3/4-x,y,3/4-z
1/2-z,1/4+y,1/4+x
1/2+z,x,1/2+y
1/2+y,z,1/2+x
3/4-y,1/4-z,1/2+x
1/2+z,1/4-x,3/4-y
3/4-y,z,3/4-x
3/4-z,1/4-x,1/2+y
3/4-z,x,3/4-y
1/2+y,1/4-z,3/4-x
3/4+y,3/4+x,1/2-z
1/2-y,-x,-z
1/2-x,1/4+z,1/4+y
1/2-x,-z,-y
3/4+z,-y,1/4+x
1/2-z,-y,-x
1/2-x,-y,1/2-z
1/2+y,3/4-x,3/4-z
1/4+x,3/4+y,1/2-z
1/4-y,x,3/4-z
1/4-x,z,3/4-y
1/2-x,3/4+y,1/4+z
1/4-x,1/4-z,1/2+y
1/4-z,1/4-y,1/2+x
1/4+x,-y,1/4+z
1/2+z,3/4-y,3/4-x
1/2-z,-x,1/2-y
1/2-y,-z,1/2-x
1/4+y,3/4+z,1/2-x
1/2-z,3/4+x,1/4+y
1/4+y,-z,1/4+x
1/4+z,3/4+x,1/2-y
1/4+z,-x,1/4+y
1/2-y,3/4+z,1/4+x
1/4-y,1/4-x,1/2+z
1/2+y,x,z
1/2+x,3/4-z,3/4-y
1/2+x,z,y
1/4-z,y,3/4-x
1/2+z,y,x
1/2+x,1/2+y,z
1/2-y,3/4+x,3/4+z
3/4-x,3/4-y,z
3/4+y,1/2-x,3/4+z
3/4+x,1/2-z,3/4+y
1/2+x,3/4-y,1/4-z
3/4+x,1/4+z,-y
3/4+z,1/4+y,-x
3/4-x,1/2+y,1/4-z
1/2-z,3/4+y,3/4+x
1/2+z,1/2+x,y
1/2+y,1/2+z,x
3/4-y,3/4-z,x
1/2+z,3/4-x,1/4-y
3/4-y,1/2+z,1/4-x
3/4-z,3/4-x,y
3/4-z,1/2+x,1/4-y
1/2+y,3/4-z,1/4-x
3/4+y,1/4+x,-z
1/2-y,1/2-x,1/2-z
1/2-x,3/4+z,3/4+y
1/2-x,1/2-z,1/2-y
3/4+z,1/2-y,3/4+x
1/2-z,1/2-y,1/2-x
1/2-x,1/2-y,-z
1/2+y,1/4-x,1/4-z
1/4+x,1/4+y,-z
1/4-y,1/2+x,1/4-z
1/4-x,1/2+z,1/4-y
1/2-x,1/4+y,3/4+z
1/4-x,3/4-z,y
1/4-z,3/4-y,x
1/4+x,1/2-y,3/4+z
1/2+z,1/4-y,1/4-x
1/2-z,1/2-x,-y
1/2-y,1/2-z,-x
1/4+y,1/4+z,-x
1/2-z,1/4+x,3/4+y
1/4+y,1/2-z,3/4+x
1/4+z,1/4+x,-y
1/4+z,1/2-x,3/4+y
1/2-y,1/4+z,3/4+x
1/4-y,3/4-x,z
1/2+y,1/2+x,1/2+z
1/2+x,1/4-z,1/4-y
1/2+x,1/2+z,1/2+y
1/4-z,1/2+y,1/4-x
1/2+z,1/2+y,1/2+x
loop_
_atom_site_type_symbol
_atom_site_label
_atom_site_fract_x
_atom_site_fract_y
_atom_site_fract_z
Si Si1 0.019637 0.626572 0.983014
Si Si2 0.442642 0.807360 0.307360
Si Si3 0.782486 0.782486 0.282486
Si Si4 0.359327 0.668278 0.683600
Si Si5 0.875000 0.875000 0.875000
O O1 0.052581 0.654298 0.944541
O O2 0.967898 0.616533 0.958569
O O3 0.045692 0.580156 0.005065
O O4 0.014665 0.662760 0.027896
O O5 0.408794 0.841207 0.341208
O O6 0.750000 0.750000 0.250000
O O7 0.357984 0.688065 0.629481
#
# Coordination Sequence:
#
# PCOD8331153 Si02
#       5
#   192  64  64 192  16
#     4  11  26  46  72 107 144 191 251 311 376 460
#     4  12  27  49  77 109 149 197 255 325 380 451
#     4  12  22  44  73 102 142 191 247 300 367 461
#     4  10  24  45  70 103 147 194 241 302 380 461
#     4  12  28  52  72 104 146 208 268 316 392 472
#
# _framework density 24.451145
#
# number of rings (size 3 to 8) (size 9 to 14) (size 15 to 20)
#    0.000    1.091    3.636    2.182    0.000   20.364 
#    0.000    1.818    0.000    0.000    0.000    0.000 
#    0.000    0.000    0.000    0.000    0.000    0.000 
#
# Total GULP energy -1636287.571914 kJ/mol
# GULP energy per Si atom -12396.117969 kJ/mol
# Density = 2.439549 g / cm^3
# Si number density = 24.451145 Si / 1000 Ang^3
#
#
#
# Elastic Constant Matrix: (Units=GPa)
#
#
# Indices 1 2 3 4 5 6 
#
# 1 111.2403 50.4542 50.4495 0.0000 0.0000 0.0000
# 2 50.4542 111.2403 50.4495 0.0000 0.0000 0.0000
# 3 50.4495 50.4495 111.2382 0.0000 0.0000 0.0000
# 4 0.0000 0.0000 0.0000 42.2975 0.0000 0.0000
# 5 0.0000 0.0000 0.0000 0.0000 42.2975 0.0000
# 6 0.0000 0.0000 0.0000 0.0000 0.0000 42.2994
#
#
#
# Elastic Compliance Matrix: (Units=1/GPa)
#
#
# Indices 1 2 3 4 5 6 
#
# 1 0.012538 -0.003913 -0.003912 0.000000 0.000000 0.000000
# 2 -0.003913 0.012538 -0.003912 0.000000 0.000000 0.000000
# 3 -0.003912 -0.003912 0.012538 0.000000 0.000000 0.000000
# 4 0.000000 0.000000 0.000000 0.023642 0.000000 0.000000
# 5 0.000000 0.000000 0.000000 0.000000 0.023642 0.000000
# 6 0.000000 0.000000 0.000000 0.000000 0.000000 0.023641
#
#
# Mechanical properties :
#
#
# Convention : Reuss Voigt Hill
#
# Bulk Modulus (GPa) = 70.71393 70.71393 70.71393
# Shear Modulus (GPa) = 36.56921 37.53658 37.05289
#
# Velocity S-wave (km/s) = 3.87150 3.92237 3.89702
# Velocity P-wave (km/s) = 6.99771 7.03538 7.01657
#
# Compressibility (1/GPa) = 0.01414149
#
# Stress axis : x y z
#
# Youngs Moduli (GPa) = 79.75518 79.75518 79.75715
#
# Poissons Ratio (x) = 0.31206 0.31201
# Poissons Ratio (y) = 0.31206 0.31201
# Poissons Ratio (z) = 0.31200 0.31200
#
# Static dielectric constant tensor:
#      x y z
#    x 4.056740 0.000000 0.000000 
#    y 0.000000 4.056740 0.000000 
#    z 0.000000 0.000000 4.056910 
# 
# 
# High freq. dielectric constant tensor:
#      x y z
#    x 1.972800 0.000000 0.000000 
#    y 0.000000 1.972800 0.000000 
#    z 0.000000 0.000000 1.972800 
# 
# From -- ./inp_files/722.got.cif
#   From: 2010.03.12/outbox.cif.g09.slc.cpg/sg228_cif.got.tgz:722.got - 2010.03.30 09:10:12.
