data_PCOD8331108
_publ_section_title
;
Structure prediction by ZEFSAII (Michael W. Deem and Ramdas Pophale) SiO2 
 PCOD8331108
Probable space group: P M 3 M
;
_chemical_formula_sum "Si O2"
_cell_formula_units_Z 192
_cell_length_a 23.279294
_cell_length_b 23.279294
_cell_length_c 23.279294
_cell_angle_alpha 90.000000
_cell_angle_beta 90.000000
_cell_angle_gamma 90.000000
_cell_volume 12615.643719
_symmetry_space_group_name_H-M "P M 3 M"
_symmetry_group_IT_number 221
_symmetry_cell_setting 'cubic'
loop_
_space_group_symop_operation_xyz
x,y,z
-y,x,z
-x,-y,z
y,-x,z
x,-z,y
x,-y,-z
x,z,-y
z,y,-x
-x,y,-z
-z,y,x
z,x,y
y,z,x
-y,-z,x
z,-x,-y
-y,z,-x
-z,-x,y
-z,x,-y
y,-z,-x
y,x,-z
-y,-x,-z
-x,z,y
-x,-z,-y
z,-y,x
-z,-y,-x
-x,-y,-z
y,-x,-z
x,y,-z
-y,x,-z
-x,z,-y
-x,y,z
-x,-z,y
-z,-y,x
x,-y,z
z,-y,-x
-z,-x,-y
-y,-z,-x
y,z,-x
-z,x,y
y,-z,x
z,x,-y
z,-x,y
-y,z,x
-y,-x,z
y,x,z
x,-z,-y
x,z,y
-z,y,-x
z,y,x
loop_
_atom_site_type_symbol
_atom_site_label
_atom_site_fract_x
_atom_site_fract_y
_atom_site_fract_z
Si Si1 0.065039 0.157250 0.752071
Si Si2 0.341624 0.245318 0.937216
Si Si3 0.500000 0.778294 0.682422
Si Si4 0.593115 0.688355 0.500000
Si Si5 0.621003 0.281159 0.183214
O O1 0.098142 0.098142 0.754529
O O2 0.091366 0.202035 0.797966
O O3 0.069908 0.183605 0.688351
O O4 0.000000 0.143029 0.768054
O O5 0.292895 0.292895 0.939207
O O6 0.380741 0.255123 0.881237
O O7 0.374393 0.247077 0.000000
O O8 0.500000 0.727920 0.727920
O O9 0.500000 0.752466 0.618419
O O10 0.441488 0.814056 0.689513
O O11 0.556739 0.678738 0.443262
O O12 0.643030 0.643030 0.500000
O O13 0.671532 0.328469 0.191874
O O14 0.629530 0.231124 0.231124
#
# Coordination Sequence:
#
# PCOD8331108 Si02
#       5
#    48  48  24  24  48
#     4   9  16  25  37  54  77 105 137 172 212 257
#     4   8  15  27  42  61  84 107 130 164 211 258
#     4   9  19  31  42  61  87 113 139 175 221 259
#     4  10  19  31  46  63  86 116 151 188 226 268
#     4  10  18  29  46  66  88 113 145 181 216 258
#
# _framework density 15.219199
#
# number of rings (size 3 to 8) (size 9 to 14) (size 15 to 20)
#    0.000    2.875    0.000    3.750    0.000    0.250 
#    0.000    5.625    0.000    1.000    0.000    0.000 
#    0.000    0.000    0.000   23.000    0.000   75.000 
#
# Total GULP energy -2378689.866037 kJ/mol
# GULP energy per Si atom -12389.009719 kJ/mol
# Density = 1.518456 g / cm^3
# Si number density = 15.219199 Si / 1000 Ang^3
#
#
#
# Elastic Constant Matrix: (Units=GPa)
#
#
# Indices 1 2 3 4 5 6 
#
# 1 90.4691 41.4453 41.4453 0.0000 0.0000 0.0000
# 2 41.4453 90.4691 41.4453 0.0000 0.0000 0.0000
# 3 41.4453 41.4453 90.4691 0.0000 0.0000 0.0000
# 4 0.0000 0.0000 0.0000 22.4373 0.0000 0.0000
# 5 0.0000 0.0000 0.0000 0.0000 22.4373 0.0000
# 6 0.0000 0.0000 0.0000 0.0000 0.0000 22.4373
#
#
#
# Elastic Compliance Matrix: (Units=1/GPa)
#
#
# Indices 1 2 3 4 5 6 
#
# 1 0.015522 -0.004877 -0.004877 0.000000 0.000000 0.000000
# 2 -0.004877 0.015522 -0.004877 0.000000 0.000000 0.000000
# 3 -0.004877 -0.004877 0.015522 0.000000 0.000000 0.000000
# 4 0.000000 0.000000 0.000000 0.044569 0.000000 0.000000
# 5 0.000000 0.000000 0.000000 0.000000 0.044569 0.000000
# 6 0.000000 0.000000 0.000000 0.000000 0.000000 0.044569
#
#
# Mechanical properties :
#
#
# Convention : Reuss Voigt Hill
#
# Bulk Modulus (GPa) = 57.78655 57.78655 57.78655
# Shear Modulus (GPa) = 23.22353 23.26715 23.24534
#
# Velocity S-wave (km/s) = 3.91056 3.91423 3.91240
# Velocity P-wave (km/s) = 7.64473 7.64724 7.64598
#
# Compressibility (1/GPa) = 0.01730506
#
# Stress axis : x y z
#
# Youngs Moduli (GPa) = 64.42628 64.42628 64.42628
#
# Poissons Ratio (x) = 0.31418 0.31418
# Poissons Ratio (y) = 0.31418 0.31418
# Poissons Ratio (z) = 0.31418 0.31418
#
# Static dielectric constant tensor:
#      x y z
#    x 2.983400 0.000000 0.000000 
#    y 0.000000 2.983400 0.000000 
#    z 0.000000 0.000000 2.983400 
# 
# 
# High freq. dielectric constant tensor:
#      x y z
#    x 1.573650 0.000000 0.000000 
#    y 0.000000 1.573650 0.000000 
#    z 0.000000 0.000000 1.573650 
# 
# From -- ./inp_files/669.got.cif
#   From: 2010.03.12/outbox.cif.g09.slc.cpg/sg221_cif.got.tgz:669.got - 2010.03.30 09:08:03.
