data_PCOD8331118
_publ_section_title
;
Structure prediction by ZEFSAII (Michael W. Deem and Ramdas Pophale) SiO2 
 PCOD8331118
Probable space group: P M 3 M
;
_chemical_formula_sum "Si O2"
_cell_formula_units_Z 144
_cell_length_a 20.641965
_cell_length_b 20.641965
_cell_length_c 20.641965
_cell_angle_alpha 90.000000
_cell_angle_beta 90.000000
_cell_angle_gamma 90.000000
_cell_volume 8795.349710
_symmetry_space_group_name_H-M "P M 3 M"
_symmetry_group_IT_number 221
_symmetry_cell_setting 'cubic'
loop_
_space_group_symop_operation_xyz
x,y,z
-y,x,z
-x,-y,z
y,-x,z
x,-z,y
x,-y,-z
x,z,-y
z,y,-x
-x,y,-z
-z,y,x
z,x,y
y,z,x
-y,-z,x
z,-x,-y
-y,z,-x
-z,-x,y
-z,x,-y
y,-z,-x
y,x,-z
-y,-x,-z
-x,z,y
-x,-z,-y
z,-y,x
-z,-y,-x
-x,-y,-z
y,-x,-z
x,y,-z
-y,x,-z
-x,z,-y
-x,y,z
-x,-z,y
-z,-y,x
x,-y,z
z,-y,-x
-z,-x,-y
-y,-z,-x
y,z,-x
-z,x,y
y,-z,x
z,x,-y
z,-x,y
-y,z,x
-y,-x,z
y,x,z
x,-z,-y
x,z,y
-z,y,-x
z,y,x
loop_
_atom_site_type_symbol
_atom_site_label
_atom_site_fract_x
_atom_site_fract_y
_atom_site_fract_z
Si Si1 0.284252 0.176346 0.500000
Si Si2 0.073819 0.718093 0.821242
Si Si3 0.072121 0.280825 0.388759
Si Si4 0.500000 0.392175 0.715428
O O1 0.219531 0.219531 0.500000
O O2 0.285964 0.130164 0.561453
O O3 0.347623 0.221042 0.500000
O O4 0.100703 0.773992 0.773992
O O5 0.112812 0.717299 0.887189
O O6 0.080656 0.649085 0.786358
O O7 0.000000 0.732278 0.839615
O O8 0.078276 0.340473 0.340473
O O9 0.000000 0.282237 0.421102
O O10 0.564238 0.435763 0.715974
O O11 0.500000 0.349364 0.650637
#
# Coordination Sequence:
#
# PCOD8331118 Si02
#       4
#    24  48  48  24
#     4  11  20  30  48  72  97 120 145 183 229 270
#     4   9  17  29  45  65  89 117 150 187 226 268
#     4   9  18  32  48  66  90 121 155 186 217 260
#     4  10  21  36  53  72  94 120 150 184 222 265
#
# _framework density 16.372287
#
# number of rings (size 3 to 8) (size 9 to 14) (size 15 to 20)
#    0.000    2.500    0.000    5.167    0.000    0.333 
#    0.000    0.000    0.000   12.000    0.000    7.000 
#    0.000   12.000    0.000   10.333    0.000    0.000 
#
# Total GULP energy -1785167.470175 kJ/mol
# GULP energy per Si atom -12396.996321 kJ/mol
# Density = 1.633502 g / cm^3
# Si number density = 16.372287 Si / 1000 Ang^3
#
#
#
# Elastic Constant Matrix: (Units=GPa)
#
#
# Indices 1 2 3 4 5 6 
#
# 1 105.3565 53.8442 53.8442 0.0000 0.0000 0.0000
# 2 53.8442 105.3565 53.8442 0.0000 0.0000 0.0000
# 3 53.8442 53.8442 105.3565 0.0000 0.0000 0.0000
# 4 0.0000 0.0000 0.0000 21.5138 0.0000 0.0000
# 5 0.0000 0.0000 0.0000 0.0000 21.5138 0.0000
# 6 0.0000 0.0000 0.0000 0.0000 0.0000 21.5138
#
#
#
# Elastic Compliance Matrix: (Units=1/GPa)
#
#
# Indices 1 2 3 4 5 6 
#
# 1 0.014507 -0.004906 -0.004906 0.000000 0.000000 0.000000
# 2 -0.004906 0.014507 -0.004906 0.000000 0.000000 0.000000
# 3 -0.004906 -0.004906 0.014507 0.000000 0.000000 0.000000
# 4 0.000000 0.000000 0.000000 0.046482 0.000000 0.000000
# 5 0.000000 0.000000 0.000000 0.000000 0.046482 0.000000
# 6 0.000000 0.000000 0.000000 0.000000 0.000000 0.046482
#
#
# Mechanical properties :
#
#
# Convention : Reuss Voigt Hill
#
# Bulk Modulus (GPa) = 71.01498 71.01498 71.01498
# Shear Modulus (GPa) = 23.03118 23.21072 23.12095
#
# Velocity S-wave (km/s) = 3.75469 3.76930 3.76200
# Velocity P-wave (km/s) = 7.89090 7.90017 7.89554
#
# Compressibility (1/GPa) = 0.01408154
#
# Stress axis : x y z
#
# Youngs Moduli (GPa) = 68.93457 68.93457 68.93457
#
# Poissons Ratio (x) = 0.33822 0.33822
# Poissons Ratio (y) = 0.33822 0.33822
# Poissons Ratio (z) = 0.33822 0.33822
#
# Static dielectric constant tensor:
#      x y z
#    x 3.077400 0.000000 0.000000 
#    y 0.000000 3.077400 0.000000 
#    z 0.000000 0.000000 3.077400 
# 
# 
# High freq. dielectric constant tensor:
#      x y z
#    x 1.632310 0.000000 0.000000 
#    y 0.000000 1.632310 0.000000 
#    z 0.000000 0.000000 1.632310 
# 
# From -- ./inp_files/306.got.cif
#   From: 2010.03.12/outbox.cif.g09.slc.cpg/sg221_cif.got.tgz:306.got - 2010.03.30 09:08:03.
