data_PCOD8331159
_publ_section_title
;
Structure prediction by ZEFSAII (Michael W. Deem and Ramdas Pophale) SiO2 
 PCOD8331159
Probable space group: I M 3 M
;
_chemical_formula_sum "Si O2"
_cell_formula_units_Z 384
_cell_length_a 28.658401
_cell_length_b 28.658401
_cell_length_c 28.658401
_cell_angle_alpha 90.000000
_cell_angle_beta 90.000000
_cell_angle_gamma 90.000000
_cell_volume 23537.257881
_symmetry_space_group_name_H-M "I M 3 M"
_symmetry_group_IT_number 229
_symmetry_cell_setting 'cubic'
loop_
_space_group_symop_operation_xyz
x,y,z
-y,x,z
-x,-y,z
y,-x,z
x,-z,y
x,-y,-z
x,z,-y
z,y,-x
-x,y,-z
-z,y,x
z,x,y
y,z,x
-y,-z,x
z,-x,-y
-y,z,-x
-z,-x,y
-z,x,-y
y,-z,-x
y,x,-z
-y,-x,-z
-x,z,y
-x,-z,-y
z,-y,x
-z,-y,-x
-x,-y,-z
y,-x,-z
x,y,-z
-y,x,-z
-x,z,-y
-x,y,z
-x,-z,y
-z,-y,x
x,-y,z
z,-y,-x
-z,-x,-y
-y,-z,-x
y,z,-x
-z,x,y
y,-z,x
z,x,-y
z,-x,y
-y,z,x
-y,-x,z
y,x,z
x,-z,-y
x,z,y
-z,y,-x
z,y,x
1/2+x,1/2+y,1/2+z
1/2-y,1/2+x,1/2+z
1/2-x,1/2-y,1/2+z
1/2+y,1/2-x,1/2+z
1/2+x,1/2-z,1/2+y
1/2+x,1/2-y,1/2-z
1/2+x,1/2+z,1/2-y
1/2+z,1/2+y,1/2-x
1/2-x,1/2+y,1/2-z
1/2-z,1/2+y,1/2+x
1/2+z,1/2+x,1/2+y
1/2+y,1/2+z,1/2+x
1/2-y,1/2-z,1/2+x
1/2+z,1/2-x,1/2-y
1/2-y,1/2+z,1/2-x
1/2-z,1/2-x,1/2+y
1/2-z,1/2+x,1/2-y
1/2+y,1/2-z,1/2-x
1/2+y,1/2+x,1/2-z
1/2-y,1/2-x,1/2-z
1/2-x,1/2+z,1/2+y
1/2-x,1/2-z,1/2-y
1/2+z,1/2-y,1/2+x
1/2-z,1/2-y,1/2-x
1/2-x,1/2-y,1/2-z
1/2+y,1/2-x,1/2-z
1/2+x,1/2+y,1/2-z
1/2-y,1/2+x,1/2-z
1/2-x,1/2+z,1/2-y
1/2-x,1/2+y,1/2+z
1/2-x,1/2-z,1/2+y
1/2-z,1/2-y,1/2+x
1/2+x,1/2-y,1/2+z
1/2+z,1/2-y,1/2-x
1/2-z,1/2-x,1/2-y
1/2-y,1/2-z,1/2-x
1/2+y,1/2+z,1/2-x
1/2-z,1/2+x,1/2+y
1/2+y,1/2-z,1/2+x
1/2+z,1/2+x,1/2-y
1/2+z,1/2-x,1/2+y
1/2-y,1/2+z,1/2+x
1/2-y,1/2-x,1/2+z
1/2+y,1/2+x,1/2+z
1/2+x,1/2-z,1/2-y
1/2+x,1/2+z,1/2+y
1/2-z,1/2+y,1/2-x
1/2+z,1/2+y,1/2+x
loop_
_atom_site_type_symbol
_atom_site_label
_atom_site_fract_x
_atom_site_fract_y
_atom_site_fract_z
Si Si1 0.632492 0.224370 0.444675
Si Si2 0.945599 0.228428 0.771573
Si Si3 0.626034 0.051684 0.626034
Si Si4 0.053362 0.620347 0.832811
Si Si5 0.695826 0.304175 0.915613
Si Si6 0.614932 0.250000 0.885069
O O1 0.621326 0.232701 0.500000
O O2 0.587243 0.237559 0.412758
O O3 0.677075 0.255653 0.427502
O O4 0.644820 0.170502 0.435580
O O5 0.936007 0.267534 0.732467
O O6 0.000000 0.224355 0.775646
O O7 0.643182 0.078773 0.580834
O O8 0.666110 0.046332 0.666110
O O9 0.610949 0.000000 0.610949
O O10 0.066372 0.619717 0.778062
O O11 0.000000 0.607602 0.838140
O O12 0.659327 0.282292 0.880234
#
# Coordination Sequence:
#
# PCOD8331159 Si02
#       6
#    96  48  48  96  48  48
#     4  10  20  36  57  82 109 139 178 215 258 306
#     4  10  19  32  56  80 104 137 169 212 258 308
#     4  10  21  34  50  70  95 130 173 222 275 329
#     4  10  20  34  51  72  98 130 172 223 268 321
#     4  10  19  32  48  72  97 133 174 208 259 316
#     4  10  20  30  50  72  98 134 168 208 260 316
#
# _framework density 16.31456
#
# number of rings (size 3 to 8) (size 9 to 14) (size 15 to 20)
#    0.000    2.000    3.750    0.375    0.000    4.750 
#    0.750    0.000    0.000    0.625    0.000    0.875 
#    0.000    0.000    0.000    0.000    0.000    0.000 
#
# Total GULP energy -2378737.938755 kJ/mol
# GULP energy per Si atom -12389.260098 kJ/mol
# Density = 1.627743 g / cm^3
# Si number density = 16.314560 Si / 1000 Ang^3
#
#
#
# Elastic Constant Matrix: (Units=GPa)
#
#
# Indices 1 2 3 4 5 6 
#
# 1 94.8899 52.5493 52.5493 0.0000 0.0000 0.0000
# 2 52.5493 94.8899 52.5493 0.0000 0.0000 0.0000
# 3 52.5493 52.5493 94.8899 0.0000 0.0000 0.0000
# 4 0.0000 0.0000 0.0000 -175.3093 0.0000 0.0000
# 5 0.0000 0.0000 0.0000 0.0000 -175.3093 0.0000
# 6 0.0000 0.0000 0.0000 0.0000 0.0000 -175.3093
#
#
#
# Elastic Compliance Matrix: (Units=1/GPa)
#
#
# Indices 1 2 3 4 5 6 
#
# 1 0.017412 -0.006206 -0.006206 0.000000 0.000000 0.000000
# 2 -0.006206 0.017412 -0.006206 0.000000 0.000000 0.000000
# 3 -0.006206 -0.006206 0.017412 0.000000 0.000000 0.000000
# 4 0.000000 0.000000 0.000000 -0.005704 0.000000 0.000000
# 5 0.000000 0.000000 0.000000 0.000000 -0.005704 0.000000
# 6 0.000000 0.000000 0.000000 0.000000 0.000000 -0.005704
#
#
# Mechanical properties :
#
#
# Convention : Reuss Voigt Hill
#
# Bulk Modulus (GPa) = 66.66287 66.66287 66.66287
# Shear Modulus (GPa) = 64.63339 -96.71746 -16.04204
#
# Velocity S-wave (km/s) = 6.30103 -7.70789 -3.13916
# Velocity P-wave (km/s) = 9.68953 6.18594 5.27358
#
# Compressibility (1/GPa) = 0.01500086
#
# Stress axis : x y z
#
# Youngs Moduli (GPa) = 57.43134 57.43133 57.43134
#
# Poissons Ratio (x) = 0.35641 0.35641
# Poissons Ratio (y) = 0.35641 0.35641
# Poissons Ratio (z) = 0.35641 0.35641
#
# Static dielectric constant tensor:
#      x y z
#    x 3.312650 0.000000 0.000000 
#    y 0.000000 3.312650 0.000000 
#    z 0.000000 0.000000 3.312650 
# 
# 
# High freq. dielectric constant tensor:
#      x y z
#    x 1.621200 0.000000 0.000000 
#    y 0.000000 1.621200 0.000000 
#    z 0.000000 0.000000 1.621200 
# 
# From -- ./inp_files/844.got.cif
#   From: 2010.03.12/outbox.cif.g09.slc.cpg/sg229_cif.got.tgz:844.got - 2010.03.30 09:10:17.
