data_PCOD8331099
_publ_section_title
;
Structure prediction by ZEFSAII (Michael W. Deem and Ramdas Pophale) SiO2 
 PCOD8331099
Probable space group: I -4 3 D
;
_chemical_formula_sum "Si O2"
_cell_formula_units_Z 104
_cell_length_a 16.676373
_cell_length_b 16.676373
_cell_length_c 16.676373
_cell_angle_alpha 90.000000
_cell_angle_beta 90.000000
_cell_angle_gamma 90.000000
_cell_volume 4637.722952
_symmetry_space_group_name_H-M "I -4 3 D"
_symmetry_group_IT_number 220
_symmetry_cell_setting 'cubic'
loop_
_space_group_symop_operation_xyz
x,y,z
1/4+y,3/4-x,1/4-z
-x,1/2-y,z
1/4-y,1/4+x,3/4-z
1/4-x,1/4+z,3/4-y
x,-y,1/2-z
3/4-x,1/4-z,1/4+y
3/4-z,1/4-y,1/4+x
1/2-x,y,-z
1/4+z,3/4-y,1/4-x
z,x,y
y,z,x
-y,1/2-z,x
z,-x,1/2-y
1/2-y,z,-x
-z,1/2-x,y
1/2-z,x,-y
y,-z,1/2-x
3/4-y,1/4-x,1/4+z
1/4+y,1/4+x,1/4+z
1/4+x,3/4-z,1/4-y
1/4+x,1/4+z,1/4+y
1/4-z,1/4+y,3/4-x
1/4+z,1/4+y,1/4+x
1/2+x,1/2+y,1/2+z
3/4+y,1/4-x,3/4-z
1/2-x,-y,1/2+z
3/4-y,3/4+x,1/4-z
3/4-x,3/4+z,1/4-y
1/2+x,1/2-y,-z
1/4-x,3/4-z,3/4+y
1/4-z,3/4-y,3/4+x
-x,1/2+y,1/2-z
3/4+z,1/4-y,3/4-x
1/2+z,1/2+x,1/2+y
1/2+y,1/2+z,1/2+x
1/2-y,-z,1/2+x
1/2+z,1/2-x,-y
-y,1/2+z,1/2-x
1/2-z,-x,1/2+y
-z,1/2+x,1/2-y
1/2+y,1/2-z,-x
1/4-y,3/4-x,3/4+z
3/4+y,3/4+x,3/4+z
3/4+x,1/4-z,3/4-y
3/4+x,3/4+z,3/4+y
3/4-z,3/4+y,1/4-x
3/4+z,3/4+y,3/4+x
loop_
_atom_site_type_symbol
_atom_site_label
_atom_site_fract_x
_atom_site_fract_y
_atom_site_fract_z
Si Si1 0.377748 0.369752 0.768519
Si Si2 0.250000 0.429964 0.500000
Si Si3 0.511264 0.488737 0.988737
Si Si4 0.380365 0.119637 0.880365
O O1 0.364589 0.410332 0.683047
O O2 0.458666 0.317698 0.765452
O O3 0.301878 0.314203 0.788074
O O4 0.321064 0.379962 0.454370
O O5 0.565378 0.434623 0.934624
#
# Coordination Sequence:
#
# PCOD8331099 Si02
#       4
#    48  24  16  16
#     4  11  26  46  73 105 145 191 242 304 368 437
#     4  12  26  48  75 109 144 194 248 300 374 451
#     4  12  25  47  73 106 149 190 244 302 370 442
#     4  12  28  47  79 106 152 193 250 311 376 451
#
# _framework density 22.424797000000002
#
# number of rings (size 3 to 8) (size 9 to 14) (size 15 to 20)
#    0.000    0.462    4.615    2.769    6.462    3.692 
#    0.000    2.308    0.000    0.000    0.000    0.000 
#    0.000    0.000    0.000    0.000    0.000    0.000 
#
# Total GULP energy -644724.268972 kJ/mol
# GULP energy per Si atom -12398.543634 kJ/mol
# Density = 2.237376 g / cm^3
# Si number density = 22.424797 Si / 1000 Ang^3
#
#
#
# Elastic Constant Matrix: (Units=GPa)
#
#
# Indices 1 2 3 4 5 6 
#
# 1 115.4707 52.8483 52.8469 0.0000 0.0000 0.0000
# 2 52.8483 115.4707 52.8469 0.0000 0.0000 0.0000
# 3 52.8469 52.8469 115.4687 0.0000 0.0000 0.0000
# 4 0.0000 0.0000 0.0000 11.9595 0.0000 0.0000
# 5 0.0000 0.0000 0.0000 0.0000 11.9595 0.0000
# 6 0.0000 0.0000 0.0000 0.0000 0.0000 11.9609
#
#
#
# Elastic Compliance Matrix: (Units=1/GPa)
#
#
# Indices 1 2 3 4 5 6 
#
# 1 0.012153 -0.003816 -0.003816 0.000000 0.000000 0.000000
# 2 -0.003816 0.012153 -0.003816 0.000000 0.000000 0.000000
# 3 -0.003816 -0.003816 0.012153 0.000000 0.000000 0.000000
# 4 0.000000 0.000000 0.000000 0.083615 0.000000 0.000000
# 5 0.000000 0.000000 0.000000 0.000000 0.083615 0.000000
# 6 0.000000 0.000000 0.000000 0.000000 0.000000 0.083606
#
#
# Mechanical properties :
#
#
# Convention : Reuss Voigt Hill
#
# Bulk Modulus (GPa) = 73.72160 73.72160 73.72160
# Shear Modulus (GPa) = 15.88760 19.70054 17.79407
#
# Velocity S-wave (km/s) = 2.66462 2.96719 2.81997
# Velocity P-wave (km/s) = 6.51255 6.68471 6.59919
#
# Compressibility (1/GPa) = 0.01356455
#
# Stress axis : x y z
#
# Youngs Moduli (GPa) = 82.28485 82.28485 82.28417
#
# Poissons Ratio (x) = 0.31398 0.31397
# Poissons Ratio (y) = 0.31398 0.31397
# Poissons Ratio (z) = 0.31397 0.31397
#
# Static dielectric constant tensor:
#      x y z
#    x 4.327830 0.000000 0.000000 
#    y 0.000000 4.327830 0.000000 
#    z 0.000000 0.000000 4.327860 
# 
# 
# High freq. dielectric constant tensor:
#      x y z
#    x 1.890580 0.000000 0.000000 
#    y 0.000000 1.890580 0.000000 
#    z 0.000000 0.000000 1.890590 
# 
# From -- ./inp_files/174.got.cif
#   From: 2010.03.12/outbox.cif.g09.slc.cpg/sg220_cif.got.tgz:174.got - 2010.03.30 09:07:51.
