data_PCOD8331005
_publ_section_title
;
Structure prediction by ZEFSAII (Michael W. Deem and Ramdas Pophale) SiO2 
 PCOD8331005
Probable space group: P 43 3 2
;
_chemical_formula_sum "Si O2"
_cell_formula_units_Z 116
_cell_length_a 17.919891
_cell_length_b 17.919891
_cell_length_c 17.919891
_cell_angle_alpha 90.000000
_cell_angle_beta 90.000000
_cell_angle_gamma 90.000000
_cell_volume 5754.480080
_symmetry_space_group_name_H-M "P 43 3 2"
_symmetry_group_IT_number 212
_symmetry_cell_setting 'cubic'
loop_
_space_group_symop_operation_xyz
x,y,z
3/4-y,1/4+x,3/4+z
1/2-x,-y,1/2+z
3/4+y,3/4-x,1/4+z
3/4+x,3/4-z,1/4+y
1/2+x,1/2-y,-z
1/4+x,3/4+z,3/4-y
1/4+z,3/4+y,3/4-x
-x,1/2+y,1/2-z
3/4-z,1/4+y,3/4+x
z,x,y
y,z,x
1/2-y,-z,1/2+x
1/2+z,1/2-x,-y
-y,1/2+z,1/2-x
1/2-z,-x,1/2+y
-z,1/2+x,1/2-y
1/2+y,1/2-z,-x
1/4+y,3/4+x,3/4-z
1/4-y,1/4-x,1/4-z
3/4-x,1/4+z,3/4+y
1/4-x,1/4-z,1/4-y
3/4+z,3/4-y,1/4+x
1/4-z,1/4-y,1/4-x
loop_
_atom_site_type_symbol
_atom_site_label
_atom_site_fract_x
_atom_site_fract_y
_atom_site_fract_z
Si Si1 0.506003 0.562342 0.223598
Si Si2 0.375000 0.447564 0.197564
Si Si3 0.875000 0.798220 0.548220
Si Si4 0.442855 0.807145 0.625000
Si Si5 0.148884 0.493872 0.173243
Si Si6 0.419630 0.648156 0.608507
Si Si7 0.574497 0.574497 0.574497
O O1 0.434509 0.514770 0.198542
O O2 0.542587 0.616013 0.161254
O O3 0.478350 0.612970 0.291523
O O4 0.570210 0.506657 0.250621
O O5 0.799500 0.829758 0.585378
O O6 0.874111 0.819007 0.461301
O O7 0.434822 0.875000 0.684822
O O8 0.438138 0.722578 0.658654
O O9 0.128846 0.407332 0.158654
O O10 0.490699 0.603572 0.579039
O O11 0.625000 0.625000 0.625000
#
# Coordination Sequence:
#
# PCOD8331005 Si02
#       7
#    24  12  12  12  24  24   8
#     4  10  22  42  63  93 129 165 217 265 326 385
#     4  10  21  42  66  94 130 170 215 276 328 394
#     4  12  22  40  66  92 134 166 214 266 324 398
#     4  10  23  44  62  88 122 170 211 262 330 386
#     4  11  23  40  65  95 126 171 211 263 322 391
#     4  12  23  41  65  92 130 167 215 266 326 387
#     4  12  24  39  63  99 120 165 213 270 324 381
#
# _framework density 20.158207999999998
#
# number of rings (size 3 to 8) (size 9 to 14) (size 15 to 20)
#    0.207    0.828    6.207    1.034    0.000    0.000 
#   13.034    0.000    0.000    0.000    0.000    0.000 
#    0.000    0.000    0.000    0.000    0.000    0.000 
#
# Total GULP energy -1437424.285685 kJ/mol
# GULP energy per Si atom -12391.588670 kJ/mol
# Density = 2.011233 g / cm^3
# Si number density = 20.158208 Si / 1000 Ang^3
#
#
#
# Elastic Constant Matrix: (Units=GPa)
#
#
# Indices 1 2 3 4 5 6 
#
# 1 101.5033 20.0092 20.0093 0.0000 0.0000 0.0000
# 2 20.0092 101.5033 20.0093 0.0000 0.0000 0.0000
# 3 20.0093 20.0093 101.5037 0.0000 0.0000 0.0000
# 4 0.0000 0.0000 0.0000 24.6601 0.0000 0.0000
# 5 0.0000 0.0000 0.0000 0.0000 24.6601 0.0000
# 6 0.0000 0.0000 0.0000 0.0000 0.0000 24.6600
#
#
#
# Elastic Compliance Matrix: (Units=1/GPa)
#
#
# Indices 1 2 3 4 5 6 
#
# 1 0.010536 -0.001735 -0.001735 0.000000 0.000000 0.000000
# 2 -0.001735 0.010536 -0.001735 0.000000 0.000000 0.000000
# 3 -0.001735 -0.001735 0.010536 0.000000 0.000000 0.000000
# 4 0.000000 0.000000 0.000000 0.040551 0.000000 0.000000
# 5 0.000000 0.000000 0.000000 0.000000 0.040551 0.000000
# 6 0.000000 0.000000 0.000000 0.000000 0.000000 0.040551
#
#
# Mechanical properties :
#
#
# Convention : Reuss Voigt Hill
#
# Bulk Modulus (GPa) = 47.17402 47.17402 47.17402
# Shear Modulus (GPa) = 29.28474 31.09488 30.18981
#
# Velocity S-wave (km/s) = 3.81562 3.93178 3.87414
# Velocity P-wave (km/s) = 6.54711 6.63812 6.59277
#
# Compressibility (1/GPa) = 0.02119811
#
# Stress axis : x y z
#
# Youngs Moduli (GPa) = 94.91357 94.91357 94.91391
#
# Poissons Ratio (x) = 0.16467 0.16467
# Poissons Ratio (y) = 0.16467 0.16467
# Poissons Ratio (z) = 0.16467 0.16467
#
# Static dielectric constant tensor:
#      x y z
#    x 3.667380 0.000000 0.000000 
#    y 0.000000 3.667380 0.000000 
#    z 0.000000 0.000000 3.667380 
# 
# 
# High freq. dielectric constant tensor:
#      x y z
#    x 1.790720 0.000000 0.000000 
#    y 0.000000 1.790720 0.000000 
#    z 0.000000 0.000000 1.790720 
# 
# From -- ./inp_files/597.got.cif
#   From: 2010.03.12/outbox.cif.g09.slc.cpg/sg212_cif.got.tgz:597.got - 2010.03.30 09:05:11.
