data_PCOD8331025
_publ_section_title
;
Structure prediction by ZEFSAII (Michael W. Deem and Ramdas Pophale) SiO2 
 PCOD8331025
Probable space group: P -4 3 M
;
_chemical_formula_sum "Si O2"
_cell_formula_units_Z 96
_cell_length_a 18.018452
_cell_length_b 18.018452
_cell_length_c 18.018452
_cell_angle_alpha 90.000000
_cell_angle_beta 90.000000
_cell_angle_gamma 90.000000
_cell_volume 5849.953736
_symmetry_space_group_name_H-M "P -4 3 M"
_symmetry_group_IT_number 215
_symmetry_cell_setting 'cubic'
loop_
_space_group_symop_operation_xyz
x,y,z
y,-x,-z
-x,-y,z
-y,x,-z
-x,z,-y
x,-y,-z
-x,-z,y
-z,-y,x
-x,y,-z
z,-y,-x
z,x,y
y,z,x
-y,-z,x
z,-x,-y
-y,z,-x
-z,-x,y
-z,x,-y
y,-z,-x
-y,-x,z
y,x,z
x,-z,-y
x,z,y
-z,y,-x
z,y,x
loop_
_atom_site_type_symbol
_atom_site_label
_atom_site_fract_x
_atom_site_fract_y
_atom_site_fract_z
Si Si1 0.839825 0.425869 0.960006
Si Si2 0.091986 0.784135 0.338438
Si Si3 0.620733 0.498469 0.743461
Si Si4 0.139144 0.263008 0.507621
O O1 0.898925 0.398920 0.898925
O O2 0.759740 0.448053 0.923816
O O3 0.871184 0.500000 0.000000
O O4 0.829104 0.357580 0.016646
O O5 0.158500 0.841501 0.323113
O O6 0.080465 0.734454 0.265547
O O7 0.108194 0.730729 0.408682
O O8 0.573714 0.426287 0.722250
O O9 0.570393 0.570393 0.750818
O O10 0.679501 0.514281 0.679501
O O11 0.660013 0.484304 0.822551
O O12 0.197049 0.197049 0.507311
#
# Coordination Sequence:
#
# PCOD8331025 Si02
#       4
#    24  24  24  24
#     4   9  17  30  49  72  94 115 144 183 226 273
#     4  10  19  30  46  68  94 122 150 181 217 261
#     4  10  19  30  44  61  84 116 155 197 236 273
#     4   8  16  30  46  65  87 112 144 183 228 274
#
# _framework density 16.410385999999999
#
# number of rings (size 3 to 8) (size 9 to 14) (size 15 to 20)
#    0.000    2.750    0.000    3.750    0.000    2.750 
#    0.000    2.500    0.000    2.500    0.000   12.250 
#    0.000    0.000    0.000    0.000    0.000    0.000 
#
# Total GULP energy -1189969.449239 kJ/mol
# GULP energy per Si atom -12395.515096 kJ/mol
# Density = 1.637303 g / cm^3
# Si number density = 16.410386 Si / 1000 Ang^3
#
#
#
# Elastic Constant Matrix: (Units=GPa)
#
#
# Indices 1 2 3 4 5 6 
#
# 1 70.3274 25.4622 25.4622 0.0000 0.0000 0.0000
# 2 25.4622 70.3274 25.4622 0.0000 0.0000 0.0000
# 3 25.4622 25.4622 70.3274 0.0000 0.0000 0.0000
# 4 0.0000 0.0000 0.0000 22.0222 0.0000 0.0000
# 5 0.0000 0.0000 0.0000 0.0000 22.0222 0.0000
# 6 0.0000 0.0000 0.0000 0.0000 0.0000 22.0222
#
#
#
# Elastic Compliance Matrix: (Units=1/GPa)
#
#
# Indices 1 2 3 4 5 6 
#
# 1 0.017608 -0.004681 -0.004681 0.000000 0.000000 0.000000
# 2 -0.004681 0.017608 -0.004681 0.000000 0.000000 0.000000
# 3 -0.004681 -0.004681 0.017608 0.000000 0.000000 0.000000
# 4 0.000000 0.000000 0.000000 0.045409 0.000000 0.000000
# 5 0.000000 0.000000 0.000000 0.000000 0.045409 0.000000
# 6 0.000000 0.000000 0.000000 0.000000 0.000000 0.045409
#
#
# Mechanical properties :
#
#
# Convention : Reuss Voigt Hill
#
# Bulk Modulus (GPa) = 40.41730 40.41730 40.41730
# Shear Modulus (GPa) = 22.18456 22.18638 22.18547
#
# Velocity S-wave (km/s) = 3.68076 3.68091 3.68083
# Velocity P-wave (km/s) = 6.53808 6.53819 6.53814
#
# Compressibility (1/GPa) = 0.02474188
#
# Stress axis : x y z
#
# Youngs Moduli (GPa) = 56.79097 56.79097 56.79097
#
# Poissons Ratio (x) = 0.26581 0.26581
# Poissons Ratio (y) = 0.26581 0.26581
# Poissons Ratio (z) = 0.26581 0.26581
#
# Static dielectric constant tensor:
#      x y z
#    x 3.067610 0.000000 0.000000 
#    y 0.000000 3.067610 0.000000 
#    z 0.000000 0.000000 3.067610 
# 
# 
# High freq. dielectric constant tensor:
#      x y z
#    x 1.620760 0.000000 0.000000 
#    y 0.000000 1.620760 0.000000 
#    z 0.000000 0.000000 1.620760 
# 
# From -- ./inp_files/447.got.cif
#   From: 2010.03.12/outbox.cif.g09.slc.cpg/sg215_cif.got.tgz:447.got - 2010.03.30 09:06:09.
