data_PCOD8331145
_publ_section_title
;
Structure prediction by ZEFSAII (Michael W. Deem and Ramdas Pophale) SiO2 
 PCOD8331145
Probable space group: P N 3 M
;
_chemical_formula_sum "Si O2"
_cell_formula_units_Z 102
_cell_length_a 17.214112
_cell_length_b 17.214112
_cell_length_c 17.214112
_cell_angle_alpha 90.000000
_cell_angle_beta 90.000000
_cell_angle_gamma 90.000000
_cell_volume 5100.982961
_symmetry_space_group_name_H-M "P N 3 M"
_symmetry_group_IT_number 224
_space_group.IT_coordinate_system_code '2'
_symmetry_cell_setting 'cubic'
loop_
_space_group_symop_operation_xyz
x,y,z
-y,1/2+x,1/2+z
1/2-x,1/2-y,z
1/2+y,-x,1/2+z
1/2+x,-z,1/2+y
x,1/2-y,1/2-z
1/2+x,1/2+z,-y
1/2+z,1/2+y,-x
1/2-x,y,1/2-z
-z,1/2+y,1/2+x
z,x,y
y,z,x
1/2-y,1/2-z,x
z,1/2-x,1/2-y
1/2-y,z,1/2-x
1/2-z,1/2-x,y
1/2-z,x,1/2-y
y,1/2-z,1/2-x
1/2+y,1/2+x,-z
-y,-x,-z
-x,1/2+z,1/2+y
-x,-z,-y
1/2+z,-y,1/2+x
-z,-y,-x
-x,-y,-z
y,1/2-x,1/2-z
1/2+x,1/2+y,-z
1/2-y,x,1/2-z
1/2-x,z,1/2-y
-x,1/2+y,1/2+z
1/2-x,1/2-z,y
1/2-z,1/2-y,x
1/2+x,-y,1/2+z
z,1/2-y,1/2-x
-z,-x,-y
-y,-z,-x
1/2+y,1/2+z,-x
-z,1/2+x,1/2+y
1/2+y,-z,1/2+x
1/2+z,1/2+x,-y
1/2+z,-x,1/2+y
-y,1/2+z,1/2+x
1/2-y,1/2-x,z
y,x,z
x,1/2-z,1/2-y
x,z,y
1/2-z,y,1/2-x
z,y,x
loop_
_atom_site_type_symbol
_atom_site_label
_atom_site_fract_x
_atom_site_fract_y
_atom_site_fract_z
Si Si1 0.249780 0.613952 0.121534
Si Si2 0.750000 0.250000 0.500000
Si Si3 0.740765 0.954797 0.545204
Si Si4 0.750000 0.750000 0.750000
Si Si5 0.943760 0.943760 0.943760
Si Si6 0.148640 0.148640 0.351362
O O1 0.330380 0.605785 0.169621
O O2 0.180243 0.633697 0.180243
O O3 0.254882 0.677790 0.056300
O O4 0.229849 0.538313 0.071853
O O5 0.647302 0.957462 0.542539
O O6 0.786849 0.898316 0.601685
O O7 0.800765 0.699237 0.800765
O O8 0.000000 0.000000 0.000000
#
# Coordination Sequence:
#
# PCOD8331145 Si02
#       6
#    48  12  24   2   8   8
#     4  11  26  46  70  99 139 182 229 290 352 421
#     4  12  28  46  72  96 132 186 244 288 350 428
#     4  12  24  44  71 102 147 181 229 294 360 426
#     4  12  28  28  84  96 140 182 240 244 364 444
#     4  12  28  41  70 105 144 186 244 290 355 427
#     4  12  24  46  67 112 142 199 230 295 360 453
#
# _framework density 19.996146
#
# number of rings (size 3 to 8) (size 9 to 14) (size 15 to 20)
#    0.000    0.471    4.706    2.824    9.882    1.882 
#    0.000    0.000    0.000    2.824    0.000    0.000 
#    0.000    0.000    0.000    0.000    0.000    0.000 
#
# Total GULP energy -1263599.406013 kJ/mol
# GULP energy per Si atom -12388.229471 kJ/mol
# Density = 1.995063 g / cm^3
# Si number density = 19.996146 Si / 1000 Ang^3
#
#
#
# Elastic Constant Matrix: (Units=GPa)
#
#
# Indices 1 2 3 4 5 6 
#
# 1 148.5275 72.6739 72.6583 0.0000 0.0000 0.0000
# 2 72.6739 148.5275 72.6583 0.0000 0.0000 0.0000
# 3 72.6583 72.6583 148.5399 0.0000 0.0000 0.0000
# 4 0.0000 0.0000 0.0000 46.9748 0.0000 0.0000
# 5 0.0000 0.0000 0.0000 0.0000 46.9748 0.0000
# 6 0.0000 0.0000 0.0000 0.0000 0.0000 46.9750
#
#
#
# Elastic Compliance Matrix: (Units=1/GPa)
#
#
# Indices 1 2 3 4 5 6 
#
# 1 0.009922 -0.003261 -0.003258 0.000000 0.000000 0.000000
# 2 -0.003261 0.009922 -0.003258 0.000000 0.000000 0.000000
# 3 -0.003258 -0.003258 0.009920 0.000000 0.000000 0.000000
# 4 0.000000 0.000000 0.000000 0.021288 0.000000 0.000000
# 5 0.000000 0.000000 0.000000 0.000000 0.021288 0.000000
# 6 0.000000 0.000000 0.000000 0.000000 0.000000 0.021288
#
#
# Mechanical properties :
#
#
# Convention : Reuss Voigt Hill
#
# Bulk Modulus (GPa) = 97.95290 97.95290 97.95290
# Shear Modulus (GPa) = 42.88642 43.35854 43.12248
#
# Velocity S-wave (km/s) = 4.63615 4.66160 4.64889
# Velocity P-wave (km/s) = 8.81764 8.83551 8.82658
#
# Compressibility (1/GPa) = 0.01020899
#
# Stress axis : x y z
#
# Youngs Moduli (GPa) = 100.78287 100.78287 100.80758
#
# Poissons Ratio (x) = 0.32865 0.32847
# Poissons Ratio (y) = 0.32865 0.32847
# Poissons Ratio (z) = 0.32839 0.32839
#
# Static dielectric constant tensor:
#      x y z
#    x 3.700650 0.000000 0.000000 
#    y 0.000000 3.700650 0.000000 
#    z 0.000000 0.000000 3.700590 
# 
# 
# High freq. dielectric constant tensor:
#      x y z
#    x 1.795910 0.000000 0.000000 
#    y 0.000000 1.795910 0.000000 
#    z 0.000000 0.000000 1.795910 
# 
# From -- ./inp_files/231.got.cif
#   From: 2010.03.12/outbox.cif.g09.slc.cpg/sg224_cif.got.tgz:231.got - 2010.03.30 09:09:26.
