data_PCOD8331019
_publ_section_title
;
Structure prediction by ZEFSAII (Michael W. Deem and Ramdas Pophale) SiO2 
 PCOD8331019
Probable space group: P -4 3 M
;
_chemical_formula_sum "Si O2"
_cell_formula_units_Z 132
_cell_length_a 20.953377
_cell_length_b 20.953377
_cell_length_c 20.953377
_cell_angle_alpha 90.000000
_cell_angle_beta 90.000000
_cell_angle_gamma 90.000000
_cell_volume 9199.454613
_symmetry_space_group_name_H-M "P -4 3 M"
_symmetry_group_IT_number 215
_symmetry_cell_setting 'cubic'
loop_
_space_group_symop_operation_xyz
x,y,z
y,-x,-z
-x,-y,z
-y,x,-z
-x,z,-y
x,-y,-z
-x,-z,y
-z,-y,x
-x,y,-z
z,-y,-x
z,x,y
y,z,x
-y,-z,x
z,-x,-y
-y,z,-x
-z,-x,y
-z,x,-y
y,-z,-x
-y,-x,z
y,x,z
x,-z,-y
x,z,y
-z,y,-x
z,y,x
loop_
_atom_site_type_symbol
_atom_site_label
_atom_site_fract_x
_atom_site_fract_y
_atom_site_fract_z
Si Si1 0.918018 0.283167 0.182073
Si Si2 0.500000 0.151669 0.000000
Si Si3 0.127951 0.974416 0.639674
Si Si4 0.626009 0.730681 0.061400
Si Si5 0.084031 0.612977 0.287321
Si Si6 0.127317 0.508999 0.766345
O O1 0.944935 0.223486 0.223486
O O2 0.854899 0.260875 0.145102
O O3 0.899682 0.340369 0.229152
O O4 0.968418 0.309324 0.130272
O O5 0.433248 0.112569 0.001902
O O6 0.502402 0.191331 0.064819
O O7 0.072116 0.927885 0.662108
O O8 0.195194 0.937490 0.645650
O O9 0.686402 0.686402 0.077860
O O10 0.572228 0.723043 0.116450
O O11 0.596885 0.714096 0.991771
O O12 0.101602 0.645575 0.354426
O O13 0.129595 0.551355 0.281218
O O14 0.190871 0.514734 0.809130
#
# Coordination Sequence:
#
# PCOD8331019 Si02
#       6
#    24  12  24  24  24  24
#     4  10  19  31  45  60  80 107 141 178 215 258
#     4  10  16  26  40  61  90 111 136 166 206 262
#     4  10  19  29  43  63  86 114 141 171 217 263
#     4   9  16  28  43  60  83 113 146 173 203 251
#     4   9  16  26  42  61  84 112 139 169 207 257
#     4  11  17  26  44  63  86 114 145 181 221 259
#
# _framework density 14.348675999999999
#
# number of rings (size 3 to 8) (size 9 to 14) (size 15 to 20)
#    0.000    2.182    5.455    4.545    0.000    1.091 
#    0.000    0.000    0.000    9.909    0.000    2.545 
#    0.000    0.000    0.000    0.000    0.000    0.000 
#
# Total GULP energy -1635458.209727 kJ/mol
# GULP energy per Si atom -12389.834922 kJ/mol
# Density = 1.431602 g / cm^3
# Si number density = 14.348676 Si / 1000 Ang^3
#
#
#
# Elastic Constant Matrix: (Units=GPa)
#
#
# Indices 1 2 3 4 5 6 
#
# 1 60.9849 38.3564 38.3564 0.0000 0.0000 0.0000
# 2 38.3564 60.9849 38.3564 0.0000 0.0000 0.0000
# 3 38.3564 38.3564 60.9849 0.0000 0.0000 0.0000
# 4 0.0000 0.0000 0.0000 15.8494 0.0000 0.0000
# 5 0.0000 0.0000 0.0000 0.0000 15.8494 0.0000
# 6 0.0000 0.0000 0.0000 0.0000 0.0000 15.8494
#
#
#
# Elastic Compliance Matrix: (Units=1/GPa)
#
#
# Indices 1 2 3 4 5 6 
#
# 1 0.031882 -0.012310 -0.012310 0.000000 0.000000 0.000000
# 2 -0.012310 0.031882 -0.012310 0.000000 0.000000 0.000000
# 3 -0.012310 -0.012310 0.031882 0.000000 0.000000 0.000000
# 4 0.000000 0.000000 0.000000 0.063094 0.000000 0.000000
# 5 0.000000 0.000000 0.000000 0.000000 0.063094 0.000000
# 6 0.000000 0.000000 0.000000 0.000000 0.000000 0.063094
#
#
# Mechanical properties :
#
#
# Convention : Reuss Voigt Hill
#
# Bulk Modulus (GPa) = 45.89921 45.89921 45.89921
# Shear Modulus (GPa) = 13.65934 14.03534 13.84734
#
# Velocity S-wave (km/s) = 3.08873 3.13095 3.10991
# Velocity P-wave (km/s) = 6.69165 6.71777 6.70472
#
# Compressibility (1/GPa) = 0.02178687
#
# Stress axis : x y z
#
# Youngs Moduli (GPa) = 31.36554 31.36554 31.36554
#
# Poissons Ratio (x) = 0.38611 0.38611
# Poissons Ratio (y) = 0.38611 0.38611
# Poissons Ratio (z) = 0.38611 0.38611
#
# Static dielectric constant tensor:
#      x y z
#    x 2.779800 0.000000 0.000000 
#    y 0.000000 2.779800 0.000000 
#    z 0.000000 0.000000 2.779800 
# 
# 
# High freq. dielectric constant tensor:
#      x y z
#    x 1.525700 0.000000 0.000000 
#    y 0.000000 1.525700 0.000000 
#    z 0.000000 0.000000 1.525700 
# 
# From -- ./inp_files/780.got.cif
#   From: 2010.03.12/outbox.cif.g09.slc.cpg/sg215_cif.got.tgz:780.got - 2010.03.30 09:06:09.
