data_PCOD8331139
_publ_section_title
;
Structure prediction by ZEFSAII (Michael W. Deem and Ramdas Pophale) SiO2 
 PCOD8331139
Probable space group: P N 3 M
;
_chemical_formula_sum "Si O2"
_cell_formula_units_Z 168
_cell_length_a 21.942096
_cell_length_b 21.942096
_cell_length_c 21.942096
_cell_angle_alpha 90.000000
_cell_angle_beta 90.000000
_cell_angle_gamma 90.000000
_cell_volume 10564.144487
_symmetry_space_group_name_H-M "P N 3 M"
_symmetry_group_IT_number 224
_space_group.IT_coordinate_system_code '2'
_symmetry_cell_setting 'cubic'
loop_
_space_group_symop_operation_xyz
x,y,z
-y,1/2+x,1/2+z
1/2-x,1/2-y,z
1/2+y,-x,1/2+z
1/2+x,-z,1/2+y
x,1/2-y,1/2-z
1/2+x,1/2+z,-y
1/2+z,1/2+y,-x
1/2-x,y,1/2-z
-z,1/2+y,1/2+x
z,x,y
y,z,x
1/2-y,1/2-z,x
z,1/2-x,1/2-y
1/2-y,z,1/2-x
1/2-z,1/2-x,y
1/2-z,x,1/2-y
y,1/2-z,1/2-x
1/2+y,1/2+x,-z
-y,-x,-z
-x,1/2+z,1/2+y
-x,-z,-y
1/2+z,-y,1/2+x
-z,-y,-x
-x,-y,-z
y,1/2-x,1/2-z
1/2+x,1/2+y,-z
1/2-y,x,1/2-z
1/2-x,z,1/2-y
-x,1/2+y,1/2+z
1/2-x,1/2-z,y
1/2-z,1/2-y,x
1/2+x,-y,1/2+z
z,1/2-y,1/2-x
-z,-x,-y
-y,-z,-x
1/2+y,1/2+z,-x
-z,1/2+x,1/2+y
1/2+y,-z,1/2+x
1/2+z,1/2+x,-y
1/2+z,-x,1/2+y
-y,1/2+z,1/2+x
1/2-y,1/2-x,z
y,x,z
x,1/2-z,1/2-y
x,z,y
1/2-z,y,1/2-x
z,y,x
loop_
_atom_site_type_symbol
_atom_site_label
_atom_site_fract_x
_atom_site_fract_y
_atom_site_fract_z
Si Si1 0.057259 0.153143 0.252154
Si Si2 0.836534 0.071642 0.170655
Si Si3 0.478330 0.828240 0.574253
Si Si4 0.750000 0.848037 0.250000
O O1 0.117684 0.117684 0.272094
O O2 0.031354 0.190325 0.309675
O O3 0.075952 0.197595 0.197595
O O4 0.005381 0.106599 0.231268
O O5 0.821728 0.104681 0.104681
O O6 0.907500 0.073911 0.182990
O O7 0.803633 0.108861 0.224641
O O8 0.821767 0.000000 0.178234
O O9 0.496040 0.889227 0.610774
O O10 0.506311 0.835195 0.506311
O O11 0.804819 0.804819 0.275205
#
# Coordination Sequence:
#
# PCOD8331139 Si02
#       4
#    48  48  48  24
#     4   9  16  25  37  54  78 110 147 185 221 253
#     4  10  19  31  48  68  90 114 140 171 207 250
#     4   9  17  28  42  61  86 115 145 176 210 249
#     4   9  19  34  50  68  89 113 140 172 210 249
#
# _framework density 15.902849
#
# number of rings (size 3 to 8) (size 9 to 14) (size 15 to 20)
#    0.000    2.714    0.000    2.143    0.000    3.429 
#    0.000    5.714    0.000    6.857    0.000    0.000 
#    0.000    0.000    0.000    0.000    0.000   86.571 
#
# Total GULP energy -2081398.079387 kJ/mol
# GULP energy per Si atom -12389.274282 kJ/mol
# Density = 1.586665 g / cm^3
# Si number density = 15.902849 Si / 1000 Ang^3
#
#
#
# Elastic Constant Matrix: (Units=GPa)
#
#
# Indices 1 2 3 4 5 6 
#
# 1 89.9786 48.1642 48.1642 0.0000 0.0000 0.0000
# 2 48.1642 89.9786 48.1642 0.0000 0.0000 0.0000
# 3 48.1642 48.1642 89.9786 0.0000 0.0000 0.0000
# 4 0.0000 0.0000 0.0000 20.6792 0.0000 0.0000
# 5 0.0000 0.0000 0.0000 0.0000 20.6792 0.0000
# 6 0.0000 0.0000 0.0000 0.0000 0.0000 20.6792
#
#
#
# Elastic Compliance Matrix: (Units=1/GPa)
#
#
# Indices 1 2 3 4 5 6 
#
# 1 0.017733 -0.006183 -0.006183 0.000000 0.000000 0.000000
# 2 -0.006183 0.017733 -0.006183 0.000000 0.000000 0.000000
# 3 -0.006183 -0.006183 0.017733 0.000000 0.000000 0.000000
# 4 0.000000 0.000000 0.000000 0.048358 0.000000 0.000000
# 5 0.000000 0.000000 0.000000 0.000000 0.048358 0.000000
# 6 0.000000 0.000000 0.000000 0.000000 0.000000 0.048358
#
#
# Mechanical properties :
#
#
# Convention : Reuss Voigt Hill
#
# Bulk Modulus (GPa) = 62.10229 62.10229 62.10229
# Shear Modulus (GPa) = 20.76981 20.77041 20.77011
#
# Velocity S-wave (km/s) = 3.61784 3.61790 3.61787
# Velocity P-wave (km/s) = 7.52247 7.52250 7.52249
#
# Compressibility (1/GPa) = 0.01610246
#
# Stress axis : x y z
#
# Youngs Moduli (GPa) = 56.39324 56.39324 56.39324
#
# Poissons Ratio (x) = 0.34865 0.34865
# Poissons Ratio (y) = 0.34865 0.34865
# Poissons Ratio (z) = 0.34865 0.34865
#
# Static dielectric constant tensor:
#      x y z
#    x 3.067920 0.000000 0.000000 
#    y 0.000000 3.067920 0.000000 
#    z 0.000000 0.000000 3.067920 
# 
# 
# High freq. dielectric constant tensor:
#      x y z
#    x 1.604810 0.000000 0.000000 
#    y 0.000000 1.604810 0.000000 
#    z 0.000000 0.000000 1.604810 
# 
# From -- ./inp_files/522.got.cif
#   From: 2010.03.12/outbox.cif.g09.slc.cpg/sg224_cif.got.tgz:522.got - 2010.03.30 09:09:26.
