data_PCOD8331058
_publ_section_title
;
Structure prediction by ZEFSAII (Michael W. Deem and Ramdas Pophale) SiO2 
 PCOD8331058
Probable space group: I -4 3 M 
;
_chemical_formula_sum "Si O2"
_cell_formula_units_Z 312
_cell_length_a 27.214703
_cell_length_b 27.214703
_cell_length_c 27.214703
_cell_angle_alpha 90.000000
_cell_angle_beta 90.000000
_cell_angle_gamma 90.000000
_cell_volume 20156.299246
_symmetry_space_group_name_H-M "I -4 3 M "
_symmetry_group_IT_number 217
_symmetry_cell_setting 'cubic'
loop_
_space_group_symop_operation_xyz
x,y,z
y,-x,-z
-x,-y,z
-y,x,-z
-x,z,-y
x,-y,-z
-x,-z,y
-z,-y,x
-x,y,-z
z,-y,-x
z,x,y
y,z,x
-y,-z,x
z,-x,-y
-y,z,-x
-z,-x,y
-z,x,-y
y,-z,-x
-y,-x,z
y,x,z
x,-z,-y
x,z,y
-z,y,-x
z,y,x
1/2+x,1/2+y,1/2+z
1/2+y,1/2-x,1/2-z
1/2-x,1/2-y,1/2+z
1/2-y,1/2+x,1/2-z
1/2-x,1/2+z,1/2-y
1/2+x,1/2-y,1/2-z
1/2-x,1/2-z,1/2+y
1/2-z,1/2-y,1/2+x
1/2-x,1/2+y,1/2-z
1/2+z,1/2-y,1/2-x
1/2+z,1/2+x,1/2+y
1/2+y,1/2+z,1/2+x
1/2-y,1/2-z,1/2+x
1/2+z,1/2-x,1/2-y
1/2-y,1/2+z,1/2-x
1/2-z,1/2-x,1/2+y
1/2-z,1/2+x,1/2-y
1/2+y,1/2-z,1/2-x
1/2-y,1/2-x,1/2+z
1/2+y,1/2+x,1/2+z
1/2+x,1/2-z,1/2-y
1/2+x,1/2+z,1/2+y
1/2-z,1/2+y,1/2-x
1/2+z,1/2+y,1/2+x
loop_
_atom_site_type_symbol
_atom_site_label
_atom_site_fract_x
_atom_site_fract_y
_atom_site_fract_z
Si Si1 0.416369 0.338313 0.740229
Si Si2 0.930252 0.262137 0.536525
Si Si3 0.695582 0.153678 0.770390
Si Si4 0.920778 0.000000 0.500000
Si Si5 0.310094 0.610467 0.104017
Si Si6 0.455912 0.626165 0.905453
Si Si7 0.664158 0.875443 0.042019
O O1 0.385449 0.385449 0.720213
O O2 0.437328 0.306229 0.693772
O O3 0.380116 0.305079 0.771507
O O4 0.458734 0.356894 0.778582
O O5 0.934886 0.253930 0.479220
O O6 0.893539 0.219788 0.553894
O O7 0.911065 0.315620 0.553614
O O8 0.698309 0.209000 0.791001
O O9 0.714723 0.153093 0.714723
O O10 0.640541 0.134622 0.770636
O O11 0.887469 0.987710 0.546612
O O12 0.953906 0.953906 0.484338
O O13 0.355179 0.644822 0.091741
O O14 0.332014 0.561110 0.128356
O O15 0.405072 0.594929 0.903312
O O16 0.487066 0.613464 0.855916
O O17 0.660511 0.923740 0.076261
#
# Coordination Sequence:
#
# PCOD8331058 Si02
#       7
#    48  48  48  24  48  48  48
#     4   8  13  22  40  67  96 126 155 183 218 265
#     4  11  22  36  49  64  85 112 143 187 240 291
#     4   8  13  22  39  63  87 110 138 174 212 253
#     4   9  18  32  49  68  86 106 143 194 237 274
#     4   9  18  32  49  64  84 115 146 176 223 279
#     4  11  22  34  49  70  90 117 154 195 242 295
#     4   9  17  31  49  68  94 123 149 190 240 284
#
# _framework density 15.479032
#
# number of rings (size 3 to 8) (size 9 to 14) (size 15 to 20)
#    0.000    2.692    1.538    3.538    0.000    3.385 
#    0.000    0.769    0.000    0.000    0.000    0.000 
#    0.000    0.000    0.000    0.462    0.000    0.615 
#
# Total GULP energy -1932562.082119 kJ/mol
# GULP energy per Si atom -12388.218475 kJ/mol
# Density = 1.544380 g / cm^3
# Si number density = 15.479032 Si / 1000 Ang^3
#
#
#
# Elastic Constant Matrix: (Units=GPa)
#
#
# Indices 1 2 3 4 5 6 
#
# 1 25.7129 32.9193 32.9193 0.0000 0.0000 0.0000
# 2 32.9193 25.7129 32.9193 0.0000 0.0000 0.0000
# 3 32.9193 32.9193 25.7129 0.0000 0.0000 0.0000
# 4 0.0000 0.0000 0.0000 16.9754 0.0000 0.0000
# 5 0.0000 0.0000 0.0000 0.0000 16.9754 0.0000
# 6 0.0000 0.0000 0.0000 0.0000 0.0000 16.9754
#
#
#
# Elastic Compliance Matrix: (Units=1/GPa)
#
#
# Indices 1 2 3 4 5 6 
#
# 1 -0.088869 0.049896 0.049896 0.000000 0.000000 0.000000
# 2 0.049896 -0.088869 0.049896 0.000000 0.000000 0.000000
# 3 0.049896 0.049896 -0.088869 0.000000 0.000000 0.000000
# 4 0.000000 0.000000 0.000000 0.058909 0.000000 0.000000
# 5 0.000000 0.000000 0.000000 0.000000 0.058909 0.000000
# 6 0.000000 0.000000 0.000000 0.000000 0.000000 0.058909
#
#
# Mechanical properties :
#
#
# Convention : Reuss Voigt Hill
#
# Bulk Modulus (GPa) = 30.51718 30.51718 30.51718
# Shear Modulus (GPa) = -13.21576 8.74395 -2.23591
#
# Velocity S-wave (km/s) = -2.92513 2.37932 -1.20317
# Velocity P-wave (km/s) = 2.88954 5.22553 4.22230
#
# Compressibility (1/GPa) = 0.03276843
#
# Stress axis : x y z
#
# Youngs Moduli (GPa) = -11.25246 -11.25246 -11.25246
#
# Poissons Ratio (x) = 0.56145 0.56145
# Poissons Ratio (y) = 0.56145 0.56145
# Poissons Ratio (z) = 0.56145 0.56145
#
# Static dielectric constant tensor:
#      x y z
#    x 2.967350 0.000000 0.000000 
#    y 0.000000 2.967350 0.000000 
#    z 0.000000 0.000000 2.967350 
# 
# 
# High freq. dielectric constant tensor:
#      x y z
#    x 1.574520 0.000000 0.000000 
#    y 0.000000 1.574520 0.000000 
#    z 0.000000 0.000000 1.574520 
# 
# From -- ./inp_files/739.got.cif
#   From: 2010.03.12/outbox.cif.g09.slc.cpg/sg217_cif.got.tgz:739.got - 2010.03.30 09:07:03.
