data_PCOD8331002
_publ_section_title
;
Structure prediction by ZEFSAII (Michael W. Deem and Ramdas Pophale) SiO2 
 PCOD8331002
Probable space group: P 43 3 2
;
_chemical_formula_sum "Si O2"
_cell_formula_units_Z 84
_cell_length_a 16.898224
_cell_length_b 16.898224
_cell_length_c 16.898224
_cell_angle_alpha 90.000000
_cell_angle_beta 90.000000
_cell_angle_gamma 90.000000
_cell_volume 4825.287430
_symmetry_space_group_name_H-M "P 43 3 2"
_symmetry_group_IT_number 212
_symmetry_cell_setting 'cubic'
loop_
_space_group_symop_operation_xyz
x,y,z
3/4-y,1/4+x,3/4+z
1/2-x,-y,1/2+z
3/4+y,3/4-x,1/4+z
3/4+x,3/4-z,1/4+y
1/2+x,1/2-y,-z
1/4+x,3/4+z,3/4-y
1/4+z,3/4+y,3/4-x
-x,1/2+y,1/2-z
3/4-z,1/4+y,3/4+x
z,x,y
y,z,x
1/2-y,-z,1/2+x
1/2+z,1/2-x,-y
-y,1/2+z,1/2-x
1/2-z,-x,1/2+y
-z,1/2+x,1/2-y
1/2+y,1/2-z,-x
1/4+y,3/4+x,3/4-z
1/4-y,1/4-x,1/4-z
3/4-x,1/4+z,3/4+y
1/4-x,1/4-z,1/4-y
3/4+z,3/4-y,1/4+x
1/4-z,1/4-y,1/4-x
loop_
_atom_site_type_symbol
_atom_site_label
_atom_site_fract_x
_atom_site_fract_y
_atom_site_fract_z
Si Si1 0.875000 0.065451 0.815451
Si Si2 0.759409 0.983829 0.197252
Si Si3 0.329670 0.863149 0.042877
Si Si4 0.746361 0.603425 0.677868
O O1 0.836093 0.055232 0.901548
O O2 0.804970 0.056924 0.752579
O O3 0.710146 0.041622 0.141153
O O4 0.824831 0.036192 0.243011
O O5 0.339567 0.910434 0.125000
O O6 0.341941 0.919317 0.967548
O O7 0.746055 0.679864 0.619243
O O8 0.723269 0.526732 0.625000
#
# Coordination Sequence:
#
# PCOD8331002 Si02
#       4
#    12  24  24  24
#     4  10  20  40  50  82 108 152 182 222 272 334
#     4  10  22  34  56  77 112 147 182 223 275 322
#     4  11  20  34  53  84 106 142 180 232 267 326
#     4   8  17  33  53  77 106 137 172 224 277 318
#
# _framework density 17.408290000000001
#
# number of rings (size 3 to 8) (size 9 to 14) (size 15 to 20)
#    0.571    1.714    1.429    2.286    2.000    0.000 
#    1.714    0.000    0.000    0.000    0.000    0.000 
#   20.000    0.000    0.000    0.000    0.000    0.000 
#
# Total GULP energy -1041101.370686 kJ/mol
# GULP energy per Si atom -12394.063937 kJ/mol
# Density = 1.736867 g / cm^3
# Si number density = 17.408290 Si / 1000 Ang^3
#
#
#
# Elastic Constant Matrix: (Units=GPa)
#
#
# Indices 1 2 3 4 5 6 
#
# 1 77.5729 36.0141 36.0141 0.0000 0.0000 0.0000
# 2 36.0141 77.5729 36.0141 0.0000 0.0000 0.0000
# 3 36.0141 36.0141 77.5729 0.0000 0.0000 0.0000
# 4 0.0000 0.0000 0.0000 24.6340 0.0000 0.0000
# 5 0.0000 0.0000 0.0000 0.0000 24.6340 0.0000
# 6 0.0000 0.0000 0.0000 0.0000 0.0000 24.6340
#
#
#
# Elastic Compliance Matrix: (Units=1/GPa)
#
#
# Indices 1 2 3 4 5 6 
#
# 1 0.018270 -0.005793 -0.005793 0.000000 0.000000 0.000000
# 2 -0.005793 0.018270 -0.005793 0.000000 0.000000 0.000000
# 3 -0.005793 -0.005793 0.018270 0.000000 0.000000 0.000000
# 4 0.000000 0.000000 0.000000 0.040594 0.000000 0.000000
# 5 0.000000 0.000000 0.000000 0.000000 0.040594 0.000000
# 6 0.000000 0.000000 0.000000 0.000000 0.000000 0.040594
#
#
# Mechanical properties :
#
#
# Convention : Reuss Voigt Hill
#
# Bulk Modulus (GPa) = 49.86700 49.86700 49.86700
# Shear Modulus (GPa) = 22.93243 23.09218 23.01230
#
# Velocity S-wave (km/s) = 3.63344 3.64607 3.63976
# Velocity P-wave (km/s) = 6.80516 6.81417 6.80967
#
# Compressibility (1/GPa) = 0.02005334
#
# Stress axis : x y z
#
# Youngs Moduli (GPa) = 54.73555 54.73555 54.73555
#
# Poissons Ratio (x) = 0.31706 0.31706
# Poissons Ratio (y) = 0.31706 0.31706
# Poissons Ratio (z) = 0.31706 0.31706
#
# Static dielectric constant tensor:
#      x y z
#    x 3.143720 0.000000 0.000000 
#    y 0.000000 3.143720 0.000000 
#    z 0.000000 0.000000 3.143720 
# 
# 
# High freq. dielectric constant tensor:
#      x y z
#    x 1.666530 0.000000 0.000000 
#    y 0.000000 1.666530 0.000000 
#    z 0.000000 0.000000 1.666530 
# 
# From -- ./inp_files/415.got.cif
#   From: 2010.03.12/outbox.cif.g09.slc.cpg/sg212_cif.got.tgz:415.got - 2010.03.30 09:05:11.
