data_PCOD8331133
_publ_section_title
;
Structure prediction by ZEFSAII (Michael W. Deem and Ramdas Pophale) SiO2 
 PCOD8331133
Probable space group: P M 3 N
;
_chemical_formula_sum "Si O2"
_cell_formula_units_Z 352
_cell_length_a 26.968864
_cell_length_b 26.968864
_cell_length_c 26.968864
_cell_angle_alpha 90.000000
_cell_angle_beta 90.000000
_cell_angle_gamma 90.000000
_cell_volume 19614.984063
_symmetry_space_group_name_H-M "P M 3 N"
_symmetry_group_IT_number 223
_symmetry_cell_setting 'cubic'
loop_
_space_group_symop_operation_xyz
x,y,z
1/2-y,1/2+x,1/2+z
-x,-y,z
1/2+y,1/2-x,1/2+z
1/2+x,1/2-z,1/2+y
x,-y,-z
1/2+x,1/2+z,1/2-y
1/2+z,1/2+y,1/2-x
-x,y,-z
1/2-z,1/2+y,1/2+x
z,x,y
y,z,x
-y,-z,x
z,-x,-y
-y,z,-x
-z,-x,y
-z,x,-y
y,-z,-x
1/2+y,1/2+x,1/2-z
1/2-y,1/2-x,1/2-z
1/2-x,1/2+z,1/2+y
1/2-x,1/2-z,1/2-y
1/2+z,1/2-y,1/2+x
1/2-z,1/2-y,1/2-x
-x,-y,-z
1/2+y,1/2-x,1/2-z
x,y,-z
1/2-y,1/2+x,1/2-z
1/2-x,1/2+z,1/2-y
-x,y,z
1/2-x,1/2-z,1/2+y
1/2-z,1/2-y,1/2+x
x,-y,z
1/2+z,1/2-y,1/2-x
-z,-x,-y
-y,-z,-x
y,z,-x
-z,x,y
y,-z,x
z,x,-y
z,-x,y
-y,z,x
1/2-y,1/2-x,1/2+z
1/2+y,1/2+x,1/2+z
1/2+x,1/2-z,1/2-y
1/2+x,1/2+z,1/2+y
1/2-z,1/2+y,1/2-x
1/2+z,1/2+y,1/2+x
loop_
_atom_site_type_symbol
_atom_site_label
_atom_site_fract_x
_atom_site_fract_y
_atom_site_fract_z
Si Si1 0.779308 0.558437 0.200873
Si Si2 0.166430 0.323382 0.943789
Si Si3 0.149136 0.858728 0.618826
Si Si4 0.442851 0.692775 0.056903
Si Si5 0.214960 0.055480 0.874336
Si Si6 0.716231 0.283771 0.716231
Si Si7 0.282964 0.797672 0.121530
Si Si8 0.642109 0.715478 0.557302
O O1 0.787716 0.500000 0.209990
O O2 0.723587 0.570059 0.184964
O O3 0.815501 0.578773 0.158333
O O4 0.793530 0.588152 0.250059
O O5 0.143644 0.365007 0.908164
O O6 0.137278 0.272408 0.936062
O O7 0.160990 0.342560 0.000000
O O8 0.158003 0.911589 0.593186
O O9 0.184952 0.851674 0.666555
O O10 0.431040 0.750000 0.068961
O O11 0.500000 0.680836 0.066974
O O12 0.429020 0.681413 0.000000
O O13 0.184849 0.066090 0.824515
O O14 0.196565 0.091183 0.918147
O O15 0.204706 0.000000 0.893092
O O16 0.750000 0.250000 0.750000
O O17 0.711618 0.259366 0.662309
O O18 0.265603 0.841073 0.084478
O O19 0.632540 0.726709 0.500000
#
# Coordination Sequence:
#
# PCOD8331133 Si02
#       8
#    48  48  48  48  48  16  48  48
#     4  11  22  37  56  77 109 147 187 229 274 328
#     4  10  21  38  54  74 108 147 184 227 275 331
#     4  12  22  34  55  83 109 141 184 232 278 329
#     4   9  19  37  59  83 113 146 178 219 273 332
#     4  10  20  38  58  79 111 151 192 235 283 332
#     4  12  24  36  51  75 120 162 192 228 265 320
#     4  12  22  35  50  81 116 152 187 226 269 331
#     4  11  21  36  58  81 109 150 192 231 281 335
#
# _framework density 17.945464999999999
#
# number of rings (size 3 to 8) (size 9 to 14) (size 15 to 20)
#    0.000    1.227    2.727    5.591    0.000    2.455 
#    0.000    0.000    0.000    2.045    0.000    4.773 
#    0.000    0.000    0.000    8.455    0.000    0.000 
#
# Total GULP energy -4366138.481181 kJ/mol
# GULP energy per Si atom -12403.802503 kJ/mol
# Density = 1.790462 g / cm^3
# Si number density = 17.945465 Si / 1000 Ang^3
#
#
#
# Elastic Constant Matrix: (Units=GPa)
#
#
# Indices 1 2 3 4 5 6 
#
# 1 101.4545 19.0921 19.2259 0.0000 0.0000 0.0000
# 2 19.0921 101.4545 19.2259 0.0000 0.0000 0.0000
# 3 19.2259 19.2259 101.3288 0.0000 0.0000 0.0000
# 4 0.0000 0.0000 0.0000 27.2713 0.0000 0.0000
# 5 0.0000 0.0000 0.0000 0.0000 27.2713 0.0000
# 6 0.0000 0.0000 0.0000 0.0000 0.0000 27.2719
#
#
#
# Elastic Compliance Matrix: (Units=1/GPa)
#
#
# Indices 1 2 3 4 5 6 
#
# 1 0.010486 -0.001656 -0.001675 0.000000 0.000000 0.000000
# 2 -0.001656 0.010486 -0.001675 0.000000 0.000000 0.000000
# 3 -0.001675 -0.001675 0.010505 0.000000 0.000000 0.000000
# 4 0.000000 0.000000 0.000000 0.036669 0.000000 0.000000
# 5 0.000000 0.000000 0.000000 0.000000 0.036669 0.000000
# 6 0.000000 0.000000 0.000000 0.000000 0.000000 0.036668
#
#
# Mechanical properties :
#
#
# Convention : Reuss Voigt Hill
#
# Bulk Modulus (GPa) = 46.59173 46.59173 46.59173
# Shear Modulus (GPa) = 31.51624 32.80915 32.16270
#
# Velocity S-wave (km/s) = 4.19528 4.28047 4.23809
# Velocity P-wave (km/s) = 7.03466 7.10276 7.06879
#
# Compressibility (1/GPa) = 0.02146304
#
# Stress axis : x y z
#
# Youngs Moduli (GPa) = 95.36784 95.36784 95.19610
#
# Poissons Ratio (x) = 0.15791 0.15949
# Poissons Ratio (y) = 0.15791 0.15949
# Poissons Ratio (z) = 0.15978 0.15978
#
# Static dielectric constant tensor:
#      x y z
#    x 3.138010 0.000000 0.000000 
#    y 0.000000 3.138010 0.000000 
#    z 0.000000 0.000000 3.135650 
# 
# 
# High freq. dielectric constant tensor:
#      x y z
#    x 1.690780 0.000000 0.000000 
#    y 0.000000 1.690780 0.000000 
#    z 0.000000 0.000000 1.690780 
# 
# From -- ./inp_files/943.got.cif
#   From: 2010.03.12/outbox.cif.g09.slc.cpg/sg223_cif.got.tgz:943.got - 2010.03.30 09:08:57.
