data_PCOD8331137
_publ_section_title
;
Structure prediction by ZEFSAII (Michael W. Deem and Ramdas Pophale) SiO2 
 PCOD8331137
Probable space group: P N 3 M
;
_chemical_formula_sum "Si O2"
_cell_formula_units_Z 168
_cell_length_a 21.696450
_cell_length_b 21.696450
_cell_length_c 21.696450
_cell_angle_alpha 90.000000
_cell_angle_beta 90.000000
_cell_angle_gamma 90.000000
_cell_volume 10213.298842
_symmetry_space_group_name_H-M "P N 3 M"
_symmetry_group_IT_number 224
_space_group.IT_coordinate_system_code '2'
_symmetry_cell_setting 'cubic'
loop_
_space_group_symop_operation_xyz
x,y,z
-y,1/2+x,1/2+z
1/2-x,1/2-y,z
1/2+y,-x,1/2+z
1/2+x,-z,1/2+y
x,1/2-y,1/2-z
1/2+x,1/2+z,-y
1/2+z,1/2+y,-x
1/2-x,y,1/2-z
-z,1/2+y,1/2+x
z,x,y
y,z,x
1/2-y,1/2-z,x
z,1/2-x,1/2-y
1/2-y,z,1/2-x
1/2-z,1/2-x,y
1/2-z,x,1/2-y
y,1/2-z,1/2-x
1/2+y,1/2+x,-z
-y,-x,-z
-x,1/2+z,1/2+y
-x,-z,-y
1/2+z,-y,1/2+x
-z,-y,-x
-x,-y,-z
y,1/2-x,1/2-z
1/2+x,1/2+y,-z
1/2-y,x,1/2-z
1/2-x,z,1/2-y
-x,1/2+y,1/2+z
1/2-x,1/2-z,y
1/2-z,1/2-y,x
1/2+x,-y,1/2+z
z,1/2-y,1/2-x
-z,-x,-y
-y,-z,-x
1/2+y,1/2+z,-x
-z,1/2+x,1/2+y
1/2+y,-z,1/2+x
1/2+z,1/2+x,-y
1/2+z,-x,1/2+y
-y,1/2+z,1/2+x
1/2-y,1/2-x,z
y,x,z
x,1/2-z,1/2-y
x,z,y
1/2-z,y,1/2-x
z,y,x
loop_
_atom_site_type_symbol
_atom_site_label
_atom_site_fract_x
_atom_site_fract_y
_atom_site_fract_z
Si Si1 0.900683 0.000000 0.400683
Si Si2 0.093292 0.927378 0.302844
Si Si3 0.649723 0.316792 0.753861
Si Si4 0.547040 0.851936 0.749625
O O1 0.832056 0.974547 0.415750
O O2 0.944627 0.944627 0.417050
O O3 0.145399 0.924512 0.354602
O O4 0.100719 0.870717 0.255926
O O5 0.101003 0.991072 0.265181
O O6 0.616472 0.250000 0.750000
O O7 0.678999 0.327258 0.821002
O O8 0.703157 0.318482 0.703157
O O9 0.608120 0.891881 0.737343
O O10 0.531614 0.810969 0.689032
O O11 0.559525 0.807499 0.807499
#
# Coordination Sequence:
#
# PCOD8331137 Si02
#       4
#    24  48  48  48
#     4  10  19  30  43  58  80 112 150 188 225 268
#     4   9  17  28  42  61  84 111 144 184 227 271
#     4   8  13  23  41  63  85 109 136 165 203 258
#     4  10  19  30  44  62  87 120 160 204 246 285
#
# _framework density 16.449141999999998
#
# number of rings (size 3 to 8) (size 9 to 14) (size 15 to 20)
#    0.000    2.857    0.000    3.286    0.000    3.429 
#    0.000    3.571    0.000    2.286    0.000    0.000 
#    0.000    0.000    0.000    1.714    0.000   52.857 
#
# Total GULP energy -2081555.767135 kJ/mol
# GULP energy per Si atom -12390.212900 kJ/mol
# Density = 1.641170 g / cm^3
# Si number density = 16.449142 Si / 1000 Ang^3
#
#
#
# Elastic Constant Matrix: (Units=GPa)
#
#
# Indices 1 2 3 4 5 6 
#
# 1 76.8702 35.9977 35.9977 0.0000 0.0000 0.0000
# 2 35.9977 76.8702 35.9977 0.0000 0.0000 0.0000
# 3 35.9977 35.9977 76.8702 0.0000 0.0000 0.0000
# 4 0.0000 0.0000 0.0000 19.1416 0.0000 0.0000
# 5 0.0000 0.0000 0.0000 0.0000 19.1416 0.0000
# 6 0.0000 0.0000 0.0000 0.0000 0.0000 19.1416
#
#
#
# Elastic Compliance Matrix: (Units=1/GPa)
#
#
# Indices 1 2 3 4 5 6 
#
# 1 0.018550 -0.005916 -0.005916 0.000000 0.000000 0.000000
# 2 -0.005916 0.018550 -0.005916 0.000000 0.000000 0.000000
# 3 -0.005916 -0.005916 0.018550 0.000000 0.000000 0.000000
# 4 0.000000 0.000000 0.000000 0.052242 0.000000 0.000000
# 5 0.000000 0.000000 0.000000 0.000000 0.052242 0.000000
# 6 0.000000 0.000000 0.000000 0.000000 0.000000 0.052242
#
#
# Mechanical properties :
#
#
# Convention : Reuss Voigt Hill
#
# Bulk Modulus (GPa) = 49.62185 49.62185 49.62185
# Shear Modulus (GPa) = 19.63925 19.65945 19.64935
#
# Velocity S-wave (km/s) = 3.45909 3.46087 3.45998
# Velocity P-wave (km/s) = 6.79603 6.79724 6.79664
#
# Compressibility (1/GPa) = 0.02015241
#
# Stress axis : x y z
#
# Youngs Moduli (GPa) = 53.90822 53.90822 53.90822
#
# Poissons Ratio (x) = 0.31894 0.31894
# Poissons Ratio (y) = 0.31894 0.31894
# Poissons Ratio (z) = 0.31894 0.31894
#
# Static dielectric constant tensor:
#      x y z
#    x 3.154430 0.000000 0.000000 
#    y 0.000000 3.154430 0.000000 
#    z 0.000000 0.000000 3.154430 
# 
# 
# High freq. dielectric constant tensor:
#      x y z
#    x 1.615570 0.000000 0.000000 
#    y 0.000000 1.615570 0.000000 
#    z 0.000000 0.000000 1.615570 
# 
# From -- ./inp_files/462.got.cif
#   From: 2010.03.12/outbox.cif.g09.slc.cpg/sg224_cif.got.tgz:462.got - 2010.03.30 09:09:26.
