data_PCOD8331142
_publ_section_title
;
Structure prediction by ZEFSAII (Michael W. Deem and Ramdas Pophale) SiO2 
 PCOD8331142
Probable space group: P N 3 M
;
_chemical_formula_sum "Si O2"
_cell_formula_units_Z 276
_cell_length_a 24.458407
_cell_length_b 24.458407
_cell_length_c 24.458407
_cell_angle_alpha 90.000000
_cell_angle_beta 90.000000
_cell_angle_gamma 90.000000
_cell_volume 14631.353487
_symmetry_space_group_name_H-M "P N 3 M"
_symmetry_group_IT_number 224
_space_group.IT_coordinate_system_code '2'
_symmetry_cell_setting 'cubic'
loop_
_space_group_symop_operation_xyz
x,y,z
-y,1/2+x,1/2+z
1/2-x,1/2-y,z
1/2+y,-x,1/2+z
1/2+x,-z,1/2+y
x,1/2-y,1/2-z
1/2+x,1/2+z,-y
1/2+z,1/2+y,-x
1/2-x,y,1/2-z
-z,1/2+y,1/2+x
z,x,y
y,z,x
1/2-y,1/2-z,x
z,1/2-x,1/2-y
1/2-y,z,1/2-x
1/2-z,1/2-x,y
1/2-z,x,1/2-y
y,1/2-z,1/2-x
1/2+y,1/2+x,-z
-y,-x,-z
-x,1/2+z,1/2+y
-x,-z,-y
1/2+z,-y,1/2+x
-z,-y,-x
-x,-y,-z
y,1/2-x,1/2-z
1/2+x,1/2+y,-z
1/2-y,x,1/2-z
1/2-x,z,1/2-y
-x,1/2+y,1/2+z
1/2-x,1/2-z,y
1/2-z,1/2-y,x
1/2+x,-y,1/2+z
z,1/2-y,1/2-x
-z,-x,-y
-y,-z,-x
1/2+y,1/2+z,-x
-z,1/2+x,1/2+y
1/2+y,-z,1/2+x
1/2+z,1/2+x,-y
1/2+z,-x,1/2+y
-y,1/2+z,1/2+x
1/2-y,1/2-x,z
y,x,z
x,1/2-z,1/2-y
x,z,y
1/2-z,y,1/2-x
z,y,x
loop_
_atom_site_type_symbol
_atom_site_label
_atom_site_fract_x
_atom_site_fract_y
_atom_site_fract_z
Si Si1 0.677537 0.588505 0.072519
Si Si2 0.774135 0.497394 0.918192
Si Si3 0.359453 0.588980 0.447296
Si Si4 0.750000 0.000000 0.250000
Si Si5 0.204161 0.536189 0.204161
Si Si6 0.732993 0.336892 0.589509
Si Si7 0.167082 0.794750 0.705251
Si Si8 0.911451 0.411451 0.500000
O O1 0.642942 0.642942 0.059119
O O2 0.711508 0.568481 0.019877
O O3 0.722402 0.603567 0.117569
O O4 0.638899 0.540799 0.093887
O O5 0.816413 0.460543 0.953987
O O6 0.780680 0.491860 0.853236
O O7 0.781290 0.559641 0.940360
O O8 0.395679 0.604322 0.500000
O O9 0.400233 0.569767 0.400233
O O10 0.326062 0.642058 0.429229
O O11 0.745028 0.960156 0.301228
O O12 0.250000 0.522558 0.250000
O O13 0.197258 0.601381 0.197258
O O14 0.723372 0.306149 0.647370
O O15 0.182367 0.750000 0.750000
O O16 0.908641 0.468865 0.468865
#
# Coordination Sequence:
#
# PCOD8331142 Si02
#       8
#    48  48  48  12  24  48  24  24
#     4  10  20  36  58  83 113 149 196 245 294 352
#     4  11  21  36  58  90 119 148 194 244 293 352
#     4  11  20  37  58  83 115 156 199 239 293 361
#     4  12  26  40  54  78 132 160 200 258 312 374
#     4  11  20  38  68  90 116 156 196 246 299 351
#     4  11  21  38  58  84 113 159 201 250 312 359
#     4  11  20  40  68  90 115 153 215 273 309 358
#     4  10  20  34  52  78 114 154 192 232 290 362
#
# _framework density 18.863599000000001
#
# number of rings (size 3 to 8) (size 9 to 14) (size 15 to 20)
#    0.000    1.217    6.087    2.696    0.000    0.000 
#    3.652    0.000    1.913    4.522    0.000    0.000 
#    0.000    0.000    0.000    0.000    0.000    0.000 
#
# Total GULP energy -3420865.119041 kJ/mol
# GULP energy per Si atom -12394.438837 kJ/mol
# Density = 1.882066 g / cm^3
# Si number density = 18.863599 Si / 1000 Ang^3
#
#
#
# Elastic Constant Matrix: (Units=GPa)
#
#
# Indices 1 2 3 4 5 6 
#
# 1 95.4300 36.5831 36.5831 0.0000 0.0000 0.0000
# 2 36.5831 95.4300 36.5831 0.0000 0.0000 0.0000
# 3 36.5831 36.5831 95.4300 0.0000 0.0000 0.0000
# 4 0.0000 0.0000 0.0000 9.2114 0.0000 0.0000
# 5 0.0000 0.0000 0.0000 0.0000 9.2114 0.0000
# 6 0.0000 0.0000 0.0000 0.0000 0.0000 9.2114
#
#
#
# Elastic Compliance Matrix: (Units=1/GPa)
#
#
# Indices 1 2 3 4 5 6 
#
# 1 0.013306 -0.003687 -0.003687 0.000000 0.000000 0.000000
# 2 -0.003687 0.013306 -0.003687 0.000000 0.000000 0.000000
# 3 -0.003687 -0.003687 0.013306 0.000000 0.000000 0.000000
# 4 0.000000 0.000000 0.000000 0.108561 0.000000 0.000000
# 5 0.000000 0.000000 0.000000 0.000000 0.108561 0.000000
# 6 0.000000 0.000000 0.000000 0.000000 0.000000 0.108561
#
#
# Mechanical properties :
#
#
# Convention : Reuss Voigt Hill
#
# Bulk Modulus (GPa) = 56.19871 56.19871 56.19871
# Shear Modulus (GPa) = 12.70146 17.29624 14.99885
#
# Velocity S-wave (km/s) = 2.59768 3.03134 2.82285
# Velocity P-wave (km/s) = 6.23330 6.48913 6.36250
#
# Compressibility (1/GPa) = 0.01779400
#
# Stress axis : x y z
#
# Youngs Moduli (GPa) = 75.15444 75.15444 75.15444
#
# Poissons Ratio (x) = 0.27712 0.27712
# Poissons Ratio (y) = 0.27712 0.27712
# Poissons Ratio (z) = 0.27712 0.27712
#
# Static dielectric constant tensor:
#      x y z
#    x 3.481840 0.000000 0.000000 
#    y 0.000000 3.481840 0.000000 
#    z 0.000000 0.000000 3.481840 
# 
# 
# High freq. dielectric constant tensor:
#      x y z
#    x 1.728470 0.000000 0.000000 
#    y 0.000000 1.728470 0.000000 
#    z 0.000000 0.000000 1.728470 
# 
# From -- ./inp_files/781.got.cif
#   From: 2010.03.12/outbox.cif.g09.slc.cpg/sg224_cif.got.tgz:781.got - 2010.03.30 09:09:26.
