data_PCOD8331052
_publ_section_title
;
Structure prediction by ZEFSAII (Michael W. Deem and Ramdas Pophale) SiO2 
 PCOD8331052
Probable space group: I -4 3 M 
;
_chemical_formula_sum "Si O2"
_cell_formula_units_Z 168
_cell_length_a 20.692583
_cell_length_b 20.692583
_cell_length_c 20.692583
_cell_angle_alpha 90.000000
_cell_angle_beta 90.000000
_cell_angle_gamma 90.000000
_cell_volume 8860.212085
_symmetry_space_group_name_H-M "I -4 3 M "
_symmetry_group_IT_number 217
_symmetry_cell_setting 'cubic'
loop_
_space_group_symop_operation_xyz
x,y,z
y,-x,-z
-x,-y,z
-y,x,-z
-x,z,-y
x,-y,-z
-x,-z,y
-z,-y,x
-x,y,-z
z,-y,-x
z,x,y
y,z,x
-y,-z,x
z,-x,-y
-y,z,-x
-z,-x,y
-z,x,-y
y,-z,-x
-y,-x,z
y,x,z
x,-z,-y
x,z,y
-z,y,-x
z,y,x
1/2+x,1/2+y,1/2+z
1/2+y,1/2-x,1/2-z
1/2-x,1/2-y,1/2+z
1/2-y,1/2+x,1/2-z
1/2-x,1/2+z,1/2-y
1/2+x,1/2-y,1/2-z
1/2-x,1/2-z,1/2+y
1/2-z,1/2-y,1/2+x
1/2-x,1/2+y,1/2-z
1/2+z,1/2-y,1/2-x
1/2+z,1/2+x,1/2+y
1/2+y,1/2+z,1/2+x
1/2-y,1/2-z,1/2+x
1/2+z,1/2-x,1/2-y
1/2-y,1/2+z,1/2-x
1/2-z,1/2-x,1/2+y
1/2-z,1/2+x,1/2-y
1/2+y,1/2-z,1/2-x
1/2-y,1/2-x,1/2+z
1/2+y,1/2+x,1/2+z
1/2+x,1/2-z,1/2-y
1/2+x,1/2+z,1/2+y
1/2-z,1/2+y,1/2-x
1/2+z,1/2+y,1/2+x
loop_
_atom_site_type_symbol
_atom_site_label
_atom_site_fract_x
_atom_site_fract_y
_atom_site_fract_z
Si Si1 0.500000 0.170001 0.000000
Si Si2 0.863757 0.968196 0.639548
Si Si3 0.616721 0.070996 0.275597
Si Si4 0.184476 0.081345 0.290931
O O1 0.435632 0.126327 0.990272
O O2 0.513593 0.214116 0.936178
O O3 0.918742 0.918742 0.659491
O O4 0.793615 0.936838 0.649311
O O5 0.868179 0.025749 0.692416
O O6 0.669275 0.063028 0.330726
O O7 0.586908 0.142687 0.275285
O O8 0.147182 0.147182 0.272789
O O9 0.232585 0.063127 0.232585
#
# Coordination Sequence:
#
# PCOD8331052 Si02
#       4
#    24  48  48  48
#     4  10  19  30  48  77 112 151 186 210 239 288
#     4  11  21  33  51  76 107 141 176 215 259 309
#     4  10  19  32  52  79 111 146 181 213 248 297
#     4  10  21  37  56  76  99 132 175 222 270 319
#
# _framework density 18.961172000000001
#
# number of rings (size 3 to 8) (size 9 to 14) (size 15 to 20)
#    0.000    1.714    0.000    7.143    0.000    1.714 
#    0.000    0.000    0.000   11.857    0.000    0.000 
#    0.000    0.000    0.000    0.000    0.000    0.000 
#
# Total GULP energy -1041278.710921 kJ/mol
# GULP energy per Si atom -12396.175130 kJ/mol
# Density = 1.891802 g / cm^3
# Si number density = 18.961172 Si / 1000 Ang^3
#
#
#
# Elastic Constant Matrix: (Units=GPa)
#
#
# Indices 1 2 3 4 5 6 
#
# 1 72.4207 40.8097 40.8097 0.0000 0.0000 0.0000
# 2 40.8097 72.4207 40.8097 0.0000 0.0000 0.0000
# 3 40.8097 40.8097 72.4207 0.0000 0.0000 0.0000
# 4 0.0000 0.0000 0.0000 25.5494 0.0000 0.0000
# 5 0.0000 0.0000 0.0000 0.0000 25.5494 0.0000
# 6 0.0000 0.0000 0.0000 0.0000 0.0000 25.5494
#
#
#
# Elastic Compliance Matrix: (Units=1/GPa)
#
#
# Indices 1 2 3 4 5 6 
#
# 1 0.023254 -0.008381 -0.008381 0.000000 0.000000 0.000000
# 2 -0.008381 0.023254 -0.008381 0.000000 0.000000 0.000000
# 3 -0.008381 -0.008381 0.023254 0.000000 0.000000 0.000000
# 4 0.000000 0.000000 0.000000 0.039140 0.000000 0.000000
# 5 0.000000 0.000000 0.000000 0.000000 0.039140 0.000000
# 6 0.000000 0.000000 0.000000 0.000000 0.000000 0.039140
#
#
# Mechanical properties :
#
#
# Convention : Reuss Voigt Hill
#
# Bulk Modulus (GPa) = 51.34669 51.34669 51.34669
# Shear Modulus (GPa) = 20.49532 21.65183 21.07358
#
# Velocity S-wave (km/s) = 3.29129 3.38287 3.33739
# Velocity P-wave (km/s) = 6.44842 6.51131 6.47994
#
# Compressibility (1/GPa) = 0.01947545
#
# Stress axis : x y z
#
# Youngs Moduli (GPa) = 43.00394 43.00394 43.00394
#
# Poissons Ratio (x) = 0.36041 0.36041
# Poissons Ratio (y) = 0.36041 0.36041
# Poissons Ratio (z) = 0.36041 0.36041
#
# Static dielectric constant tensor:
#      x y z
#    x 3.386660 0.000000 0.000000 
#    y 0.000000 3.386660 0.000000 
#    z 0.000000 0.000000 3.386660 
# 
# 
# High freq. dielectric constant tensor:
#      x y z
#    x 1.723700 0.000000 0.000000 
#    y 0.000000 1.723700 0.000000 
#    z 0.000000 0.000000 1.723700 
# 
# From -- ./inp_files/443.got.cif
#   From: 2010.03.12/outbox.cif.g09.slc.cpg/sg217_cif.got.tgz:443.got - 2010.03.30 09:07:03.
