data_PCOD8331101
_publ_section_title
;
Structure prediction by ZEFSAII (Michael W. Deem and Ramdas Pophale) SiO2 
 PCOD8331101
Probable space group: I -4 3 D
;
_chemical_formula_sum "Si O2"
_cell_formula_units_Z 80
_cell_length_a 14.549628
_cell_length_b 14.549628
_cell_length_c 14.549628
_cell_angle_alpha 90.000000
_cell_angle_beta 90.000000
_cell_angle_gamma 90.000000
_cell_volume 3080.035121
_symmetry_space_group_name_H-M "I -4 3 D"
_symmetry_group_IT_number 220
_symmetry_cell_setting 'cubic'
loop_
_space_group_symop_operation_xyz
x,y,z
1/4+y,3/4-x,1/4-z
-x,1/2-y,z
1/4-y,1/4+x,3/4-z
1/4-x,1/4+z,3/4-y
x,-y,1/2-z
3/4-x,1/4-z,1/4+y
3/4-z,1/4-y,1/4+x
1/2-x,y,-z
1/4+z,3/4-y,1/4-x
z,x,y
y,z,x
-y,1/2-z,x
z,-x,1/2-y
1/2-y,z,-x
-z,1/2-x,y
1/2-z,x,-y
y,-z,1/2-x
3/4-y,1/4-x,1/4+z
1/4+y,1/4+x,1/4+z
1/4+x,3/4-z,1/4-y
1/4+x,1/4+z,1/4+y
1/4-z,1/4+y,3/4-x
1/4+z,1/4+y,1/4+x
1/2+x,1/2+y,1/2+z
3/4+y,1/4-x,3/4-z
1/2-x,-y,1/2+z
3/4-y,3/4+x,1/4-z
3/4-x,3/4+z,1/4-y
1/2+x,1/2-y,-z
1/4-x,3/4-z,3/4+y
1/4-z,3/4-y,3/4+x
-x,1/2+y,1/2-z
3/4+z,1/4-y,3/4-x
1/2+z,1/2+x,1/2+y
1/2+y,1/2+z,1/2+x
1/2-y,-z,1/2+x
1/2+z,1/2-x,-y
-y,1/2+z,1/2-x
1/2-z,-x,1/2+y
-z,1/2+x,1/2-y
1/2+y,1/2-z,-x
1/4-y,3/4-x,3/4+z
3/4+y,3/4+x,3/4+z
3/4+x,1/4-z,3/4-y
3/4+x,3/4+z,3/4+y
3/4-z,3/4+y,1/4-x
3/4+z,3/4+y,3/4+x
loop_
_atom_site_type_symbol
_atom_site_label
_atom_site_fract_x
_atom_site_fract_y
_atom_site_fract_z
Si Si1 0.412152 0.627454 0.694918
Si Si2 0.668745 0.168744 0.331257
Si Si3 0.458312 0.541689 0.041689
O O1 0.403946 0.607894 0.804258
O O2 0.518824 0.620227 0.664383
O O3 0.376578 0.730351 0.671516
O O4 0.730102 0.230101 0.269900
#
# Coordination Sequence:
#
# PCOD8331101 Si02
#       3
#    48  16  16
#     4   9  18  36  66 102 140 183 235 298 369 443
#     4   9  18  36  66 104 144 185 235 301 368 430
#     4   9  18  36  68 104 136 185 238 295 365 442
#
# _framework density 25.973731999999998
#
# number of rings (size 3 to 8) (size 9 to 14) (size 15 to 20)
#    0.000    3.000    0.000    0.000    0.000    0.000 
#    0.000    6.000    0.000  286.200    0.000  126.000 
#    0.000    0.000    0.000    0.000    0.000    0.000 
#
# Total GULP energy -495523.293959 kJ/mol
# GULP energy per Si atom -12388.082349 kJ/mol
# Density = 2.591461 g / cm^3
# Si number density = 25.973732 Si / 1000 Ang^3
#
#
#
# Elastic Constant Matrix: (Units=GPa)
#
#
# Indices 1 2 3 4 5 6 
#
# 1 69.0587 105.6342 105.6341 0.0000 0.0000 0.0000
# 2 105.6342 69.0587 105.6341 0.0000 0.0000 0.0000
# 3 105.6341 105.6341 69.0613 0.0000 0.0000 0.0000
# 4 0.0000 0.0000 0.0000 46.7842 0.0000 0.0000
# 5 0.0000 0.0000 0.0000 0.0000 46.7841 0.0000
# 6 0.0000 0.0000 0.0000 0.0000 0.0000 46.7859
#
#
#
# Elastic Compliance Matrix: (Units=1/GPa)
#
#
# Indices 1 2 3 4 5 6 
#
# 1 -0.017038 0.010302 0.010303 0.000000 0.000000 0.000000
# 2 0.010302 -0.017038 0.010303 0.000000 0.000000 0.000000
# 3 0.010303 0.010303 -0.017039 0.000000 0.000000 0.000000
# 4 0.000000 0.000000 0.000000 0.021375 0.000000 0.000000
# 5 0.000000 0.000000 0.000000 0.000000 0.021375 0.000000
# 6 0.000000 0.000000 0.000000 0.000000 0.000000 0.021374
#
#
# Mechanical properties :
#
#
# Convention : Reuss Voigt Hill
#
# Bulk Modulus (GPa) = 93.44261 93.44261 93.44261
# Shear Modulus (GPa) = -110.51672 20.75592 -44.88040
#
# Velocity S-wave (km/s) = -6.53007 2.82992 -4.16133
# Velocity P-wave (km/s) = 4.56090 6.83607 3.60070
#
# Compressibility (1/GPa) = 0.01070176
#
# Stress axis : x y z
#
# Youngs Moduli (GPa) = -58.69125 -58.69126 -58.68931
#
# Poissons Ratio (x) = 0.60466 0.60468
# Poissons Ratio (y) = 0.60466 0.60468
# Poissons Ratio (z) = 0.60470 0.60470
#
# Static dielectric constant tensor:
#      x y z
#    x 6.207580 0.000000 0.000000 
#    y 0.000000 6.207580 0.000000 
#    z 0.000000 0.000000 6.207970 
# 
# 
# High freq. dielectric constant tensor:
#      x y z
#    x 2.043440 0.000000 0.000000 
#    y 0.000000 2.043440 0.000000 
#    z 0.000000 0.000000 2.043440 
# 
# From -- ./inp_files/107.got.cif
#   From: 2010.03.12/outbox.cif.g09.slc.cpg/sg220_cif.got.tgz:107.got - 2010.03.30 09:07:51.
