data_PCOD8331021
_publ_section_title
;
Structure prediction by ZEFSAII (Michael W. Deem and Ramdas Pophale) SiO2 
 PCOD8331021
Probable space group: P -4 3 M
;
_chemical_formula_sum "Si O2"
_cell_formula_units_Z 168
_cell_length_a 21.852646
_cell_length_b 21.852646
_cell_length_c 21.852646
_cell_angle_alpha 90.000000
_cell_angle_beta 90.000000
_cell_angle_gamma 90.000000
_cell_volume 10435.471864
_symmetry_space_group_name_H-M "P -4 3 M"
_symmetry_group_IT_number 215
_symmetry_cell_setting 'cubic'
loop_
_space_group_symop_operation_xyz
x,y,z
y,-x,-z
-x,-y,z
-y,x,-z
-x,z,-y
x,-y,-z
-x,-z,y
-z,-y,x
-x,y,-z
z,-y,-x
z,x,y
y,z,x
-y,-z,x
z,-x,-y
-y,z,-x
-z,-x,y
-z,x,-y
y,-z,-x
-y,-x,z
y,x,z
x,-z,-y
x,z,y
-z,y,-x
z,y,x
loop_
_atom_site_type_symbol
_atom_site_label
_atom_site_fract_x
_atom_site_fract_y
_atom_site_fract_z
Si Si1 0.670928 0.070924 0.572602
Si Si2 0.802045 0.098842 0.999884
Si Si3 0.010188 0.801589 0.297147
Si Si4 0.110669 0.792223 0.629499
Si Si5 0.506186 0.157328 0.931458
Si Si6 0.430506 0.929080 0.333605
Si Si7 0.390424 0.116613 0.785624
O O1 0.606637 0.082220 0.606637
O O2 0.721943 0.113977 0.605518
O O3 0.662180 0.089302 0.501739
O O4 0.690520 0.999264 0.577534
O O5 0.859580 0.140421 0.982526
O O6 0.784339 0.058524 0.941477
O O7 0.743741 0.138663 0.018012
O O8 0.820371 0.057338 0.057338
O O9 0.027449 0.740580 0.259421
O O10 0.939124 0.796626 0.316614
O O11 0.059334 0.810220 0.351203
O O12 0.177077 0.822924 0.649232
O O13 0.085931 0.832946 0.575293
O O14 0.489479 0.087035 0.912966
O O15 0.461935 0.201525 0.894089
O O16 0.500000 0.173598 0.000000
O O17 0.401002 0.922400 0.401002
O O18 0.391581 0.883649 0.288480
O O19 0.369405 0.180345 0.819656
#
# Coordination Sequence:
#
# PCOD8331021 Si02
#       7
#    24  24  24  24  24  24  24
#     4  10  19  32  51  74 100 130 165 205 251 301
#     4  10  21  37  55  73  91 114 147 192 246 302
#     4  11  21  34  52  71  94 126 157 194 244 291
#     4  11  20  31  48  70  95 127 165 200 236 288
#     4  10  18  29  44  62  91 123 151 193 241 277
#     4  10  19  32  51  74 100 130 165 205 251 301
#     4  11  20  31  48  70  95 127 165 200 236 288
#
# _framework density 16.098936999999999
#
# number of rings (size 3 to 8) (size 9 to 14) (size 15 to 20)
#    0.000    1.571    4.286    2.000    0.000    0.429 
#    0.000    1.429    0.000    7.429    0.000    0.000 
#    0.000    0.000    0.000    0.000    0.000    0.000 
#
# Total GULP energy -2081258.683224 kJ/mol
# GULP energy per Si atom -12388.444543 kJ/mol
# Density = 1.606230 g / cm^3
# Si number density = 16.098937 Si / 1000 Ang^3
#
#
#
# Elastic Constant Matrix: (Units=GPa)
#
#
# Indices 1 2 3 4 5 6 
#
# 1 58.4126 31.0027 31.0027 0.0000 0.0000 0.0000
# 2 31.0027 58.4126 31.0027 0.0000 0.0000 0.0000
# 3 31.0027 31.0027 58.4126 0.0000 0.0000 0.0000
# 4 0.0000 0.0000 0.0000 16.7488 0.0000 0.0000
# 5 0.0000 0.0000 0.0000 0.0000 16.7488 0.0000
# 6 0.0000 0.0000 0.0000 0.0000 0.0000 16.7488
#
#
#
# Elastic Compliance Matrix: (Units=1/GPa)
#
#
# Indices 1 2 3 4 5 6 
#
# 1 0.027090 -0.009393 -0.009393 0.000000 0.000000 0.000000
# 2 -0.009393 0.027090 -0.009393 0.000000 0.000000 0.000000
# 3 -0.009393 -0.009393 0.027090 0.000000 0.000000 0.000000
# 4 0.000000 0.000000 0.000000 0.059706 0.000000 0.000000
# 5 0.000000 0.000000 0.000000 0.000000 0.059706 0.000000
# 6 0.000000 0.000000 0.000000 0.000000 0.000000 0.059706
#
#
# Mechanical properties :
#
#
# Convention : Reuss Voigt Hill
#
# Bulk Modulus (GPa) = 40.13937 40.13937 40.13937
# Shear Modulus (GPa) = 15.38226 15.53127 15.45677
#
# Velocity S-wave (km/s) = 3.09444 3.10939 3.10193
# Velocity P-wave (km/s) = 6.14447 6.15452 6.14950
#
# Compressibility (1/GPa) = 0.02491320
#
# Stress axis : x y z
#
# Youngs Moduli (GPa) = 36.91368 36.91368 36.91368
#
# Poissons Ratio (x) = 0.34673 0.34673
# Poissons Ratio (y) = 0.34673 0.34673
# Poissons Ratio (z) = 0.34673 0.34673
#
# Static dielectric constant tensor:
#      x y z
#    x 2.997950 0.000000 0.000000 
#    y 0.000000 2.997950 0.000000 
#    z 0.000000 0.000000 2.997950 
# 
# 
# High freq. dielectric constant tensor:
#      x y z
#    x 1.607820 0.000000 0.000000 
#    y 0.000000 1.607820 0.000000 
#    z 0.000000 0.000000 1.607820 
# 
# From -- ./inp_files/930.got.cif
#   From: 2010.03.12/outbox.cif.g09.slc.cpg/sg215_cif.got.tgz:930.got - 2010.03.30 09:06:09.
