data_PCOD8331040
_publ_section_title
;
Structure prediction by ZEFSAII (Michael W. Deem and Ramdas Pophale) SiO2 
 PCOD8331040
Probable space group: P -4 3 M
;
_chemical_formula_sum "Si O2"
_cell_formula_units_Z 168
_cell_length_a 21.596381
_cell_length_b 21.596381
_cell_length_c 21.596381
_cell_angle_alpha 90.000000
_cell_angle_beta 90.000000
_cell_angle_gamma 90.000000
_cell_volume 10072.631407
_symmetry_space_group_name_H-M "P -4 3 M"
_symmetry_group_IT_number 215
_symmetry_cell_setting 'cubic'
loop_
_space_group_symop_operation_xyz
x,y,z
y,-x,-z
-x,-y,z
-y,x,-z
-x,z,-y
x,-y,-z
-x,-z,y
-z,-y,x
-x,y,-z
z,-y,-x
z,x,y
y,z,x
-y,-z,x
z,-x,-y
-y,z,-x
-z,-x,y
-z,x,-y
y,-z,-x
-y,-x,z
y,x,z
x,-z,-y
x,z,y
-z,y,-x
z,y,x
loop_
_atom_site_type_symbol
_atom_site_label
_atom_site_fract_x
_atom_site_fract_y
_atom_site_fract_z
Si Si1 0.066779 0.833463 0.586302
Si Si2 0.173834 0.271513 0.075753
Si Si3 0.296865 0.500003 0.399130
Si Si4 0.153296 0.499687 0.601237
Si Si5 0.598447 0.925883 0.825330
Si Si6 0.161111 0.937037 0.260259
Si Si7 0.928718 0.495384 0.276615
O O1 0.106228 0.893773 0.566159
O O2 0.081882 0.814899 0.656105
O O3 0.087291 0.773751 0.547708
O O4 0.994026 0.849087 0.577170
O O5 0.239928 0.239928 0.087053
O O6 0.125340 0.246118 0.125340
O O7 0.146183 0.253269 0.009219
O O8 0.312956 0.560295 0.439706
O O9 0.311710 0.438776 0.438776
O O10 0.337297 0.500034 0.337297
O O11 0.225138 0.500932 0.379597
O O12 0.137101 0.438203 0.561798
O O13 0.138432 0.560095 0.560095
O O14 0.113050 0.502217 0.663061
O O15 0.575317 0.876123 0.876123
O O16 0.671376 0.921214 0.815172
O O17 0.569399 0.913718 0.757681
O O18 0.097826 0.902175 0.244326
O O19 0.214495 0.914177 0.214495
O O20 0.000000 0.500000 0.297937
#
# Coordination Sequence:
#
# PCOD8331040 Si02
#       7
#    24  24  24  24  24  24  24
#     4   9  18  31  47  69  95 123 155 189 228 276
#     4   9  17  29  45  65  90 120 154 192 233 277
#     4   9  17  30  49  73 100 127 154 184 220 264
#     4   9  20  37  53  71  94 121 156 194 230 269
#     4   9  18  31  47  69  95 123 155 189 228 276
#     4   9  17  29  45  65  90 120 154 192 233 277
#     4  10  20  33  50  71  93 117 149 191 234 274
#
# _framework density 16.678858000000002
#
# number of rings (size 3 to 8) (size 9 to 14) (size 15 to 20)
#    0.000    2.857    0.000    1.857    0.000    3.429 
#    0.000    6.429    0.000    3.714    0.000   10.000 
#    0.000    0.000    0.000    8.857    0.000    0.286 
#
# Total GULP energy -2082803.862263 kJ/mol
# GULP energy per Si atom -12397.642037 kJ/mol
# Density = 1.664090 g / cm^3
# Si number density = 16.678858 Si / 1000 Ang^3
#
#
#
# Elastic Constant Matrix: (Units=GPa)
#
#
# Indices 1 2 3 4 5 6 
#
# 1 59.3756 18.8194 18.8194 0.0000 0.0000 0.0000
# 2 18.8194 59.3756 18.8194 0.0000 0.0000 0.0000
# 3 18.8194 18.8194 59.3756 0.0000 0.0000 0.0000
# 4 0.0000 0.0000 0.0000 27.9041 0.0000 0.0000
# 5 0.0000 0.0000 0.0000 0.0000 27.9041 0.0000
# 6 0.0000 0.0000 0.0000 0.0000 0.0000 27.9041
#
#
#
# Elastic Compliance Matrix: (Units=1/GPa)
#
#
# Indices 1 2 3 4 5 6 
#
# 1 0.019874 -0.004783 -0.004783 0.000000 0.000000 0.000000
# 2 -0.004783 0.019874 -0.004783 0.000000 0.000000 0.000000
# 3 -0.004783 -0.004783 0.019874 0.000000 0.000000 0.000000
# 4 0.000000 0.000000 0.000000 0.035837 0.000000 0.000000
# 5 0.000000 0.000000 0.000000 0.000000 0.035837 0.000000
# 6 0.000000 0.000000 0.000000 0.000000 0.000000 0.035837
#
#
# Mechanical properties :
#
#
# Convention : Reuss Voigt Hill
#
# Bulk Modulus (GPa) = 32.33812 32.33812 32.33812
# Shear Modulus (GPa) = 24.25540 24.85370 24.55455
#
# Velocity S-wave (km/s) = 3.81761 3.86441 3.84108
# Velocity P-wave (km/s) = 6.23402 6.27235 6.25321
#
# Compressibility (1/GPa) = 0.03092326
#
# Stress axis : x y z
#
# Youngs Moduli (GPa) = 50.31693 50.31693 50.31693
#
# Poissons Ratio (x) = 0.24067 0.24067
# Poissons Ratio (y) = 0.24067 0.24067
# Poissons Ratio (z) = 0.24067 0.24067
#
# Static dielectric constant tensor:
#      x y z
#    x 3.128810 0.000000 0.000000 
#    y 0.000000 3.128810 0.000000 
#    z 0.000000 0.000000 3.128810 
# 
# 
# High freq. dielectric constant tensor:
#      x y z
#    x 1.641170 0.000000 0.000000 
#    y 0.000000 1.641170 0.000000 
#    z 0.000000 0.000000 1.641170 
# 
# From -- ./inp_files/899.got.cif
#   From: 2010.03.12/outbox.cif.g09.slc.cpg/sg215_cif.got.tgz:899.got - 2010.03.30 09:06:09.
