data_PCOD8331026
_publ_section_title
;
Structure prediction by ZEFSAII (Michael W. Deem and Ramdas Pophale) SiO2 
 PCOD8331026
Probable space group: P -4 3 M
;
_chemical_formula_sum "Si O2"
_cell_formula_units_Z 132
_cell_length_a 20.383935
_cell_length_b 20.383935
_cell_length_c 20.383935
_cell_angle_alpha 90.000000
_cell_angle_beta 90.000000
_cell_angle_gamma 90.000000
_cell_volume 8469.622959
_symmetry_space_group_name_H-M "P -4 3 M"
_symmetry_group_IT_number 215
_symmetry_cell_setting 'cubic'
loop_
_space_group_symop_operation_xyz
x,y,z
y,-x,-z
-x,-y,z
-y,x,-z
-x,z,-y
x,-y,-z
-x,-z,y
-z,-y,x
-x,y,-z
z,-y,-x
z,x,y
y,z,x
-y,-z,x
z,-x,-y
-y,z,-x
-z,-x,y
-z,x,-y
y,-z,-x
-y,-x,z
y,x,z
x,-z,-y
x,z,y
-z,y,-x
z,y,x
loop_
_atom_site_type_symbol
_atom_site_label
_atom_site_fract_x
_atom_site_fract_y
_atom_site_fract_z
Si Si1 0.085519 0.809833 0.567993
Si Si2 0.154898 0.257283 0.640547
Si Si3 0.605157 0.000000 0.500000
Si Si4 0.531713 0.859239 0.638180
Si Si5 0.594185 0.298185 0.813108
Si Si6 0.162402 0.420441 0.939426
O O1 0.131316 0.868685 0.590806
O O2 0.118100 0.742375 0.594210
O O3 0.078573 0.805062 0.489935
O O4 0.015057 0.828196 0.598516
O O5 0.226046 0.226046 0.651005
O O6 0.132112 0.295740 0.704261
O O7 0.163179 0.304581 0.579052
O O8 0.100574 0.201749 0.633389
O O9 0.648878 0.062872 0.481643
O O10 0.560914 0.023042 0.560914
O O11 0.566211 0.847713 0.566211
O O12 0.465206 0.816904 0.648366
O O13 0.662513 0.337488 0.806143
O O14 0.585269 0.248935 0.751066
O O15 0.085924 0.420424 0.914077
#
# Coordination Sequence:
#
# PCOD8331026 Si02
#       6
#    24  24  12  24  24  24
#     4   9  18  31  46  66  92 119 150 189 226 263
#     4  10  19  30  44  63  89 118 150 185 224 269
#     4   9  18  30  42  66  96 112 133 174 224 274
#     4  10  20  32  49  69  90 117 148 185 229 276
#     4  11  22  35  50  67  92 123 157 193 235 286
#     4   9  17  30  47  67  91 118 152 188 222 265
#
# _framework density 15.58511
#
# number of rings (size 3 to 8) (size 9 to 14) (size 15 to 20)
#    0.000    2.273    1.818    1.455    2.545    2.182 
#    0.000    1.818    0.000    0.364    0.000    0.000 
#    0.000    0.000    0.000    0.000    0.000    0.364 
#
# Total GULP energy -1635811.413527 kJ/mol
# GULP energy per Si atom -12392.510709 kJ/mol
# Density = 1.554964 g / cm^3
# Si number density = 15.585110 Si / 1000 Ang^3
#
#
#
# Elastic Constant Matrix: (Units=GPa)
#
#
# Indices 1 2 3 4 5 6 
#
# 1 77.8763 32.9121 32.9121 0.0000 0.0000 0.0000
# 2 32.9121 77.8763 32.9121 0.0000 0.0000 0.0000
# 3 32.9121 32.9121 77.8763 0.0000 0.0000 0.0000
# 4 0.0000 0.0000 0.0000 17.5922 0.0000 0.0000
# 5 0.0000 0.0000 0.0000 0.0000 17.5922 0.0000
# 6 0.0000 0.0000 0.0000 0.0000 0.0000 17.5922
#
#
#
# Elastic Compliance Matrix: (Units=1/GPa)
#
#
# Indices 1 2 3 4 5 6 
#
# 1 0.017146 -0.005094 -0.005094 0.000000 0.000000 0.000000
# 2 -0.005094 0.017146 -0.005094 0.000000 0.000000 0.000000
# 3 -0.005094 -0.005094 0.017146 0.000000 0.000000 0.000000
# 4 0.000000 0.000000 0.000000 0.056843 0.000000 0.000000
# 5 0.000000 0.000000 0.000000 0.000000 0.056843 0.000000
# 6 0.000000 0.000000 0.000000 0.000000 0.000000 0.056843
#
#
# Mechanical properties :
#
#
# Convention : Reuss Voigt Hill
#
# Bulk Modulus (GPa) = 47.90016 47.90016 47.90016
# Shear Modulus (GPa) = 19.26862 19.54819 19.40840
#
# Velocity S-wave (km/s) = 3.51999 3.54543 3.53273
# Velocity P-wave (km/s) = 6.87908 6.89648 6.88778
#
# Compressibility (1/GPa) = 0.02087676
#
# Stress axis : x y z
#
# Youngs Moduli (GPa) = 58.32185 58.32185 58.32185
#
# Poissons Ratio (x) = 0.29707 0.29707
# Poissons Ratio (y) = 0.29707 0.29707
# Poissons Ratio (z) = 0.29707 0.29707
#
# Static dielectric constant tensor:
#      x y z
#    x 2.982540 0.000000 0.000000 
#    y 0.000000 2.982540 0.000000 
#    z 0.000000 0.000000 2.982540 
# 
# 
# High freq. dielectric constant tensor:
#      x y z
#    x 1.587710 0.000000 0.000000 
#    y 0.000000 1.587710 0.000000 
#    z 0.000000 0.000000 1.587710 
# 
# From -- ./inp_files/787.got.cif
#   From: 2010.03.12/outbox.cif.g09.slc.cpg/sg215_cif.got.tgz:787.got - 2010.03.30 09:06:09.
