data_PCOD8331047
_publ_section_title
;
Structure prediction by ZEFSAII (Michael W. Deem and Ramdas Pophale) SiO2 
 PCOD8331047
Probable space group: P -4 3 M
;
_chemical_formula_sum "Si O2"
_cell_formula_units_Z 53
_cell_length_a 13.866142
_cell_length_b 13.866142
_cell_length_c 13.866142
_cell_angle_alpha 90.000000
_cell_angle_beta 90.000000
_cell_angle_gamma 90.000000
_cell_volume 2666.041652
_symmetry_space_group_name_H-M "P -4 3 M"
_symmetry_group_IT_number 215
_symmetry_cell_setting 'cubic'
loop_
_space_group_symop_operation_xyz
x,y,z
y,-x,-z
-x,-y,z
-y,x,-z
-x,z,-y
x,-y,-z
-x,-z,y
-z,-y,x
-x,y,-z
z,-y,-x
z,x,y
y,z,x
-y,-z,x
z,-x,-y
-y,z,-x
-z,-x,y
-z,x,-y
y,-z,-x
-y,-x,z
y,x,z
x,-z,-y
x,z,y
-z,y,-x
z,y,x
loop_
_atom_site_type_symbol
_atom_site_label
_atom_site_fract_x
_atom_site_fract_y
_atom_site_fract_z
Si Si1 0.500000 0.725916 0.000000
Si Si2 0.421543 0.421543 0.152810
Si Si3 0.155706 0.314156 0.999374
Si Si4 0.634817 0.365185 0.634817
Si Si5 0.500000 0.500000 0.500000
O O1 0.529283 0.662916 0.091814
O O2 0.411028 0.791056 0.033417
O O3 0.500000 0.500000 0.179346
O O4 0.381920 0.381920 0.252615
O O5 0.230501 0.230501 0.023072
O O6 0.086896 0.279620 0.913105
O O7 0.095712 0.335982 0.095712
O O8 0.567406 0.432596 0.567406
#
# Coordination Sequence:
#
# PCOD8331047 Si02
#       5
#    12  12  24   4   1
#     4  12  23  43  68  96 134 168 226 284 334 396
#     4  12  24  45  68  98 134 179 227 278 332 402
#     4  11  24  42  66  96 133 174 219 274 336 400
#     4  12  30  42  75 102 138 189 228 274 347 400
#     4  12  24  60  60 102 156 168 228 280 308 430
#
# _framework density 19.879657999999999
#
# number of rings (size 3 to 8) (size 9 to 14) (size 15 to 20)
#    0.000    0.453    5.660    2.264    6.340    1.811 
#    0.000    0.000    0.000    3.623    0.000    0.000 
#    0.000    0.000    0.000    0.000    0.000    0.000 
#
# Total GULP energy -657498.135935 kJ/mol
# GULP energy per Si atom -12405.625206 kJ/mol
# Density = 1.983441 g / cm^3
# Si number density = 19.879658 Si / 1000 Ang^3
#
#
#
# Elastic Constant Matrix: (Units=GPa)
#
#
# Indices 1 2 3 4 5 6 
#
# 1 139.7349 61.7872 61.7873 0.0000 0.0000 0.0000
# 2 61.7872 139.7333 61.7872 0.0000 0.0000 0.0000
# 3 61.7873 61.7872 139.7345 0.0000 0.0000 0.0000
# 4 0.0000 0.0000 0.0000 40.1333 0.0000 0.0000
# 5 0.0000 0.0000 0.0000 0.0000 40.1359 0.0000
# 6 0.0000 0.0000 0.0000 0.0000 0.0000 40.1343
#
#
#
# Elastic Compliance Matrix: (Units=1/GPa)
#
#
# Indices 1 2 3 4 5 6 
#
# 1 0.009819 -0.003010 -0.003010 0.000000 0.000000 0.000000
# 2 -0.003010 0.009819 -0.003010 0.000000 0.000000 0.000000
# 3 -0.003010 -0.003010 0.009819 0.000000 0.000000 0.000000
# 4 0.000000 0.000000 0.000000 0.024917 0.000000 0.000000
# 5 0.000000 0.000000 0.000000 0.000000 0.024915 0.000000
# 6 0.000000 0.000000 0.000000 0.000000 0.000000 0.024916
#
#
# Mechanical properties :
#
#
# Convention : Reuss Voigt Hill
#
# Bulk Modulus (GPa) = 87.76956 87.76956 87.76956
# Shear Modulus (GPa) = 39.66189 39.67009 39.66599
#
# Velocity S-wave (km/s) = 4.47150 4.47196 4.47173
# Velocity P-wave (km/s) = 8.42053 8.42086 8.42070
#
# Compressibility (1/GPa) = 0.01139347
#
# Stress axis : x y z
#
# Youngs Moduli (GPa) = 101.84639 101.84505 101.84611
#
# Poissons Ratio (x) = 0.30660 0.30660
# Poissons Ratio (y) = 0.30661 0.30661
# Poissons Ratio (z) = 0.30660 0.30660
#
# Static dielectric constant tensor:
#      x y z
#    x 3.724540 0.000000 0.000000 
#    y 0.000000 3.724560 0.000000 
#    z 0.000000 0.000000 3.724550 
# 
# 
# High freq. dielectric constant tensor:
#      x y z
#    x 1.787670 0.000000 0.000000 
#    y 0.000000 1.787670 0.000000 
#    z 0.000000 0.000000 1.787670 
# 
# From -- ./inp_files/170.got.cif
#   From: 2010.03.12/outbox.cif.g09.slc.cpg/sg215_cif.got.tgz:170.got - 2010.03.30 09:06:09.
