data_PCOD8331056
_publ_section_title
;
Structure prediction by ZEFSAII (Michael W. Deem and Ramdas Pophale) SiO2 
 PCOD8331056
Probable space group: I -4 3 M 
;
_chemical_formula_sum "Si O2"
_cell_formula_units_Z 168
_cell_length_a 21.317287
_cell_length_b 21.317287
_cell_length_c 21.317287
_cell_angle_alpha 90.000000
_cell_angle_beta 90.000000
_cell_angle_gamma 90.000000
_cell_volume 9687.144918
_symmetry_space_group_name_H-M "I -4 3 M "
_symmetry_group_IT_number 217
_symmetry_cell_setting 'cubic'
loop_
_space_group_symop_operation_xyz
x,y,z
y,-x,-z
-x,-y,z
-y,x,-z
-x,z,-y
x,-y,-z
-x,-z,y
-z,-y,x
-x,y,-z
z,-y,-x
z,x,y
y,z,x
-y,-z,x
z,-x,-y
-y,z,-x
-z,-x,y
-z,x,-y
y,-z,-x
-y,-x,z
y,x,z
x,-z,-y
x,z,y
-z,y,-x
z,y,x
1/2+x,1/2+y,1/2+z
1/2+y,1/2-x,1/2-z
1/2-x,1/2-y,1/2+z
1/2-y,1/2+x,1/2-z
1/2-x,1/2+z,1/2-y
1/2+x,1/2-y,1/2-z
1/2-x,1/2-z,1/2+y
1/2-z,1/2-y,1/2+x
1/2-x,1/2+y,1/2-z
1/2+z,1/2-y,1/2-x
1/2+z,1/2+x,1/2+y
1/2+y,1/2+z,1/2+x
1/2-y,1/2-z,1/2+x
1/2+z,1/2-x,1/2-y
1/2-y,1/2+z,1/2-x
1/2-z,1/2-x,1/2+y
1/2-z,1/2+x,1/2-y
1/2+y,1/2-z,1/2-x
1/2-y,1/2-x,1/2+z
1/2+y,1/2+x,1/2+z
1/2+x,1/2-z,1/2-y
1/2+x,1/2+z,1/2+y
1/2-z,1/2+y,1/2-x
1/2+z,1/2+y,1/2+x
loop_
_atom_site_type_symbol
_atom_site_label
_atom_site_fract_x
_atom_site_fract_y
_atom_site_fract_z
Si Si1 0.918324 0.530828 0.714577
Si Si2 0.183341 0.713902 0.919667
Si Si3 0.499248 0.702487 0.600862
Si Si4 0.898395 0.000000 0.500000
O O1 0.919463 0.466884 0.755098
O O2 0.849703 0.559937 0.717129
O O3 0.939247 0.516463 0.643406
O O4 0.235588 0.764413 0.900601
O O5 0.140786 0.701168 0.859215
O O6 0.142322 0.738748 0.978159
O O7 0.481001 0.643672 0.643672
O O8 0.438368 0.723869 0.561633
O O9 0.555246 0.680733 0.555246
O O10 0.940726 0.940726 0.518587
#
# Coordination Sequence:
#
# PCOD8331056 Si02
#       4
#    48  48  48  24
#     4   9  20  35  53  75  98 127 162 202 247 292
#     4  10  20  34  52  73 100 134 170 206 246 298
#     4   9  17  29  46  69  97 130 167 206 248 294
#     4   9  17  30  50  76 103 125 148 186 236 289
#
# _framework density 17.342571
#
# number of rings (size 3 to 8) (size 9 to 14) (size 15 to 20)
#    0.000    3.000    0.000    1.714    0.000    9.143 
#    0.000    2.857    0.000    2.286    0.000    4.000 
#    0.000    0.000    0.000    0.000    0.000    0.000 
#
# Total GULP energy -1041615.023063 kJ/mol
# GULP energy per Si atom -12400.178846 kJ/mol
# Density = 1.730310 g / cm^3
# Si number density = 17.342571 Si / 1000 Ang^3
#
#
#
# Elastic Constant Matrix: (Units=GPa)
#
#
# Indices 1 2 3 4 5 6 
#
# 1 106.4536 46.3806 46.3806 0.0000 0.0000 0.0000
# 2 46.3806 106.4536 46.3806 0.0000 0.0000 0.0000
# 3 46.3806 46.3806 106.4536 0.0000 0.0000 0.0000
# 4 0.0000 0.0000 0.0000 21.1521 0.0000 0.0000
# 5 0.0000 0.0000 0.0000 0.0000 21.1521 0.0000
# 6 0.0000 0.0000 0.0000 0.0000 0.0000 21.1521
#
#
#
# Elastic Compliance Matrix: (Units=1/GPa)
#
#
# Indices 1 2 3 4 5 6 
#
# 1 0.012771 -0.003876 -0.003876 0.000000 0.000000 0.000000
# 2 -0.003876 0.012771 -0.003876 0.000000 0.000000 0.000000
# 3 -0.003876 -0.003876 0.012771 0.000000 0.000000 0.000000
# 4 0.000000 0.000000 0.000000 0.047277 0.000000 0.000000
# 5 0.000000 0.000000 0.000000 0.000000 0.047277 0.000000
# 6 0.000000 0.000000 0.000000 0.000000 0.000000 0.047277
#
#
# Mechanical properties :
#
#
# Convention : Reuss Voigt Hill
#
# Bulk Modulus (GPa) = 66.40492 66.40492 66.40492
# Shear Modulus (GPa) = 23.99053 24.70586 24.34819
#
# Velocity S-wave (km/s) = 3.72335 3.77845 3.75100
# Velocity P-wave (km/s) = 7.54041 7.57686 7.55866
#
# Compressibility (1/GPa) = 0.01505913
#
# Stress axis : x y z
#
# Youngs Moduli (GPa) = 78.30343 78.30343 78.30343
#
# Poissons Ratio (x) = 0.30347 0.30347
# Poissons Ratio (y) = 0.30347 0.30347
# Poissons Ratio (z) = 0.30347 0.30347
#
# Static dielectric constant tensor:
#      x y z
#    x 3.152860 0.000000 0.000000 
#    y 0.000000 3.152860 0.000000 
#    z 0.000000 0.000000 3.152860 
# 
# 
# High freq. dielectric constant tensor:
#      x y z
#    x 1.665210 0.000000 0.000000 
#    y 0.000000 1.665210 0.000000 
#    z 0.000000 0.000000 1.665210 
# 
# From -- ./inp_files/433.got.cif
#   From: 2010.03.12/outbox.cif.g09.slc.cpg/sg217_cif.got.tgz:433.got - 2010.03.30 09:07:03.
