data_PCOD8331032
_publ_section_title
;
Structure prediction by ZEFSAII (Michael W. Deem and Ramdas Pophale) SiO2 
 PCOD8331032
Probable space group: P -4 3 M
;
_chemical_formula_sum "Si O2"
_cell_formula_units_Z 168
_cell_length_a 22.022224
_cell_length_b 22.022224
_cell_length_c 22.022224
_cell_angle_alpha 90.000000
_cell_angle_beta 90.000000
_cell_angle_gamma 90.000000
_cell_volume 10680.301857
_symmetry_space_group_name_H-M "P -4 3 M"
_symmetry_group_IT_number 215
_symmetry_cell_setting 'cubic'
loop_
_space_group_symop_operation_xyz
x,y,z
y,-x,-z
-x,-y,z
-y,x,-z
-x,z,-y
x,-y,-z
-x,-z,y
-z,-y,x
-x,y,-z
z,-y,-x
z,x,y
y,z,x
-y,-z,x
z,-x,-y
-y,z,-x
-z,-x,y
-z,x,-y
y,-z,-x
-y,-x,z
y,x,z
x,-z,-y
x,z,y
-z,y,-x
z,y,x
loop_
_atom_site_type_symbol
_atom_site_label
_atom_site_fract_x
_atom_site_fract_y
_atom_site_fract_z
Si Si1 0.068351 0.568193 0.833452
Si Si2 0.647637 0.846968 0.747139
Si Si3 0.428050 0.234813 0.331343
Si Si4 0.570521 0.071274 0.170122
Si Si5 0.180536 0.552408 0.352337
Si Si6 0.526090 0.377176 0.933685
Si Si7 0.618735 0.110012 0.714201
O O1 0.103570 0.577915 0.896430
O O2 0.079085 0.499593 0.808066
O O3 0.092816 0.616947 0.784722
O O4 0.998370 0.582840 0.846170
O O5 0.667118 0.797860 0.797860
O O6 0.706718 0.865278 0.706718
O O7 0.617641 0.906521 0.778180
O O8 0.596009 0.817632 0.705572
O O9 0.413266 0.296422 0.296422
O O10 0.396825 0.236624 0.396825
O O11 0.499574 0.228651 0.341064
O O12 0.403058 0.179007 0.292208
O O13 0.581726 0.109081 0.109081
O O14 0.202617 0.588777 0.411224
O O15 0.112621 0.528147 0.364279
O O16 0.562229 0.437772 0.912837
O O17 0.572802 0.321093 0.934777
O O18 0.500000 0.386785 0.000000
O O19 0.686699 0.102552 0.686699
#
# Coordination Sequence:
#
# PCOD8331032 Si02
#       7
#    24  24  24  24  24  24  24
#     4  10  19  31  49  68  91 123 153 189 229 267
#     4  10  20  34  51  71  94 122 154 190 232 278
#     4  10  19  32  48  65  85 111 145 185 227 273
#     4   9  19  32  47  69  93 120 154 189 225 265
#     4  10  20  31  46  66  89 118 148 182 226 277
#     4  10  20  30  41  60  88 122 156 190 227 273
#     4   9  19  30  44  65  88 115 149 187 224 268
#
# _framework density 15.729892
#
# number of rings (size 3 to 8) (size 9 to 14) (size 15 to 20)
#    0.000    2.286    0.000    4.571    4.000    3.857 
#    0.000    1.429    0.000    0.571    0.000    0.000 
#    0.000    0.000    0.000    0.000    0.000    0.286 
#
# Total GULP energy -2083056.758334 kJ/mol
# GULP energy per Si atom -12399.147371 kJ/mol
# Density = 1.569409 g / cm^3
# Si number density = 15.729892 Si / 1000 Ang^3
#
#
#
# Elastic Constant Matrix: (Units=GPa)
#
#
# Indices 1 2 3 4 5 6 
#
# 1 76.4181 37.9971 37.9971 0.0000 0.0000 0.0000
# 2 37.9971 76.4181 37.9971 0.0000 0.0000 0.0000
# 3 37.9971 37.9971 76.4181 0.0000 0.0000 0.0000
# 4 0.0000 0.0000 0.0000 18.1512 0.0000 0.0000
# 5 0.0000 0.0000 0.0000 0.0000 18.1512 0.0000
# 6 0.0000 0.0000 0.0000 0.0000 0.0000 18.1512
#
#
#
# Elastic Compliance Matrix: (Units=1/GPa)
#
#
# Indices 1 2 3 4 5 6 
#
# 1 0.019539 -0.006489 -0.006489 0.000000 0.000000 0.000000
# 2 -0.006489 0.019539 -0.006489 0.000000 0.000000 0.000000
# 3 -0.006489 -0.006489 0.019539 0.000000 0.000000 0.000000
# 4 0.000000 0.000000 0.000000 0.055093 0.000000 0.000000
# 5 0.000000 0.000000 0.000000 0.000000 0.055093 0.000000
# 6 0.000000 0.000000 0.000000 0.000000 0.000000 0.055093
#
#
# Mechanical properties :
#
#
# Convention : Reuss Voigt Hill
#
# Bulk Modulus (GPa) = 50.80409 50.80409 50.80409
# Shear Modulus (GPa) = 18.56060 18.57494 18.56777
#
# Velocity S-wave (km/s) = 3.43878 3.44011 3.43944
# Velocity P-wave (km/s) = 6.93793 6.93880 6.93837
#
# Compressibility (1/GPa) = 0.01968345
#
# Stress axis : x y z
#
# Youngs Moduli (GPa) = 51.18055 51.18055 51.18055
#
# Poissons Ratio (x) = 0.33210 0.33210
# Poissons Ratio (y) = 0.33210 0.33210
# Poissons Ratio (z) = 0.33210 0.33210
#
# Static dielectric constant tensor:
#      x y z
#    x 2.937110 0.000000 0.000000 
#    y 0.000000 2.937110 0.000000 
#    z 0.000000 0.000000 2.937110 
# 
# 
# High freq. dielectric constant tensor:
#      x y z
#    x 1.592130 0.000000 0.000000 
#    y 0.000000 1.592130 0.000000 
#    z 0.000000 0.000000 1.592130 
# 
# From -- ./inp_files/923.got.cif
#   From: 2010.03.12/outbox.cif.g09.slc.cpg/sg215_cif.got.tgz:923.got - 2010.03.30 09:06:09.
