data_PCOD8331116
_publ_section_title
;
Structure prediction by ZEFSAII (Michael W. Deem and Ramdas Pophale) SiO2 
 PCOD8331116
Probable space group: P M 3 M
;
_chemical_formula_sum "Si O2"
_cell_formula_units_Z 168
_cell_length_a 22.274165
_cell_length_b 22.274165
_cell_length_c 22.274165
_cell_angle_alpha 90.000000
_cell_angle_beta 90.000000
_cell_angle_gamma 90.000000
_cell_volume 11051.069174
_symmetry_space_group_name_H-M "P M 3 M"
_symmetry_group_IT_number 221
_symmetry_cell_setting 'cubic'
loop_
_space_group_symop_operation_xyz
x,y,z
-y,x,z
-x,-y,z
y,-x,z
x,-z,y
x,-y,-z
x,z,-y
z,y,-x
-x,y,-z
-z,y,x
z,x,y
y,z,x
-y,-z,x
z,-x,-y
-y,z,-x
-z,-x,y
-z,x,-y
y,-z,-x
y,x,-z
-y,-x,-z
-x,z,y
-x,-z,-y
z,-y,x
-z,-y,-x
-x,-y,-z
y,-x,-z
x,y,-z
-y,x,-z
-x,z,-y
-x,y,z
-x,-z,y
-z,-y,x
x,-y,z
z,-y,-x
-z,-x,-y
-y,-z,-x
y,z,-x
-z,x,y
y,-z,x
z,x,-y
z,-x,y
-y,z,x
-y,-x,z
y,x,z
x,-z,-y
x,z,y
-z,y,-x
z,y,x
loop_
_atom_site_type_symbol
_atom_site_label
_atom_site_fract_x
_atom_site_fract_y
_atom_site_fract_z
Si Si1 0.293499 0.127609 0.391946
Si Si2 0.500000 0.689161 0.596618
Si Si3 0.837240 0.162761 0.573772
Si Si4 0.500000 0.306858 0.789652
Si Si5 0.334568 0.000000 0.569968
Si Si6 0.571172 0.066614 0.933387
O O1 0.328370 0.138990 0.328370
O O2 0.223524 0.143526 0.392425
O O3 0.322539 0.170378 0.442231
O O4 0.297468 0.058176 0.410242
O O5 0.559185 0.700568 0.559185
O O6 0.500000 0.621290 0.621290
O O7 0.500000 0.733758 0.650899
O O8 0.833743 0.166258 0.500000
O O9 0.885753 0.114248 0.595259
O O10 0.500000 0.237700 0.762301
O O11 0.345865 0.000000 0.500000
O O12 0.399907 0.000000 0.600094
O O13 0.500000 0.066623 0.933377
O O14 0.594514 0.000000 0.915937
#
# Coordination Sequence:
#
# PCOD8331116 Si02
#       6
#    48  24  24  24  24  24
#     4  11  21  34  50  71  95 125 161 199 234 284
#     4  10  21  35  53  71  89 111 139 182 238 295
#     4  11  19  34  53  74  98 130 161 199 247 296
#     4  11  19  36  52  69  91 116 156 195 234 286
#     4  10  20  33  50  68  93 123 155 195 237 279
#     4   8  16  29  48  78 106 126 156 197 241 292
#
# _framework density 15.20215
#
# number of rings (size 3 to 8) (size 9 to 14) (size 15 to 20)
#    0.000    1.714    4.286    1.571    2.000    0.143 
#    0.857    0.000    0.000    1.143    0.000    0.000 
#    0.000    0.000    0.000    0.000    0.000    0.000 
#
# Total GULP energy -2081699.937945 kJ/mol
# GULP energy per Si atom -12391.071059 kJ/mol
# Density = 1.516755 g / cm^3
# Si number density = 15.202150 Si / 1000 Ang^3
#
#
#
# Elastic Constant Matrix: (Units=GPa)
#
#
# Indices 1 2 3 4 5 6 
#
# 1 102.6328 51.4346 51.4346 0.0000 0.0000 0.0000
# 2 51.4346 102.6328 51.4346 0.0000 0.0000 0.0000
# 3 51.4346 51.4346 102.6328 0.0000 0.0000 0.0000
# 4 0.0000 0.0000 0.0000 132.8857 0.0000 0.0000
# 5 0.0000 0.0000 0.0000 0.0000 132.8857 0.0000
# 6 0.0000 0.0000 0.0000 0.0000 0.0000 132.8857
#
#
#
# Elastic Compliance Matrix: (Units=1/GPa)
#
#
# Indices 1 2 3 4 5 6 
#
# 1 0.014643 -0.004889 -0.004889 0.000000 0.000000 0.000000
# 2 -0.004889 0.014643 -0.004889 0.000000 0.000000 0.000000
# 3 -0.004889 -0.004889 0.014643 0.000000 0.000000 0.000000
# 4 0.000000 0.000000 0.000000 0.007525 0.000000 0.000000
# 5 0.000000 0.000000 0.000000 0.000000 0.007525 0.000000
# 6 0.000000 0.000000 0.000000 0.000000 0.000000 0.007525
#
#
# Mechanical properties :
#
#
# Convention : Reuss Voigt Hill
#
# Bulk Modulus (GPa) = 68.50066 68.50066 68.50066
# Shear Modulus (GPa) = 49.65074 89.97109 69.81091
#
# Velocity S-wave (km/s) = 5.72112 7.70140 6.78391
# Velocity P-wave (km/s) = 9.42334 11.14629 10.32083
#
# Compressibility (1/GPa) = 0.01459840
#
# Stress axis : x y z
#
# Youngs Moduli (GPa) = 68.29052 68.29052 68.29052
#
# Poissons Ratio (x) = 0.33384 0.33384
# Poissons Ratio (y) = 0.33384 0.33384
# Poissons Ratio (z) = 0.33384 0.33384
#
# Static dielectric constant tensor:
#      x y z
#    x 3.005160 0.000000 0.000000 
#    y 0.000000 3.005160 0.000000 
#    z 0.000000 0.000000 3.005160 
# 
# 
# High freq. dielectric constant tensor:
#      x y z
#    x 1.577670 0.000000 0.000000 
#    y 0.000000 1.577670 0.000000 
#    z 0.000000 0.000000 1.577670 
# 
# From -- ./inp_files/459.got.cif
#   From: 2010.03.12/outbox.cif.g09.slc.cpg/sg221_cif.got.tgz:459.got - 2010.03.30 09:08:03.
