data_PCOD8331136
_publ_section_title
;
Structure prediction by ZEFSAII (Michael W. Deem and Ramdas Pophale) SiO2 
 PCOD8331136
Probable space group: P N 3 M
;
_chemical_formula_sum "Si O2"
_cell_formula_units_Z 312
_cell_length_a 27.215461
_cell_length_b 27.215461
_cell_length_c 27.215461
_cell_angle_alpha 90.000000
_cell_angle_beta 90.000000
_cell_angle_gamma 90.000000
_cell_volume 20157.983508
_symmetry_space_group_name_H-M "P N 3 M"
_symmetry_group_IT_number 224
_space_group.IT_coordinate_system_code '2'
_symmetry_cell_setting 'cubic'
loop_
_space_group_symop_operation_xyz
x,y,z
-y,1/2+x,1/2+z
1/2-x,1/2-y,z
1/2+y,-x,1/2+z
1/2+x,-z,1/2+y
x,1/2-y,1/2-z
1/2+x,1/2+z,-y
1/2+z,1/2+y,-x
1/2-x,y,1/2-z
-z,1/2+y,1/2+x
z,x,y
y,z,x
1/2-y,1/2-z,x
z,1/2-x,1/2-y
1/2-y,z,1/2-x
1/2-z,1/2-x,y
1/2-z,x,1/2-y
y,1/2-z,1/2-x
1/2+y,1/2+x,-z
-y,-x,-z
-x,1/2+z,1/2+y
-x,-z,-y
1/2+z,-y,1/2+x
-z,-y,-x
-x,-y,-z
y,1/2-x,1/2-z
1/2+x,1/2+y,-z
1/2-y,x,1/2-z
1/2-x,z,1/2-y
-x,1/2+y,1/2+z
1/2-x,1/2-z,y
1/2-z,1/2-y,x
1/2+x,-y,1/2+z
z,1/2-y,1/2-x
-z,-x,-y
-y,-z,-x
1/2+y,1/2+z,-x
-z,1/2+x,1/2+y
1/2+y,-z,1/2+x
1/2+z,1/2+x,-y
1/2+z,-x,1/2+y
-y,1/2+z,1/2+x
1/2-y,1/2-x,z
y,x,z
x,1/2-z,1/2-y
x,z,y
1/2-z,y,1/2-x
z,y,x
loop_
_atom_site_type_symbol
_atom_site_label
_atom_site_fract_x
_atom_site_fract_y
_atom_site_fract_z
Si Si1 0.608756 0.750000 0.250000
Si Si2 0.639668 0.148721 0.721112
Si Si3 0.879726 0.462056 0.318121
Si Si4 0.924432 0.653375 0.205851
Si Si5 0.185606 0.900489 0.391682
Si Si6 0.392214 0.540919 0.033696
Si Si7 0.422788 0.995760 0.780416
O O1 0.645790 0.758266 0.295978
O O2 0.573864 0.797577 0.239636
O O3 0.682300 0.135757 0.682300
O O4 0.585179 0.150543 0.698260
O O5 0.639823 0.107249 0.764071
O O6 0.841856 0.500000 0.341856
O O7 0.921108 0.442552 0.354764
O O8 0.911059 0.489083 0.276520
O O9 0.884955 0.615046 0.229165
O O10 0.908008 0.668192 0.152339
O O11 0.976889 0.626226 0.199720
O O12 0.143999 0.925049 0.356002
O O13 0.193971 0.931342 0.442162
O O14 0.421764 0.515621 0.078237
O O15 0.429619 0.570382 0.000000
O O16 0.366045 0.498208 0.001793
O O17 0.471911 0.028090 0.788779
#
# Coordination Sequence:
#
# PCOD8331136 Si02
#       7
#    24  48  48  48  48  48  48
#     4  10  18  28  43  61  84 114 148 187 221 250
#     4  10  20  32  45  61  82 112 148 182 217 255
#     4  10  19  29  42  62  87 114 141 175 214 252
#     4   9  17  29  44  62  84 110 141 176 216 263
#     4   9  19  34  48  63  83 106 134 171 217 266
#     4   9  16  25  37  53  75 104 136 168 202 241
#     4  10  19  31  48  67  85 108 139 174 216 266
#
# _framework density 15.477738
#
# number of rings (size 3 to 8) (size 9 to 14) (size 15 to 20)
#    0.000    2.462    0.000    2.923    0.000    4.615 
#    0.000    8.846    0.000    3.308    0.000    0.000 
#    0.000    3.692    0.000    0.000    0.000    0.000 
#
# Total GULP energy -3865590.288560 kJ/mol
# GULP energy per Si atom -12389.712463 kJ/mol
# Density = 1.544251 g / cm^3
# Si number density = 15.477738 Si / 1000 Ang^3
#
#
#
# Elastic Constant Matrix: (Units=GPa)
#
#
# Indices 1 2 3 4 5 6 
#
# 1 80.0201 25.6404 25.6404 0.0000 0.0000 0.0000
# 2 25.6404 80.0201 25.6404 0.0000 0.0000 0.0000
# 3 25.6404 25.6404 80.0201 0.0000 0.0000 0.0000
# 4 0.0000 0.0000 0.0000 17.2604 0.0000 0.0000
# 5 0.0000 0.0000 0.0000 0.0000 17.2604 0.0000
# 6 0.0000 0.0000 0.0000 0.0000 0.0000 17.2604
#
#
#
# Elastic Compliance Matrix: (Units=1/GPa)
#
#
# Indices 1 2 3 4 5 6 
#
# 1 0.014798 -0.003591 -0.003591 0.000000 0.000000 0.000000
# 2 -0.003591 0.014798 -0.003591 0.000000 0.000000 0.000000
# 3 -0.003591 -0.003591 0.014798 0.000000 0.000000 0.000000
# 4 0.000000 0.000000 0.000000 0.057936 0.000000 0.000000
# 5 0.000000 0.000000 0.000000 0.000000 0.057936 0.000000
# 6 0.000000 0.000000 0.000000 0.000000 0.000000 0.057936
#
#
# Mechanical properties :
#
#
# Convention : Reuss Voigt Hill
#
# Bulk Modulus (GPa) = 43.76695 43.76695 43.76695
# Shear Modulus (GPa) = 20.21304 21.23219 20.72262
#
# Velocity S-wave (km/s) = 3.61770 3.70778 3.66302
# Velocity P-wave (km/s) = 6.76677 6.83147 6.79919
#
# Compressibility (1/GPa) = 0.02284829
#
# Stress axis : x y z
#
# Youngs Moduli (GPa) = 67.57594 67.57594 67.57594
#
# Poissons Ratio (x) = 0.24267 0.24267
# Poissons Ratio (y) = 0.24267 0.24267
# Poissons Ratio (z) = 0.24267 0.24267
#
# Static dielectric constant tensor:
#      x y z
#    x 3.001900 0.000000 0.000000 
#    y 0.000000 3.001900 0.000000 
#    z 0.000000 0.000000 3.001900 
# 
# 
# High freq. dielectric constant tensor:
#      x y z
#    x 1.574830 0.000000 0.000000 
#    y 0.000000 1.574830 0.000000 
#    z 0.000000 0.000000 1.574830 
# 
# From -- ./inp_files/824.got.cif
#   From: 2010.03.12/outbox.cif.g09.slc.cpg/sg224_cif.got.tgz:824.got - 2010.03.30 09:09:26.
