data_PCOD8331127
_publ_section_title
;
Structure prediction by ZEFSAII (Michael W. Deem and Ramdas Pophale) SiO2 
 PCOD8331127
Probable space group: P N 3 N
;
_chemical_formula_sum "Si O2"
_cell_formula_units_Z 312
_cell_length_a 26.886146
_cell_length_b 26.886146
_cell_length_c 26.886146
_cell_angle_alpha 90.000000
_cell_angle_beta 90.000000
_cell_angle_gamma 90.000000
_cell_volume 19435.049808
_symmetry_space_group_name_H-M "P N 3 N"
_symmetry_group_IT_number 222
_space_group.IT_coordinate_system_code '2'
_symmetry_cell_setting 'cubic'
loop_
_space_group_symop_operation_xyz
x,y,z
1/2-y,x,z
1/2-x,1/2-y,z
y,1/2-x,z
x,1/2-z,y
x,1/2-y,1/2-z
x,z,1/2-y
z,y,1/2-x
1/2-x,y,1/2-z
1/2-z,y,x
z,x,y
y,z,x
1/2-y,1/2-z,x
z,1/2-x,1/2-y
1/2-y,z,1/2-x
1/2-z,1/2-x,y
1/2-z,x,1/2-y
y,1/2-z,1/2-x
y,x,1/2-z
1/2-y,1/2-x,1/2-z
1/2-x,z,y
1/2-x,1/2-z,1/2-y
z,1/2-y,x
1/2-z,1/2-y,1/2-x
-x,-y,-z
1/2+y,-x,-z
1/2+x,1/2+y,-z
-y,1/2+x,-z
-x,1/2+z,-y
-x,1/2+y,1/2+z
-x,-z,1/2+y
-z,-y,1/2+x
1/2+x,-y,1/2+z
1/2+z,-y,-x
-z,-x,-y
-y,-z,-x
1/2+y,1/2+z,-x
-z,1/2+x,1/2+y
1/2+y,-z,1/2+x
1/2+z,1/2+x,-y
1/2+z,-x,1/2+y
-y,1/2+z,1/2+x
-y,-x,1/2+z
1/2+y,1/2+x,1/2+z
1/2+x,-z,-y
1/2+x,1/2+z,1/2+y
-z,1/2+y,-x
1/2+z,1/2+y,1/2+x
loop_
_atom_site_type_symbol
_atom_site_label
_atom_site_fract_x
_atom_site_fract_y
_atom_site_fract_z
Si Si1 0.484570 0.875814 0.018378
Si Si2 0.250000 0.750000 0.167629
Si Si3 0.305208 0.592179 0.564643
Si Si4 0.754706 0.614863 0.352028
Si Si5 0.449750 0.583462 0.580647
Si Si6 0.622406 0.139020 0.354794
Si Si7 0.007161 0.276777 0.824537
O O1 0.465032 0.823838 0.042484
O O2 0.543599 0.886466 0.020333
O O3 0.452426 0.912890 0.051280
O O4 0.477309 0.881255 0.959216
O O5 0.200845 0.750000 0.200845
O O6 0.253036 0.704223 0.131126
O O7 0.250000 0.581752 0.581752
O O8 0.335220 0.610305 0.613570
O O9 0.308051 0.639407 0.528157
O O10 0.801055 0.644513 0.375250
O O11 0.703024 0.624282 0.379853
O O12 0.766993 0.557053 0.354704
O O13 0.428660 0.621482 0.620938
O O14 0.017979 0.309777 0.775701
#
# Coordination Sequence:
#
# PCOD8331127 Si02
#       7
#    48  24  48  48  48  48  48
#     4   9  18  33  57  75 100 123 155 199 254 301
#     4  11  22  36  51  68  90 124 183 228 255 284
#     4  11  23  35  50  75 101 132 165 213 255 310
#     4  12  23  36  53  70  95 133 169 216 260 306
#     4   9  18  35  54  80  97 123 156 199 246 312
#     4  11  24  36  52  71 102 130 171 213 256 300
#     4  11  22  35  51  69  97 131 168 204 257 314
#
# _framework density 16.053470999999998
#
# number of rings (size 3 to 8) (size 9 to 14) (size 15 to 20)
#    0.000    1.462    3.077    3.077    4.308    4.000 
#    0.000    0.000    0.000    0.000    0.000    0.000 
#    0.000    0.000    0.000    0.000    0.000    0.000 
#
# Total GULP energy -3866244.240110 kJ/mol
# GULP energy per Si atom -12391.808462 kJ/mol
# Density = 1.601693 g / cm^3
# Si number density = 16.053471 Si / 1000 Ang^3
#
#
#
# Elastic Constant Matrix: (Units=GPa)
#
#
# Indices 1 2 3 4 5 6 
#
# 1 66.3209 20.7480 20.7480 0.0000 0.0000 0.0000
# 2 20.7480 66.3209 20.7480 0.0000 0.0000 0.0000
# 3 20.7480 20.7480 66.3209 0.0000 0.0000 0.0000
# 4 0.0000 0.0000 0.0000 38.8590 0.0000 0.0000
# 5 0.0000 0.0000 0.0000 0.0000 38.8590 0.0000
# 6 0.0000 0.0000 0.0000 0.0000 0.0000 38.8590
#
#
#
# Elastic Compliance Matrix: (Units=1/GPa)
#
#
# Indices 1 2 3 4 5 6 
#
# 1 0.017720 -0.004223 -0.004223 0.000000 0.000000 0.000000
# 2 -0.004223 0.017720 -0.004223 0.000000 0.000000 0.000000
# 3 -0.004223 -0.004223 0.017720 0.000000 0.000000 0.000000
# 4 0.000000 0.000000 0.000000 0.025734 0.000000 0.000000
# 5 0.000000 0.000000 0.000000 0.000000 0.025734 0.000000
# 6 0.000000 0.000000 0.000000 0.000000 0.000000 0.025734
#
#
# Mechanical properties :
#
#
# Convention : Reuss Voigt Hill
#
# Bulk Modulus (GPa) = 35.93896 35.93896 35.93896
# Shear Modulus (GPa) = 30.30790 32.43001 31.36896
#
# Velocity S-wave (km/s) = 4.34975 4.49946 4.42524
# Velocity P-wave (km/s) = 6.90382 7.03058 6.96749
#
# Compressibility (1/GPa) = 0.02782496
#
# Stress axis : x y z
#
# Youngs Moduli (GPa) = 56.43270 56.43270 56.43270
#
# Poissons Ratio (x) = 0.23829 0.23829
# Poissons Ratio (y) = 0.23829 0.23829
# Poissons Ratio (z) = 0.23829 0.23829
#
# Static dielectric constant tensor:
#      x y z
#    x 3.288430 0.000000 0.000000 
#    y 0.000000 3.288430 0.000000 
#    z 0.000000 0.000000 3.288430 
# 
# 
# High freq. dielectric constant tensor:
#      x y z
#    x 1.604430 0.000000 0.000000 
#    y 0.000000 1.604430 0.000000 
#    z 0.000000 0.000000 1.604430 
# 
# From -- ./inp_files/547.got.cif
#   From: 2010.03.12/outbox.cif.g09.slc.cpg/sg222_cif.got.tgz:547.got - 2010.03.30 09:08:40.
