data_PCOD8331022
_publ_section_title
;
Structure prediction by ZEFSAII (Michael W. Deem and Ramdas Pophale) SiO2 
 PCOD8331022
Probable space group: P -4 3 M
;
_chemical_formula_sum "Si O2"
_cell_formula_units_Z 168
_cell_length_a 21.490008
_cell_length_b 21.490008
_cell_length_c 21.490008
_cell_angle_alpha 90.000000
_cell_angle_beta 90.000000
_cell_angle_gamma 90.000000
_cell_volume 9924.525033
_symmetry_space_group_name_H-M "P -4 3 M"
_symmetry_group_IT_number 215
_symmetry_cell_setting 'cubic'
loop_
_space_group_symop_operation_xyz
x,y,z
y,-x,-z
-x,-y,z
-y,x,-z
-x,z,-y
x,-y,-z
-x,-z,y
-z,-y,x
-x,y,-z
z,-y,-x
z,x,y
y,z,x
-y,-z,x
z,-x,-y
-y,z,-x
-z,-x,y
-z,x,-y
y,-z,-x
-y,-x,z
y,x,z
x,-z,-y
x,z,y
-z,y,-x
z,y,x
loop_
_atom_site_type_symbol
_atom_site_label
_atom_site_fract_x
_atom_site_fract_y
_atom_site_fract_z
Si Si1 0.827447 0.072768 0.723756
Si Si2 0.927232 0.827446 0.723755
Si Si3 0.731870 0.371106 0.111143
Si Si4 0.430913 0.673132 0.999999
Si Si5 0.111142 0.628895 0.731870
Si Si6 0.571358 0.326299 0.227297
Si Si7 0.772703 0.673701 0.428643
O O1 0.891898 0.108103 0.737869
O O2 0.781158 0.084368 0.781158
O O3 0.799433 0.101230 0.659627
O O4 0.841328 0.000000 0.714793
O O5 0.891896 0.891896 0.737868
O O6 0.915632 0.781157 0.781157
O O7 0.898772 0.799433 0.659625
O O8 0.683419 0.316582 0.099819
O O9 0.717611 0.422960 0.059611
O O10 0.724129 0.401701 0.178797
O O11 0.385532 0.614469 0.999998
O O12 0.500000 0.645391 0.000000
O O13 0.422961 0.717613 0.940388
O O14 0.099816 0.683418 0.683418
O O15 0.178797 0.598301 0.724127
O O16 0.609692 0.390309 0.225532
O O17 0.576739 0.295323 0.295323
O O18 0.500000 0.342499 0.211214
O O19 0.704677 0.704677 0.423263
O O20 0.774466 0.609691 0.390310
#
# Coordination Sequence:
#
# PCOD8331022 Si02
#       7
#    24  24  24  24  24  24  24
#     4  10  19  32  51  75 103 133 166 204 247 293
#     4  10  19  32  51  75 103 133 166 204 247 293
#     4   9  17  31  48  69  96 127 162 199 242 290
#     4  10  18  29  46  68  97 131 165 201 242 290
#     4   9  17  31  48  69  96 127 162 199 242 290
#     4  10  20  33  50  72  98 128 163 203 247 296
#     4  10  20  33  50  72  98 128 163 203 247 296
#
# _framework density 16.927762000000001
#
# number of rings (size 3 to 8) (size 9 to 14) (size 15 to 20)
#    0.000    2.286    1.429    2.286    0.000    0.714 
#    0.000    2.857    0.000    5.143    0.000    0.000 
#    0.000    1.143    0.000   17.714    0.000    0.000 
#
# Total GULP energy -2082713.424670 kJ/mol
# GULP energy per Si atom -12397.103718 kJ/mol
# Density = 1.688923 g / cm^3
# Si number density = 16.927762 Si / 1000 Ang^3
#
#
#
# Elastic Constant Matrix: (Units=GPa)
#
#
# Indices 1 2 3 4 5 6 
#
# 1 95.0137 45.9604 45.9604 0.0000 0.0000 0.0000
# 2 45.9604 95.0137 45.9604 0.0000 0.0000 0.0000
# 3 45.9604 45.9604 95.0137 0.0000 0.0000 0.0000
# 4 0.0000 0.0000 0.0000 22.4544 0.0000 0.0000
# 5 0.0000 0.0000 0.0000 0.0000 22.4544 0.0000
# 6 0.0000 0.0000 0.0000 0.0000 0.0000 22.4544
#
#
#
# Elastic Compliance Matrix: (Units=1/GPa)
#
#
# Indices 1 2 3 4 5 6 
#
# 1 0.015374 -0.005012 -0.005012 0.000000 0.000000 0.000000
# 2 -0.005012 0.015374 -0.005012 0.000000 0.000000 0.000000
# 3 -0.005012 -0.005012 0.015374 0.000000 0.000000 0.000000
# 4 0.000000 0.000000 0.000000 0.044535 0.000000 0.000000
# 5 0.000000 0.000000 0.000000 0.000000 0.044535 0.000000
# 6 0.000000 0.000000 0.000000 0.000000 0.000000 0.044535
#
#
# Mechanical properties :
#
#
# Convention : Reuss Voigt Hill
#
# Bulk Modulus (GPa) = 62.31149 62.31149 62.31149
# Shear Modulus (GPa) = 23.23982 23.28331 23.26156
#
# Velocity S-wave (km/s) = 3.70926 3.71273 3.71100
# Velocity P-wave (km/s) = 7.43202 7.43433 7.43318
#
# Compressibility (1/GPa) = 0.01604840
#
# Stress axis : x y z
#
# Youngs Moduli (GPa) = 65.04573 65.04573 65.04573
#
# Poissons Ratio (x) = 0.32602 0.32602
# Poissons Ratio (y) = 0.32602 0.32602
# Poissons Ratio (z) = 0.32602 0.32602
#
# Static dielectric constant tensor:
#      x y z
#    x 3.064050 0.000000 0.000000 
#    y 0.000000 3.064050 0.000000 
#    z 0.000000 0.000000 3.064050 
# 
# 
# High freq. dielectric constant tensor:
#      x y z
#    x 1.644410 0.000000 0.000000 
#    y 0.000000 1.644410 0.000000 
#    z 0.000000 0.000000 1.644410 
# 
# From -- ./inp_files/886.got.cif
#   From: 2010.03.12/outbox.cif.g09.slc.cpg/sg215_cif.got.tgz:886.got - 2010.03.30 09:06:09.
