data_PCOD8331120
_publ_section_title
;
Structure prediction by ZEFSAII (Michael W. Deem and Ramdas Pophale) SiO2 
 PCOD8331120
Probable space group: P M 3 M
;
_chemical_formula_sum "Si O2"
_cell_formula_units_Z 144
_cell_length_a 21.971606
_cell_length_b 21.971606
_cell_length_c 21.971606
_cell_angle_alpha 90.000000
_cell_angle_beta 90.000000
_cell_angle_gamma 90.000000
_cell_volume 10606.825100
_symmetry_space_group_name_H-M "P M 3 M"
_symmetry_group_IT_number 221
_symmetry_cell_setting 'cubic'
loop_
_space_group_symop_operation_xyz
x,y,z
-y,x,z
-x,-y,z
y,-x,z
x,-z,y
x,-y,-z
x,z,-y
z,y,-x
-x,y,-z
-z,y,x
z,x,y
y,z,x
-y,-z,x
z,-x,-y
-y,z,-x
-z,-x,y
-z,x,-y
y,-z,-x
y,x,-z
-y,-x,-z
-x,z,y
-x,-z,-y
z,-y,x
-z,-y,-x
-x,-y,-z
y,-x,-z
x,y,-z
-y,x,-z
-x,z,-y
-x,y,z
-x,-z,y
-z,-y,x
x,-y,z
z,-y,-x
-z,-x,-y
-y,-z,-x
y,z,-x
-z,x,y
y,-z,x
z,x,-y
z,-x,y
-y,z,x
-y,-x,z
y,x,z
x,-z,-y
x,z,y
-z,y,-x
z,y,x
loop_
_atom_site_type_symbol
_atom_site_label
_atom_site_fract_x
_atom_site_fract_y
_atom_site_fract_z
Si Si1 0.668944 0.429792 0.903993
Si Si2 0.000000 0.571604 0.233137
Si Si3 0.764285 0.333172 0.569203
Si Si4 0.000000 0.903171 0.427567
O O1 0.652502 0.500000 0.919056
O O2 0.610620 0.389381 0.922658
O O3 0.728538 0.408034 0.940771
O O4 0.685790 0.420628 0.833830
O O5 0.000000 0.500000 0.224335
O O6 0.000000 0.600965 0.165259
O O7 0.752023 0.352753 0.500000
O O8 0.724946 0.275055 0.588478
O O9 0.745085 0.390558 0.609443
O O10 0.939629 0.939629 0.405525
O O11 0.000000 0.900190 0.500000
#
# Coordination Sequence:
#
# PCOD8331120 Si02
#       4
#    48  24  48  24
#     4   9  17  27  38  53  72  95 123 152 183 219
#     4   9  16  25  37  52  71  93 115 142 172 202
#     4   9  17  28  41  56  73  93 118 149 185 225
#     4   8  14  24  37  53  71  90 112 137 168 207
#
# _framework density 13.576165
#
# number of rings (size 3 to 8) (size 9 to 14) (size 15 to 20)
#    0.000    3.167    0.000    1.333    0.000    2.000 
#    0.000   10.000    0.000    3.000    0.000    0.000 
#    0.000    0.000    0.000   10.333    0.000    0.333 
#
# Total GULP energy -1784868.566843 kJ/mol
# GULP energy per Si atom -12394.920603 kJ/mol
# Density = 1.354527 g / cm^3
# Si number density = 13.576165 Si / 1000 Ang^3
#
#
#
# Elastic Constant Matrix: (Units=GPa)
#
#
# Indices 1 2 3 4 5 6 
#
# 1 82.3592 48.2070 48.2070 0.0000 0.0000 0.0000
# 2 48.2070 82.3592 48.2070 0.0000 0.0000 0.0000
# 3 48.2070 48.2070 82.3592 0.0000 0.0000 0.0000
# 4 0.0000 0.0000 0.0000 15.6201 0.0000 0.0000
# 5 0.0000 0.0000 0.0000 0.0000 15.6201 0.0000
# 6 0.0000 0.0000 0.0000 0.0000 0.0000 15.6201
#
#
#
# Elastic Compliance Matrix: (Units=1/GPa)
#
#
# Indices 1 2 3 4 5 6 
#
# 1 0.021385 -0.007896 -0.007896 0.000000 0.000000 0.000000
# 2 -0.007896 0.021385 -0.007896 0.000000 0.000000 0.000000
# 3 -0.007896 -0.007896 0.021385 0.000000 0.000000 0.000000
# 4 0.000000 0.000000 0.000000 0.064020 0.000000 0.000000
# 5 0.000000 0.000000 0.000000 0.000000 0.064020 0.000000
# 6 0.000000 0.000000 0.000000 0.000000 0.000000 0.064020
#
#
# Mechanical properties :
#
#
# Convention : Reuss Voigt Hill
#
# Bulk Modulus (GPa) = 59.59106 59.59106 59.59106
# Shear Modulus (GPa) = 16.17168 16.20253 16.18710
#
# Velocity S-wave (km/s) = 3.45509 3.45839 3.45674
# Velocity P-wave (km/s) = 7.73990 7.74186 7.74088
#
# Compressibility (1/GPa) = 0.01678104
#
# Stress axis : x y z
#
# Youngs Moduli (GPa) = 46.76179 46.76179 46.76179
#
# Poissons Ratio (x) = 0.36921 0.36921
# Poissons Ratio (y) = 0.36921 0.36921
# Poissons Ratio (z) = 0.36921 0.36921
#
# Static dielectric constant tensor:
#      x y z
#    x 2.724610 0.000000 0.000000 
#    y 0.000000 2.724610 0.000000 
#    z 0.000000 0.000000 2.724610 
# 
# 
# High freq. dielectric constant tensor:
#      x y z
#    x 1.504600 0.000000 0.000000 
#    y 0.000000 1.504600 0.000000 
#    z 0.000000 0.000000 1.504600 
# 
# From -- ./inp_files/321.got.cif
#   From: 2010.03.12/outbox.cif.g09.slc.cpg/sg221_cif.got.tgz:321.got - 2010.03.30 09:08:03.
