data_PCOD8331165
_publ_section_title
;
Structure prediction by ZEFSAII (Michael W. Deem and Ramdas Pophale) SiO2 
 PCOD8331165
Probable space group: I A 3 D 
;
_chemical_formula_sum "Si O2"
_cell_formula_units_Z 312
_cell_length_a 24.915602
_cell_length_b 24.915602
_cell_length_c 24.915602
_cell_angle_alpha 90.000000
_cell_angle_beta 90.000000
_cell_angle_gamma 90.000000
_cell_volume 15467.287376
_symmetry_space_group_name_H-M "I A 3 D "
_symmetry_group_IT_number 230
_symmetry_cell_setting 'cubic'
loop_
_space_group_symop_operation_xyz
x,y,z
1/4-y,3/4+x,1/4+z
-x,1/2-y,z
1/4+y,1/4-x,3/4+z
1/4+x,1/4-z,3/4+y
x,-y,1/2-z
3/4+x,1/4+z,1/4-y
3/4+z,1/4+y,1/4-x
1/2-x,y,-z
1/4-z,3/4+y,1/4+x
z,x,y
y,z,x
-y,1/2-z,x
z,-x,1/2-y
1/2-y,z,-x
-z,1/2-x,y
1/2-z,x,-y
y,-z,1/2-x
3/4+y,1/4+x,1/4-z
1/4-y,1/4-x,1/4-z
1/4-x,3/4+z,1/4+y
1/4-x,1/4-z,1/4-y
1/4+z,1/4-y,3/4+x
1/4-z,1/4-y,1/4-x
-x,-y,-z
3/4+y,1/4-x,3/4-z
x,1/2+y,-z
3/4-y,3/4+x,1/4-z
3/4-x,3/4+z,1/4-y
-x,y,1/2+z
1/4-x,3/4-z,3/4+y
1/4-z,3/4-y,3/4+x
1/2+x,-y,z
3/4+z,1/4-y,3/4-x
-z,-x,-y
-y,-z,-x
y,1/2+z,-x
-z,x,1/2+y
1/2+y,-z,x
z,1/2+x,-y
1/2+z,-x,y
-y,z,1/2+x
1/4-y,3/4-x,3/4+z
3/4+y,3/4+x,3/4+z
3/4+x,1/4-z,3/4-y
3/4+x,3/4+z,3/4+y
3/4-z,3/4+y,1/4-x
3/4+z,3/4+y,3/4+x
1/2+x,1/2+y,1/2+z
3/4-y,1/4+x,3/4+z
1/2-x,-y,1/2+z
3/4+y,3/4-x,1/4+z
3/4+x,3/4-z,1/4+y
1/2+x,1/2-y,-z
1/4+x,3/4+z,3/4-y
1/4+z,3/4+y,3/4-x
-x,1/2+y,1/2-z
3/4-z,1/4+y,3/4+x
1/2+z,1/2+x,1/2+y
1/2+y,1/2+z,1/2+x
1/2-y,-z,1/2+x
1/2+z,1/2-x,-y
-y,1/2+z,1/2-x
1/2-z,-x,1/2+y
-z,1/2+x,1/2-y
1/2+y,1/2-z,-x
1/4+y,3/4+x,3/4-z
3/4-y,3/4-x,3/4-z
3/4-x,1/4+z,3/4+y
3/4-x,3/4-z,3/4-y
3/4+z,3/4-y,1/4+x
3/4-z,3/4-y,3/4-x
1/2-x,1/2-y,1/2-z
1/4+y,3/4-x,1/4-z
1/2+x,y,1/2-z
1/4-y,1/4+x,3/4-z
1/4-x,1/4+z,3/4-y
1/2-x,1/2+y,z
3/4-x,1/4-z,1/4+y
3/4-z,1/4-y,1/4+x
x,1/2-y,1/2+z
1/4+z,3/4-y,1/4-x
1/2-z,1/2-x,1/2-y
1/2-y,1/2-z,1/2-x
1/2+y,z,1/2-x
1/2-z,1/2+x,y
y,1/2-z,1/2+x
1/2+z,x,1/2-y
z,1/2-x,1/2+y
1/2-y,1/2+z,x
3/4-y,1/4-x,1/4+z
1/4+y,1/4+x,1/4+z
1/4+x,3/4-z,1/4-y
1/4+x,1/4+z,1/4+y
1/4-z,1/4+y,3/4-x
1/4+z,1/4+y,1/4+x
loop_
_atom_site_type_symbol
_atom_site_label
_atom_site_fract_x
_atom_site_fract_y
_atom_site_fract_z
Si Si1 0.000000 0.750000 0.875000
Si Si2 0.640461 0.813343 0.304259
Si Si3 0.628449 0.005195 0.543108
Si Si4 0.475580 0.848763 0.192606
O O1 0.055674 0.744811 0.906224
O O2 0.615454 0.765711 0.269375
O O3 0.660648 0.786662 0.359696
O O4 0.694900 0.839069 0.281234
O O5 0.593710 0.858348 0.308146
O O6 0.685744 0.021713 0.564348
O O7 0.520367 0.875000 0.229634
#
# Coordination Sequence:
#
# PCOD8331165 Si02
#       4
#    24  96  96  96
#     4  12  24  48  64  92 142 176 224 276 340 416
#     4  10  21  40  67  90 127 173 216 280 328 397
#     4  10  21  41  67  95 124 169 232 271 334 402
#     4  12  25  41  64  97 137 174 218 282 342 409
#
# _framework density 20.171603000000001
#
# number of rings (size 3 to 8) (size 9 to 14) (size 15 to 20)
#    0.000    1.231    3.077    2.462    0.000    7.385 
#    0.923    0.000    0.000    0.000    0.000    0.000 
#    0.000    0.000    0.000    0.000    0.000    0.000 
#
# Total GULP energy -1932844.547183 kJ/mol
# GULP energy per Si atom -12390.029149 kJ/mol
# Density = 2.012569 g / cm^3
# Si number density = 20.171603 Si / 1000 Ang^3
#
#
#
# Elastic Constant Matrix: (Units=GPa)
#
#
# Indices 1 2 3 4 5 6 
#
# 1 105.0581 52.6047 52.6047 0.0000 0.0000 0.0000
# 2 52.6047 105.0581 52.6047 0.0000 0.0000 0.0000
# 3 52.6047 52.6047 105.0581 0.0000 0.0000 0.0000
# 4 0.0000 0.0000 0.0000 34.7973 0.0000 0.0000
# 5 0.0000 0.0000 0.0000 0.0000 34.7973 0.0000
# 6 0.0000 0.0000 0.0000 0.0000 0.0000 34.7973
#
#
#
# Elastic Compliance Matrix: (Units=1/GPa)
#
#
# Indices 1 2 3 4 5 6 
#
# 1 0.014295 -0.004770 -0.004770 0.000000 0.000000 0.000000
# 2 -0.004770 0.014295 -0.004770 0.000000 0.000000 0.000000
# 3 -0.004770 -0.004770 0.014295 0.000000 0.000000 0.000000
# 4 0.000000 0.000000 0.000000 0.028738 0.000000 0.000000
# 5 0.000000 0.000000 0.000000 0.000000 0.028738 0.000000
# 6 0.000000 0.000000 0.000000 0.000000 0.000000 0.028738
#
#
# Mechanical properties :
#
#
# Convention : Reuss Voigt Hill
#
# Bulk Modulus (GPa) = 70.08914 70.08914 70.08914
# Shear Modulus (GPa) = 30.77457 31.36904 31.07181
#
# Velocity S-wave (km/s) = 3.91018 3.94777 3.92902
# Velocity P-wave (km/s) = 7.43020 7.45665 7.44344
#
# Compressibility (1/GPa) = 0.01426755
#
# Stress axis : x y z
#
# Youngs Moduli (GPa) = 69.95467 69.95467 69.95467
#
# Poissons Ratio (x) = 0.33365 0.33365
# Poissons Ratio (y) = 0.33365 0.33365
# Poissons Ratio (z) = 0.33365 0.33365
#
# Static dielectric constant tensor:
#      x y z
#    x 3.753930 0.000000 0.000000 
#    y 0.000000 3.753930 0.000000 
#    z 0.000000 0.000000 3.753930 
# 
# 
# High freq. dielectric constant tensor:
#      x y z
#    x 1.791440 0.000000 0.000000 
#    y 0.000000 1.791440 0.000000 
#    z 0.000000 0.000000 1.791440 
# 
# From -- ./inp_files/595.got.cif
#   From: 2010.03.12/outbox.cif.g09.slc.cpg/sg230_cif.got.tgz:595.got - 2010.03.30 09:10:43.
