data_PCOD8331046
_publ_section_title
;
Structure prediction by ZEFSAII (Michael W. Deem and Ramdas Pophale) SiO2 
 PCOD8331046
Probable space group: P -4 3 M
;
_chemical_formula_sum "Si O2"
_cell_formula_units_Z 60
_cell_length_a 14.275086
_cell_length_b 14.275086
_cell_length_c 14.275086
_cell_angle_alpha 90.000000
_cell_angle_beta 90.000000
_cell_angle_gamma 90.000000
_cell_volume 2908.949621
_symmetry_space_group_name_H-M "P -4 3 M"
_symmetry_group_IT_number 215
_symmetry_cell_setting 'cubic'
loop_
_space_group_symop_operation_xyz
x,y,z
y,-x,-z
-x,-y,z
-y,x,-z
-x,z,-y
x,-y,-z
-x,-z,y
-z,-y,x
-x,y,-z
z,-y,-x
z,x,y
y,z,x
-y,-z,x
z,-x,-y
-y,z,-x
-z,-x,y
-z,x,-y
y,-z,-x
-y,-x,z
y,x,z
x,-z,-y
x,z,y
-z,y,-x
z,y,x
loop_
_atom_site_type_symbol
_atom_site_label
_atom_site_fract_x
_atom_site_fract_y
_atom_site_fract_z
Si Si1 0.807278 0.651581 0.499956
Si Si2 0.848421 0.000045 0.307274
Si Si3 0.500000 0.750005 0.000000
O O1 0.740143 0.740143 0.503248
O O2 0.774436 0.582280 0.417721
O O3 0.803240 0.599713 0.599713
O O4 0.912109 0.684202 0.478433
O O5 0.900288 0.900288 0.303230
O O6 0.759852 0.996756 0.240149
O O7 0.815810 0.021566 0.412109
O O8 0.917720 0.082280 0.274428
#
# Coordination Sequence:
#
# PCOD8331046 Si02
#       3
#    24  24  12
#     4  11  23  40  62  88 119 155 196 242 292 347
#     4  11  23  40  62  88 119 155 196 242 292 347
#     4  12  24  38  60  88 120 158 196 238 292 348
#
# _framework density 20.626002
#
# number of rings (size 3 to 8) (size 9 to 14) (size 15 to 20)
#    0.000    0.800    0.000    8.800    0.000    3.200 
#    0.000    8.000    0.000    6.400    0.000    0.000 
#    0.000    0.000    0.000    0.000    0.000    0.000 
#
# Total GULP energy -744510.818818 kJ/mol
# GULP energy per Si atom -12408.513647 kJ/mol
# Density = 2.057906 g / cm^3
# Si number density = 20.626002 Si / 1000 Ang^3
#
#
#
# Elastic Constant Matrix: (Units=GPa)
#
#
# Indices 1 2 3 4 5 6 
#
# 1 109.4010 32.4154 32.4154 0.0000 0.0000 0.0000
# 2 32.4154 109.4010 32.4154 0.0000 0.0000 0.0000
# 3 32.4154 32.4154 109.4010 0.0000 0.0000 0.0000
# 4 0.0000 0.0000 0.0000 21.7585 0.0000 0.0000
# 5 0.0000 0.0000 0.0000 0.0000 21.7585 0.0000
# 6 0.0000 0.0000 0.0000 0.0000 0.0000 21.7585
#
#
#
# Elastic Compliance Matrix: (Units=1/GPa)
#
#
# Indices 1 2 3 4 5 6 
#
# 1 0.010573 -0.002417 -0.002417 0.000000 0.000000 0.000000
# 2 -0.002417 0.010573 -0.002417 0.000000 0.000000 0.000000
# 3 -0.002417 -0.002417 0.010573 0.000000 0.000000 0.000000
# 4 0.000000 0.000000 0.000000 0.045959 0.000000 0.000000
# 5 0.000000 0.000000 0.000000 0.000000 0.045959 0.000000
# 6 0.000000 0.000000 0.000000 0.000000 0.000000 0.045959
#
#
# Mechanical properties :
#
#
# Convention : Reuss Voigt Hill
#
# Bulk Modulus (GPa) = 58.07727 58.07727 58.07727
# Shear Modulus (GPa) = 26.33869 28.45222 27.39545
#
# Velocity S-wave (km/s) = 3.57734 3.71810 3.64840
# Velocity P-wave (km/s) = 6.72916 6.83014 6.77984
#
# Compressibility (1/GPa) = 0.01721844
#
# Stress axis : x y z
#
# Youngs Moduli (GPa) = 94.58240 94.58240 94.58240
#
# Poissons Ratio (x) = 0.22857 0.22857
# Poissons Ratio (y) = 0.22857 0.22857
# Poissons Ratio (z) = 0.22857 0.22857
#
# Static dielectric constant tensor:
#      x y z
#    x 3.789840 0.000000 0.000000 
#    y 0.000000 3.789840 0.000000 
#    z 0.000000 0.000000 3.789840 
# 
# 
# High freq. dielectric constant tensor:
#      x y z
#    x 1.817530 0.000000 0.000000 
#    y 0.000000 1.817530 0.000000 
#    z 0.000000 0.000000 1.817530 
# 
# From -- ./inp_files/198.got.cif
#   From: 2010.03.12/outbox.cif.g09.slc.cpg/sg215_cif.got.tgz:198.got - 2010.03.30 09:06:09.
