data_PCOD8331018
_publ_section_title
;
Structure prediction by ZEFSAII (Michael W. Deem and Ramdas Pophale) SiO2 
 PCOD8331018
Probable space group: I 41 3 2 
;
_chemical_formula_sum "Si O2"
_cell_formula_units_Z 168
_cell_length_a 20.536011
_cell_length_b 20.536011
_cell_length_c 20.536011
_cell_angle_alpha 90.000000
_cell_angle_beta 90.000000
_cell_angle_gamma 90.000000
_cell_volume 8660.605668
_symmetry_space_group_name_H-M "I 41 3 2 "
_symmetry_group_IT_number 214
_symmetry_cell_setting 'cubic'
loop_
_space_group_symop_operation_xyz
x,y,z
1/4-y,3/4+x,1/4+z
-x,1/2-y,z
1/4+y,1/4-x,3/4+z
1/4+x,1/4-z,3/4+y
x,-y,1/2-z
3/4+x,1/4+z,1/4-y
3/4+z,1/4+y,1/4-x
1/2-x,y,-z
1/4-z,3/4+y,1/4+x
z,x,y
y,z,x
-y,1/2-z,x
z,-x,1/2-y
1/2-y,z,-x
-z,1/2-x,y
1/2-z,x,-y
y,-z,1/2-x
3/4+y,1/4+x,1/4-z
1/4-y,1/4-x,1/4-z
1/4-x,3/4+z,1/4+y
1/4-x,1/4-z,1/4-y
1/4+z,1/4-y,3/4+x
1/4-z,1/4-y,1/4-x
1/2+x,1/2+y,1/2+z
3/4-y,1/4+x,3/4+z
1/2-x,-y,1/2+z
3/4+y,3/4-x,1/4+z
3/4+x,3/4-z,1/4+y
1/2+x,1/2-y,-z
1/4+x,3/4+z,3/4-y
1/4+z,3/4+y,3/4-x
-x,1/2+y,1/2-z
3/4-z,1/4+y,3/4+x
1/2+z,1/2+x,1/2+y
1/2+y,1/2+z,1/2+x
1/2-y,-z,1/2+x
1/2+z,1/2-x,-y
-y,1/2+z,1/2-x
1/2-z,-x,1/2+y
-z,1/2+x,1/2-y
1/2+y,1/2-z,-x
1/4+y,3/4+x,3/4-z
3/4-y,3/4-x,3/4-z
3/4-x,1/4+z,3/4+y
3/4-x,3/4-z,3/4-y
3/4+z,3/4-y,1/4+x
3/4-z,3/4-y,3/4-x
loop_
_atom_site_type_symbol
_atom_site_label
_atom_site_fract_x
_atom_site_fract_y
_atom_site_fract_z
Si Si1 0.329241 0.372409 0.808488
Si Si2 0.750000 0.120080 0.000000
Si Si3 0.378997 0.270760 0.705798
Si Si4 0.693192 0.300751 0.948849
O O1 0.374765 0.375236 0.875000
O O2 0.323271 0.446426 0.783042
O O3 0.360015 0.333584 0.747761
O O4 0.257044 0.344029 0.823999
O O5 0.783717 0.166343 0.945736
O O6 0.386724 0.211941 0.757663
O O7 0.625000 0.272785 0.977216
O O8 0.679640 0.375000 0.929640
O O9 0.750000 0.293258 0.000000
#
# Coordination Sequence:
#
# PCOD8331018 Si02
#       4
#    48  24  48  48
#     4  10  23  37  56  86 118 157 199 253 298 369
#     4  10  22  36  55  80 117 152 202 248 310 346
#     4  11  21  35  56  79 116 157 207 243 301 359
#     4  11  24  35  51  75 114 164 210 256 297 354
#
# _framework density 19.398181999999998
#
# number of rings (size 3 to 8) (size 9 to 14) (size 15 to 20)
#    0.000    1.429    1.429    3.429   12.000    0.000 
#    0.000    0.000    0.000    0.000    0.000   36.000 
#    0.000    0.000    0.000    0.000    0.000    0.000 
#
# Total GULP energy -1040605.568990 kJ/mol
# GULP energy per Si atom -12388.161536 kJ/mol
# Density = 1.935403 g / cm^3
# Si number density = 19.398182 Si / 1000 Ang^3
#
#
#
# Elastic Constant Matrix: (Units=GPa)
#
#
# Indices 1 2 3 4 5 6 
#
# 1 99.2801 45.8308 45.8308 0.0000 0.0000 0.0000
# 2 45.8308 99.2801 45.8308 0.0000 0.0000 0.0000
# 3 45.8308 45.8308 99.2801 0.0000 0.0000 0.0000
# 4 0.0000 0.0000 0.0000 27.7776 0.0000 0.0000
# 5 0.0000 0.0000 0.0000 0.0000 27.7776 0.0000
# 6 0.0000 0.0000 0.0000 0.0000 0.0000 27.7776
#
#
#
# Elastic Compliance Matrix: (Units=1/GPa)
#
#
# Indices 1 2 3 4 5 6 
#
# 1 0.014219 -0.004491 -0.004491 0.000000 0.000000 0.000000
# 2 -0.004491 0.014219 -0.004491 0.000000 0.000000 0.000000
# 3 -0.004491 -0.004491 0.014219 0.000000 0.000000 0.000000
# 4 0.000000 0.000000 0.000000 0.036000 0.000000 0.000000
# 5 0.000000 0.000000 0.000000 0.000000 0.036000 0.000000
# 6 0.000000 0.000000 0.000000 0.000000 0.000000 0.036000
#
#
# Mechanical properties :
#
#
# Convention : Reuss Voigt Hill
#
# Bulk Modulus (GPa) = 63.64727 63.64727 63.64727
# Shear Modulus (GPa) = 27.34662 27.35642 27.35152
#
# Velocity S-wave (km/s) = 3.75874 3.75941 3.75908
# Velocity P-wave (km/s) = 7.19164 7.19211 7.19187
#
# Compressibility (1/GPa) = 0.01571159
#
# Stress axis : x y z
#
# Youngs Moduli (GPa) = 70.33036 70.33036 70.33036
#
# Poissons Ratio (x) = 0.31583 0.31583
# Poissons Ratio (y) = 0.31583 0.31583
# Poissons Ratio (z) = 0.31583 0.31583
#
# Static dielectric constant tensor:
#      x y z
#    x 3.528330 0.000000 0.000000 
#    y 0.000000 3.528330 0.000000 
#    z 0.000000 0.000000 3.528330 
# 
# 
# High freq. dielectric constant tensor:
#      x y z
#    x 1.740360 0.000000 0.000000 
#    y 0.000000 1.740360 0.000000 
#    z 0.000000 0.000000 1.740360 
# 
# From -- ./inp_files/542.got.cif
#   From: 2010.03.12/outbox.cif.g09.slc.cpg/sg214_cif.got.tgz:542.got - 2010.03.30 09:05:49.
