data_PCOD8331029
_publ_section_title
;
Structure prediction by ZEFSAII (Michael W. Deem and Ramdas Pophale) SiO2 
 PCOD8331029
Probable space group: P -4 3 M
;
_chemical_formula_sum "Si O2"
_cell_formula_units_Z 96
_cell_length_a 17.536289
_cell_length_b 17.536289
_cell_length_c 17.536289
_cell_angle_alpha 90.000000
_cell_angle_beta 90.000000
_cell_angle_gamma 90.000000
_cell_volume 5392.784703
_symmetry_space_group_name_H-M "P -4 3 M"
_symmetry_group_IT_number 215
_symmetry_cell_setting 'cubic'
loop_
_space_group_symop_operation_xyz
x,y,z
y,-x,-z
-x,-y,z
-y,x,-z
-x,z,-y
x,-y,-z
-x,-z,y
-z,-y,x
-x,y,-z
z,-y,-x
z,x,y
y,z,x
-y,-z,x
z,-x,-y
-y,z,-x
-z,-x,y
-z,x,-y
y,-z,-x
-y,-x,z
y,x,z
x,-z,-y
x,z,y
-z,y,-x
z,y,x
loop_
_atom_site_type_symbol
_atom_site_label
_atom_site_fract_x
_atom_site_fract_y
_atom_site_fract_z
Si Si1 0.376646 0.250511 0.497061
Si Si2 0.742476 0.498226 0.868961
Si Si3 0.086068 0.337689 0.786692
Si Si4 0.915127 0.336890 0.787362
O O1 0.313102 0.313102 0.510504
O O2 0.437341 0.260536 0.562659
O O3 0.414665 0.262446 0.414665
O O4 0.342533 0.165254 0.501158
O O5 0.798871 0.491271 0.798871
O O6 0.758669 0.574875 0.915876
O O7 0.753075 0.422334 0.919198
O O8 0.111173 0.283194 0.716807
O O9 0.143578 0.324734 0.856423
O O10 0.000854 0.316972 0.814781
O O11 0.888105 0.278517 0.721484
O O12 0.859173 0.329147 0.859173
#
# Coordination Sequence:
#
# PCOD8331029 Si02
#       4
#    24  24  24  24
#     4  10  19  30  45  65  92 127 168 214 261 309
#     4   9  18  32  49  70  95 125 162 201 244 292
#     4  10  20  34  53  76 103 134 168 208 253 303
#     4  10  20  34  53  76 103 134 168 208 253 303
#
# _framework density 17.801563999999999
#
# number of rings (size 3 to 8) (size 9 to 14) (size 15 to 20)
#    0.000    2.250    0.000    3.250    0.000    0.500 
#    0.000    5.000    0.000    6.500    0.000   10.500 
#    0.000    0.000    0.000   15.500    0.000    0.000 
#
# Total GULP energy -1190118.820361 kJ/mol
# GULP energy per Si atom -12397.071045 kJ/mol
# Density = 1.776105 g / cm^3
# Si number density = 17.801564 Si / 1000 Ang^3
#
#
#
# Elastic Constant Matrix: (Units=GPa)
#
#
# Indices 1 2 3 4 5 6 
#
# 1 96.8750 39.0740 39.0740 0.0000 0.0000 0.0000
# 2 39.0740 96.8750 39.0740 0.0000 0.0000 0.0000
# 3 39.0740 39.0740 96.8750 0.0000 0.0000 0.0000
# 4 0.0000 0.0000 0.0000 23.8184 0.0000 0.0000
# 5 0.0000 0.0000 0.0000 0.0000 23.8184 0.0000
# 6 0.0000 0.0000 0.0000 0.0000 0.0000 23.8184
#
#
#
# Elastic Compliance Matrix: (Units=1/GPa)
#
#
# Indices 1 2 3 4 5 6 
#
# 1 0.013438 -0.003862 -0.003862 0.000000 0.000000 0.000000
# 2 -0.003862 0.013438 -0.003862 0.000000 0.000000 0.000000
# 3 -0.003862 -0.003862 0.013438 0.000000 0.000000 0.000000
# 4 0.000000 0.000000 0.000000 0.041984 0.000000 0.000000
# 5 0.000000 0.000000 0.000000 0.000000 0.041984 0.000000
# 6 0.000000 0.000000 0.000000 0.000000 0.000000 0.041984
#
#
# Mechanical properties :
#
#
# Convention : Reuss Voigt Hill
#
# Bulk Modulus (GPa) = 58.34099 58.34099 58.34099
# Shear Modulus (GPa) = 25.62052 25.85124 25.73588
#
# Velocity S-wave (km/s) = 3.79783 3.81489 3.80637
# Velocity P-wave (km/s) = 7.21633 7.22832 7.22233
#
# Compressibility (1/GPa) = 0.01714061
#
# Stress axis : x y z
#
# Youngs Moduli (GPa) = 74.41400 74.41400 74.41400
#
# Poissons Ratio (x) = 0.28742 0.28742
# Poissons Ratio (y) = 0.28742 0.28742
# Poissons Ratio (z) = 0.28742 0.28742
#
# Static dielectric constant tensor:
#      x y z
#    x 3.280520 0.000000 0.000000 
#    y 0.000000 3.280520 0.000000 
#    z 0.000000 0.000000 3.280520 
# 
# 
# High freq. dielectric constant tensor:
#      x y z
#    x 1.687940 0.000000 0.000000 
#    y 0.000000 1.687940 0.000000 
#    z 0.000000 0.000000 1.687940 
# 
# From -- ./inp_files/444.got.cif
#   From: 2010.03.12/outbox.cif.g09.slc.cpg/sg215_cif.got.tgz:444.got - 2010.03.30 09:06:09.
