data_PCOD8331138
_publ_section_title
;
Structure prediction by ZEFSAII (Michael W. Deem and Ramdas Pophale) SiO2 
 PCOD8331138
Probable space group: P N 3 M
;
_chemical_formula_sum "Si O2"
_cell_formula_units_Z 144
_cell_length_a 20.126558
_cell_length_b 20.126558
_cell_length_c 20.126558
_cell_angle_alpha 90.000000
_cell_angle_beta 90.000000
_cell_angle_gamma 90.000000
_cell_volume 8152.832643
_symmetry_space_group_name_H-M "P N 3 M"
_symmetry_group_IT_number 224
_space_group.IT_coordinate_system_code '2'
_symmetry_cell_setting 'cubic'
loop_
_space_group_symop_operation_xyz
x,y,z
-y,1/2+x,1/2+z
1/2-x,1/2-y,z
1/2+y,-x,1/2+z
1/2+x,-z,1/2+y
x,1/2-y,1/2-z
1/2+x,1/2+z,-y
1/2+z,1/2+y,-x
1/2-x,y,1/2-z
-z,1/2+y,1/2+x
z,x,y
y,z,x
1/2-y,1/2-z,x
z,1/2-x,1/2-y
1/2-y,z,1/2-x
1/2-z,1/2-x,y
1/2-z,x,1/2-y
y,1/2-z,1/2-x
1/2+y,1/2+x,-z
-y,-x,-z
-x,1/2+z,1/2+y
-x,-z,-y
1/2+z,-y,1/2+x
-z,-y,-x
-x,-y,-z
y,1/2-x,1/2-z
1/2+x,1/2+y,-z
1/2-y,x,1/2-z
1/2-x,z,1/2-y
-x,1/2+y,1/2+z
1/2-x,1/2-z,y
1/2-z,1/2-y,x
1/2+x,-y,1/2+z
z,1/2-y,1/2-x
-z,-x,-y
-y,-z,-x
1/2+y,1/2+z,-x
-z,1/2+x,1/2+y
1/2+y,-z,1/2+x
1/2+z,1/2+x,-y
1/2+z,-x,1/2+y
-y,1/2+z,1/2+x
1/2-y,1/2-x,z
y,x,z
x,1/2-z,1/2-y
x,z,y
1/2-z,y,1/2-x
z,y,x
loop_
_atom_site_type_symbol
_atom_site_label
_atom_site_fract_x
_atom_site_fract_y
_atom_site_fract_z
Si Si1 0.250000 0.750000 0.641095
Si Si2 0.970270 0.749189 0.641169
Si Si3 0.888783 0.103088 0.285227
Si Si4 0.109113 0.500000 0.890888
O O1 0.251837 0.684172 0.684172
O O2 0.318692 0.754584 0.598970
O O3 0.962704 0.817671 0.682330
O O4 0.950555 0.686788 0.686788
O O5 0.921845 0.752175 0.578156
O O6 0.046798 0.739483 0.617474
O O7 0.882743 0.161038 0.338963
O O8 0.899316 0.031439 0.318301
O O9 0.097480 0.554908 0.945093
#
# Coordination Sequence:
#
# PCOD8331138 Si02
#       4
#    24  48  48  24
#     4   9  16  29  48  68  92 121 152 193 248 302
#     4  10  19  31  47  69  99 136 177 217 254 293
#     4   9  18  30  46  68  92 121 159 200 244 296
#     4  10  19  31  46  66  94 126 158 193 239 298
#
# _framework density 17.662573999999999
#
# number of rings (size 3 to 8) (size 9 to 14) (size 15 to 20)
#    0.000    2.500    0.000    2.833    0.000    4.667 
#    0.000    3.333    0.000    2.667    0.000    0.000 
#    0.000    0.000    0.000   25.333    0.000    0.000 
#
# Total GULP energy -1784622.373531 kJ/mol
# GULP energy per Si atom -12393.210927 kJ/mol
# Density = 1.762237 g / cm^3
# Si number density = 17.662574 Si / 1000 Ang^3
#
#
#
# Elastic Constant Matrix: (Units=GPa)
#
#
# Indices 1 2 3 4 5 6 
#
# 1 93.2503 37.4265 37.4265 0.0000 0.0000 0.0000
# 2 37.4265 93.2503 37.4265 0.0000 0.0000 0.0000
# 3 37.4265 37.4265 93.2503 0.0000 0.0000 0.0000
# 4 0.0000 0.0000 0.0000 21.5273 0.0000 0.0000
# 5 0.0000 0.0000 0.0000 0.0000 21.5273 0.0000
# 6 0.0000 0.0000 0.0000 0.0000 0.0000 21.5273
#
#
#
# Elastic Compliance Matrix: (Units=1/GPa)
#
#
# Indices 1 2 3 4 5 6 
#
# 1 0.013925 -0.003988 -0.003988 0.000000 0.000000 0.000000
# 2 -0.003988 0.013925 -0.003988 0.000000 0.000000 0.000000
# 3 -0.003988 -0.003988 0.013925 0.000000 0.000000 0.000000
# 4 0.000000 0.000000 0.000000 0.046453 0.000000 0.000000
# 5 0.000000 0.000000 0.000000 0.000000 0.046453 0.000000
# 6 0.000000 0.000000 0.000000 0.000000 0.000000 0.046453
#
#
# Mechanical properties :
#
#
# Convention : Reuss Voigt Hill
#
# Bulk Modulus (GPa) = 56.03445 56.03445 56.03445
# Shear Modulus (GPa) = 23.69532 24.08112 23.88822
#
# Velocity S-wave (km/s) = 3.66670 3.69643 3.68159
# Velocity P-wave (km/s) = 7.05125 7.07191 7.06159
#
# Compressibility (1/GPa) = 0.01784616
#
# Stress axis : x y z
#
# Youngs Moduli (GPa) = 71.81195 71.81195 71.81195
#
# Poissons Ratio (x) = 0.28641 0.28641
# Poissons Ratio (y) = 0.28641 0.28641
# Poissons Ratio (z) = 0.28641 0.28641
#
# Static dielectric constant tensor:
#      x y z
#    x 3.302570 0.000000 0.000000 
#    y 0.000000 3.302570 0.000000 
#    z 0.000000 0.000000 3.302570 
# 
# 
# High freq. dielectric constant tensor:
#      x y z
#    x 1.673180 0.000000 0.000000 
#    y 0.000000 1.673180 0.000000 
#    z 0.000000 0.000000 1.673180 
# 
# From -- ./inp_files/412.got.cif
#   From: 2010.03.12/outbox.cif.g09.slc.cpg/sg224_cif.got.tgz:412.got - 2010.03.30 09:09:26.
