data_PCOD8331110
_publ_section_title
;
Structure prediction by ZEFSAII (Michael W. Deem and Ramdas Pophale) SiO2 
 PCOD8331110
Probable space group: P M 3 M
;
_chemical_formula_sum "Si O2"
_cell_formula_units_Z 192
_cell_length_a 24.479853
_cell_length_b 24.479853
_cell_length_c 24.479853
_cell_angle_alpha 90.000000
_cell_angle_beta 90.000000
_cell_angle_gamma 90.000000
_cell_volume 14669.875115
_symmetry_space_group_name_H-M "P M 3 M"
_symmetry_group_IT_number 221
_symmetry_cell_setting 'cubic'
loop_
_space_group_symop_operation_xyz
x,y,z
-y,x,z
-x,-y,z
y,-x,z
x,-z,y
x,-y,-z
x,z,-y
z,y,-x
-x,y,-z
-z,y,x
z,x,y
y,z,x
-y,-z,x
z,-x,-y
-y,z,-x
-z,-x,y
-z,x,-y
y,-z,-x
y,x,-z
-y,-x,-z
-x,z,y
-x,-z,-y
z,-y,x
-z,-y,-x
-x,-y,-z
y,-x,-z
x,y,-z
-y,x,-z
-x,z,-y
-x,y,z
-x,-z,y
-z,-y,x
x,-y,z
z,-y,-x
-z,-x,-y
-y,-z,-x
y,z,-x
-z,x,y
y,-z,x
z,x,-y
z,-x,y
-y,z,x
-y,-x,z
y,x,z
x,-z,-y
x,z,y
-z,y,-x
z,y,x
loop_
_atom_site_type_symbol
_atom_site_label
_atom_site_fract_x
_atom_site_fract_y
_atom_site_fract_z
Si Si1 0.723531 0.811507 0.635427
Si Si2 0.652328 0.115203 0.438380
Si Si3 0.227001 0.000000 0.681060
Si Si4 0.686997 0.000000 0.595674
Si Si5 0.798091 0.709816 0.885068
O O1 0.759713 0.759713 0.616251
O O2 0.677612 0.790292 0.677612
O O3 0.695836 0.840588 0.583647
O O4 0.760913 0.856353 0.664513
O O5 0.636818 0.131584 0.500000
O O6 0.597612 0.116456 0.402389
O O7 0.678398 0.054641 0.439578
O O8 0.189998 0.053329 0.690381
O O9 0.276908 0.000000 0.723093
O O10 0.251720 0.000000 0.619987
O O11 0.645246 0.000000 0.645246
O O12 0.768004 0.768004 0.883379
O O13 0.856092 0.716338 0.856092
#
# Coordination Sequence:
#
# PCOD8331110 Si02
#       5
#    48  48  24  24  48
#     4   9  16  26  40  58  78  98 119 146 184 227
#     4  10  19  29  41  55  73  99 128 157 187 218
#     4   9  14  23  39  55  74 100 126 150 181 225
#     4   9  15  27  40  53  72  95 124 153 184 222
#     4   9  15  23  37  57  78  98 122 153 187 223
#
# _framework density 13.088046
#
# number of rings (size 3 to 8) (size 9 to 14) (size 15 to 20)
#    0.000    2.750    2.500    0.875    0.000    2.750 
#    0.000    0.000    0.000    2.625    0.000    0.000 
#    0.000    0.000    0.000    0.000    0.000    7.625 
#
# Total GULP energy -2380072.427320 kJ/mol
# GULP energy per Si atom -12396.210559 kJ/mol
# Density = 1.305826 g / cm^3
# Si number density = 13.088046 Si / 1000 Ang^3
#
#
#
# Elastic Constant Matrix: (Units=GPa)
#
#
# Indices 1 2 3 4 5 6 
#
# 1 79.1254 39.7789 39.7789 0.0000 0.0000 0.0000
# 2 39.7789 79.1254 39.7789 0.0000 0.0000 0.0000
# 3 39.7789 39.7789 79.1254 0.0000 0.0000 0.0000
# 4 0.0000 0.0000 0.0000 12.9326 0.0000 0.0000
# 5 0.0000 0.0000 0.0000 0.0000 12.9326 0.0000
# 6 0.0000 0.0000 0.0000 0.0000 0.0000 12.9326
#
#
#
# Elastic Compliance Matrix: (Units=1/GPa)
#
#
# Indices 1 2 3 4 5 6 
#
# 1 0.019044 -0.006371 -0.006371 0.000000 0.000000 0.000000
# 2 -0.006371 0.019044 -0.006371 0.000000 0.000000 0.000000
# 3 -0.006371 -0.006371 0.019044 0.000000 0.000000 0.000000
# 4 0.000000 0.000000 0.000000 0.077324 0.000000 0.000000
# 5 0.000000 0.000000 0.000000 0.000000 0.077324 0.000000
# 6 0.000000 0.000000 0.000000 0.000000 0.000000 0.077324
#
#
# Mechanical properties :
#
#
# Convention : Reuss Voigt Hill
#
# Bulk Modulus (GPa) = 52.89441 52.89441 52.89441
# Shear Modulus (GPa) = 14.98656 15.62887 15.30771
#
# Velocity S-wave (km/s) = 3.38754 3.45937 3.42364
# Velocity P-wave (km/s) = 7.47011 7.51388 7.49203
#
# Compressibility (1/GPa) = 0.01890559
#
# Stress axis : x y z
#
# Youngs Moduli (GPa) = 52.50963 52.50963 52.50963
#
# Poissons Ratio (x) = 0.33455 0.33455
# Poissons Ratio (y) = 0.33455 0.33455
# Poissons Ratio (z) = 0.33455 0.33455
#
# Static dielectric constant tensor:
#      x y z
#    x 2.534480 0.000000 0.000000 
#    y 0.000000 2.534480 0.000000 
#    z 0.000000 0.000000 2.534480 
# 
# 
# High freq. dielectric constant tensor:
#      x y z
#    x 1.481730 0.000000 0.000000 
#    y 0.000000 1.481730 0.000000 
#    z 0.000000 0.000000 1.481730 
# 
# From -- ./inp_files/632.got.cif
#   From: 2010.03.12/outbox.cif.g09.slc.cpg/sg221_cif.got.tgz:632.got - 2010.03.30 09:08:03.
