data_PCOD8331006
_publ_section_title
;
Structure prediction by ZEFSAII (Michael W. Deem and Ramdas Pophale) SiO2 
 PCOD8331006
Probable space group: P 43 3 2
;
_chemical_formula_sum "Si O2"
_cell_formula_units_Z 116
_cell_length_a 17.831213
_cell_length_b 17.831213
_cell_length_c 17.831213
_cell_angle_alpha 90.000000
_cell_angle_beta 90.000000
_cell_angle_gamma 90.000000
_cell_volume 5669.472636
_symmetry_space_group_name_H-M "P 43 3 2"
_symmetry_group_IT_number 212
_symmetry_cell_setting 'cubic'
loop_
_space_group_symop_operation_xyz
x,y,z
3/4-y,1/4+x,3/4+z
1/2-x,-y,1/2+z
3/4+y,3/4-x,1/4+z
3/4+x,3/4-z,1/4+y
1/2+x,1/2-y,-z
1/4+x,3/4+z,3/4-y
1/4+z,3/4+y,3/4-x
-x,1/2+y,1/2-z
3/4-z,1/4+y,3/4+x
z,x,y
y,z,x
1/2-y,-z,1/2+x
1/2+z,1/2-x,-y
-y,1/2+z,1/2-x
1/2-z,-x,1/2+y
-z,1/2+x,1/2-y
1/2+y,1/2-z,-x
1/4+y,3/4+x,3/4-z
1/4-y,1/4-x,1/4-z
3/4-x,1/4+z,3/4+y
1/4-x,1/4-z,1/4-y
3/4+z,3/4-y,1/4+x
1/4-z,1/4-y,1/4-x
loop_
_atom_site_type_symbol
_atom_site_label
_atom_site_fract_x
_atom_site_fract_y
_atom_site_fract_z
Si Si1 0.322990 0.177012 0.822990
Si Si2 0.795315 0.266459 0.973928
Si Si3 0.783780 0.125000 0.466221
Si Si4 0.258534 0.485480 0.668662
Si Si5 0.364767 0.481764 0.803605
Si Si6 0.080791 0.067310 0.338220
O O1 0.375000 0.125000 0.875000
O O2 0.338778 0.160895 0.735613
O O3 0.781938 0.188483 0.931189
O O4 0.798769 0.337998 0.918292
O O5 0.875000 0.266556 0.016556
O O6 0.726133 0.276082 0.031107
O O7 0.778106 0.083212 0.386471
O O8 0.714821 0.182970 0.469368
O O9 0.327447 0.501887 0.724292
O O10 0.247715 0.560940 0.621750
O O11 0.385663 0.394876 0.797045
#
# Coordination Sequence:
#
# PCOD8331006 Si02
#       6
#     8  24  12  24  24  24
#     4  12  18  36  63  93 135 177 210 243 327 405
#     4  11  21  38  63  90 134 171 212 254 321 404
#     4  10  22  44  66  96 126 172 220 282 326 390
#     4  10  24  42  67  93 129 169 224 276 336 376
#     4  11  25  41  65  98 129 172 218 276 326 391
#     4  11  21  37  62  97 130 170 209 264 316 392
#
# _framework density 20.460457000000002
#
# number of rings (size 3 to 8) (size 9 to 14) (size 15 to 20)
#    0.000    1.241    4.138    2.276    4.345    1.655 
#    1.241    0.000    0.000    0.000    0.000    0.000 
#    0.000    0.000    0.000    0.000    0.000    0.000 
#
# Total GULP energy -1438137.067928 kJ/mol
# GULP energy per Si atom -12397.733344 kJ/mol
# Density = 2.041389 g / cm^3
# Si number density = 20.460457 Si / 1000 Ang^3
#
#
#
# Elastic Constant Matrix: (Units=GPa)
#
#
# Indices 1 2 3 4 5 6 
#
# 1 95.7833 34.1523 34.1525 0.0000 0.0000 0.0000
# 2 34.1523 95.7833 34.1525 0.0000 0.0000 0.0000
# 3 34.1525 34.1525 95.7825 0.0000 0.0000 0.0000
# 4 0.0000 0.0000 0.0000 24.4575 0.0000 0.0000
# 5 0.0000 0.0000 0.0000 0.0000 24.4575 0.0000
# 6 0.0000 0.0000 0.0000 0.0000 0.0000 24.4580
#
#
#
# Elastic Compliance Matrix: (Units=1/GPa)
#
#
# Indices 1 2 3 4 5 6 
#
# 1 0.012849 -0.003377 -0.003377 0.000000 0.000000 0.000000
# 2 -0.003377 0.012849 -0.003377 0.000000 0.000000 0.000000
# 3 -0.003377 -0.003377 0.012849 0.000000 0.000000 0.000000
# 4 0.000000 0.000000 0.000000 0.040887 0.000000 0.000000
# 5 0.000000 0.000000 0.000000 0.000000 0.040887 0.000000
# 6 0.000000 0.000000 0.000000 0.000000 0.000000 0.040887
#
#
# Mechanical properties :
#
#
# Convention : Reuss Voigt Hill
#
# Bulk Modulus (GPa) = 54.69598 54.69598 54.69598
# Shear Modulus (GPa) = 26.65760 27.00072 26.82916
#
# Velocity S-wave (km/s) = 3.61346 3.63664 3.62507
# Velocity P-wave (km/s) = 6.64831 6.66514 6.65673
#
# Compressibility (1/GPa) = 0.01828288
#
# Stress axis : x y z
#
# Youngs Moduli (GPa) = 77.83000 77.83000 77.82913
#
# Poissons Ratio (x) = 0.26284 0.26284
# Poissons Ratio (y) = 0.26284 0.26284
# Poissons Ratio (z) = 0.26284 0.26284
#
# Static dielectric constant tensor:
#      x y z
#    x 3.714040 0.000000 0.000000 
#    y 0.000000 3.714040 0.000000 
#    z 0.000000 0.000000 3.714050 
# 
# 
# High freq. dielectric constant tensor:
#      x y z
#    x 1.799440 0.000000 0.000000 
#    y 0.000000 1.799440 0.000000 
#    z 0.000000 0.000000 1.799440 
# 
# From -- ./inp_files/595.got.cif
#   From: 2010.03.12/outbox.cif.g09.slc.cpg/sg212_cif.got.tgz:595.got - 2010.03.30 09:05:11.
