data_PCOD8331167
_publ_section_title
;
Structure prediction by ZEFSAII (Michael W. Deem and Ramdas Pophale) SiO2 
 PCOD8331167
Probable space group: I A 3 D 
;
_chemical_formula_sum "Si O2"
_cell_formula_units_Z 144
_cell_length_a 19.086274
_cell_length_b 19.086274
_cell_length_c 19.086274
_cell_angle_alpha 90.000000
_cell_angle_beta 90.000000
_cell_angle_gamma 90.000000
_cell_volume 6952.859647
_symmetry_space_group_name_H-M "I A 3 D "
_symmetry_group_IT_number 230
_symmetry_cell_setting 'cubic'
loop_
_space_group_symop_operation_xyz
x,y,z
1/4-y,3/4+x,1/4+z
-x,1/2-y,z
1/4+y,1/4-x,3/4+z
1/4+x,1/4-z,3/4+y
x,-y,1/2-z
3/4+x,1/4+z,1/4-y
3/4+z,1/4+y,1/4-x
1/2-x,y,-z
1/4-z,3/4+y,1/4+x
z,x,y
y,z,x
-y,1/2-z,x
z,-x,1/2-y
1/2-y,z,-x
-z,1/2-x,y
1/2-z,x,-y
y,-z,1/2-x
3/4+y,1/4+x,1/4-z
1/4-y,1/4-x,1/4-z
1/4-x,3/4+z,1/4+y
1/4-x,1/4-z,1/4-y
1/4+z,1/4-y,3/4+x
1/4-z,1/4-y,1/4-x
-x,-y,-z
3/4+y,1/4-x,3/4-z
x,1/2+y,-z
3/4-y,3/4+x,1/4-z
3/4-x,3/4+z,1/4-y
-x,y,1/2+z
1/4-x,3/4-z,3/4+y
1/4-z,3/4-y,3/4+x
1/2+x,-y,z
3/4+z,1/4-y,3/4-x
-z,-x,-y
-y,-z,-x
y,1/2+z,-x
-z,x,1/2+y
1/2+y,-z,x
z,1/2+x,-y
1/2+z,-x,y
-y,z,1/2+x
1/4-y,3/4-x,3/4+z
3/4+y,3/4+x,3/4+z
3/4+x,1/4-z,3/4-y
3/4+x,3/4+z,3/4+y
3/4-z,3/4+y,1/4-x
3/4+z,3/4+y,3/4+x
1/2+x,1/2+y,1/2+z
3/4-y,1/4+x,3/4+z
1/2-x,-y,1/2+z
3/4+y,3/4-x,1/4+z
3/4+x,3/4-z,1/4+y
1/2+x,1/2-y,-z
1/4+x,3/4+z,3/4-y
1/4+z,3/4+y,3/4-x
-x,1/2+y,1/2-z
3/4-z,1/4+y,3/4+x
1/2+z,1/2+x,1/2+y
1/2+y,1/2+z,1/2+x
1/2-y,-z,1/2+x
1/2+z,1/2-x,-y
-y,1/2+z,1/2-x
1/2-z,-x,1/2+y
-z,1/2+x,1/2-y
1/2+y,1/2-z,-x
1/4+y,3/4+x,3/4-z
3/4-y,3/4-x,3/4-z
3/4-x,1/4+z,3/4+y
3/4-x,3/4-z,3/4-y
3/4+z,3/4-y,1/4+x
3/4-z,3/4-y,3/4-x
1/2-x,1/2-y,1/2-z
1/4+y,3/4-x,1/4-z
1/2+x,y,1/2-z
1/4-y,1/4+x,3/4-z
1/4-x,1/4+z,3/4-y
1/2-x,1/2+y,z
3/4-x,1/4-z,1/4+y
3/4-z,1/4-y,1/4+x
x,1/2-y,1/2+z
1/4+z,3/4-y,1/4-x
1/2-z,1/2-x,1/2-y
1/2-y,1/2-z,1/2-x
1/2+y,z,1/2-x
1/2-z,1/2+x,y
y,1/2-z,1/2+x
1/2+z,x,1/2-y
z,1/2-x,1/2+y
1/2-y,1/2+z,x
3/4-y,1/4-x,1/4+z
1/4+y,1/4+x,1/4+z
1/4+x,3/4-z,1/4-y
1/4+x,1/4+z,1/4+y
1/4-z,1/4+y,3/4-x
1/4+z,1/4+y,1/4+x
loop_
_atom_site_type_symbol
_atom_site_label
_atom_site_fract_x
_atom_site_fract_y
_atom_site_fract_z
Si Si1 0.930661 0.171463 0.843051
Si Si2 0.311263 0.561263 0.125000
O O1 0.903250 0.246667 0.868633
O O2 0.875000 0.112519 0.862519
O O3 0.937495 0.170689 0.759407
O O4 0.318677 0.625000 0.068677
#
# Coordination Sequence:
#
# PCOD8331167 Si02
#       2
#    96  48
#     4  11  25  44  69 103 139 186 232 289 350 414
#     4  10  26  46  71 102 139 186 234 288 342 414
#
# _framework density 20.710903999999999
#
# number of rings (size 3 to 8) (size 9 to 14) (size 15 to 20)
#    0.667    0.667    3.333    0.000    9.333    1.333 
#    0.000    3.333    0.000    0.000    0.000    0.000 
#    0.000    0.000    0.000    0.000    0.000    0.000 
#
# Total GULP energy -892783.249487 kJ/mol
# GULP energy per Si atom -12399.767354 kJ/mol
# Density = 2.066376 g / cm^3
# Si number density = 20.710904 Si / 1000 Ang^3
#
#
#
# Elastic Constant Matrix: (Units=GPa)
#
#
# Indices 1 2 3 4 5 6 
#
# 1 125.8239 65.5397 65.5397 0.0000 0.0000 0.0000
# 2 65.5397 125.8239 65.5397 0.0000 0.0000 0.0000
# 3 65.5397 65.5397 125.8239 0.0000 0.0000 0.0000
# 4 0.0000 0.0000 0.0000 32.2759 0.0000 0.0000
# 5 0.0000 0.0000 0.0000 0.0000 32.2759 0.0000
# 6 0.0000 0.0000 0.0000 0.0000 0.0000 32.2759
#
#
#
# Elastic Compliance Matrix: (Units=1/GPa)
#
#
# Indices 1 2 3 4 5 6 
#
# 1 0.012356 -0.004232 -0.004232 0.000000 0.000000 0.000000
# 2 -0.004232 0.012356 -0.004232 0.000000 0.000000 0.000000
# 3 -0.004232 -0.004232 0.012356 0.000000 0.000000 0.000000
# 4 0.000000 0.000000 0.000000 0.030983 0.000000 0.000000
# 5 0.000000 0.000000 0.000000 0.000000 0.030983 0.000000
# 6 0.000000 0.000000 0.000000 0.000000 0.000000 0.030983
#
#
# Mechanical properties :
#
#
# Convention : Reuss Voigt Hill
#
# Bulk Modulus (GPa) = 85.63443 85.63443 85.63443
# Shear Modulus (GPa) = 31.38714 31.42239 31.40477
#
# Velocity S-wave (km/s) = 3.89715 3.89934 3.89825
# Velocity P-wave (km/s) = 7.85415 7.85560 7.85487
#
# Compressibility (1/GPa) = 0.01167755
#
# Stress axis : x y z
#
# Youngs Moduli (GPa) = 80.93079 80.93079 80.93079
#
# Poissons Ratio (x) = 0.34249 0.34249
# Poissons Ratio (y) = 0.34249 0.34249
# Poissons Ratio (z) = 0.34249 0.34249
#
# Static dielectric constant tensor:
#      x y z
#    x 3.725850 0.000000 0.000000 
#    y 0.000000 3.725850 0.000000 
#    z 0.000000 0.000000 3.725850 
# 
# 
# High freq. dielectric constant tensor:
#      x y z
#    x 1.812700 0.000000 0.000000 
#    y 0.000000 1.812700 0.000000 
#    z 0.000000 0.000000 1.812700 
# 
# From -- ./inp_files/158.got.cif
#   From: 2010.03.12/outbox.cif.g09.slc.cpg/sg230_cif.got.tgz:158.got - 2010.03.30 09:10:43.
