data_PCOD8331038
_publ_section_title
;
Structure prediction by ZEFSAII (Michael W. Deem and Ramdas Pophale) SiO2 
 PCOD8331038
Probable space group: P -4 3 M
;
_chemical_formula_sum "Si O2"
_cell_formula_units_Z 168
_cell_length_a 21.673994
_cell_length_b 21.673994
_cell_length_c 21.673994
_cell_angle_alpha 90.000000
_cell_angle_beta 90.000000
_cell_angle_gamma 90.000000
_cell_volume 10181.619114
_symmetry_space_group_name_H-M "P -4 3 M"
_symmetry_group_IT_number 215
_symmetry_cell_setting 'cubic'
loop_
_space_group_symop_operation_xyz
x,y,z
y,-x,-z
-x,-y,z
-y,x,-z
-x,z,-y
x,-y,-z
-x,-z,y
-z,-y,x
-x,y,-z
z,-y,-x
z,x,y
y,z,x
-y,-z,x
z,-x,-y
-y,z,-x
-z,-x,y
-z,x,-y
y,-z,-x
-y,-x,z
y,x,z
x,-z,-y
x,z,y
-z,y,-x
z,y,x
loop_
_atom_site_type_symbol
_atom_site_label
_atom_site_fract_x
_atom_site_fract_y
_atom_site_fract_z
Si Si1 0.725204 0.826631 0.923869
Si Si2 0.677642 0.577249 0.062977
Si Si3 0.643873 0.746437 0.845608
Si Si4 0.256285 0.942599 0.844814
Si Si5 0.339189 0.438202 0.922079
Si Si6 0.572865 0.002194 0.096550
Si Si7 0.188962 0.616293 0.910593
O O1 0.773962 0.773962 0.936003
O O2 0.751826 0.874955 0.874955
O O3 0.662523 0.795563 0.898614
O O4 0.716809 0.860452 0.989381
O O5 0.629145 0.629145 0.084448
O O6 0.651353 0.511245 0.084870
O O7 0.743068 0.588120 0.096295
O O8 0.687240 0.579188 0.989364
O O9 0.701240 0.701240 0.831450
O O10 0.626426 0.782657 0.782657
O O11 0.585093 0.708755 0.870264
O O12 0.242871 0.909647 0.909647
O O13 0.193685 0.942588 0.806316
O O14 0.309459 0.906623 0.806683
O O15 0.405463 0.405463 0.912585
O O16 0.592888 0.071586 0.071586
O O17 0.500000 0.000000 0.101810
O O18 0.599533 0.978946 0.161864
O O19 0.597186 0.954034 0.045967
O O20 0.144757 0.590662 0.855244
#
# Coordination Sequence:
#
# PCOD8331038 Si02
#       7
#    24  24  24  24  24  24  24
#     4   9  17  29  45  65  89 117 146 178 220 273
#     4  10  20  34  50  65  87 117 150 194 236 264
#     4   9  16  28  47  72 100 125 145 167 206 265
#     4  10  20  33  47  61  81 110 148 192 235 273
#     4   9  19  33  49  69  91 116 149 186 223 264
#     4   8  15  28  43  61  89 122 149 173 206 255
#     4  10  20  31  46  67  89 117 150 185 223 269
#
# _framework density 16.500323000000002
#
# number of rings (size 3 to 8) (size 9 to 14) (size 15 to 20)
#    0.000    2.714    0.000    2.143    2.000    5.143 
#    0.000    3.571    0.000    0.286    0.000    0.000 
#    0.000    0.000    0.000    8.857    0.000    0.143 
#
# Total GULP energy -2081921.891032 kJ/mol
# GULP energy per Si atom -12392.392209 kJ/mol
# Density = 1.646277 g / cm^3
# Si number density = 16.500323 Si / 1000 Ang^3
#
#
#
# Elastic Constant Matrix: (Units=GPa)
#
#
# Indices 1 2 3 4 5 6 
#
# 1 82.0601 32.7119 32.7119 0.0000 0.0000 0.0000
# 2 32.7119 82.0601 32.7119 0.0000 0.0000 0.0000
# 3 32.7119 32.7119 82.0601 0.0000 0.0000 0.0000
# 4 0.0000 0.0000 0.0000 18.2239 0.0000 0.0000
# 5 0.0000 0.0000 0.0000 0.0000 18.2239 0.0000
# 6 0.0000 0.0000 0.0000 0.0000 0.0000 18.2239
#
#
#
# Elastic Compliance Matrix: (Units=1/GPa)
#
#
# Indices 1 2 3 4 5 6 
#
# 1 0.015770 -0.004495 -0.004495 0.000000 0.000000 0.000000
# 2 -0.004495 0.015770 -0.004495 0.000000 0.000000 0.000000
# 3 -0.004495 -0.004495 0.015770 0.000000 0.000000 0.000000
# 4 0.000000 0.000000 0.000000 0.054873 0.000000 0.000000
# 5 0.000000 0.000000 0.000000 0.000000 0.054873 0.000000
# 6 0.000000 0.000000 0.000000 0.000000 0.000000 0.054873
#
#
# Mechanical properties :
#
#
# Convention : Reuss Voigt Hill
#
# Bulk Modulus (GPa) = 49.16127 49.16127 49.16127
# Shear Modulus (GPa) = 20.35205 20.80399 20.57802
#
# Velocity S-wave (km/s) = 3.51584 3.55466 3.53530
# Velocity P-wave (km/s) = 6.80737 6.83420 6.82080
#
# Compressibility (1/GPa) = 0.02034122
#
# Stress axis : x y z
#
# Youngs Moduli (GPa) = 63.41327 63.41327 63.41327
#
# Poissons Ratio (x) = 0.28502 0.28502
# Poissons Ratio (y) = 0.28502 0.28502
# Poissons Ratio (z) = 0.28502 0.28502
#
# Static dielectric constant tensor:
#      x y z
#    x 3.022740 0.000000 0.000000 
#    y 0.000000 3.022740 0.000000 
#    z 0.000000 0.000000 3.022740 
# 
# 
# High freq. dielectric constant tensor:
#      x y z
#    x 1.620730 0.000000 0.000000 
#    y 0.000000 1.620730 0.000000 
#    z 0.000000 0.000000 1.620730 
# 
# From -- ./inp_files/906.got.cif
#   From: 2010.03.12/outbox.cif.g09.slc.cpg/sg215_cif.got.tgz:906.got - 2010.03.30 09:06:09.
