data_PCOD8331012
_publ_section_title
;
Structure prediction by ZEFSAII (Michael W. Deem and Ramdas Pophale) SiO2 
 PCOD8331012
Probable space group: P 41 3 2
;
_chemical_formula_sum "Si O2"
_cell_formula_units_Z 168
_cell_length_a 21.633787
_cell_length_b 21.633787
_cell_length_c 21.633787
_cell_angle_alpha 90.000000
_cell_angle_beta 90.000000
_cell_angle_gamma 90.000000
_cell_volume 10125.061000
_symmetry_space_group_name_H-M "P 41 3 2"
_symmetry_group_IT_number 213
_symmetry_cell_setting 'cubic'
loop_
_space_group_symop_operation_xyz
x,y,z
1/4-y,3/4+x,1/4+z
1/2-x,-y,1/2+z
1/4+y,1/4-x,3/4+z
1/4+x,1/4-z,3/4+y
1/2+x,1/2-y,-z
3/4+x,1/4+z,1/4-y
3/4+z,1/4+y,1/4-x
-x,1/2+y,1/2-z
1/4-z,3/4+y,1/4+x
z,x,y
y,z,x
1/2-y,-z,1/2+x
1/2+z,1/2-x,-y
-y,1/2+z,1/2-x
1/2-z,-x,1/2+y
-z,1/2+x,1/2-y
1/2+y,1/2-z,-x
3/4+y,1/4+x,1/4-z
3/4-y,3/4-x,3/4-z
1/4-x,3/4+z,1/4+y
3/4-x,3/4-z,3/4-y
1/4+z,1/4-y,3/4+x
3/4-z,3/4-y,3/4-x
loop_
_atom_site_type_symbol
_atom_site_label
_atom_site_fract_x
_atom_site_fract_y
_atom_site_fract_z
Si Si1 0.060887 0.166760 0.895510
Si Si2 0.221872 0.610958 0.838666
Si Si3 0.070088 0.088675 0.277761
Si Si4 0.176280 0.680616 0.555609
Si Si5 0.631764 0.582044 0.303925
Si Si6 0.430738 0.309524 0.144768
Si Si7 0.643006 0.466938 0.922736
O O1 0.113889 0.125000 0.863889
O O2 0.080872 0.238568 0.898348
O O3 0.996874 0.156259 0.858705
O O4 0.046576 0.147069 0.965992
O O5 0.218183 0.673243 0.880796
O O6 0.200214 0.549787 0.875000
O O7 0.290946 0.603281 0.817537
O O8 0.125000 0.037720 0.287720
O O9 0.093799 0.151084 0.310285
O O10 0.056597 0.107185 0.206942
O O11 0.004842 0.063157 0.304118
O O12 0.233481 0.652293 0.594532
O O13 0.113235 0.664233 0.591054
O O14 0.574062 0.625000 0.324062
O O15 0.611492 0.512169 0.308120
O O16 0.587245 0.472201 0.872833
#
# Coordination Sequence:
#
# PCOD8331012 Si02
#       7
#    24  24  24  24  24  24  24
#     4  10  21  36  54  72 103 137 168 222 268 300
#     4   8  17  31  50  78 104 125 156 200 240 298
#     4   9  18  33  49  68 101 139 170 215 254 296
#     4   9  20  32  51  76  99 133 177 206 253 311
#     4   9  19  32  48  71 105 134 163 208 248 304
#     4  10  19  33  53  75 100 133 170 198 259 313
#     4   9  21  33  48  77  94 130 183 223 251 301
#
# _framework density 16.592492
#
# number of rings (size 3 to 8) (size 9 to 14) (size 15 to 20)
#    0.571    2.286    0.000    0.429    6.000    0.571 
#    0.000    0.000    0.000    0.000    0.000    0.000 
#    0.000    0.000    4.857    0.000    0.000    0.000 
#
# Total GULP energy -2081337.896084 kJ/mol
# GULP energy per Si atom -12388.916048 kJ/mol
# Density = 1.655473 g / cm^3
# Si number density = 16.592492 Si / 1000 Ang^3
#
#
#
# Elastic Constant Matrix: (Units=GPa)
#
#
# Indices 1 2 3 4 5 6 
#
# 1 66.5315 30.2976 30.2976 0.0000 0.0000 0.0000
# 2 30.2976 66.5315 30.2976 0.0000 0.0000 0.0000
# 3 30.2976 30.2976 66.5315 0.0000 0.0000 0.0000
# 4 0.0000 0.0000 0.0000 20.9799 0.0000 0.0000
# 5 0.0000 0.0000 0.0000 0.0000 20.9799 0.0000
# 6 0.0000 0.0000 0.0000 0.0000 0.0000 20.9799
#
#
#
# Elastic Compliance Matrix: (Units=1/GPa)
#
#
# Indices 1 2 3 4 5 6 
#
# 1 0.021021 -0.006577 -0.006577 0.000000 0.000000 0.000000
# 2 -0.006577 0.021021 -0.006577 0.000000 0.000000 0.000000
# 3 -0.006577 -0.006577 0.021021 0.000000 0.000000 0.000000
# 4 0.000000 0.000000 0.000000 0.047665 0.000000 0.000000
# 5 0.000000 0.000000 0.000000 0.000000 0.047665 0.000000
# 6 0.000000 0.000000 0.000000 0.000000 0.000000 0.047665
#
#
# Mechanical properties :
#
#
# Convention : Reuss Voigt Hill
#
# Bulk Modulus (GPa) = 42.37556 42.37556 42.37556
# Shear Modulus (GPa) = 19.73260 19.83472 19.78366
#
# Velocity S-wave (km/s) = 3.45229 3.46121 3.45675
# Velocity P-wave (km/s) = 6.44092 6.44731 6.44412
#
# Compressibility (1/GPa) = 0.02359851
#
# Stress axis : x y z
#
# Youngs Moduli (GPa) = 47.57147 47.57147 47.57147
#
# Poissons Ratio (x) = 0.31290 0.31290
# Poissons Ratio (y) = 0.31290 0.31290
# Poissons Ratio (z) = 0.31290 0.31290
#
# Static dielectric constant tensor:
#      x y z
#    x 3.090360 0.000000 0.000000 
#    y 0.000000 3.090360 0.000000 
#    z 0.000000 0.000000 3.090360 
# 
# 
# High freq. dielectric constant tensor:
#      x y z
#    x 1.630810 0.000000 0.000000 
#    y 0.000000 1.630810 0.000000 
#    z 0.000000 0.000000 1.630810 
# 
# From -- ./inp_files/714.got.cif
#   From: 2010.03.12/outbox.cif.g09.slc.cpg/sg213_cif.got.tgz:714.got - 2010.03.30 09:05:31.
