data_PCOD8331066
_publ_section_title
;
Structure prediction by ZEFSAII (Michael W. Deem and Ramdas Pophale) SiO2 
 PCOD8331066
Probable space group: P -4 3 N
;
_chemical_formula_sum "Si O2"
_cell_formula_units_Z 82
_cell_length_a 16.575334
_cell_length_b 16.575334
_cell_length_c 16.575334
_cell_angle_alpha 90.000000
_cell_angle_beta 90.000000
_cell_angle_gamma 90.000000
_cell_volume 4553.935395
_symmetry_space_group_name_H-M "P -4 3 N"
_symmetry_group_IT_number 218
_symmetry_cell_setting 'cubic'
loop_
_space_group_symop_operation_xyz
x,y,z
1/2+y,1/2-x,1/2-z
-x,-y,z
1/2-y,1/2+x,1/2-z
1/2-x,1/2+z,1/2-y
x,-y,-z
1/2-x,1/2-z,1/2+y
1/2-z,1/2-y,1/2+x
-x,y,-z
1/2+z,1/2-y,1/2-x
z,x,y
y,z,x
-y,-z,x
z,-x,-y
-y,z,-x
-z,-x,y
-z,x,-y
y,-z,-x
1/2-y,1/2-x,1/2+z
1/2+y,1/2+x,1/2+z
1/2+x,1/2-z,1/2-y
1/2+x,1/2+z,1/2+y
1/2-z,1/2+y,1/2-x
1/2+z,1/2+y,1/2+x
loop_
_atom_site_type_symbol
_atom_site_label
_atom_site_fract_x
_atom_site_fract_y
_atom_site_fract_z
Si Si1 0.357949 0.781596 0.683234
Si Si2 0.479458 0.778431 0.408101
Si Si3 0.110212 0.110212 0.110212
Si Si4 0.271033 0.432666 0.894188
Si Si5 0.500000 0.500000 0.500000
O O1 0.277280 0.761079 0.633283
O O2 0.434663 0.759817 0.630074
O O3 0.345451 0.872635 0.713059
O O4 0.500000 0.802362 0.500000
O O5 0.419413 0.702403 0.399235
O O6 0.440629 0.854160 0.359551
O O7 0.055057 0.055057 0.055057
O O8 0.220858 0.515987 0.896351
#
# Coordination Sequence:
#
# PCOD8331066 Si02
#       5
#    24  24   8  24   2
#     4   9  20  36  55  83 119 155 192 240 298 365
#     4  11  22  36  58  89 118 160 196 248 304 368
#     4  12  24  33  57  88 134 163 198 234 309 385
#     4   9  20  40  60  81 111 154 204 254 300 350
#     4  12  24  36  48  88 140 178 192 240 300 376
#
# _framework density 18.006402999999999
#
# number of rings (size 3 to 8) (size 9 to 14) (size 15 to 20)
#    0.585    1.463    1.463    1.756    4.098    0.000 
#    0.000   11.707    0.000    0.000    0.000    0.000 
#    0.000    0.000    0.000    0.000    0.000    0.000 
#
# Total GULP energy -1016024.117692 kJ/mol
# GULP energy per Si atom -12390.538021 kJ/mol
# Density = 1.796542 g / cm^3
# Si number density = 18.006403 Si / 1000 Ang^3
#
#
#
# Elastic Constant Matrix: (Units=GPa)
#
#
# Indices 1 2 3 4 5 6 
#
# 1 102.1510 62.6351 62.6352 0.0000 0.0000 0.0000
# 2 62.6351 102.1510 62.6352 0.0000 0.0000 0.0000
# 3 62.6352 62.6352 102.1511 0.0000 0.0000 0.0000
# 4 0.0000 0.0000 0.0000 36.6600 0.0000 0.0000
# 5 0.0000 0.0000 0.0000 0.0000 36.6600 0.0000
# 6 0.0000 0.0000 0.0000 0.0000 0.0000 36.6602
#
#
#
# Elastic Compliance Matrix: (Units=1/GPa)
#
#
# Indices 1 2 3 4 5 6 
#
# 1 0.018337 -0.006970 -0.006970 0.000000 0.000000 0.000000
# 2 -0.006970 0.018337 -0.006970 0.000000 0.000000 0.000000
# 3 -0.006970 -0.006970 0.018337 0.000000 0.000000 0.000000
# 4 0.000000 0.000000 0.000000 0.027278 0.000000 0.000000
# 5 0.000000 0.000000 0.000000 0.000000 0.027278 0.000000
# 6 0.000000 0.000000 0.000000 0.000000 0.000000 0.027278
#
#
# Mechanical properties :
#
#
# Convention : Reuss Voigt Hill
#
# Bulk Modulus (GPa) = 75.80709 75.80709 75.80709
# Shear Modulus (GPa) = 27.31376 29.89924 28.60650
#
# Velocity S-wave (km/s) = 3.89895 4.07932 3.99015
# Velocity P-wave (km/s) = 7.90320 8.02367 7.96366
#
# Compressibility (1/GPa) = 0.01319138
#
# Stress axis : x y z
#
# Youngs Moduli (GPa) = 54.53585 54.53585 54.53591
#
# Poissons Ratio (x) = 0.38010 0.38010
# Poissons Ratio (y) = 0.38010 0.38010
# Poissons Ratio (z) = 0.38010 0.38010
#
# Static dielectric constant tensor:
#      x y z
#    x 3.392550 0.000000 0.000000 
#    y 0.000000 3.392550 0.000000 
#    z 0.000000 0.000000 3.392550 
# 
# 
# High freq. dielectric constant tensor:
#      x y z
#    x 1.696800 0.000000 0.000000 
#    y 0.000000 1.696800 0.000000 
#    z 0.000000 0.000000 1.696800 
# 
# From -- ./inp_files/506.got.cif
#   From: 2010.03.12/outbox.cif.g09.slc.cpg/sg218_cif.got.tgz:506.got - 2010.03.30 09:07:27.
