data_PCOD8331098
_publ_section_title
;
Structure prediction by ZEFSAII (Michael W. Deem and Ramdas Pophale) SiO2 
 PCOD8331098
Probable space group: I -4 3 D
;
_chemical_formula_sum "Si O2"
_cell_formula_units_Z 120
_cell_length_a 17.681111
_cell_length_b 17.681111
_cell_length_c 17.681111
_cell_angle_alpha 90.000000
_cell_angle_beta 90.000000
_cell_angle_gamma 90.000000
_cell_volume 5527.498735
_symmetry_space_group_name_H-M "I -4 3 D"
_symmetry_group_IT_number 220
_symmetry_cell_setting 'cubic'
loop_
_space_group_symop_operation_xyz
x,y,z
1/4+y,3/4-x,1/4-z
-x,1/2-y,z
1/4-y,1/4+x,3/4-z
1/4-x,1/4+z,3/4-y
x,-y,1/2-z
3/4-x,1/4-z,1/4+y
3/4-z,1/4-y,1/4+x
1/2-x,y,-z
1/4+z,3/4-y,1/4-x
z,x,y
y,z,x
-y,1/2-z,x
z,-x,1/2-y
1/2-y,z,-x
-z,1/2-x,y
1/2-z,x,-y
y,-z,1/2-x
3/4-y,1/4-x,1/4+z
1/4+y,1/4+x,1/4+z
1/4+x,3/4-z,1/4-y
1/4+x,1/4+z,1/4+y
1/4-z,1/4+y,3/4-x
1/4+z,1/4+y,1/4+x
1/2+x,1/2+y,1/2+z
3/4+y,1/4-x,3/4-z
1/2-x,-y,1/2+z
3/4-y,3/4+x,1/4-z
3/4-x,3/4+z,1/4-y
1/2+x,1/2-y,-z
1/4-x,3/4-z,3/4+y
1/4-z,3/4-y,3/4+x
-x,1/2+y,1/2-z
3/4+z,1/4-y,3/4-x
1/2+z,1/2+x,1/2+y
1/2+y,1/2+z,1/2+x
1/2-y,-z,1/2+x
1/2+z,1/2-x,-y
-y,1/2+z,1/2-x
1/2-z,-x,1/2+y
-z,1/2+x,1/2-y
1/2+y,1/2-z,-x
1/4-y,3/4-x,3/4+z
3/4+y,3/4+x,3/4+z
3/4+x,1/4-z,3/4-y
3/4+x,3/4+z,3/4+y
3/4-z,3/4+y,1/4-x
3/4+z,3/4+y,3/4+x
loop_
_atom_site_type_symbol
_atom_site_label
_atom_site_fract_x
_atom_site_fract_y
_atom_site_fract_z
Si Si1 0.170427 0.163189 0.424955
Si Si2 0.940827 0.000000 0.750000
Si Si3 0.131385 0.681718 0.044662
O O1 0.245160 0.122504 0.394078
O O2 0.190503 0.251985 0.433804
O O3 0.099065 0.159128 0.369605
O O4 0.888548 0.989088 0.676555
O O5 0.990659 0.928847 0.776053
#
# Coordination Sequence:
#
# PCOD8331098 Si02
#       3
#    48  24  48
#     4  11  24  47  72 103 143 190 245 300 374 454
#     4  12  26  47  75 110 150 190 254 306 389 448
#     4  12  25  47  73 107 146 192 244 312 372 456
#
# _framework density 21.709638000000002
#
# number of rings (size 3 to 8) (size 9 to 14) (size 15 to 20)
#    0.000    0.400    4.000    5.600    0.000    0.000 
#    2.400    0.000    0.000    0.000    0.000    0.000 
#    0.000    0.000    0.000    0.000    0.000    0.000 
#
# Total GULP energy -743568.466235 kJ/mol
# GULP energy per Si atom -12392.807771 kJ/mol
# Density = 2.166023 g / cm^3
# Si number density = 21.709638 Si / 1000 Ang^3
#
#
#
# Elastic Constant Matrix: (Units=GPa)
#
#
# Indices 1 2 3 4 5 6 
#
# 1 128.2845 53.5059 53.5059 0.0000 0.0000 0.0000
# 2 53.5059 128.2845 53.5059 0.0000 0.0000 0.0000
# 3 53.5059 53.5059 128.2844 0.0000 0.0000 0.0000
# 4 0.0000 0.0000 0.0000 39.0591 0.0000 0.0000
# 5 0.0000 0.0000 0.0000 0.0000 39.0591 0.0000
# 6 0.0000 0.0000 0.0000 0.0000 0.0000 39.0591
#
#
#
# Elastic Compliance Matrix: (Units=1/GPa)
#
#
# Indices 1 2 3 4 5 6 
#
# 1 0.010332 -0.003041 -0.003041 0.000000 0.000000 0.000000
# 2 -0.003041 0.010332 -0.003041 0.000000 0.000000 0.000000
# 3 -0.003041 -0.003041 0.010332 0.000000 0.000000 0.000000
# 4 0.000000 0.000000 0.000000 0.025602 0.000000 0.000000
# 5 0.000000 0.000000 0.000000 0.000000 0.025602 0.000000
# 6 0.000000 0.000000 0.000000 0.000000 0.000000 0.025602
#
#
# Mechanical properties :
#
#
# Convention : Reuss Voigt Hill
#
# Bulk Modulus (GPa) = 78.43211 78.43211 78.43211
# Shear Modulus (GPa) = 38.37357 38.39115 38.38236
#
# Velocity S-wave (km/s) = 4.20882 4.20979 4.20931
# Velocity P-wave (km/s) = 7.73467 7.73537 7.73502
#
# Compressibility (1/GPa) = 0.01274988
#
# Stress axis : x y z
#
# Youngs Moduli (GPa) = 96.78790 96.78790 96.78790
#
# Poissons Ratio (x) = 0.29433 0.29433
# Poissons Ratio (y) = 0.29433 0.29433
# Poissons Ratio (z) = 0.29433 0.29433
#
# Static dielectric constant tensor:
#      x y z
#    x 3.988310 0.000000 0.000000 
#    y 0.000000 3.988310 0.000000 
#    z 0.000000 0.000000 3.988310 
# 
# 
# High freq. dielectric constant tensor:
#      x y z
#    x 1.862540 0.000000 0.000000 
#    y 0.000000 1.862540 0.000000 
#    z 0.000000 0.000000 1.862540 
# 
# From -- ./inp_files/204.got.cif
#   From: 2010.03.12/outbox.cif.g09.slc.cpg/sg220_cif.got.tgz:204.got - 2010.03.30 09:07:51.
