data_PCOD8331034
_publ_section_title
;
Structure prediction by ZEFSAII (Michael W. Deem and Ramdas Pophale) SiO2 
 PCOD8331034
Probable space group: P -4 3 M
;
_chemical_formula_sum "Si O2"
_cell_formula_units_Z 132
_cell_length_a 20.519831
_cell_length_b 20.519831
_cell_length_c 20.519831
_cell_angle_alpha 90.000000
_cell_angle_beta 90.000000
_cell_angle_gamma 90.000000
_cell_volume 8640.151127
_symmetry_space_group_name_H-M "P -4 3 M"
_symmetry_group_IT_number 215
_symmetry_cell_setting 'cubic'
loop_
_space_group_symop_operation_xyz
x,y,z
y,-x,-z
-x,-y,z
-y,x,-z
-x,z,-y
x,-y,-z
-x,-z,y
-z,-y,x
-x,y,-z
z,-y,-x
z,x,y
y,z,x
-y,-z,x
z,-x,-y
-y,z,-x
-z,-x,y
-z,x,-y
y,-z,-x
-y,-x,z
y,x,z
x,-z,-y
x,z,y
-z,y,-x
z,y,x
loop_
_atom_site_type_symbol
_atom_site_label
_atom_site_fract_x
_atom_site_fract_y
_atom_site_fract_z
Si Si1 0.243147 0.857671 0.656374
Si Si2 0.500000 0.605413 0.000000
Si Si3 0.336455 0.445970 0.873315
Si Si4 0.053093 0.154906 0.418282
Si Si5 0.192563 0.088906 0.559783
Si Si6 0.437710 0.220891 0.329128
O O1 0.205864 0.794137 0.683141
O O2 0.287891 0.887540 0.712110
O O3 0.192198 0.913729 0.640808
O O4 0.285914 0.835326 0.594949
O O5 0.510345 0.648371 0.936303
O O6 0.562638 0.562638 0.016074
O O7 0.385511 0.385511 0.865350
O O8 0.264333 0.418009 0.888188
O O9 0.343452 0.489937 0.807739
O O10 0.079219 0.079219 0.419941
O O11 0.078003 0.191547 0.482623
O O12 0.976294 0.162699 0.407406
O O13 0.146556 0.146556 0.583261
O O14 0.443225 0.288956 0.288956
O O15 0.395459 0.233054 0.395459
#
# Coordination Sequence:
#
# PCOD8331034 Si02
#       6
#    24  12  24  24  24  24
#     4   9  16  26  43  67  94 118 141 172 216 274
#     4   9  18  30  42  62  92 119 146 182 224 277
#     4  11  21  31  46  67  91 123 160 194 237 288
#     4   9  17  29  46  67  89 118 154 189 225 269
#     4  10  19  32  45  61  88 118 154 196 234 266
#     4  10  19  32  50  70  92 117 147 187 239 298
#
# _framework density 15.277509999999999
#
# number of rings (size 3 to 8) (size 9 to 14) (size 15 to 20)
#    0.000    2.273    1.818    2.545    0.000    3.636 
#    0.000    1.818    0.000    2.909    0.000    0.000 
#    0.000    0.000    0.000    0.000    0.000    0.000 
#
# Total GULP energy -1635738.779515 kJ/mol
# GULP energy per Si atom -12391.960451 kJ/mol
# Density = 1.524274 g / cm^3
# Si number density = 15.277510 Si / 1000 Ang^3
#
#
#
# Elastic Constant Matrix: (Units=GPa)
#
#
# Indices 1 2 3 4 5 6 
#
# 1 82.6990 42.2512 42.2512 0.0000 0.0000 0.0000
# 2 42.2512 82.6990 42.2512 0.0000 0.0000 0.0000
# 3 42.2512 42.2512 82.6990 0.0000 0.0000 0.0000
# 4 0.0000 0.0000 0.0000 17.4391 0.0000 0.0000
# 5 0.0000 0.0000 0.0000 0.0000 17.4391 0.0000
# 6 0.0000 0.0000 0.0000 0.0000 0.0000 17.4391
#
#
#
# Elastic Compliance Matrix: (Units=1/GPa)
#
#
# Indices 1 2 3 4 5 6 
#
# 1 0.018476 -0.006247 -0.006247 0.000000 0.000000 0.000000
# 2 -0.006247 0.018476 -0.006247 0.000000 0.000000 0.000000
# 3 -0.006247 -0.006247 0.018476 0.000000 0.000000 0.000000
# 4 0.000000 0.000000 0.000000 0.057342 0.000000 0.000000
# 5 0.000000 0.000000 0.000000 0.000000 0.057342 0.000000
# 6 0.000000 0.000000 0.000000 0.000000 0.000000 0.057342
#
#
# Mechanical properties :
#
#
# Convention : Reuss Voigt Hill
#
# Bulk Modulus (GPa) = 55.73380 55.73380 55.73380
# Shear Modulus (GPa) = 18.45560 18.55299 18.50429
#
# Velocity S-wave (km/s) = 3.47943 3.48860 3.48402
# Velocity P-wave (km/s) = 7.25962 7.26549 7.26255
#
# Compressibility (1/GPa) = 0.01794243
#
# Stress axis : x y z
#
# Youngs Moduli (GPa) = 54.12492 54.12492 54.12492
#
# Poissons Ratio (x) = 0.33814 0.33814
# Poissons Ratio (y) = 0.33814 0.33814
# Poissons Ratio (z) = 0.33814 0.33814
#
# Static dielectric constant tensor:
#      x y z
#    x 2.936310 0.000000 0.000000 
#    y 0.000000 2.936310 0.000000 
#    z 0.000000 0.000000 2.936310 
# 
# 
# High freq. dielectric constant tensor:
#      x y z
#    x 1.570700 0.000000 0.000000 
#    y 0.000000 1.570700 0.000000 
#    z 0.000000 0.000000 1.570700 
# 
# From -- ./inp_files/777.got.cif
#   From: 2010.03.12/outbox.cif.g09.slc.cpg/sg215_cif.got.tgz:777.got - 2010.03.30 09:06:09.
