data_PCOD8331062
_publ_section_title
;
Structure prediction by ZEFSAII (Michael W. Deem and Ramdas Pophale) SiO2 
 PCOD8331062
Probable space group: P -4 3 N
;
_chemical_formula_sum "Si O2"
_cell_formula_units_Z 120
_cell_length_a 17.579471
_cell_length_b 17.579471
_cell_length_c 17.579471
_cell_angle_alpha 90.000000
_cell_angle_beta 90.000000
_cell_angle_gamma 90.000000
_cell_volume 5432.721054
_symmetry_space_group_name_H-M "P -4 3 N"
_symmetry_group_IT_number 218
_symmetry_cell_setting 'cubic'
loop_
_space_group_symop_operation_xyz
x,y,z
1/2+y,1/2-x,1/2-z
-x,-y,z
1/2-y,1/2+x,1/2-z
1/2-x,1/2+z,1/2-y
x,-y,-z
1/2-x,1/2-z,1/2+y
1/2-z,1/2-y,1/2+x
-x,y,-z
1/2+z,1/2-y,1/2-x
z,x,y
y,z,x
-y,-z,x
z,-x,-y
-y,z,-x
-z,-x,y
-z,x,-y
y,-z,-x
1/2-y,1/2-x,1/2+z
1/2+y,1/2+x,1/2+z
1/2+x,1/2-z,1/2-y
1/2+x,1/2+z,1/2+y
1/2-z,1/2+y,1/2-x
1/2+z,1/2+y,1/2+x
loop_
_atom_site_type_symbol
_atom_site_label
_atom_site_fract_x
_atom_site_fract_y
_atom_site_fract_z
Si Si1 0.397716 0.280688 0.964854
Si Si2 0.891418 0.660853 0.107716
Si Si3 0.512951 0.688751 0.245926
Si Si4 0.913784 0.758362 0.585831
Si Si5 0.879059 0.293856 0.052800
O O1 0.447672 0.213225 0.924153
O O2 0.417261 0.358960 0.920938
O O3 0.310088 0.255155 0.956878
O O4 0.798970 0.656030 0.106069
O O5 0.925857 0.726206 0.163365
O O6 0.921227 0.671280 0.021402
O O7 0.561972 0.612364 0.239000
O O8 0.520923 0.722702 0.329687
O O9 0.903579 0.782262 0.496993
O O10 0.906233 0.831021 0.639719
#
# Coordination Sequence:
#
# PCOD8331062 Si02
#       5
#    24  24  24  24  24
#     4   9  19  36  59  89 127 167 207 254 317 388
#     4  10  21  40  62  88 122 168 210 269 314 396
#     4  11  23  40  61  90 127 168 218 272 326 384
#     4   9  19  36  59  89 127 167 207 254 317 388
#     4  11  23  40  61  90 127 168 218 272 326 384
#
# _framework density 22.088377999999999
#
# number of rings (size 3 to 8) (size 9 to 14) (size 15 to 20)
#    0.000    2.000    2.000    1.000    2.800    1.600 
#    1.200    0.000    4.400    0.000    0.000    0.000 
#    0.000    0.000    0.000    0.000    0.000    0.000 
#
# Total GULP energy -1486732.914786 kJ/mol
# GULP energy per Si atom -12389.440957 kJ/mol
# Density = 2.203810 g / cm^3
# Si number density = 22.088378 Si / 1000 Ang^3
#
#
#
# Elastic Constant Matrix: (Units=GPa)
#
#
# Indices 1 2 3 4 5 6 
#
# 1 80.7951 35.5442 35.5442 0.0000 0.0000 0.0000
# 2 35.5442 80.7951 35.5442 0.0000 0.0000 0.0000
# 3 35.5442 35.5442 80.7951 0.0000 0.0000 0.0000
# 4 0.0000 0.0000 0.0000 31.4658 0.0000 0.0000
# 5 0.0000 0.0000 0.0000 0.0000 31.4658 0.0000
# 6 0.0000 0.0000 0.0000 0.0000 0.0000 31.4658
#
#
#
# Elastic Compliance Matrix: (Units=1/GPa)
#
#
# Indices 1 2 3 4 5 6 
#
# 1 0.016927 -0.005172 -0.005172 0.000000 0.000000 0.000000
# 2 -0.005172 0.016927 -0.005172 0.000000 0.000000 0.000000
# 3 -0.005172 -0.005172 0.016927 0.000000 0.000000 0.000000
# 4 0.000000 0.000000 0.000000 0.031781 0.000000 0.000000
# 5 0.000000 0.000000 0.000000 0.000000 0.031781 0.000000
# 6 0.000000 0.000000 0.000000 0.000000 0.000000 0.031781
#
#
# Mechanical properties :
#
#
# Convention : Reuss Voigt Hill
#
# Bulk Modulus (GPa) = 50.62780 50.62780 50.62780
# Shear Modulus (GPa) = 27.21273 27.92968 27.57120
#
# Velocity S-wave (km/s) = 3.51378 3.55977 3.53685
# Velocity P-wave (km/s) = 6.27953 6.31397 6.29678
#
# Compressibility (1/GPa) = 0.01975199
#
# Stress axis : x y z
#
# Youngs Moduli (GPa) = 59.07607 59.07607 59.07607
#
# Poissons Ratio (x) = 0.30552 0.30552
# Poissons Ratio (y) = 0.30552 0.30552
# Poissons Ratio (z) = 0.30552 0.30552
#
# Static dielectric constant tensor:
#      x y z
#    x 3.966940 0.000000 0.000000 
#    y 0.000000 3.966940 0.000000 
#    z 0.000000 0.000000 3.966940 
# 
# 
# High freq. dielectric constant tensor:
#      x y z
#    x 1.858310 0.000000 0.000000 
#    y 0.000000 1.858310 0.000000 
#    z 0.000000 0.000000 1.858310 
# 
# From -- ./inp_files/647.got.cif
#   From: 2010.03.12/outbox.cif.g09.slc.cpg/sg218_cif.got.tgz:647.got - 2010.03.30 09:07:27.
