data_PCOD8331103
_publ_section_title
;
Structure prediction by ZEFSAII (Michael W. Deem and Ramdas Pophale) SiO2 
 PCOD8331103
Probable space group: P M 3 M
;
_chemical_formula_sum "Si O2"
_cell_formula_units_Z 312
_cell_length_a 28.142508
_cell_length_b 28.142508
_cell_length_c 28.142508
_cell_angle_alpha 90.000000
_cell_angle_beta 90.000000
_cell_angle_gamma 90.000000
_cell_volume 22288.887627
_symmetry_space_group_name_H-M "P M 3 M"
_symmetry_group_IT_number 221
_symmetry_cell_setting 'cubic'
loop_
_space_group_symop_operation_xyz
x,y,z
-y,x,z
-x,-y,z
y,-x,z
x,-z,y
x,-y,-z
x,z,-y
z,y,-x
-x,y,-z
-z,y,x
z,x,y
y,z,x
-y,-z,x
z,-x,-y
-y,z,-x
-z,-x,y
-z,x,-y
y,-z,-x
y,x,-z
-y,-x,-z
-x,z,y
-x,-z,-y
z,-y,x
-z,-y,-x
-x,-y,-z
y,-x,-z
x,y,-z
-y,x,-z
-x,z,-y
-x,y,z
-x,-z,y
-z,-y,x
x,-y,z
z,-y,-x
-z,-x,-y
-y,-z,-x
y,z,-x
-z,x,y
y,-z,x
z,x,-y
z,-x,y
-y,z,x
-y,-x,z
y,x,z
x,-z,-y
x,z,y
-z,y,-x
z,y,x
loop_
_atom_site_type_symbol
_atom_site_label
_atom_site_fract_x
_atom_site_fract_y
_atom_site_fract_z
Si Si1 0.055268 0.787610 0.134148
Si Si2 0.725353 0.118992 0.802979
Si Si3 0.775687 0.625498 0.700008
Si Si4 0.121259 0.726491 0.649653
Si Si5 0.310728 0.092753 0.446842
Si Si6 0.446768 0.629322 0.815686
Si Si7 0.446681 0.631361 0.000000
O O1 0.061225 0.836410 0.163591
O O2 0.085614 0.792096 0.085614
O O3 0.074204 0.743452 0.165877
O O4 0.000000 0.778374 0.121555
O O5 0.714307 0.163426 0.836574
O O6 0.765778 0.134814 0.765778
O O7 0.677533 0.104811 0.774119
O O8 0.754763 0.667284 0.667284
O O9 0.738304 0.609018 0.738304
O O10 0.822106 0.644983 0.726592
O O11 0.784262 0.578995 0.668729
O O12 0.105177 0.679260 0.679260
O O13 0.100134 0.727030 0.596016
O O14 0.286656 0.094385 0.500000
O O15 0.353220 0.130368 0.444658
O O16 0.334697 0.043424 0.436154
O O17 0.500000 0.622977 0.796725
O O18 0.421376 0.578625 0.812042
O O19 0.500000 0.611550 0.000000
O O20 0.414238 0.585763 0.000000
#
# Coordination Sequence:
#
# PCOD8331103 Si02
#       7
#    48  48  48  48  48  48  24
#     4   9  17  29  44  63  88 116 146 176 207 240
#     4   9  16  26  41  60  83 109 135 165 200 237
#     4   9  16  25  38  55  75  97 122 151 183 220
#     4   9  16  26  39  57  79 102 129 161 195 230
#     4   9  17  29  41  53  72  97 124 154 190 232
#     4   9  17  28  40  53  71  93 118 151 186 221
#     4  10  18  27  40  54  68  90 120 154 193 233
#
# _framework density 13.998006
#
# number of rings (size 3 to 8) (size 9 to 14) (size 15 to 20)
#    0.000    2.923    0.000    3.231    0.000    1.923 
#    1.385    1.538    0.000    4.154    0.000    0.000 
#    0.000    0.000    0.000    4.769    0.000    0.462 
#
# Total GULP energy -3866951.937939 kJ/mol
# GULP energy per Si atom -12394.076724 kJ/mol
# Density = 1.396615 g / cm^3
# Si number density = 13.998006 Si / 1000 Ang^3
#
#
#
# Elastic Constant Matrix: (Units=GPa)
#
#
# Indices 1 2 3 4 5 6 
#
# 1 89.8198 44.3792 44.3792 0.0000 0.0000 0.0000
# 2 44.3792 89.8198 44.3792 0.0000 0.0000 0.0000
# 3 44.3792 44.3792 89.8198 0.0000 0.0000 0.0000
# 4 0.0000 0.0000 0.0000 17.9860 0.0000 0.0000
# 5 0.0000 0.0000 0.0000 0.0000 17.9860 0.0000
# 6 0.0000 0.0000 0.0000 0.0000 0.0000 17.9860
#
#
#
# Elastic Compliance Matrix: (Units=1/GPa)
#
#
# Indices 1 2 3 4 5 6 
#
# 1 0.016538 -0.005469 -0.005469 0.000000 0.000000 0.000000
# 2 -0.005469 0.016538 -0.005469 0.000000 0.000000 0.000000
# 3 -0.005469 -0.005469 0.016538 0.000000 0.000000 0.000000
# 4 0.000000 0.000000 0.000000 0.055599 0.000000 0.000000
# 5 0.000000 0.000000 0.000000 0.000000 0.055599 0.000000
# 6 0.000000 0.000000 0.000000 0.000000 0.000000 0.055599
#
#
# Mechanical properties :
#
#
# Convention : Reuss Voigt Hill
#
# Bulk Modulus (GPa) = 59.52604 59.52604 59.52604
# Shear Modulus (GPa) = 19.62141 19.87971 19.75056
#
# Velocity S-wave (km/s) = 3.74803 3.77262 3.76034
# Velocity P-wave (km/s) = 7.83245 7.84817 7.84032
#
# Compressibility (1/GPa) = 0.01679937
#
# Stress axis : x y z
#
# Youngs Moduli (GPa) = 60.46775 60.46775 60.46775
#
# Poissons Ratio (x) = 0.33070 0.33070
# Poissons Ratio (y) = 0.33070 0.33070
# Poissons Ratio (z) = 0.33070 0.33070
#
# Static dielectric constant tensor:
#      x y z
#    x 2.715250 0.000000 0.000000 
#    y 0.000000 2.715250 0.000000 
#    z 0.000000 0.000000 2.715250 
# 
# 
# High freq. dielectric constant tensor:
#      x y z
#    x 1.522910 0.000000 0.000000 
#    y 0.000000 1.522910 0.000000 
#    z 0.000000 0.000000 1.522910 
# 
# From -- ./inp_files/862.got.cif
#   From: 2010.03.12/outbox.cif.g09.slc.cpg/sg221_cif.got.tgz:862.got - 2010.03.30 09:08:03.
