data_PCOD8331054
_publ_section_title
;
Structure prediction by ZEFSAII (Michael W. Deem and Ramdas Pophale) SiO2 
 PCOD8331054
Probable space group: I -4 3 M 
;
_chemical_formula_sum "Si O2"
_cell_formula_units_Z 168
_cell_length_a 21.134590
_cell_length_b 21.134590
_cell_length_c 21.134590
_cell_angle_alpha 90.000000
_cell_angle_beta 90.000000
_cell_angle_gamma 90.000000
_cell_volume 9440.206220
_symmetry_space_group_name_H-M "I -4 3 M "
_symmetry_group_IT_number 217
_symmetry_cell_setting 'cubic'
loop_
_space_group_symop_operation_xyz
x,y,z
y,-x,-z
-x,-y,z
-y,x,-z
-x,z,-y
x,-y,-z
-x,-z,y
-z,-y,x
-x,y,-z
z,-y,-x
z,x,y
y,z,x
-y,-z,x
z,-x,-y
-y,z,-x
-z,-x,y
-z,x,-y
y,-z,-x
-y,-x,z
y,x,z
x,-z,-y
x,z,y
-z,y,-x
z,y,x
1/2+x,1/2+y,1/2+z
1/2+y,1/2-x,1/2-z
1/2-x,1/2-y,1/2+z
1/2-y,1/2+x,1/2-z
1/2-x,1/2+z,1/2-y
1/2+x,1/2-y,1/2-z
1/2-x,1/2-z,1/2+y
1/2-z,1/2-y,1/2+x
1/2-x,1/2+y,1/2-z
1/2+z,1/2-y,1/2-x
1/2+z,1/2+x,1/2+y
1/2+y,1/2+z,1/2+x
1/2-y,1/2-z,1/2+x
1/2+z,1/2-x,1/2-y
1/2-y,1/2+z,1/2-x
1/2-z,1/2-x,1/2+y
1/2-z,1/2+x,1/2-y
1/2+y,1/2-z,1/2-x
1/2-y,1/2-x,1/2+z
1/2+y,1/2+x,1/2+z
1/2+x,1/2-z,1/2-y
1/2+x,1/2+z,1/2+y
1/2-z,1/2+y,1/2-x
1/2+z,1/2+y,1/2+x
loop_
_atom_site_type_symbol
_atom_site_label
_atom_site_fract_x
_atom_site_fract_y
_atom_site_fract_z
Si Si1 0.356948 0.868585 0.538192
Si Si2 0.758518 0.140750 0.342599
Si Si3 0.929700 0.276797 0.826219
Si Si4 0.896105 0.500000 0.000000
O O1 0.420414 0.862038 0.579587
O O2 0.293960 0.869001 0.579847
O O3 0.357207 0.808551 0.491338
O O4 0.354906 0.935883 0.501937
O O5 0.807685 0.192316 0.315875
O O6 0.714676 0.118425 0.285325
O O7 0.718539 0.170210 0.399382
O O8 0.947659 0.214407 0.785594
O O9 0.880877 0.255985 0.880877
O O10 0.937240 0.494972 0.937240
#
# Coordination Sequence:
#
# PCOD8331054 Si02
#       4
#    48  48  48  24
#     4  10  20  33  51  75 100 129 165 205 250 296
#     4   9  18  32  50  72  98 127 158 194 239 290
#     4  10  20  34  52  73  99 132 169 208 249 296
#     4   9  18  32  47  66  96 130 161 193 234 286
#
# _framework density 17.796223000000001
#
# number of rings (size 3 to 8) (size 9 to 14) (size 15 to 20)
#    0.000    2.429    0.000    2.286    0.000    6.286 
#    0.000    5.714    0.000    0.571    0.000    0.000 
#    0.000    0.000    0.000    0.000    0.000    0.571 
#
# Total GULP energy -1041662.308275 kJ/mol
# GULP energy per Si atom -12400.741765 kJ/mol
# Density = 1.775572 g / cm^3
# Si number density = 17.796223 Si / 1000 Ang^3
#
#
#
# Elastic Constant Matrix: (Units=GPa)
#
#
# Indices 1 2 3 4 5 6 
#
# 1 85.5606 41.4169 41.4169 0.0000 0.0000 0.0000
# 2 41.4169 85.5606 41.4169 0.0000 0.0000 0.0000
# 3 41.4169 41.4169 85.5606 0.0000 0.0000 0.0000
# 4 0.0000 0.0000 0.0000 112.8181 0.0000 0.0000
# 5 0.0000 0.0000 0.0000 0.0000 112.8180 0.0000
# 6 0.0000 0.0000 0.0000 0.0000 0.0000 112.8180
#
#
#
# Elastic Compliance Matrix: (Units=1/GPa)
#
#
# Indices 1 2 3 4 5 6 
#
# 1 0.017082 -0.005572 -0.005572 0.000000 0.000000 0.000000
# 2 -0.005572 0.017082 -0.005572 0.000000 0.000000 0.000000
# 3 -0.005572 -0.005572 0.017082 0.000000 0.000000 0.000000
# 4 0.000000 0.000000 0.000000 0.008864 0.000000 0.000000
# 5 0.000000 0.000000 0.000000 0.000000 0.008864 0.000000
# 6 0.000000 0.000000 0.000000 0.000000 0.000000 0.008864
#
#
# Mechanical properties :
#
#
# Convention : Reuss Voigt Hill
#
# Bulk Modulus (GPa) = 56.13144 56.13144 56.13144
# Shear Modulus (GPa) = 42.66043 76.51956 59.59000
#
# Velocity S-wave (km/s) = 4.90139 6.56437 5.79287
# Velocity P-wave (km/s) = 7.97755 9.43739 8.73801
#
# Compressibility (1/GPa) = 0.01781533
#
# Stress axis : x y z
#
# Youngs Moduli (GPa) = 58.54229 58.54229 58.54229
#
# Poissons Ratio (x) = 0.32617 0.32617
# Poissons Ratio (y) = 0.32617 0.32617
# Poissons Ratio (z) = 0.32617 0.32617
#
# Static dielectric constant tensor:
#      x y z
#    x 3.007430 0.000000 0.000000 
#    y 0.000000 3.007430 0.000000 
#    z 0.000000 0.000000 3.007430 
# 
# 
# High freq. dielectric constant tensor:
#      x y z
#    x 1.684300 0.000000 0.000000 
#    y 0.000000 1.684300 0.000000 
#    z 0.000000 0.000000 1.684300 
# 
# From -- ./inp_files/434.got.cif
#   From: 2010.03.12/outbox.cif.g09.slc.cpg/sg217_cif.got.tgz:434.got - 2010.03.30 09:07:03.
