data_PCOD8331096
_publ_section_title
;
Structure prediction by ZEFSAII (Michael W. Deem and Ramdas Pophale) SiO2 
 PCOD8331096
Probable space group: I -4 3 D
;
_chemical_formula_sum "Si O2"
_cell_formula_units_Z 272
_cell_length_a 23.204366
_cell_length_b 23.204366
_cell_length_c 23.204366
_cell_angle_alpha 90.000000
_cell_angle_beta 90.000000
_cell_angle_gamma 90.000000
_cell_volume 12494.219194
_symmetry_space_group_name_H-M "I -4 3 D"
_symmetry_group_IT_number 220
_symmetry_cell_setting 'cubic'
loop_
_space_group_symop_operation_xyz
x,y,z
1/4+y,3/4-x,1/4-z
-x,1/2-y,z
1/4-y,1/4+x,3/4-z
1/4-x,1/4+z,3/4-y
x,-y,1/2-z
3/4-x,1/4-z,1/4+y
3/4-z,1/4-y,1/4+x
1/2-x,y,-z
1/4+z,3/4-y,1/4-x
z,x,y
y,z,x
-y,1/2-z,x
z,-x,1/2-y
1/2-y,z,-x
-z,1/2-x,y
1/2-z,x,-y
y,-z,1/2-x
3/4-y,1/4-x,1/4+z
1/4+y,1/4+x,1/4+z
1/4+x,3/4-z,1/4-y
1/4+x,1/4+z,1/4+y
1/4-z,1/4+y,3/4-x
1/4+z,1/4+y,1/4+x
1/2+x,1/2+y,1/2+z
3/4+y,1/4-x,3/4-z
1/2-x,-y,1/2+z
3/4-y,3/4+x,1/4-z
3/4-x,3/4+z,1/4-y
1/2+x,1/2-y,-z
1/4-x,3/4-z,3/4+y
1/4-z,3/4-y,3/4+x
-x,1/2+y,1/2-z
3/4+z,1/4-y,3/4-x
1/2+z,1/2+x,1/2+y
1/2+y,1/2+z,1/2+x
1/2-y,-z,1/2+x
1/2+z,1/2-x,-y
-y,1/2+z,1/2-x
1/2-z,-x,1/2+y
-z,1/2+x,1/2-y
1/2+y,1/2-z,-x
1/4-y,3/4-x,3/4+z
3/4+y,3/4+x,3/4+z
3/4+x,1/4-z,3/4-y
3/4+x,3/4+z,3/4+y
3/4-z,3/4+y,1/4-x
3/4+z,3/4+y,3/4+x
loop_
_atom_site_type_symbol
_atom_site_label
_atom_site_fract_x
_atom_site_fract_y
_atom_site_fract_z
Si Si1 0.504862 0.004862 0.495140
Si Si2 0.391180 0.143165 0.541115
Si Si3 0.618026 0.083101 0.602130
Si Si4 0.911836 0.903463 0.491428
Si Si5 0.810963 0.748071 0.024434
Si Si6 0.414948 0.585054 0.085054
Si Si7 0.933667 0.745940 0.376518
O O1 0.480389 0.039478 0.549240
O O2 0.545209 0.045209 0.454793
O O3 0.343137 0.112028 0.581403
O O4 0.406378 0.106678 0.484727
O O5 0.448560 0.142097 0.581982
O O6 0.365798 0.204739 0.519449
O O7 0.556073 0.113734 0.593095
O O8 0.662648 0.109066 0.558775
O O9 0.941817 0.841199 0.481672
O O10 0.750000 0.721722 0.000000
O O11 0.823052 0.804984 0.986300
O O12 0.353350 0.594684 0.053581
O O13 0.000000 0.750000 0.356727
#
# Coordination Sequence:
#
# PCOD8331096 Si02
#       7
#    16  48  48  48  48  16  48
#     4  12  21  39  70 104 139 183 241 305 355 453
#     4  11  24  40  70 100 135 187 232 297 368 427
#     4  11  24  41  68  99 142 178 245 296 365 439
#     4  11  21  42  66 104 137 184 237 303 359 435
#     4  10  25  46  68 101 150 186 241 306 369 441
#     4  12  24  45  76 104 148 198 250 299 397 453
#     4  11  25  48  71 103 146 190 246 303 367 456
#
# _framework density 21.770068999999999
#
# number of rings (size 3 to 8) (size 9 to 14) (size 15 to 20)
#    0.000    1.059    5.294    0.000    7.412    0.000 
#    0.000    2.647    0.000    0.000    0.000    0.000 
#    0.000    0.000    0.000    0.000    0.000    0.000 
#
# Total GULP energy -1684791.891536 kJ/mol
# GULP energy per Si atom -12388.175673 kJ/mol
# Density = 2.172052 g / cm^3
# Si number density = 21.770069 Si / 1000 Ang^3
#
#
#
# Elastic Constant Matrix: (Units=GPa)
#
#
# Indices 1 2 3 4 5 6 
#
# 1 102.7281 31.4329 31.4334 0.0000 0.0000 0.0000
# 2 31.4329 102.7281 31.4334 0.0000 0.0000 0.0000
# 3 31.4334 31.4334 102.7284 0.0000 0.0000 0.0000
# 4 0.0000 0.0000 0.0000 34.2754 0.0000 0.0000
# 5 0.0000 0.0000 0.0000 0.0000 34.2754 0.0000
# 6 0.0000 0.0000 0.0000 0.0000 0.0000 34.2751
#
#
#
# Elastic Compliance Matrix: (Units=1/GPa)
#
#
# Indices 1 2 3 4 5 6 
#
# 1 0.011364 -0.002662 -0.002662 0.000000 0.000000 0.000000
# 2 -0.002662 0.011364 -0.002662 0.000000 0.000000 0.000000
# 3 -0.002662 -0.002662 0.011364 0.000000 0.000000 0.000000
# 4 0.000000 0.000000 0.000000 0.029175 0.000000 0.000000
# 5 0.000000 0.000000 0.000000 0.000000 0.029175 0.000000
# 6 0.000000 0.000000 0.000000 0.000000 0.000000 0.029176
#
#
# Mechanical properties :
#
#
# Convention : Reuss Voigt Hill
#
# Bulk Modulus (GPa) = 55.19822 55.19822 55.19822
# Shear Modulus (GPa) = 34.81131 34.82419 34.81775
#
# Velocity S-wave (km/s) = 4.00314 4.00388 4.00351
# Velocity P-wave (km/s) = 6.83937 6.83995 6.83966
#
# Compressibility (1/GPa) = 0.01811653
#
# Stress axis : x y z
#
# Youngs Moduli (GPa) = 87.99901 87.99901 87.99899
#
# Poissons Ratio (x) = 0.23429 0.23430
# Poissons Ratio (y) = 0.23429 0.23430
# Poissons Ratio (z) = 0.23430 0.23430
#
# Static dielectric constant tensor:
#      x y z
#    x 4.045530 0.000000 0.000000 
#    y 0.000000 4.045530 0.000000 
#    z 0.000000 0.000000 4.045540 
# 
# 
# High freq. dielectric constant tensor:
#      x y z
#    x 1.854310 0.000000 0.000000 
#    y 0.000000 1.854310 0.000000 
#    z 0.000000 0.000000 1.854310 
# 
# From -- ./inp_files/521.got.cif
#   From: 2010.03.12/outbox.cif.g09.slc.cpg/sg220_cif.got.tgz:521.got - 2010.03.30 09:07:51.
