data_PCOD8331126
_publ_section_title
;
Structure prediction by ZEFSAII (Michael W. Deem and Ramdas Pophale) SiO2 
 PCOD8331126
Probable space group: P N 3 N
;
_chemical_formula_sum "Si O2"
_cell_formula_units_Z 352
_cell_length_a 26.942796
_cell_length_b 26.942796
_cell_length_c 26.942796
_cell_angle_alpha 90.000000
_cell_angle_beta 90.000000
_cell_angle_gamma 90.000000
_cell_volume 19558.159721
_symmetry_space_group_name_H-M "P N 3 N"
_symmetry_group_IT_number 222
_space_group.IT_coordinate_system_code '2'
_symmetry_cell_setting 'cubic'
loop_
_space_group_symop_operation_xyz
x,y,z
1/2-y,x,z
1/2-x,1/2-y,z
y,1/2-x,z
x,1/2-z,y
x,1/2-y,1/2-z
x,z,1/2-y
z,y,1/2-x
1/2-x,y,1/2-z
1/2-z,y,x
z,x,y
y,z,x
1/2-y,1/2-z,x
z,1/2-x,1/2-y
1/2-y,z,1/2-x
1/2-z,1/2-x,y
1/2-z,x,1/2-y
y,1/2-z,1/2-x
y,x,1/2-z
1/2-y,1/2-x,1/2-z
1/2-x,z,y
1/2-x,1/2-z,1/2-y
z,1/2-y,x
1/2-z,1/2-y,1/2-x
-x,-y,-z
1/2+y,-x,-z
1/2+x,1/2+y,-z
-y,1/2+x,-z
-x,1/2+z,-y
-x,1/2+y,1/2+z
-x,-z,1/2+y
-z,-y,1/2+x
1/2+x,-y,1/2+z
1/2+z,-y,-x
-z,-x,-y
-y,-z,-x
1/2+y,1/2+z,-x
-z,1/2+x,1/2+y
1/2+y,-z,1/2+x
1/2+z,1/2+x,-y
1/2+z,-x,1/2+y
-y,1/2+z,1/2+x
-y,-x,1/2+z
1/2+y,1/2+x,1/2+z
1/2+x,-z,-y
1/2+x,1/2+z,1/2+y
-z,1/2+y,-x
1/2+z,1/2+y,1/2+x
loop_
_atom_site_type_symbol
_atom_site_label
_atom_site_fract_x
_atom_site_fract_y
_atom_site_fract_z
Si Si1 0.837511 0.552872 0.303387
Si Si2 0.549882 0.395239 0.064543
Si Si3 0.398455 0.892346 0.216868
Si Si4 0.534564 0.534564 0.534564
Si Si5 0.874496 0.828528 0.395172
Si Si6 0.449891 0.696650 0.327296
Si Si7 0.422257 0.635467 0.036983
Si Si8 0.059364 0.498822 0.708853
O O1 0.845271 0.594133 0.346008
O O2 0.799991 0.509751 0.321310
O O3 0.818804 0.575392 0.250653
O O4 0.887753 0.526800 0.284212
O O5 0.495314 0.415761 0.050562
O O6 0.552417 0.349125 0.102479
O O7 0.581968 0.439278 0.088285
O O8 0.584999 0.375021 0.020585
O O9 0.352270 0.893566 0.179638
O O10 0.372396 0.898772 0.269770
O O11 0.424586 0.838730 0.213568
O O12 0.441102 0.934793 0.208781
O O13 0.500000 0.500000 0.500000
O O14 0.440981 0.674257 0.382544
O O15 0.478975 0.655354 0.040954
O O16 0.019546 0.480455 0.750000
#
# Coordination Sequence:
#
# PCOD8331126 Si02
#       8
#    48  48  48  16  48  48  48  48
#     4  11  21  35  58  82 117 149 184 249 295 358
#     4  12  22  36  53  83 119 150 183 217 273 357
#     4  11  26  41  59  81 107 149 195 246 289 344
#     4  12  24  33  54  87 120 153 180 201 273 360
#     4  12  25  43  58  79 111 151 202 245 294 332
#     4  11  21  36  55  88 113 147 194 236 307 345
#     4  12  19  32  55  81 116 151 177 223 277 355
#     4  11  20  34  58  87 112 143 183 221 294 356
#
# _framework density 17.997602000000001
#
# number of rings (size 3 to 8) (size 9 to 14) (size 15 to 20)
#    0.000    0.545    6.818    3.273    1.909    2.182 
#    0.000    0.000    0.000    0.000    0.000    1.909 
#    0.000    0.000    0.000    0.000    0.000    0.000 
#
# Total GULP energy -4360720.608066 kJ/mol
# GULP energy per Si atom -12388.410818 kJ/mol
# Density = 1.795664 g / cm^3
# Si number density = 17.997602 Si / 1000 Ang^3
#
#
#
# Elastic Constant Matrix: (Units=GPa)
#
#
# Indices 1 2 3 4 5 6 
#
# 1 90.6915 37.0345 37.0345 0.0000 0.0000 0.0000
# 2 37.0345 90.6915 37.0345 0.0000 0.0000 0.0000
# 3 37.0345 37.0345 90.6915 0.0000 0.0000 0.0000
# 4 0.0000 0.0000 0.0000 23.1121 0.0000 0.0000
# 5 0.0000 0.0000 0.0000 0.0000 23.1121 0.0000
# 6 0.0000 0.0000 0.0000 0.0000 0.0000 23.1121
#
#
#
# Elastic Compliance Matrix: (Units=1/GPa)
#
#
# Indices 1 2 3 4 5 6 
#
# 1 0.014448 -0.004189 -0.004189 0.000000 0.000000 0.000000
# 2 -0.004189 0.014448 -0.004189 0.000000 0.000000 0.000000
# 3 -0.004189 -0.004189 0.014448 0.000000 0.000000 0.000000
# 4 0.000000 0.000000 0.000000 0.043267 0.000000 0.000000
# 5 0.000000 0.000000 0.000000 0.000000 0.043267 0.000000
# 6 0.000000 0.000000 0.000000 0.000000 0.000000 0.043267
#
#
# Mechanical properties :
#
#
# Convention : Reuss Voigt Hill
#
# Bulk Modulus (GPa) = 54.92017 54.92017 54.92017
# Shear Modulus (GPa) = 24.46788 24.59867 24.53327
#
# Velocity S-wave (km/s) = 3.69115 3.70100 3.69608
# Velocity P-wave (km/s) = 6.98195 6.98890 6.98543
#
# Compressibility (1/GPa) = 0.01820825
#
# Stress axis : x y z
#
# Youngs Moduli (GPa) = 69.21492 69.21492 69.21492
#
# Poissons Ratio (x) = 0.28995 0.28995
# Poissons Ratio (y) = 0.28995 0.28995
# Poissons Ratio (z) = 0.28995 0.28995
#
# Static dielectric constant tensor:
#      x y z
#    x 3.329490 0.000000 0.000000 
#    y 0.000000 3.329490 0.000000 
#    z 0.000000 0.000000 3.329490 
# 
# 
# High freq. dielectric constant tensor:
#      x y z
#    x 1.679830 0.000000 0.000000 
#    y 0.000000 1.679830 0.000000 
#    z 0.000000 0.000000 1.679830 
# 
# From -- ./inp_files/588.got.cif
#   From: 2010.03.12/outbox.cif.g09.slc.cpg/sg222_cif.got.tgz:588.got - 2010.03.30 09:08:40.
