data_PCOD8331004
_publ_section_title
;
Structure prediction by ZEFSAII (Michael W. Deem and Ramdas Pophale) SiO2 
 PCOD8331004
Probable space group: P 43 3 2
;
_chemical_formula_sum "Si O2"
_cell_formula_units_Z 104
_cell_length_a 17.026824
_cell_length_b 17.026824
_cell_length_c 17.026824
_cell_angle_alpha 90.000000
_cell_angle_beta 90.000000
_cell_angle_gamma 90.000000
_cell_volume 4936.293123
_symmetry_space_group_name_H-M "P 43 3 2"
_symmetry_group_IT_number 212
_symmetry_cell_setting 'cubic'
loop_
_space_group_symop_operation_xyz
x,y,z
3/4-y,1/4+x,3/4+z
1/2-x,-y,1/2+z
3/4+y,3/4-x,1/4+z
3/4+x,3/4-z,1/4+y
1/2+x,1/2-y,-z
1/4+x,3/4+z,3/4-y
1/4+z,3/4+y,3/4-x
-x,1/2+y,1/2-z
3/4-z,1/4+y,3/4+x
z,x,y
y,z,x
1/2-y,-z,1/2+x
1/2+z,1/2-x,-y
-y,1/2+z,1/2-x
1/2-z,-x,1/2+y
-z,1/2+x,1/2-y
1/2+y,1/2-z,-x
1/4+y,3/4+x,3/4-z
1/4-y,1/4-x,1/4-z
3/4-x,1/4+z,3/4+y
1/4-x,1/4-z,1/4-y
3/4+z,3/4-y,1/4+x
1/4-z,1/4-y,1/4-x
loop_
_atom_site_type_symbol
_atom_site_label
_atom_site_fract_x
_atom_site_fract_y
_atom_site_fract_z
Si Si1 0.463122 0.185749 0.124644
Si Si2 0.522547 0.727454 0.125000
Si Si3 0.678955 0.321046 0.821047
Si Si4 0.725950 0.975449 0.418422
Si Si5 0.706052 0.456052 0.375000
Si Si6 0.369063 0.928224 0.806450
O O1 0.453609 0.274619 0.153931
O O2 0.449763 0.128497 0.197425
O O3 0.548454 0.172126 0.087407
O O4 0.394348 0.165902 0.061172
O O5 0.611873 0.740305 0.097712
O O6 0.503203 0.785911 0.195320
O O7 0.625000 0.375000 0.875000
O O8 0.689465 0.367577 0.739035
O O9 0.689860 0.547441 0.385589
O O10 0.375000 0.012610 0.762610
#
# Coordination Sequence:
#
# PCOD8331004 Si02
#       6
#    24  12   8  24  12  24
#     4  11  24  42  67  96 133 184 228 287 346 419
#     4  10  21  38  64  96 130 168 221 294 336 412
#     4   9  18  39  66  93 138 180 219 273 357 417
#     4  10  22  40  63  95 131 171 229 280 356 405
#     4  12  23  44  68  94 144 180 233 290 354 426
#     4  11  22  42  70  99 135 186 228 279 356 427
#
# _framework density 21.068442000000001
#
# number of rings (size 3 to 8) (size 9 to 14) (size 15 to 20)
#    0.000    1.385    5.769    1.154    0.000    6.462 
#    1.385    0.000    0.000    0.000    0.000    0.000 
#    0.000    0.000    0.000    0.000    0.000    0.000 
#
# Total GULP energy -1289700.011040 kJ/mol
# GULP energy per Si atom -12400.961645 kJ/mol
# Density = 2.102049 g / cm^3
# Si number density = 21.068442 Si / 1000 Ang^3
#
#
#
# Elastic Constant Matrix: (Units=GPa)
#
#
# Indices 1 2 3 4 5 6 
#
# 1 104.3164 27.3073 27.3077 0.0000 0.0000 0.0000
# 2 27.3073 104.3164 27.3077 0.0000 0.0000 0.0000
# 3 27.3077 27.3077 104.3168 0.0000 0.0000 0.0000
# 4 0.0000 0.0000 0.0000 24.9573 0.0000 0.0000
# 5 0.0000 0.0000 0.0000 0.0000 24.9573 0.0000
# 6 0.0000 0.0000 0.0000 0.0000 0.0000 24.9571
#
#
#
# Elastic Compliance Matrix: (Units=1/GPa)
#
#
# Indices 1 2 3 4 5 6 
#
# 1 0.010754 -0.002231 -0.002231 0.000000 0.000000 0.000000
# 2 -0.002231 0.010754 -0.002231 0.000000 0.000000 0.000000
# 3 -0.002231 -0.002231 0.010754 0.000000 0.000000 0.000000
# 4 0.000000 0.000000 0.000000 0.040069 0.000000 0.000000
# 5 0.000000 0.000000 0.000000 0.000000 0.040069 0.000000
# 6 0.000000 0.000000 0.000000 0.000000 0.000000 0.040069
#
#
# Mechanical properties :
#
#
# Convention : Reuss Voigt Hill
#
# Bulk Modulus (GPa) = 52.97724 52.97724 52.97724
# Shear Modulus (GPa) = 29.04482 30.37612 29.71047
#
# Velocity S-wave (km/s) = 3.71697 3.80120 3.75932
# Velocity P-wave (km/s) = 6.60462 6.66824 6.63651
#
# Compressibility (1/GPa) = 0.01887603
#
# Stress axis : x y z
#
# Youngs Moduli (GPa) = 92.98561 92.98561 92.98586
#
# Poissons Ratio (x) = 0.20746 0.20747
# Poissons Ratio (y) = 0.20746 0.20747
# Poissons Ratio (z) = 0.20747 0.20747
#
# Static dielectric constant tensor:
#      x y z
#    x 3.836020 0.000000 0.000000 
#    y 0.000000 3.836020 0.000000 
#    z 0.000000 0.000000 3.836020 
# 
# 
# High freq. dielectric constant tensor:
#      x y z
#    x 1.823750 0.000000 0.000000 
#    y 0.000000 1.823750 0.000000 
#    z 0.000000 0.000000 1.823750 
# 
# From -- ./inp_files/538.got.cif
#   From: 2010.03.12/outbox.cif.g09.slc.cpg/sg212_cif.got.tgz:538.got - 2010.03.30 09:05:11.
