data_PCOD8331168
_publ_section_title
;
Structure prediction by ZEFSAII (Michael W. Deem and Ramdas Pophale) SiO2 
 PCOD8331168
Probable space group: I A 3 D 
;
_chemical_formula_sum "Si O2"
_cell_formula_units_Z 248
_cell_length_a 22.819418
_cell_length_b 22.819418
_cell_length_c 22.819418
_cell_angle_alpha 90.000000
_cell_angle_beta 90.000000
_cell_angle_gamma 90.000000
_cell_volume 11882.660557
_symmetry_space_group_name_H-M "I A 3 D "
_symmetry_group_IT_number 230
_symmetry_cell_setting 'cubic'
loop_
_space_group_symop_operation_xyz
x,y,z
1/4-y,3/4+x,1/4+z
-x,1/2-y,z
1/4+y,1/4-x,3/4+z
1/4+x,1/4-z,3/4+y
x,-y,1/2-z
3/4+x,1/4+z,1/4-y
3/4+z,1/4+y,1/4-x
1/2-x,y,-z
1/4-z,3/4+y,1/4+x
z,x,y
y,z,x
-y,1/2-z,x
z,-x,1/2-y
1/2-y,z,-x
-z,1/2-x,y
1/2-z,x,-y
y,-z,1/2-x
3/4+y,1/4+x,1/4-z
1/4-y,1/4-x,1/4-z
1/4-x,3/4+z,1/4+y
1/4-x,1/4-z,1/4-y
1/4+z,1/4-y,3/4+x
1/4-z,1/4-y,1/4-x
-x,-y,-z
3/4+y,1/4-x,3/4-z
x,1/2+y,-z
3/4-y,3/4+x,1/4-z
3/4-x,3/4+z,1/4-y
-x,y,1/2+z
1/4-x,3/4-z,3/4+y
1/4-z,3/4-y,3/4+x
1/2+x,-y,z
3/4+z,1/4-y,3/4-x
-z,-x,-y
-y,-z,-x
y,1/2+z,-x
-z,x,1/2+y
1/2+y,-z,x
z,1/2+x,-y
1/2+z,-x,y
-y,z,1/2+x
1/4-y,3/4-x,3/4+z
3/4+y,3/4+x,3/4+z
3/4+x,1/4-z,3/4-y
3/4+x,3/4+z,3/4+y
3/4-z,3/4+y,1/4-x
3/4+z,3/4+y,3/4+x
1/2+x,1/2+y,1/2+z
3/4-y,1/4+x,3/4+z
1/2-x,-y,1/2+z
3/4+y,3/4-x,1/4+z
3/4+x,3/4-z,1/4+y
1/2+x,1/2-y,-z
1/4+x,3/4+z,3/4-y
1/4+z,3/4+y,3/4-x
-x,1/2+y,1/2-z
3/4-z,1/4+y,3/4+x
1/2+z,1/2+x,1/2+y
1/2+y,1/2+z,1/2+x
1/2-y,-z,1/2+x
1/2+z,1/2-x,-y
-y,1/2+z,1/2-x
1/2-z,-x,1/2+y
-z,1/2+x,1/2-y
1/2+y,1/2-z,-x
1/4+y,3/4+x,3/4-z
3/4-y,3/4-x,3/4-z
3/4-x,1/4+z,3/4+y
3/4-x,3/4-z,3/4-y
3/4+z,3/4-y,1/4+x
3/4-z,3/4-y,3/4-x
1/2-x,1/2-y,1/2-z
1/4+y,3/4-x,1/4-z
1/2+x,y,1/2-z
1/4-y,1/4+x,3/4-z
1/4-x,1/4+z,3/4-y
1/2-x,1/2+y,z
3/4-x,1/4-z,1/4+y
3/4-z,1/4-y,1/4+x
x,1/2-y,1/2+z
1/4+z,3/4-y,1/4-x
1/2-z,1/2-x,1/2-y
1/2-y,1/2-z,1/2-x
1/2+y,z,1/2-x
1/2-z,1/2+x,y
y,1/2-z,1/2+x
1/2+z,x,1/2-y
z,1/2-x,1/2+y
1/2-y,1/2+z,x
3/4-y,1/4-x,1/4+z
1/4+y,1/4+x,1/4+z
1/4+x,3/4-z,1/4-y
1/4+x,1/4+z,1/4+y
1/4-z,1/4+y,3/4-x
1/4+z,1/4+y,1/4+x
loop_
_atom_site_type_symbol
_atom_site_label
_atom_site_fract_x
_atom_site_fract_y
_atom_site_fract_z
Si Si1 0.665105 0.452115 0.434386
Si Si2 0.292399 0.707602 0.207603
Si Si3 0.000000 0.250000 0.875000
Si Si4 0.125751 0.578004 0.054383
O O1 0.702925 0.452925 0.375000
O O2 0.694474 0.415240 0.486354
O O3 0.602463 0.424702 0.422380
O O4 0.660640 0.518227 0.454761
O O5 0.250000 0.750000 0.250000
O O6 0.255000 0.665678 0.162996
O O7 0.176293 0.625000 0.073708
#
# Coordination Sequence:
#
# PCOD8331168 Si02
#       4
#    96  32  24  96
#     4  11  21  37  57  92 131 168 221 283 340 401
#     4  12  21  39  66  96 132 190 225 279 367 419
#     4  12  24  36  62  92 128 168 212 286 352 400
#     4  11  23  38  62  95 134 179 231 285 347 425
#
# _framework density 20.870747000000001
#
# number of rings (size 3 to 8) (size 9 to 14) (size 15 to 20)
#    0.000    0.774    7.742    0.000    5.419    0.000 
#    0.000    0.968    0.000    0.000    0.000    0.000 
#    0.000    0.000    0.000    0.000    0.000    0.000 
#
# Total GULP energy -1536220.588006 kJ/mol
# GULP energy per Si atom -12388.875710 kJ/mol
# Density = 2.082324 g / cm^3
# Si number density = 20.870747 Si / 1000 Ang^3
#
#
#
# Elastic Constant Matrix: (Units=GPa)
#
#
# Indices 1 2 3 4 5 6 
#
# 1 82.0026 49.7534 49.7542 0.0000 0.0000 0.0000
# 2 49.7534 82.0026 49.7542 0.0000 0.0000 0.0000
# 3 49.7542 49.7542 82.0010 0.0000 0.0000 0.0000
# 4 0.0000 0.0000 0.0000 38.7489 0.0000 0.0000
# 5 0.0000 0.0000 0.0000 0.0000 38.7489 0.0000
# 6 0.0000 0.0000 0.0000 0.0000 0.0000 38.7490
#
#
#
# Elastic Compliance Matrix: (Units=1/GPa)
#
#
# Indices 1 2 3 4 5 6 
#
# 1 0.022509 -0.008499 -0.008500 0.000000 0.000000 0.000000
# 2 -0.008499 0.022509 -0.008500 0.000000 0.000000 0.000000
# 3 -0.008500 -0.008500 0.022510 0.000000 0.000000 0.000000
# 4 0.000000 0.000000 0.000000 0.025807 0.000000 0.000000
# 5 0.000000 0.000000 0.000000 0.000000 0.025807 0.000000
# 6 0.000000 0.000000 0.000000 0.000000 0.000000 0.025807
#
#
# Mechanical properties :
#
#
# Convention : Reuss Voigt Hill
#
# Bulk Modulus (GPa) = 60.50330 60.50330 60.50330
# Shear Modulus (GPa) = 24.81886 29.69899 27.25892
#
# Velocity S-wave (km/s) = 3.45217 3.77635 3.61790
# Velocity P-wave (km/s) = 6.70391 6.93303 6.81944
#
# Compressibility (1/GPa) = 0.01652803
#
# Stress axis : x y z
#
# Youngs Moduli (GPa) = 44.42642 44.42642 44.42426
#
# Poissons Ratio (x) = 0.37760 0.37762
# Poissons Ratio (y) = 0.37760 0.37762
# Poissons Ratio (z) = 0.37764 0.37764
#
# Static dielectric constant tensor:
#      x y z
#    x 3.895350 0.000000 0.000000 
#    y 0.000000 3.895350 0.000000 
#    z 0.000000 0.000000 3.895340 
# 
# 
# High freq. dielectric constant tensor:
#      x y z
#    x 1.805650 0.000000 0.000000 
#    y 0.000000 1.805650 0.000000 
#    z 0.000000 0.000000 1.805650 
# 
# From -- ./inp_files/480.got.cif
#   From: 2010.03.12/outbox.cif.g09.slc.cpg/sg230_cif.got.tgz:480.got - 2010.03.30 09:10:43.
