data_PCOD8331122
_publ_section_title
;
Structure prediction by ZEFSAII (Michael W. Deem and Ramdas Pophale) SiO2 
 PCOD8331122
Probable space group: P M 3 M
;
_chemical_formula_sum "Si O2"
_cell_formula_units_Z 312
_cell_length_a 27.000000
_cell_length_b 27.000000
_cell_length_c 27.000000
_cell_angle_alpha 90.000000
_cell_angle_beta 90.000000
_cell_angle_gamma 90.000000
_cell_volume 19683.000000
_symmetry_space_group_name_H-M "P M 3 M"
_symmetry_group_IT_number 221
_symmetry_cell_setting 'cubic'
loop_
_space_group_symop_operation_xyz
x,y,z
-y,x,z
-x,-y,z
y,-x,z
x,-z,y
x,-y,-z
x,z,-y
z,y,-x
-x,y,-z
-z,y,x
z,x,y
y,z,x
-y,-z,x
z,-x,-y
-y,z,-x
-z,-x,y
-z,x,-y
y,-z,-x
y,x,-z
-y,-x,-z
-x,z,y
-x,-z,-y
z,-y,x
-z,-y,-x
-x,-y,-z
y,-x,-z
x,y,-z
-y,x,-z
-x,z,-y
-x,y,z
-x,-z,y
-z,-y,x
x,-y,z
z,-y,-x
-z,-x,-y
-y,-z,-x
y,z,-x
-z,x,y
y,-z,x
z,x,-y
z,-x,y
-y,z,x
-y,-x,z
y,x,z
x,-z,-y
x,z,y
-z,y,-x
z,y,x
loop_
_atom_site_type_symbol
_atom_site_label
_atom_site_fract_x
_atom_site_fract_y
_atom_site_fract_z
Si Si1 0.092102 0.711439 0.412418
Si Si2 0.000000 0.441956 0.356795
Si Si3 0.900069 0.554779 0.821815
Si Si4 0.556844 0.170912 0.364014
Si Si5 0.649561 0.056399 0.863652
Si Si6 0.942937 0.240223 0.683105
Si Si7 0.635604 0.285123 0.555978
O O1 0.047536 0.677608 0.432470
O O2 0.098642 0.762512 0.442219
O O3 0.142315 0.681079 0.418054
O O4 0.086221 0.724791 0.354861
O O5 0.000000 0.500000 0.374063
O O6 0.000000 0.404957 0.404957
O O7 0.917985 0.500000 0.836586
O O8 0.844786 0.564798 0.844786
O O9 0.938443 0.592441 0.847242
O O10 0.500000 0.154804 0.371247
O O11 0.584665 0.158487 0.415336
O O12 0.562578 0.228110 0.349938
O O13 0.664070 0.089657 0.910343
O O14 0.682648 0.074623 0.816808
O O15 0.660530 0.000000 0.878554
O O16 0.935127 0.261781 0.738220
O O17 0.000000 0.241977 0.666175
O O18 0.618829 0.296176 0.500000
O O19 0.683811 0.316190 0.571114
O O20 0.589977 0.301142 0.589977
#
# Coordination Sequence:
#
# PCOD8331122 Si02
#       7
#    48  24  48  48  48  48  48
#     4  11  20  32  48  69  89 112 146 194 235 282
#     4  12  24  35  48  66  90 122 161 203 247 297
#     4   9  18  31  46  66  91 117 147 186 233 279
#     4  10  20  32  45  62  84 111 143 177 214 259
#     4   9  18  30  44  66  92 121 155 187 220 266
#     4   9  16  29  49  69  88 112 144 188 237 276
#     4   9  18  32  50  71  93 117 144 174 210 254
#
# _framework density 15.851241999999999
#
# number of rings (size 3 to 8) (size 9 to 14) (size 15 to 20)
#    0.000    2.308    0.769    2.923    1.077    1.462 
#    0.000    3.077    0.000    2.154    0.000    2.154 
#    0.000    0.000    0.000    4.769    0.000    0.154 
#
# Total GULP energy -3867626.316463 kJ/mol
# GULP energy per Si atom -12396.238194 kJ/mol
# Density = 1.581516 g / cm^3
# Si number density = 15.851242 Si / 1000 Ang^3
#
#
#
# Elastic Constant Matrix: (Units=GPa)
#
#
# Indices 1 2 3 4 5 6 
#
# 1 81.2148 47.8443 47.8443 0.0000 0.0000 0.0000
# 2 47.8443 81.2148 47.8443 0.0000 0.0000 0.0000
# 3 47.8443 47.8443 81.2148 0.0000 0.0000 0.0000
# 4 0.0000 0.0000 0.0000 20.1857 0.0000 0.0000
# 5 0.0000 0.0000 0.0000 0.0000 20.1857 0.0000
# 6 0.0000 0.0000 0.0000 0.0000 0.0000 20.1857
#
#
#
# Elastic Compliance Matrix: (Units=1/GPa)
#
#
# Indices 1 2 3 4 5 6 
#
# 1 0.021862 -0.008105 -0.008105 0.000000 0.000000 0.000000
# 2 -0.008105 0.021862 -0.008105 0.000000 0.000000 0.000000
# 3 -0.008105 -0.008105 0.021862 0.000000 0.000000 0.000000
# 4 0.000000 0.000000 0.000000 0.049540 0.000000 0.000000
# 5 0.000000 0.000000 0.000000 0.000000 0.049540 0.000000
# 6 0.000000 0.000000 0.000000 0.000000 0.000000 0.049540
#
#
# Mechanical properties :
#
#
# Convention : Reuss Voigt Hill
#
# Bulk Modulus (GPa) = 58.96782 58.96782 58.96782
# Shear Modulus (GPa) = 18.62293 18.78554 18.70423
#
# Velocity S-wave (km/s) = 3.43134 3.44628 3.43882
# Velocity P-wave (km/s) = 7.27875 7.28816 7.28346
#
# Compressibility (1/GPa) = 0.01695840
#
# Stress axis : x y z
#
# Youngs Moduli (GPa) = 45.74146 45.74146 45.74146
#
# Poissons Ratio (x) = 0.37072 0.37072
# Poissons Ratio (y) = 0.37072 0.37072
# Poissons Ratio (z) = 0.37072 0.37072
#
# Static dielectric constant tensor:
#      x y z
#    x 3.027110 0.000000 0.000000 
#    y 0.000000 3.027110 0.000000 
#    z 0.000000 0.000000 3.027110 
# 
# 
# High freq. dielectric constant tensor:
#      x y z
#    x 1.600880 0.000000 0.000000 
#    y 0.000000 1.600880 0.000000 
#    z 0.000000 0.000000 1.600880 
# 
# From -- ./inp_files/828.got.cif
#   From: 2010.03.12/outbox.ucp.g09.slc.cvg/sg221_cif.got.tgz:828.got - 2010.05.04 20:51:01.
