data_PCOD8331090
_publ_section_title
;
Structure prediction by ZEFSAII (Michael W. Deem and Ramdas Pophale) SiO2 
 PCOD8331090
Probable space group: I -4 3 D
;
_chemical_formula_sum "Si O2"
_cell_formula_units_Z 224
_cell_length_a 22.918827
_cell_length_b 22.918827
_cell_length_c 22.918827
_cell_angle_alpha 90.000000
_cell_angle_beta 90.000000
_cell_angle_gamma 90.000000
_cell_volume 12038.632559
_symmetry_space_group_name_H-M "I -4 3 D"
_symmetry_group_IT_number 220
_symmetry_cell_setting 'cubic'
loop_
_space_group_symop_operation_xyz
x,y,z
1/4+y,3/4-x,1/4-z
-x,1/2-y,z
1/4-y,1/4+x,3/4-z
1/4-x,1/4+z,3/4-y
x,-y,1/2-z
3/4-x,1/4-z,1/4+y
3/4-z,1/4-y,1/4+x
1/2-x,y,-z
1/4+z,3/4-y,1/4-x
z,x,y
y,z,x
-y,1/2-z,x
z,-x,1/2-y
1/2-y,z,-x
-z,1/2-x,y
1/2-z,x,-y
y,-z,1/2-x
3/4-y,1/4-x,1/4+z
1/4+y,1/4+x,1/4+z
1/4+x,3/4-z,1/4-y
1/4+x,1/4+z,1/4+y
1/4-z,1/4+y,3/4-x
1/4+z,1/4+y,1/4+x
1/2+x,1/2+y,1/2+z
3/4+y,1/4-x,3/4-z
1/2-x,-y,1/2+z
3/4-y,3/4+x,1/4-z
3/4-x,3/4+z,1/4-y
1/2+x,1/2-y,-z
1/4-x,3/4-z,3/4+y
1/4-z,3/4-y,3/4+x
-x,1/2+y,1/2-z
3/4+z,1/4-y,3/4-x
1/2+z,1/2+x,1/2+y
1/2+y,1/2+z,1/2+x
1/2-y,-z,1/2+x
1/2+z,1/2-x,-y
-y,1/2+z,1/2-x
1/2-z,-x,1/2+y
-z,1/2+x,1/2-y
1/2+y,1/2-z,-x
1/4-y,3/4-x,3/4+z
3/4+y,3/4+x,3/4+z
3/4+x,1/4-z,3/4-y
3/4+x,3/4+z,3/4+y
3/4-z,3/4+y,1/4-x
3/4+z,3/4+y,3/4+x
loop_
_atom_site_type_symbol
_atom_site_label
_atom_site_fract_x
_atom_site_fract_y
_atom_site_fract_z
Si Si1 0.230537 0.324746 0.855889
Si Si2 0.730423 0.230423 0.269579
Si Si3 0.801152 0.044258 0.582949
Si Si4 0.900629 0.599372 0.400629
Si Si5 0.452459 0.170103 0.463989
Si Si6 0.898202 0.358025 0.325032
O O1 0.244942 0.303931 0.790152
O O2 0.192672 0.275196 0.887922
O O3 0.289289 0.338152 0.892311
O O4 0.192610 0.383060 0.858057
O O5 0.690476 0.190475 0.309526
O O6 0.808629 0.102580 0.620274
O O7 0.832634 0.052579 0.520827
O O8 0.734075 0.029670 0.573175
O O9 0.829372 0.990687 0.617976
O O10 0.416223 0.137141 0.414572
#
# Coordination Sequence:
#
# PCOD8331090 Si02
#       6
#    48  16  48  16  48  48
#     4  11  23  39  63  91 124 166 211 263 320 387
#     4  12  24  40  59  94 126 171 211 257 325 399
#     4  10  21  35  60  92 117 157 201 257 309 368
#     4  12  21  37  59  91 129 150 208 257 322 378
#     4  10  20  37  59  85 123 157 201 253 313 365
#     4  11  21  38  63  88 125 158 211 259 317 375
#
# _framework density 18.606763999999998
#
# number of rings (size 3 to 8) (size 9 to 14) (size 15 to 20)
#    0.000    1.286    4.286    2.571    0.000    2.143 
#    0.000    0.000    0.000    0.643    0.000    0.000 
#    0.000    0.000    0.000    0.000    0.000    0.000 
#
# Total GULP energy -1389238.823862 kJ/mol
# GULP energy per Si atom -12403.918070 kJ/mol
# Density = 1.856441 g / cm^3
# Si number density = 18.606764 Si / 1000 Ang^3
#
#
#
# Elastic Constant Matrix: (Units=GPa)
#
#
# Indices 1 2 3 4 5 6 
#
# 1 66.4581 18.2104 18.2103 0.0000 0.0000 0.0000
# 2 18.2104 66.4581 18.2103 0.0000 0.0000 0.0000
# 3 18.2103 18.2103 66.4577 0.0000 0.0000 0.0000
# 4 0.0000 0.0000 0.0000 31.3389 0.0000 0.0000
# 5 0.0000 0.0000 0.0000 0.0000 31.3389 0.0000
# 6 0.0000 0.0000 0.0000 0.0000 0.0000 31.3389
#
#
#
# Elastic Compliance Matrix: (Units=1/GPa)
#
#
# Indices 1 2 3 4 5 6 
#
# 1 0.017058 -0.003669 -0.003669 0.000000 0.000000 0.000000
# 2 -0.003669 0.017058 -0.003669 0.000000 0.000000 0.000000
# 3 -0.003669 -0.003669 0.017058 0.000000 0.000000 0.000000
# 4 0.000000 0.000000 0.000000 0.031909 0.000000 0.000000
# 5 0.000000 0.000000 0.000000 0.000000 0.031909 0.000000
# 6 0.000000 0.000000 0.000000 0.000000 0.000000 0.031909
#
#
# Mechanical properties :
#
#
# Convention : Reuss Voigt Hill
#
# Bulk Modulus (GPa) = 34.29288 34.29288 34.29288
# Shear Modulus (GPa) = 27.99030 28.45286 28.22158
#
# Velocity S-wave (km/s) = 3.88275 3.91470 3.89876
# Velocity P-wave (km/s) = 6.21058 6.23727 6.22394
#
# Compressibility (1/GPa) = 0.02916057
#
# Stress axis : x y z
#
# Youngs Moduli (GPa) = 58.62478 58.62478 58.62439
#
# Poissons Ratio (x) = 0.21508 0.21508
# Poissons Ratio (y) = 0.21508 0.21508
# Poissons Ratio (z) = 0.21508 0.21508
#
# Static dielectric constant tensor:
#      x y z
#    x 3.341630 0.000000 0.000000 
#    y 0.000000 3.341630 0.000000 
#    z 0.000000 0.000000 3.341630 
# 
# 
# High freq. dielectric constant tensor:
#      x y z
#    x 1.721330 0.000000 0.000000 
#    y 0.000000 1.721330 0.000000 
#    z 0.000000 0.000000 1.721330 
# 
# From -- ./inp_files/471.got.cif
#   From: 2010.03.12/outbox.cif.g09.slc.cpg/sg220_cif.got.tgz:471.got - 2010.03.30 09:07:51.
