data_PCOD8331083
_publ_section_title
;
Structure prediction by ZEFSAII (Michael W. Deem and Ramdas Pophale) SiO2 
 PCOD8331083
Probable space group: F -4 3 C
;
_chemical_formula_sum "Si O2"
_cell_formula_units_Z 280
_cell_length_a 21.917827
_cell_length_b 21.917827
_cell_length_c 21.917827
_cell_angle_alpha 90.000000
_cell_angle_beta 90.000000
_cell_angle_gamma 90.000000
_cell_volume 10529.129908
_symmetry_space_group_name_H-M "F -4 3 C"
_symmetry_group_IT_number 219
_symmetry_cell_setting 'cubic'
loop_
_space_group_symop_operation_xyz
x,y,z
y,-x,1/2-z
-x,-y,z
-y,x,1/2-z
-x,z,1/2-y
x,-y,-z
-x,-z,1/2+y
-z,-y,1/2+x
-x,y,-z
z,-y,1/2-x
z,x,y
y,z,x
-y,-z,x
z,-x,-y
-y,z,-x
-z,-x,y
-z,x,-y
y,-z,-x
-y,-x,1/2+z
y,x,1/2+z
x,-z,1/2-y
x,z,1/2+y
-z,y,1/2-x
z,y,1/2+x
x,1/2+y,1/2+z
y,1/2-x,-z
-x,1/2-y,1/2+z
-y,1/2+x,-z
-x,1/2+z,-y
x,1/2-y,1/2-z
-x,1/2-z,y
-z,1/2-y,x
-x,1/2+y,1/2-z
z,1/2-y,-x
z,1/2+x,1/2+y
y,1/2+z,1/2+x
-y,1/2-z,1/2+x
z,1/2-x,1/2-y
-y,1/2+z,1/2-x
-z,1/2-x,1/2+y
-z,1/2+x,1/2-y
y,1/2-z,1/2-x
-y,1/2-x,z
y,1/2+x,z
x,1/2-z,-y
x,1/2+z,y
-z,1/2+y,-x
z,1/2+y,x
1/2+x,y,1/2+z
1/2+y,-x,-z
1/2-x,-y,1/2+z
1/2-y,x,-z
1/2-x,z,-y
1/2+x,-y,1/2-z
1/2-x,-z,y
1/2-z,-y,x
1/2-x,y,1/2-z
1/2+z,-y,-x
1/2+z,x,1/2+y
1/2+y,z,1/2+x
1/2-y,-z,1/2+x
1/2+z,-x,1/2-y
1/2-y,z,1/2-x
1/2-z,-x,1/2+y
1/2-z,x,1/2-y
1/2+y,-z,1/2-x
1/2-y,-x,z
1/2+y,x,z
1/2+x,-z,-y
1/2+x,z,y
1/2-z,y,-x
1/2+z,y,x
1/2+x,1/2+y,z
1/2+y,1/2-x,1/2-z
1/2-x,1/2-y,z
1/2-y,1/2+x,1/2-z
1/2-x,1/2+z,1/2-y
1/2+x,1/2-y,-z
1/2-x,1/2-z,1/2+y
1/2-z,1/2-y,1/2+x
1/2-x,1/2+y,-z
1/2+z,1/2-y,1/2-x
1/2+z,1/2+x,y
1/2+y,1/2+z,x
1/2-y,1/2-z,x
1/2+z,1/2-x,-y
1/2-y,1/2+z,-x
1/2-z,1/2-x,y
1/2-z,1/2+x,-y
1/2+y,1/2-z,-x
1/2-y,1/2-x,1/2+z
1/2+y,1/2+x,1/2+z
1/2+x,1/2-z,1/2-y
1/2+x,1/2+z,1/2+y
1/2-z,1/2+y,1/2-x
1/2+z,1/2+y,1/2+x
loop_
_atom_site_type_symbol
_atom_site_label
_atom_site_fract_x
_atom_site_fract_y
_atom_site_fract_z
Si Si1 0.500000 0.750000 0.000000
Si Si2 0.906797 0.406798 0.593204
Si Si3 0.421022 0.817430 0.767637
Si Si4 0.176594 0.676594 0.676594
Si Si5 0.320959 0.114159 0.010713
O O1 0.550316 0.707543 0.966217
O O2 0.865090 0.365090 0.634912
O O3 0.898560 0.385482 0.523022
O O4 0.441797 0.750000 0.750000
O O5 0.350065 0.826679 0.745893
O O6 0.463575 0.860663 0.728205
O O7 0.431643 0.829676 0.840153
#
# Coordination Sequence:
#
# PCOD8331083 Si02
#       5
#    24  32  96  32  96
#     4  12  28  36  72 116 152 214 276 332 400 490
#     4   9  21  39  72  99 147 195 264 340 380 469
#     4  11  21  42  72 104 157 211 257 327 404 489
#     4   9  24  39  66 111 147 198 246 322 398 481
#     4  11  21  42  68 107 150 210 272 326 402 484
#
# _framework density 26.592891000000002
#
# number of rings (size 3 to 8) (size 9 to 14) (size 15 to 20)
#    0.000    1.371    3.429    2.057    9.600    0.000 
#    2.057    0.000    0.000    1.371    0.000    0.000 
#    0.000    0.000    0.000    0.000    0.000    0.000 
#
# Total GULP energy -867517.735021 kJ/mol
# GULP energy per Si atom -12393.110500 kJ/mol
# Density = 2.653236 g / cm^3
# Si number density = 26.592891 Si / 1000 Ang^3
#
#
#
# Elastic Constant Matrix: (Units=GPa)
#
#
# Indices 1 2 3 4 5 6 
#
# 1 120.7552 44.6818 44.6810 0.0000 0.0000 0.0000
# 2 44.6818 120.7552 44.6810 0.0000 0.0000 0.0000
# 3 44.6810 44.6810 120.7536 0.0000 0.0000 0.0000
# 4 0.0000 0.0000 0.0000 39.1615 0.0000 0.0000
# 5 0.0000 0.0000 0.0000 0.0000 39.1615 0.0000
# 6 0.0000 0.0000 0.0000 0.0000 0.0000 39.1624
#
#
#
# Elastic Compliance Matrix: (Units=1/GPa)
#
#
# Indices 1 2 3 4 5 6 
#
# 1 0.010350 -0.002795 -0.002795 0.000000 0.000000 0.000000
# 2 -0.002795 0.010350 -0.002795 0.000000 0.000000 0.000000
# 3 -0.002795 -0.002795 0.010350 0.000000 0.000000 0.000000
# 4 0.000000 0.000000 0.000000 0.025535 0.000000 0.000000
# 5 0.000000 0.000000 0.000000 0.000000 0.025535 0.000000
# 6 0.000000 0.000000 0.000000 0.000000 0.000000 0.025535
#
#
# Mechanical properties :
#
#
# Convention : Reuss Voigt Hill
#
# Bulk Modulus (GPa) = 70.03907 70.03907 70.03907
# Shear Modulus (GPa) = 38.70385 38.71175 38.70780
#
# Velocity S-wave (km/s) = 3.81914 3.81953 3.81933
# Velocity P-wave (km/s) = 6.77070 6.77100 6.77085
#
# Compressibility (1/GPa) = 0.01427775
#
# Stress axis : x y z
#
# Youngs Moduli (GPa) = 96.61977 96.61977 96.61884
#
# Poissons Ratio (x) = 0.27009 0.27008
# Poissons Ratio (y) = 0.27009 0.27008
# Poissons Ratio (z) = 0.27008 0.27008
#
# Static dielectric constant tensor:
#      x y z
#    x 4.831820 0.000000 0.000000 
#    y 0.000000 4.831820 0.000000 
#    z 0.000000 0.000000 4.831850 
# 
# 
# High freq. dielectric constant tensor:
#      x y z
#    x 2.056820 0.000000 0.000000 
#    y 0.000000 2.056820 0.000000 
#    z 0.000000 0.000000 2.056820 
# 
# From -- ./inp_files/425.got.cif
#   From: 2010.03.12/outbox.cif.g09.slc.cpg/sg219_cif.got.tgz:425.got - 2010.03.30 09:07:44.
