data_PCOD8331009
_publ_section_title
;
Structure prediction by ZEFSAII (Michael W. Deem and Ramdas Pophale) SiO2 
 PCOD8331009
Probable space group: P 43 3 2
;
_chemical_formula_sum "Si O2"
_cell_formula_units_Z 40
_cell_length_a 11.476643
_cell_length_b 11.476643
_cell_length_c 11.476643
_cell_angle_alpha 90.000000
_cell_angle_beta 90.000000
_cell_angle_gamma 90.000000
_cell_volume 1511.626919
_symmetry_space_group_name_H-M "P 43 3 2"
_symmetry_group_IT_number 212
_symmetry_cell_setting 'cubic'
loop_
_space_group_symop_operation_xyz
x,y,z
3/4-y,1/4+x,3/4+z
1/2-x,-y,1/2+z
3/4+y,3/4-x,1/4+z
3/4+x,3/4-z,1/4+y
1/2+x,1/2-y,-z
1/4+x,3/4+z,3/4-y
1/4+z,3/4+y,3/4-x
-x,1/2+y,1/2-z
3/4-z,1/4+y,3/4+x
z,x,y
y,z,x
1/2-y,-z,1/2+x
1/2+z,1/2-x,-y
-y,1/2+z,1/2-x
1/2-z,-x,1/2+y
-z,1/2+x,1/2-y
1/2+y,1/2-z,-x
1/4+y,3/4+x,3/4-z
1/4-y,1/4-x,1/4-z
3/4-x,1/4+z,3/4+y
1/4-x,1/4-z,1/4-y
3/4+z,3/4-y,1/4+x
1/4-z,1/4-y,1/4-x
loop_
_atom_site_type_symbol
_atom_site_label
_atom_site_fract_x
_atom_site_fract_y
_atom_site_fract_z
Si Si1 0.625000 0.703236 0.953233
Si Si2 0.046771 0.046770 0.046769
Si Si3 0.296771 0.203231 0.796771
O O1 0.500001 0.750002 0.004202
O O2 0.620938 0.567291 0.984824
O O3 0.629060 0.734830 0.817288
O O4 0.125000 0.125000 0.125000
O O5 0.375000 0.125000 0.875000
#
# Coordination Sequence:
#
# PCOD8331009 Si02
#       3
#    24   8   8
#     4  12  27  46  74 112 159 212 272 342 421 514
#     4  12  24  46  74 109 153 204 265 338 415 501
#     4  12  24  46  74 109 153 204 265 338 415 501
#
# _framework density 26.461554
#
# number of rings (size 3 to 8) (size 9 to 14) (size 15 to 20)
#    0.000    0.000    0.000   12.600    0.000    9.600 
#    0.000    0.000    0.000    0.000    0.000    0.000 
#    0.000    0.000    0.000    0.000    0.000    0.000 
#
# Total GULP energy -495564.406434 kJ/mol
# GULP energy per Si atom -12389.110161 kJ/mol
# Density = 2.640133 g / cm^3
# Si number density = 26.461554 Si / 1000 Ang^3
#
#
#
# Elastic Constant Matrix: (Units=GPa)
#
#
# Indices 1 2 3 4 5 6 
#
# 1 -38.0318 146.7159 146.7047 0.0000 0.0000 0.0000
# 2 146.7159 -38.0318 146.7047 0.0000 0.0000 0.0000
# 3 146.7047 146.7047 -38.0245 0.0000 0.0000 0.0000
# 4 0.0000 0.0000 0.0000 10.7781 0.0000 0.0000
# 5 0.0000 0.0000 0.0000 0.0000 10.7781 0.0000
# 6 0.0000 0.0000 0.0000 0.0000 0.0000 10.7800
#
#
#
# Elastic Compliance Matrix: (Units=1/GPa)
#
#
# Indices 1 2 3 4 5 6 
#
# 1 -0.002303 0.003109 0.003110 0.000000 0.000000 0.000000
# 2 0.003109 -0.002303 0.003110 0.000000 0.000000 0.000000
# 3 0.003110 0.003110 -0.002304 0.000000 0.000000 0.000000
# 4 0.000000 0.000000 0.000000 0.092781 0.000000 0.000000
# 5 0.000000 0.000000 0.000000 0.000000 0.092781 0.000000
# 6 0.000000 0.000000 0.000000 0.000000 0.000000 0.092765
#
#
# Mechanical properties :
#
#
# Convention : Reuss Voigt Hill
#
# Bulk Modulus (GPa) = 85.12915 85.12915 85.12915
# Shear Modulus (GPa) = 19.47997 -30.48033 -5.50018
#
# Velocity S-wave (km/s) = 2.71617 -3.39761 -1.44328
# Velocity P-wave (km/s) = 6.48672 4.10476 5.42801
#
# Compressibility (1/GPa) = 0.01174686
#
# Stress axis : x y z
#
# Youngs Moduli (GPa) = -434.14144 -434.14144 -434.07615
#
# Poissons Ratio (x) = 1.34991 1.34983
# Poissons Ratio (y) = 1.34991 1.34983
# Poissons Ratio (z) = 1.35003 1.35003
#
# Static dielectric constant tensor:
#      x y z
#    x 4.740380 0.000000 0.000000 
#    y 0.000000 4.740380 0.000000 
#    z 0.000000 0.000000 4.740370 
# 
# 
# High freq. dielectric constant tensor:
#      x y z
#    x 2.067110 0.000000 0.000000 
#    y 0.000000 2.067110 0.000000 
#    z 0.000000 0.000000 2.067110 
# 
# From -- ./inp_files/165.got.cif
#   From: 2010.03.12/outbox.cif.g09.slc.cpg/sg212_cif.got.tgz:165.got - 2010.03.30 09:05:11.
