data_PCOD8331072
_publ_section_title
;
Structure prediction by ZEFSAII (Michael W. Deem and Ramdas Pophale) SiO2 
 PCOD8331072
Probable space group: P -4 3 N
;
_chemical_formula_sum "Si O2"
_cell_formula_units_Z 118
_cell_length_a 17.948036
_cell_length_b 17.948036
_cell_length_c 17.948036
_cell_angle_alpha 90.000000
_cell_angle_beta 90.000000
_cell_angle_gamma 90.000000
_cell_volume 5781.636666
_symmetry_space_group_name_H-M "P -4 3 N"
_symmetry_group_IT_number 218
_symmetry_cell_setting 'cubic'
loop_
_space_group_symop_operation_xyz
x,y,z
1/2+y,1/2-x,1/2-z
-x,-y,z
1/2-y,1/2+x,1/2-z
1/2-x,1/2+z,1/2-y
x,-y,-z
1/2-x,1/2-z,1/2+y
1/2-z,1/2-y,1/2+x
-x,y,-z
1/2+z,1/2-y,1/2-x
z,x,y
y,z,x
-y,-z,x
z,-x,-y
-y,z,-x
-z,-x,y
-z,x,-y
y,-z,-x
1/2-y,1/2-x,1/2+z
1/2+y,1/2+x,1/2+z
1/2+x,1/2-z,1/2-y
1/2+x,1/2+z,1/2+y
1/2-z,1/2+y,1/2-x
1/2+z,1/2+y,1/2+x
loop_
_atom_site_type_symbol
_atom_site_label
_atom_site_fract_x
_atom_site_fract_y
_atom_site_fract_z
Si Si1 0.364923 0.186207 0.852686
Si Si2 0.554966 0.434286 0.241613
Si Si3 0.755414 0.755413 0.244588
Si Si4 0.642608 0.357393 0.357393
Si Si5 0.000000 0.750000 0.500000
Si Si6 0.516898 0.853605 0.336811
Si Si7 0.286209 0.768248 0.003736
O O1 0.306122 0.194905 0.785813
O O2 0.374819 0.098374 0.868192
O O3 0.337980 0.230093 0.924608
O O4 0.441649 0.224528 0.831568
O O5 0.500000 0.500000 0.266654
O O6 0.613880 0.426918 0.308903
O O7 0.595416 0.460866 0.165502
O O8 0.517747 0.353494 0.231972
O O9 0.806295 0.806294 0.193707
O O10 0.074071 0.702860 0.481909
O O11 0.522267 0.779582 0.286845
#
# Coordination Sequence:
#
# PCOD8331072 Si02
#       7
#    24  24   8   8   6  24  24
#     4  12  25  42  68 102 136 180 234 293 347 428
#     4  12  25  44  69 101 143 189 237 296 369 435
#     4  12  21  39  75  99 124 173 241 291 333 405
#     4  12  24  45  72 102 142 188 238 303 354 438
#     4  12  28  44  66 108 140 176 240 318 376 428
#     4  12  25  45  69 102 138 186 235 304 363 433
#     4  12  26  42  69 102 140 181 238 289 360 432
#
# _framework density 20.409444000000001
#
# number of rings (size 3 to 8) (size 9 to 14) (size 15 to 20)
#    0.000    0.000   10.169    0.000    2.847    0.407 
#    1.220    2.542    0.000    0.000    0.000    0.000 
#    0.000    0.000    0.000    0.000    0.000    0.000 
#
# Total GULP energy -1463344.337700 kJ/mol
# GULP energy per Si atom -12401.223201 kJ/mol
# Density = 2.036299 g / cm^3
# Si number density = 20.409444 Si / 1000 Ang^3
#
#
#
# Elastic Constant Matrix: (Units=GPa)
#
#
# Indices 1 2 3 4 5 6 
#
# 1 106.2042 29.2381 29.2359 0.0000 0.0000 0.0000
# 2 29.2381 106.2042 29.2359 0.0000 0.0000 0.0000
# 3 29.2359 29.2359 106.2069 0.0000 0.0000 0.0000
# 4 0.0000 0.0000 0.0000 16.6297 0.0000 0.0000
# 5 0.0000 0.0000 0.0000 0.0000 16.6297 0.0000
# 6 0.0000 0.0000 0.0000 0.0000 0.0000 16.6179
#
#
#
# Elastic Compliance Matrix: (Units=1/GPa)
#
#
# Indices 1 2 3 4 5 6 
#
# 1 0.010686 -0.002307 -0.002306 0.000000 0.000000 0.000000
# 2 -0.002307 0.010686 -0.002306 0.000000 0.000000 0.000000
# 3 -0.002306 -0.002306 0.010685 0.000000 0.000000 0.000000
# 4 0.000000 0.000000 0.000000 0.060133 0.000000 0.000000
# 5 0.000000 0.000000 0.000000 0.000000 0.060133 0.000000
# 6 0.000000 0.000000 0.000000 0.000000 0.000000 0.060176
#
#
# Mechanical properties :
#
#
# Convention : Reuss Voigt Hill
#
# Bulk Modulus (GPa) = 54.89277 54.89277 54.89277
# Shear Modulus (GPa) = 21.51352 25.36917 23.44134
#
# Velocity S-wave (km/s) = 3.25021 3.52946 3.39271
# Velocity P-wave (km/s) = 6.40619 6.60027 6.50396
#
# Compressibility (1/GPa) = 0.01821734
#
# Stress axis : x y z
#
# Youngs Moduli (GPa) = 93.58181 93.58181 93.58547
#
# Poissons Ratio (x) = 0.21588 0.21585
# Poissons Ratio (y) = 0.21588 0.21585
# Poissons Ratio (z) = 0.21585 0.21585
#
# Static dielectric constant tensor:
#      x y z
#    x 3.947630 0.000000 0.000000 
#    y 0.000000 3.947630 0.000000 
#    z 0.000000 0.000000 3.947680 
# 
# 
# High freq. dielectric constant tensor:
#      x y z
#    x 1.802570 0.000000 0.000000 
#    y 0.000000 1.802570 0.000000 
#    z 0.000000 0.000000 1.802570 
# 
# From -- ./inp_files/685.got.cif
#   From: 2010.03.12/outbox.cif.g09.slc.cpg/sg218_cif.got.tgz:685.got - 2010.03.30 09:07:27.
