data_PCOD8331067
_publ_section_title
;
Structure prediction by ZEFSAII (Michael W. Deem and Ramdas Pophale) SiO2 
 PCOD8331067
Probable space group: P -4 3 N
;
_chemical_formula_sum "Si O2"
_cell_formula_units_Z 118
_cell_length_a 17.528254
_cell_length_b 17.528254
_cell_length_c 17.528254
_cell_angle_alpha 90.000000
_cell_angle_beta 90.000000
_cell_angle_gamma 90.000000
_cell_volume 5385.375295
_symmetry_space_group_name_H-M "P -4 3 N"
_symmetry_group_IT_number 218
_symmetry_cell_setting 'cubic'
loop_
_space_group_symop_operation_xyz
x,y,z
1/2+y,1/2-x,1/2-z
-x,-y,z
1/2-y,1/2+x,1/2-z
1/2-x,1/2+z,1/2-y
x,-y,-z
1/2-x,1/2-z,1/2+y
1/2-z,1/2-y,1/2+x
-x,y,-z
1/2+z,1/2-y,1/2-x
z,x,y
y,z,x
-y,-z,x
z,-x,-y
-y,z,-x
-z,-x,y
-z,x,-y
y,-z,-x
1/2-y,1/2-x,1/2+z
1/2+y,1/2+x,1/2+z
1/2+x,1/2-z,1/2-y
1/2+x,1/2+z,1/2+y
1/2-z,1/2+y,1/2-x
1/2+z,1/2+y,1/2+x
loop_
_atom_site_type_symbol
_atom_site_label
_atom_site_fract_x
_atom_site_fract_y
_atom_site_fract_z
Si Si1 0.670295 0.670295 0.329707
Si Si2 0.500000 0.000000 0.750000
Si Si3 0.078620 0.039153 0.271591
Si Si4 0.324675 0.509162 0.716405
Si Si5 0.648355 0.793297 0.108032
Si Si6 0.499092 0.830166 0.194497
Si Si7 0.225855 0.774146 0.774147
O O1 0.646292 0.596261 0.279952
O O2 0.722171 0.722170 0.277831
O O3 0.488479 0.077395 0.801078
O O4 0.136351 0.991532 0.219760
O O5 0.051939 0.108382 0.217766
O O6 0.128485 0.058547 0.347690
O O7 0.000000 0.000000 0.299566
O O8 0.277087 0.489546 0.792902
O O9 0.582496 0.804345 0.168500
O O10 0.637848 0.713320 0.060980
O O11 0.731813 0.790500 0.146683
#
# Coordination Sequence:
#
# PCOD8331067 Si02
#       7
#     8   6  24  24  24  24   8
#     4  12  21  33  69  96 130 182 229 276 339 417
#     4  12  24  44  72 118 128 180 240 322 344 420
#     4  11  22  38  63  95 136 176 225 278 346 417
#     4  11  22  40  62  98 135 181 224 282 342 418
#     4  11  24  44  68 100 134 183 222 294 345 425
#     4  11  25  44  70  97 141 174 234 289 357 408
#     4  12  21  42  72 102 124 176 241 270 354 402
#
# _framework density 21.911192
#
# number of rings (size 3 to 8) (size 9 to 14) (size 15 to 20)
#    0.000    0.814    4.068    5.288    0.000    0.407 
#    7.322    0.000    0.000    0.000    0.000    0.000 
#    0.000    0.000    0.000    0.000    0.000    0.000 
#
# Total GULP energy -1461888.228246 kJ/mol
# GULP energy per Si atom -12388.883290 kJ/mol
# Density = 2.186132 g / cm^3
# Si number density = 21.911192 Si / 1000 Ang^3
#
#
#
# Elastic Constant Matrix: (Units=GPa)
#
#
# Indices 1 2 3 4 5 6 
#
# 1 93.8670 31.5740 31.5764 0.0000 0.0000 0.0000
# 2 31.5740 93.8670 31.5764 0.0000 0.0000 0.0000
# 3 31.5764 31.5764 93.8671 0.0000 0.0000 0.0000
# 4 0.0000 0.0000 0.0000 24.7611 0.0000 0.0000
# 5 0.0000 0.0000 0.0000 0.0000 24.7611 0.0000
# 6 0.0000 0.0000 0.0000 0.0000 0.0000 24.7614
#
#
#
# Elastic Compliance Matrix: (Units=1/GPa)
#
#
# Indices 1 2 3 4 5 6 
#
# 1 0.012825 -0.003228 -0.003228 0.000000 0.000000 0.000000
# 2 -0.003228 0.012825 -0.003228 0.000000 0.000000 0.000000
# 3 -0.003228 -0.003228 0.012825 0.000000 0.000000 0.000000
# 4 0.000000 0.000000 0.000000 0.040386 0.000000 0.000000
# 5 0.000000 0.000000 0.000000 0.000000 0.040386 0.000000
# 6 0.000000 0.000000 0.000000 0.000000 0.000000 0.040385
#
#
# Mechanical properties :
#
#
# Convention : Reuss Voigt Hill
#
# Bulk Modulus (GPa) = 52.33942 52.33942 52.33942
# Shear Modulus (GPa) = 26.97285 27.31500 27.14393
#
# Velocity S-wave (km/s) = 3.51238 3.53459 3.52350
# Velocity P-wave (km/s) = 6.35516 6.37155 6.36336
#
# Compressibility (1/GPa) = 0.01910606
#
# Stress axis : x y z
#
# Youngs Moduli (GPa) = 77.97148 77.97148 77.97002
#
# Poissons Ratio (x) = 0.25169 0.25172
# Poissons Ratio (y) = 0.25169 0.25172
# Poissons Ratio (z) = 0.25173 0.25173
#
# Static dielectric constant tensor:
#      x y z
#    x 4.050330 0.000000 0.000000 
#    y 0.000000 4.050330 0.000000 
#    z 0.000000 0.000000 4.050320 
# 
# 
# High freq. dielectric constant tensor:
#      x y z
#    x 1.859400 0.000000 0.000000 
#    y 0.000000 1.859400 0.000000 
#    z 0.000000 0.000000 1.859390 
# 
# From -- ./inp_files/684.got.cif
#   From: 2010.03.12/outbox.cif.g09.slc.cpg/sg218_cif.got.tgz:684.got - 2010.03.30 09:07:27.
