data_PCOD8331117
_publ_section_title
;
Structure prediction by ZEFSAII (Michael W. Deem and Ramdas Pophale) SiO2 
 PCOD8331117
Probable space group: P M 3 M
;
_chemical_formula_sum "Si O2"
_cell_formula_units_Z 168
_cell_length_a 21.074926
_cell_length_b 21.074926
_cell_length_c 21.074926
_cell_angle_alpha 90.000000
_cell_angle_beta 90.000000
_cell_angle_gamma 90.000000
_cell_volume 9360.481195
_symmetry_space_group_name_H-M "P M 3 M"
_symmetry_group_IT_number 221
_symmetry_cell_setting 'cubic'
loop_
_space_group_symop_operation_xyz
x,y,z
-y,x,z
-x,-y,z
y,-x,z
x,-z,y
x,-y,-z
x,z,-y
z,y,-x
-x,y,-z
-z,y,x
z,x,y
y,z,x
-y,-z,x
z,-x,-y
-y,z,-x
-z,-x,y
-z,x,-y
y,-z,-x
y,x,-z
-y,-x,-z
-x,z,y
-x,-z,-y
z,-y,x
-z,-y,-x
-x,-y,-z
y,-x,-z
x,y,-z
-y,x,-z
-x,z,-y
-x,y,z
-x,-z,y
-z,-y,x
x,-y,z
z,-y,-x
-z,-x,-y
-y,-z,-x
y,z,-x
-z,x,y
y,-z,x
z,x,-y
z,-x,y
-y,z,x
-y,-x,z
y,x,z
x,-z,-y
x,z,y
-z,y,-x
z,y,x
loop_
_atom_site_type_symbol
_atom_site_label
_atom_site_fract_x
_atom_site_fract_y
_atom_site_fract_z
Si Si1 0.170848 0.699803 0.500000
Si Si2 0.838668 0.639509 0.740478
Si Si3 0.500000 0.394475 0.710576
Si Si4 0.074255 0.400929 0.500000
Si Si5 0.282050 0.926602 0.177945
O O1 0.171122 0.740931 0.563722
O O2 0.228643 0.650736 0.500000
O O3 0.102564 0.667831 0.500000
O O4 0.838809 0.669654 0.669654
O O5 0.779264 0.668672 0.779264
O O6 0.902409 0.659356 0.778194
O O7 0.562882 0.437119 0.711777
O O8 0.500000 0.353333 0.646668
O O9 0.098205 0.437995 0.437995
O O10 0.000000 0.394912 0.500000
O O11 0.277316 0.887444 0.112557
O O12 0.216663 0.917920 0.216663
O O13 0.294582 0.000000 0.161200
#
# Coordination Sequence:
#
# PCOD8331117 Si02
#       5
#    24  48  24  24  48
#     4  12  22  32  50  75  97 123 161 211 263 303
#     4  10  20  34  51  71  98 131 166 204 250 305
#     4  11  23  38  55  74  98 128 165 210 262 323
#     4   9  18  32  47  63  87 118 148 181 230 294
#     4   9  18  33  54  80 109 141 175 210 248 291
#
# _framework density 17.947793999999998
#
# number of rings (size 3 to 8) (size 9 to 14) (size 15 to 20)
#    0.000    2.000    0.000    5.143    0.000    4.857 
#    0.000    5.714    0.000    1.143    0.000    0.000 
#    0.000    4.571    0.000    8.857    0.000    0.000 
#
# Total GULP energy -2082307.874112 kJ/mol
# GULP energy per Si atom -12394.689727 kJ/mol
# Density = 1.790694 g / cm^3
# Si number density = 17.947794 Si / 1000 Ang^3
#
#
#
# Elastic Constant Matrix: (Units=GPa)
#
#
# Indices 1 2 3 4 5 6 
#
# 1 110.5720 49.2845 49.2845 0.0000 0.0000 0.0000
# 2 49.2845 110.5720 49.2845 0.0000 0.0000 0.0000
# 3 49.2845 49.2845 110.5720 0.0000 0.0000 0.0000
# 4 0.0000 0.0000 0.0000 25.7328 0.0000 0.0000
# 5 0.0000 0.0000 0.0000 0.0000 25.7328 0.0000
# 6 0.0000 0.0000 0.0000 0.0000 0.0000 25.7328
#
#
#
# Elastic Compliance Matrix: (Units=1/GPa)
#
#
# Indices 1 2 3 4 5 6 
#
# 1 0.012472 -0.003845 -0.003845 0.000000 0.000000 0.000000
# 2 -0.003845 0.012472 -0.003845 0.000000 0.000000 0.000000
# 3 -0.003845 -0.003845 0.012472 0.000000 0.000000 0.000000
# 4 0.000000 0.000000 0.000000 0.038861 0.000000 0.000000
# 5 0.000000 0.000000 0.000000 0.000000 0.038861 0.000000
# 6 0.000000 0.000000 0.000000 0.000000 0.000000 0.038861
#
#
# Mechanical properties :
#
#
# Convention : Reuss Voigt Hill
#
# Bulk Modulus (GPa) = 69.71366 69.71366 69.71366
# Shear Modulus (GPa) = 27.49537 27.69719 27.59628
#
# Velocity S-wave (km/s) = 3.91828 3.93263 3.92546
# Velocity P-wave (km/s) = 7.70697 7.71671 7.71184
#
# Compressibility (1/GPa) = 0.01434439
#
# Stress axis : x y z
#
# Youngs Moduli (GPa) = 80.18272 80.18272 80.18272
#
# Poissons Ratio (x) = 0.30830 0.30830
# Poissons Ratio (y) = 0.30830 0.30830
# Poissons Ratio (z) = 0.30830 0.30830
#
# Static dielectric constant tensor:
#      x y z
#    x 3.393030 0.000000 0.000000 
#    y 0.000000 3.393030 0.000000 
#    z 0.000000 0.000000 3.393030 
# 
# 
# High freq. dielectric constant tensor:
#      x y z
#    x 1.692090 0.000000 0.000000 
#    y 0.000000 1.692090 0.000000 
#    z 0.000000 0.000000 1.692090 
# 
# From -- ./inp_files/422.got.cif
#   From: 2010.03.12/outbox.cif.g09.slc.cpg/sg221_cif.got.tgz:422.got - 2010.03.30 09:08:03.
