data_PCOD8331031
_publ_section_title
;
Structure prediction by ZEFSAII (Michael W. Deem and Ramdas Pophale) SiO2 
 PCOD8331031
Probable space group: P -4 3 M
;
_chemical_formula_sum "Si O2"
_cell_formula_units_Z 168
_cell_length_a 21.301783
_cell_length_b 21.301783
_cell_length_c 21.301783
_cell_angle_alpha 90.000000
_cell_angle_beta 90.000000
_cell_angle_gamma 90.000000
_cell_volume 9666.023991
_symmetry_space_group_name_H-M "P -4 3 M"
_symmetry_group_IT_number 215
_symmetry_cell_setting 'cubic'
loop_
_space_group_symop_operation_xyz
x,y,z
y,-x,-z
-x,-y,z
-y,x,-z
-x,z,-y
x,-y,-z
-x,-z,y
-z,-y,x
-x,y,-z
z,-y,-x
z,x,y
y,z,x
-y,-z,x
z,-x,-y
-y,z,-x
-z,-x,y
-z,x,-y
y,-z,-x
-y,-x,z
y,x,z
x,-z,-y
x,z,y
-z,y,-x
z,y,x
loop_
_atom_site_type_symbol
_atom_site_label
_atom_site_fract_x
_atom_site_fract_y
_atom_site_fract_z
Si Si1 0.260521 0.159951 0.060598
Si Si2 0.273194 0.481147 0.070894
Si Si3 0.500624 0.868251 0.398118
Si Si4 0.754058 0.142417 0.650073
Si Si5 0.182385 0.715565 0.077330
Si Si6 0.667436 0.430254 0.232937
Si Si7 0.135604 0.397890 0.764294
O O1 0.192388 0.192388 0.058651
O O2 0.253513 0.091491 0.091491
O O3 0.307061 0.202277 0.100518
O O4 0.288574 0.151619 0.991302
O O5 0.347842 0.492597 0.076512
O O6 0.257804 0.412625 0.100139
O O7 0.234859 0.531794 0.110189
O O8 0.254456 0.500000 0.000000
O O9 0.564417 0.860823 0.435584
O O10 0.442155 0.886189 0.442155
O O11 0.489678 0.801100 0.364326
O O12 0.791598 0.208403 0.635421
O O13 0.688317 0.155999 0.688317
O O14 0.220449 0.779552 0.086130
O O15 0.127138 0.714792 0.127138
O O16 0.231981 0.657307 0.083773
O O17 0.614863 0.385138 0.263095
O O18 0.712713 0.456248 0.287288
O O19 0.704711 0.388942 0.181304
O O20 0.171635 0.389416 0.828365
#
# Coordination Sequence:
#
# PCOD8331031 Si02
#       7
#    24  24  24  24  24  24  24
#     4   9  18  32  50  71  95 125 160 200 247 299
#     4  11  21  32  49  72  97 126 163 208 252 299
#     4   9  19  34  47  61  87 123 157 188 228 279
#     4  10  20  35  55  78 104 135 175 224 277 330
#     4  10  19  31  48  70  97 127 161 201 245 295
#     4   9  16  27  46  69  90 112 142 181 224 273
#     4   9  18  31  45  64  92 124 151 180 227 285
#
# _framework density 17.380465999999998
#
# number of rings (size 3 to 8) (size 9 to 14) (size 15 to 20)
#    0.000    2.429    0.000    2.714    0.000    3.714 
#    0.000    2.143    0.000    0.286    0.000    0.000 
#    0.000   10.286    0.000    8.857    0.000    0.000 
#
# Total GULP energy -2081456.892122 kJ/mol
# GULP energy per Si atom -12389.624358 kJ/mol
# Density = 1.734091 g / cm^3
# Si number density = 17.380466 Si / 1000 Ang^3
#
#
#
# Elastic Constant Matrix: (Units=GPa)
#
#
# Indices 1 2 3 4 5 6 
#
# 1 68.6657 16.9634 16.9634 0.0000 0.0000 0.0000
# 2 16.9634 68.6657 16.9634 0.0000 0.0000 0.0000
# 3 16.9634 16.9634 68.6657 0.0000 0.0000 0.0000
# 4 0.0000 0.0000 0.0000 20.6698 0.0000 0.0000
# 5 0.0000 0.0000 0.0000 0.0000 20.6698 0.0000
# 6 0.0000 0.0000 0.0000 0.0000 0.0000 20.6698
#
#
#
# Elastic Compliance Matrix: (Units=1/GPa)
#
#
# Indices 1 2 3 4 5 6 
#
# 1 0.016143 -0.003198 -0.003198 0.000000 0.000000 0.000000
# 2 -0.003198 0.016143 -0.003198 0.000000 0.000000 0.000000
# 3 -0.003198 -0.003198 0.016143 0.000000 0.000000 0.000000
# 4 0.000000 0.000000 0.000000 0.048380 0.000000 0.000000
# 5 0.000000 0.000000 0.000000 0.000000 0.048380 0.000000
# 6 0.000000 0.000000 0.000000 0.000000 0.000000 0.048380
#
#
# Mechanical properties :
#
#
# Convention : Reuss Voigt Hill
#
# Bulk Modulus (GPa) = 34.19749 34.19749 34.19749
# Shear Modulus (GPa) = 22.47141 22.74237 22.60689
#
# Velocity S-wave (km/s) = 3.59961 3.62125 3.61044
# Velocity P-wave (km/s) = 6.08233 6.09943 6.09089
#
# Compressibility (1/GPa) = 0.02924191
#
# Stress axis : x y z
#
# Youngs Moduli (GPa) = 61.94471 61.94471 61.94471
#
# Poissons Ratio (x) = 0.19810 0.19810
# Poissons Ratio (y) = 0.19810 0.19810
# Poissons Ratio (z) = 0.19810 0.19810
#
# Static dielectric constant tensor:
#      x y z
#    x 3.301420 0.000000 0.000000 
#    y 0.000000 3.301420 0.000000 
#    z 0.000000 0.000000 3.301420 
# 
# 
# High freq. dielectric constant tensor:
#      x y z
#    x 1.666440 0.000000 0.000000 
#    y 0.000000 1.666440 0.000000 
#    z 0.000000 0.000000 1.666440 
# 
# From -- ./inp_files/890.got.cif
#   From: 2010.03.12/outbox.cif.g09.slc.cpg/sg215_cif.got.tgz:890.got - 2010.03.30 09:06:09.
