data_PCOD8331132
_publ_section_title
;
Structure prediction by ZEFSAII (Michael W. Deem and Ramdas Pophale) SiO2 
 PCOD8331132
Probable space group: P M 3 N
;
_chemical_formula_sum "Si O2"
_cell_formula_units_Z 120
_cell_length_a 19.058038
_cell_length_b 19.058038
_cell_length_c 19.058038
_cell_angle_alpha 90.000000
_cell_angle_beta 90.000000
_cell_angle_gamma 90.000000
_cell_volume 6922.047349
_symmetry_space_group_name_H-M "P M 3 N"
_symmetry_group_IT_number 223
_symmetry_cell_setting 'cubic'
loop_
_space_group_symop_operation_xyz
x,y,z
1/2-y,1/2+x,1/2+z
-x,-y,z
1/2+y,1/2-x,1/2+z
1/2+x,1/2-z,1/2+y
x,-y,-z
1/2+x,1/2+z,1/2-y
1/2+z,1/2+y,1/2-x
-x,y,-z
1/2-z,1/2+y,1/2+x
z,x,y
y,z,x
-y,-z,x
z,-x,-y
-y,z,-x
-z,-x,y
-z,x,-y
y,-z,-x
1/2+y,1/2+x,1/2-z
1/2-y,1/2-x,1/2-z
1/2-x,1/2+z,1/2+y
1/2-x,1/2-z,1/2-y
1/2+z,1/2-y,1/2+x
1/2-z,1/2-y,1/2-x
-x,-y,-z
1/2+y,1/2-x,1/2-z
x,y,-z
1/2-y,1/2+x,1/2-z
1/2-x,1/2+z,1/2-y
-x,y,z
1/2-x,1/2-z,1/2+y
1/2-z,1/2-y,1/2+x
x,-y,z
1/2+z,1/2-y,1/2-x
-z,-x,-y
-y,-z,-x
y,z,-x
-z,x,y
y,-z,x
z,x,-y
z,-x,y
-y,z,x
1/2-y,1/2-x,1/2+z
1/2+y,1/2+x,1/2+z
1/2+x,1/2-z,1/2-y
1/2+x,1/2+z,1/2+y
1/2-z,1/2+y,1/2-x
1/2+z,1/2+y,1/2+x
loop_
_atom_site_type_symbol
_atom_site_label
_atom_site_fract_x
_atom_site_fract_y
_atom_site_fract_z
Si Si1 0.168813 0.630827 0.640958
Si Si2 0.771146 0.238998 0.578090
Si Si3 0.918846 0.500000 0.583000
O O1 0.208350 0.678678 0.583529
O O2 0.123409 0.686124 0.683660
O O3 0.229169 0.597541 0.689534
O O4 0.119978 0.570149 0.609119
O O5 0.784489 0.213851 0.500000
O O6 0.916558 0.500000 0.500000
O O7 0.000000 0.500000 0.609589
#
# Coordination Sequence:
#
# PCOD8331132 Si02
#       3
#    48  48  24
#     4  10  20  34  53  78 105 141 182 225 277 324
#     4  10  19  34  53  76 105 137 179 230 269 321
#     4  11  22  36  52  78 116 149 180 221 275 350
#
# _framework density 17.335909999999998
#
# number of rings (size 3 to 8) (size 9 to 14) (size 15 to 20)
#    0.000    1.800    2.000    3.200    0.000    3.200 
#    0.000    0.000    0.000    9.600    0.000    0.000 
#    0.000    0.000    0.000    3.000    0.000    0.000 
#
# Total GULP energy -1487037.175052 kJ/mol
# GULP energy per Si atom -12391.976459 kJ/mol
# Density = 1.729645 g / cm^3
# Si number density = 17.335910 Si / 1000 Ang^3
#
#
#
# Elastic Constant Matrix: (Units=GPa)
#
#
# Indices 1 2 3 4 5 6 
#
# 1 97.8898 38.8702 38.8702 0.0000 0.0000 0.0000
# 2 38.8702 97.8898 38.8702 0.0000 0.0000 0.0000
# 3 38.8702 38.8702 97.8898 0.0000 0.0000 0.0000
# 4 0.0000 0.0000 0.0000 24.1755 0.0000 0.0000
# 5 0.0000 0.0000 0.0000 0.0000 24.1755 0.0000
# 6 0.0000 0.0000 0.0000 0.0000 0.0000 24.1755
#
#
#
# Elastic Compliance Matrix: (Units=1/GPa)
#
#
# Indices 1 2 3 4 5 6 
#
# 1 0.013194 -0.003750 -0.003750 0.000000 0.000000 0.000000
# 2 -0.003750 0.013194 -0.003750 0.000000 0.000000 0.000000
# 3 -0.003750 -0.003750 0.013194 0.000000 0.000000 0.000000
# 4 0.000000 0.000000 0.000000 0.041364 0.000000 0.000000
# 5 0.000000 0.000000 0.000000 0.000000 0.041364 0.000000
# 6 0.000000 0.000000 0.000000 0.000000 0.000000 0.041364
#
#
# Mechanical properties :
#
#
# Convention : Reuss Voigt Hill
#
# Bulk Modulus (GPa) = 58.54337 58.54337 58.54337
# Shear Modulus (GPa) = 26.05974 26.30920 26.18447
#
# Velocity S-wave (km/s) = 3.88135 3.89988 3.89063
# Velocity P-wave (km/s) = 7.34369 7.35677 7.35023
#
# Compressibility (1/GPa) = 0.01708135
#
# Stress axis : x y z
#
# Youngs Moduli (GPa) = 75.79429 75.79429 75.79429
#
# Poissons Ratio (x) = 0.28422 0.28422
# Poissons Ratio (y) = 0.28422 0.28422
# Poissons Ratio (z) = 0.28422 0.28422
#
# Static dielectric constant tensor:
#      x y z
#    x 3.374420 0.000000 0.000000 
#    y 0.000000 3.374420 0.000000 
#    z 0.000000 0.000000 3.374420 
# 
# 
# High freq. dielectric constant tensor:
#      x y z
#    x 1.670470 0.000000 0.000000 
#    y 0.000000 1.670470 0.000000 
#    z 0.000000 0.000000 1.670470 
# 
# From -- ./inp_files/312.got.cif
#   From: 2010.03.12/outbox.cif.g09.slc.cpg/sg223_cif.got.tgz:312.got - 2010.03.30 09:08:57.
