data_PCOD8331119
_publ_section_title
;
Structure prediction by ZEFSAII (Michael W. Deem and Ramdas Pophale) SiO2 
 PCOD8331119
Probable space group: P M 3 M
;
_chemical_formula_sum "Si O2"
_cell_formula_units_Z 168
_cell_length_a 21.347337
_cell_length_b 21.347337
_cell_length_c 21.347337
_cell_angle_alpha 90.000000
_cell_angle_beta 90.000000
_cell_angle_gamma 90.000000
_cell_volume 9728.169263
_symmetry_space_group_name_H-M "P M 3 M"
_symmetry_group_IT_number 221
_symmetry_cell_setting 'cubic'
loop_
_space_group_symop_operation_xyz
x,y,z
-y,x,z
-x,-y,z
y,-x,z
x,-z,y
x,-y,-z
x,z,-y
z,y,-x
-x,y,-z
-z,y,x
z,x,y
y,z,x
-y,-z,x
z,-x,-y
-y,z,-x
-z,-x,y
-z,x,-y
y,-z,-x
y,x,-z
-y,-x,-z
-x,z,y
-x,-z,-y
z,-y,x
-z,-y,-x
-x,-y,-z
y,-x,-z
x,y,-z
-y,x,-z
-x,z,-y
-x,y,z
-x,-z,y
-z,-y,x
x,-y,z
z,-y,-x
-z,-x,-y
-y,-z,-x
y,z,-x
-z,x,y
y,-z,x
z,x,-y
z,-x,y
-y,z,x
-y,-x,z
y,x,z
x,-z,-y
x,z,y
-z,y,-x
z,y,x
loop_
_atom_site_type_symbol
_atom_site_label
_atom_site_fract_x
_atom_site_fract_y
_atom_site_fract_z
Si Si1 0.500000 0.070234 0.398512
Si Si2 0.825452 0.072470 0.572496
Si Si3 0.600369 0.500000 0.298038
Si Si4 0.679985 0.500000 0.816051
Si Si5 0.735442 0.630463 0.166611
O O1 0.438505 0.084380 0.438505
O O2 0.500000 0.111049 0.336874
O O3 0.500000 0.000000 0.373798
O O4 0.804980 0.079948 0.500000
O O5 0.890416 0.109585 0.584220
O O6 0.770757 0.100991 0.616599
O O7 0.835940 0.000000 0.590582
O O8 0.561364 0.561364 0.315850
O O9 0.664991 0.500000 0.335010
O O10 0.616461 0.500000 0.224753
O O11 0.716748 0.436061 0.802272
O O12 0.676426 0.676426 0.155232
O O13 0.783757 0.661613 0.216244
#
# Coordination Sequence:
#
# PCOD8331119 Si02
#       5
#    24  48  24  24  48
#     4   9  18  32  47  65  91 118 146 185 237 303
#     4   9  18  34  55  80 109 137 167 205 248 296
#     4  11  23  38  55  72  90 112 145 194 256 325
#     4  12  22  34  52  71  93 125 163 212 259 305
#     4  11  22  36  53  73 101 136 176 219 264 313
#
# _framework density 17.269435999999999
#
# number of rings (size 3 to 8) (size 9 to 14) (size 15 to 20)
#    0.000    1.714    1.429    4.857    0.000    3.143 
#    0.000    4.286    0.000    1.143    0.000    0.000 
#    0.000    0.000    0.000    0.000    0.000    0.000 
#
# Total GULP energy -2082747.306301 kJ/mol
# GULP energy per Si atom -12397.305395 kJ/mol
# Density = 1.723013 g / cm^3
# Si number density = 17.269436 Si / 1000 Ang^3
#
#
#
# Elastic Constant Matrix: (Units=GPa)
#
#
# Indices 1 2 3 4 5 6 
#
# 1 98.6379 42.8742 42.8742 0.0000 0.0000 0.0000
# 2 42.8742 98.6379 42.8742 0.0000 0.0000 0.0000
# 3 42.8742 42.8742 98.6379 0.0000 0.0000 0.0000
# 4 0.0000 0.0000 0.0000 18.2193 0.0000 0.0000
# 5 0.0000 0.0000 0.0000 0.0000 18.2193 0.0000
# 6 0.0000 0.0000 0.0000 0.0000 0.0000 18.2193
#
#
#
# Elastic Compliance Matrix: (Units=1/GPa)
#
#
# Indices 1 2 3 4 5 6 
#
# 1 0.013763 -0.004170 -0.004170 0.000000 0.000000 0.000000
# 2 -0.004170 0.013763 -0.004170 0.000000 0.000000 0.000000
# 3 -0.004170 -0.004170 0.013763 0.000000 0.000000 0.000000
# 4 0.000000 0.000000 0.000000 0.054887 0.000000 0.000000
# 5 0.000000 0.000000 0.000000 0.000000 0.054887 0.000000
# 6 0.000000 0.000000 0.000000 0.000000 0.000000 0.054887
#
#
# Mechanical properties :
#
#
# Convention : Reuss Voigt Hill
#
# Bulk Modulus (GPa) = 61.46209 61.46209 61.46209
# Shear Modulus (GPa) = 21.15131 22.08431 21.61781
#
# Velocity S-wave (km/s) = 3.50349 3.57992 3.54191
# Velocity P-wave (km/s) = 7.21341 7.26327 7.23838
#
# Compressibility (1/GPa) = 0.01627019
#
# Stress axis : x y z
#
# Youngs Moduli (GPa) = 72.65850 72.65850 72.65850
#
# Poissons Ratio (x) = 0.30297 0.30297
# Poissons Ratio (y) = 0.30297 0.30297
# Poissons Ratio (z) = 0.30297 0.30297
#
# Static dielectric constant tensor:
#      x y z
#    x 3.112630 0.000000 0.000000 
#    y 0.000000 3.112630 0.000000 
#    z 0.000000 0.000000 3.112630 
# 
# 
# High freq. dielectric constant tensor:
#      x y z
#    x 1.658100 0.000000 0.000000 
#    y 0.000000 1.658100 0.000000 
#    z 0.000000 0.000000 1.658100 
# 
# From -- ./inp_files/416.got.cif
#   From: 2010.03.12/outbox.cif.g09.slc.cpg/sg221_cif.got.tgz:416.got - 2010.03.30 09:08:03.
