data_PCOD8331014
_publ_section_title
;
Structure prediction by ZEFSAII (Michael W. Deem and Ramdas Pophale) SiO2 
 PCOD8331014
Probable space group: P 41 3 2
;
_chemical_formula_sum "Si O2"
_cell_formula_units_Z 72
_cell_length_a 14.912436
_cell_length_b 14.912436
_cell_length_c 14.912436
_cell_angle_alpha 90.000000
_cell_angle_beta 90.000000
_cell_angle_gamma 90.000000
_cell_volume 3316.238664
_symmetry_space_group_name_H-M "P 41 3 2"
_symmetry_group_IT_number 213
_symmetry_cell_setting 'cubic'
loop_
_space_group_symop_operation_xyz
x,y,z
1/4-y,3/4+x,1/4+z
1/2-x,-y,1/2+z
1/4+y,1/4-x,3/4+z
1/4+x,1/4-z,3/4+y
1/2+x,1/2-y,-z
3/4+x,1/4+z,1/4-y
3/4+z,1/4+y,1/4-x
-x,1/2+y,1/2-z
1/4-z,3/4+y,1/4+x
z,x,y
y,z,x
1/2-y,-z,1/2+x
1/2+z,1/2-x,-y
-y,1/2+z,1/2-x
1/2-z,-x,1/2+y
-z,1/2+x,1/2-y
1/2+y,1/2-z,-x
3/4+y,1/4+x,1/4-z
3/4-y,3/4-x,3/4-z
1/4-x,3/4+z,1/4+y
3/4-x,3/4-z,3/4-y
1/4+z,1/4-y,3/4+x
3/4-z,3/4-y,3/4-x
loop_
_atom_site_type_symbol
_atom_site_label
_atom_site_fract_x
_atom_site_fract_y
_atom_site_fract_z
Si Si1 0.932954 0.559820 0.576914
Si Si2 0.503019 0.226945 0.275344
Si Si3 0.943963 0.574337 0.072675
O O1 0.893956 0.478410 0.515489
O O2 0.849261 0.625000 0.599261
O O3 0.973325 0.529731 0.670929
O O4 0.484971 0.265030 0.375000
O O5 0.534537 0.125000 0.284537
O O6 0.413930 0.238122 0.216539
O O7 0.875000 0.597341 0.152660
O O8 0.022997 0.508989 0.108780
#
# Coordination Sequence:
#
# PCOD8331014 Si02
#       3
#    24  24  24
#     4  10  22  38  64 103 138 189 233 297 351 432
#     4  11  19  34  59 101 151 183 226 287 360 414
#     4   9  22  38  61 105 139 188 230 296 352 428
#
# _framework density 21.711342999999999
#
# number of rings (size 3 to 8) (size 9 to 14) (size 15 to 20)
#    1.333    0.667    3.333    0.333    4.667    0.000 
#    0.000    0.000    0.000    2.000   17.333   18.667 
#    0.000    0.000    0.000    0.000    0.000    0.000 
#
# Total GULP energy -892182.599132 kJ/mol
# GULP energy per Si atom -12391.424988 kJ/mol
# Density = 2.166193 g / cm^3
# Si number density = 21.711343 Si / 1000 Ang^3
#
#
#
# Elastic Constant Matrix: (Units=GPa)
#
#
# Indices 1 2 3 4 5 6 
#
# 1 70.1250 76.8541 76.8541 0.0000 0.0000 0.0000
# 2 76.8541 70.1250 76.8541 0.0000 0.0000 0.0000
# 3 76.8541 76.8541 70.1250 0.0000 0.0000 0.0000
# 4 0.0000 0.0000 0.0000 38.6625 0.0000 0.0000
# 5 0.0000 0.0000 0.0000 0.0000 38.6625 0.0000
# 6 0.0000 0.0000 0.0000 0.0000 0.0000 38.6625
#
#
#
# Elastic Compliance Matrix: (Units=1/GPa)
#
#
# Indices 1 2 3 4 5 6 
#
# 1 -0.097582 0.051025 0.051025 0.000000 0.000000 0.000000
# 2 0.051025 -0.097582 0.051025 0.000000 0.000000 0.000000
# 3 0.051025 0.051025 -0.097582 0.000000 0.000000 0.000000
# 4 0.000000 0.000000 0.000000 0.025865 0.000000 0.000000
# 5 0.000000 0.000000 0.000000 0.000000 0.025865 0.000000
# 6 0.000000 0.000000 0.000000 0.000000 0.000000 0.025865
#
#
# Mechanical properties :
#
#
# Convention : Reuss Voigt Hill
#
# Bulk Modulus (GPa) = 74.61108 74.61108 74.61108
# Shear Modulus (GPa) = -9.67430 21.85166 6.08868
#
# Velocity S-wave (km/s) = -2.11318 3.17592 1.67644
# Velocity P-wave (km/s) = 5.33719 6.92013 6.17956
#
# Compressibility (1/GPa) = 0.01340284
#
# Stress axis : x y z
#
# Youngs Moduli (GPa) = -10.24778 -10.24778 -10.24778
#
# Poissons Ratio (x) = 0.52289 0.52289
# Poissons Ratio (y) = 0.52289 0.52289
# Poissons Ratio (z) = 0.52289 0.52289
#
# Static dielectric constant tensor:
#      x y z
#    x 3.944850 0.000000 0.000000 
#    y 0.000000 3.944850 0.000000 
#    z 0.000000 0.000000 3.944850 
# 
# 
# High freq. dielectric constant tensor:
#      x y z
#    x 1.841660 0.000000 0.000000 
#    y 0.000000 1.841660 0.000000 
#    z 0.000000 0.000000 1.841660 
# 
# From -- ./inp_files/367.got.cif
#   From: 2010.03.12/outbox.cif.g09.slc.cpg/sg213_cif.got.tgz:367.got - 2010.03.30 09:05:31.
