data_PCOD8331013
_publ_section_title
;
Structure prediction by ZEFSAII (Michael W. Deem and Ramdas Pophale) SiO2 
 PCOD8331013
Probable space group: P 41 3 2
;
_chemical_formula_sum "Si O2"
_cell_formula_units_Z 116
_cell_length_a 17.726456
_cell_length_b 17.726456
_cell_length_c 17.726456
_cell_angle_alpha 90.000000
_cell_angle_beta 90.000000
_cell_angle_gamma 90.000000
_cell_volume 5570.135385
_symmetry_space_group_name_H-M "P 41 3 2"
_symmetry_group_IT_number 213
_symmetry_cell_setting 'cubic'
loop_
_space_group_symop_operation_xyz
x,y,z
1/4-y,3/4+x,1/4+z
1/2-x,-y,1/2+z
1/4+y,1/4-x,3/4+z
1/4+x,1/4-z,3/4+y
1/2+x,1/2-y,-z
3/4+x,1/4+z,1/4-y
3/4+z,1/4+y,1/4-x
-x,1/2+y,1/2-z
1/4-z,3/4+y,1/4+x
z,x,y
y,z,x
1/2-y,-z,1/2+x
1/2+z,1/2-x,-y
-y,1/2+z,1/2-x
1/2-z,-x,1/2+y
-z,1/2+x,1/2-y
1/2+y,1/2-z,-x
3/4+y,1/4+x,1/4-z
3/4-y,3/4-x,3/4-z
1/4-x,3/4+z,1/4+y
3/4-x,3/4-z,3/4-y
1/4+z,1/4-y,3/4+x
3/4-z,3/4-y,3/4-x
loop_
_atom_site_type_symbol
_atom_site_label
_atom_site_fract_x
_atom_site_fract_y
_atom_site_fract_z
Si Si1 0.375000 0.556659 0.193342
Si Si2 0.690760 0.625000 0.440760
Si Si3 0.112086 0.824294 0.887843
Si Si4 0.073287 0.573286 0.926715
Si Si5 0.721947 0.489682 0.551728
Si Si6 0.696720 0.946720 0.625000
Si Si7 0.991208 0.840447 0.144667
O O1 0.435952 0.625000 0.185952
O O2 0.338918 0.560684 0.275463
O O3 0.692985 0.563083 0.507222
O O4 0.701183 0.588706 0.358038
O O5 0.148443 0.763153 0.830463
O O6 0.119316 0.905529 0.850983
O O7 0.152514 0.817482 0.968008
O O8 0.125000 0.625000 0.875000
O O9 0.748774 0.426384 0.493684
O O10 0.793390 0.516368 0.599363
O O11 0.648100 0.923313 0.551049
#
# Coordination Sequence:
#
# PCOD8331013 Si02
#       7
#    12  12  24   8  24  12  24
#     4  10  22  39  59  96 131 171 226 278 332 406
#     4  10  21  40  69  94 135 170 223 282 338 416
#     4  12  23  43  67  97 133 182 225 283 348 416
#     4  12  24  42  69  93 138 183 228 279 363 414
#     4  10  22  42  64  97 130 171 222 278 347 404
#     4  12  23  43  68  94 140 175 231 282 338 430
#     4  11  24  43  66  97 132 178 224 284 341 415
#
# _framework density 20.825348000000002
#
# number of rings (size 3 to 8) (size 9 to 14) (size 15 to 20)
#    0.207    0.828    4.138    2.276    0.000    3.310 
#    6.828    0.000    0.000    0.000    0.000    0.000 
#    0.000    0.000    0.000    0.000    0.000    0.000 
#
# Total GULP energy -1437869.824954 kJ/mol
# GULP energy per Si atom -12395.429525 kJ/mol
# Density = 2.077795 g / cm^3
# Si number density = 20.825348 Si / 1000 Ang^3
#
#
#
# Elastic Constant Matrix: (Units=GPa)
#
#
# Indices 1 2 3 4 5 6 
#
# 1 114.9652 29.1292 29.1296 0.0000 0.0000 0.0000
# 2 29.1292 114.9652 29.1296 0.0000 0.0000 0.0000
# 3 29.1296 29.1296 114.9662 0.0000 0.0000 0.0000
# 4 0.0000 0.0000 0.0000 23.0173 0.0000 0.0000
# 5 0.0000 0.0000 0.0000 0.0000 23.0173 0.0000
# 6 0.0000 0.0000 0.0000 0.0000 0.0000 23.0172
#
#
#
# Elastic Compliance Matrix: (Units=1/GPa)
#
#
# Indices 1 2 3 4 5 6 
#
# 1 0.009691 -0.001959 -0.001959 0.000000 0.000000 0.000000
# 2 -0.001959 0.009691 -0.001959 0.000000 0.000000 0.000000
# 3 -0.001959 -0.001959 0.009691 0.000000 0.000000 0.000000
# 4 0.000000 0.000000 0.000000 0.043446 0.000000 0.000000
# 5 0.000000 0.000000 0.000000 0.000000 0.043446 0.000000
# 6 0.000000 0.000000 0.000000 0.000000 0.000000 0.043446
#
#
# Mechanical properties :
#
#
# Convention : Reuss Voigt Hill
#
# Bulk Modulus (GPa) = 57.74150 57.74150 57.74150
# Shear Modulus (GPa) = 28.25859 30.97758 29.61809
#
# Velocity S-wave (km/s) = 3.68765 3.86099 3.77532
# Velocity P-wave (km/s) = 6.77632 6.90384 6.84038
#
# Compressibility (1/GPa) = 0.01731857
#
# Stress axis : x y z
#
# Youngs Moduli (GPa) = 103.18798 103.18798 103.18876
#
# Poissons Ratio (x) = 0.20215 0.20216
# Poissons Ratio (y) = 0.20215 0.20216
# Poissons Ratio (z) = 0.20215 0.20215
#
# Static dielectric constant tensor:
#      x y z
#    x 3.793330 0.000000 0.000000 
#    y 0.000000 3.793330 0.000000 
#    z 0.000000 0.000000 3.793320 
# 
# 
# High freq. dielectric constant tensor:
#      x y z
#    x 1.818770 0.000000 0.000000 
#    y 0.000000 1.818770 0.000000 
#    z 0.000000 0.000000 1.818770 
# 
# From -- ./inp_files/617.got.cif
#   From: 2010.03.12/outbox.cif.g09.slc.cpg/sg213_cif.got.tgz:617.got - 2010.03.30 09:05:31.
