data_PCOD8331000
_publ_section_title
;
Structure prediction by ZEFSAII (Michael W. Deem and Ramdas Pophale) SiO2 
 PCOD8331000
Probable space group: P 43 3 2
;
_chemical_formula_sum "Si O2"
_cell_formula_units_Z 96
_cell_length_a 16.544302
_cell_length_b 16.544302
_cell_length_c 16.544302
_cell_angle_alpha 90.000000
_cell_angle_beta 90.000000
_cell_angle_gamma 90.000000
_cell_volume 4528.405897
_symmetry_space_group_name_H-M "P 43 3 2"
_symmetry_group_IT_number 212
_symmetry_cell_setting 'cubic'
loop_
_space_group_symop_operation_xyz
x,y,z
3/4-y,1/4+x,3/4+z
1/2-x,-y,1/2+z
3/4+y,3/4-x,1/4+z
3/4+x,3/4-z,1/4+y
1/2+x,1/2-y,-z
1/4+x,3/4+z,3/4-y
1/4+z,3/4+y,3/4-x
-x,1/2+y,1/2-z
3/4-z,1/4+y,3/4+x
z,x,y
y,z,x
1/2-y,-z,1/2+x
1/2+z,1/2-x,-y
-y,1/2+z,1/2-x
1/2-z,-x,1/2+y
-z,1/2+x,1/2-y
1/2+y,1/2-z,-x
1/4+y,3/4+x,3/4-z
1/4-y,1/4-x,1/4-z
3/4-x,1/4+z,3/4+y
1/4-x,1/4-z,1/4-y
3/4+z,3/4-y,1/4+x
1/4-z,1/4-y,1/4-x
loop_
_atom_site_type_symbol
_atom_site_label
_atom_site_fract_x
_atom_site_fract_y
_atom_site_fract_z
Si Si1 0.601793 0.052491 0.732206
Si Si2 0.949628 0.777056 0.451918
Si Si3 0.176635 0.600165 0.346534
Si Si4 0.422531 0.496647 0.350841
O O1 0.577329 0.125000 0.672672
O O2 0.653755 0.086272 0.807072
O O3 0.525045 0.011809 0.774546
O O4 0.655708 0.989560 0.683182
O O5 0.875000 0.716372 0.466372
O O6 0.917394 0.868067 0.442242
O O7 0.998818 0.748818 0.375000
O O8 0.269434 0.622184 0.322500
O O9 0.351151 0.481526 0.418058
O O10 0.375000 0.517013 0.267013
#
# Coordination Sequence:
#
# PCOD8331000 Si02
#       4
#    24  24  24  24
#     4  11  23  41  64  96 136 177 220 279 333 402
#     4  10  20  37  63  98 132 171 215 265 333 406
#     4  11  22  41  66  95 135 175 224 275 337 391
#     4  10  22  41  69 100 131 171 225 278 334 391
#
# _framework density 21.199511999999999
#
# number of rings (size 3 to 8) (size 9 to 14) (size 15 to 20)
#    0.500    1.000    2.500    3.250    0.000    2.000 
#    3.000    6.250    0.000    0.000    0.000    0.000 
#    0.000    0.000    0.000    0.000    0.000    0.000 
#
# Total GULP energy -1189920.500985 kJ/mol
# GULP energy per Si atom -12395.005219 kJ/mol
# Density = 2.115126 g / cm^3
# Si number density = 21.199512 Si / 1000 Ang^3
#
#
#
# Elastic Constant Matrix: (Units=GPa)
#
#
# Indices 1 2 3 4 5 6 
#
# 1 88.9698 54.2966 54.2966 0.0000 0.0000 0.0000
# 2 54.2966 88.9698 54.2966 0.0000 0.0000 0.0000
# 3 54.2966 54.2966 88.9698 0.0000 0.0000 0.0000
# 4 0.0000 0.0000 0.0000 29.2469 0.0000 0.0000
# 5 0.0000 0.0000 0.0000 0.0000 29.2469 0.0000
# 6 0.0000 0.0000 0.0000 0.0000 0.0000 29.2469
#
#
#
# Elastic Compliance Matrix: (Units=1/GPa)
#
#
# Indices 1 2 3 4 5 6 
#
# 1 0.020914 -0.007926 -0.007926 0.000000 0.000000 0.000000
# 2 -0.007926 0.020914 -0.007926 0.000000 0.000000 0.000000
# 3 -0.007926 -0.007926 0.020914 0.000000 0.000000 0.000000
# 4 0.000000 0.000000 0.000000 0.034192 0.000000 0.000000
# 5 0.000000 0.000000 0.000000 0.000000 0.034192 0.000000
# 6 0.000000 0.000000 0.000000 0.000000 0.000000 0.034192
#
#
# Mechanical properties :
#
#
# Convention : Reuss Voigt Hill
#
# Bulk Modulus (GPa) = 65.85435 65.85435 65.85435
# Shear Modulus (GPa) = 22.94232 24.48280 23.71256
#
# Velocity S-wave (km/s) = 3.29326 3.40203 3.34809
# Velocity P-wave (km/s) = 6.75221 6.82373 6.78806
#
# Compressibility (1/GPa) = 0.01518503
#
# Stress axis : x y z
#
# Youngs Moduli (GPa) = 47.81397 47.81397 47.81397
#
# Poissons Ratio (x) = 0.37899 0.37899
# Poissons Ratio (y) = 0.37899 0.37899
# Poissons Ratio (z) = 0.37899 0.37899
#
# Static dielectric constant tensor:
#      x y z
#    x 3.769510 0.000000 0.000000 
#    y 0.000000 3.769510 0.000000 
#    z 0.000000 0.000000 3.769510 
# 
# 
# High freq. dielectric constant tensor:
#      x y z
#    x 1.826460 0.000000 0.000000 
#    y 0.000000 1.826460 0.000000 
#    z 0.000000 0.000000 1.826460 
# 
# From -- ./inp_files/472.got.cif
#   From: 2010.03.12/outbox.cif.g09.slc.cpg/sg212_cif.got.tgz:472.got - 2010.03.30 09:05:11.
