data_PCOD8331113
_publ_section_title
;
Structure prediction by ZEFSAII (Michael W. Deem and Ramdas Pophale) SiO2 
 PCOD8331113
Probable space group: P M 3 M
;
_chemical_formula_sum "Si O2"
_cell_formula_units_Z 276
_cell_length_a 26.416093
_cell_length_b 26.416093
_cell_length_c 26.416093
_cell_angle_alpha 90.000000
_cell_angle_beta 90.000000
_cell_angle_gamma 90.000000
_cell_volume 18433.413048
_symmetry_space_group_name_H-M "P M 3 M"
_symmetry_group_IT_number 221
_symmetry_cell_setting 'cubic'
loop_
_space_group_symop_operation_xyz
x,y,z
-y,x,z
-x,-y,z
y,-x,z
x,-z,y
x,-y,-z
x,z,-y
z,y,-x
-x,y,-z
-z,y,x
z,x,y
y,z,x
-y,-z,x
z,-x,-y
-y,z,-x
-z,-x,y
-z,x,-y
y,-z,-x
y,x,-z
-y,-x,-z
-x,z,y
-x,-z,-y
z,-y,x
-z,-y,-x
-x,-y,-z
y,-x,-z
x,y,-z
-y,x,-z
-x,z,-y
-x,y,z
-x,-z,y
-z,-y,x
x,-y,z
z,-y,-x
-z,-x,-y
-y,-z,-x
y,z,-x
-z,x,y
y,-z,x
z,x,-y
z,-x,y
-y,z,x
-y,-x,z
y,x,z
x,-z,-y
x,z,y
-z,y,-x
z,y,x
loop_
_atom_site_type_symbol
_atom_site_label
_atom_site_fract_x
_atom_site_fract_y
_atom_site_fract_z
Si Si1 0.376326 0.623675 0.056886
Si Si2 0.881103 0.558864 0.296929
Si Si3 0.718913 0.636311 0.801837
Si Si4 0.442444 0.442444 0.000000
Si Si5 0.293601 0.130719 0.212790
Si Si6 0.058169 0.345435 0.139352
Si Si7 0.444195 0.943365 0.803400
O O1 0.330826 0.597574 0.086614
O O2 0.419150 0.580851 0.051004
O O3 0.358545 0.641456 0.000000
O O4 0.881243 0.500000 0.315830
O O5 0.823809 0.580968 0.296271
O O6 0.903234 0.562473 0.240954
O O7 0.669137 0.669137 0.789016
O O8 0.750372 0.629155 0.750372
O O9 0.751832 0.663562 0.845069
O O10 0.500000 0.428726 0.000000
O O11 0.276109 0.171340 0.171340
O O12 0.245091 0.114595 0.245091
O O13 0.313997 0.080018 0.186578
O O14 0.087912 0.332757 0.087912
O O15 0.066030 0.404604 0.151698
O O16 0.000000 0.330418 0.131298
O O17 0.500000 0.937437 0.827503
O O18 0.436887 0.000000 0.780673
#
# Coordination Sequence:
#
# PCOD8331113 Si02
#       7
#    24  48  48  12  48  48  48
#     4  10  21  32  46  66  98 132 160 194 235 273
#     4  11  20  31  48  71  95 119 153 195 236 274
#     4  10  19  33  49  69  92 120 149 182 228 283
#     4   9  18  32  48  64  88 132 180 204 222 264
#     4   9  17  30  48  68  91 115 143 174 212 263
#     4  10  20  33  47  65  87 113 146 184 221 267
#     4   9  18  31  46  63  85 114 146 183 227 271
#
# _framework density 14.972811
#
# number of rings (size 3 to 8) (size 9 to 14) (size 15 to 20)
#    0.261    1.957    2.609    1.391    0.000    3.304 
#    0.000    1.739    0.000    0.000    0.000    2.435 
#    0.000    0.000    0.000    0.000    0.000    0.000 
#
# Total GULP energy -3420940.751426 kJ/mol
# GULP energy per Si atom -12394.712867 kJ/mol
# Density = 1.493873 g / cm^3
# Si number density = 14.972811 Si / 1000 Ang^3
#
#
#
# Elastic Constant Matrix: (Units=GPa)
#
#
# Indices 1 2 3 4 5 6 
#
# 1 62.5767 23.6056 23.6056 0.0000 0.0000 0.0000
# 2 23.6056 62.5767 23.6056 0.0000 0.0000 0.0000
# 3 23.6056 23.6056 62.5767 0.0000 0.0000 0.0000
# 4 0.0000 0.0000 0.0000 23.3139 0.0000 0.0000
# 5 0.0000 0.0000 0.0000 0.0000 23.3139 0.0000
# 6 0.0000 0.0000 0.0000 0.0000 0.0000 23.3139
#
#
#
# Elastic Compliance Matrix: (Units=1/GPa)
#
#
# Indices 1 2 3 4 5 6 
#
# 1 0.020143 -0.005517 -0.005517 0.000000 0.000000 0.000000
# 2 -0.005517 0.020143 -0.005517 0.000000 0.000000 0.000000
# 3 -0.005517 -0.005517 0.020143 0.000000 0.000000 0.000000
# 4 0.000000 0.000000 0.000000 0.042893 0.000000 0.000000
# 5 0.000000 0.000000 0.000000 0.000000 0.042893 0.000000
# 6 0.000000 0.000000 0.000000 0.000000 0.000000 0.042893
#
#
# Mechanical properties :
#
#
# Convention : Reuss Voigt Hill
#
# Bulk Modulus (GPa) = 36.59594 36.59594 36.59594
# Shear Modulus (GPa) = 21.61519 21.78255 21.69887
#
# Velocity S-wave (km/s) = 3.80363 3.81833 3.81099
# Velocity P-wave (km/s) = 6.61701 6.62829 6.62265
#
# Compressibility (1/GPa) = 0.02732543
#
# Stress axis : x y z
#
# Youngs Moduli (GPa) = 49.64546 49.64546 49.64546
#
# Poissons Ratio (x) = 0.27390 0.27390
# Poissons Ratio (y) = 0.27390 0.27390
# Poissons Ratio (z) = 0.27390 0.27390
#
# Static dielectric constant tensor:
#      x y z
#    x 2.840020 0.000000 0.000000 
#    y 0.000000 2.840020 0.000000 
#    z 0.000000 0.000000 2.840020 
# 
# 
# High freq. dielectric constant tensor:
#      x y z
#    x 1.561290 0.000000 0.000000 
#    y 0.000000 1.561290 0.000000 
#    z 0.000000 0.000000 1.561290 
# 
# From -- ./inp_files/770.got.cif
#   From: 2010.03.12/outbox.cif.g09.slc.cpg/sg221_cif.got.tgz:770.got - 2010.03.30 09:08:03.
