data_PCOD8331053
_publ_section_title
;
Structure prediction by ZEFSAII (Michael W. Deem and Ramdas Pophale) SiO2 
 PCOD8331053
Probable space group: I -4 3 M 
;
_chemical_formula_sum "Si O2"
_cell_formula_units_Z 312
_cell_length_a 26.838504
_cell_length_b 26.838504
_cell_length_c 26.838504
_cell_angle_alpha 90.000000
_cell_angle_beta 90.000000
_cell_angle_gamma 90.000000
_cell_volume 19331.916594
_symmetry_space_group_name_H-M "I -4 3 M "
_symmetry_group_IT_number 217
_symmetry_cell_setting 'cubic'
loop_
_space_group_symop_operation_xyz
x,y,z
y,-x,-z
-x,-y,z
-y,x,-z
-x,z,-y
x,-y,-z
-x,-z,y
-z,-y,x
-x,y,-z
z,-y,-x
z,x,y
y,z,x
-y,-z,x
z,-x,-y
-y,z,-x
-z,-x,y
-z,x,-y
y,-z,-x
-y,-x,z
y,x,z
x,-z,-y
x,z,y
-z,y,-x
z,y,x
1/2+x,1/2+y,1/2+z
1/2+y,1/2-x,1/2-z
1/2-x,1/2-y,1/2+z
1/2-y,1/2+x,1/2-z
1/2-x,1/2+z,1/2-y
1/2+x,1/2-y,1/2-z
1/2-x,1/2-z,1/2+y
1/2-z,1/2-y,1/2+x
1/2-x,1/2+y,1/2-z
1/2+z,1/2-y,1/2-x
1/2+z,1/2+x,1/2+y
1/2+y,1/2+z,1/2+x
1/2-y,1/2-z,1/2+x
1/2+z,1/2-x,1/2-y
1/2-y,1/2+z,1/2-x
1/2-z,1/2-x,1/2+y
1/2-z,1/2+x,1/2-y
1/2+y,1/2-z,1/2-x
1/2-y,1/2-x,1/2+z
1/2+y,1/2+x,1/2+z
1/2+x,1/2-z,1/2-y
1/2+x,1/2+z,1/2+y
1/2-z,1/2+y,1/2-x
1/2+z,1/2+y,1/2+x
loop_
_atom_site_type_symbol
_atom_site_label
_atom_site_fract_x
_atom_site_fract_y
_atom_site_fract_z
Si Si1 0.409265 0.167584 0.669809
Si Si2 0.224718 0.627844 0.144223
Si Si3 0.397486 0.033912 0.757959
Si Si4 0.000000 0.579986 0.500000
Si Si5 0.811253 0.110311 0.269005
Si Si6 0.291829 0.996970 0.210901
Si Si7 0.331860 0.062376 0.544235
O O1 0.372373 0.188519 0.627628
O O2 0.382012 0.171446 0.723103
O O3 0.458552 0.201762 0.671410
O O4 0.424760 0.111693 0.655839
O O5 0.179101 0.608980 0.179101
O O6 0.224780 0.598784 0.091646
O O7 0.220629 0.686679 0.134720
O O8 0.341654 0.012213 0.756632
O O9 0.419990 0.027091 0.702158
O O10 0.428952 0.004762 0.798945
O O11 0.040440 0.615439 0.473476
O O12 0.977645 0.543776 0.456225
O O13 0.865454 0.134547 0.264379
O O14 0.781553 0.119726 0.218448
O O15 0.820515 0.052076 0.278604
O O16 0.248560 0.011496 0.248560
#
# Coordination Sequence:
#
# PCOD8331053 Si02
#       7
#    48  48  48  24  48  48  48
#     4  10  19  31  47  65  86 116 150 182 219 261
#     4   9  17  28  44  69  98 123 147 177 216 266
#     4   9  18  30  49  73  93 114 147 182 222 271
#     4  11  24  37  46  58  78 109 148 187 232 280
#     4   9  16  27  44  67  94 121 147 178 219 266
#     4   9  18  31  47  68  93 119 148 183 220 262
#     4  10  19  33  49  66  87 110 141 185 228 270
#
# _framework density 16.139113999999999
#
# number of rings (size 3 to 8) (size 9 to 14) (size 15 to 20)
#    0.000    2.538    0.000    2.462    0.000    4.923 
#    0.000    2.308    0.000    4.769    0.000    0.000 
#    0.000    0.000    0.000    0.000    0.000    0.000 
#
# Total GULP energy -1933679.081008 kJ/mol
# GULP energy per Si atom -12395.378724 kJ/mol
# Density = 1.610238 g / cm^3
# Si number density = 16.139114 Si / 1000 Ang^3
#
#
#
# Elastic Constant Matrix: (Units=GPa)
#
#
# Indices 1 2 3 4 5 6 
#
# 1 76.6285 42.4101 42.4101 0.0000 0.0000 0.0000
# 2 42.4101 76.6285 42.4101 0.0000 0.0000 0.0000
# 3 42.4101 42.4101 76.6285 0.0000 0.0000 0.0000
# 4 0.0000 0.0000 0.0000 20.8032 0.0000 0.0000
# 5 0.0000 0.0000 0.0000 0.0000 20.8032 0.0000
# 6 0.0000 0.0000 0.0000 0.0000 0.0000 20.8032
#
#
#
# Elastic Compliance Matrix: (Units=1/GPa)
#
#
# Indices 1 2 3 4 5 6 
#
# 1 0.021547 -0.007677 -0.007677 0.000000 0.000000 0.000000
# 2 -0.007677 0.021547 -0.007677 0.000000 0.000000 0.000000
# 3 -0.007677 -0.007677 0.021547 0.000000 0.000000 0.000000
# 4 0.000000 0.000000 0.000000 0.048070 0.000000 0.000000
# 5 0.000000 0.000000 0.000000 0.000000 0.048070 0.000000
# 6 0.000000 0.000000 0.000000 0.000000 0.000000 0.048070
#
#
# Mechanical properties :
#
#
# Convention : Reuss Voigt Hill
#
# Bulk Modulus (GPa) = 53.81621 53.81621 53.81621
# Shear Modulus (GPa) = 19.14939 19.32558 19.23749
#
# Velocity S-wave (km/s) = 3.44833 3.46416 3.45625
# Velocity P-wave (km/s) = 7.01942 7.02980 7.02461
#
# Compressibility (1/GPa) = 0.01858176
#
# Stress axis : x y z
#
# Youngs Moduli (GPa) = 46.40950 46.40950 46.40950
#
# Poissons Ratio (x) = 0.35627 0.35627
# Poissons Ratio (y) = 0.35627 0.35627
# Poissons Ratio (z) = 0.35627 0.35627
#
# Static dielectric constant tensor:
#      x y z
#    x 3.036430 0.000000 0.000000 
#    y 0.000000 3.036430 0.000000 
#    z 0.000000 0.000000 3.036430 
# 
# 
# High freq. dielectric constant tensor:
#      x y z
#    x 1.607930 0.000000 0.000000 
#    y 0.000000 1.607930 0.000000 
#    z 0.000000 0.000000 1.607930 
# 
# From -- ./inp_files/722.got.cif
#   From: 2010.03.12/outbox.cif.g09.slc.cpg/sg217_cif.got.tgz:722.got - 2010.03.30 09:07:03.
