data_PCOD8331033
_publ_section_title
;
Structure prediction by ZEFSAII (Michael W. Deem and Ramdas Pophale) SiO2 
 PCOD8331033
Probable space group: P -4 3 M
;
_chemical_formula_sum "Si O2"
_cell_formula_units_Z 168
_cell_length_a 21.780636
_cell_length_b 21.780636
_cell_length_c 21.780636
_cell_angle_alpha 90.000000
_cell_angle_beta 90.000000
_cell_angle_gamma 90.000000
_cell_volume 10332.648873
_symmetry_space_group_name_H-M "P -4 3 M"
_symmetry_group_IT_number 215
_symmetry_cell_setting 'cubic'
loop_
_space_group_symop_operation_xyz
x,y,z
y,-x,-z
-x,-y,z
-y,x,-z
-x,z,-y
x,-y,-z
-x,-z,y
-z,-y,x
-x,y,-z
z,-y,-x
z,x,y
y,z,x
-y,-z,x
z,-x,-y
-y,z,-x
-z,-x,y
-z,x,-y
y,-z,-x
-y,-x,z
y,x,z
x,-z,-y
x,z,y
-z,y,-x
z,y,x
loop_
_atom_site_type_symbol
_atom_site_label
_atom_site_fract_x
_atom_site_fract_y
_atom_site_fract_z
Si Si1 0.823232 0.723909 0.078659
Si Si2 0.062627 0.677129 0.422012
Si Si3 0.590460 0.785411 0.118737
Si Si4 0.910839 0.187049 0.384187
Si Si5 0.440492 0.341876 0.078139
Si Si6 0.026858 0.876836 0.562347
Si Si7 0.744833 0.058410 0.156122
O O1 0.760624 0.760624 0.084824
O O2 0.870085 0.747065 0.129916
O O3 0.804128 0.653950 0.086930
O O4 0.855041 0.734145 0.013428
O O5 0.086121 0.632724 0.367277
O O6 0.089170 0.745835 0.415465
O O7 0.084692 0.647495 0.486589
O O8 0.989263 0.680793 0.421474
O O9 0.585622 0.812247 0.187754
O O10 0.580126 0.712704 0.123763
O O11 0.543036 0.819390 0.072013
O O12 0.849780 0.150221 0.406128
O O13 0.911309 0.195322 0.310751
O O14 0.971048 0.145370 0.395732
O O15 0.404819 0.404819 0.095343
O O16 0.069158 0.930843 0.593857
O O17 0.000000 0.904168 0.500000
O O18 0.750377 0.089631 0.089631
O O19 0.806690 0.070944 0.193311
#
# Coordination Sequence:
#
# PCOD8331033 Si02
#       7
#    24  24  24  24  24  24  24
#     4  10  19  32  49  69  92 120 153 190 232 278
#     4  10  20  34  50  68  93 120 153 197 239 275
#     4  10  19  31  49  70  95 125 156 187 223 276
#     4  11  21  32  49  69  91 123 158 189 228 280
#     4  10  19  32  51  71  92 121 155 192 234 276
#     4  11  21  32  43  62  93 126 157 188 224 266
#     4  10  20  33  49  67  89 117 152 193 237 281
#
# _framework density 16.259142000000001
#
# number of rings (size 3 to 8) (size 9 to 14) (size 15 to 20)
#    0.000    1.714    2.857    2.429    0.000    5.571 
#    0.000    2.857    0.000    0.571    0.000    0.000 
#    0.000    0.000    0.000    8.857    0.000    0.143 
#
# Total GULP energy -2082575.373388 kJ/mol
# GULP energy per Si atom -12396.281984 kJ/mol
# Density = 1.622214 g / cm^3
# Si number density = 16.259142 Si / 1000 Ang^3
#
#
#
# Elastic Constant Matrix: (Units=GPa)
#
#
# Indices 1 2 3 4 5 6 
#
# 1 72.4478 35.0513 35.0513 0.0000 0.0000 0.0000
# 2 35.0513 72.4478 35.0513 0.0000 0.0000 0.0000
# 3 35.0513 35.0513 72.4478 0.0000 0.0000 0.0000
# 4 0.0000 0.0000 0.0000 18.4902 0.0000 0.0000
# 5 0.0000 0.0000 0.0000 0.0000 18.4902 0.0000
# 6 0.0000 0.0000 0.0000 0.0000 0.0000 18.4902
#
#
#
# Elastic Compliance Matrix: (Units=1/GPa)
#
#
# Indices 1 2 3 4 5 6 
#
# 1 0.020165 -0.006575 -0.006575 0.000000 0.000000 0.000000
# 2 -0.006575 0.020165 -0.006575 0.000000 0.000000 0.000000
# 3 -0.006575 -0.006575 0.020165 0.000000 0.000000 0.000000
# 4 0.000000 0.000000 0.000000 0.054083 0.000000 0.000000
# 5 0.000000 0.000000 0.000000 0.000000 0.054083 0.000000
# 6 0.000000 0.000000 0.000000 0.000000 0.000000 0.054083
#
#
# Mechanical properties :
#
#
# Convention : Reuss Voigt Hill
#
# Bulk Modulus (GPa) = 47.51680 47.51680 47.51680
# Shear Modulus (GPa) = 18.57284 18.57340 18.57312
#
# Velocity S-wave (km/s) = 3.38346 3.38351 3.38349
# Velocity P-wave (km/s) = 6.67472 6.67475 6.67474
#
# Compressibility (1/GPa) = 0.02104519
#
# Stress axis : x y z
#
# Youngs Moduli (GPa) = 49.59001 49.59001 49.59001
#
# Poissons Ratio (x) = 0.32606 0.32606
# Poissons Ratio (y) = 0.32606 0.32606
# Poissons Ratio (z) = 0.32606 0.32606
#
# Static dielectric constant tensor:
#      x y z
#    x 3.025690 0.000000 0.000000 
#    y 0.000000 3.025690 0.000000 
#    z 0.000000 0.000000 3.025690 
# 
# 
# High freq. dielectric constant tensor:
#      x y z
#    x 1.611970 0.000000 0.000000 
#    y 0.000000 1.611970 0.000000 
#    z 0.000000 0.000000 1.611970 
# 
# From -- ./inp_files/919.got.cif
#   From: 2010.03.12/outbox.cif.g09.slc.cpg/sg215_cif.got.tgz:919.got - 2010.03.30 09:06:09.
