data_PCOD8331140
_publ_section_title
;
Structure prediction by ZEFSAII (Michael W. Deem and Ramdas Pophale) SiO2 
 PCOD8331140
Probable space group: P N 3 M
;
_chemical_formula_sum "Si O2"
_cell_formula_units_Z 120
_cell_length_a 18.508325
_cell_length_b 18.508325
_cell_length_c 18.508325
_cell_angle_alpha 90.000000
_cell_angle_beta 90.000000
_cell_angle_gamma 90.000000
_cell_volume 6340.176541
_symmetry_space_group_name_H-M "P N 3 M"
_symmetry_group_IT_number 224
_space_group.IT_coordinate_system_code '2'
_symmetry_cell_setting 'cubic'
loop_
_space_group_symop_operation_xyz
x,y,z
-y,1/2+x,1/2+z
1/2-x,1/2-y,z
1/2+y,-x,1/2+z
1/2+x,-z,1/2+y
x,1/2-y,1/2-z
1/2+x,1/2+z,-y
1/2+z,1/2+y,-x
1/2-x,y,1/2-z
-z,1/2+y,1/2+x
z,x,y
y,z,x
1/2-y,1/2-z,x
z,1/2-x,1/2-y
1/2-y,z,1/2-x
1/2-z,1/2-x,y
1/2-z,x,1/2-y
y,1/2-z,1/2-x
1/2+y,1/2+x,-z
-y,-x,-z
-x,1/2+z,1/2+y
-x,-z,-y
1/2+z,-y,1/2+x
-z,-y,-x
-x,-y,-z
y,1/2-x,1/2-z
1/2+x,1/2+y,-z
1/2-y,x,1/2-z
1/2-x,z,1/2-y
-x,1/2+y,1/2+z
1/2-x,1/2-z,y
1/2-z,1/2-y,x
1/2+x,-y,1/2+z
z,1/2-y,1/2-x
-z,-x,-y
-y,-z,-x
1/2+y,1/2+z,-x
-z,1/2+x,1/2+y
1/2+y,-z,1/2+x
1/2+z,1/2+x,-y
1/2+z,-x,1/2+y
-y,1/2+z,1/2+x
1/2-y,1/2-x,z
y,x,z
x,1/2-z,1/2-y
x,z,y
1/2-z,y,1/2-x
z,y,x
loop_
_atom_site_type_symbol
_atom_site_label
_atom_site_fract_x
_atom_site_fract_y
_atom_site_fract_z
Si Si1 0.881965 0.431927 0.186116
Si Si2 0.250000 0.368953 0.750000
Si Si3 0.368595 0.483932 0.248836
O O1 0.866964 0.500000 0.133037
O O2 0.884294 0.360355 0.139646
O O3 0.817477 0.422660 0.242942
O O4 0.956695 0.430860 0.231211
O O5 0.320426 0.320426 0.763184
O O6 0.409834 0.409834 0.230644
O O7 0.320785 0.507878 0.179216
O O8 0.316841 0.469852 0.316841
#
# Coordination Sequence:
#
# PCOD8331140 Si02
#       3
#    48  24  48
#     4  10  19  31  48  71  99 129 163 204 251 304
#     4   9  17  30  48  70  95 123 158 202 248 293
#     4  10  20  34  52  74 101 134 172 214 260 310
#
# _framework density 18.926917
#
# number of rings (size 3 to 8) (size 9 to 14) (size 15 to 20)
#    0.000    2.200    0.000    3.800    0.000    4.800 
#    0.000    0.000    0.000    9.600    0.000    0.000 
#    0.000   19.200    0.000    0.000    0.000    0.000 
#
# Total GULP energy -1486959.648749 kJ/mol
# GULP energy per Si atom -12391.330406 kJ/mol
# Density = 1.888384 g / cm^3
# Si number density = 18.926917 Si / 1000 Ang^3
#
#
#
# Elastic Constant Matrix: (Units=GPa)
#
#
# Indices 1 2 3 4 5 6 
#
# 1 80.4888 35.4689 35.4689 0.0000 0.0000 0.0000
# 2 35.4689 80.4888 35.4689 0.0000 0.0000 0.0000
# 3 35.4689 35.4689 80.4888 0.0000 0.0000 0.0000
# 4 0.0000 0.0000 0.0000 28.6275 0.0000 0.0000
# 5 0.0000 0.0000 0.0000 0.0000 28.6275 0.0000
# 6 0.0000 0.0000 0.0000 0.0000 0.0000 28.6275
#
#
#
# Elastic Compliance Matrix: (Units=1/GPa)
#
#
# Indices 1 2 3 4 5 6 
#
# 1 0.017010 -0.005203 -0.005203 0.000000 0.000000 0.000000
# 2 -0.005203 0.017010 -0.005203 0.000000 0.000000 0.000000
# 3 -0.005203 -0.005203 0.017010 0.000000 0.000000 0.000000
# 4 0.000000 0.000000 0.000000 0.034931 0.000000 0.000000
# 5 0.000000 0.000000 0.000000 0.000000 0.034931 0.000000
# 6 0.000000 0.000000 0.000000 0.000000 0.000000 0.034931
#
#
# Mechanical properties :
#
#
# Convention : Reuss Voigt Hill
#
# Bulk Modulus (GPa) = 50.47552 50.47552 50.47552
# Shear Modulus (GPa) = 25.82060 26.18049 26.00054
#
# Velocity S-wave (km/s) = 3.69755 3.72323 3.71041
# Velocity P-wave (km/s) = 6.70490 6.72382 6.71437
#
# Compressibility (1/GPa) = 0.01981158
#
# Stress axis : x y z
#
# Youngs Moduli (GPa) = 58.79053 58.79053 58.79053
#
# Poissons Ratio (x) = 0.30588 0.30588
# Poissons Ratio (y) = 0.30588 0.30588
# Poissons Ratio (z) = 0.30588 0.30588
#
# Static dielectric constant tensor:
#      x y z
#    x 3.443370 0.000000 0.000000 
#    y 0.000000 3.443370 0.000000 
#    z 0.000000 0.000000 3.443370 
# 
# 
# High freq. dielectric constant tensor:
#      x y z
#    x 1.728450 0.000000 0.000000 
#    y 0.000000 1.728450 0.000000 
#    z 0.000000 0.000000 1.728450 
# 
# From -- ./inp_files/247.got.cif
#   From: 2010.03.12/outbox.cif.g09.slc.cpg/sg224_cif.got.tgz:247.got - 2010.03.30 09:09:26.
