data_PCOD8331092
_publ_section_title
;
Structure prediction by ZEFSAII (Michael W. Deem and Ramdas Pophale) SiO2 
 PCOD8331092
Probable space group: I -4 3 D
;
_chemical_formula_sum "Si O2"
_cell_formula_units_Z 272
_cell_length_a 23.525047
_cell_length_b 23.525047
_cell_length_c 23.525047
_cell_angle_alpha 90.000000
_cell_angle_beta 90.000000
_cell_angle_gamma 90.000000
_cell_volume 13019.415861
_symmetry_space_group_name_H-M "I -4 3 D"
_symmetry_group_IT_number 220
_symmetry_cell_setting 'cubic'
loop_
_space_group_symop_operation_xyz
x,y,z
1/4+y,3/4-x,1/4-z
-x,1/2-y,z
1/4-y,1/4+x,3/4-z
1/4-x,1/4+z,3/4-y
x,-y,1/2-z
3/4-x,1/4-z,1/4+y
3/4-z,1/4-y,1/4+x
1/2-x,y,-z
1/4+z,3/4-y,1/4-x
z,x,y
y,z,x
-y,1/2-z,x
z,-x,1/2-y
1/2-y,z,-x
-z,1/2-x,y
1/2-z,x,-y
y,-z,1/2-x
3/4-y,1/4-x,1/4+z
1/4+y,1/4+x,1/4+z
1/4+x,3/4-z,1/4-y
1/4+x,1/4+z,1/4+y
1/4-z,1/4+y,3/4-x
1/4+z,1/4+y,1/4+x
1/2+x,1/2+y,1/2+z
3/4+y,1/4-x,3/4-z
1/2-x,-y,1/2+z
3/4-y,3/4+x,1/4-z
3/4-x,3/4+z,1/4-y
1/2+x,1/2-y,-z
1/4-x,3/4-z,3/4+y
1/4-z,3/4-y,3/4+x
-x,1/2+y,1/2-z
3/4+z,1/4-y,3/4-x
1/2+z,1/2+x,1/2+y
1/2+y,1/2+z,1/2+x
1/2-y,-z,1/2+x
1/2+z,1/2-x,-y
-y,1/2+z,1/2-x
1/2-z,-x,1/2+y
-z,1/2+x,1/2-y
1/2+y,1/2-z,-x
1/4-y,3/4-x,3/4+z
3/4+y,3/4+x,3/4+z
3/4+x,1/4-z,3/4-y
3/4+x,3/4+z,3/4+y
3/4-z,3/4+y,1/4-x
3/4+z,3/4+y,3/4+x
loop_
_atom_site_type_symbol
_atom_site_label
_atom_site_fract_x
_atom_site_fract_y
_atom_site_fract_z
Si Si1 0.656137 0.156136 0.343865
Si Si2 0.948087 0.181949 0.719256
Si Si3 0.920594 0.395711 0.483987
Si Si4 0.332187 0.417015 0.637183
Si Si5 0.233806 0.733805 0.766196
Si Si6 0.807914 0.191766 0.428234
Si Si7 0.732221 0.858827 0.411701
O O1 0.597122 0.142546 0.312816
O O2 0.695121 0.195120 0.304881
O O3 0.958454 0.160314 0.783126
O O4 0.923668 0.246382 0.721421
O O5 0.006458 0.174673 0.686123
O O6 0.896790 0.378281 0.545680
O O7 0.867422 0.393126 0.440631
O O8 0.951934 0.456037 0.490718
O O9 0.965810 0.350368 0.457250
O O10 0.304336 0.372081 0.594240
O O11 0.852204 0.229679 0.392649
O O12 0.687225 0.888268 0.454715
#
# Coordination Sequence:
#
# PCOD8331092 Si02
#       7
#    16  48  48  48  16  48  48
#     4  12  18  42  67  95 121 189 219 265 344 436
#     4  11  21  40  66  93 127 173 219 276 342 405
#     4  11  26  41  72 102 140 178 239 292 355 428
#     4  11  24  43  66 102 133 174 233 290 348 418
#     4  12  24  45  73  98 142 195 228 289 377 430
#     4  10  23  39  64  95 131 172 219 285 341 414
#     4  10  22  43  67  94 134 186 224 279 353 417
#
# _framework density 20.891874000000001
#
# number of rings (size 3 to 8) (size 9 to 14) (size 15 to 20)
#    0.000    1.235    3.529    2.118    4.941    3.176 
#    3.176    1.765    0.000    0.000    0.000    0.000 
#    0.000    0.000    0.000    0.000    0.000    0.000 
#
# Total GULP energy -1686192.308130 kJ/mol
# GULP energy per Si atom -12398.472854 kJ/mol
# Density = 2.084432 g / cm^3
# Si number density = 20.891874 Si / 1000 Ang^3
#
#
#
# Elastic Constant Matrix: (Units=GPa)
#
#
# Indices 1 2 3 4 5 6 
#
# 1 86.2140 25.3689 25.3693 0.0000 0.0000 0.0000
# 2 25.3689 86.2140 25.3693 0.0000 0.0000 0.0000
# 3 25.3693 25.3693 86.2101 0.0000 0.0000 0.0000
# 4 0.0000 0.0000 0.0000 33.3684 0.0000 0.0000
# 5 0.0000 0.0000 0.0000 0.0000 33.3684 0.0000
# 6 0.0000 0.0000 0.0000 0.0000 0.0000 33.3689
#
#
#
# Elastic Compliance Matrix: (Units=1/GPa)
#
#
# Indices 1 2 3 4 5 6 
#
# 1 0.013391 -0.003044 -0.003045 0.000000 0.000000 0.000000
# 2 -0.003044 0.013391 -0.003045 0.000000 0.000000 0.000000
# 3 -0.003045 -0.003045 0.013392 0.000000 0.000000 0.000000
# 4 0.000000 0.000000 0.000000 0.029969 0.000000 0.000000
# 5 0.000000 0.000000 0.000000 0.000000 0.029969 0.000000
# 6 0.000000 0.000000 0.000000 0.000000 0.000000 0.029968
#
#
# Mechanical properties :
#
#
# Convention : Reuss Voigt Hill
#
# Bulk Modulus (GPa) = 45.65036 45.65036 45.65036
# Shear Modulus (GPa) = 32.12386 32.18981 32.15683
#
# Velocity S-wave (km/s) = 3.92551 3.92954 3.92752
# Velocity P-wave (km/s) = 6.51493 6.51817 6.51655
#
# Compressibility (1/GPa) = 0.02190563
#
# Stress axis : x y z
#
# Youngs Moduli (GPa) = 74.67811 74.67811 74.67423
#
# Poissons Ratio (x) = 0.22735 0.22736
# Poissons Ratio (y) = 0.22735 0.22736
# Poissons Ratio (z) = 0.22737 0.22737
#
# Static dielectric constant tensor:
#      x y z
#    x 3.887420 0.000000 0.000000 
#    y 0.000000 3.887420 0.000000 
#    z 0.000000 0.000000 3.887450 
# 
# 
# High freq. dielectric constant tensor:
#      x y z
#    x 1.818240 0.000000 0.000000 
#    y 0.000000 1.818240 0.000000 
#    z 0.000000 0.000000 1.818240 
# 
# From -- ./inp_files/527.got.cif
#   From: 2010.03.12/outbox.cif.g09.slc.cpg/sg220_cif.got.tgz:527.got - 2010.03.30 09:07:51.
