data_PCOD8331123
_publ_section_title
;
Structure prediction by ZEFSAII (Michael W. Deem and Ramdas Pophale) SiO2 
 PCOD8331123
Probable space group: P N 3 N
;
_chemical_formula_sum "Si O2"
_cell_formula_units_Z 276
_cell_length_a 26.158032
_cell_length_b 26.158032
_cell_length_c 26.158032
_cell_angle_alpha 90.000000
_cell_angle_beta 90.000000
_cell_angle_gamma 90.000000
_cell_volume 17898.440824
_symmetry_space_group_name_H-M "P N 3 N"
_symmetry_group_IT_number 222
_space_group.IT_coordinate_system_code '2'
_symmetry_cell_setting 'cubic'
loop_
_space_group_symop_operation_xyz
x,y,z
1/2-y,x,z
1/2-x,1/2-y,z
y,1/2-x,z
x,1/2-z,y
x,1/2-y,1/2-z
x,z,1/2-y
z,y,1/2-x
1/2-x,y,1/2-z
1/2-z,y,x
z,x,y
y,z,x
1/2-y,1/2-z,x
z,1/2-x,1/2-y
1/2-y,z,1/2-x
1/2-z,1/2-x,y
1/2-z,x,1/2-y
y,1/2-z,1/2-x
y,x,1/2-z
1/2-y,1/2-x,1/2-z
1/2-x,z,y
1/2-x,1/2-z,1/2-y
z,1/2-y,x
1/2-z,1/2-y,1/2-x
-x,-y,-z
1/2+y,-x,-z
1/2+x,1/2+y,-z
-y,1/2+x,-z
-x,1/2+z,-y
-x,1/2+y,1/2+z
-x,-z,1/2+y
-z,-y,1/2+x
1/2+x,-y,1/2+z
1/2+z,-y,-x
-z,-x,-y
-y,-z,-x
1/2+y,1/2+z,-x
-z,1/2+x,1/2+y
1/2+y,-z,1/2+x
1/2+z,1/2+x,-y
1/2+z,-x,1/2+y
-y,1/2+z,1/2+x
-y,-x,1/2+z
1/2+y,1/2+x,1/2+z
1/2+x,-z,-y
1/2+x,1/2+z,1/2+y
-z,1/2+y,-x
1/2+z,1/2+y,1/2+x
loop_
_atom_site_type_symbol
_atom_site_label
_atom_site_fract_x
_atom_site_fract_y
_atom_site_fract_z
Si Si1 0.661347 0.249938 0.932843
Si Si2 0.250000 0.678496 0.821505
Si Si3 0.162969 0.426385 0.627724
Si Si4 0.140785 0.820046 0.712483
Si Si5 0.096776 0.958412 0.553512
Si Si6 0.000000 0.250000 0.750000
Si Si7 0.205936 0.934526 0.516623
O O1 0.681923 0.271009 0.879164
O O2 0.659243 0.188045 0.939447
O O3 0.703394 0.274089 0.969336
O O4 0.607989 0.278503 0.941534
O O5 0.203029 0.683867 0.782213
O O6 0.184025 0.369533 0.620132
O O7 0.107668 0.429625 0.601049
O O8 0.201982 0.463008 0.596131
O O9 0.120405 0.818569 0.770629
O O10 0.060502 0.925893 0.515489
O O11 0.153068 0.962645 0.529416
O O12 0.250000 0.978929 0.521072
#
# Coordination Sequence:
#
# PCOD8331123 Si02
#       7
#    48  24  48  48  48  12  48
#     4  11  20  32  44  68  98 122 156 194 245 292
#     4  10  20  29  44  60  84 122 156 198 226 274
#     4  10  21  34  50  71  93 124 156 197 244 294
#     4  10  21  34  45  61  87 121 159 191 227 278
#     4  10  21  36  53  71  94 123 156 198 248 304
#     4  12  24  28  48  72  98 128 156 188 252 296
#     4  11  19  33  50  71  97 120 154 200 247 295
#
# _framework density 15.420337999999999
#
# number of rings (size 3 to 8) (size 9 to 14) (size 15 to 20)
#    0.000    1.565    4.348    1.739    4.870    2.087 
#    0.000    0.000    0.000    0.000    0.000    0.000 
#    0.000    0.000    0.000    0.000    0.000    0.000 
#
# Total GULP energy -3419497.755949 kJ/mol
# GULP energy per Si atom -12389.484623 kJ/mol
# Density = 1.538524 g / cm^3
# Si number density = 15.420338 Si / 1000 Ang^3
#
#
#
# Elastic Constant Matrix: (Units=GPa)
#
#
# Indices 1 2 3 4 5 6 
#
# 1 65.4965 27.9570 27.9570 0.0000 0.0000 0.0000
# 2 27.9570 65.4965 27.9570 0.0000 0.0000 0.0000
# 3 27.9570 27.9570 65.4965 0.0000 0.0000 0.0000
# 4 0.0000 0.0000 0.0000 25.0399 0.0000 0.0000
# 5 0.0000 0.0000 0.0000 0.0000 25.0399 0.0000
# 6 0.0000 0.0000 0.0000 0.0000 0.0000 25.0399
#
#
#
# Elastic Compliance Matrix: (Units=1/GPa)
#
#
# Indices 1 2 3 4 5 6 
#
# 1 0.020505 -0.006134 -0.006134 0.000000 0.000000 0.000000
# 2 -0.006134 0.020505 -0.006134 0.000000 0.000000 0.000000
# 3 -0.006134 -0.006134 0.020505 0.000000 0.000000 0.000000
# 4 0.000000 0.000000 0.000000 0.039936 0.000000 0.000000
# 5 0.000000 0.000000 0.000000 0.000000 0.039936 0.000000
# 6 0.000000 0.000000 0.000000 0.000000 0.000000 0.039936
#
#
# Mechanical properties :
#
#
# Convention : Reuss Voigt Hill
#
# Bulk Modulus (GPa) = 40.47019 40.47019 40.47019
# Shear Modulus (GPa) = 22.08837 22.53181 22.31009
#
# Velocity S-wave (km/s) = 3.78884 3.82668 3.80780
# Velocity P-wave (km/s) = 6.74107 6.76951 6.75531
#
# Compressibility (1/GPa) = 0.02470954
#
# Stress axis : x y z
#
# Youngs Moduli (GPa) = 48.76961 48.76961 48.76961
#
# Poissons Ratio (x) = 0.29915 0.29915
# Poissons Ratio (y) = 0.29915 0.29915
# Poissons Ratio (z) = 0.29915 0.29915
#
# Static dielectric constant tensor:
#      x y z
#    x 2.736060 0.000000 0.000000 
#    y 0.000000 2.736060 0.000000 
#    z 0.000000 0.000000 2.736060 
# 
# 
# High freq. dielectric constant tensor:
#      x y z
#    x 1.580400 0.000000 0.000000 
#    y 0.000000 1.580400 0.000000 
#    z 0.000000 0.000000 1.580400 
# 
# From -- ./inp_files/535.got.cif
#   From: 2010.03.12/outbox.cif.g09.slc.cpg/sg222_cif.got.tgz:535.got - 2010.03.30 09:08:40.
