data_PCOD8331121
_publ_section_title
;
Structure prediction by ZEFSAII (Michael W. Deem and Ramdas Pophale) SiO2 
 PCOD8331121
Probable space group: P M 3 M
;
_chemical_formula_sum "Si O2"
_cell_formula_units_Z 192
_cell_length_a 24.000000
_cell_length_b 24.000000
_cell_length_c 24.000000
_cell_angle_alpha 90.000000
_cell_angle_beta 90.000000
_cell_angle_gamma 90.000000
_cell_volume 13824.000000
_symmetry_space_group_name_H-M "P M 3 M"
_symmetry_group_IT_number 221
_symmetry_cell_setting 'cubic'
loop_
_space_group_symop_operation_xyz
x,y,z
-y,x,z
-x,-y,z
y,-x,z
x,-z,y
x,-y,-z
x,z,-y
z,y,-x
-x,y,-z
-z,y,x
z,x,y
y,z,x
-y,-z,x
z,-x,-y
-y,z,-x
-z,-x,y
-z,x,-y
y,-z,-x
y,x,-z
-y,-x,-z
-x,z,y
-x,-z,-y
z,-y,x
-z,-y,-x
-x,-y,-z
y,-x,-z
x,y,-z
-y,x,-z
-x,z,-y
-x,y,z
-x,-z,y
-z,-y,x
x,-y,z
z,-y,-x
-z,-x,-y
-y,-z,-x
y,z,-x
-z,x,y
y,-z,x
z,x,-y
z,-x,y
-y,z,x
-y,-x,z
y,x,z
x,-z,-y
x,z,y
-z,y,-x
z,y,x
loop_
_atom_site_type_symbol
_atom_site_label
_atom_site_fract_x
_atom_site_fract_y
_atom_site_fract_z
Si Si1 0.348358 0.882350 0.437481
Si Si2 0.276493 0.810754 0.634662
Si Si3 0.000000 0.672645 0.765771
Si Si4 0.296054 0.000000 0.437808
Si Si5 0.711662 0.799753 0.113614
O O1 0.363148 0.866796 0.500000
O O2 0.401771 0.866286 0.401771
O O3 0.295417 0.845893 0.418763
O O4 0.335158 0.947000 0.429265
O O5 0.243348 0.756652 0.613628
O O6 0.329208 0.790668 0.670792
O O7 0.237938 0.849586 0.671718
O O8 0.000000 0.607127 0.753071
O O9 0.947726 0.686710 0.804160
O O10 0.000000 0.707787 0.707787
O O11 0.269379 0.000000 0.500000
O O12 0.773017 0.773017 0.112345
O O13 0.716227 0.861646 0.138355
#
# Coordination Sequence:
#
# PCOD8331121 Si02
#       5
#    48  48  24  24  48
#     4  10  19  29  41  55  73  99 128 159 192 225
#     4   9  16  26  40  58  79 100 121 148 187 231
#     4  10  16  26  44  59  77 105 134 160 190 232
#     4  10  18  28  41  55  74 100 128 161 194 227
#     4   9  16  25  40  61  83 104 127 158 193 231
#
# _framework density 13.888889000000001
#
# number of rings (size 3 to 8) (size 9 to 14) (size 15 to 20)
#    0.000    2.500    2.500    1.625    0.000    2.750 
#    0.000    0.000    0.000    3.375    0.000    0.000 
#    0.000    0.000    0.000    1.125    0.000    0.000 
#
# Total GULP energy -2380114.994837 kJ/mol
# GULP energy per Si atom -12396.432265 kJ/mol
# Density = 1.385728 g / cm^3
# Si number density = 13.888889 Si / 1000 Ang^3
#
#
#
# Elastic Constant Matrix: (Units=GPa)
#
#
# Indices 1 2 3 4 5 6 
#
# 1 56.7618 34.7210 34.7210 0.0000 0.0000 0.0000
# 2 34.7210 56.7618 34.7210 0.0000 0.0000 0.0000
# 3 34.7210 34.7210 56.7618 0.0000 0.0000 0.0000
# 4 0.0000 0.0000 0.0000 2.6662 0.0000 0.0000
# 5 0.0000 0.0000 0.0000 0.0000 2.6662 0.0000
# 6 0.0000 0.0000 0.0000 0.0000 0.0000 2.6662
#
#
#
# Elastic Compliance Matrix: (Units=1/GPa)
#
#
# Indices 1 2 3 4 5 6 
#
# 1 0.032888 -0.012482 -0.012482 0.000000 0.000000 0.000000
# 2 -0.012482 0.032888 -0.012482 0.000000 0.000000 0.000000
# 3 -0.012482 -0.012482 0.032888 0.000000 0.000000 0.000000
# 4 0.000000 0.000000 0.000000 0.375072 0.000000 0.000000
# 5 0.000000 0.000000 0.000000 0.000000 0.375072 0.000000
# 6 0.000000 0.000000 0.000000 0.000000 0.000000 0.375072
#
#
# Mechanical properties :
#
#
# Convention : Reuss Voigt Hill
#
# Bulk Modulus (GPa) = 42.06796 42.06796 42.06796
# Shear Modulus (GPa) = 3.82644 6.00786 4.91715
#
# Velocity S-wave (km/s) = 1.66163 2.08208 1.88362
# Velocity P-wave (km/s) = 5.83404 6.01122 5.92329
#
# Compressibility (1/GPa) = 0.02377106
#
# Stress axis : x y z
#
# Youngs Moduli (GPa) = 30.40611 30.40611 30.40611
#
# Poissons Ratio (x) = 0.37954 0.37954
# Poissons Ratio (y) = 0.37954 0.37954
# Poissons Ratio (z) = 0.37954 0.37954
#
# Static dielectric constant tensor:
#      x y z
#    x 2.654420 0.000000 0.000000 
#    y 0.000000 2.654420 0.000000 
#    z 0.000000 0.000000 2.654420 
# 
# 
# High freq. dielectric constant tensor:
#      x y z
#    x 1.509810 0.000000 0.000000 
#    y 0.000000 1.509810 0.000000 
#    z 0.000000 0.000000 1.509810 
# 
# From -- ./inp_files/631.got.cif
#   From: 2010.03.12/outbox.ucp.g09.slc.cvg/sg221_cif.got.tgz:631.got - 2010.05.04 20:51:01.
