data_PCOD8331069
_publ_section_title
;
Structure prediction by ZEFSAII (Michael W. Deem and Ramdas Pophale) SiO2 
 PCOD8331069
Probable space group: P -4 3 N
;
_chemical_formula_sum "Si O2"
_cell_formula_units_Z 82
_cell_length_a 15.692412
_cell_length_b 15.692412
_cell_length_c 15.692412
_cell_angle_alpha 90.000000
_cell_angle_beta 90.000000
_cell_angle_gamma 90.000000
_cell_volume 3864.284613
_symmetry_space_group_name_H-M "P -4 3 N"
_symmetry_group_IT_number 218
_symmetry_cell_setting 'cubic'
loop_
_space_group_symop_operation_xyz
x,y,z
1/2+y,1/2-x,1/2-z
-x,-y,z
1/2-y,1/2+x,1/2-z
1/2-x,1/2+z,1/2-y
x,-y,-z
1/2-x,1/2-z,1/2+y
1/2-z,1/2-y,1/2+x
-x,y,-z
1/2+z,1/2-y,1/2-x
z,x,y
y,z,x
-y,-z,x
z,-x,-y
-y,z,-x
-z,-x,y
-z,x,-y
y,-z,-x
1/2-y,1/2-x,1/2+z
1/2+y,1/2+x,1/2+z
1/2+x,1/2-z,1/2-y
1/2+x,1/2+z,1/2+y
1/2-z,1/2+y,1/2-x
1/2+z,1/2+y,1/2+x
loop_
_atom_site_type_symbol
_atom_site_label
_atom_site_fract_x
_atom_site_fract_y
_atom_site_fract_z
Si Si1 0.891136 0.793371 0.457039
Si Si2 0.000000 0.000000 0.000000
Si Si3 0.321469 0.932648 0.922422
Si Si4 0.116647 0.883354 0.116647
Si Si5 0.715439 0.267839 0.505793
O O1 0.912954 0.787285 0.558337
O O2 0.924189 0.881283 0.415733
O O3 0.790066 0.782226 0.444249
O O4 0.941770 0.058231 0.058232
O O5 0.296654 0.835587 0.945389
O O6 0.252919 0.959460 0.851115
O O7 0.323761 0.000000 0.000000
O O8 0.069840 0.796623 0.141436
#
# Coordination Sequence:
#
# PCOD8331069 Si02
#       5
#    24   2  24   8  24
#     4   9  22  45  68  91 136 181 231 282 350 408
#     4  12  24  36  60 100 152 178 240 300 324 484
#     4  11  22  42  70 103 137 180 230 285 353 423
#     4  12  21  36  63 100 143 181 222 282 369 391
#     4  11  22  39  67 101 137 176 229 282 346 420
#
# _framework density 21.219968000000001
#
# number of rings (size 3 to 8) (size 9 to 14) (size 15 to 20)
#    0.000    1.463    2.927    2.341    0.000    4.683 
#    5.268   11.707    0.000    0.000    0.000    0.000 
#    0.000    0.000    0.000    0.000    0.000    0.000 
#
# Total GULP energy -1016121.110469 kJ/mol
# GULP energy per Si atom -12391.720859 kJ/mol
# Density = 2.117167 g / cm^3
# Si number density = 21.219968 Si / 1000 Ang^3
#
#
#
# Elastic Constant Matrix: (Units=GPa)
#
#
# Indices 1 2 3 4 5 6 
#
# 1 119.1394 52.0581 52.0583 0.0000 0.0000 0.0000
# 2 52.0581 119.1394 52.0583 0.0000 0.0000 0.0000
# 3 52.0583 52.0583 119.1402 0.0000 0.0000 0.0000
# 4 0.0000 0.0000 0.0000 37.4299 0.0000 0.0000
# 5 0.0000 0.0000 0.0000 0.0000 37.4299 0.0000
# 6 0.0000 0.0000 0.0000 0.0000 0.0000 37.4295
#
#
#
# Elastic Compliance Matrix: (Units=1/GPa)
#
#
# Indices 1 2 3 4 5 6 
#
# 1 0.011431 -0.003476 -0.003476 0.000000 0.000000 0.000000
# 2 -0.003476 0.011431 -0.003476 0.000000 0.000000 0.000000
# 3 -0.003476 -0.003476 0.011431 0.000000 0.000000 0.000000
# 4 0.000000 0.000000 0.000000 0.026717 0.000000 0.000000
# 5 0.000000 0.000000 0.000000 0.000000 0.026717 0.000000
# 6 0.000000 0.000000 0.000000 0.000000 0.000000 0.026717
#
#
# Mechanical properties :
#
#
# Convention : Reuss Voigt Hill
#
# Bulk Modulus (GPa) = 74.41874 74.41874 74.41874
# Shear Modulus (GPa) = 35.77073 35.87416 35.82245
#
# Velocity S-wave (km/s) = 4.11020 4.11613 4.11317
# Velocity P-wave (km/s) = 7.59416 7.59844 7.59630
#
# Compressibility (1/GPa) = 0.01343748
#
# Stress axis : x y z
#
# Youngs Moduli (GPa) = 87.47954 87.47954 87.48012
#
# Poissons Ratio (x) = 0.30408 0.30408
# Poissons Ratio (y) = 0.30408 0.30408
# Poissons Ratio (z) = 0.30408 0.30408
#
# Static dielectric constant tensor:
#      x y z
#    x 3.877090 0.000000 0.000000 
#    y 0.000000 3.877090 0.000000 
#    z 0.000000 0.000000 3.877080 
# 
# 
# High freq. dielectric constant tensor:
#      x y z
#    x 1.829330 0.000000 0.000000 
#    y 0.000000 1.829330 0.000000 
#    z 0.000000 0.000000 1.829330 
# 
# From -- ./inp_files/511.got.cif
#   From: 2010.03.12/outbox.cif.g09.slc.cpg/sg218_cif.got.tgz:511.got - 2010.03.30 09:07:27.
