data_PCOD8331049
_publ_section_title
;
Structure prediction by ZEFSAII (Michael W. Deem and Ramdas Pophale) SiO2 
 PCOD8331049
Probable space group: F -4 3 M
;
_chemical_formula_sum "Si O2"
_cell_formula_units_Z 176
_cell_length_a 21.554149
_cell_length_b 21.554149
_cell_length_c 21.554149
_cell_angle_alpha 90.000000
_cell_angle_beta 90.000000
_cell_angle_gamma 90.000000
_cell_volume 10013.655406
_symmetry_space_group_name_H-M "F -4 3 M"
_symmetry_group_IT_number 216
_symmetry_cell_setting 'cubic'
loop_
_space_group_symop_operation_xyz
x,y,z
y,-x,-z
-x,-y,z
-y,x,-z
-x,z,-y
x,-y,-z
-x,-z,y
-z,-y,x
-x,y,-z
z,-y,-x
z,x,y
y,z,x
-y,-z,x
z,-x,-y
-y,z,-x
-z,-x,y
-z,x,-y
y,-z,-x
-y,-x,z
y,x,z
x,-z,-y
x,z,y
-z,y,-x
z,y,x
x,1/2+y,1/2+z
y,1/2-x,1/2-z
-x,1/2-y,1/2+z
-y,1/2+x,1/2-z
-x,1/2+z,1/2-y
x,1/2-y,1/2-z
-x,1/2-z,1/2+y
-z,1/2-y,1/2+x
-x,1/2+y,1/2-z
z,1/2-y,1/2-x
z,1/2+x,1/2+y
y,1/2+z,1/2+x
-y,1/2-z,1/2+x
z,1/2-x,1/2-y
-y,1/2+z,1/2-x
-z,1/2-x,1/2+y
-z,1/2+x,1/2-y
y,1/2-z,1/2-x
-y,1/2-x,1/2+z
y,1/2+x,1/2+z
x,1/2-z,1/2-y
x,1/2+z,1/2+y
-z,1/2+y,1/2-x
z,1/2+y,1/2+x
1/2+x,y,1/2+z
1/2+y,-x,1/2-z
1/2-x,-y,1/2+z
1/2-y,x,1/2-z
1/2-x,z,1/2-y
1/2+x,-y,1/2-z
1/2-x,-z,1/2+y
1/2-z,-y,1/2+x
1/2-x,y,1/2-z
1/2+z,-y,1/2-x
1/2+z,x,1/2+y
1/2+y,z,1/2+x
1/2-y,-z,1/2+x
1/2+z,-x,1/2-y
1/2-y,z,1/2-x
1/2-z,-x,1/2+y
1/2-z,x,1/2-y
1/2+y,-z,1/2-x
1/2-y,-x,1/2+z
1/2+y,x,1/2+z
1/2+x,-z,1/2-y
1/2+x,z,1/2+y
1/2-z,y,1/2-x
1/2+z,y,1/2+x
1/2+x,1/2+y,z
1/2+y,1/2-x,-z
1/2-x,1/2-y,z
1/2-y,1/2+x,-z
1/2-x,1/2+z,-y
1/2+x,1/2-y,-z
1/2-x,1/2-z,y
1/2-z,1/2-y,x
1/2-x,1/2+y,-z
1/2+z,1/2-y,-x
1/2+z,1/2+x,y
1/2+y,1/2+z,x
1/2-y,1/2-z,x
1/2+z,1/2-x,-y
1/2-y,1/2+z,-x
1/2-z,1/2-x,y
1/2-z,1/2+x,-y
1/2+y,1/2-z,-x
1/2-y,1/2-x,z
1/2+y,1/2+x,z
1/2+x,1/2-z,-y
1/2+x,1/2+z,y
1/2-z,1/2+y,-x
1/2+z,1/2+y,x
loop_
_atom_site_type_symbol
_atom_site_label
_atom_site_fract_x
_atom_site_fract_y
_atom_site_fract_z
Si Si1 0.953495 0.546506 0.453495
Si Si2 0.868712 0.868712 0.131289
Si Si3 0.897561 0.204924 0.499210
Si Si4 0.799998 0.299998 0.527721
O O1 0.913829 0.500000 0.500000
O O2 0.911658 0.588343 0.411658
O O3 0.825613 0.825613 0.091309
O O4 0.856008 0.143993 0.508909
O O5 0.940611 0.213786 0.559390
O O6 0.855109 0.266455 0.489351
O O7 0.937542 0.196163 0.437542
O O8 0.750000 0.250000 0.548630
#
# Coordination Sequence:
#
# PCOD8331049 Si02
#       4
#    16  16  96  48
#     4   6  18  36  48  90 114 138 174 228 267 366
#     4  12  18  36  60  72 114 156 180 225 282 312
#     4  10  20  36  56  80 108 139 176 222 270 323
#     4  10  22  36  52  80 108 142 188 221 263 324
#
# _framework density 17.575997999999998
#
# number of rings (size 3 to 8) (size 9 to 14) (size 15 to 20)
#    0.545    1.636    2.727    1.091    0.000    2.182 
#    3.273    0.000    0.000    4.364    0.000    0.000 
#    0.000    0.000    0.000    0.000    0.000    0.000 
#
# Total GULP energy -545223.427564 kJ/mol
# GULP energy per Si atom -12391.441536 kJ/mol
# Density = 1.753599 g / cm^3
# Si number density = 17.575998 Si / 1000 Ang^3
#
#
#
# Elastic Constant Matrix: (Units=GPa)
#
#
# Indices 1 2 3 4 5 6 
#
# 1 94.3738 41.8276 41.8276 0.0000 0.0000 0.0000
# 2 41.8276 94.3736 41.8276 0.0000 0.0000 0.0000
# 3 41.8276 41.8276 94.3734 0.0000 0.0000 0.0000
# 4 0.0000 0.0000 0.0000 24.7104 0.0000 0.0000
# 5 0.0000 0.0000 0.0000 0.0000 24.7103 0.0000
# 6 0.0000 0.0000 0.0000 0.0000 0.0000 24.7121
#
#
#
# Elastic Compliance Matrix: (Units=1/GPa)
#
#
# Indices 1 2 3 4 5 6 
#
# 1 0.014560 -0.004471 -0.004471 0.000000 0.000000 0.000000
# 2 -0.004471 0.014560 -0.004471 0.000000 0.000000 0.000000
# 3 -0.004471 -0.004471 0.014560 0.000000 0.000000 0.000000
# 4 0.000000 0.000000 0.000000 0.040469 0.000000 0.000000
# 5 0.000000 0.000000 0.000000 0.000000 0.040469 0.000000
# 6 0.000000 0.000000 0.000000 0.000000 0.000000 0.040466
#
#
# Mechanical properties :
#
#
# Convention : Reuss Voigt Hill
#
# Bulk Modulus (GPa) = 59.34293 59.34293 59.34293
# Shear Modulus (GPa) = 25.31292 25.33575 25.32434
#
# Velocity S-wave (km/s) = 3.79911 3.80082 3.79997
# Velocity P-wave (km/s) = 7.28569 7.28688 7.28628
#
# Compressibility (1/GPa) = 0.01685121
#
# Stress axis : x y z
#
# Youngs Moduli (GPa) = 68.68314 68.68300 68.68277
#
# Poissons Ratio (x) = 0.30710 0.30710
# Poissons Ratio (y) = 0.30710 0.30710
# Poissons Ratio (z) = 0.30710 0.30710
#
# Static dielectric constant tensor:
#      x y z
#    x 3.313600 0.000000 0.000000 
#    y 0.000000 3.313610 0.000000 
#    z 0.000000 0.000000 3.313610 
# 
# 
# High freq. dielectric constant tensor:
#      x y z
#    x 1.680230 0.000000 0.000000 
#    y 0.000000 1.680230 0.000000 
#    z 0.000000 0.000000 1.680230 
# 
# From -- ./inp_files/609.got.cif
#   From: 2010.03.12/outbox.cif.g09.slc.cpg/sg216_cif.got.tgz:609.got - 2010.03.30 09:06:55.
