data_PCOD8331074
_publ_section_title
;
Structure prediction by ZEFSAII (Michael W. Deem and Ramdas Pophale) SiO2 
 PCOD8331074
Probable space group: P -4 3 N
;
_chemical_formula_sum "Si O2"
_cell_formula_units_Z 46
_cell_length_a 13.252275
_cell_length_b 13.252275
_cell_length_c 13.252275
_cell_angle_alpha 90.000000
_cell_angle_beta 90.000000
_cell_angle_gamma 90.000000
_cell_volume 2327.401545
_symmetry_space_group_name_H-M "P -4 3 N"
_symmetry_group_IT_number 218
_symmetry_cell_setting 'cubic'
loop_
_space_group_symop_operation_xyz
x,y,z
1/2+y,1/2-x,1/2-z
-x,-y,z
1/2-y,1/2+x,1/2-z
1/2-x,1/2+z,1/2-y
x,-y,-z
1/2-x,1/2-z,1/2+y
1/2-z,1/2-y,1/2+x
-x,y,-z
1/2+z,1/2-y,1/2-x
z,x,y
y,z,x
-y,-z,x
z,-x,-y
-y,z,-x
-z,-x,y
-z,x,-y
y,-z,-x
1/2-y,1/2-x,1/2+z
1/2+y,1/2+x,1/2+z
1/2+x,1/2-z,1/2-y
1/2+x,1/2+z,1/2+y
1/2-z,1/2+y,1/2-x
1/2+z,1/2+y,1/2+x
loop_
_atom_site_type_symbol
_atom_site_label
_atom_site_fract_x
_atom_site_fract_y
_atom_site_fract_z
Si Si1 0.838224 0.838224 0.161778
Si Si2 0.000000 0.750000 0.500000
Si Si3 0.985516 0.884698 0.692777
Si Si4 0.299344 0.700658 0.700657
O O1 0.769418 0.769417 0.230584
O O2 0.945386 0.857212 0.212636
O O3 0.017561 0.818297 0.597569
O O4 0.870617 0.864825 0.726052
O O5 0.000000 0.000000 0.660104
#
# Coordination Sequence:
#
# PCOD8331074 Si02
#       4
#     8   6  24   8
#     4  12  24  42  67  95 133 177 219 277 338 397
#     4  12  26  44  64  98 144 172 222 272 340 438
#     4  12  25  42  69 100 129 176 229 277 338 404
#     4  12  24  42  67  95 133 177 219 277 338 397
#
# _framework density 19.764531999999999
#
# number of rings (size 3 to 8) (size 9 to 14) (size 15 to 20)
#    0.000    0.000   10.435    0.783    0.000    0.000 
#    0.000    2.609    0.000    0.000    0.000    0.000 
#    0.000    0.000    0.000    0.000    0.000    0.000 
#
# Total GULP energy -570796.146548 kJ/mol
# GULP energy per Si atom -12408.611881 kJ/mol
# Density = 1.971955 g / cm^3
# Si number density = 19.764532 Si / 1000 Ang^3
#
#
#
# Elastic Constant Matrix: (Units=GPa)
#
#
# Indices 1 2 3 4 5 6 
#
# 1 86.6625 12.7170 12.7162 0.0000 0.0000 0.0000
# 2 12.7170 86.6625 12.7162 0.0000 0.0000 0.0000
# 3 12.7162 12.7162 86.6625 0.0000 0.0000 0.0000
# 4 0.0000 0.0000 0.0000 32.0319 0.0000 0.0000
# 5 0.0000 0.0000 0.0000 0.0000 32.0319 0.0000
# 6 0.0000 0.0000 0.0000 0.0000 0.0000 32.0320
#
#
#
# Elastic Compliance Matrix: (Units=1/GPa)
#
#
# Indices 1 2 3 4 5 6 
#
# 1 0.011989 -0.001534 -0.001534 0.000000 0.000000 0.000000
# 2 -0.001534 0.011989 -0.001534 0.000000 0.000000 0.000000
# 3 -0.001534 -0.001534 0.011989 0.000000 0.000000 0.000000
# 4 0.000000 0.000000 0.000000 0.031219 0.000000 0.000000
# 5 0.000000 0.000000 0.000000 0.000000 0.031219 0.000000
# 6 0.000000 0.000000 0.000000 0.000000 0.000000 0.031219
#
#
# Mechanical properties :
#
#
# Convention : Reuss Voigt Hill
#
# Bulk Modulus (GPa) = 37.36514 37.36514 37.36514
# Shear Modulus (GPa) = 33.84095 34.00838 33.92467
#
# Velocity S-wave (km/s) = 4.14237 4.15260 4.14749
# Velocity P-wave (km/s) = 6.46724 6.47598 6.47161
#
# Compressibility (1/GPa) = 0.02676291
#
# Stress axis : x y z
#
# Youngs Moduli (GPa) = 83.40800 83.40800 83.40826
#
# Poissons Ratio (x) = 0.12797 0.12796
# Poissons Ratio (y) = 0.12797 0.12796
# Poissons Ratio (z) = 0.12796 0.12796
#
# Static dielectric constant tensor:
#      x y z
#    x 3.683090 0.000000 0.000000 
#    y 0.000000 3.683090 0.000000 
#    z 0.000000 0.000000 3.683150 
# 
# 
# High freq. dielectric constant tensor:
#      x y z
#    x 1.780440 0.000000 0.000000 
#    y 0.000000 1.780440 0.000000 
#    z 0.000000 0.000000 1.780450 
# 
# From -- ./inp_files/233.got.cif
#   From: 2010.03.12/outbox.cif.g09.slc.cpg/sg218_cif.got.tgz:233.got - 2010.03.30 09:07:27.
