data_PCOD8331039
_publ_section_title
;
Structure prediction by ZEFSAII (Michael W. Deem and Ramdas Pophale) SiO2 
 PCOD8331039
Probable space group: P -4 3 M
;
_chemical_formula_sum "Si O2"
_cell_formula_units_Z 168
_cell_length_a 21.419406
_cell_length_b 21.419406
_cell_length_c 21.419406
_cell_angle_alpha 90.000000
_cell_angle_beta 90.000000
_cell_angle_gamma 90.000000
_cell_volume 9827.029700
_symmetry_space_group_name_H-M "P -4 3 M"
_symmetry_group_IT_number 215
_symmetry_cell_setting 'cubic'
loop_
_space_group_symop_operation_xyz
x,y,z
y,-x,-z
-x,-y,z
-y,x,-z
-x,z,-y
x,-y,-z
-x,-z,y
-z,-y,x
-x,y,-z
z,-y,-x
z,x,y
y,z,x
-y,-z,x
z,-x,-y
-y,z,-x
-z,-x,y
-z,x,-y
y,-z,-x
-y,-x,z
y,x,z
x,-z,-y
x,z,y
-z,y,-x
z,y,x
loop_
_atom_site_type_symbol
_atom_site_label
_atom_site_fract_x
_atom_site_fract_y
_atom_site_fract_z
Si Si1 0.260424 0.358432 0.837118
Si Si2 0.465285 0.942389 0.156069
Si Si3 0.062471 0.837334 0.324448
Si Si4 0.278813 0.177804 0.074978
Si Si5 0.599587 0.070864 0.502846
Si Si6 0.741125 0.840421 0.360643
Si Si7 0.127479 0.496494 0.729324
O O1 0.330656 0.330656 0.835201
O O2 0.222517 0.333385 0.777484
O O3 0.227466 0.330509 0.899330
O O4 0.257465 0.433967 0.832233
O O5 0.482992 0.878056 0.121944
O O6 0.393732 0.959415 0.146393
O O7 0.490035 0.933622 0.226978
O O8 0.500000 0.000000 0.124387
O O9 0.107469 0.892532 0.297743
O O10 0.999870 0.832136 0.283271
O O11 0.214673 0.214673 0.088928
O O12 0.276940 0.111535 0.111535
O O13 0.337057 0.219916 0.099063
O O14 0.548751 0.085816 0.451250
O O15 0.570961 0.085065 0.570961
O O16 0.657299 0.113684 0.490267
O O17 0.621928 0.000000 0.500000
O O18 0.778215 0.778215 0.339972
O O19 0.672831 0.839422 0.327170
O O20 0.738084 0.840085 0.436151
#
# Coordination Sequence:
#
# PCOD8331039 Si02
#       7
#    24  24  24  24  24  24  24
#     4  10  20  34  51  70  94 123 156 194 237 286
#     4  10  20  32  45  64  91 120 152 188 225 269
#     4   9  19  33  49  71  95 121 155 193 233 280
#     4  10  20  34  52  73  97 125 158 196 238 283
#     4   9  18  31  45  64  92 124 157 191 228 274
#     4  10  20  33  49  69  95 127 162 199 239 284
#     4  11  19  31  48  70  93 119 155 197 238 274
#
# _framework density 17.095704000000001
#
# number of rings (size 3 to 8) (size 9 to 14) (size 15 to 20)
#    0.000    2.143    0.000    5.571    0.000    4.429 
#    0.000    4.286    0.000    0.286    0.000    0.000 
#    0.000    0.000    0.000    0.000    0.000    0.286 
#
# Total GULP energy -2081490.197800 kJ/mol
# GULP energy per Si atom -12389.822606 kJ/mol
# Density = 1.705679 g / cm^3
# Si number density = 17.095704 Si / 1000 Ang^3
#
#
#
# Elastic Constant Matrix: (Units=GPa)
#
#
# Indices 1 2 3 4 5 6 
#
# 1 83.9323 27.7832 27.7832 0.0000 0.0000 0.0000
# 2 27.7832 83.9323 27.7832 0.0000 0.0000 0.0000
# 3 27.7832 27.7832 83.9323 0.0000 0.0000 0.0000
# 4 0.0000 0.0000 0.0000 13.8944 0.0000 0.0000
# 5 0.0000 0.0000 0.0000 0.0000 13.8944 0.0000
# 6 0.0000 0.0000 0.0000 0.0000 0.0000 13.8944
#
#
#
# Elastic Compliance Matrix: (Units=1/GPa)
#
#
# Indices 1 2 3 4 5 6 
#
# 1 0.014263 -0.003547 -0.003547 0.000000 0.000000 0.000000
# 2 -0.003547 0.014263 -0.003547 0.000000 0.000000 0.000000
# 3 -0.003547 -0.003547 0.014263 0.000000 0.000000 0.000000
# 4 0.000000 0.000000 0.000000 0.071972 0.000000 0.000000
# 5 0.000000 0.000000 0.000000 0.000000 0.071972 0.000000
# 6 0.000000 0.000000 0.000000 0.000000 0.000000 0.071972
#
#
# Mechanical properties :
#
#
# Convention : Reuss Voigt Hill
#
# Bulk Modulus (GPa) = 46.49958 46.49958 46.49958
# Shear Modulus (GPa) = 17.41229 19.56645 18.48937
#
# Velocity S-wave (km/s) = 3.19489 3.38675 3.29222
# Velocity P-wave (km/s) = 6.39284 6.52320 6.45834
#
# Compressibility (1/GPa) = 0.02150557
#
# Stress axis : x y z
#
# Youngs Moduli (GPa) = 70.11317 70.11317 70.11317
#
# Poissons Ratio (x) = 0.24870 0.24870
# Poissons Ratio (y) = 0.24870 0.24870
# Poissons Ratio (z) = 0.24870 0.24870
#
# Static dielectric constant tensor:
#      x y z
#    x 3.084950 0.000000 0.000000 
#    y 0.000000 3.084950 0.000000 
#    z 0.000000 0.000000 3.084950 
# 
# 
# High freq. dielectric constant tensor:
#      x y z
#    x 1.651500 0.000000 0.000000 
#    y 0.000000 1.651500 0.000000 
#    z 0.000000 0.000000 1.651500 
# 
# From -- ./inp_files/916.got.cif
#   From: 2010.03.12/outbox.cif.g09.slc.cpg/sg215_cif.got.tgz:916.got - 2010.03.30 09:06:09.
