data_PCOD8331050
_publ_section_title
;
Structure prediction by ZEFSAII (Michael W. Deem and Ramdas Pophale) SiO2 
 PCOD8331050
Probable space group: I -4 3 M 
;
_chemical_formula_sum "Si O2"
_cell_formula_units_Z 312
_cell_length_a 27.695824
_cell_length_b 27.695824
_cell_length_c 27.695824
_cell_angle_alpha 90.000000
_cell_angle_beta 90.000000
_cell_angle_gamma 90.000000
_cell_volume 21244.321840
_symmetry_space_group_name_H-M "I -4 3 M "
_symmetry_group_IT_number 217
_symmetry_cell_setting 'cubic'
loop_
_space_group_symop_operation_xyz
x,y,z
y,-x,-z
-x,-y,z
-y,x,-z
-x,z,-y
x,-y,-z
-x,-z,y
-z,-y,x
-x,y,-z
z,-y,-x
z,x,y
y,z,x
-y,-z,x
z,-x,-y
-y,z,-x
-z,-x,y
-z,x,-y
y,-z,-x
-y,-x,z
y,x,z
x,-z,-y
x,z,y
-z,y,-x
z,y,x
1/2+x,1/2+y,1/2+z
1/2+y,1/2-x,1/2-z
1/2-x,1/2-y,1/2+z
1/2-y,1/2+x,1/2-z
1/2-x,1/2+z,1/2-y
1/2+x,1/2-y,1/2-z
1/2-x,1/2-z,1/2+y
1/2-z,1/2-y,1/2+x
1/2-x,1/2+y,1/2-z
1/2+z,1/2-y,1/2-x
1/2+z,1/2+x,1/2+y
1/2+y,1/2+z,1/2+x
1/2-y,1/2-z,1/2+x
1/2+z,1/2-x,1/2-y
1/2-y,1/2+z,1/2-x
1/2-z,1/2-x,1/2+y
1/2-z,1/2+x,1/2-y
1/2+y,1/2-z,1/2-x
1/2-y,1/2-x,1/2+z
1/2+y,1/2+x,1/2+z
1/2+x,1/2-z,1/2-y
1/2+x,1/2+z,1/2+y
1/2-z,1/2+y,1/2-x
1/2+z,1/2+y,1/2+x
loop_
_atom_site_type_symbol
_atom_site_label
_atom_site_fract_x
_atom_site_fract_y
_atom_site_fract_z
Si Si1 0.331506 0.042047 0.407594
Si Si2 0.500000 0.635517 0.000000
Si Si3 0.386197 0.098798 0.536038
Si Si4 0.888981 0.385349 0.308375
Si Si5 0.939104 0.646798 0.862495
Si Si6 0.760388 0.316152 0.054608
Si Si7 0.446952 0.832807 0.243580
O O1 0.369149 0.018566 0.369149
O O2 0.347450 0.095578 0.419206
O O3 0.278338 0.042217 0.385585
O O4 0.329679 0.009466 0.454896
O O5 0.489887 0.602484 0.047294
O O6 0.432567 0.114832 0.567434
O O7 0.339362 0.089584 0.570026
O O8 0.376317 0.140459 0.495905
O O9 0.870580 0.343413 0.343413
O O10 0.927803 0.363227 0.270256
O O11 0.840364 0.405047 0.282816
O O12 0.908515 0.666666 0.908515
O O13 0.929094 0.682033 0.816425
O O14 0.732688 0.267313 0.072668
O O15 0.764763 0.313743 0.996834
O O16 0.425869 0.796851 0.203150
#
# Coordination Sequence:
#
# PCOD8331050 Si02
#       7
#    48  24  48  48  48  48  48
#     4   9  17  28  41  58  80 109 141 178 218 257
#     4  10  18  28  41  57  80 114 152 184 219 259
#     4  10  20  33  45  61  85 113 148 187 222 261
#     4  10  19  31  47  66  89 112 138 176 223 263
#     4  10  19  31  46  63  84 111 142 176 216 259
#     4  10  19  30  46  67  86 110 142 176 215 262
#     4  10  18  30  47  64  85 109 140 177 219 265
#
# _framework density 14.686277
#
# number of rings (size 3 to 8) (size 9 to 14) (size 15 to 20)
#    0.000    2.154    3.077    1.385    0.000    3.385 
#    0.000    0.769    0.000    3.615    0.000    0.000 
#    0.000    0.000    0.000    0.000    0.000    0.000 
#
# Total GULP energy -1932938.828992 kJ/mol
# GULP energy per Si atom -12390.633519 kJ/mol
# Density = 1.465285 g / cm^3
# Si number density = 14.686277 Si / 1000 Ang^3
#
#
#
# Elastic Constant Matrix: (Units=GPa)
#
#
# Indices 1 2 3 4 5 6 
#
# 1 67.9820 31.4370 31.4370 0.0000 0.0000 0.0000
# 2 31.4370 67.9820 31.4370 0.0000 0.0000 0.0000
# 3 31.4370 31.4370 67.9820 0.0000 0.0000 0.0000
# 4 0.0000 0.0000 0.0000 16.2694 0.0000 0.0000
# 5 0.0000 0.0000 0.0000 0.0000 16.2694 0.0000
# 6 0.0000 0.0000 0.0000 0.0000 0.0000 16.2694
#
#
#
# Elastic Compliance Matrix: (Units=1/GPa)
#
#
# Indices 1 2 3 4 5 6 
#
# 1 0.020790 -0.006574 -0.006574 0.000000 0.000000 0.000000
# 2 -0.006574 0.020790 -0.006574 0.000000 0.000000 0.000000
# 3 -0.006574 -0.006574 0.020790 0.000000 0.000000 0.000000
# 4 0.000000 0.000000 0.000000 0.061465 0.000000 0.000000
# 5 0.000000 0.000000 0.000000 0.000000 0.061465 0.000000
# 6 0.000000 0.000000 0.000000 0.000000 0.000000 0.061465
#
#
# Mechanical properties :
#
#
# Convention : Reuss Voigt Hill
#
# Bulk Modulus (GPa) = 43.61865 43.61865 43.61865
# Shear Modulus (GPa) = 17.01553 17.07064 17.04309
#
# Velocity S-wave (km/s) = 3.40751 3.41303 3.41027
# Velocity P-wave (km/s) = 6.72654 6.73026 6.72840
#
# Compressibility (1/GPa) = 0.02292597
#
# Stress axis : x y z
#
# Youngs Moduli (GPa) = 48.10078 48.10078 48.10078
#
# Poissons Ratio (x) = 0.31621 0.31621
# Poissons Ratio (y) = 0.31621 0.31621
# Poissons Ratio (z) = 0.31621 0.31621
#
# Static dielectric constant tensor:
#      x y z
#    x 2.820140 0.000000 0.000000 
#    y 0.000000 2.820140 0.000000 
#    z 0.000000 0.000000 2.820140 
# 
# 
# High freq. dielectric constant tensor:
#      x y z
#    x 1.539760 0.000000 0.000000 
#    y 0.000000 1.539760 0.000000 
#    z 0.000000 0.000000 1.539760 
# 
# From -- ./inp_files/765.got.cif
#   From: 2010.03.12/outbox.cif.g09.slc.cpg/sg217_cif.got.tgz:765.got - 2010.03.30 09:07:03.
