data_PCOD8331064
_publ_section_title
;
Structure prediction by ZEFSAII (Michael W. Deem and Ramdas Pophale) SiO2 
 PCOD8331064
Probable space group: P -4 3 N
;
_chemical_formula_sum "Si O2"
_cell_formula_units_Z 120
_cell_length_a 17.547462
_cell_length_b 17.547462
_cell_length_c 17.547462
_cell_angle_alpha 90.000000
_cell_angle_beta 90.000000
_cell_angle_gamma 90.000000
_cell_volume 5403.099083
_symmetry_space_group_name_H-M "P -4 3 N"
_symmetry_group_IT_number 218
_symmetry_cell_setting 'cubic'
loop_
_space_group_symop_operation_xyz
x,y,z
1/2+y,1/2-x,1/2-z
-x,-y,z
1/2-y,1/2+x,1/2-z
1/2-x,1/2+z,1/2-y
x,-y,-z
1/2-x,1/2-z,1/2+y
1/2-z,1/2-y,1/2+x
-x,y,-z
1/2+z,1/2-y,1/2-x
z,x,y
y,z,x
-y,-z,x
z,-x,-y
-y,z,-x
-z,-x,y
-z,x,-y
y,-z,-x
1/2-y,1/2-x,1/2+z
1/2+y,1/2+x,1/2+z
1/2+x,1/2-z,1/2-y
1/2+x,1/2+z,1/2+y
1/2-z,1/2+y,1/2-x
1/2+z,1/2+y,1/2+x
loop_
_atom_site_type_symbol
_atom_site_label
_atom_site_fract_x
_atom_site_fract_y
_atom_site_fract_z
Si Si1 0.942587 0.071158 0.184500
Si Si2 0.155113 0.718802 0.391767
Si Si3 0.582223 0.846311 0.963542
Si Si4 0.354282 0.453328 0.150701
Si Si5 0.091325 0.663658 0.778299
O O1 0.966190 0.145049 0.132915
O O2 0.932566 0.108501 0.267692
O O3 0.000000 0.000000 0.186783
O O4 0.088385 0.774035 0.363824
O O5 0.131663 0.659588 0.458146
O O6 0.227015 0.763282 0.426903
O O7 0.179144 0.671830 0.317793
O O8 0.589135 0.923761 0.915417
O O9 0.595347 0.772585 0.911672
O O10 0.500000 0.844390 0.000000
O O11 0.649449 0.842138 0.026761
#
# Coordination Sequence:
#
# PCOD8331064 Si02
#       5
#    24  24  24  24  24
#     4  10  25  45  79 110 156 194 249 301 381 449
#     4  11  27  43  71 103 150 187 243 304 371 445
#     4  11  23  46  75  96 132 193 252 300 368 448
#     4  11  28  46  68 109 147 196 245 312 371 445
#     4  11  22  43  73  99 136 185 243 289 376 434
#
# _framework density 22.209475000000001
#
# number of rings (size 3 to 8) (size 9 to 14) (size 15 to 20)
#    0.400    0.800    2.000    2.000   14.000    0.400 
#    0.000    2.000    0.000    0.000    0.000    0.000 
#    0.000    0.000    0.000    0.000    0.000    0.000 
#
# Total GULP energy -1487246.670734 kJ/mol
# GULP energy per Si atom -12393.722256 kJ/mol
# Density = 2.215893 g / cm^3
# Si number density = 22.209475 Si / 1000 Ang^3
#
#
#
# Elastic Constant Matrix: (Units=GPa)
#
#
# Indices 1 2 3 4 5 6 
#
# 1 105.8092 50.4742 50.4742 0.0000 0.0000 0.0000
# 2 50.4742 105.8092 50.4742 0.0000 0.0000 0.0000
# 3 50.4742 50.4742 105.8092 0.0000 0.0000 0.0000
# 4 0.0000 0.0000 0.0000 33.5591 0.0000 0.0000
# 5 0.0000 0.0000 0.0000 0.0000 33.5591 0.0000
# 6 0.0000 0.0000 0.0000 0.0000 0.0000 33.5591
#
#
#
# Elastic Compliance Matrix: (Units=1/GPa)
#
#
# Indices 1 2 3 4 5 6 
#
# 1 0.013660 -0.004412 -0.004412 0.000000 0.000000 0.000000
# 2 -0.004412 0.013660 -0.004412 0.000000 0.000000 0.000000
# 3 -0.004412 -0.004412 0.013660 0.000000 0.000000 0.000000
# 4 0.000000 0.000000 0.000000 0.029798 0.000000 0.000000
# 5 0.000000 0.000000 0.000000 0.000000 0.029798 0.000000
# 6 0.000000 0.000000 0.000000 0.000000 0.000000 0.029798
#
#
# Mechanical properties :
#
#
# Convention : Reuss Voigt Hill
#
# Bulk Modulus (GPa) = 68.91919 68.91919 68.91919
# Shear Modulus (GPa) = 30.92496 31.20243 31.06369
#
# Velocity S-wave (km/s) = 3.73557 3.75229 3.74393
# Velocity P-wave (km/s) = 7.05016 7.06199 7.05608
#
# Compressibility (1/GPa) = 0.01450975
#
# Stress axis : x y z
#
# Youngs Moduli (GPa) = 73.20625 73.20625 73.20625
#
# Poissons Ratio (x) = 0.32297 0.32297
# Poissons Ratio (y) = 0.32297 0.32297
# Poissons Ratio (z) = 0.32297 0.32297
#
# Static dielectric constant tensor:
#      x y z
#    x 4.072860 0.000000 0.000000 
#    y 0.000000 4.072860 0.000000 
#    z 0.000000 0.000000 4.072860 
# 
# 
# High freq. dielectric constant tensor:
#      x y z
#    x 1.878040 0.000000 0.000000 
#    y 0.000000 1.878040 0.000000 
#    z 0.000000 0.000000 1.878040 
# 
# From -- ./inp_files/652.got.cif
#   From: 2010.03.12/outbox.cif.g09.slc.cpg/sg218_cif.got.tgz:652.got - 2010.03.30 09:07:27.
