data_PCOD8331060
_publ_section_title
;
Structure prediction by ZEFSAII (Michael W. Deem and Ramdas Pophale) SiO2 
 PCOD8331060
Probable space group: P -4 3 N
;
_chemical_formula_sum "Si O2"
_cell_formula_units_Z 94
_cell_length_a 17.136992
_cell_length_b 17.136992
_cell_length_c 17.136992
_cell_angle_alpha 90.000000
_cell_angle_beta 90.000000
_cell_angle_gamma 90.000000
_cell_volume 5032.731742
_symmetry_space_group_name_H-M "P -4 3 N"
_symmetry_group_IT_number 218
_symmetry_cell_setting 'cubic'
loop_
_space_group_symop_operation_xyz
x,y,z
1/2+y,1/2-x,1/2-z
-x,-y,z
1/2-y,1/2+x,1/2-z
1/2-x,1/2+z,1/2-y
x,-y,-z
1/2-x,1/2-z,1/2+y
1/2-z,1/2-y,1/2+x
-x,y,-z
1/2+z,1/2-y,1/2-x
z,x,y
y,z,x
-y,-z,x
z,-x,-y
-y,z,-x
-z,-x,y
-z,x,-y
y,-z,-x
1/2-y,1/2-x,1/2+z
1/2+y,1/2+x,1/2+z
1/2+x,1/2-z,1/2-y
1/2+x,1/2+z,1/2+y
1/2-z,1/2+y,1/2-x
1/2+z,1/2+y,1/2+x
loop_
_atom_site_type_symbol
_atom_site_label
_atom_site_fract_x
_atom_site_fract_y
_atom_site_fract_z
Si Si1 0.307366 0.934393 0.758261
Si Si2 0.104862 0.104862 0.104862
Si Si3 0.000000 0.626203 0.000000
Si Si4 0.632942 0.777758 0.583089
Si Si5 0.838275 0.577676 0.955667
Si Si6 0.500000 0.500000 0.500000
O O1 0.303670 0.866587 0.824981
O O2 0.222000 0.948802 0.720709
O O3 0.365240 0.917806 0.686372
O O4 0.342129 0.009156 0.803556
O O5 0.192559 0.096878 0.075448
O O6 0.052536 0.052536 0.052536
O O7 0.068669 0.574369 0.036344
O O8 0.969931 0.672152 0.075709
O O9 0.806246 0.500000 0.000000
#
# Coordination Sequence:
#
# PCOD8331060 Si02
#       6
#    24   8  12  24  24   2
#     4  10  19  36  61  80 112 157 198 235 291 367
#     4   9  18  33  51  78 115 149 199 246 291 354
#     4  10  22  36  56  84 120 146 182 251 302 337
#     4   9  20  36  54  84 117 150 193 251 298 341
#     4  11  20  38  60  82 114 157 196 238 300 357
#     4  12  18  24  60  78 100 176 214 228 312 402
#
# _framework density 18.677731000000001
#
# number of rings (size 3 to 8) (size 9 to 14) (size 15 to 20)
#    0.000    2.043    2.553    1.660    0.000    2.043 
#    0.000    0.000    0.000    4.085    0.000    0.000 
#    0.000    0.000    0.000    0.000    0.000    0.000 
#
# Total GULP energy -1164538.556680 kJ/mol
# GULP energy per Si atom -12388.708050 kJ/mol
# Density = 1.863522 g / cm^3
# Si number density = 18.677731 Si / 1000 Ang^3
#
#
#
# Elastic Constant Matrix: (Units=GPa)
#
#
# Indices 1 2 3 4 5 6 
#
# 1 117.6484 49.8014 49.8013 0.0000 0.0000 0.0000
# 2 49.8014 117.6484 49.8013 0.0000 0.0000 0.0000
# 3 49.8013 49.8013 117.6480 0.0000 0.0000 0.0000
# 4 0.0000 0.0000 0.0000 28.7787 0.0000 0.0000
# 5 0.0000 0.0000 0.0000 0.0000 28.7787 0.0000
# 6 0.0000 0.0000 0.0000 0.0000 0.0000 28.7786
#
#
#
# Elastic Compliance Matrix: (Units=1/GPa)
#
#
# Indices 1 2 3 4 5 6 
#
# 1 0.011360 -0.003379 -0.003379 0.000000 0.000000 0.000000
# 2 -0.003379 0.011360 -0.003379 0.000000 0.000000 0.000000
# 3 -0.003379 -0.003379 0.011360 0.000000 0.000000 0.000000
# 4 0.000000 0.000000 0.000000 0.034748 0.000000 0.000000
# 5 0.000000 0.000000 0.000000 0.000000 0.034748 0.000000
# 6 0.000000 0.000000 0.000000 0.000000 0.000000 0.034748
#
#
# Mechanical properties :
#
#
# Convention : Reuss Voigt Hill
#
# Bulk Modulus (GPa) = 72.41700 72.41700 72.41700
# Shear Modulus (GPa) = 30.63723 30.83659 30.73691
#
# Velocity S-wave (km/s) = 4.05447 4.06764 4.06106
# Velocity P-wave (km/s) = 7.79579 7.80493 7.80036
#
# Compressibility (1/GPa) = 0.01380891
#
# Stress axis : x y z
#
# Youngs Moduli (GPa) = 88.02544 88.02544 88.02511
#
# Poissons Ratio (x) = 0.29741 0.29741
# Poissons Ratio (y) = 0.29741 0.29741
# Poissons Ratio (z) = 0.29741 0.29741
#
# Static dielectric constant tensor:
#      x y z
#    x 3.445830 0.000000 0.000000 
#    y 0.000000 3.445830 0.000000 
#    z 0.000000 0.000000 3.445830 
# 
# 
# High freq. dielectric constant tensor:
#      x y z
#    x 1.723250 0.000000 0.000000 
#    y 0.000000 1.723250 0.000000 
#    z 0.000000 0.000000 1.723250 
# 
# From -- ./inp_files/571.got.cif
#   From: 2010.03.12/outbox.cif.g09.slc.cpg/sg218_cif.got.tgz:571.got - 2010.03.30 09:07:27.
