data_PCOD8331063
_publ_section_title
;
Structure prediction by ZEFSAII (Michael W. Deem and Ramdas Pophale) SiO2 
 PCOD8331063
Probable space group: P -4 3 N
;
_chemical_formula_sum "Si O2"
_cell_formula_units_Z 168
_cell_length_a 19.609707
_cell_length_b 19.609707
_cell_length_c 19.609707
_cell_angle_alpha 90.000000
_cell_angle_beta 90.000000
_cell_angle_gamma 90.000000
_cell_volume 7540.728665
_symmetry_space_group_name_H-M "P -4 3 N"
_symmetry_group_IT_number 218
_symmetry_cell_setting 'cubic'
loop_
_space_group_symop_operation_xyz
x,y,z
1/2+y,1/2-x,1/2-z
-x,-y,z
1/2-y,1/2+x,1/2-z
1/2-x,1/2+z,1/2-y
x,-y,-z
1/2-x,1/2-z,1/2+y
1/2-z,1/2-y,1/2+x
-x,y,-z
1/2+z,1/2-y,1/2-x
z,x,y
y,z,x
-y,-z,x
z,-x,-y
-y,z,-x
-z,-x,y
-z,x,-y
y,-z,-x
1/2-y,1/2-x,1/2+z
1/2+y,1/2+x,1/2+z
1/2+x,1/2-z,1/2-y
1/2+x,1/2+z,1/2+y
1/2-z,1/2+y,1/2-x
1/2+z,1/2+y,1/2+x
loop_
_atom_site_type_symbol
_atom_site_label
_atom_site_fract_x
_atom_site_fract_y
_atom_site_fract_z
Si Si1 0.944068 0.947179 0.841285
Si Si2 0.787987 0.588577 0.016164
Si Si3 0.923357 0.278972 0.150736
Si Si4 0.522608 0.114687 0.891358
Si Si5 0.770691 0.792290 0.675820
Si Si6 0.404834 0.921556 0.020027
Si Si7 0.217571 0.482454 0.777876
O O1 0.886816 0.983233 0.889956
O O2 0.900353 0.909862 0.783123
O O3 0.000000 0.000000 0.812887
O O4 0.718006 0.559750 0.054645
O O5 0.854065 0.567660 0.057237
O O6 0.781402 0.669938 0.013927
O O7 0.850940 0.307055 0.175111
O O8 0.964696 0.330401 0.103904
O O9 0.971777 0.260883 0.214348
O O10 0.448817 0.084928 0.910926
O O11 0.514461 0.185176 0.849390
O O12 0.564459 0.127627 0.961101
O O13 0.700617 0.803794 0.719658
O O14 0.754062 0.793270 0.595687
O O15 0.405043 0.000000 0.000000
#
# Coordination Sequence:
#
# PCOD8331063 Si02
#       7
#    24  24  24  24  24  24  24
#     4  10  23  48  79 107 136 181 236 306 385 455
#     4   9  21  36  62  97 129 175 232 288 335 421
#     4  12  25  46  66 108 143 187 245 293 372 450
#     4  10  22  42  65  99 140 180 239 288 357 416
#     4  10  25  46  71  92 141 188 235 289 376 437
#     4  11  25  40  69  96 143 191 235 308 352 422
#     4  11  25  42  70  99 141 187 240 294 359 432
#
# _framework density 22.279014
#
# number of rings (size 3 to 8) (size 9 to 14) (size 15 to 20)
#    0.571    1.000    1.429    2.429   14.000    0.000 
#    7.714    1.429    0.000    0.000    0.000    0.000 
#    0.000    0.000    0.000    0.000    0.000    0.000 
#
# Total GULP energy -2081946.481506 kJ/mol
# GULP energy per Si atom -12392.538580 kJ/mol
# Density = 2.222831 g / cm^3
# Si number density = 22.279014 Si / 1000 Ang^3
#
#
#
# Elastic Constant Matrix: (Units=GPa)
#
#
# Indices 1 2 3 4 5 6 
#
# 1 81.5791 15.4167 15.4167 0.0000 0.0000 0.0000
# 2 15.4167 81.5791 15.4167 0.0000 0.0000 0.0000
# 3 15.4167 15.4167 81.5791 0.0000 0.0000 0.0000
# 4 0.0000 0.0000 0.0000 26.1998 0.0000 0.0000
# 5 0.0000 0.0000 0.0000 0.0000 26.1998 0.0000
# 6 0.0000 0.0000 0.0000 0.0000 0.0000 26.1998
#
#
#
# Elastic Compliance Matrix: (Units=1/GPa)
#
#
# Indices 1 2 3 4 5 6 
#
# 1 0.013041 -0.002073 -0.002073 0.000000 0.000000 0.000000
# 2 -0.002073 0.013041 -0.002073 0.000000 0.000000 0.000000
# 3 -0.002073 -0.002073 0.013041 0.000000 0.000000 0.000000
# 4 0.000000 0.000000 0.000000 0.038168 0.000000 0.000000
# 5 0.000000 0.000000 0.000000 0.000000 0.038168 0.000000
# 6 0.000000 0.000000 0.000000 0.000000 0.000000 0.038168
#
#
# Mechanical properties :
#
#
# Convention : Reuss Voigt Hill
#
# Bulk Modulus (GPa) = 37.47084 37.47084 37.47084
# Shear Modulus (GPa) = 28.57764 28.95236 28.76500
#
# Velocity S-wave (km/s) = 3.58539 3.60882 3.59712
# Velocity P-wave (km/s) = 5.83056 5.84980 5.84019
#
# Compressibility (1/GPa) = 0.02668742
#
# Stress axis : x y z
#
# Youngs Moduli (GPa) = 76.67835 76.67835 76.67835
#
# Poissons Ratio (x) = 0.15894 0.15894
# Poissons Ratio (y) = 0.15894 0.15894
# Poissons Ratio (z) = 0.15894 0.15894
#
# Static dielectric constant tensor:
#      x y z
#    x 3.964960 0.000000 0.000000 
#    y 0.000000 3.964960 0.000000 
#    z 0.000000 0.000000 3.964960 
# 
# 
# High freq. dielectric constant tensor:
#      x y z
#    x 1.872830 0.000000 0.000000 
#    y 0.000000 1.872830 0.000000 
#    z 0.000000 0.000000 1.872830 
# 
# From -- ./inp_files/780.got.cif
#   From: 2010.03.12/outbox.cif.g09.slc.cpg/sg218_cif.got.tgz:780.got - 2010.03.30 09:07:27.
