data_PCOD8331024
_publ_section_title
;
Structure prediction by ZEFSAII (Michael W. Deem and Ramdas Pophale) SiO2 
 PCOD8331024
Probable space group: P -4 3 M
;
_chemical_formula_sum "Si O2"
_cell_formula_units_Z 168
_cell_length_a 21.123211
_cell_length_b 21.123211
_cell_length_c 21.123211
_cell_angle_alpha 90.000000
_cell_angle_beta 90.000000
_cell_angle_gamma 90.000000
_cell_volume 9424.966423
_symmetry_space_group_name_H-M "P -4 3 M"
_symmetry_group_IT_number 215
_symmetry_cell_setting 'cubic'
loop_
_space_group_symop_operation_xyz
x,y,z
y,-x,-z
-x,-y,z
-y,x,-z
-x,z,-y
x,-y,-z
-x,-z,y
-z,-y,x
-x,y,-z
z,-y,-x
z,x,y
y,z,x
-y,-z,x
z,-x,-y
-y,z,-x
-z,-x,y
-z,x,-y
y,-z,-x
-y,-x,z
y,x,z
x,-z,-y
x,z,y
-z,y,-x
z,y,x
loop_
_atom_site_type_symbol
_atom_site_label
_atom_site_fract_x
_atom_site_fract_y
_atom_site_fract_z
Si Si1 0.970581 0.132645 0.647983
Si Si2 0.110546 0.569601 0.786012
Si Si3 0.560948 0.178707 0.075583
Si Si4 0.105003 0.000200 0.211917
Si Si5 0.654052 0.244226 0.446816
Si Si6 0.208220 0.418461 0.314133
Si Si7 0.260025 0.157583 0.638854
O O1 0.933568 0.066433 0.639905
O O2 0.924489 0.192523 0.634474
O O3 0.022432 0.134256 0.592177
O O4 0.999574 0.136825 0.718357
O O5 0.170577 0.556116 0.829424
O O6 0.061401 0.510013 0.793845
O O7 0.137217 0.576553 0.715032
O O8 0.554099 0.139174 0.139174
O O9 0.608517 0.236493 0.091533
O O10 0.062059 0.937942 0.204710
O O11 0.159704 0.998667 0.159704
O O12 0.063179 0.063179 0.201951
O O13 0.687537 0.312464 0.442186
O O14 0.585387 0.249286 0.414614
O O15 0.644971 0.223108 0.519119
O O16 0.697056 0.192394 0.412639
O O17 0.210868 0.358223 0.358223
O O18 0.259560 0.409017 0.259560
O O19 0.202275 0.202275 0.660323
O O20 0.298828 0.139609 0.701173
#
# Coordination Sequence:
#
# PCOD8331024 Si02
#       7
#    24  24  24  24  24  24  24
#     4  10  21  35  53  77 104 134 170 212 257 307
#     4   9  18  34  51  70  97 131 171 217 263 310
#     4  10  18  31  51  73 101 136 173 214 259 307
#     4  10  21  38  59  83 111 142 175 210 249 297
#     4   9  16  28  47  72 102 134 170 210 256 308
#     4  10  19  32  50  73 102 135 175 222 269 314
#     4   9  16  27  45  71 102 136 170 207 252 305
#
# _framework density 17.824995999999999
#
# number of rings (size 3 to 8) (size 9 to 14) (size 15 to 20)
#    0.000    2.429    1.429    1.571    0.000    3.429 
#    0.000    0.714    0.000    9.714    0.000    0.000 
#    0.000    0.000    0.000    8.857    0.000    0.000 
#
# Total GULP energy -2082215.014523 kJ/mol
# GULP energy per Si atom -12394.136991 kJ/mol
# Density = 1.778443 g / cm^3
# Si number density = 17.824996 Si / 1000 Ang^3
#
#
#
# Elastic Constant Matrix: (Units=GPa)
#
#
# Indices 1 2 3 4 5 6 
#
# 1 80.7001 39.6535 39.6535 0.0000 0.0000 0.0000
# 2 39.6535 80.7001 39.6535 0.0000 0.0000 0.0000
# 3 39.6535 39.6535 80.7001 0.0000 0.0000 0.0000
# 4 0.0000 0.0000 0.0000 23.7457 0.0000 0.0000
# 5 0.0000 0.0000 0.0000 0.0000 23.7457 0.0000
# 6 0.0000 0.0000 0.0000 0.0000 0.0000 23.7457
#
#
#
# Elastic Compliance Matrix: (Units=1/GPa)
#
#
# Indices 1 2 3 4 5 6 
#
# 1 0.018325 -0.006038 -0.006038 0.000000 0.000000 0.000000
# 2 -0.006038 0.018325 -0.006038 0.000000 0.000000 0.000000
# 3 -0.006038 -0.006038 0.018325 0.000000 0.000000 0.000000
# 4 0.000000 0.000000 0.000000 0.042113 0.000000 0.000000
# 5 0.000000 0.000000 0.000000 0.000000 0.042113 0.000000
# 6 0.000000 0.000000 0.000000 0.000000 0.000000 0.042113
#
#
# Mechanical properties :
#
#
# Convention : Reuss Voigt Hill
#
# Bulk Modulus (GPa) = 53.33572 53.33572 53.33572
# Shear Modulus (GPa) = 22.34250 22.45676 22.39963
#
# Velocity S-wave (km/s) = 3.54423 3.55328 3.54876
# Velocity P-wave (km/s) = 6.83634 6.84261 6.83948
#
# Compressibility (1/GPa) = 0.01874916
#
# Stress axis : x y z
#
# Youngs Moduli (GPa) = 54.57042 54.57042 54.57042
#
# Poissons Ratio (x) = 0.32948 0.32948
# Poissons Ratio (y) = 0.32948 0.32948
# Poissons Ratio (z) = 0.32948 0.32948
#
# Static dielectric constant tensor:
#      x y z
#    x 3.244740 0.000000 0.000000 
#    y 0.000000 3.244740 0.000000 
#    z 0.000000 0.000000 3.244740 
# 
# 
# High freq. dielectric constant tensor:
#      x y z
#    x 1.679960 0.000000 0.000000 
#    y 0.000000 1.679960 0.000000 
#    z 0.000000 0.000000 1.679960 
# 
# From -- ./inp_files/897.got.cif
#   From: 2010.03.12/outbox.cif.g09.slc.cpg/sg215_cif.got.tgz:897.got - 2010.03.30 09:06:09.
