data_PCOD8331043
_publ_section_title
;
Structure prediction by ZEFSAII (Michael W. Deem and Ramdas Pophale) SiO2 
 PCOD8331043
Probable space group: P -4 3 M
;
_chemical_formula_sum "Si O2"
_cell_formula_units_Z 96
_cell_length_a 17.773577
_cell_length_b 17.773577
_cell_length_c 17.773577
_cell_angle_alpha 90.000000
_cell_angle_beta 90.000000
_cell_angle_gamma 90.000000
_cell_volume 5614.673674
_symmetry_space_group_name_H-M "P -4 3 M"
_symmetry_group_IT_number 215
_symmetry_cell_setting 'cubic'
loop_
_space_group_symop_operation_xyz
x,y,z
y,-x,-z
-x,-y,z
-y,x,-z
-x,z,-y
x,-y,-z
-x,-z,y
-z,-y,x
-x,y,-z
z,-y,-x
z,x,y
y,z,x
-y,-z,x
z,-x,-y
-y,z,-x
-z,-x,y
-z,x,-y
y,-z,-x
-y,-x,z
y,x,z
x,-z,-y
x,z,y
-z,y,-x
z,y,x
loop_
_atom_site_type_symbol
_atom_site_label
_atom_site_fract_x
_atom_site_fract_y
_atom_site_fract_z
Si Si1 0.844808 0.440305 0.440305
Si Si2 0.035364 0.846634 0.420935
Si Si3 0.775181 0.349777 0.896684
Si Si4 0.485682 0.269024 0.851991
Si Si5 0.671003 0.557617 0.557617
O O1 0.882553 0.500000 0.500000
O O2 0.863210 0.459643 0.354509
O O3 0.757692 0.448894 0.448894
O O4 0.083058 0.916943 0.388493
O O5 0.089798 0.776112 0.434414
O O6 0.000000 0.872070 0.500000
O O7 0.972107 0.824368 0.360643
O O8 0.713334 0.286666 0.911218
O O9 0.830000 0.323351 0.830000
O O10 0.734277 0.427181 0.874869
O O11 0.475164 0.231643 0.768358
O O12 0.632916 0.500000 0.500000
O O13 0.641640 0.641640 0.536604
#
# Coordination Sequence:
#
# PCOD8331043 Si02
#       5
#    12  24  24  24  12
#     4  11  20  30  46  68 100 134 176 224 266 325
#     4   9  18  33  55  79 101 128 168 213 259 306
#     4  10  20  34  54  78 106 137 169 209 254 310
#     4   9  19  34  50  70 100 139 178 222 268 311
#     4   9  18  28  42  60  80 116 166 224 278 311
#
# _framework density 17.098054999999999
#
# number of rings (size 3 to 8) (size 9 to 14) (size 15 to 20)
#    0.250    2.250    0.000    4.250    1.750    1.750 
#    0.750    0.000    0.000    8.500    0.000    0.000 
#    0.000    0.000    0.000    0.000    0.000    0.000 
#
# Total GULP energy -1189497.940811 kJ/mol
# GULP energy per Si atom -12390.603550 kJ/mol
# Density = 1.705914 g / cm^3
# Si number density = 17.098055 Si / 1000 Ang^3
#
#
#
# Elastic Constant Matrix: (Units=GPa)
#
#
# Indices 1 2 3 4 5 6 
#
# 1 89.6310 37.4216 37.4216 0.0000 0.0000 0.0000
# 2 37.4216 89.6310 37.4216 0.0000 0.0000 0.0000
# 3 37.4216 37.4216 89.6310 0.0000 0.0000 0.0000
# 4 0.0000 0.0000 0.0000 21.2187 0.0000 0.0000
# 5 0.0000 0.0000 0.0000 0.0000 21.2187 0.0000
# 6 0.0000 0.0000 0.0000 0.0000 0.0000 21.2187
#
#
#
# Elastic Compliance Matrix: (Units=1/GPa)
#
#
# Indices 1 2 3 4 5 6 
#
# 1 0.014796 -0.004358 -0.004358 0.000000 0.000000 0.000000
# 2 -0.004358 0.014796 -0.004358 0.000000 0.000000 0.000000
# 3 -0.004358 -0.004358 0.014796 0.000000 0.000000 0.000000
# 4 0.000000 0.000000 0.000000 0.047128 0.000000 0.000000
# 5 0.000000 0.000000 0.000000 0.000000 0.047128 0.000000
# 6 0.000000 0.000000 0.000000 0.000000 0.000000 0.047128
#
#
# Mechanical properties :
#
#
# Convention : Reuss Voigt Hill
#
# Bulk Modulus (GPa) = 54.82470 54.82470 54.82470
# Shear Modulus (GPa) = 22.93585 23.17309 23.05447
#
# Velocity S-wave (km/s) = 3.66653 3.68544 3.67600
# Velocity P-wave (km/s) = 7.07524 7.08833 7.08179
#
# Compressibility (1/GPa) = 0.01823995
#
# Stress axis : x y z
#
# Youngs Moduli (GPa) = 67.58697 67.58697 67.58697
#
# Poissons Ratio (x) = 0.29454 0.29454
# Poissons Ratio (y) = 0.29454 0.29454
# Poissons Ratio (z) = 0.29454 0.29454
#
# Static dielectric constant tensor:
#      x y z
#    x 3.143630 0.000000 0.000000 
#    y 0.000000 3.143630 0.000000 
#    z 0.000000 0.000000 3.143630 
# 
# 
# High freq. dielectric constant tensor:
#      x y z
#    x 1.652580 0.000000 0.000000 
#    y 0.000000 1.652580 0.000000 
#    z 0.000000 0.000000 1.652580 
# 
# From -- ./inp_files/514.got.cif
#   From: 2010.03.12/outbox.cif.g09.slc.cpg/sg215_cif.got.tgz:514.got - 2010.03.30 09:06:09.
