data_PCOD8331112
_publ_section_title
;
Structure prediction by ZEFSAII (Michael W. Deem and Ramdas Pophale) SiO2 
 PCOD8331112
Probable space group: P M 3 M
;
_chemical_formula_sum "Si O2"
_cell_formula_units_Z 168
_cell_length_a 22.825196
_cell_length_b 22.825196
_cell_length_c 22.825196
_cell_angle_alpha 90.000000
_cell_angle_beta 90.000000
_cell_angle_gamma 90.000000
_cell_volume 11891.689105
_symmetry_space_group_name_H-M "P M 3 M"
_symmetry_group_IT_number 221
_symmetry_cell_setting 'cubic'
loop_
_space_group_symop_operation_xyz
x,y,z
-y,x,z
-x,-y,z
y,-x,z
x,-z,y
x,-y,-z
x,z,-y
z,y,-x
-x,y,-z
-z,y,x
z,x,y
y,z,x
-y,-z,x
z,-x,-y
-y,z,-x
-z,-x,y
-z,x,-y
y,-z,-x
y,x,-z
-y,-x,-z
-x,z,y
-x,-z,-y
z,-y,x
-z,-y,-x
-x,-y,-z
y,-x,-z
x,y,-z
-y,x,-z
-x,z,-y
-x,y,z
-x,-z,y
-z,-y,x
x,-y,z
z,-y,-x
-z,-x,-y
-y,-z,-x
y,z,-x
-z,x,y
y,-z,x
z,x,-y
z,-x,y
-y,z,x
-y,-x,z
y,x,z
x,-z,-y
x,z,y
-z,y,-x
z,y,x
loop_
_atom_site_type_symbol
_atom_site_label
_atom_site_fract_x
_atom_site_fract_y
_atom_site_fract_z
Si Si1 0.120986 0.282005 0.568666
Si Si2 0.935219 0.430321 0.935219
Si Si3 0.843357 0.429662 0.156644
Si Si4 0.337963 0.000000 0.569504
Si Si5 0.338664 0.567421 0.757988
O O1 0.114569 0.273733 0.500000
O O2 0.137254 0.219236 0.596435
O O3 0.058283 0.304414 0.592473
O O4 0.174193 0.326010 0.582925
O O5 0.933534 0.500000 0.933534
O O6 0.889570 0.404108 0.889570
O O7 0.000000 0.408191 0.918173
O O8 0.841369 0.500000 0.158632
O O9 0.346388 0.000000 0.500000
O O10 0.402483 0.000000 0.597518
O O11 0.358451 0.500000 0.751452
O O12 0.391781 0.608220 0.735930
O O13 0.280772 0.579316 0.719229
#
# Coordination Sequence:
#
# PCOD8331112 Si02
#       5
#    48  24  24  24  48
#     4   9  17  29  43  60  81 105 135 167 198 236
#     4   8  14  21  30  50  78 104 130 160 190 219
#     4   9  15  24  39  56  76 104 134 164 197 229
#     4  10  20  31  44  62  83 109 137 167 203 247
#     4  10  19  32  48  65  84 105 131 165 206 252
#
# _framework density 14.127513
#
# number of rings (size 3 to 8) (size 9 to 14) (size 15 to 20)
#    0.000    2.714    1.429    1.571    2.000    0.429 
#    0.000    0.000    0.000    5.143    0.000    0.000 
#    0.000    0.000    0.000    8.857    0.000    0.000 
#
# Total GULP energy -2082112.947929 kJ/mol
# GULP energy per Si atom -12393.529452 kJ/mol
# Density = 1.409536 g / cm^3
# Si number density = 14.127513 Si / 1000 Ang^3
#
#
#
# Elastic Constant Matrix: (Units=GPa)
#
#
# Indices 1 2 3 4 5 6 
#
# 1 65.6669 34.2897 34.2897 0.0000 0.0000 0.0000
# 2 34.2897 65.6669 34.2897 0.0000 0.0000 0.0000
# 3 34.2897 34.2897 65.6669 0.0000 0.0000 0.0000
# 4 0.0000 0.0000 0.0000 13.5105 0.0000 0.0000
# 5 0.0000 0.0000 0.0000 0.0000 13.5105 0.0000
# 6 0.0000 0.0000 0.0000 0.0000 0.0000 13.5105
#
#
#
# Elastic Compliance Matrix: (Units=1/GPa)
#
#
# Indices 1 2 3 4 5 6 
#
# 1 0.023730 -0.008140 -0.008140 0.000000 0.000000 0.000000
# 2 -0.008140 0.023730 -0.008140 0.000000 0.000000 0.000000
# 3 -0.008140 -0.008140 0.023730 0.000000 0.000000 0.000000
# 4 0.000000 0.000000 0.000000 0.074017 0.000000 0.000000
# 5 0.000000 0.000000 0.000000 0.000000 0.074017 0.000000
# 6 0.000000 0.000000 0.000000 0.000000 0.000000 0.074017
#
#
# Mechanical properties :
#
#
# Convention : Reuss Voigt Hill
#
# Bulk Modulus (GPa) = 44.74881 44.74881 44.74881
# Shear Modulus (GPa) = 14.30489 14.38174 14.34332
#
# Velocity S-wave (km/s) = 3.18552 3.19406 3.18980
# Velocity P-wave (km/s) = 6.72858 6.73398 6.73128
#
# Compressibility (1/GPa) = 0.02234696
#
# Stress axis : x y z
#
# Youngs Moduli (GPa) = 42.14099 42.14099 42.14099
#
# Poissons Ratio (x) = 0.34305 0.34305
# Poissons Ratio (y) = 0.34305 0.34305
# Poissons Ratio (z) = 0.34305 0.34305
#
# Static dielectric constant tensor:
#      x y z
#    x 2.724080 0.000000 0.000000 
#    y 0.000000 2.724080 0.000000 
#    z 0.000000 0.000000 2.724080 
# 
# 
# High freq. dielectric constant tensor:
#      x y z
#    x 1.522340 0.000000 0.000000 
#    y 0.000000 1.522340 0.000000 
#    z 0.000000 0.000000 1.522340 
# 
# From -- ./inp_files/580.got.cif
#   From: 2010.03.12/outbox.cif.g09.slc.cpg/sg221_cif.got.tgz:580.got - 2010.03.30 09:08:03.
