data_PCOD8331028
_publ_section_title
;
Structure prediction by ZEFSAII (Michael W. Deem and Ramdas Pophale) SiO2 
 PCOD8331028
Probable space group: P -4 3 M
;
_chemical_formula_sum "Si O2"
_cell_formula_units_Z 168
_cell_length_a 21.836764
_cell_length_b 21.836764
_cell_length_c 21.836764
_cell_angle_alpha 90.000000
_cell_angle_beta 90.000000
_cell_angle_gamma 90.000000
_cell_volume 10412.735614
_symmetry_space_group_name_H-M "P -4 3 M"
_symmetry_group_IT_number 215
_symmetry_cell_setting 'cubic'
loop_
_space_group_symop_operation_xyz
x,y,z
y,-x,-z
-x,-y,z
-y,x,-z
-x,z,-y
x,-y,-z
-x,-z,y
-z,-y,x
-x,y,-z
z,-y,-x
z,x,y
y,z,x
-y,-z,x
z,-x,-y
-y,z,-x
-z,-x,y
-z,x,-y
y,-z,-x
-y,-x,z
y,x,z
x,-z,-y
x,z,y
-z,y,-x
z,y,x
loop_
_atom_site_type_symbol
_atom_site_label
_atom_site_fract_x
_atom_site_fract_y
_atom_site_fract_z
Si Si1 0.680478 0.946473 0.847840
Si Si2 0.900522 0.003195 0.566586
Si Si3 0.853895 0.245197 0.654980
Si Si4 0.741229 0.836945 0.067438
Si Si5 0.327530 0.572454 0.931588
Si Si6 0.151015 0.250185 0.650525
Si Si7 0.928497 0.331854 0.431571
O O1 0.690911 0.911159 0.911159
O O2 0.681942 0.900536 0.791352
O O3 0.617051 0.984885 0.850644
O O4 0.735094 0.994414 0.839989
O O5 0.929323 0.070678 0.580613
O O6 0.867566 0.000000 0.500000
O O7 0.955321 0.955321 0.564608
O O8 0.794137 0.205864 0.635539
O O9 0.832654 0.298700 0.701301
O O10 0.904008 0.202418 0.686511
O O11 0.886855 0.273394 0.595215
O O12 0.805526 0.805526 0.083598
O O13 0.741336 0.905056 0.094945
O O14 0.388525 0.611476 0.919406
O O15 0.343833 0.502680 0.915558
O O16 0.306747 0.579440 0.002534
O O17 0.209011 0.209011 0.629783
O O18 0.173164 0.299948 0.700053
O O19 0.120983 0.282345 0.591693
O O20 0.919488 0.395687 0.395687
#
# Coordination Sequence:
#
# PCOD8331028 Si02
#       7
#    24  24  24  24  24  24  24
#     4  10  19  30  45  65  85 109 142 181 224 270
#     4   8  14  26  41  56  80 111 137 163 201 256
#     4   9  17  29  45  65  89 117 146 175 211 256
#     4  10  19  31  46  64  85 111 142 177 217 266
#     4   9  17  30  48  69  93 119 146 179 220 259
#     4  10  20  34  49  64  85 116 152 189 226 264
#     4   9  18  32  48  66  90 118 148 184 220 256
#
# _framework density 16.134087999999998
#
# number of rings (size 3 to 8) (size 9 to 14) (size 15 to 20)
#    0.000    2.714    0.000    2.571    0.000    5.143 
#    5.143    1.429    0.000    0.286    0.000    0.000 
#    0.000    0.000    0.000    0.000    0.000    0.286 
#
# Total GULP energy -2082702.406476 kJ/mol
# GULP energy per Si atom -12397.038134 kJ/mol
# Density = 1.609737 g / cm^3
# Si number density = 16.134088 Si / 1000 Ang^3
#
#
#
# Elastic Constant Matrix: (Units=GPa)
#
#
# Indices 1 2 3 4 5 6 
#
# 1 81.6627 36.3346 36.3346 0.0000 0.0000 0.0000
# 2 36.3346 81.6627 36.3346 0.0000 0.0000 0.0000
# 3 36.3346 36.3346 81.6627 0.0000 0.0000 0.0000
# 4 0.0000 0.0000 0.0000 18.4132 0.0000 0.0000
# 5 0.0000 0.0000 0.0000 0.0000 18.4132 0.0000
# 6 0.0000 0.0000 0.0000 0.0000 0.0000 18.4132
#
#
#
# Elastic Compliance Matrix: (Units=1/GPa)
#
#
# Indices 1 2 3 4 5 6 
#
# 1 0.016867 -0.005194 -0.005194 0.000000 0.000000 0.000000
# 2 -0.005194 0.016867 -0.005194 0.000000 0.000000 0.000000
# 3 -0.005194 -0.005194 0.016867 0.000000 0.000000 0.000000
# 4 0.000000 0.000000 0.000000 0.054309 0.000000 0.000000
# 5 0.000000 0.000000 0.000000 0.000000 0.054309 0.000000
# 6 0.000000 0.000000 0.000000 0.000000 0.000000 0.054309
#
#
# Mechanical properties :
#
#
# Convention : Reuss Voigt Hill
#
# Bulk Modulus (GPa) = 51.44394 51.44394 51.44394
# Shear Modulus (GPa) = 19.90671 20.11358 20.01015
#
# Velocity S-wave (km/s) = 3.51640 3.53463 3.52553
# Velocity P-wave (km/s) = 6.95997 6.97227 6.96613
#
# Compressibility (1/GPa) = 0.01943863
#
# Stress axis : x y z
#
# Youngs Moduli (GPa) = 59.28595 59.28595 59.28595
#
# Poissons Ratio (x) = 0.30793 0.30793
# Poissons Ratio (y) = 0.30793 0.30793
# Poissons Ratio (z) = 0.30793 0.30793
#
# Static dielectric constant tensor:
#      x y z
#    x 2.992580 0.000000 0.000000 
#    y 0.000000 2.992580 0.000000 
#    z 0.000000 0.000000 2.992580 
# 
# 
# High freq. dielectric constant tensor:
#      x y z
#    x 1.607820 0.000000 0.000000 
#    y 0.000000 1.607820 0.000000 
#    z 0.000000 0.000000 1.607820 
# 
# From -- ./inp_files/942.got.cif
#   From: 2010.03.12/outbox.cif.g09.slc.cpg/sg215_cif.got.tgz:942.got - 2010.03.30 09:06:09.
