data_PCOD8331010
_publ_section_title
;
Structure prediction by ZEFSAII (Michael W. Deem and Ramdas Pophale) SiO2 
 PCOD8331010
Probable space group: P 43 3 2
;
_chemical_formula_sum "Si O2"
_cell_formula_units_Z 64
_cell_length_a 13.775473
_cell_length_b 13.775473
_cell_length_c 13.775473
_cell_angle_alpha 90.000000
_cell_angle_beta 90.000000
_cell_angle_gamma 90.000000
_cell_volume 2614.084125
_symmetry_space_group_name_H-M "P 43 3 2"
_symmetry_group_IT_number 212
_symmetry_cell_setting 'cubic'
loop_
_space_group_symop_operation_xyz
x,y,z
3/4-y,1/4+x,3/4+z
1/2-x,-y,1/2+z
3/4+y,3/4-x,1/4+z
3/4+x,3/4-z,1/4+y
1/2+x,1/2-y,-z
1/4+x,3/4+z,3/4-y
1/4+z,3/4+y,3/4-x
-x,1/2+y,1/2-z
3/4-z,1/4+y,3/4+x
z,x,y
y,z,x
1/2-y,-z,1/2+x
1/2+z,1/2-x,-y
-y,1/2+z,1/2-x
1/2-z,-x,1/2+y
-z,1/2+x,1/2-y
1/2+y,1/2-z,-x
1/4+y,3/4+x,3/4-z
1/4-y,1/4-x,1/4-z
3/4-x,1/4+z,3/4+y
1/4-x,1/4-z,1/4-y
3/4+z,3/4-y,1/4+x
1/4-z,1/4-y,1/4-x
loop_
_atom_site_type_symbol
_atom_site_label
_atom_site_fract_x
_atom_site_fract_y
_atom_site_fract_z
Si Si1 0.252116 0.747885 0.247886
Si Si2 0.409039 0.394658 0.806822
Si Si3 0.387175 0.612827 0.112827
Si Si4 0.329829 0.587702 0.766328
O O1 0.155769 0.697759 0.286373
O O2 0.320023 0.679979 0.179979
O O3 0.519387 0.375000 0.769387
O O4 0.363722 0.479685 0.739424
O O5 0.407349 0.422082 0.921498
O O6 0.472614 0.561479 0.174230
O O7 0.404476 0.625000 0.845525
#
# Coordination Sequence:
#
# PCOD8331010 Si02
#       4
#     8  24   8  24
#     4  12  27  45  76 107 139 183 237 306 364 425
#     4  12  26  47  72 107 148 190 245 296 363 440
#     4  12  27  45  76 107 139 183 237 306 364 425
#     4  12  26  47  72 107 148 190 245 296 363 440
#
# _framework density 24.482764
#
# number of rings (size 3 to 8) (size 9 to 14) (size 15 to 20)
#    0.000    0.000    7.500    2.250    0.000    1.500 
#    0.000    0.000    0.000    0.000    0.000    0.000 
#    0.000    0.000    0.000    0.000    0.000    0.000 
#
# Total GULP energy -793478.965721 kJ/mol
# GULP energy per Si atom -12398.108839 kJ/mol
# Density = 2.442704 g / cm^3
# Si number density = 24.482764 Si / 1000 Ang^3
#
#
#
# Elastic Constant Matrix: (Units=GPa)
#
#
# Indices 1 2 3 4 5 6 
#
# 1 73.8112 -4.9824 -4.9845 0.0000 0.0000 0.0000
# 2 -4.9824 73.8112 -4.9845 0.0000 0.0000 0.0000
# 3 -4.9845 -4.9845 73.8091 0.0000 0.0000 0.0000
# 4 0.0000 0.0000 0.0000 26.2337 0.0000 0.0000
# 5 0.0000 0.0000 0.0000 0.0000 26.2337 0.0000
# 6 0.0000 0.0000 0.0000 0.0000 0.0000 26.2329
#
#
#
# Elastic Compliance Matrix: (Units=1/GPa)
#
#
# Indices 1 2 3 4 5 6 
#
# 1 0.013682 0.000990 0.000991 0.000000 0.000000 0.000000
# 2 0.000990 0.013682 0.000991 0.000000 0.000000 0.000000
# 3 0.000991 0.000991 0.013682 0.000000 0.000000 0.000000
# 4 0.000000 0.000000 0.000000 0.038119 0.000000 0.000000
# 5 0.000000 0.000000 0.000000 0.000000 0.038119 0.000000
# 6 0.000000 0.000000 0.000000 0.000000 0.000000 0.038120
#
#
# Mechanical properties :
#
#
# Convention : Reuss Voigt Hill
#
# Bulk Modulus (GPa) = 21.28097 21.28097 21.28097
# Shear Modulus (GPa) = 30.28043 31.49890 30.88966
#
# Velocity S-wave (km/s) = 3.52064 3.59078 3.55588
# Velocity P-wave (km/s) = 5.02371 5.08947 5.05669
#
# Compressibility (1/GPa) = 0.04699034
#
# Stress axis : x y z
#
# Youngs Moduli (GPa) = 73.08952 73.08952 73.08717
#
# Poissons Ratio (x) = -0.07239 -0.07242
# Poissons Ratio (y) = -0.07239 -0.07242
# Poissons Ratio (z) = -0.07242 -0.07242
#
# Static dielectric constant tensor:
#      x y z
#    x 4.596190 0.000000 0.000000 
#    y 0.000000 4.596190 0.000000 
#    z 0.000000 0.000000 4.596110 
# 
# 
# High freq. dielectric constant tensor:
#      x y z
#    x 1.976900 0.000000 0.000000 
#    y 0.000000 1.976900 0.000000 
#    z 0.000000 0.000000 1.976900 
# 
# From -- ./inp_files/313.got.cif
#   From: 2010.03.12/outbox.cif.g09.slc.cpg/sg212_cif.got.tgz:313.got - 2010.03.30 09:05:11.
