data_PCOD8331144
_publ_section_title
;
Structure prediction by ZEFSAII (Michael W. Deem and Ramdas Pophale) SiO2 
 PCOD8331144
Probable space group: P N 3 M
;
_chemical_formula_sum "Si O2"
_cell_formula_units_Z 80
_cell_length_a 15.689898
_cell_length_b 15.689898
_cell_length_c 15.689898
_cell_angle_alpha 90.000000
_cell_angle_beta 90.000000
_cell_angle_gamma 90.000000
_cell_volume 3862.427680
_symmetry_space_group_name_H-M "P N 3 M"
_symmetry_group_IT_number 224
_space_group.IT_coordinate_system_code '2'
_symmetry_cell_setting 'cubic'
loop_
_space_group_symop_operation_xyz
x,y,z
-y,1/2+x,1/2+z
1/2-x,1/2-y,z
1/2+y,-x,1/2+z
1/2+x,-z,1/2+y
x,1/2-y,1/2-z
1/2+x,1/2+z,-y
1/2+z,1/2+y,-x
1/2-x,y,1/2-z
-z,1/2+y,1/2+x
z,x,y
y,z,x
1/2-y,1/2-z,x
z,1/2-x,1/2-y
1/2-y,z,1/2-x
1/2-z,1/2-x,y
1/2-z,x,1/2-y
y,1/2-z,1/2-x
1/2+y,1/2+x,-z
-y,-x,-z
-x,1/2+z,1/2+y
-x,-z,-y
1/2+z,-y,1/2+x
-z,-y,-x
-x,-y,-z
y,1/2-x,1/2-z
1/2+x,1/2+y,-z
1/2-y,x,1/2-z
1/2-x,z,1/2-y
-x,1/2+y,1/2+z
1/2-x,1/2-z,y
1/2-z,1/2-y,x
1/2+x,-y,1/2+z
z,1/2-y,1/2-x
-z,-x,-y
-y,-z,-x
1/2+y,1/2+z,-x
-z,1/2+x,1/2+y
1/2+y,-z,1/2+x
1/2+z,1/2+x,-y
1/2+z,-x,1/2+y
-y,1/2+z,1/2+x
1/2-y,1/2-x,z
y,x,z
x,1/2-z,1/2-y
x,z,y
1/2-z,y,1/2-x
z,y,x
loop_
_atom_site_type_symbol
_atom_site_label
_atom_site_fract_x
_atom_site_fract_y
_atom_site_fract_z
Si Si1 0.249319 0.476115 0.614594
Si Si2 0.561152 0.938850 0.938850
Si Si3 0.684871 0.684871 0.457587
O O1 0.162843 0.500000 0.662843
O O2 0.331956 0.500000 0.668045
O O3 0.252127 0.524747 0.524747
O O4 0.253595 0.374809 0.599263
O O5 0.509339 0.877030 0.877030
O O6 0.500000 0.000000 0.000000
O O7 0.750000 0.750000 0.507626
#
# Coordination Sequence:
#
# PCOD8331144 Si02
#       3
#    48   8  24
#     4  11  22  39  63  95 133 176 225 279 344 421
#     4  12  24  48  84  96 126 195 261 294 346 461
#     4  12  24  42  68 102 133 173 232 292 349 409
#
# _framework density 20.712363
#
# number of rings (size 3 to 8) (size 9 to 14) (size 15 to 20)
#    0.000    0.600    6.000    3.600    0.000    0.000 
#    1.800    0.000    0.000    2.400    0.000    0.000 
#    0.000    0.000    0.000    0.000    0.000    0.000 
#
# Total GULP energy -991271.683068 kJ/mol
# GULP energy per Si atom -12390.896038 kJ/mol
# Density = 2.066522 g / cm^3
# Si number density = 20.712363 Si / 1000 Ang^3
#
#
#
# Elastic Constant Matrix: (Units=GPa)
#
#
# Indices 1 2 3 4 5 6 
#
# 1 103.3208 60.2820 60.2823 0.0000 0.0000 0.0000
# 2 60.2820 103.3208 60.2823 0.0000 0.0000 0.0000
# 3 60.2823 60.2823 103.3208 0.0000 0.0000 0.0000
# 4 0.0000 0.0000 0.0000 36.5299 0.0000 0.0000
# 5 0.0000 0.0000 0.0000 0.0000 36.5299 0.0000
# 6 0.0000 0.0000 0.0000 0.0000 0.0000 36.5299
#
#
#
# Elastic Compliance Matrix: (Units=1/GPa)
#
#
# Indices 1 2 3 4 5 6 
#
# 1 0.016979 -0.006256 -0.006256 0.000000 0.000000 0.000000
# 2 -0.006256 0.016979 -0.006256 0.000000 0.000000 0.000000
# 3 -0.006256 -0.006256 0.016979 0.000000 0.000000 0.000000
# 4 0.000000 0.000000 0.000000 0.027375 0.000000 0.000000
# 5 0.000000 0.000000 0.000000 0.000000 0.027375 0.000000
# 6 0.000000 0.000000 0.000000 0.000000 0.000000 0.027375
#
#
# Mechanical properties :
#
#
# Convention : Reuss Voigt Hill
#
# Bulk Modulus (GPa) = 74.62842 74.62842 74.62842
# Shear Modulus (GPa) = 28.56094 30.52568 29.54331
#
# Velocity S-wave (km/s) = 3.71743 3.84316 3.78082
# Velocity P-wave (km/s) = 7.38476 7.47009 7.42755
#
# Compressibility (1/GPa) = 0.01339972
#
# Stress axis : x y z
#
# Youngs Moduli (GPa) = 58.89699 58.89700 58.89667
#
# Poissons Ratio (x) = 0.36846 0.36847
# Poissons Ratio (y) = 0.36846 0.36847
# Poissons Ratio (z) = 0.36847 0.36847
#
# Static dielectric constant tensor:
#      x y z
#    x 3.892500 0.000000 0.000000 
#    y 0.000000 3.892500 0.000000 
#    z 0.000000 0.000000 3.892500 
# 
# 
# High freq. dielectric constant tensor:
#      x y z
#    x 1.811060 0.000000 0.000000 
#    y 0.000000 1.811060 0.000000 
#    z 0.000000 0.000000 1.811060 
# 
# From -- ./inp_files/144.got.cif
#   From: 2010.03.12/outbox.cif.g09.slc.cpg/sg224_cif.got.tgz:144.got - 2010.03.30 09:09:26.
