data_PCOD8331077
_publ_section_title
;
Structure prediction by ZEFSAII (Michael W. Deem and Ramdas Pophale) SiO2 
 PCOD8331077
Probable space group: F -4 3 C
;
_chemical_formula_sum "Si O2"
_cell_formula_units_Z 344
_cell_length_a 24.002761
_cell_length_b 24.002761
_cell_length_c 24.002761
_cell_angle_alpha 90.000000
_cell_angle_beta 90.000000
_cell_angle_gamma 90.000000
_cell_volume 13828.771557
_symmetry_space_group_name_H-M "F -4 3 C"
_symmetry_group_IT_number 219
_symmetry_cell_setting 'cubic'
loop_
_space_group_symop_operation_xyz
x,y,z
y,-x,1/2-z
-x,-y,z
-y,x,1/2-z
-x,z,1/2-y
x,-y,-z
-x,-z,1/2+y
-z,-y,1/2+x
-x,y,-z
z,-y,1/2-x
z,x,y
y,z,x
-y,-z,x
z,-x,-y
-y,z,-x
-z,-x,y
-z,x,-y
y,-z,-x
-y,-x,1/2+z
y,x,1/2+z
x,-z,1/2-y
x,z,1/2+y
-z,y,1/2-x
z,y,1/2+x
x,1/2+y,1/2+z
y,1/2-x,-z
-x,1/2-y,1/2+z
-y,1/2+x,-z
-x,1/2+z,-y
x,1/2-y,1/2-z
-x,1/2-z,y
-z,1/2-y,x
-x,1/2+y,1/2-z
z,1/2-y,-x
z,1/2+x,1/2+y
y,1/2+z,1/2+x
-y,1/2-z,1/2+x
z,1/2-x,1/2-y
-y,1/2+z,1/2-x
-z,1/2-x,1/2+y
-z,1/2+x,1/2-y
y,1/2-z,1/2-x
-y,1/2-x,z
y,1/2+x,z
x,1/2-z,-y
x,1/2+z,y
-z,1/2+y,-x
z,1/2+y,x
1/2+x,y,1/2+z
1/2+y,-x,-z
1/2-x,-y,1/2+z
1/2-y,x,-z
1/2-x,z,-y
1/2+x,-y,1/2-z
1/2-x,-z,y
1/2-z,-y,x
1/2-x,y,1/2-z
1/2+z,-y,-x
1/2+z,x,1/2+y
1/2+y,z,1/2+x
1/2-y,-z,1/2+x
1/2+z,-x,1/2-y
1/2-y,z,1/2-x
1/2-z,-x,1/2+y
1/2-z,x,1/2-y
1/2+y,-z,1/2-x
1/2-y,-x,z
1/2+y,x,z
1/2+x,-z,-y
1/2+x,z,y
1/2-z,y,-x
1/2+z,y,x
1/2+x,1/2+y,z
1/2+y,1/2-x,1/2-z
1/2-x,1/2-y,z
1/2-y,1/2+x,1/2-z
1/2-x,1/2+z,1/2-y
1/2+x,1/2-y,-z
1/2-x,1/2-z,1/2+y
1/2-z,1/2-y,1/2+x
1/2-x,1/2+y,-z
1/2+z,1/2-y,1/2-x
1/2+z,1/2+x,y
1/2+y,1/2+z,x
1/2-y,1/2-z,x
1/2+z,1/2-x,-y
1/2-y,1/2+z,-x
1/2-z,1/2-x,y
1/2-z,1/2+x,-y
1/2+y,1/2-z,-x
1/2-y,1/2-x,1/2+z
1/2+y,1/2+x,1/2+z
1/2+x,1/2-z,1/2-y
1/2+x,1/2+z,1/2+y
1/2-z,1/2+y,1/2-x
1/2+z,1/2+y,1/2+x
loop_
_atom_site_type_symbol
_atom_site_label
_atom_site_fract_x
_atom_site_fract_y
_atom_site_fract_z
Si Si1 0.023630 0.669323 0.257560
Si Si2 0.576736 0.576736 0.576736
Si Si3 0.495363 0.825432 0.937091
Si Si4 0.601453 0.601453 0.898549
Si Si5 0.750000 0.615528 0.250000
Si Si6 0.000000 0.500000 0.500000
Si Si7 0.821886 0.321886 0.821886
O O1 0.014729 0.604659 0.272844
O O2 0.083512 0.691122 0.236533
O O3 0.981897 0.686165 0.207818
O O4 0.549703 0.638569 0.580695
O O5 0.538250 0.538250 0.538250
O O6 0.440154 0.862593 0.935702
O O7 0.500000 0.802404 0.000000
O O8 0.639752 0.639752 0.860249
O O9 0.763080 0.649603 0.193849
#
# Coordination Sequence:
#
# PCOD8331077 Si02
#       7
#    96  32  96  32  48   8  32
#     4   9  22  47  71  95 147 205 261 332 413 481
#     4  12  21  34  67 102 142 202 273 325 398 487
#     4  12  22  40  72 106 149 206 264 337 402 490
#     4  12  22  37  69 111 159 199 274 337 407 484
#     4  10  21  39  68 102 144 188 250 332 400 484
#     4  12  16  40  60  84 150 208 268 316 398 484
#     4  12  21  37  70 111 145 193 267 337 413 508
#
# _framework density 24.875674
#
# number of rings (size 3 to 8) (size 9 to 14) (size 15 to 20)
#    0.000    1.395    6.977    0.558    0.000    0.000 
#    0.000   13.953    9.209    0.000    0.000    0.000 
#    0.000    0.000    0.000    0.000    0.000    0.000 
#
# Total GULP energy -1065431.037549 kJ/mol
# GULP energy per Si atom -12388.732995 kJ/mol
# Density = 2.481906 g / cm^3
# Si number density = 24.875674 Si / 1000 Ang^3
#
#
#
# Elastic Constant Matrix: (Units=GPa)
#
#
# Indices 1 2 3 4 5 6 
#
# 1 125.2110 46.3178 46.3182 0.0000 0.0000 0.0000
# 2 46.3178 125.2110 46.3182 0.0000 0.0000 0.0000
# 3 46.3182 46.3182 125.2107 0.0000 0.0000 0.0000
# 4 0.0000 0.0000 0.0000 10.8917 0.0000 0.0000
# 5 0.0000 0.0000 0.0000 0.0000 10.8917 0.0000
# 6 0.0000 0.0000 0.0000 0.0000 0.0000 10.8834
#
#
#
# Elastic Compliance Matrix: (Units=1/GPa)
#
#
# Indices 1 2 3 4 5 6 
#
# 1 0.009980 -0.002695 -0.002695 0.000000 0.000000 0.000000
# 2 -0.002695 0.009980 -0.002695 0.000000 0.000000 0.000000
# 3 -0.002695 -0.002695 0.009980 0.000000 0.000000 0.000000
# 4 0.000000 0.000000 0.000000 0.091813 0.000000 0.000000
# 5 0.000000 0.000000 0.000000 0.000000 0.091813 0.000000
# 6 0.000000 0.000000 0.000000 0.000000 0.000000 0.091883
#
#
# Mechanical properties :
#
#
# Convention : Reuss Voigt Hill
#
# Bulk Modulus (GPa) = 72.61567 72.61567 72.61567
# Shear Modulus (GPa) = 15.32751 22.31193 18.81972
#
# Velocity S-wave (km/s) = 2.48496 2.99814 2.75353
# Velocity P-wave (km/s) = 6.12276 6.42183 6.27408
#
# Compressibility (1/GPa) = 0.01377113
#
# Stress axis : x y z
#
# Youngs Moduli (GPa) = 100.19652 100.19652 100.19593
#
# Poissons Ratio (x) = 0.27003 0.27003
# Poissons Ratio (y) = 0.27003 0.27003
# Poissons Ratio (z) = 0.27003 0.27003
#
# Static dielectric constant tensor:
#      x y z
#    x 4.551220 0.000000 0.000000 
#    y 0.000000 4.551220 0.000000 
#    z 0.000000 0.000000 4.551180 
# 
# 
# High freq. dielectric constant tensor:
#      x y z
#    x 1.984070 0.000000 0.000000 
#    y 0.000000 1.984070 0.000000 
#    z 0.000000 0.000000 1.984070 
# 
# From -- ./inp_files/509.got.cif
#   From: 2010.03.12/outbox.cif.g09.slc.cpg/sg219_cif.got.tgz:509.got - 2010.03.30 09:07:44.
