data_PCOD8331087
_publ_section_title
;
Structure prediction by ZEFSAII (Michael W. Deem and Ramdas Pophale) SiO2 
 PCOD8331087
Probable space group: I -4 3 D
;
_chemical_formula_sum "Si O2"
_cell_formula_units_Z 252
_cell_length_a 24.472520
_cell_length_b 24.472520
_cell_length_c 24.472520
_cell_angle_alpha 90.000000
_cell_angle_beta 90.000000
_cell_angle_gamma 90.000000
_cell_volume 14656.695873
_symmetry_space_group_name_H-M "I -4 3 D"
_symmetry_group_IT_number 220
_symmetry_cell_setting 'cubic'
loop_
_space_group_symop_operation_xyz
x,y,z
1/4+y,3/4-x,1/4-z
-x,1/2-y,z
1/4-y,1/4+x,3/4-z
1/4-x,1/4+z,3/4-y
x,-y,1/2-z
3/4-x,1/4-z,1/4+y
3/4-z,1/4-y,1/4+x
1/2-x,y,-z
1/4+z,3/4-y,1/4-x
z,x,y
y,z,x
-y,1/2-z,x
z,-x,1/2-y
1/2-y,z,-x
-z,1/2-x,y
1/2-z,x,-y
y,-z,1/2-x
3/4-y,1/4-x,1/4+z
1/4+y,1/4+x,1/4+z
1/4+x,3/4-z,1/4-y
1/4+x,1/4+z,1/4+y
1/4-z,1/4+y,3/4-x
1/4+z,1/4+y,1/4+x
1/2+x,1/2+y,1/2+z
3/4+y,1/4-x,3/4-z
1/2-x,-y,1/2+z
3/4-y,3/4+x,1/4-z
3/4-x,3/4+z,1/4-y
1/2+x,1/2-y,-z
1/4-x,3/4-z,3/4+y
1/4-z,3/4-y,3/4+x
-x,1/2+y,1/2-z
3/4+z,1/4-y,3/4-x
1/2+z,1/2+x,1/2+y
1/2+y,1/2+z,1/2+x
1/2-y,-z,1/2+x
1/2+z,1/2-x,-y
-y,1/2+z,1/2-x
1/2-z,-x,1/2+y
-z,1/2+x,1/2-y
1/2+y,1/2-z,-x
1/4-y,3/4-x,3/4+z
3/4+y,3/4+x,3/4+z
3/4+x,1/4-z,3/4-y
3/4+x,3/4+z,3/4+y
3/4-z,3/4+y,1/4-x
3/4+z,3/4+y,3/4+x
loop_
_atom_site_type_symbol
_atom_site_label
_atom_site_fract_x
_atom_site_fract_y
_atom_site_fract_z
Si Si1 0.156052 0.707349 0.673407
Si Si2 0.852931 0.689307 0.036008
Si Si3 0.053780 0.380355 0.998483
Si Si4 0.249580 0.574884 0.141150
Si Si5 0.918482 0.517098 0.311827
Si Si6 0.875000 0.000000 0.250000
O O1 0.145727 0.711492 0.609313
O O2 0.215986 0.681023 0.675357
O O3 0.156880 0.766776 0.701025
O O4 0.108334 0.673210 0.702929
O O5 0.852377 0.722163 0.093646
O O6 0.870793 0.727739 0.985821
O O7 0.791985 0.665346 0.029447
O O8 0.022266 0.340626 0.038924
O O9 0.307030 0.569676 0.172590
O O10 0.263428 0.607576 0.086094
O O11 0.913770 0.500000 0.250000
#
# Coordination Sequence:
#
# PCOD8331087 Si02
#       6
#    48  48  48  48  48  12
#     4  10  19  30  50  77 110 140 170 223 275 321
#     4  12  18  31  54  80 104 137 180 228 265 321
#     4  10  19  31  50  80 110 138 177 221 276 327
#     4  10  19  30  51  80 104 136 175 217 271 320
#     4  10  18  32  50  75 109 137 170 220 268 317
#     4  12  16  28  52  84 100 120 180 224 268 296
#
# _framework density 17.193507
#
# number of rings (size 3 to 8) (size 9 to 14) (size 15 to 20)
#    0.000    1.524    5.714    1.905    0.000    3.048 
#    0.000    0.000    4.190    0.000    0.000    0.000 
#    0.000    0.000    0.000    0.000    0.000    0.000 
#
# Total GULP energy -1562138.479053 kJ/mol
# GULP energy per Si atom -12397.924437 kJ/mol
# Density = 1.715437 g / cm^3
# Si number density = 17.193507 Si / 1000 Ang^3
#
#
#
# Elastic Constant Matrix: (Units=GPa)
#
#
# Indices 1 2 3 4 5 6 
#
# 1 86.1377 49.5238 49.5238 0.0000 0.0000 0.0000
# 2 49.5238 86.1377 49.5238 0.0000 0.0000 0.0000
# 3 49.5238 49.5238 86.1377 0.0000 0.0000 0.0000
# 4 0.0000 0.0000 0.0000 52.5124 0.0000 0.0000
# 5 0.0000 0.0000 0.0000 0.0000 52.5124 0.0000
# 6 0.0000 0.0000 0.0000 0.0000 0.0000 52.5124
#
#
#
# Elastic Compliance Matrix: (Units=1/GPa)
#
#
# Indices 1 2 3 4 5 6 
#
# 1 0.020008 -0.007304 -0.007304 0.000000 0.000000 0.000000
# 2 -0.007304 0.020008 -0.007304 0.000000 0.000000 0.000000
# 3 -0.007304 -0.007304 0.020008 0.000000 0.000000 0.000000
# 4 0.000000 0.000000 0.000000 0.019043 0.000000 0.000000
# 5 0.000000 0.000000 0.000000 0.000000 0.019043 0.000000
# 6 0.000000 0.000000 0.000000 0.000000 0.000000 0.019043
#
#
# Mechanical properties :
#
#
# Convention : Reuss Voigt Hill
#
# Bulk Modulus (GPa) = 61.72845 61.72845 61.72845
# Shear Modulus (GPa) = 30.05211 38.83021 34.44116
#
# Velocity S-wave (km/s) = 4.18530 4.75744 4.48051
# Velocity P-wave (km/s) = 7.70297 8.13374 7.92129
#
# Compressibility (1/GPa) = 0.01619999
#
# Stress axis : x y z
#
# Youngs Moduli (GPa) = 49.97988 49.97988 49.97988
#
# Poissons Ratio (x) = 0.36505 0.36505
# Poissons Ratio (y) = 0.36505 0.36505
# Poissons Ratio (z) = 0.36505 0.36505
#
# Static dielectric constant tensor:
#      x y z
#    x 3.146800 0.000000 0.000000 
#    y 0.000000 3.146800 0.000000 
#    z 0.000000 0.000000 3.146800 
# 
# 
# High freq. dielectric constant tensor:
#      x y z
#    x 1.649980 0.000000 0.000000 
#    y 0.000000 1.649980 0.000000 
#    z 0.000000 0.000000 1.649980 
# 
# From -- ./inp_files/487.got.cif
#   From: 2010.03.12/outbox.cif.g09.slc.cpg/sg220_cif.got.tgz:487.got - 2010.03.30 09:07:51.
