data_PCOD8331055
_publ_section_title
;
Structure prediction by ZEFSAII (Michael W. Deem and Ramdas Pophale) SiO2 
 PCOD8331055
Probable space group: I -4 3 M 
;
_chemical_formula_sum "Si O2"
_cell_formula_units_Z 120
_cell_length_a 18.521526
_cell_length_b 18.521526
_cell_length_c 18.521526
_cell_angle_alpha 90.000000
_cell_angle_beta 90.000000
_cell_angle_gamma 90.000000
_cell_volume 6353.752547
_symmetry_space_group_name_H-M "I -4 3 M "
_symmetry_group_IT_number 217
_symmetry_cell_setting 'cubic'
loop_
_space_group_symop_operation_xyz
x,y,z
y,-x,-z
-x,-y,z
-y,x,-z
-x,z,-y
x,-y,-z
-x,-z,y
-z,-y,x
-x,y,-z
z,-y,-x
z,x,y
y,z,x
-y,-z,x
z,-x,-y
-y,z,-x
-z,-x,y
-z,x,-y
y,-z,-x
-y,-x,z
y,x,z
x,-z,-y
x,z,y
-z,y,-x
z,y,x
1/2+x,1/2+y,1/2+z
1/2+y,1/2-x,1/2-z
1/2-x,1/2-y,1/2+z
1/2-y,1/2+x,1/2-z
1/2-x,1/2+z,1/2-y
1/2+x,1/2-y,1/2-z
1/2-x,1/2-z,1/2+y
1/2-z,1/2-y,1/2+x
1/2-x,1/2+y,1/2-z
1/2+z,1/2-y,1/2-x
1/2+z,1/2+x,1/2+y
1/2+y,1/2+z,1/2+x
1/2-y,1/2-z,1/2+x
1/2+z,1/2-x,1/2-y
1/2-y,1/2+z,1/2-x
1/2-z,1/2-x,1/2+y
1/2-z,1/2+x,1/2-y
1/2+y,1/2-z,1/2-x
1/2-y,1/2-x,1/2+z
1/2+y,1/2+x,1/2+z
1/2+x,1/2-z,1/2-y
1/2+x,1/2+z,1/2+y
1/2-z,1/2+y,1/2-x
1/2+z,1/2+y,1/2+x
loop_
_atom_site_type_symbol
_atom_site_label
_atom_site_fract_x
_atom_site_fract_y
_atom_site_fract_z
Si Si1 0.132159 0.430260 0.314565
Si Si2 0.000000 0.111160 0.500000
Si Si3 0.317167 0.201381 0.086190
O O1 0.163883 0.375130 0.375130
O O2 0.117681 0.389231 0.239467
O O3 0.184292 0.498965 0.304827
O O4 0.055726 0.460328 0.338645
O O5 0.940088 0.059913 0.538928
O O6 0.248354 0.248354 0.109159
O O7 0.310858 0.122671 0.122671
#
# Coordination Sequence:
#
# PCOD8331055 Si02
#       3
#    48  24  48
#     4  10  20  33  52  75 101 136 173 209 251 305
#     4   9  16  27  46  74 102 126 160 206 250 294
#     4  11  22  36  53  75 104 137 174 217 265 313
#
# _framework density 18.886475999999998
#
# number of rings (size 3 to 8) (size 9 to 14) (size 15 to 20)
#    0.000    1.800    0.000    5.200    0.000    5.600 
#    0.000    0.000    0.000    0.800    0.000    0.000 
#    0.000    0.000    0.000    0.000    0.000    0.800 
#
# Total GULP energy -743728.149651 kJ/mol
# GULP energy per Si atom -12395.469161 kJ/mol
# Density = 1.884349 g / cm^3
# Si number density = 18.886476 Si / 1000 Ang^3
#
#
#
# Elastic Constant Matrix: (Units=GPa)
#
#
# Indices 1 2 3 4 5 6 
#
# 1 73.0132 22.1566 22.1566 0.0000 0.0000 0.0000
# 2 22.1566 73.0132 22.1566 0.0000 0.0000 0.0000
# 3 22.1566 22.1566 73.0132 0.0000 0.0000 0.0000
# 4 0.0000 0.0000 0.0000 21.8720 0.0000 0.0000
# 5 0.0000 0.0000 0.0000 0.0000 21.8721 0.0000
# 6 0.0000 0.0000 0.0000 0.0000 0.0000 21.8720
#
#
#
# Elastic Compliance Matrix: (Units=1/GPa)
#
#
# Indices 1 2 3 4 5 6 
#
# 1 0.015950 -0.003713 -0.003713 0.000000 0.000000 0.000000
# 2 -0.003713 0.015950 -0.003713 0.000000 0.000000 0.000000
# 3 -0.003713 -0.003713 0.015950 0.000000 0.000000 0.000000
# 4 0.000000 0.000000 0.000000 0.045720 0.000000 0.000000
# 5 0.000000 0.000000 0.000000 0.000000 0.045720 0.000000
# 6 0.000000 0.000000 0.000000 0.000000 0.000000 0.045720
#
#
# Mechanical properties :
#
#
# Convention : Reuss Voigt Hill
#
# Bulk Modulus (GPa) = 39.10882 39.10882 39.10882
# Shear Modulus (GPa) = 23.16811 23.29454 23.23132
#
# Velocity S-wave (km/s) = 3.50623 3.51579 3.51101
# Velocity P-wave (km/s) = 6.09457 6.10191 6.09824
#
# Compressibility (1/GPa) = 0.02556968
#
# Stress axis : x y z
#
# Youngs Moduli (GPa) = 62.69656 62.69656 62.69656
#
# Poissons Ratio (x) = 0.23281 0.23281
# Poissons Ratio (y) = 0.23281 0.23281
# Poissons Ratio (z) = 0.23281 0.23281
#
# Static dielectric constant tensor:
#      x y z
#    x 3.535670 0.000000 0.000000 
#    y 0.000000 3.535670 0.000000 
#    z 0.000000 0.000000 3.535670 
# 
# 
# High freq. dielectric constant tensor:
#      x y z
#    x 1.724210 0.000000 0.000000 
#    y 0.000000 1.724210 0.000000 
#    z 0.000000 0.000000 1.724210 
# 
# From -- ./inp_files/240.got.cif
#   From: 2010.03.12/outbox.cif.g09.slc.cpg/sg217_cif.got.tgz:240.got - 2010.03.30 09:07:03.
