data_PCOD8331164
_publ_section_title
;
Structure prediction by ZEFSAII (Michael W. Deem and Ramdas Pophale) SiO2 
 PCOD8331164
Probable space group: I M 3 M
;
_chemical_formula_sum "Si O2"
_cell_formula_units_Z 480
_cell_length_a 30.873860
_cell_length_b 30.873860
_cell_length_c 30.873860
_cell_angle_alpha 90.000000
_cell_angle_beta 90.000000
_cell_angle_gamma 90.000000
_cell_volume 29428.816124
_symmetry_space_group_name_H-M "I M 3 M"
_symmetry_group_IT_number 229
_symmetry_cell_setting 'cubic'
loop_
_space_group_symop_operation_xyz
x,y,z
-y,x,z
-x,-y,z
y,-x,z
x,-z,y
x,-y,-z
x,z,-y
z,y,-x
-x,y,-z
-z,y,x
z,x,y
y,z,x
-y,-z,x
z,-x,-y
-y,z,-x
-z,-x,y
-z,x,-y
y,-z,-x
y,x,-z
-y,-x,-z
-x,z,y
-x,-z,-y
z,-y,x
-z,-y,-x
-x,-y,-z
y,-x,-z
x,y,-z
-y,x,-z
-x,z,-y
-x,y,z
-x,-z,y
-z,-y,x
x,-y,z
z,-y,-x
-z,-x,-y
-y,-z,-x
y,z,-x
-z,x,y
y,-z,x
z,x,-y
z,-x,y
-y,z,x
-y,-x,z
y,x,z
x,-z,-y
x,z,y
-z,y,-x
z,y,x
1/2+x,1/2+y,1/2+z
1/2-y,1/2+x,1/2+z
1/2-x,1/2-y,1/2+z
1/2+y,1/2-x,1/2+z
1/2+x,1/2-z,1/2+y
1/2+x,1/2-y,1/2-z
1/2+x,1/2+z,1/2-y
1/2+z,1/2+y,1/2-x
1/2-x,1/2+y,1/2-z
1/2-z,1/2+y,1/2+x
1/2+z,1/2+x,1/2+y
1/2+y,1/2+z,1/2+x
1/2-y,1/2-z,1/2+x
1/2+z,1/2-x,1/2-y
1/2-y,1/2+z,1/2-x
1/2-z,1/2-x,1/2+y
1/2-z,1/2+x,1/2-y
1/2+y,1/2-z,1/2-x
1/2+y,1/2+x,1/2-z
1/2-y,1/2-x,1/2-z
1/2-x,1/2+z,1/2+y
1/2-x,1/2-z,1/2-y
1/2+z,1/2-y,1/2+x
1/2-z,1/2-y,1/2-x
1/2-x,1/2-y,1/2-z
1/2+y,1/2-x,1/2-z
1/2+x,1/2+y,1/2-z
1/2-y,1/2+x,1/2-z
1/2-x,1/2+z,1/2-y
1/2-x,1/2+y,1/2+z
1/2-x,1/2-z,1/2+y
1/2-z,1/2-y,1/2+x
1/2+x,1/2-y,1/2+z
1/2+z,1/2-y,1/2-x
1/2-z,1/2-x,1/2-y
1/2-y,1/2-z,1/2-x
1/2+y,1/2+z,1/2-x
1/2-z,1/2+x,1/2+y
1/2+y,1/2-z,1/2+x
1/2+z,1/2+x,1/2-y
1/2+z,1/2-x,1/2+y
1/2-y,1/2+z,1/2+x
1/2-y,1/2-x,1/2+z
1/2+y,1/2+x,1/2+z
1/2+x,1/2-z,1/2-y
1/2+x,1/2+z,1/2+y
1/2-z,1/2+y,1/2-x
1/2+z,1/2+y,1/2+x
loop_
_atom_site_type_symbol
_atom_site_label
_atom_site_fract_x
_atom_site_fract_y
_atom_site_fract_z
Si Si1 0.819750 0.680251 0.250000
Si Si2 0.342669 0.949948 0.342669
Si Si3 0.731906 0.876842 0.195110
Si Si4 0.452695 0.949777 0.949777
Si Si5 0.748053 0.619683 0.951908
Si Si6 0.049536 0.324125 0.833374
Si Si7 0.601880 0.116805 0.601880
O O1 0.819910 0.724256 0.275745
O O2 0.861671 0.686120 0.218860
O O3 0.350003 0.939919 0.292373
O O4 0.369365 0.914954 0.369365
O O5 0.354718 0.000000 0.354718
O O6 0.744555 0.841191 0.158810
O O7 0.772244 0.882844 0.227757
O O8 0.720175 0.922751 0.173020
O O9 0.500000 0.933291 0.933291
O O10 0.413507 0.927042 0.927042
O O11 0.448707 0.000000 0.939666
O O12 0.750000 0.579067 0.920934
O O13 0.789849 0.648835 0.949167
O O14 0.742473 0.600391 0.000000
O O15 0.070511 0.352867 0.870674
O O16 0.000000 0.311681 0.845562
#
# Coordination Sequence:
#
# PCOD8331164 Si02
#       7
#    48  48  96  48  96  96  48
#     4   8  15  26  46  74 104 130 161 200 246 290
#     4  10  21  35  54  74 100 135 174 220 262 304
#     4  10  20  35  54  78 104 135 170 210 253 300
#     4   9  19  36  57  80 102 125 163 221 282 325
#     4  10  21  37  52  72  99 130 167 210 259 311
#     4  11  24  37  52  77 107 136 169 211 257 313
#     4  12  20  36  58  75 101 134 179 213 259 313
#
# _framework density 16.310544
#
# number of rings (size 3 to 8) (size 9 to 14) (size 15 to 20)
#    0.000    1.900    3.000    1.500    2.800    2.200 
#    0.000    0.000    0.000    0.000    0.000    0.000 
#    0.000    0.000    0.000    0.000    0.000    0.000 
#
# Total GULP energy -2974180.032589 kJ/mol
# GULP energy per Si atom -12392.416802 kJ/mol
# Density = 1.627342 g / cm^3
# Si number density = 16.310544 Si / 1000 Ang^3
#
#
#
# Elastic Constant Matrix: (Units=GPa)
#
#
# Indices 1 2 3 4 5 6 
#
# 1 99.9675 50.3997 50.3997 0.0000 0.0000 0.0000
# 2 50.3997 99.9675 50.3997 0.0000 0.0000 0.0000
# 3 50.3997 50.3997 99.9675 0.0000 0.0000 0.0000
# 4 0.0000 0.0000 0.0000 32.5578 0.0000 0.0000
# 5 0.0000 0.0000 0.0000 0.0000 32.5578 0.0000
# 6 0.0000 0.0000 0.0000 0.0000 0.0000 32.5578
#
#
#
# Elastic Compliance Matrix: (Units=1/GPa)
#
#
# Indices 1 2 3 4 5 6 
#
# 1 0.015110 -0.005065 -0.005065 0.000000 0.000000 0.000000
# 2 -0.005065 0.015110 -0.005065 0.000000 0.000000 0.000000
# 3 -0.005065 -0.005065 0.015110 0.000000 0.000000 0.000000
# 4 0.000000 0.000000 0.000000 0.030715 0.000000 0.000000
# 5 0.000000 0.000000 0.000000 0.000000 0.030715 0.000000
# 6 0.000000 0.000000 0.000000 0.000000 0.000000 0.030715
#
#
# Mechanical properties :
#
#
# Convention : Reuss Voigt Hill
#
# Bulk Modulus (GPa) = 66.92231 66.92231 66.92231
# Shear Modulus (GPa) = 28.92827 29.44825 29.18826
#
# Velocity S-wave (km/s) = 4.21597 4.25370 4.23488
# Velocity P-wave (km/s) = 8.05099 8.07740 8.06420
#
# Compressibility (1/GPa) = 0.01494270
#
# Stress axis : x y z
#
# Youngs Moduli (GPa) = 66.18177 66.18177 66.18177
#
# Poissons Ratio (x) = 0.33518 0.33518
# Poissons Ratio (y) = 0.33518 0.33518
# Poissons Ratio (z) = 0.33518 0.33518
#
# Static dielectric constant tensor:
#      x y z
#    x 3.129000 0.000000 0.000000 
#    y 0.000000 3.129000 0.000000 
#    z 0.000000 0.000000 3.129000 
# 
# 
# High freq. dielectric constant tensor:
#      x y z
#    x 1.621660 0.000000 0.000000 
#    y 0.000000 1.621660 0.000000 
#    z 0.000000 0.000000 1.621660 
# 
# From -- ./inp_files/1034.got.cif
#   From: 2010.03.12/outbox.cif.g09.slc.cpg/sg229_cif.got.tgz:1034.got - 2010.03.30 09:10:17.
