data_PCOD8331147
_publ_section_title
;
Structure prediction by ZEFSAII (Michael W. Deem and Ramdas Pophale) SiO2 
 PCOD8331147
Probable space group: F M 3 C
;
_chemical_formula_sum "Si O2"
_cell_formula_units_Z 320
_cell_length_a 24.996195
_cell_length_b 24.996195
_cell_length_c 24.996195
_cell_angle_alpha 90.000000
_cell_angle_beta 90.000000
_cell_angle_gamma 90.000000
_cell_volume 15617.866711
_symmetry_space_group_name_H-M "F M 3 C"
_symmetry_group_IT_number 226
_symmetry_cell_setting 'cubic'
loop_
_space_group_symop_operation_xyz
x,y,z
-y,x,1/2+z
-x,-y,z
y,-x,1/2+z
x,-z,1/2+y
x,-y,-z
x,z,1/2-y
z,y,1/2-x
-x,y,-z
-z,y,1/2+x
z,x,y
y,z,x
-y,-z,x
z,-x,-y
-y,z,-x
-z,-x,y
-z,x,-y
y,-z,-x
y,x,1/2-z
-y,-x,1/2-z
-x,z,1/2+y
-x,-z,1/2-y
z,-y,1/2+x
-z,-y,1/2-x
-x,-y,-z
y,-x,1/2-z
x,y,-z
-y,x,1/2-z
-x,z,1/2-y
-x,y,z
-x,-z,1/2+y
-z,-y,1/2+x
x,-y,z
z,-y,1/2-x
-z,-x,-y
-y,-z,-x
y,z,-x
-z,x,y
y,-z,x
z,x,-y
z,-x,y
-y,z,x
-y,-x,1/2+z
y,x,1/2+z
x,-z,1/2-y
x,z,1/2+y
-z,y,1/2-x
z,y,1/2+x
x,1/2+y,1/2+z
-y,1/2+x,z
-x,1/2-y,1/2+z
y,1/2-x,z
x,1/2-z,y
x,1/2-y,1/2-z
x,1/2+z,-y
z,1/2+y,-x
-x,1/2+y,1/2-z
-z,1/2+y,x
z,1/2+x,1/2+y
y,1/2+z,1/2+x
-y,1/2-z,1/2+x
z,1/2-x,1/2-y
-y,1/2+z,1/2-x
-z,1/2-x,1/2+y
-z,1/2+x,1/2-y
y,1/2-z,1/2-x
y,1/2+x,-z
-y,1/2-x,-z
-x,1/2+z,y
-x,1/2-z,-y
z,1/2-y,x
-z,1/2-y,-x
-x,1/2-y,1/2-z
y,1/2-x,-z
x,1/2+y,1/2-z
-y,1/2+x,-z
-x,1/2+z,-y
-x,1/2+y,1/2+z
-x,1/2-z,y
-z,1/2-y,x
x,1/2-y,1/2+z
z,1/2-y,-x
-z,1/2-x,1/2-y
-y,1/2-z,1/2-x
y,1/2+z,1/2-x
-z,1/2+x,1/2+y
y,1/2-z,1/2+x
z,1/2+x,1/2-y
z,1/2-x,1/2+y
-y,1/2+z,1/2+x
-y,1/2-x,z
y,1/2+x,z
x,1/2-z,-y
x,1/2+z,y
-z,1/2+y,-x
z,1/2+y,x
1/2+x,y,1/2+z
1/2-y,x,z
1/2-x,-y,1/2+z
1/2+y,-x,z
1/2+x,-z,y
1/2+x,-y,1/2-z
1/2+x,z,-y
1/2+z,y,-x
1/2-x,y,1/2-z
1/2-z,y,x
1/2+z,x,1/2+y
1/2+y,z,1/2+x
1/2-y,-z,1/2+x
1/2+z,-x,1/2-y
1/2-y,z,1/2-x
1/2-z,-x,1/2+y
1/2-z,x,1/2-y
1/2+y,-z,1/2-x
1/2+y,x,-z
1/2-y,-x,-z
1/2-x,z,y
1/2-x,-z,-y
1/2+z,-y,x
1/2-z,-y,-x
1/2-x,-y,1/2-z
1/2+y,-x,-z
1/2+x,y,1/2-z
1/2-y,x,-z
1/2-x,z,-y
1/2-x,y,1/2+z
1/2-x,-z,y
1/2-z,-y,x
1/2+x,-y,1/2+z
1/2+z,-y,-x
1/2-z,-x,1/2-y
1/2-y,-z,1/2-x
1/2+y,z,1/2-x
1/2-z,x,1/2+y
1/2+y,-z,1/2+x
1/2+z,x,1/2-y
1/2+z,-x,1/2+y
1/2-y,z,1/2+x
1/2-y,-x,z
1/2+y,x,z
1/2+x,-z,-y
1/2+x,z,y
1/2-z,y,-x
1/2+z,y,x
1/2+x,1/2+y,z
1/2-y,1/2+x,1/2+z
1/2-x,1/2-y,z
1/2+y,1/2-x,1/2+z
1/2+x,1/2-z,1/2+y
1/2+x,1/2-y,-z
1/2+x,1/2+z,1/2-y
1/2+z,1/2+y,1/2-x
1/2-x,1/2+y,-z
1/2-z,1/2+y,1/2+x
1/2+z,1/2+x,y
1/2+y,1/2+z,x
1/2-y,1/2-z,x
1/2+z,1/2-x,-y
1/2-y,1/2+z,-x
1/2-z,1/2-x,y
1/2-z,1/2+x,-y
1/2+y,1/2-z,-x
1/2+y,1/2+x,1/2-z
1/2-y,1/2-x,1/2-z
1/2-x,1/2+z,1/2+y
1/2-x,1/2-z,1/2-y
1/2+z,1/2-y,1/2+x
1/2-z,1/2-y,1/2-x
1/2-x,1/2-y,-z
1/2+y,1/2-x,1/2-z
1/2+x,1/2+y,-z
1/2-y,1/2+x,1/2-z
1/2-x,1/2+z,1/2-y
1/2-x,1/2+y,z
1/2-x,1/2-z,1/2+y
1/2-z,1/2-y,1/2+x
1/2+x,1/2-y,z
1/2+z,1/2-y,1/2-x
1/2-z,1/2-x,-y
1/2-y,1/2-z,-x
1/2+y,1/2+z,-x
1/2-z,1/2+x,y
1/2+y,1/2-z,x
1/2+z,1/2+x,-y
1/2+z,1/2-x,y
1/2-y,1/2+z,x
1/2-y,1/2-x,1/2+z
1/2+y,1/2+x,1/2+z
1/2+x,1/2-z,1/2-y
1/2+x,1/2+z,1/2+y
1/2-z,1/2+y,1/2-x
1/2+z,1/2+y,1/2+x
loop_
_atom_site_type_symbol
_atom_site_label
_atom_site_fract_x
_atom_site_fract_y
_atom_site_fract_z
Si Si1 0.500000 0.743780 0.588468
Si Si2 0.500000 0.350255 0.865846
Si Si3 0.187357 0.312645 0.687356
Si Si4 0.887879 0.112123 0.887878
O O1 0.552657 0.750000 0.552657
O O2 0.500000 0.786147 0.636961
O O3 0.500000 0.689761 0.620573
O O4 0.553544 0.364200 0.898008
O O5 0.175163 0.324838 0.750000
O O6 0.149885 0.350117 0.649884
#
# Coordination Sequence:
#
# PCOD8331147 Si02
#       4
#    96  96  64  64
#     4  11  24  45  70  98 138 177 228 287 346 406
#     4  12  26  45  70  99 140 184 224 280 352 415
#     4   9  22  46  69  93 136 187 228 277 350 430
#     4  12  27  43  70 106 136 183 234 283 347 424
#
# _framework density 20.489353000000001
#
# number of rings (size 3 to 8) (size 9 to 14) (size 15 to 20)
#    0.000    0.900    6.000    0.600    8.400    1.800 
#    0.000    0.000    0.000    1.200    0.000    0.000 
#    0.000    0.000    0.000    0.000    0.000    0.000 
#
# Total GULP energy -991264.426247 kJ/mol
# GULP energy per Si atom -12390.805328 kJ/mol
# Density = 2.044272 g / cm^3
# Si number density = 20.489353 Si / 1000 Ang^3
#
#
#
# Elastic Constant Matrix: (Units=GPa)
#
#
# Indices 1 2 3 4 5 6 
#
# 1 118.8646 31.9773 31.9772 0.0000 0.0000 0.0000
# 2 31.9773 118.8646 31.9772 0.0000 0.0000 0.0000
# 3 31.9772 31.9772 118.8627 0.0000 0.0000 0.0000
# 4 0.0000 0.0000 0.0000 26.8305 0.0000 0.0000
# 5 0.0000 0.0000 0.0000 0.0000 26.8305 0.0000
# 6 0.0000 0.0000 0.0000 0.0000 0.0000 26.8305
#
#
#
# Elastic Compliance Matrix: (Units=1/GPa)
#
#
# Indices 1 2 3 4 5 6 
#
# 1 0.009496 -0.002013 -0.002013 0.000000 0.000000 0.000000
# 2 -0.002013 0.009496 -0.002013 0.000000 0.000000 0.000000
# 3 -0.002013 -0.002013 0.009496 0.000000 0.000000 0.000000
# 4 0.000000 0.000000 0.000000 0.037271 0.000000 0.000000
# 5 0.000000 0.000000 0.000000 0.000000 0.037271 0.000000
# 6 0.000000 0.000000 0.000000 0.000000 0.000000 0.037271
#
#
# Mechanical properties :
#
#
# Convention : Reuss Voigt Hill
#
# Bulk Modulus (GPa) = 60.93947 60.93947 60.93947
# Shear Modulus (GPa) = 31.67563 33.47564 32.57563
#
# Velocity S-wave (km/s) = 3.93613 4.04642 3.99166
# Velocity P-wave (km/s) = 7.10381 7.18596 7.14500
#
# Compressibility (1/GPa) = 0.01640972
#
# Stress axis : x y z
#
# Youngs Moduli (GPa) = 105.30666 105.30666 105.30493
#
# Poissons Ratio (x) = 0.21199 0.21199
# Poissons Ratio (y) = 0.21199 0.21199
# Poissons Ratio (z) = 0.21199 0.21199
#
# Static dielectric constant tensor:
#      x y z
#    x 4.046030 0.000000 0.000000 
#    y 0.000000 4.046030 0.000000 
#    z 0.000000 0.000000 4.046030 
# 
# 
# High freq. dielectric constant tensor:
#      x y z
#    x 1.808580 0.000000 0.000000 
#    y 0.000000 1.808580 0.000000 
#    z 0.000000 0.000000 1.808580 
# 
# From -- ./inp_files/186.got.cif
#   From: 2010.03.12/outbox.cif.g09.slc.cpg/sg226_cif.got.tgz:186.got - 2010.03.30 09:10:02.
