data_PCOD8331170
_publ_section_title
;
Structure prediction by ZEFSAII (Michael W. Deem and Ramdas Pophale) SiO2 
 PCOD8331170
Probable space group: I A 3 D 
;
_chemical_formula_sum "Si O2"
_cell_formula_units_Z 248
_cell_length_a 22.607881
_cell_length_b 22.607881
_cell_length_c 22.607881
_cell_angle_alpha 90.000000
_cell_angle_beta 90.000000
_cell_angle_gamma 90.000000
_cell_volume 11555.256110
_symmetry_space_group_name_H-M "I A 3 D "
_symmetry_group_IT_number 230
_symmetry_cell_setting 'cubic'
loop_
_space_group_symop_operation_xyz
x,y,z
1/4-y,3/4+x,1/4+z
-x,1/2-y,z
1/4+y,1/4-x,3/4+z
1/4+x,1/4-z,3/4+y
x,-y,1/2-z
3/4+x,1/4+z,1/4-y
3/4+z,1/4+y,1/4-x
1/2-x,y,-z
1/4-z,3/4+y,1/4+x
z,x,y
y,z,x
-y,1/2-z,x
z,-x,1/2-y
1/2-y,z,-x
-z,1/2-x,y
1/2-z,x,-y
y,-z,1/2-x
3/4+y,1/4+x,1/4-z
1/4-y,1/4-x,1/4-z
1/4-x,3/4+z,1/4+y
1/4-x,1/4-z,1/4-y
1/4+z,1/4-y,3/4+x
1/4-z,1/4-y,1/4-x
-x,-y,-z
3/4+y,1/4-x,3/4-z
x,1/2+y,-z
3/4-y,3/4+x,1/4-z
3/4-x,3/4+z,1/4-y
-x,y,1/2+z
1/4-x,3/4-z,3/4+y
1/4-z,3/4-y,3/4+x
1/2+x,-y,z
3/4+z,1/4-y,3/4-x
-z,-x,-y
-y,-z,-x
y,1/2+z,-x
-z,x,1/2+y
1/2+y,-z,x
z,1/2+x,-y
1/2+z,-x,y
-y,z,1/2+x
1/4-y,3/4-x,3/4+z
3/4+y,3/4+x,3/4+z
3/4+x,1/4-z,3/4-y
3/4+x,3/4+z,3/4+y
3/4-z,3/4+y,1/4-x
3/4+z,3/4+y,3/4+x
1/2+x,1/2+y,1/2+z
3/4-y,1/4+x,3/4+z
1/2-x,-y,1/2+z
3/4+y,3/4-x,1/4+z
3/4+x,3/4-z,1/4+y
1/2+x,1/2-y,-z
1/4+x,3/4+z,3/4-y
1/4+z,3/4+y,3/4-x
-x,1/2+y,1/2-z
3/4-z,1/4+y,3/4+x
1/2+z,1/2+x,1/2+y
1/2+y,1/2+z,1/2+x
1/2-y,-z,1/2+x
1/2+z,1/2-x,-y
-y,1/2+z,1/2-x
1/2-z,-x,1/2+y
-z,1/2+x,1/2-y
1/2+y,1/2-z,-x
1/4+y,3/4+x,3/4-z
3/4-y,3/4-x,3/4-z
3/4-x,1/4+z,3/4+y
3/4-x,3/4-z,3/4-y
3/4+z,3/4-y,1/4+x
3/4-z,3/4-y,3/4-x
1/2-x,1/2-y,1/2-z
1/4+y,3/4-x,1/4-z
1/2+x,y,1/2-z
1/4-y,1/4+x,3/4-z
1/4-x,1/4+z,3/4-y
1/2-x,1/2+y,z
3/4-x,1/4-z,1/4+y
3/4-z,1/4-y,1/4+x
x,1/2-y,1/2+z
1/4+z,3/4-y,1/4-x
1/2-z,1/2-x,1/2-y
1/2-y,1/2-z,1/2-x
1/2+y,z,1/2-x
1/2-z,1/2+x,y
y,1/2-z,1/2+x
1/2+z,x,1/2-y
z,1/2-x,1/2+y
1/2-y,1/2+z,x
3/4-y,1/4-x,1/4+z
1/4+y,1/4+x,1/4+z
1/4+x,3/4-z,1/4-y
1/4+x,1/4+z,1/4+y
1/4-z,1/4+y,3/4-x
1/4+z,1/4+y,1/4+x
loop_
_atom_site_type_symbol
_atom_site_label
_atom_site_fract_x
_atom_site_fract_y
_atom_site_fract_z
Si Si1 0.789660 0.710341 0.289660
Si Si2 0.102268 0.715925 0.287792
Si Si3 0.776879 0.852916 0.587652
Si Si4 0.625000 0.000000 0.250000
O O1 0.750000 0.750000 0.250000
O O2 0.842309 0.749606 0.313780
O O3 0.114646 0.646867 0.298942
O O4 0.092074 0.727985 0.218065
O O5 0.053049 0.744852 0.328899
O O6 0.712454 0.879333 0.573513
#
# Coordination Sequence:
#
# PCOD8331170 Si02
#       4
#    32  96  96  24
#     4  12  24  46  74  97 135 190 245 283 357 448
#     4  12  26  47  70 108 143 192 240 302 377 443
#     4  11  24  44  76 103 139 193 252 305 360 455
#     4  12  32  44  70 112 156 184 232 322 388 428
#
# _framework density 21.462095999999999
#
# number of rings (size 3 to 8) (size 9 to 14) (size 15 to 20)
#    0.000    0.387    3.871    3.484   10.839    1.548 
#    0.000    0.000    0.000    0.000    0.000    0.000 
#    0.000    0.000    0.000    0.000    0.000    0.000 
#
# Total GULP energy -1536812.914276 kJ/mol
# GULP energy per Si atom -12393.652534 kJ/mol
# Density = 2.141325 g / cm^3
# Si number density = 21.462096 Si / 1000 Ang^3
#
#
#
# Elastic Constant Matrix: (Units=GPa)
#
#
# Indices 1 2 3 4 5 6 
#
# 1 134.9292 53.8631 53.8618 0.0000 0.0000 0.0000
# 2 53.8631 134.9292 53.8618 0.0000 0.0000 0.0000
# 3 53.8618 53.8618 134.9293 0.0000 0.0000 0.0000
# 4 0.0000 0.0000 0.0000 32.5945 0.0000 0.0000
# 5 0.0000 0.0000 0.0000 0.0000 32.5945 0.0000
# 6 0.0000 0.0000 0.0000 0.0000 0.0000 32.5953
#
#
#
# Elastic Compliance Matrix: (Units=1/GPa)
#
#
# Indices 1 2 3 4 5 6 
#
# 1 0.009597 -0.002738 -0.002738 0.000000 0.000000 0.000000
# 2 -0.002738 0.009597 -0.002738 0.000000 0.000000 0.000000
# 3 -0.002738 -0.002738 0.009597 0.000000 0.000000 0.000000
# 4 0.000000 0.000000 0.000000 0.030680 0.000000 0.000000
# 5 0.000000 0.000000 0.000000 0.000000 0.030680 0.000000
# 6 0.000000 0.000000 0.000000 0.000000 0.000000 0.030679
#
#
# Mechanical properties :
#
#
# Convention : Reuss Voigt Hill
#
# Bulk Modulus (GPa) = 80.88457 80.88457 80.88457
# Shear Modulus (GPa) = 35.36536 35.77025 35.56780
#
# Velocity S-wave (km/s) = 4.06372 4.08692 4.07534
# Velocity P-wave (km/s) = 7.73223 7.74852 7.74038
#
# Compressibility (1/GPa) = 0.01236330
#
# Stress axis : x y z
#
# Youngs Moduli (GPa) = 104.19511 104.19511 104.19611
#
# Poissons Ratio (x) = 0.28531 0.28530
# Poissons Ratio (y) = 0.28531 0.28530
# Poissons Ratio (z) = 0.28529 0.28529
#
# Static dielectric constant tensor:
#      x y z
#    x 3.782460 0.000000 0.000000 
#    y 0.000000 3.782460 0.000000 
#    z 0.000000 0.000000 3.782470 
# 
# 
# High freq. dielectric constant tensor:
#      x y z
#    x 1.855870 0.000000 0.000000 
#    y 0.000000 1.855870 0.000000 
#    z 0.000000 0.000000 1.855870 
# 
# From -- ./inp_files/468.got.cif
#   From: 2010.03.12/outbox.cif.g09.slc.cpg/sg230_cif.got.tgz:468.got - 2010.03.30 09:10:43.
