data_PCOD8331106
_publ_section_title
;
Structure prediction by ZEFSAII (Michael W. Deem and Ramdas Pophale) SiO2 
 PCOD8331106
Probable space group: P M 3 M
;
_chemical_formula_sum "Si O2"
_cell_formula_units_Z 312
_cell_length_a 27.108121
_cell_length_b 27.108121
_cell_length_c 27.108121
_cell_angle_alpha 90.000000
_cell_angle_beta 90.000000
_cell_angle_gamma 90.000000
_cell_volume 19920.408793
_symmetry_space_group_name_H-M "P M 3 M"
_symmetry_group_IT_number 221
_symmetry_cell_setting 'cubic'
loop_
_space_group_symop_operation_xyz
x,y,z
-y,x,z
-x,-y,z
y,-x,z
x,-z,y
x,-y,-z
x,z,-y
z,y,-x
-x,y,-z
-z,y,x
z,x,y
y,z,x
-y,-z,x
z,-x,-y
-y,z,-x
-z,-x,y
-z,x,-y
y,-z,-x
y,x,-z
-y,-x,-z
-x,z,y
-x,-z,-y
z,-y,x
-z,-y,-x
-x,-y,-z
y,-x,-z
x,y,-z
-y,x,-z
-x,z,-y
-x,y,z
-x,-z,y
-z,-y,x
x,-y,z
z,-y,-x
-z,-x,-y
-y,-z,-x
y,z,-x
-z,x,y
y,-z,x
z,x,-y
z,-x,y
-y,z,x
-y,-x,z
y,x,z
x,-z,-y
x,z,y
-z,y,-x
z,y,x
loop_
_atom_site_type_symbol
_atom_site_label
_atom_site_fract_x
_atom_site_fract_y
_atom_site_fract_z
Si Si1 0.365202 0.443187 0.945935
Si Si2 0.500000 0.869890 0.943586
Si Si3 0.869748 0.556944 0.284744
Si Si4 0.817215 0.344381 0.263986
Si Si5 0.056617 0.582573 0.798865
Si Si6 0.317509 0.895358 0.815084
Si Si7 0.140816 0.221742 0.058004
O O1 0.376594 0.500000 0.942044
O O2 0.417244 0.417244 0.940478
O O3 0.333011 0.426316 0.899437
O O4 0.341090 0.430509 0.000000
O O5 0.500000 0.925018 0.925018
O O6 0.449666 0.844820 0.925318
O O7 0.500000 0.873555 0.000000
O O8 0.849226 0.500000 0.287356
O O9 0.827113 0.597434 0.274901
O O10 0.910965 0.560019 0.243765
O O11 0.810100 0.315086 0.315086
O O12 0.766991 0.341105 0.233010
O O13 0.861775 0.318028 0.234117
O O14 0.063728 0.640251 0.809876
O O15 0.000000 0.572933 0.785188
O O16 0.330413 0.861815 0.861815
O O17 0.265515 0.922805 0.823434
O O18 0.170724 0.170724 0.064753
O O19 0.090405 0.219355 0.090405
O O20 0.127466 0.229855 0.000000
#
# Coordination Sequence:
#
# PCOD8331106 Si02
#       7
#    48  24  48  48  48  48  48
#     4   9  17  28  43  62  87 119 153 190 230 270
#     4  10  20  31  44  60  80 110 145 181 219 255
#     4  10  19  31  45  66  90 117 148 187 225 268
#     4  10  20  33  49  68  91 119 150 185 225 272
#     4  10  18  29  45  65  88 117 149 183 219 256
#     4   9  18  31  47  69  92 117 147 182 220 259
#     4  10  20  34  52  72  94 118 144 176 216 265
#
# _framework density 15.662329
#
# number of rings (size 3 to 8) (size 9 to 14) (size 15 to 20)
#    0.000    2.308    0.769    2.615    0.000    1.923 
#    0.000    2.308    0.000    7.385    0.000    2.154 
#    0.000    0.000    0.000    4.769    0.000    0.000 
#
# Total GULP energy -3865902.063470 kJ/mol
# GULP energy per Si atom -12390.711742 kJ/mol
# Density = 1.562668 g / cm^3
# Si number density = 15.662329 Si / 1000 Ang^3
#
#
#
# Elastic Constant Matrix: (Units=GPa)
#
#
# Indices 1 2 3 4 5 6 
#
# 1 61.3237 38.9562 38.9562 0.0000 0.0000 0.0000
# 2 38.9562 61.3237 38.9562 0.0000 0.0000 0.0000
# 3 38.9562 38.9562 61.3237 0.0000 0.0000 0.0000
# 4 0.0000 0.0000 0.0000 19.2557 0.0000 0.0000
# 5 0.0000 0.0000 0.0000 0.0000 19.2557 0.0000
# 6 0.0000 0.0000 0.0000 0.0000 0.0000 19.2557
#
#
#
# Elastic Compliance Matrix: (Units=1/GPa)
#
#
# Indices 1 2 3 4 5 6 
#
# 1 0.032199 -0.012509 -0.012509 0.000000 0.000000 0.000000
# 2 -0.012509 0.032199 -0.012509 0.000000 0.000000 0.000000
# 3 -0.012509 -0.012509 0.032199 0.000000 0.000000 0.000000
# 4 0.000000 0.000000 0.000000 0.051933 0.000000 0.000000
# 5 0.000000 0.000000 0.000000 0.000000 0.051933 0.000000
# 6 0.000000 0.000000 0.000000 0.000000 0.000000 0.051933
#
#
# Mechanical properties :
#
#
# Convention : Reuss Voigt Hill
#
# Bulk Modulus (GPa) = 46.41203 46.41203 46.41203
# Shear Modulus (GPa) = 14.94193 16.02694 15.48443
#
# Velocity S-wave (km/s) = 3.09205 3.20234 3.14768
# Velocity P-wave (km/s) = 6.51498 6.58563 6.55040
#
# Compressibility (1/GPa) = 0.02154614
#
# Stress axis : x y z
#
# Youngs Moduli (GPa) = 31.05668 31.05668 31.05668
#
# Poissons Ratio (x) = 0.38847 0.38847
# Poissons Ratio (y) = 0.38847 0.38847
# Poissons Ratio (z) = 0.38847 0.38847
#
# Static dielectric constant tensor:
#      x y z
#    x 2.828660 0.000000 0.000000 
#    y 0.000000 2.828660 0.000000 
#    z 0.000000 0.000000 2.828660 
# 
# 
# High freq. dielectric constant tensor:
#      x y z
#    x 1.593530 0.000000 0.000000 
#    y 0.000000 1.593530 0.000000 
#    z 0.000000 0.000000 1.593530 
# 
# From -- ./inp_files/869.got.cif
#   From: 2010.03.12/outbox.cif.g09.slc.cpg/sg221_cif.got.tgz:869.got - 2010.03.30 09:08:03.
