data_PCOD8331085
_publ_section_title
;
Structure prediction by ZEFSAII (Michael W. Deem and Ramdas Pophale) SiO2 
 PCOD8331085
Probable space group: F -4 3 C
;
_chemical_formula_sum "Si O2"
_cell_formula_units_Z 160
_cell_length_a 19.719749
_cell_length_b 19.719749
_cell_length_c 19.719749
_cell_angle_alpha 90.000000
_cell_angle_beta 90.000000
_cell_angle_gamma 90.000000
_cell_volume 7668.389226
_symmetry_space_group_name_H-M "F -4 3 C"
_symmetry_group_IT_number 219
_symmetry_cell_setting 'cubic'
loop_
_space_group_symop_operation_xyz
x,y,z
y,-x,1/2-z
-x,-y,z
-y,x,1/2-z
-x,z,1/2-y
x,-y,-z
-x,-z,1/2+y
-z,-y,1/2+x
-x,y,-z
z,-y,1/2-x
z,x,y
y,z,x
-y,-z,x
z,-x,-y
-y,z,-x
-z,-x,y
-z,x,-y
y,-z,-x
-y,-x,1/2+z
y,x,1/2+z
x,-z,1/2-y
x,z,1/2+y
-z,y,1/2-x
z,y,1/2+x
x,1/2+y,1/2+z
y,1/2-x,-z
-x,1/2-y,1/2+z
-y,1/2+x,-z
-x,1/2+z,-y
x,1/2-y,1/2-z
-x,1/2-z,y
-z,1/2-y,x
-x,1/2+y,1/2-z
z,1/2-y,-x
z,1/2+x,1/2+y
y,1/2+z,1/2+x
-y,1/2-z,1/2+x
z,1/2-x,1/2-y
-y,1/2+z,1/2-x
-z,1/2-x,1/2+y
-z,1/2+x,1/2-y
y,1/2-z,1/2-x
-y,1/2-x,z
y,1/2+x,z
x,1/2-z,-y
x,1/2+z,y
-z,1/2+y,-x
z,1/2+y,x
1/2+x,y,1/2+z
1/2+y,-x,-z
1/2-x,-y,1/2+z
1/2-y,x,-z
1/2-x,z,-y
1/2+x,-y,1/2-z
1/2-x,-z,y
1/2-z,-y,x
1/2-x,y,1/2-z
1/2+z,-y,-x
1/2+z,x,1/2+y
1/2+y,z,1/2+x
1/2-y,-z,1/2+x
1/2+z,-x,1/2-y
1/2-y,z,1/2-x
1/2-z,-x,1/2+y
1/2-z,x,1/2-y
1/2+y,-z,1/2-x
1/2-y,-x,z
1/2+y,x,z
1/2+x,-z,-y
1/2+x,z,y
1/2-z,y,-x
1/2+z,y,x
1/2+x,1/2+y,z
1/2+y,1/2-x,1/2-z
1/2-x,1/2-y,z
1/2-y,1/2+x,1/2-z
1/2-x,1/2+z,1/2-y
1/2+x,1/2-y,-z
1/2-x,1/2-z,1/2+y
1/2-z,1/2-y,1/2+x
1/2-x,1/2+y,-z
1/2+z,1/2-y,1/2-x
1/2+z,1/2+x,y
1/2+y,1/2+z,x
1/2-y,1/2-z,x
1/2+z,1/2-x,-y
1/2-y,1/2+z,-x
1/2-z,1/2-x,y
1/2-z,1/2+x,-y
1/2+y,1/2-z,-x
1/2-y,1/2-x,1/2+z
1/2+y,1/2+x,1/2+z
1/2+x,1/2-z,1/2-y
1/2+x,1/2+z,1/2+y
1/2-z,1/2+y,1/2-x
1/2+z,1/2+y,1/2+x
loop_
_atom_site_type_symbol
_atom_site_label
_atom_site_fract_x
_atom_site_fract_y
_atom_site_fract_z
Si Si1 0.909124 0.590878 0.090877
Si Si2 0.731218 0.529010 0.895457
Si Si3 0.250000 0.500000 0.750000
Si Si4 0.500000 0.000000 0.500000
O O1 0.883895 0.545800 0.152884
O O2 0.954535 0.545467 0.045467
O O3 0.736101 0.450891 0.920636
O O4 0.764790 0.540851 0.820545
#
# Coordination Sequence:
#
# PCOD8331085 Si02
#       4
#    32  96  24   8
#     4  12  24  42  66 102 132 178 236 289 348 414
#     4  11  24  46  69 101 139 179 234 286 346 418
#     4  12  24  44  72  98 144 184 224 294 352 408
#     4  12  24  36  66  96 132 172 224 310 348 396
#
# _framework density 20.864878000000001
#
# number of rings (size 3 to 8) (size 9 to 14) (size 15 to 20)
#    0.000    0.600    6.000    3.600    0.000    0.000 
#    3.600    0.000    0.000    1.800    0.000    0.000 
#    0.000    0.000    0.000    0.000    0.000    0.000 
#
# Total GULP energy -495622.329649 kJ/mol
# GULP energy per Si atom -12390.558241 kJ/mol
# Density = 2.081739 g / cm^3
# Si number density = 20.864878 Si / 1000 Ang^3
#
#
#
# Elastic Constant Matrix: (Units=GPa)
#
#
# Indices 1 2 3 4 5 6 
#
# 1 147.4416 35.4349 35.4362 0.0000 0.0000 0.0000
# 2 35.4349 147.4416 35.4362 0.0000 0.0000 0.0000
# 3 35.4362 35.4362 147.4414 0.0000 0.0000 0.0000
# 4 0.0000 0.0000 0.0000 27.5338 0.0000 0.0000
# 5 0.0000 0.0000 0.0000 0.0000 27.5338 0.0000
# 6 0.0000 0.0000 0.0000 0.0000 0.0000 27.5347
#
#
#
# Elastic Compliance Matrix: (Units=1/GPa)
#
#
# Indices 1 2 3 4 5 6 
#
# 1 0.007479 -0.001449 -0.001449 0.000000 0.000000 0.000000
# 2 -0.001449 0.007479 -0.001449 0.000000 0.000000 0.000000
# 3 -0.001449 -0.001449 0.007479 0.000000 0.000000 0.000000
# 4 0.000000 0.000000 0.000000 0.036319 0.000000 0.000000
# 5 0.000000 0.000000 0.000000 0.000000 0.036319 0.000000
# 6 0.000000 0.000000 0.000000 0.000000 0.000000 0.036318
#
#
# Mechanical properties :
#
#
# Convention : Reuss Voigt Hill
#
# Bulk Modulus (GPa) = 72.77100 72.77100 72.77100
# Shear Modulus (GPa) = 34.56183 38.92161 36.74172
#
# Velocity S-wave (km/s) = 4.07438 4.32373 4.20090
# Velocity P-wave (km/s) = 7.55560 7.73816 7.64742
#
# Compressibility (1/GPa) = 0.01374174
#
# Stress axis : x y z
#
# Youngs Moduli (GPa) = 133.70911 133.70911 133.70835
#
# Poissons Ratio (x) = 0.19376 0.19377
# Poissons Ratio (y) = 0.19376 0.19377
# Poissons Ratio (z) = 0.19377 0.19377
#
# Static dielectric constant tensor:
#      x y z
#    x 4.026940 0.000000 0.000000 
#    y 0.000000 4.026940 0.000000 
#    z 0.000000 0.000000 4.026960 
# 
# 
# High freq. dielectric constant tensor:
#      x y z
#    x 1.819600 0.000000 0.000000 
#    y 0.000000 1.819600 0.000000 
#    z 0.000000 0.000000 1.819600 
# 
# From -- ./inp_files/313.got.cif
#   From: 2010.03.12/outbox.cif.g09.slc.cpg/sg219_cif.got.tgz:313.got - 2010.03.30 09:07:44.
