data_PCOD8331104
_publ_section_title
;
Structure prediction by ZEFSAII (Michael W. Deem and Ramdas Pophale) SiO2 
 PCOD8331104
Probable space group: P M 3 M
;
_chemical_formula_sum "Si O2"
_cell_formula_units_Z 168
_cell_length_a 22.748193
_cell_length_b 22.748193
_cell_length_c 22.748193
_cell_angle_alpha 90.000000
_cell_angle_beta 90.000000
_cell_angle_gamma 90.000000
_cell_volume 11771.741392
_symmetry_space_group_name_H-M "P M 3 M"
_symmetry_group_IT_number 221
_symmetry_cell_setting 'cubic'
loop_
_space_group_symop_operation_xyz
x,y,z
-y,x,z
-x,-y,z
y,-x,z
x,-z,y
x,-y,-z
x,z,-y
z,y,-x
-x,y,-z
-z,y,x
z,x,y
y,z,x
-y,-z,x
z,-x,-y
-y,z,-x
-z,-x,y
-z,x,-y
y,-z,-x
y,x,-z
-y,-x,-z
-x,z,y
-x,-z,-y
z,-y,x
-z,-y,-x
-x,-y,-z
y,-x,-z
x,y,-z
-y,x,-z
-x,z,-y
-x,y,z
-x,-z,y
-z,-y,x
x,-y,z
z,-y,-x
-z,-x,-y
-y,-z,-x
y,z,-x
-z,x,y
y,-z,x
z,x,-y
z,-x,y
-y,z,x
-y,-x,z
y,x,z
x,-z,-y
x,z,y
-z,y,-x
z,y,x
loop_
_atom_site_type_symbol
_atom_site_label
_atom_site_fract_x
_atom_site_fract_y
_atom_site_fract_z
Si Si1 0.343467 0.565429 0.069900
Si Si2 0.384560 0.930299 0.223398
Si Si3 0.165510 0.263536 0.068974
Si Si4 0.842089 0.931232 0.500000
O O1 0.340248 0.500000 0.097338
O O2 0.404223 0.595778 0.089914
O O3 0.290085 0.606592 0.092241
O O4 0.339872 0.560540 0.000000
O O5 0.323451 0.907404 0.196114
O O6 0.441352 0.906574 0.188623
O O7 0.382674 0.000000 0.221669
O O8 0.209961 0.209961 0.079920
O O9 0.106033 0.252684 0.106033
O O10 0.148613 0.268053 0.000000
O O11 0.908867 0.908867 0.500000
O O12 0.842432 0.000000 0.500000
#
# Coordination Sequence:
#
# PCOD8331104 Si02
#       4
#    48  48  48  24
#     4   9  15  23  36  54  77 104 133 163 193 225
#     4   9  16  28  42  58  79 105 134 162 195 236
#     4  10  20  33  49  67  86 108 135 169 210 257
#     4  10  18  27  40  56  77 103 131 163 197 237
#
# _framework density 14.271464999999999
#
# number of rings (size 3 to 8) (size 9 to 14) (size 15 to 20)
#    0.000    2.571    1.429    2.000    0.000    4.143 
#    0.000    1.429    0.000    5.143    0.000    0.000 
#    0.000    0.000    0.000    8.857    0.000    0.000 
#
# Total GULP energy -2081725.506324 kJ/mol
# GULP energy per Si atom -12391.223252 kJ/mol
# Density = 1.423898 g / cm^3
# Si number density = 14.271465 Si / 1000 Ang^3
#
#
#
# Elastic Constant Matrix: (Units=GPa)
#
#
# Indices 1 2 3 4 5 6 
#
# 1 32.3085 56.3342 56.3342 0.0000 0.0000 0.0000
# 2 56.3342 32.3085 56.3342 0.0000 0.0000 0.0000
# 3 56.3342 56.3342 32.3085 0.0000 0.0000 0.0000
# 4 0.0000 0.0000 0.0000 13.3933 0.0000 0.0000
# 5 0.0000 0.0000 0.0000 0.0000 13.3933 0.0000
# 6 0.0000 0.0000 0.0000 0.0000 0.0000 13.3933
#
#
#
# Elastic Compliance Matrix: (Units=1/GPa)
#
#
# Indices 1 2 3 4 5 6 
#
# 1 -0.025449 0.016173 0.016173 0.000000 0.000000 0.000000
# 2 0.016173 -0.025449 0.016173 0.000000 0.000000 0.000000
# 3 0.016173 0.016173 -0.025449 0.000000 0.000000 0.000000
# 4 0.000000 0.000000 0.000000 0.074664 0.000000 0.000000
# 5 0.000000 0.000000 0.000000 0.000000 0.074664 0.000000
# 6 0.000000 0.000000 0.000000 0.000000 0.000000 0.074664
#
#
# Mechanical properties :
#
#
# Convention : Reuss Voigt Hill
#
# Bulk Modulus (GPa) = 48.32566 48.32566 48.32566
# Shear Modulus (GPa) = 86.94973 3.23083 45.09028
#
# Velocity S-wave (km/s) = 7.81395 1.50624 5.62702
# Velocity P-wave (km/s) = 10.73991 6.07949 8.72657
#
# Compressibility (1/GPa) = 0.02069294
#
# Stress axis : x y z
#
# Youngs Moduli (GPa) = -39.29445 -39.29445 -39.29445
#
# Poissons Ratio (x) = 0.63552 0.63552
# Poissons Ratio (y) = 0.63552 0.63552
# Poissons Ratio (z) = 0.63552 0.63552
#
# Static dielectric constant tensor:
#      x y z
#    x 2.750090 0.000000 0.000000 
#    y 0.000000 2.750090 0.000000 
#    z 0.000000 0.000000 2.750090 
# 
# 
# High freq. dielectric constant tensor:
#      x y z
#    x 1.527560 0.000000 0.000000 
#    y 0.000000 1.527560 0.000000 
#    z 0.000000 0.000000 1.527560 
# 
# From -- ./inp_files/541.got.cif
#   From: 2010.03.12/outbox.cif.g09.slc.cpg/sg221_cif.got.tgz:541.got - 2010.03.30 09:08:03.
