data_PCOD8331089
_publ_section_title
;
Structure prediction by ZEFSAII (Michael W. Deem and Ramdas Pophale) SiO2 
 PCOD8331089
Probable space group: I -4 3 D
;
_chemical_formula_sum "Si O2"
_cell_formula_units_Z 248
_cell_length_a 22.042764
_cell_length_b 22.042764
_cell_length_c 22.042764
_cell_angle_alpha 90.000000
_cell_angle_beta 90.000000
_cell_angle_gamma 90.000000
_cell_volume 10710.214104
_symmetry_space_group_name_H-M "I -4 3 D"
_symmetry_group_IT_number 220
_symmetry_cell_setting 'cubic'
loop_
_space_group_symop_operation_xyz
x,y,z
1/4+y,3/4-x,1/4-z
-x,1/2-y,z
1/4-y,1/4+x,3/4-z
1/4-x,1/4+z,3/4-y
x,-y,1/2-z
3/4-x,1/4-z,1/4+y
3/4-z,1/4-y,1/4+x
1/2-x,y,-z
1/4+z,3/4-y,1/4-x
z,x,y
y,z,x
-y,1/2-z,x
z,-x,1/2-y
1/2-y,z,-x
-z,1/2-x,y
1/2-z,x,-y
y,-z,1/2-x
3/4-y,1/4-x,1/4+z
1/4+y,1/4+x,1/4+z
1/4+x,3/4-z,1/4-y
1/4+x,1/4+z,1/4+y
1/4-z,1/4+y,3/4-x
1/4+z,1/4+y,1/4+x
1/2+x,1/2+y,1/2+z
3/4+y,1/4-x,3/4-z
1/2-x,-y,1/2+z
3/4-y,3/4+x,1/4-z
3/4-x,3/4+z,1/4-y
1/2+x,1/2-y,-z
1/4-x,3/4-z,3/4+y
1/4-z,3/4-y,3/4+x
-x,1/2+y,1/2-z
3/4+z,1/4-y,3/4-x
1/2+z,1/2+x,1/2+y
1/2+y,1/2+z,1/2+x
1/2-y,-z,1/2+x
1/2+z,1/2-x,-y
-y,1/2+z,1/2-x
1/2-z,-x,1/2+y
-z,1/2+x,1/2-y
1/2+y,1/2-z,-x
1/4-y,3/4-x,3/4+z
3/4+y,3/4+x,3/4+z
3/4+x,1/4-z,3/4-y
3/4+x,3/4+z,3/4+y
3/4-z,3/4+y,1/4-x
3/4+z,3/4+y,3/4+x
loop_
_atom_site_type_symbol
_atom_site_label
_atom_site_fract_x
_atom_site_fract_y
_atom_site_fract_z
Si Si1 0.625199 0.125199 0.374803
Si Si2 0.881061 0.276352 0.035794
Si Si3 0.895117 0.626419 0.153954
Si Si4 0.458624 0.458624 0.458624
Si Si5 0.128605 0.440420 0.007482
Si Si6 0.420985 0.788248 0.405879
Si Si7 0.750000 0.251625 0.000000
O O1 0.586651 0.153638 0.319716
O O2 0.583089 0.083088 0.416913
O O3 0.892836 0.219942 0.081022
O O4 0.921895 0.266788 0.975812
O O5 0.808732 0.287748 0.024592
O O6 0.940589 0.601678 0.102692
O O7 0.888523 0.698450 0.149345
O O8 0.827948 0.600150 0.140470
O O9 0.417125 0.504142 0.497006
O O10 0.195083 0.462531 0.028159
O O11 0.420768 0.729777 0.361466
#
# Coordination Sequence:
#
# PCOD8331089 Si02
#       7
#    16  48  48  16  48  48  24
#     4  12  24  51  67 113 151 189 256 293 400 453
#     4  11  26  45  73 111 142 201 246 317 371 467
#     4  11  23  42  76 102 146 193 257 305 385 448
#     4  12  24  42  70 104 160 189 250 329 388 447
#     4  11  23  40  68 110 138 192 251 314 370 457
#     4  11  26  49  74 105 153 199 257 313 390 456
#     4  10  20  35  70  96 142 178 243 298 368 434
#
# _framework density 23.155467000000002
#
# number of rings (size 3 to 8) (size 9 to 14) (size 15 to 20)
#    0.000    0.968    3.871    4.645    8.129    0.774 
#   10.452    0.000    0.000    0.000    0.000    0.000 
#    0.000    0.000    0.000    0.000    0.000    0.000 
#
# Total GULP energy -1537411.846861 kJ/mol
# GULP energy per Si atom -12398.482636 kJ/mol
# Density = 2.310276 g / cm^3
# Si number density = 23.155467 Si / 1000 Ang^3
#
#
#
# Elastic Constant Matrix: (Units=GPa)
#
#
# Indices 1 2 3 4 5 6 
#
# 1 89.4049 44.3195 44.3201 0.0000 0.0000 0.0000
# 2 44.3195 89.4049 44.3201 0.0000 0.0000 0.0000
# 3 44.3201 44.3201 89.4055 0.0000 0.0000 0.0000
# 4 0.0000 0.0000 0.0000 36.5111 0.0000 0.0000
# 5 0.0000 0.0000 0.0000 0.0000 36.5111 0.0000
# 6 0.0000 0.0000 0.0000 0.0000 0.0000 36.5099
#
#
#
# Elastic Compliance Matrix: (Units=1/GPa)
#
#
# Indices 1 2 3 4 5 6 
#
# 1 0.016659 -0.005521 -0.005521 0.000000 0.000000 0.000000
# 2 -0.005521 0.016659 -0.005521 0.000000 0.000000 0.000000
# 3 -0.005521 -0.005521 0.016659 0.000000 0.000000 0.000000
# 4 0.000000 0.000000 0.000000 0.027389 0.000000 0.000000
# 5 0.000000 0.000000 0.000000 0.000000 0.027389 0.000000
# 6 0.000000 0.000000 0.000000 0.000000 0.000000 0.027390
#
#
# Mechanical properties :
#
#
# Convention : Reuss Voigt Hill
#
# Bulk Modulus (GPa) = 59.34831 59.34831 59.34831
# Shear Modulus (GPa) = 29.25884 30.92348 30.09116
#
# Velocity S-wave (km/s) = 3.55855 3.65838 3.60881
# Velocity P-wave (km/s) = 6.52460 6.59780 6.56130
#
# Compressibility (1/GPa) = 0.01684968
#
# Stress axis : x y z
#
# Youngs Moduli (GPa) = 60.02763 60.02763 60.02761
#
# Poissons Ratio (x) = 0.33142 0.33143
# Poissons Ratio (y) = 0.33142 0.33143
# Poissons Ratio (z) = 0.33143 0.33143
#
# Static dielectric constant tensor:
#      x y z
#    x 4.150370 0.000000 0.000000 
#    y 0.000000 4.150370 0.000000 
#    z 0.000000 0.000000 4.150360 
# 
# 
# High freq. dielectric constant tensor:
#      x y z
#    x 1.909860 0.000000 0.000000 
#    y 0.000000 1.909860 0.000000 
#    z 0.000000 0.000000 1.909860 
# 
# From -- ./inp_files/498.got.cif
#   From: 2010.03.12/outbox.cif.g09.slc.cpg/sg220_cif.got.tgz:498.got - 2010.03.30 09:07:51.
