data_PCOD8331151
_publ_section_title
;
Structure prediction by ZEFSAII (Michael W. Deem and Ramdas Pophale) SiO2 
 PCOD8331151
Probable space group: F D 3 M
;
_chemical_formula_sum "Si O2"
_cell_formula_units_Z 520
_cell_length_a 29.647790
_cell_length_b 29.647790
_cell_length_c 29.647790
_cell_angle_alpha 90.000000
_cell_angle_beta 90.000000
_cell_angle_gamma 90.000000
_cell_volume 26060.153977
_symmetry_space_group_name_H-M "F D 3 M"
_symmetry_group_IT_number 227
_space_group.IT_coordinate_system_code '2'
_symmetry_cell_setting 'cubic'
loop_
_space_group_symop_operation_xyz
x,y,z
-y,1/4+x,1/4+z
1/4-x,1/4-y,z
1/4+y,-x,1/4+z
1/4+x,-z,1/4+y
x,1/4-y,1/4-z
1/4+x,1/4+z,-y
1/4+z,1/4+y,-x
1/4-x,y,1/4-z
-z,1/4+y,1/4+x
z,x,y
y,z,x
1/4-y,1/4-z,x
z,1/4-x,1/4-y
1/4-y,z,1/4-x
1/4-z,1/4-x,y
1/4-z,x,1/4-y
y,1/4-z,1/4-x
1/4+y,1/4+x,-z
-y,-x,-z
-x,1/4+z,1/4+y
-x,-z,-y
1/4+z,-y,1/4+x
-z,-y,-x
-x,-y,-z
y,3/4-x,3/4-z
3/4+x,3/4+y,-z
3/4-y,x,3/4-z
3/4-x,z,3/4-y
-x,3/4+y,3/4+z
3/4-x,3/4-z,y
3/4-z,3/4-y,x
3/4+x,-y,3/4+z
z,3/4-y,3/4-x
-z,-x,-y
-y,-z,-x
3/4+y,3/4+z,-x
-z,3/4+x,3/4+y
3/4+y,-z,3/4+x
3/4+z,3/4+x,-y
3/4+z,-x,3/4+y
-y,3/4+z,3/4+x
3/4-y,3/4-x,z
y,x,z
x,3/4-z,3/4-y
x,z,y
3/4-z,y,3/4-x
z,y,x
x,1/2+y,1/2+z
-y,3/4+x,3/4+z
1/4-x,3/4-y,1/2+z
1/4+y,1/2-x,3/4+z
1/4+x,1/2-z,3/4+y
x,3/4-y,3/4-z
1/4+x,3/4+z,1/2-y
1/4+z,3/4+y,1/2-x
1/4-x,1/2+y,3/4-z
-z,3/4+y,3/4+x
z,1/2+x,1/2+y
y,1/2+z,1/2+x
1/4-y,3/4-z,1/2+x
z,3/4-x,3/4-y
1/4-y,1/2+z,3/4-x
1/4-z,3/4-x,1/2+y
1/4-z,1/2+x,3/4-y
y,3/4-z,3/4-x
1/4+y,3/4+x,1/2-z
-y,1/2-x,1/2-z
-x,3/4+z,3/4+y
-x,1/2-z,1/2-y
1/4+z,1/2-y,3/4+x
-z,1/2-y,1/2-x
-x,1/2-y,1/2-z
y,1/4-x,1/4-z
3/4+x,1/4+y,1/2-z
3/4-y,1/2+x,1/4-z
3/4-x,1/2+z,1/4-y
-x,1/4+y,1/4+z
3/4-x,1/4-z,1/2+y
3/4-z,1/4-y,1/2+x
3/4+x,1/2-y,1/4+z
z,1/4-y,1/4-x
-z,1/2-x,1/2-y
-y,1/2-z,1/2-x
3/4+y,1/4+z,1/2-x
-z,1/4+x,1/4+y
3/4+y,1/2-z,1/4+x
3/4+z,1/4+x,1/2-y
3/4+z,1/2-x,1/4+y
-y,1/4+z,1/4+x
3/4-y,1/4-x,1/2+z
y,1/2+x,1/2+z
x,1/4-z,1/4-y
x,1/2+z,1/2+y
3/4-z,1/2+y,1/4-x
z,1/2+y,1/2+x
1/2+x,y,1/2+z
1/2-y,1/4+x,3/4+z
3/4-x,1/4-y,1/2+z
3/4+y,-x,3/4+z
3/4+x,-z,3/4+y
1/2+x,1/4-y,3/4-z
3/4+x,1/4+z,1/2-y
3/4+z,1/4+y,1/2-x
3/4-x,y,3/4-z
1/2-z,1/4+y,3/4+x
1/2+z,x,1/2+y
1/2+y,z,1/2+x
3/4-y,1/4-z,1/2+x
1/2+z,1/4-x,3/4-y
3/4-y,z,3/4-x
3/4-z,1/4-x,1/2+y
3/4-z,x,3/4-y
1/2+y,1/4-z,3/4-x
3/4+y,1/4+x,1/2-z
1/2-y,-x,1/2-z
1/2-x,1/4+z,3/4+y
1/2-x,-z,1/2-y
3/4+z,-y,3/4+x
1/2-z,-y,1/2-x
1/2-x,-y,1/2-z
1/2+y,3/4-x,1/4-z
1/4+x,3/4+y,1/2-z
1/4-y,x,1/4-z
1/4-x,z,1/4-y
1/2-x,3/4+y,1/4+z
1/4-x,3/4-z,1/2+y
1/4-z,3/4-y,1/2+x
1/4+x,-y,1/4+z
1/2+z,3/4-y,1/4-x
1/2-z,-x,1/2-y
1/2-y,-z,1/2-x
1/4+y,3/4+z,1/2-x
1/2-z,3/4+x,1/4+y
1/4+y,-z,1/4+x
1/4+z,3/4+x,1/2-y
1/4+z,-x,1/4+y
1/2-y,3/4+z,1/4+x
1/4-y,3/4-x,1/2+z
1/2+y,x,1/2+z
1/2+x,3/4-z,1/4-y
1/2+x,z,1/2+y
1/4-z,y,1/4-x
1/2+z,y,1/2+x
1/2+x,1/2+y,z
1/2-y,3/4+x,1/4+z
3/4-x,3/4-y,z
3/4+y,1/2-x,1/4+z
3/4+x,1/2-z,1/4+y
1/2+x,3/4-y,1/4-z
3/4+x,3/4+z,-y
3/4+z,3/4+y,-x
3/4-x,1/2+y,1/4-z
1/2-z,3/4+y,1/4+x
1/2+z,1/2+x,y
1/2+y,1/2+z,x
3/4-y,3/4-z,x
1/2+z,3/4-x,1/4-y
3/4-y,1/2+z,1/4-x
3/4-z,3/4-x,y
3/4-z,1/2+x,1/4-y
1/2+y,3/4-z,1/4-x
3/4+y,3/4+x,-z
1/2-y,1/2-x,-z
1/2-x,3/4+z,1/4+y
1/2-x,1/2-z,-y
3/4+z,1/2-y,1/4+x
1/2-z,1/2-y,-x
1/2-x,1/2-y,-z
1/2+y,1/4-x,3/4-z
1/4+x,1/4+y,-z
1/4-y,1/2+x,3/4-z
1/4-x,1/2+z,3/4-y
1/2-x,1/4+y,3/4+z
1/4-x,1/4-z,y
1/4-z,1/4-y,x
1/4+x,1/2-y,3/4+z
1/2+z,1/4-y,3/4-x
1/2-z,1/2-x,-y
1/2-y,1/2-z,-x
1/4+y,1/4+z,-x
1/2-z,1/4+x,3/4+y
1/4+y,1/2-z,3/4+x
1/4+z,1/4+x,-y
1/4+z,1/2-x,3/4+y
1/2-y,1/4+z,3/4+x
1/4-y,1/4-x,z
1/2+y,1/2+x,z
1/2+x,1/4-z,3/4-y
1/2+x,1/2+z,y
1/4-z,1/2+y,3/4-x
1/2+z,1/2+y,x
loop_
_atom_site_type_symbol
_atom_site_label
_atom_site_fract_x
_atom_site_fract_y
_atom_site_fract_z
Si Si1 0.875000 0.375000 0.375000
Si Si2 0.496782 0.996782 0.375589
Si Si3 0.540146 0.398353 0.469137
Si Si4 0.436888 0.936888 0.313114
Si Si5 0.817466 0.651278 0.317466
Si Si6 0.163117 0.586884 0.798091
O O1 0.844125 0.344125 0.344125
O O2 0.468036 0.968036 0.341948
O O3 0.527436 0.962148 0.403526
O O4 0.529594 0.029594 0.349115
O O5 0.568945 0.431056 0.500000
O O6 0.521870 0.425940 0.425940
O O7 0.497305 0.379510 0.497305
O O8 0.572158 0.358941 0.452896
O O9 0.833380 0.601913 0.333380
O O10 0.125000 0.625000 0.785719
#
# Coordination Sequence:
#
# PCOD8331151 Si02
#       6
#     8  96 192  32  96  96
#     4  12  24  48  72  96 112 196 240 288 360 408
#     4  12  25  42  63  96 128 178 230 293 341 402
#     4  10  21  40  65  92 122 161 210 260 314 387
#     4  12  24  42  66  93 132 166 238 297 336 399
#     4  12  26  39  65  94 136 174 208 268 349 425
#     4  12  24  44  66  92 134 182 234 286 346 408
#
# _framework density 19.953834000000001
#
# number of rings (size 3 to 8) (size 9 to 14) (size 15 to 20)
#    0.000    0.738    1.846    6.831    2.585    4.431 
#    1.108    1.846    0.000    0.000    0.000    0.000 
#    0.000    0.000    0.000    0.000    0.000    0.000 
#
# Total GULP energy -1611792.670356 kJ/mol
# GULP energy per Si atom -12398.405157 kJ/mol
# Density = 1.990842 g / cm^3
# Si number density = 19.953834 Si / 1000 Ang^3
#
#
#
# Elastic Constant Matrix: (Units=GPa)
#
#
# Indices 1 2 3 4 5 6 
#
# 1 132.2960 63.7996 63.8012 0.0000 0.0000 0.0000
# 2 63.7996 132.2960 63.8012 0.0000 0.0000 0.0000
# 3 63.8012 63.8012 132.2950 0.0000 0.0000 0.0000
# 4 0.0000 0.0000 0.0000 59.2277 0.0000 0.0000
# 5 0.0000 0.0000 0.0000 0.0000 59.2277 0.0000
# 6 0.0000 0.0000 0.0000 0.0000 0.0000 59.2264
#
#
#
# Elastic Compliance Matrix: (Units=1/GPa)
#
#
# Indices 1 2 3 4 5 6 
#
# 1 0.011016 -0.003584 -0.003584 0.000000 0.000000 0.000000
# 2 -0.003584 0.011016 -0.003584 0.000000 0.000000 0.000000
# 3 -0.003584 -0.003584 0.011016 0.000000 0.000000 0.000000
# 4 0.000000 0.000000 0.000000 0.016884 0.000000 0.000000
# 5 0.000000 0.000000 0.000000 0.000000 0.016884 0.000000
# 6 0.000000 0.000000 0.000000 0.000000 0.000000 0.016884
#
#
# Mechanical properties :
#
#
# Convention : Reuss Voigt Hill
#
# Bulk Modulus (GPa) = 86.63236 86.63236 86.63236
# Shear Modulus (GPa) = 45.85018 49.23534 47.54276
#
# Velocity S-wave (km/s) = 4.79875 4.97274 4.88652
# Velocity P-wave (km/s) = 8.61479 8.74537 8.68033
#
# Compressibility (1/GPa) = 0.01154303
#
# Stress axis : x y z
#
# Youngs Moduli (GPa) = 90.78082 90.78082 90.77857
#
# Poissons Ratio (x) = 0.32534 0.32536
# Poissons Ratio (y) = 0.32534 0.32536
# Poissons Ratio (z) = 0.32537 0.32537
#
# Static dielectric constant tensor:
#      x y z
#    x 3.839530 0.000000 0.000000 
#    y 0.000000 3.839530 0.000000 
#    z 0.000000 0.000000 3.839510 
# 
# 
# High freq. dielectric constant tensor:
#      x y z
#    x 1.788520 0.000000 0.000000 
#    y 0.000000 1.788520 0.000000 
#    z 0.000000 0.000000 1.788510 
# 
# From -- ./inp_files/1166.got.cif
#   From: 2010.03.12/outbox.cif.g09.slc.cpg/sg227_cif.got.tgz:1166.got - 2010.03.30 09:10:07.
