data_PCOD8331129
_publ_section_title
;
Structure prediction by ZEFSAII (Michael W. Deem and Ramdas Pophale) SiO2 
 PCOD8331129
Probable space group: P N 3 N
;
_chemical_formula_sum "Si O2"
_cell_formula_units_Z 148
_cell_length_a 20.023331
_cell_length_b 20.023331
_cell_length_c 20.023331
_cell_angle_alpha 90.000000
_cell_angle_beta 90.000000
_cell_angle_gamma 90.000000
_cell_volume 8028.029873
_symmetry_space_group_name_H-M "P N 3 N"
_symmetry_group_IT_number 222
_space_group.IT_coordinate_system_code '2'
_symmetry_cell_setting 'cubic'
loop_
_space_group_symop_operation_xyz
x,y,z
1/2-y,x,z
1/2-x,1/2-y,z
y,1/2-x,z
x,1/2-z,y
x,1/2-y,1/2-z
x,z,1/2-y
z,y,1/2-x
1/2-x,y,1/2-z
1/2-z,y,x
z,x,y
y,z,x
1/2-y,1/2-z,x
z,1/2-x,1/2-y
1/2-y,z,1/2-x
1/2-z,1/2-x,y
1/2-z,x,1/2-y
y,1/2-z,1/2-x
y,x,1/2-z
1/2-y,1/2-x,1/2-z
1/2-x,z,y
1/2-x,1/2-z,1/2-y
z,1/2-y,x
1/2-z,1/2-y,1/2-x
-x,-y,-z
1/2+y,-x,-z
1/2+x,1/2+y,-z
-y,1/2+x,-z
-x,1/2+z,-y
-x,1/2+y,1/2+z
-x,-z,1/2+y
-z,-y,1/2+x
1/2+x,-y,1/2+z
1/2+z,-y,-x
-z,-x,-y
-y,-z,-x
1/2+y,1/2+z,-x
-z,1/2+x,1/2+y
1/2+y,-z,1/2+x
1/2+z,1/2+x,-y
1/2+z,-x,1/2+y
-y,1/2+z,1/2+x
-y,-x,1/2+z
1/2+y,1/2+x,1/2+z
1/2+x,-z,-y
1/2+x,1/2+z,1/2+y
-z,1/2+y,-x
1/2+z,1/2+y,1/2+x
loop_
_atom_site_type_symbol
_atom_site_label
_atom_site_fract_x
_atom_site_fract_y
_atom_site_fract_z
Si Si1 0.000000 0.250000 0.750000
Si Si2 0.643202 0.565776 0.160057
Si Si3 0.007062 0.322713 0.977804
Si Si4 0.046250 0.453752 0.046250
Si Si5 0.250000 0.827427 0.827427
O O1 0.040395 0.313728 0.776787
O O2 0.569524 0.535564 0.158507
O O3 0.677493 0.551675 0.089293
O O4 0.639296 0.644063 0.180582
O O5 0.036056 0.376251 0.029364
O O6 0.011590 0.250000 0.011590
O O7 0.000000 0.500000 0.000000
O O8 0.250000 0.750000 0.843827
#
# Coordination Sequence:
#
# PCOD8331129 Si02
#       5
#    12  48  48  16  24
#     4  12  20  32  58  88 124 148 208 266 300 388
#     4  12  21  37  58  86 117 163 214 259 311 382
#     4  12  24  39  66  92 123 168 216 270 336 375
#     4  12  24  42  63  96 132 153 217 290 319 393
#     4  11  24  38  52  80 124 166 208 260 316 375
#
# _framework density 18.435407999999999
#
# number of rings (size 3 to 8) (size 9 to 14) (size 15 to 20)
#    0.000    0.162    9.730    0.000    0.000    2.595 
#    0.000    0.000    0.000    0.973    0.000    0.000 
#    0.000    0.000    0.000    0.973    0.000    0.000 
#
# Total GULP energy -1834854.105382 kJ/mol
# GULP energy per Si atom -12397.662874 kJ/mol
# Density = 1.839345 g / cm^3
# Si number density = 18.435408 Si / 1000 Ang^3
#
#
#
# Elastic Constant Matrix: (Units=GPa)
#
#
# Indices 1 2 3 4 5 6 
#
# 1 113.0577 57.9796 57.9791 0.0000 0.0000 0.0000
# 2 57.9796 113.0577 57.9791 0.0000 0.0000 0.0000
# 3 57.9791 57.9791 113.0579 0.0000 0.0000 0.0000
# 4 0.0000 0.0000 0.0000 31.7216 0.0000 0.0000
# 5 0.0000 0.0000 0.0000 0.0000 31.7216 0.0000
# 6 0.0000 0.0000 0.0000 0.0000 0.0000 31.7220
#
#
#
# Elastic Compliance Matrix: (Units=1/GPa)
#
#
# Indices 1 2 3 4 5 6 
#
# 1 0.013559 -0.004597 -0.004596 0.000000 0.000000 0.000000
# 2 -0.004597 0.013559 -0.004596 0.000000 0.000000 0.000000
# 3 -0.004596 -0.004596 0.013559 0.000000 0.000000 0.000000
# 4 0.000000 0.000000 0.000000 0.031524 0.000000 0.000000
# 5 0.000000 0.000000 0.000000 0.000000 0.031524 0.000000
# 6 0.000000 0.000000 0.000000 0.000000 0.000000 0.031524
#
#
# Mechanical properties :
#
#
# Convention : Reuss Voigt Hill
#
# Bulk Modulus (GPa) = 76.33877 76.33877 76.33877
# Shear Modulus (GPa) = 29.90502 30.04873 29.97687
#
# Velocity S-wave (km/s) = 4.03196 4.04164 4.03680
# Velocity P-wave (km/s) = 7.94823 7.95478 7.95150
#
# Compressibility (1/GPa) = 0.01309950
#
# Stress axis : x y z
#
# Youngs Moduli (GPa) = 73.74918 73.74918 73.74984
#
# Poissons Ratio (x) = 0.33899 0.33899
# Poissons Ratio (y) = 0.33899 0.33899
# Poissons Ratio (z) = 0.33898 0.33898
#
# Static dielectric constant tensor:
#      x y z
#    x 3.536090 0.000000 0.000000 
#    y 0.000000 3.536090 0.000000 
#    z 0.000000 0.000000 3.536080 
# 
# 
# High freq. dielectric constant tensor:
#      x y z
#    x 1.710800 0.000000 0.000000 
#    y 0.000000 1.710800 0.000000 
#    z 0.000000 0.000000 1.710800 
# 
# From -- ./inp_files/277.got.cif
#   From: 2010.03.12/outbox.cif.g09.slc.cpg/sg222_cif.got.tgz:277.got - 2010.03.30 09:08:40.
