data_PCOD8331156
_publ_section_title
;
Structure prediction by ZEFSAII (Michael W. Deem and Ramdas Pophale) SiO2 
 PCOD8331156
Probable space group: I M 3 M
;
_chemical_formula_sum "Si O2"
_cell_formula_units_Z 432
_cell_length_a 29.593680
_cell_length_b 29.593680
_cell_length_c 29.593680
_cell_angle_alpha 90.000000
_cell_angle_beta 90.000000
_cell_angle_gamma 90.000000
_cell_volume 25917.727553
_symmetry_space_group_name_H-M "I M 3 M"
_symmetry_group_IT_number 229
_symmetry_cell_setting 'cubic'
loop_
_space_group_symop_operation_xyz
x,y,z
-y,x,z
-x,-y,z
y,-x,z
x,-z,y
x,-y,-z
x,z,-y
z,y,-x
-x,y,-z
-z,y,x
z,x,y
y,z,x
-y,-z,x
z,-x,-y
-y,z,-x
-z,-x,y
-z,x,-y
y,-z,-x
y,x,-z
-y,-x,-z
-x,z,y
-x,-z,-y
z,-y,x
-z,-y,-x
-x,-y,-z
y,-x,-z
x,y,-z
-y,x,-z
-x,z,-y
-x,y,z
-x,-z,y
-z,-y,x
x,-y,z
z,-y,-x
-z,-x,-y
-y,-z,-x
y,z,-x
-z,x,y
y,-z,x
z,x,-y
z,-x,y
-y,z,x
-y,-x,z
y,x,z
x,-z,-y
x,z,y
-z,y,-x
z,y,x
1/2+x,1/2+y,1/2+z
1/2-y,1/2+x,1/2+z
1/2-x,1/2-y,1/2+z
1/2+y,1/2-x,1/2+z
1/2+x,1/2-z,1/2+y
1/2+x,1/2-y,1/2-z
1/2+x,1/2+z,1/2-y
1/2+z,1/2+y,1/2-x
1/2-x,1/2+y,1/2-z
1/2-z,1/2+y,1/2+x
1/2+z,1/2+x,1/2+y
1/2+y,1/2+z,1/2+x
1/2-y,1/2-z,1/2+x
1/2+z,1/2-x,1/2-y
1/2-y,1/2+z,1/2-x
1/2-z,1/2-x,1/2+y
1/2-z,1/2+x,1/2-y
1/2+y,1/2-z,1/2-x
1/2+y,1/2+x,1/2-z
1/2-y,1/2-x,1/2-z
1/2-x,1/2+z,1/2+y
1/2-x,1/2-z,1/2-y
1/2+z,1/2-y,1/2+x
1/2-z,1/2-y,1/2-x
1/2-x,1/2-y,1/2-z
1/2+y,1/2-x,1/2-z
1/2+x,1/2+y,1/2-z
1/2-y,1/2+x,1/2-z
1/2-x,1/2+z,1/2-y
1/2-x,1/2+y,1/2+z
1/2-x,1/2-z,1/2+y
1/2-z,1/2-y,1/2+x
1/2+x,1/2-y,1/2+z
1/2+z,1/2-y,1/2-x
1/2-z,1/2-x,1/2-y
1/2-y,1/2-z,1/2-x
1/2+y,1/2+z,1/2-x
1/2-z,1/2+x,1/2+y
1/2+y,1/2-z,1/2+x
1/2+z,1/2+x,1/2-y
1/2+z,1/2-x,1/2+y
1/2-y,1/2+z,1/2+x
1/2-y,1/2-x,1/2+z
1/2+y,1/2+x,1/2+z
1/2+x,1/2-z,1/2-y
1/2+x,1/2+z,1/2+y
1/2-z,1/2+y,1/2-x
1/2+z,1/2+y,1/2+x
loop_
_atom_site_type_symbol
_atom_site_label
_atom_site_fract_x
_atom_site_fract_y
_atom_site_fract_z
Si Si1 0.291739 0.175552 0.362461
Si Si2 0.686664 0.759463 0.500000
Si Si3 0.199351 0.125600 0.500000
Si Si4 0.171042 0.903053 0.242098
Si Si5 0.866519 0.692583 0.500000
Si Si6 0.905900 0.334128 0.407166
O O1 0.334493 0.191419 0.334493
O O2 0.250000 0.171949 0.328052
O O3 0.291930 0.216211 0.398695
O O4 0.297508 0.125688 0.382541
O O5 0.737352 0.737352 0.500000
O O6 0.659213 0.741615 0.543791
O O7 0.686057 0.813354 0.500000
O O8 0.175798 0.175798 0.500000
O O9 0.253484 0.126048 0.500000
O O10 0.182799 0.097385 0.456940
O O11 0.124728 0.875273 0.246686
O O12 0.196450 0.887818 0.196450
O O13 0.890196 0.665975 0.541196
O O14 0.900182 0.383702 0.383702
#
# Coordination Sequence:
#
# PCOD8331156 Si02
#       6
#    96  48  48  96  48  96
#     4  10  18  29  44  66  95 128 163 197 242 292
#     4  10  21  32  49  76 101 129 170 214 250 296
#     4  10  21  35  49  74 107 130 167 211 255 306
#     4  10  20  34  51  73 101 133 168 207 252 301
#     4  12  19  33  56  72  97 133 172 204 255 314
#     4  10  22  35  49  71  99 131 164 211 259 302
#
# _framework density 16.668129
#
# number of rings (size 3 to 8) (size 9 to 14) (size 15 to 20)
#    0.000    1.778    2.222    3.222    0.000    0.444 
#    0.000    1.111    0.000    4.222    0.000    1.556 
#    0.000    2.667    0.000    0.000    0.000    0.000 
#
# Total GULP energy -2675903.412735 kJ/mol
# GULP energy per Si atom -12388.441726 kJ/mol
# Density = 1.663019 g / cm^3
# Si number density = 16.668129 Si / 1000 Ang^3
#
#
#
# Elastic Constant Matrix: (Units=GPa)
#
#
# Indices 1 2 3 4 5 6 
#
# 1 88.4682 51.3947 51.3947 0.0000 0.0000 0.0000
# 2 51.3947 88.4682 51.3947 0.0000 0.0000 0.0000
# 3 51.3947 51.3947 88.4682 0.0000 0.0000 0.0000
# 4 0.0000 0.0000 0.0000 35.8565 0.0000 0.0000
# 5 0.0000 0.0000 0.0000 0.0000 35.8565 0.0000
# 6 0.0000 0.0000 0.0000 0.0000 0.0000 35.8565
#
#
#
# Elastic Compliance Matrix: (Units=1/GPa)
#
#
# Indices 1 2 3 4 5 6 
#
# 1 0.019725 -0.007248 -0.007248 0.000000 0.000000 0.000000
# 2 -0.007248 0.019725 -0.007248 0.000000 0.000000 0.000000
# 3 -0.007248 -0.007248 0.019725 0.000000 0.000000 0.000000
# 4 0.000000 0.000000 0.000000 0.027889 0.000000 0.000000
# 5 0.000000 0.000000 0.000000 0.000000 0.027889 0.000000
# 6 0.000000 0.000000 0.000000 0.000000 0.000000 0.027889
#
#
# Mechanical properties :
#
#
# Convention : Reuss Voigt Hill
#
# Bulk Modulus (GPa) = 63.75253 63.75253 63.75253
# Shear Modulus (GPa) = 26.10139 28.92858 27.51498
#
# Velocity S-wave (km/s) = 3.96150 4.17053 4.06736
# Velocity P-wave (km/s) = 7.69778 7.84361 7.77104
#
# Compressibility (1/GPa) = 0.01568565
#
# Stress axis : x y z
#
# Youngs Moduli (GPa) = 50.69672 50.69672 50.69672
#
# Poissons Ratio (x) = 0.36746 0.36746
# Poissons Ratio (y) = 0.36746 0.36746
# Poissons Ratio (z) = 0.36746 0.36746
#
# Static dielectric constant tensor:
#      x y z
#    x 3.017410 0.000000 0.000000 
#    y 0.000000 3.017410 0.000000 
#    z 0.000000 0.000000 3.017410 
# 
# 
# High freq. dielectric constant tensor:
#      x y z
#    x 1.632750 0.000000 0.000000 
#    y 0.000000 1.632750 0.000000 
#    z 0.000000 0.000000 1.632750 
# 
# From -- ./inp_files/989.got.cif
#   From: 2010.03.12/outbox.cif.g09.slc.cpg/sg229_cif.got.tgz:989.got - 2010.03.30 09:10:17.
