data_PCOD8331107
_publ_section_title
;
Structure prediction by ZEFSAII (Michael W. Deem and Ramdas Pophale) SiO2 
 PCOD8331107
Probable space group: P M 3 M
;
_chemical_formula_sum "Si O2"
_cell_formula_units_Z 144
_cell_length_a 21.358488
_cell_length_b 21.358488
_cell_length_c 21.358488
_cell_angle_alpha 90.000000
_cell_angle_beta 90.000000
_cell_angle_gamma 90.000000
_cell_volume 9743.422054
_symmetry_space_group_name_H-M "P M 3 M"
_symmetry_group_IT_number 221
_symmetry_cell_setting 'cubic'
loop_
_space_group_symop_operation_xyz
x,y,z
-y,x,z
-x,-y,z
y,-x,z
x,-z,y
x,-y,-z
x,z,-y
z,y,-x
-x,y,-z
-z,y,x
z,x,y
y,z,x
-y,-z,x
z,-x,-y
-y,z,-x
-z,-x,y
-z,x,-y
y,-z,-x
y,x,-z
-y,-x,-z
-x,z,y
-x,-z,-y
z,-y,x
-z,-y,-x
-x,-y,-z
y,-x,-z
x,y,-z
-y,x,-z
-x,z,-y
-x,y,z
-x,-z,y
-z,-y,x
x,-y,z
z,-y,-x
-z,-x,-y
-y,-z,-x
y,z,-x
-z,x,y
y,-z,x
z,x,-y
z,-x,y
-y,z,x
-y,-x,z
y,x,z
x,-z,-y
x,z,y
-z,y,-x
z,y,x
loop_
_atom_site_type_symbol
_atom_site_label
_atom_site_fract_x
_atom_site_fract_y
_atom_site_fract_z
Si Si1 0.661762 0.765542 0.870334
Si Si2 0.698900 0.796428 0.000000
Si Si3 0.672296 0.928596 0.572091
Si Si4 0.100889 0.000000 0.197406
O O1 0.726454 0.726454 0.861440
O O2 0.652042 0.811347 0.811347
O O3 0.661687 0.806011 0.934986
O O4 0.602851 0.719084 0.877811
O O5 0.755673 0.842960 0.000000
O O6 0.724545 0.724545 0.000000
O O7 0.663888 0.910755 0.500000
O O8 0.604614 0.923171 0.604614
O O9 0.698335 0.000000 0.580235
O O10 0.061777 0.938224 0.209282
O O11 0.126600 0.000000 0.126600
#
# Coordination Sequence:
#
# PCOD8331107 Si02
#       4
#    48  24  48  24
#     4  10  18  29  45  65  89 116 148 185 225 266
#     4   9  17  29  42  57  78 104 136 177 219 258
#     4   9  17  30  47  67  91 116 142 174 211 253
#     4  10  19  29  40  53  70  93 125 167 218 274
#
# _framework density 14.779201
#
# number of rings (size 3 to 8) (size 9 to 14) (size 15 to 20)
#    0.000    2.500    1.667    1.667    0.000    1.000 
#    0.000    5.000    0.000    1.333    0.000    0.000 
#    0.000    2.667    0.000    0.000    0.000    0.000 
#
# Total GULP energy -1784485.302699 kJ/mol
# GULP energy per Si atom -12392.259047 kJ/mol
# Density = 1.474556 g / cm^3
# Si number density = 14.779201 Si / 1000 Ang^3
#
#
#
# Elastic Constant Matrix: (Units=GPa)
#
#
# Indices 1 2 3 4 5 6 
#
# 1 85.9011 39.8910 39.8910 0.0000 0.0000 0.0000
# 2 39.8910 85.9011 39.8910 0.0000 0.0000 0.0000
# 3 39.8910 39.8910 85.9011 0.0000 0.0000 0.0000
# 4 0.0000 0.0000 0.0000 18.9462 0.0000 0.0000
# 5 0.0000 0.0000 0.0000 0.0000 18.9462 0.0000
# 6 0.0000 0.0000 0.0000 0.0000 0.0000 18.9462
#
#
#
# Elastic Compliance Matrix: (Units=1/GPa)
#
#
# Indices 1 2 3 4 5 6 
#
# 1 0.016501 -0.005233 -0.005233 0.000000 0.000000 0.000000
# 2 -0.005233 0.016501 -0.005233 0.000000 0.000000 0.000000
# 3 -0.005233 -0.005233 0.016501 0.000000 0.000000 0.000000
# 4 0.000000 0.000000 0.000000 0.052781 0.000000 0.000000
# 5 0.000000 0.000000 0.000000 0.000000 0.052781 0.000000
# 6 0.000000 0.000000 0.000000 0.000000 0.000000 0.052781
#
#
# Mechanical properties :
#
#
# Convention : Reuss Voigt Hill
#
# Bulk Modulus (GPa) = 55.22774 55.22774 55.22774
# Shear Modulus (GPa) = 20.38485 20.56976 20.47731
#
# Velocity S-wave (km/s) = 3.71791 3.73474 3.72633
# Velocity P-wave (km/s) = 7.47530 7.48648 7.48089
#
# Compressibility (1/GPa) = 0.01810684
#
# Stress axis : x y z
#
# Youngs Moduli (GPa) = 60.60075 60.60075 60.60075
#
# Poissons Ratio (x) = 0.31712 0.31712
# Poissons Ratio (y) = 0.31712 0.31712
# Poissons Ratio (z) = 0.31712 0.31712
#
# Static dielectric constant tensor:
#      x y z
#    x 2.687650 0.000000 0.000000 
#    y 0.000000 2.687650 0.000000 
#    z 0.000000 0.000000 2.687650 
# 
# 
# High freq. dielectric constant tensor:
#      x y z
#    x 1.552820 0.000000 0.000000 
#    y 0.000000 1.552820 0.000000 
#    z 0.000000 0.000000 1.552820 
# 
# From -- ./inp_files/297.got.cif
#   From: 2010.03.12/outbox.cif.g09.slc.cpg/sg221_cif.got.tgz:297.got - 2010.03.30 09:08:03.
