data_PCOD8331030
_publ_section_title
;
Structure prediction by ZEFSAII (Michael W. Deem and Ramdas Pophale) SiO2 
 PCOD8331030
Probable space group: P -4 3 M
;
_chemical_formula_sum "Si O2"
_cell_formula_units_Z 96
_cell_length_a 17.419166
_cell_length_b 17.419166
_cell_length_c 17.419166
_cell_angle_alpha 90.000000
_cell_angle_beta 90.000000
_cell_angle_gamma 90.000000
_cell_volume 5285.451276
_symmetry_space_group_name_H-M "P -4 3 M"
_symmetry_group_IT_number 215
_symmetry_cell_setting 'cubic'
loop_
_space_group_symop_operation_xyz
x,y,z
y,-x,-z
-x,-y,z
-y,x,-z
-x,z,-y
x,-y,-z
-x,-z,y
-z,-y,x
-x,y,-z
z,-y,-x
z,x,y
y,z,x
-y,-z,x
z,-x,-y
-y,z,-x
-z,-x,y
-z,x,-y
y,-z,-x
-y,-x,z
y,x,z
x,-z,-y
x,z,y
-z,y,-x
z,y,x
loop_
_atom_site_type_symbol
_atom_site_label
_atom_site_fract_x
_atom_site_fract_y
_atom_site_fract_z
Si Si1 0.336472 0.541986 0.923724
Si Si2 0.999007 0.123357 0.749278
Si Si3 0.814248 0.415069 0.004072
Si Si4 0.404314 0.155928 0.721928
O O1 0.395196 0.604805 0.893535
O O2 0.328287 0.481178 0.854850
O O3 0.368162 0.500000 0.000000
O O4 0.255887 0.582373 0.943852
O O5 0.079816 0.079816 0.761716
O O6 0.000441 0.203299 0.796702
O O7 0.983386 0.133845 0.657862
O O8 0.929692 0.070309 0.780200
O O9 0.785398 0.400025 0.089856
O O10 0.855898 0.500000 0.000000
O O11 0.407131 0.238678 0.761323
O O12 0.329220 0.149978 0.670781
#
# Coordination Sequence:
#
# PCOD8331030 Si02
#       4
#    24  24  24  24
#     4   9  17  30  49  72  97 123 155 196 242 294
#     4  11  23  38  56  76 101 136 179 224 263 299
#     4   9  19  34  52  77 105 129 157 198 251 311
#     4  10  19  30  46  69  98 130 162 198 240 289
#
# _framework density 18.163066000000001
#
# number of rings (size 3 to 8) (size 9 to 14) (size 15 to 20)
#    0.000    2.750    0.000    6.000    0.000    6.750 
#    0.000    3.750    0.000    2.500    0.000    0.000 
#    0.000    0.000    0.000    0.000    0.000    0.000 
#
# Total GULP energy -1189710.302534 kJ/mol
# GULP energy per Si atom -12392.815651 kJ/mol
# Density = 1.812173 g / cm^3
# Si number density = 18.163066 Si / 1000 Ang^3
#
#
#
# Elastic Constant Matrix: (Units=GPa)
#
#
# Indices 1 2 3 4 5 6 
#
# 1 71.5775 40.3606 40.3606 0.0000 0.0000 0.0000
# 2 40.3606 71.5775 40.3606 0.0000 0.0000 0.0000
# 3 40.3606 40.3606 71.5775 0.0000 0.0000 0.0000
# 4 0.0000 0.0000 0.0000 17.2709 0.0000 0.0000
# 5 0.0000 0.0000 0.0000 0.0000 17.2709 0.0000
# 6 0.0000 0.0000 0.0000 0.0000 0.0000 17.2709
#
#
#
# Elastic Compliance Matrix: (Units=1/GPa)
#
#
# Indices 1 2 3 4 5 6 
#
# 1 0.023545 -0.008489 -0.008489 0.000000 0.000000 0.000000
# 2 -0.008489 0.023545 -0.008489 0.000000 0.000000 0.000000
# 3 -0.008489 -0.008489 0.023545 0.000000 0.000000 0.000000
# 4 0.000000 0.000000 0.000000 0.057901 0.000000 0.000000
# 5 0.000000 0.000000 0.000000 0.000000 0.057901 0.000000
# 6 0.000000 0.000000 0.000000 0.000000 0.000000 0.057901
#
#
# Mechanical properties :
#
#
# Convention : Reuss Voigt Hill
#
# Bulk Modulus (GPa) = 50.76624 50.76624 50.76624
# Shear Modulus (GPa) = 16.56519 16.60595 16.58557
#
# Velocity S-wave (km/s) = 3.02325 3.02697 3.02511
# Velocity P-wave (km/s) = 6.34016 6.34253 6.34135
#
# Compressibility (1/GPa) = 0.01969813
#
# Stress axis : x y z
#
# Youngs Moduli (GPa) = 42.47253 42.47253 42.47253
#
# Poissons Ratio (x) = 0.36056 0.36056
# Poissons Ratio (y) = 0.36056 0.36056
# Poissons Ratio (z) = 0.36056 0.36056
#
# Static dielectric constant tensor:
#      x y z
#    x 3.246900 0.000000 0.000000 
#    y 0.000000 3.246900 0.000000 
#    z 0.000000 0.000000 3.246900 
# 
# 
# High freq. dielectric constant tensor:
#      x y z
#    x 1.691310 0.000000 0.000000 
#    y 0.000000 1.691310 0.000000 
#    z 0.000000 0.000000 1.691310 
# 
# From -- ./inp_files/473.got.cif
#   From: 2010.03.12/outbox.cif.g09.slc.cpg/sg215_cif.got.tgz:473.got - 2010.03.30 09:06:09.
