data_PCOD8331048
_publ_section_title
;
Structure prediction by ZEFSAII (Michael W. Deem and Ramdas Pophale) SiO2 
 PCOD8331048
Probable space group: P -4 3 M
;
_chemical_formula_sum "Si O2"
_cell_formula_units_Z 168
_cell_length_a 21.980559
_cell_length_b 21.980559
_cell_length_c 21.980559
_cell_angle_alpha 90.000000
_cell_angle_beta 90.000000
_cell_angle_gamma 90.000000
_cell_volume 10619.796606
_symmetry_space_group_name_H-M "P -4 3 M"
_symmetry_group_IT_number 215
_symmetry_cell_setting 'cubic'
loop_
_space_group_symop_operation_xyz
x,y,z
y,-x,-z
-x,-y,z
-y,x,-z
-x,z,-y
x,-y,-z
-x,-z,y
-z,-y,x
-x,y,-z
z,-y,-x
z,x,y
y,z,x
-y,-z,x
z,-x,-y
-y,z,-x
-z,-x,y
-z,x,-y
y,-z,-x
-y,-x,z
y,x,z
x,-z,-y
x,z,y
-z,y,-x
z,y,x
loop_
_atom_site_type_symbol
_atom_site_label
_atom_site_fract_x
_atom_site_fract_y
_atom_site_fract_z
Si Si1 0.722129 0.176941 0.076423
Si Si2 0.557973 0.657055 0.756812
Si Si3 0.343360 0.104816 0.561147
Si Si4 0.806726 0.000691 0.903703
Si Si5 0.638072 0.983957 0.735264
Si Si6 0.576606 0.324462 0.911951
Si Si7 0.674389 0.771376 0.422737
O O1 0.767531 0.232470 0.095123
O O2 0.707906 0.136996 0.136996
O O3 0.659462 0.199977 0.043992
O O4 0.751557 0.135838 0.024413
O O5 0.597004 0.597004 0.740380
O O6 0.576786 0.711351 0.711351
O O7 0.568524 0.678871 0.825716
O O8 0.486245 0.641848 0.753314
O O9 0.411565 0.097560 0.588435
O O10 0.295378 0.068879 0.600241
O O11 0.343317 0.078042 0.493262
O O12 0.782423 0.058392 0.941609
O O13 0.862240 0.022309 0.862240
O O14 0.831387 0.947996 0.947996
O O15 0.699661 0.999899 0.699661
O O16 0.596495 0.045801 0.733561
O O17 0.617419 0.382582 0.931359
O O18 0.585400 0.308298 0.841703
O O19 0.738135 0.738135 0.415283
O O20 0.628509 0.748914 0.371492
#
# Coordination Sequence:
#
# PCOD8331048 Si02
#       7
#    24  24  24  24  24  24  24
#     4   9  17  29  45  64  86 114 147 180 211 246
#     4   9  17  28  42  62  89 119 148 180 221 268
#     4   9  17  28  43  64  87 112 143 176 212 259
#     4   9  16  26  41  62  88 115 141 169 203 244
#     4   9  17  29  43  60  84 111 139 173 212 252
#     4   9  17  29  45  64  87 115 142 172 216 264
#     4   9  17  29  45  64  86 114 150 189 224 260
#
# _framework density 15.819512
#
# number of rings (size 3 to 8) (size 9 to 14) (size 15 to 20)
#    0.000    3.000    0.000    1.143    0.000    2.286 
#    0.000    3.571    0.000    5.429    0.000    3.000 
#    0.000    0.000    0.000    8.857    0.000    0.286 
#
# Total GULP energy -2081656.275226 kJ/mol
# GULP energy per Si atom -12390.811162 kJ/mol
# Density = 1.578351 g / cm^3
# Si number density = 15.819512 Si / 1000 Ang^3
#
#
#
# Elastic Constant Matrix: (Units=GPa)
#
#
# Indices 1 2 3 4 5 6 
#
# 1 80.0730 47.5639 47.5639 0.0000 0.0000 0.0000
# 2 47.5639 80.0730 47.5639 0.0000 0.0000 0.0000
# 3 47.5639 47.5639 80.0730 0.0000 0.0000 0.0000
# 4 0.0000 0.0000 0.0000 21.1160 0.0000 0.0000
# 5 0.0000 0.0000 0.0000 0.0000 21.1160 0.0000
# 6 0.0000 0.0000 0.0000 0.0000 0.0000 21.1160
#
#
#
# Elastic Compliance Matrix: (Units=1/GPa)
#
#
# Indices 1 2 3 4 5 6 
#
# 1 0.022410 -0.008351 -0.008351 0.000000 0.000000 0.000000
# 2 -0.008351 0.022410 -0.008351 0.000000 0.000000 0.000000
# 3 -0.008351 -0.008351 0.022410 0.000000 0.000000 0.000000
# 4 0.000000 0.000000 0.000000 0.047357 0.000000 0.000000
# 5 0.000000 0.000000 0.000000 0.000000 0.047357 0.000000
# 6 0.000000 0.000000 0.000000 0.000000 0.000000 0.047357
#
#
# Mechanical properties :
#
#
# Convention : Reuss Voigt Hill
#
# Bulk Modulus (GPa) = 58.40029 58.40029 58.40029
# Shear Modulus (GPa) = 18.85977 19.17144 19.01561
#
# Velocity S-wave (km/s) = 3.45655 3.48499 3.47080
# Velocity P-wave (km/s) = 7.27510 7.29317 7.28414
#
# Compressibility (1/GPa) = 0.01712320
#
# Stress axis : x y z
#
# Youngs Moduli (GPa) = 44.62366 44.62366 44.62366
#
# Poissons Ratio (x) = 0.37265 0.37265
# Poissons Ratio (y) = 0.37265 0.37265
# Poissons Ratio (z) = 0.37265 0.37265
#
# Static dielectric constant tensor:
#      x y z
#    x 3.030130 0.000000 0.000000 
#    y 0.000000 3.030130 0.000000 
#    z 0.000000 0.000000 3.030130 
# 
# 
# High freq. dielectric constant tensor:
#      x y z
#    x 1.599190 0.000000 0.000000 
#    y 0.000000 1.599190 0.000000 
#    z 0.000000 0.000000 1.599190 
# 
# From -- ./inp_files/917.got.cif
#   From: 2010.03.12/outbox.cif.g09.slc.cpg/sg215_cif.got.tgz:917.got - 2010.03.30 09:06:09.
