data_PCOD8331124
_publ_section_title
;
Structure prediction by ZEFSAII (Michael W. Deem and Ramdas Pophale) SiO2 
 PCOD8331124
Probable space group: P N 3 N
;
_chemical_formula_sum "Si O2"
_cell_formula_units_Z 120
_cell_length_a 17.185267
_cell_length_b 17.185267
_cell_length_c 17.185267
_cell_angle_alpha 90.000000
_cell_angle_beta 90.000000
_cell_angle_gamma 90.000000
_cell_volume 5075.383365
_symmetry_space_group_name_H-M "P N 3 N"
_symmetry_group_IT_number 222
_space_group.IT_coordinate_system_code '2'
_symmetry_cell_setting 'cubic'
loop_
_space_group_symop_operation_xyz
x,y,z
1/2-y,x,z
1/2-x,1/2-y,z
y,1/2-x,z
x,1/2-z,y
x,1/2-y,1/2-z
x,z,1/2-y
z,y,1/2-x
1/2-x,y,1/2-z
1/2-z,y,x
z,x,y
y,z,x
1/2-y,1/2-z,x
z,1/2-x,1/2-y
1/2-y,z,1/2-x
1/2-z,1/2-x,y
1/2-z,x,1/2-y
y,1/2-z,1/2-x
y,x,1/2-z
1/2-y,1/2-x,1/2-z
1/2-x,z,y
1/2-x,1/2-z,1/2-y
z,1/2-y,x
1/2-z,1/2-y,1/2-x
-x,-y,-z
1/2+y,-x,-z
1/2+x,1/2+y,-z
-y,1/2+x,-z
-x,1/2+z,-y
-x,1/2+y,1/2+z
-x,-z,1/2+y
-z,-y,1/2+x
1/2+x,-y,1/2+z
1/2+z,-y,-x
-z,-x,-y
-y,-z,-x
1/2+y,1/2+z,-x
-z,1/2+x,1/2+y
1/2+y,-z,1/2+x
1/2+z,1/2+x,-y
1/2+z,-x,1/2+y
-y,1/2+z,1/2+x
-y,-x,1/2+z
1/2+y,1/2+x,1/2+z
1/2+x,-z,-y
1/2+x,1/2+z,1/2+y
-z,1/2+y,-x
1/2+z,1/2+y,1/2+x
loop_
_atom_site_type_symbol
_atom_site_label
_atom_site_fract_x
_atom_site_fract_y
_atom_site_fract_z
Si Si1 0.087032 0.475751 0.851572
Si Si2 0.654532 0.654532 0.250000
Si Si3 0.229469 0.905297 0.368629
O O1 0.127335 0.508609 0.929485
O O2 0.148454 0.418786 0.810256
O O3 0.067026 0.544855 0.790996
O O4 0.644546 0.730129 0.309139
O O5 0.312184 0.938133 0.339700
#
# Coordination Sequence:
#
# PCOD8331124 Si02
#       3
#    48  24  48
#     4  10  23  41  60  87 121 164 208 258 309 382
#     4  10  22  37  62  86 122 164 210 247 314 370
#     4  10  22  40  63  91 124 157 204 265 318 375
#
# _framework density 23.643533000000001
#
# number of rings (size 3 to 8) (size 9 to 14) (size 15 to 20)
#    0.000    2.000    0.000    1.600   22.400    1.600 
#    0.000    0.000    0.000    0.000    0.000    0.000 
#    0.000    0.000    0.000    0.000    0.000    0.400 
#
# Total GULP energy -1487631.179792 kJ/mol
# GULP energy per Si atom -12396.926498 kJ/mol
# Density = 2.358972 g / cm^3
# Si number density = 23.643533 Si / 1000 Ang^3
#
#
#
# Elastic Constant Matrix: (Units=GPa)
#
#
# Indices 1 2 3 4 5 6 
#
# 1 108.2116 28.3001 28.3001 0.0000 0.0000 0.0000
# 2 28.3001 108.2116 28.3001 0.0000 0.0000 0.0000
# 3 28.3001 28.3001 108.2116 0.0000 0.0000 0.0000
# 4 0.0000 0.0000 0.0000 34.4563 0.0000 0.0000
# 5 0.0000 0.0000 0.0000 0.0000 34.4563 0.0000
# 6 0.0000 0.0000 0.0000 0.0000 0.0000 34.4563
#
#
#
# Elastic Compliance Matrix: (Units=1/GPa)
#
#
# Indices 1 2 3 4 5 6 
#
# 1 0.010365 -0.002149 -0.002149 0.000000 0.000000 0.000000
# 2 -0.002149 0.010365 -0.002149 0.000000 0.000000 0.000000
# 3 -0.002149 -0.002149 0.010365 0.000000 0.000000 0.000000
# 4 0.000000 0.000000 0.000000 0.029022 0.000000 0.000000
# 5 0.000000 0.000000 0.000000 0.000000 0.029022 0.000000
# 6 0.000000 0.000000 0.000000 0.000000 0.000000 0.029022
#
#
# Mechanical properties :
#
#
# Convention : Reuss Voigt Hill
#
# Bulk Modulus (GPa) = 54.93726 54.93726 54.93726
# Shear Modulus (GPa) = 36.46382 36.65607 36.55994
#
# Velocity S-wave (km/s) = 3.93139 3.94174 3.93657
# Velocity P-wave (km/s) = 6.62524 6.63344 6.62934
#
# Compressibility (1/GPa) = 0.01820258
#
# Stress axis : x y z
#
# Youngs Moduli (GPa) = 96.47788 96.47788 96.47788
#
# Poissons Ratio (x) = 0.20731 0.20731
# Poissons Ratio (y) = 0.20731 0.20731
# Poissons Ratio (z) = 0.20731 0.20731
#
# Static dielectric constant tensor:
#      x y z
#    x 4.270020 0.000000 0.000000 
#    y 0.000000 4.270020 0.000000 
#    z 0.000000 0.000000 4.270020 
# 
# 
# High freq. dielectric constant tensor:
#      x y z
#    x 1.939010 0.000000 0.000000 
#    y 0.000000 1.939010 0.000000 
#    z 0.000000 0.000000 1.939010 
# 
# From -- ./inp_files/180.got.cif
#   From: 2010.03.12/outbox.cif.g09.slc.cpg/sg222_cif.got.tgz:180.got - 2010.03.30 09:08:40.
