data_PCOD8331017
_publ_section_title
;
Structure prediction by ZEFSAII (Michael W. Deem and Ramdas Pophale) SiO2 
 PCOD8331017
Probable space group: I 41 3 2 
;
_chemical_formula_sum "Si O2"
_cell_formula_units_Z 276
_cell_length_a 25.041989
_cell_length_b 25.041989
_cell_length_c 25.041989
_cell_angle_alpha 90.000000
_cell_angle_beta 90.000000
_cell_angle_gamma 90.000000
_cell_volume 15703.861680
_symmetry_space_group_name_H-M "I 41 3 2 "
_symmetry_group_IT_number 214
_symmetry_cell_setting 'cubic'
loop_
_space_group_symop_operation_xyz
x,y,z
1/4-y,3/4+x,1/4+z
-x,1/2-y,z
1/4+y,1/4-x,3/4+z
1/4+x,1/4-z,3/4+y
x,-y,1/2-z
3/4+x,1/4+z,1/4-y
3/4+z,1/4+y,1/4-x
1/2-x,y,-z
1/4-z,3/4+y,1/4+x
z,x,y
y,z,x
-y,1/2-z,x
z,-x,1/2-y
1/2-y,z,-x
-z,1/2-x,y
1/2-z,x,-y
y,-z,1/2-x
3/4+y,1/4+x,1/4-z
1/4-y,1/4-x,1/4-z
1/4-x,3/4+z,1/4+y
1/4-x,1/4-z,1/4-y
1/4+z,1/4-y,3/4+x
1/4-z,1/4-y,1/4-x
1/2+x,1/2+y,1/2+z
3/4-y,1/4+x,3/4+z
1/2-x,-y,1/2+z
3/4+y,3/4-x,1/4+z
3/4+x,3/4-z,1/4+y
1/2+x,1/2-y,-z
1/4+x,3/4+z,3/4-y
1/4+z,3/4+y,3/4-x
-x,1/2+y,1/2-z
3/4-z,1/4+y,3/4+x
1/2+z,1/2+x,1/2+y
1/2+y,1/2+z,1/2+x
1/2-y,-z,1/2+x
1/2+z,1/2-x,-y
-y,1/2+z,1/2-x
1/2-z,-x,1/2+y
-z,1/2+x,1/2-y
1/2+y,1/2-z,-x
1/4+y,3/4+x,3/4-z
3/4-y,3/4-x,3/4-z
3/4-x,1/4+z,3/4+y
3/4-x,3/4-z,3/4-y
3/4+z,3/4-y,1/4+x
3/4-z,3/4-y,3/4-x
loop_
_atom_site_type_symbol
_atom_site_label
_atom_site_fract_x
_atom_site_fract_y
_atom_site_fract_z
Si Si1 0.096462 0.375000 0.346462
Si Si2 0.726028 0.311990 0.103793
Si Si3 0.952804 0.287348 0.454765
Si Si4 0.266622 0.610624 0.363698
Si Si5 0.394031 0.777363 0.397196
Si Si6 0.000000 0.750000 0.375000
Si Si7 0.387011 0.200465 0.711427
O O1 0.133841 0.325800 0.364426
O O2 0.100488 0.392888 0.285823
O O3 0.663086 0.304927 0.096635
O O4 0.736437 0.350203 0.154244
O O5 0.752766 0.254480 0.109804
O O6 0.751776 0.338470 0.052082
O O7 0.936698 0.321378 0.507385
O O8 0.912073 0.245166 0.429351
O O9 0.962259 0.331642 0.410189
O O10 0.000000 0.250000 0.473962
O O11 0.224242 0.658650 0.359758
O O12 0.429516 0.803606 0.444898
#
# Coordination Sequence:
#
# PCOD8331017 Si02
#       7
#    24  48  48  48  48  12  48
#     4  12  22  36  57  97 114 142 196 254 290 360
#     4  12  24  42  58  80 116 155 207 249 308 356
#     4  10  19  37  59  87 118 155 183 230 305 358
#     4  10  21  34  60  88 120 145 191 241 297 355
#     4  11  22  37  60  84 117 148 198 252 296 353
#     4  12  28  40  56  78 116 172 196 264 310 350
#     4  11  23  39  59  83 111 161 200 254 301 357
#
# _framework density 17.575294
#
# number of rings (size 3 to 8) (size 9 to 14) (size 15 to 20)
#    0.000    1.043    6.957    0.348    2.435    0.696 
#    0.000    0.435    0.000    0.000    0.000    0.000 
#    0.000    0.000    0.000    0.000    0.000    0.000 
#
# Total GULP energy -1710399.105076 kJ/mol
# GULP energy per Si atom -12394.196414 kJ/mol
# Density = 1.753529 g / cm^3
# Si number density = 17.575294 Si / 1000 Ang^3
#
#
#
# Elastic Constant Matrix: (Units=GPa)
#
#
# Indices 1 2 3 4 5 6 
#
# 1 93.8955 44.9121 44.9121 0.0000 0.0000 0.0000
# 2 44.9121 93.8955 44.9121 0.0000 0.0000 0.0000
# 3 44.9121 44.9121 93.8955 0.0000 0.0000 0.0000
# 4 0.0000 0.0000 0.0000 26.8316 0.0000 0.0000
# 5 0.0000 0.0000 0.0000 0.0000 26.8316 0.0000
# 6 0.0000 0.0000 0.0000 0.0000 0.0000 26.8316
#
#
#
# Elastic Compliance Matrix: (Units=1/GPa)
#
#
# Indices 1 2 3 4 5 6 
#
# 1 0.015424 -0.004991 -0.004991 0.000000 0.000000 0.000000
# 2 -0.004991 0.015424 -0.004991 0.000000 0.000000 0.000000
# 3 -0.004991 -0.004991 0.015424 0.000000 0.000000 0.000000
# 4 0.000000 0.000000 0.000000 0.037270 0.000000 0.000000
# 5 0.000000 0.000000 0.000000 0.000000 0.037270 0.000000
# 6 0.000000 0.000000 0.000000 0.000000 0.000000 0.037270
#
#
# Mechanical properties :
#
#
# Convention : Reuss Voigt Hill
#
# Bulk Modulus (GPa) = 61.23990 61.23990 61.23990
# Shear Modulus (GPa) = 25.84394 25.89562 25.86978
#
# Velocity S-wave (km/s) = 3.83883 3.84267 3.84075
# Velocity P-wave (km/s) = 7.38707 7.38973 7.38840
#
# Compressibility (1/GPa) = 0.01632922
#
# Stress axis : x y z
#
# Youngs Moduli (GPa) = 64.83222 64.83222 64.83222
#
# Poissons Ratio (x) = 0.32356 0.32356
# Poissons Ratio (y) = 0.32356 0.32356
# Poissons Ratio (z) = 0.32356 0.32356
#
# Static dielectric constant tensor:
#      x y z
#    x 3.214620 0.000000 0.000000 
#    y 0.000000 3.214620 0.000000 
#    z 0.000000 0.000000 3.214620 
# 
# 
# High freq. dielectric constant tensor:
#      x y z
#    x 1.676060 0.000000 0.000000 
#    y 0.000000 1.676060 0.000000 
#    z 0.000000 0.000000 1.676060 
# 
# From -- ./inp_files/740.got.cif
#   From: 2010.03.12/outbox.cif.g09.slc.cpg/sg214_cif.got.tgz:740.got - 2010.03.30 09:05:49.
