data_PCOD8331011
_publ_section_title
;
Structure prediction by ZEFSAII (Michael W. Deem and Ramdas Pophale) SiO2 
 PCOD8331011
Probable space group: P 41 3 2
;
_chemical_formula_sum "Si O2"
_cell_formula_units_Z 96
_cell_length_a 17.560650
_cell_length_b 17.560650
_cell_length_c 17.560650
_cell_angle_alpha 90.000000
_cell_angle_beta 90.000000
_cell_angle_gamma 90.000000
_cell_volume 5415.290528
_symmetry_space_group_name_H-M "P 41 3 2"
_symmetry_group_IT_number 213
_symmetry_cell_setting 'cubic'
loop_
_space_group_symop_operation_xyz
x,y,z
1/4-y,3/4+x,1/4+z
1/2-x,-y,1/2+z
1/4+y,1/4-x,3/4+z
1/4+x,1/4-z,3/4+y
1/2+x,1/2-y,-z
3/4+x,1/4+z,1/4-y
3/4+z,1/4+y,1/4-x
-x,1/2+y,1/2-z
1/4-z,3/4+y,1/4+x
z,x,y
y,z,x
1/2-y,-z,1/2+x
1/2+z,1/2-x,-y
-y,1/2+z,1/2-x
1/2-z,-x,1/2+y
-z,1/2+x,1/2-y
1/2+y,1/2-z,-x
3/4+y,1/4+x,1/4-z
3/4-y,3/4-x,3/4-z
1/4-x,3/4+z,1/4+y
3/4-x,3/4-z,3/4-y
1/4+z,1/4-y,3/4+x
3/4-z,3/4-y,3/4-x
loop_
_atom_site_type_symbol
_atom_site_label
_atom_site_fract_x
_atom_site_fract_y
_atom_site_fract_z
Si Si1 0.695333 0.054667 0.375000
Si Si2 0.597068 0.610957 0.977057
Si Si3 0.254235 0.875000 0.495766
Si Si4 0.737381 0.469471 0.156145
Si Si5 0.808633 0.658560 0.882670
O O1 0.685677 0.125000 0.435677
O O2 0.779072 0.055449 0.335976
O O3 0.625000 0.689483 0.939483
O O4 0.651912 0.539844 0.960739
O O5 0.515115 0.590242 0.943109
O O6 0.596780 0.623466 0.067824
O O7 0.258239 0.936481 0.428530
O O8 0.178713 0.822420 0.496220
O O9 0.675636 0.538769 0.164966
#
# Coordination Sequence:
#
# PCOD8331011 Si02
#       5
#    12  24  12  24  24
#     4  10  18  28  51  84 124 152 175 236 292 340
#     4  10  17  29  52  78 108 148 180 232 286 338
#     4  12  22  38  57  88 110 154 197 244 298 346
#     4  11  21  34  57  80 116 147 194 245 295 348
#     4  11  18  32  52  85 120 145 186 235 294 348
#
# _framework density 17.727581000000001
#
# number of rings (size 3 to 8) (size 9 to 14) (size 15 to 20)
#    0.250    1.000    8.750    1.000    0.000    0.000 
#    0.000    1.250    0.000    0.000    0.000    0.000 
#   65.000    0.000    0.000    0.000    0.000    0.000 
#
# Total GULP energy -1189515.330345 kJ/mol
# GULP energy per Si atom -12390.784691 kJ/mol
# Density = 1.768723 g / cm^3
# Si number density = 17.727581 Si / 1000 Ang^3
#
#
#
# Elastic Constant Matrix: (Units=GPa)
#
#
# Indices 1 2 3 4 5 6 
#
# 1 79.4931 38.0376 38.0376 0.0000 0.0000 0.0000
# 2 38.0376 79.4931 38.0376 0.0000 0.0000 0.0000
# 3 38.0376 38.0376 79.4931 0.0000 0.0000 0.0000
# 4 0.0000 0.0000 0.0000 25.7358 0.0000 0.0000
# 5 0.0000 0.0000 0.0000 0.0000 25.7358 0.0000
# 6 0.0000 0.0000 0.0000 0.0000 0.0000 25.7358
#
#
#
# Elastic Compliance Matrix: (Units=1/GPa)
#
#
# Indices 1 2 3 4 5 6 
#
# 1 0.018224 -0.005898 -0.005898 0.000000 0.000000 0.000000
# 2 -0.005898 0.018224 -0.005898 0.000000 0.000000 0.000000
# 3 -0.005898 -0.005898 0.018224 0.000000 0.000000 0.000000
# 4 0.000000 0.000000 0.000000 0.038856 0.000000 0.000000
# 5 0.000000 0.000000 0.000000 0.000000 0.038856 0.000000
# 6 0.000000 0.000000 0.000000 0.000000 0.000000 0.038856
#
#
# Mechanical properties :
#
#
# Convention : Reuss Voigt Hill
#
# Bulk Modulus (GPa) = 51.85613 51.85613 51.85613
# Shear Modulus (GPa) = 23.46779 23.73260 23.60020
#
# Velocity S-wave (km/s) = 3.64235 3.66285 3.65262
# Velocity P-wave (km/s) = 6.85596 6.87050 6.86323
#
# Compressibility (1/GPa) = 0.01928412
#
# Stress axis : x y z
#
# Youngs Moduli (GPa) = 54.87213 54.87213 54.87213
#
# Poissons Ratio (x) = 0.32364 0.32364
# Poissons Ratio (y) = 0.32364 0.32364
# Poissons Ratio (z) = 0.32364 0.32364
#
# Static dielectric constant tensor:
#      x y z
#    x 3.186310 0.000000 0.000000 
#    y 0.000000 3.186310 0.000000 
#    z 0.000000 0.000000 3.186310 
# 
# 
# High freq. dielectric constant tensor:
#      x y z
#    x 1.667350 0.000000 0.000000 
#    y 0.000000 1.667350 0.000000 
#    z 0.000000 0.000000 1.667350 
# 
# From -- ./inp_files/493.got.cif
#   From: 2010.03.12/outbox.cif.g09.slc.cpg/sg213_cif.got.tgz:493.got - 2010.03.30 09:05:31.
