data_PCOD8331016
_publ_section_title
;
Structure prediction by ZEFSAII (Michael W. Deem and Ramdas Pophale) SiO2 
 PCOD8331016
Probable space group: I 41 3 2 
;
_chemical_formula_sum "Si O2"
_cell_formula_units_Z 352
_cell_length_a 26.588634
_cell_length_b 26.588634
_cell_length_c 26.588634
_cell_angle_alpha 90.000000
_cell_angle_beta 90.000000
_cell_angle_gamma 90.000000
_cell_volume 18796.979927
_symmetry_space_group_name_H-M "I 41 3 2 "
_symmetry_group_IT_number 214
_symmetry_cell_setting 'cubic'
loop_
_space_group_symop_operation_xyz
x,y,z
1/4-y,3/4+x,1/4+z
-x,1/2-y,z
1/4+y,1/4-x,3/4+z
1/4+x,1/4-z,3/4+y
x,-y,1/2-z
3/4+x,1/4+z,1/4-y
3/4+z,1/4+y,1/4-x
1/2-x,y,-z
1/4-z,3/4+y,1/4+x
z,x,y
y,z,x
-y,1/2-z,x
z,-x,1/2-y
1/2-y,z,-x
-z,1/2-x,y
1/2-z,x,-y
y,-z,1/2-x
3/4+y,1/4+x,1/4-z
1/4-y,1/4-x,1/4-z
1/4-x,3/4+z,1/4+y
1/4-x,1/4-z,1/4-y
1/4+z,1/4-y,3/4+x
1/4-z,1/4-y,1/4-x
1/2+x,1/2+y,1/2+z
3/4-y,1/4+x,3/4+z
1/2-x,-y,1/2+z
3/4+y,3/4-x,1/4+z
3/4+x,3/4-z,1/4+y
1/2+x,1/2-y,-z
1/4+x,3/4+z,3/4-y
1/4+z,3/4+y,3/4-x
-x,1/2+y,1/2-z
3/4-z,1/4+y,3/4+x
1/2+z,1/2+x,1/2+y
1/2+y,1/2+z,1/2+x
1/2-y,-z,1/2+x
1/2+z,1/2-x,-y
-y,1/2+z,1/2-x
1/2-z,-x,1/2+y
-z,1/2+x,1/2-y
1/2+y,1/2-z,-x
1/4+y,3/4+x,3/4-z
3/4-y,3/4-x,3/4-z
3/4-x,1/4+z,3/4+y
3/4-x,3/4-z,3/4-y
3/4+z,3/4-y,1/4+x
3/4-z,3/4-y,3/4-x
loop_
_atom_site_type_symbol
_atom_site_label
_atom_site_fract_x
_atom_site_fract_y
_atom_site_fract_z
Si Si1 0.307893 0.095074 0.509540
Si Si2 0.642011 0.331425 0.337921
Si Si3 0.249903 0.392255 0.695003
Si Si4 0.365336 0.928038 0.374487
Si Si5 0.914132 0.165966 0.280991
Si Si6 0.897050 0.310925 0.769082
Si Si7 0.341664 0.658337 0.158338
Si Si8 0.705685 0.995342 0.809800
O O1 0.250000 0.100107 0.500000
O O2 0.316329 0.088737 0.569517
O O3 0.325920 0.048629 0.473922
O O4 0.332856 0.148690 0.492789
O O5 0.595574 0.345574 0.375000
O O6 0.660075 0.275547 0.350094
O O7 0.688939 0.365975 0.353959
O O8 0.631684 0.335976 0.278054
O O9 0.268305 0.389879 0.751592
O O10 0.191346 0.379572 0.692125
O O11 0.262667 0.447237 0.672754
O O12 0.349772 0.875000 0.400229
O O13 0.426233 0.923126 0.372868
O O14 0.347530 0.971636 0.412644
O O15 0.958137 0.125000 0.291864
O O16 0.955187 0.328661 0.764486
O O17 0.375000 0.625000 0.125000
O O18 0.701079 0.000000 0.750000
#
# Coordination Sequence:
#
# PCOD8331016 Si02
#       8
#    48  48  48  48  48  48  16  48
#     4  10  18  34  58  90 117 154 192 231 297 352
#     4  11  22  33  58  85 108 145 195 237 295 364
#     4  11  20  39  54  73 104 144 194 245 301 355
#     4  11  22  36  58  90 127 156 188 239 299 352
#     4  11  20  34  56  86 118 150 186 235 285 350
#     4  10  20  38  57  84 111 149 187 248 306 357
#     4  12  27  39  54  66  99 159 204 249 304 362
#     4   8  17  31  57  78 105 139 186 244 300 345
#
# _framework density 18.726412
#
# number of rings (size 3 to 8) (size 9 to 14) (size 15 to 20)
#    0.000    1.636    4.091    3.273    0.000    2.182 
#    0.000    0.682    0.000    0.955    0.000    0.000 
#    0.000    0.000    0.000    0.000    0.000    0.000 
#
# Total GULP energy -2180734.842530 kJ/mol
# GULP energy per Si atom -12390.538878 kJ/mol
# Density = 1.868379 g / cm^3
# Si number density = 18.726412 Si / 1000 Ang^3
#
#
#
# Elastic Constant Matrix: (Units=GPa)
#
#
# Indices 1 2 3 4 5 6 
#
# 1 89.6158 33.4552 33.4549 0.0000 0.0000 0.0000
# 2 33.4552 89.6158 33.4549 0.0000 0.0000 0.0000
# 3 33.4549 33.4549 89.6155 0.0000 0.0000 0.0000
# 4 0.0000 0.0000 0.0000 21.0180 0.0000 0.0000
# 5 0.0000 0.0000 0.0000 0.0000 21.0180 0.0000
# 6 0.0000 0.0000 0.0000 0.0000 0.0000 21.0169
#
#
#
# Elastic Compliance Matrix: (Units=1/GPa)
#
#
# Indices 1 2 3 4 5 6 
#
# 1 0.014000 -0.003806 -0.003806 0.000000 0.000000 0.000000
# 2 -0.003806 0.014000 -0.003806 0.000000 0.000000 0.000000
# 3 -0.003806 -0.003806 0.014000 0.000000 0.000000 0.000000
# 4 0.000000 0.000000 0.000000 0.047578 0.000000 0.000000
# 5 0.000000 0.000000 0.000000 0.000000 0.047578 0.000000
# 6 0.000000 0.000000 0.000000 0.000000 0.000000 0.047581
#
#
# Mechanical properties :
#
#
# Convention : Reuss Voigt Hill
#
# Bulk Modulus (GPa) = 52.17523 52.17523 52.17523
# Shear Modulus (GPa) = 23.36871 23.84273 23.60572
#
# Velocity S-wave (km/s) = 3.53640 3.57208 3.55428
# Velocity P-wave (km/s) = 6.67811 6.70338 6.69076
#
# Compressibility (1/GPa) = 0.01916618
#
# Stress axis : x y z
#
# Youngs Moduli (GPa) = 71.42725 71.42725 71.42713
#
# Poissons Ratio (x) = 0.27184 0.27183
# Poissons Ratio (y) = 0.27184 0.27183
# Poissons Ratio (z) = 0.27183 0.27183
#
# Static dielectric constant tensor:
#      x y z
#    x 3.228470 0.000000 0.000000 
#    y 0.000000 3.228470 0.000000 
#    z 0.000000 0.000000 3.228440 
# 
# 
# High freq. dielectric constant tensor:
#      x y z
#    x 1.715650 0.000000 0.000000 
#    y 0.000000 1.715650 0.000000 
#    z 0.000000 0.000000 1.715650 
# 
# From -- ./inp_files/786.got.cif
#   From: 2010.03.12/outbox.cif.g09.slc.cpg/sg214_cif.got.tgz:786.got - 2010.03.30 09:05:49.
