data_PCOD8331073
_publ_section_title
;
Structure prediction by ZEFSAII (Michael W. Deem and Ramdas Pophale) SiO2 
 PCOD8331073
Probable space group: P -4 3 N
;
_chemical_formula_sum "Si O2"
_cell_formula_units_Z 64
_cell_length_a 15.174519
_cell_length_b 15.174519
_cell_length_c 15.174519
_cell_angle_alpha 90.000000
_cell_angle_beta 90.000000
_cell_angle_gamma 90.000000
_cell_volume 3494.176200
_symmetry_space_group_name_H-M "P -4 3 N"
_symmetry_group_IT_number 218
_symmetry_cell_setting 'cubic'
loop_
_space_group_symop_operation_xyz
x,y,z
1/2+y,1/2-x,1/2-z
-x,-y,z
1/2-y,1/2+x,1/2-z
1/2-x,1/2+z,1/2-y
x,-y,-z
1/2-x,1/2-z,1/2+y
1/2-z,1/2-y,1/2+x
-x,y,-z
1/2+z,1/2-y,1/2-x
z,x,y
y,z,x
-y,-z,x
z,-x,-y
-y,z,-x
-z,-x,y
-z,x,-y
y,-z,-x
1/2-y,1/2-x,1/2+z
1/2+y,1/2+x,1/2+z
1/2+x,1/2-z,1/2-y
1/2+x,1/2+z,1/2+y
1/2-z,1/2+y,1/2-x
1/2+z,1/2+y,1/2+x
loop_
_atom_site_type_symbol
_atom_site_label
_atom_site_fract_x
_atom_site_fract_y
_atom_site_fract_z
Si Si1 0.560188 0.230730 0.263074
Si Si2 0.500000 0.500000 0.500000
Si Si3 0.380674 0.619327 0.380674
Si Si4 0.894258 0.345744 0.312545
Si Si5 0.000000 0.500000 0.250000
O O1 0.556984 0.315561 0.325360
O O2 0.634049 0.244827 0.186084
O O3 0.592317 0.144472 0.317392
O O4 0.460349 0.220574 0.230081
O O5 0.440163 0.559839 0.440162
O O6 0.949111 0.436457 0.318282
#
# Coordination Sequence:
#
# PCOD8331073 Si02
#       5
#    24   2   8  24   6
#     4   9  18  33  52  75 100 131 169 208 250 308
#     4  12  24  36  52  68 100 138 156 204 256 272
#     4   9  21  36  49  74 103 126 168 210 241 293
#     4   9  17  31  53  75 100 132 168 210 257 303
#     4   8  16  32  52  74 104 136 168 218 264 294
#
# _framework density 18.316192999999998
#
# number of rings (size 3 to 8) (size 9 to 14) (size 15 to 20)
#    0.000    3.000    0.000    0.750    0.000    3.750 
#    0.000    0.000    0.000   13.500    0.000    0.000 
#    0.000    0.000    0.000    0.000    0.000    0.000 
#
# Total GULP energy -793058.825361 kJ/mol
# GULP energy per Si atom -12391.544146 kJ/mol
# Density = 1.827450 g / cm^3
# Si number density = 18.316193 Si / 1000 Ang^3
#
#
#
# Elastic Constant Matrix: (Units=GPa)
#
#
# Indices 1 2 3 4 5 6 
#
# 1 109.8453 61.9835 61.9838 0.0000 0.0000 0.0000
# 2 61.9835 109.8453 61.9838 0.0000 0.0000 0.0000
# 3 61.9838 61.9838 109.8456 0.0000 0.0000 0.0000
# 4 0.0000 0.0000 0.0000 38.7494 0.0000 0.0000
# 5 0.0000 0.0000 0.0000 0.0000 38.7494 0.0000
# 6 0.0000 0.0000 0.0000 0.0000 0.0000 38.7503
#
#
#
# Elastic Compliance Matrix: (Units=1/GPa)
#
#
# Indices 1 2 3 4 5 6 
#
# 1 0.015355 -0.005539 -0.005539 0.000000 0.000000 0.000000
# 2 -0.005539 0.015355 -0.005539 0.000000 0.000000 0.000000
# 3 -0.005539 -0.005539 0.015355 0.000000 0.000000 0.000000
# 4 0.000000 0.000000 0.000000 0.025807 0.000000 0.000000
# 5 0.000000 0.000000 0.000000 0.000000 0.025807 0.000000
# 6 0.000000 0.000000 0.000000 0.000000 0.000000 0.025806
#
#
# Mechanical properties :
#
#
# Convention : Reuss Voigt Hill
#
# Bulk Modulus (GPa) = 77.93759 77.93759 77.93759
# Shear Modulus (GPa) = 31.05706 32.82216 31.93961
#
# Velocity S-wave (km/s) = 4.12224 4.23777 4.18040
# Velocity P-wave (km/s) = 8.08089 8.16017 8.12063
#
# Compressibility (1/GPa) = 0.01283078
#
# Stress axis : x y z
#
# Youngs Moduli (GPa) = 65.12685 65.12685 65.12687
#
# Poissons Ratio (x) = 0.36073 0.36073
# Poissons Ratio (y) = 0.36073 0.36073
# Poissons Ratio (z) = 0.36073 0.36073
#
# Static dielectric constant tensor:
#      x y z
#    x 3.373270 0.000000 0.000000 
#    y 0.000000 3.373270 0.000000 
#    z 0.000000 0.000000 3.373270 
# 
# 
# High freq. dielectric constant tensor:
#      x y z
#    x 1.703390 0.000000 0.000000 
#    y 0.000000 1.703390 0.000000 
#    z 0.000000 0.000000 1.703390 
# 
# From -- ./inp_files/403.got.cif
#   From: 2010.03.12/outbox.cif.g09.slc.cpg/sg218_cif.got.tgz:403.got - 2010.03.30 09:07:27.
