data_PCOD8331146
_publ_section_title
;
Structure prediction by ZEFSAII (Michael W. Deem and Ramdas Pophale) SiO2 
 PCOD8331146
Probable space group: P N 3 M
;
_chemical_formula_sum "Si O2"
_cell_formula_units_Z 108
_cell_length_a 18.547699
_cell_length_b 18.547699
_cell_length_c 18.547699
_cell_angle_alpha 90.000000
_cell_angle_beta 90.000000
_cell_angle_gamma 90.000000
_cell_volume 6380.726330
_symmetry_space_group_name_H-M "P N 3 M"
_symmetry_group_IT_number 224
_space_group.IT_coordinate_system_code '2'
_symmetry_cell_setting 'cubic'
loop_
_space_group_symop_operation_xyz
x,y,z
-y,1/2+x,1/2+z
1/2-x,1/2-y,z
1/2+y,-x,1/2+z
1/2+x,-z,1/2+y
x,1/2-y,1/2-z
1/2+x,1/2+z,-y
1/2+z,1/2+y,-x
1/2-x,y,1/2-z
-z,1/2+y,1/2+x
z,x,y
y,z,x
1/2-y,1/2-z,x
z,1/2-x,1/2-y
1/2-y,z,1/2-x
1/2-z,1/2-x,y
1/2-z,x,1/2-y
y,1/2-z,1/2-x
1/2+y,1/2+x,-z
-y,-x,-z
-x,1/2+z,1/2+y
-x,-z,-y
1/2+z,-y,1/2+x
-z,-y,-x
-x,-y,-z
y,1/2-x,1/2-z
1/2+x,1/2+y,-z
1/2-y,x,1/2-z
1/2-x,z,1/2-y
-x,1/2+y,1/2+z
1/2-x,1/2-z,y
1/2-z,1/2-y,x
1/2+x,-y,1/2+z
z,1/2-y,1/2-x
-z,-x,-y
-y,-z,-x
1/2+y,1/2+z,-x
-z,1/2+x,1/2+y
1/2+y,-z,1/2+x
1/2+z,1/2+x,-y
1/2+z,-x,1/2+y
-y,1/2+z,1/2+x
1/2-y,1/2-x,z
y,x,z
x,1/2-z,1/2-y
x,z,y
1/2-z,y,1/2-x
z,y,x
loop_
_atom_site_type_symbol
_atom_site_label
_atom_site_fract_x
_atom_site_fract_y
_atom_site_fract_z
Si Si1 0.249923 0.019664 0.364863
Si Si2 0.000000 0.250000 0.750000
Si Si3 0.633152 0.352470 0.750827
O O1 0.251789 0.059534 0.440467
O O2 0.174037 0.034516 0.325964
O O3 0.314186 0.048019 0.314186
O O4 0.260103 0.936252 0.380823
O O5 0.946286 0.181863 0.749678
O O6 0.681435 0.324118 0.818566
O O7 0.676916 0.336181 0.676916
#
# Coordination Sequence:
#
# PCOD8331146 Si02
#       3
#    48  12  48
#     4   9  17  30  48  70  97 128 160 193 231 276
#     4  12  20  30  56  76  84 114 164 204 228 274
#     4   9  20  36  50  69  99 128 153 191 243 286
#
# _framework density 16.925972999999999
#
# number of rings (size 3 to 8) (size 9 to 14) (size 15 to 20)
#    0.000    2.667    0.000    4.889    0.000    5.333 
#    0.000    0.000    0.000    3.556    0.000   15.556 
#    0.000    0.000    0.000    0.000    0.000    0.000 
#
# Total GULP energy -1338442.378631 kJ/mol
# GULP energy per Si atom -12392.984987 kJ/mol
# Density = 1.688745 g / cm^3
# Si number density = 16.925973 Si / 1000 Ang^3
#
#
#
# Elastic Constant Matrix: (Units=GPa)
#
#
# Indices 1 2 3 4 5 6 
#
# 1 104.0183 38.9248 38.9248 0.0000 0.0000 0.0000
# 2 38.9248 104.0183 38.9248 0.0000 0.0000 0.0000
# 3 38.9248 38.9248 104.0183 0.0000 0.0000 0.0000
# 4 0.0000 0.0000 0.0000 29.1883 0.0000 0.0000
# 5 0.0000 0.0000 0.0000 0.0000 29.1883 0.0000
# 6 0.0000 0.0000 0.0000 0.0000 0.0000 29.1883
#
#
#
# Elastic Compliance Matrix: (Units=1/GPa)
#
#
# Indices 1 2 3 4 5 6 
#
# 1 0.012075 -0.003288 -0.003288 0.000000 0.000000 0.000000
# 2 -0.003288 0.012075 -0.003288 0.000000 0.000000 0.000000
# 3 -0.003288 -0.003288 0.012075 0.000000 0.000000 0.000000
# 4 0.000000 0.000000 0.000000 0.034260 0.000000 0.000000
# 5 0.000000 0.000000 0.000000 0.000000 0.034260 0.000000
# 6 0.000000 0.000000 0.000000 0.000000 0.000000 0.034260
#
#
# Mechanical properties :
#
#
# Convention : Reuss Voigt Hill
#
# Bulk Modulus (GPa) = 60.62265 60.62265 60.62265
# Shear Modulus (GPa) = 30.44493 30.53168 30.48831
#
# Velocity S-wave (km/s) = 4.24572 4.25177 4.24875
# Velocity P-wave (km/s) = 7.74138 7.74580 7.74359
#
# Compressibility (1/GPa) = 0.01649548
#
# Stress axis : x y z
#
# Youngs Moduli (GPa) = 82.81908 82.81908 82.81908
#
# Poissons Ratio (x) = 0.27231 0.27231
# Poissons Ratio (y) = 0.27231 0.27231
# Poissons Ratio (z) = 0.27231 0.27231
#
# Static dielectric constant tensor:
#      x y z
#    x 3.110610 0.000000 0.000000 
#    y 0.000000 3.110610 0.000000 
#    z 0.000000 0.000000 3.110610 
# 
# 
# High freq. dielectric constant tensor:
#      x y z
#    x 1.650360 0.000000 0.000000 
#    y 0.000000 1.650360 0.000000 
#    z 0.000000 0.000000 1.650360 
# 
# From -- ./inp_files/329.got.cif
#   From: 2010.03.12/outbox.cif.g09.slc.cpg/sg224_cif.got.tgz:329.got - 2010.03.30 09:09:26.
