data_PCOD8331044
_publ_section_title
;
Structure prediction by ZEFSAII (Michael W. Deem and Ramdas Pophale) SiO2 
 PCOD8331044
Probable space group: P -4 3 M
;
_chemical_formula_sum "Si O2"
_cell_formula_units_Z 168
_cell_length_a 21.194704
_cell_length_b 21.194704
_cell_length_c 21.194704
_cell_angle_alpha 90.000000
_cell_angle_beta 90.000000
_cell_angle_gamma 90.000000
_cell_volume 9520.989081
_symmetry_space_group_name_H-M "P -4 3 M"
_symmetry_group_IT_number 215
_symmetry_cell_setting 'cubic'
loop_
_space_group_symop_operation_xyz
x,y,z
y,-x,-z
-x,-y,z
-y,x,-z
-x,z,-y
x,-y,-z
-x,-z,y
-z,-y,x
-x,y,-z
z,-y,-x
z,x,y
y,z,x
-y,-z,x
z,-x,-y
-y,z,-x
-z,-x,y
-z,x,-y
y,-z,-x
-y,-x,z
y,x,z
x,-z,-y
x,z,y
-z,y,-x
z,y,x
loop_
_atom_site_type_symbol
_atom_site_label
_atom_site_fract_x
_atom_site_fract_y
_atom_site_fract_z
Si Si1 0.677562 0.780192 0.423497
Si Si2 0.228888 0.873420 0.432480
Si Si3 0.362604 0.000142 0.104050
Si Si4 0.918550 0.710134 0.447159
Si Si5 0.238535 0.013404 0.657163
Si Si6 0.000000 0.101805 0.500000
Si Si7 0.000000 0.602019 0.500000
Si Si8 0.233103 0.332973 0.563749
O O1 0.742366 0.742366 0.417284
O O2 0.629350 0.757172 0.370650
O O3 0.695766 0.852785 0.413511
O O4 0.645269 0.767107 0.491009
O O5 0.161095 0.838906 0.433334
O O6 0.236246 0.912106 0.498414
O O7 0.235591 0.916759 0.371367
O O8 0.285058 0.823923 0.426473
O O9 0.355627 0.064389 0.064389
O O10 0.320225 0.004866 0.166967
O O11 0.433104 0.988446 0.136630
O O12 0.345859 0.940925 0.059076
O O13 0.941568 0.645489 0.479813
O O14 0.965796 0.733131 0.393841
O O15 0.280505 0.013203 0.719495
O O16 0.058907 0.058907 0.481981
O O17 0.022149 0.558630 0.441371
O O18 0.298669 0.298669 0.581357
O O19 0.223721 0.394268 0.605733
#
# Coordination Sequence:
#
# PCOD8331044 Si02
#       8
#    24  24  24  24  24  12  12  24
#     4  10  21  37  55  74  99 132 174 221 269 322
#     4  10  21  36  54  77 104 142 188 228 269 321
#     4   9  19  35  55  80 107 137 177 223 270 320
#     4  11  22  37  51  74 104 140 179 228 270 322
#     4  12  23  35  52  78 112 147 179 219 278 338
#     4   7  12  25  46  74 104 127 159 212 266 316
#     4  11  22  35  52  74 104 144 188 230 278 329
#     4   9  18  32  51  74 100 130 166 211 262 319
#
# _framework density 17.645223999999999
#
# number of rings (size 3 to 8) (size 9 to 14) (size 15 to 20)
#    0.000    2.000    1.429    4.571    2.000    3.714 
#    0.000    0.000    0.000    3.429    0.000    0.000 
#    0.000    0.000    0.000    8.857    0.000    2.857 
#
# Total GULP energy -2082563.769297 kJ/mol
# GULP energy per Si atom -12396.212912 kJ/mol
# Density = 1.760506 g / cm^3
# Si number density = 17.645224 Si / 1000 Ang^3
#
#
#
# Elastic Constant Matrix: (Units=GPa)
#
#
# Indices 1 2 3 4 5 6 
#
# 1 96.5366 48.5160 48.5160 0.0000 0.0000 0.0000
# 2 48.5160 96.5366 48.5160 0.0000 0.0000 0.0000
# 3 48.5160 48.5160 96.5366 0.0000 0.0000 0.0000
# 4 0.0000 0.0000 0.0000 20.1720 0.0000 0.0000
# 5 0.0000 0.0000 0.0000 0.0000 20.1720 0.0000
# 6 0.0000 0.0000 0.0000 0.0000 0.0000 20.1720
#
#
#
# Elastic Compliance Matrix: (Units=1/GPa)
#
#
# Indices 1 2 3 4 5 6 
#
# 1 0.015605 -0.005219 -0.005219 0.000000 0.000000 0.000000
# 2 -0.005219 0.015605 -0.005219 0.000000 0.000000 0.000000
# 3 -0.005219 -0.005219 0.015605 0.000000 0.000000 0.000000
# 4 0.000000 0.000000 0.000000 0.049574 0.000000 0.000000
# 5 0.000000 0.000000 0.000000 0.000000 0.049574 0.000000
# 6 0.000000 0.000000 0.000000 0.000000 0.000000 0.049574
#
#
# Mechanical properties :
#
#
# Convention : Reuss Voigt Hill
#
# Bulk Modulus (GPa) = 64.52283 64.52283 64.52283
# Shear Modulus (GPa) = 21.55001 21.70734 21.62867
#
# Velocity S-wave (km/s) = 3.49849 3.51124 3.50487
# Velocity P-wave (km/s) = 7.27773 7.28591 7.28182
#
# Compressibility (1/GPa) = 0.01549839
#
# Stress axis : x y z
#
# Youngs Moduli (GPa) = 64.08218 64.08218 64.08218
#
# Poissons Ratio (x) = 0.33447 0.33447
# Poissons Ratio (y) = 0.33447 0.33447
# Poissons Ratio (z) = 0.33447 0.33447
#
# Static dielectric constant tensor:
#      x y z
#    x 3.268250 0.000000 0.000000 
#    y 0.000000 3.268250 0.000000 
#    z 0.000000 0.000000 3.268250 
# 
# 
# High freq. dielectric constant tensor:
#      x y z
#    x 1.674430 0.000000 0.000000 
#    y 0.000000 1.674430 0.000000 
#    z 0.000000 0.000000 1.674430 
# 
# From -- ./inp_files/972.got.cif
#   From: 2010.03.12/outbox.cif.g09.slc.cpg/sg215_cif.got.tgz:972.got - 2010.03.30 09:06:09.
