data_PCOD8331095
_publ_section_title
;
Structure prediction by ZEFSAII (Michael W. Deem and Ramdas Pophale) SiO2 
 PCOD8331095
Probable space group: I -4 3 D
;
_chemical_formula_sum "Si O2"
_cell_formula_units_Z 120
_cell_length_a 17.313949
_cell_length_b 17.313949
_cell_length_c 17.313949
_cell_angle_alpha 90.000000
_cell_angle_beta 90.000000
_cell_angle_gamma 90.000000
_cell_volume 5190.251490
_symmetry_space_group_name_H-M "I -4 3 D"
_symmetry_group_IT_number 220
_symmetry_cell_setting 'cubic'
loop_
_space_group_symop_operation_xyz
x,y,z
1/4+y,3/4-x,1/4-z
-x,1/2-y,z
1/4-y,1/4+x,3/4-z
1/4-x,1/4+z,3/4-y
x,-y,1/2-z
3/4-x,1/4-z,1/4+y
3/4-z,1/4-y,1/4+x
1/2-x,y,-z
1/4+z,3/4-y,1/4-x
z,x,y
y,z,x
-y,1/2-z,x
z,-x,1/2-y
1/2-y,z,-x
-z,1/2-x,y
1/2-z,x,-y
y,-z,1/2-x
3/4-y,1/4-x,1/4+z
1/4+y,1/4+x,1/4+z
1/4+x,3/4-z,1/4-y
1/4+x,1/4+z,1/4+y
1/4-z,1/4+y,3/4-x
1/4+z,1/4+y,1/4+x
1/2+x,1/2+y,1/2+z
3/4+y,1/4-x,3/4-z
1/2-x,-y,1/2+z
3/4-y,3/4+x,1/4-z
3/4-x,3/4+z,1/4-y
1/2+x,1/2-y,-z
1/4-x,3/4-z,3/4+y
1/4-z,3/4-y,3/4+x
-x,1/2+y,1/2-z
3/4+z,1/4-y,3/4-x
1/2+z,1/2+x,1/2+y
1/2+y,1/2+z,1/2+x
1/2-y,-z,1/2+x
1/2+z,1/2-x,-y
-y,1/2+z,1/2-x
1/2-z,-x,1/2+y
-z,1/2+x,1/2-y
1/2+y,1/2-z,-x
1/4-y,3/4-x,3/4+z
3/4+y,3/4+x,3/4+z
3/4+x,1/4-z,3/4-y
3/4+x,3/4+z,3/4+y
3/4-z,3/4+y,1/4-x
3/4+z,3/4+y,3/4+x
loop_
_atom_site_type_symbol
_atom_site_label
_atom_site_fract_x
_atom_site_fract_y
_atom_site_fract_z
Si Si1 0.075319 0.007553 0.564398
Si Si2 0.924478 0.000000 0.750000
Si Si3 0.122400 0.689373 0.027720
O O1 0.161926 0.975282 0.566303
O O2 0.011342 0.937994 0.561525
O O3 0.068087 0.052142 0.644765
O O4 0.874355 0.983474 0.826749
O O5 0.974251 0.080243 0.753838
#
# Coordination Sequence:
#
# PCOD8331095 Si02
#       3
#    48  24  48
#     4  10  23  44  67 104 142 186 251 305 368 462
#     4  12  26  45  74 107 148 200 252 310 392 453
#     4  12  24  45  72 102 147 196 245 312 381 451
#
# _framework density 23.120266999999998
#
# number of rings (size 3 to 8) (size 9 to 14) (size 15 to 20)
#    0.800    0.000    4.000    3.200    5.600    0.000 
#    0.000    0.000    0.000    0.000    0.000    0.000 
#    0.000    0.000    0.000    0.000    0.000    0.000 
#
# Total GULP energy -743450.436513 kJ/mol
# GULP energy per Si atom -12390.840609 kJ/mol
# Density = 2.306764 g / cm^3
# Si number density = 23.120267 Si / 1000 Ang^3
#
#
#
# Elastic Constant Matrix: (Units=GPa)
#
#
# Indices 1 2 3 4 5 6 
#
# 1 95.8946 36.7133 36.7133 0.0000 0.0000 0.0000
# 2 36.7133 95.8946 36.7133 0.0000 0.0000 0.0000
# 3 36.7133 36.7133 95.8946 0.0000 0.0000 0.0000
# 4 0.0000 0.0000 0.0000 44.9718 0.0000 0.0000
# 5 0.0000 0.0000 0.0000 0.0000 44.9718 0.0000
# 6 0.0000 0.0000 0.0000 0.0000 0.0000 44.9718
#
#
#
# Elastic Compliance Matrix: (Units=1/GPa)
#
#
# Indices 1 2 3 4 5 6 
#
# 1 0.013233 -0.003664 -0.003664 0.000000 0.000000 0.000000
# 2 -0.003664 0.013233 -0.003664 0.000000 0.000000 0.000000
# 3 -0.003664 -0.003664 0.013233 0.000000 0.000000 0.000000
# 4 0.000000 0.000000 0.000000 0.022236 0.000000 0.000000
# 5 0.000000 0.000000 0.000000 0.000000 0.022236 0.000000
# 6 0.000000 0.000000 0.000000 0.000000 0.000000 0.022236
#
#
# Mechanical properties :
#
#
# Convention : Reuss Voigt Hill
#
# Bulk Modulus (GPa) = 56.44039 56.44039 56.44039
# Shear Modulus (GPa) = 37.23084 38.81937 38.02510
#
# Velocity S-wave (km/s) = 4.01722 4.10203 4.05985
# Velocity P-wave (km/s) = 6.78101 6.84837 6.81477
#
# Compressibility (1/GPa) = 0.01771781
#
# Stress axis : x y z
#
# Youngs Moduli (GPa) = 75.56607 75.56607 75.56607
#
# Poissons Ratio (x) = 0.27686 0.27686
# Poissons Ratio (y) = 0.27686 0.27686
# Poissons Ratio (z) = 0.27686 0.27686
#
# Static dielectric constant tensor:
#      x y z
#    x 3.948890 0.000000 0.000000 
#    y 0.000000 3.948890 0.000000 
#    z 0.000000 0.000000 3.948890 
# 
# 
# High freq. dielectric constant tensor:
#      x y z
#    x 1.904240 0.000000 0.000000 
#    y 0.000000 1.904240 0.000000 
#    z 0.000000 0.000000 1.904240 
# 
# From -- ./inp_files/203.got.cif
#   From: 2010.03.12/outbox.cif.g09.slc.cpg/sg220_cif.got.tgz:203.got - 2010.03.30 09:07:51.
