data_PCOD8331130
_publ_section_title
;
Structure prediction by ZEFSAII (Michael W. Deem and Ramdas Pophale) SiO2 
 PCOD8331130
Probable space group: P N 3 N
;
_chemical_formula_sum "Si O2"
_cell_formula_units_Z 168
_cell_length_a 19.801507
_cell_length_b 19.801507
_cell_length_c 19.801507
_cell_angle_alpha 90.000000
_cell_angle_beta 90.000000
_cell_angle_gamma 90.000000
_cell_volume 7764.164548
_symmetry_space_group_name_H-M "P N 3 N"
_symmetry_group_IT_number 222
_space_group.IT_coordinate_system_code '2'
_symmetry_cell_setting 'cubic'
loop_
_space_group_symop_operation_xyz
x,y,z
1/2-y,x,z
1/2-x,1/2-y,z
y,1/2-x,z
x,1/2-z,y
x,1/2-y,1/2-z
x,z,1/2-y
z,y,1/2-x
1/2-x,y,1/2-z
1/2-z,y,x
z,x,y
y,z,x
1/2-y,1/2-z,x
z,1/2-x,1/2-y
1/2-y,z,1/2-x
1/2-z,1/2-x,y
1/2-z,x,1/2-y
y,1/2-z,1/2-x
y,x,1/2-z
1/2-y,1/2-x,1/2-z
1/2-x,z,y
1/2-x,1/2-z,1/2-y
z,1/2-y,x
1/2-z,1/2-y,1/2-x
-x,-y,-z
1/2+y,-x,-z
1/2+x,1/2+y,-z
-y,1/2+x,-z
-x,1/2+z,-y
-x,1/2+y,1/2+z
-x,-z,1/2+y
-z,-y,1/2+x
1/2+x,-y,1/2+z
1/2+z,-y,-x
-z,-x,-y
-y,-z,-x
1/2+y,1/2+z,-x
-z,1/2+x,1/2+y
1/2+y,-z,1/2+x
1/2+z,1/2+x,-y
1/2+z,-x,1/2+y
-y,1/2+z,1/2+x
-y,-x,1/2+z
1/2+y,1/2+x,1/2+z
1/2+x,-z,-y
1/2+x,1/2+z,1/2+y
-z,1/2+y,-x
1/2+z,1/2+y,1/2+x
loop_
_atom_site_type_symbol
_atom_site_label
_atom_site_fract_x
_atom_site_fract_y
_atom_site_fract_z
Si Si1 0.014216 0.250000 0.485785
Si Si2 0.517311 0.368431 0.581546
Si Si3 0.299111 0.600841 0.807114
Si Si4 0.727683 0.854686 0.054901
O O1 0.083883 0.288193 0.503089
O O2 0.013943 0.193265 0.542192
O O3 0.457986 0.421537 0.595985
O O4 0.541449 0.333901 0.650385
O O5 0.250000 0.569730 0.750000
O O6 0.250000 0.649550 0.850451
O O7 0.363811 0.636307 0.773079
O O8 0.670658 0.801589 0.035147
#
# Coordination Sequence:
#
# PCOD8331130 Si02
#       4
#    24  48  48  48
#     4  12  26  44  68 104 141 183 246 292 364 436
#     4  12  27  47  68  99 142 194 243 297 361 431
#     4  12  24  43  68 103 142 188 236 298 361 427
#     4  11  24  47  73 101 140 187 245 302 362 439
#
# _framework density 21.637872000000002
#
# number of rings (size 3 to 8) (size 9 to 14) (size 15 to 20)
#    0.000    0.286    7.143    2.000    0.000    0.286 
#    6.857    0.000    0.000    0.000    0.000    0.000 
#    0.000    2.286    0.000    0.000    0.000    0.000 
#
# Total GULP energy -2081911.358836 kJ/mol
# GULP energy per Si atom -12392.329517 kJ/mol
# Density = 2.158862 g / cm^3
# Si number density = 21.637872 Si / 1000 Ang^3
#
#
#
# Elastic Constant Matrix: (Units=GPa)
#
#
# Indices 1 2 3 4 5 6 
#
# 1 117.0603 -1.6318 -1.6318 0.0000 0.0000 0.0000
# 2 -1.6318 117.0603 -1.6318 0.0000 0.0000 0.0000
# 3 -1.6318 -1.6318 117.0603 0.0000 0.0000 0.0000
# 4 0.0000 0.0000 0.0000 36.8521 0.0000 0.0000
# 5 0.0000 0.0000 0.0000 0.0000 36.8521 0.0000
# 6 0.0000 0.0000 0.0000 0.0000 0.0000 36.8521
#
#
#
# Elastic Compliance Matrix: (Units=1/GPa)
#
#
# Indices 1 2 3 4 5 6 
#
# 1 0.008546 0.000121 0.000121 0.000000 0.000000 0.000000
# 2 0.000121 0.008546 0.000121 0.000000 0.000000 0.000000
# 3 0.000121 0.000121 0.008546 0.000000 0.000000 0.000000
# 4 0.000000 0.000000 0.000000 0.027136 0.000000 0.000000
# 5 0.000000 0.000000 0.000000 0.000000 0.027136 0.000000
# 6 0.000000 0.000000 0.000000 0.000000 0.000000 0.027136
#
#
# Mechanical properties :
#
#
# Convention : Reuss Voigt Hill
#
# Bulk Modulus (GPa) = 37.93224 37.93224 37.93224
# Shear Modulus (GPa) = 43.43778 45.84967 44.64372
#
# Velocity S-wave (km/s) = 4.48536 4.60820 4.54720
# Velocity P-wave (km/s) = 6.66282 6.77367 6.71847
#
# Compressibility (1/GPa) = 0.02636280
#
# Stress axis : x y z
#
# Youngs Moduli (GPa) = 117.01417 117.01417 117.01417
#
# Poissons Ratio (x) = -0.01414 -0.01414
# Poissons Ratio (y) = -0.01414 -0.01414
# Poissons Ratio (z) = -0.01414 -0.01414
#
# Static dielectric constant tensor:
#      x y z
#    x 3.182460 0.000000 0.000000 
#    y 0.000000 3.182460 0.000000 
#    z 0.000000 0.000000 3.182460 
# 
# 
# High freq. dielectric constant tensor:
#      x y z
#    x 1.852980 0.000000 0.000000 
#    y 0.000000 1.852980 0.000000 
#    z 0.000000 0.000000 1.852980 
# 
# From -- ./inp_files/302.got.cif
#   From: 2010.03.12/outbox.cif.g09.slc.cpg/sg222_cif.got.tgz:302.got - 2010.03.30 09:08:40.
