data_PCOD8331102
_publ_section_title
;
Structure prediction by ZEFSAII (Michael W. Deem and Ramdas Pophale) SiO2 
 PCOD8331102
Probable space group: P M 3 M
;
_chemical_formula_sum "Si O2"
_cell_formula_units_Z 132
_cell_length_a 20.671718
_cell_length_b 20.671718
_cell_length_c 20.671718
_cell_angle_alpha 90.000000
_cell_angle_beta 90.000000
_cell_angle_gamma 90.000000
_cell_volume 8833.436987
_symmetry_space_group_name_H-M "P M 3 M"
_symmetry_group_IT_number 221
_symmetry_cell_setting 'cubic'
loop_
_space_group_symop_operation_xyz
x,y,z
-y,x,z
-x,-y,z
y,-x,z
x,-z,y
x,-y,-z
x,z,-y
z,y,-x
-x,y,-z
-z,y,x
z,x,y
y,z,x
-y,-z,x
z,-x,-y
-y,z,-x
-z,-x,y
-z,x,-y
y,-z,-x
y,x,-z
-y,-x,-z
-x,z,y
-x,-z,-y
z,-y,x
-z,-y,-x
-x,-y,-z
y,-x,-z
x,y,-z
-y,x,-z
-x,z,-y
-x,y,z
-x,-z,y
-z,-y,x
x,-y,z
z,-y,-x
-z,-x,-y
-y,-z,-x
y,z,-x
-z,x,y
y,-z,x
z,x,-y
z,-x,y
-y,z,x
-y,-x,z
y,x,z
x,-z,-y
x,z,y
-z,y,-x
z,y,x
loop_
_atom_site_type_symbol
_atom_site_label
_atom_site_fract_x
_atom_site_fract_y
_atom_site_fract_z
Si Si1 0.829315 0.426052 0.829315
Si Si2 0.073665 0.629144 0.266251
Si Si3 0.256895 0.743106 0.500000
Si Si4 0.500000 0.651484 0.071344
Si Si5 0.500000 0.792229 0.399031
O O1 0.851484 0.500000 0.851484
O O2 0.799661 0.381569 0.886208
O O3 0.774349 0.435432 0.774349
O O4 0.099143 0.688726 0.311275
O O5 0.079476 0.562815 0.304974
O O6 0.000000 0.642985 0.246057
O O7 0.331871 0.756465 0.500000
O O8 0.500000 0.600962 0.129370
O O9 0.500000 0.617858 0.000000
O O10 0.436296 0.768947 0.436296
#
# Coordination Sequence:
#
# PCOD8331102 Si02
#       5
#    24  48  12  24  24
#     4  10  18  30  48  67  94 124 152 189 234 275
#     4  10  19  31  48  68  93 126 159 189 227 275
#     4  10  20  34  46  64  94 108 148 186 240 286
#     4  10  17  27  46  66  93 125 151 180 215 267
#     4  11  22  35  50  65  88 115 148 193 235 281
#
# _framework density 14.943222
#
# number of rings (size 3 to 8) (size 9 to 14) (size 15 to 20)
#    0.545    1.273    5.455    1.091    0.000    2.182 
#    2.182    0.909    0.000    0.545    0.000    1.273 
#    0.000    1.455    0.000    0.000    0.000    0.000 
#
# Total GULP energy -1635449.212387 kJ/mol
# GULP energy per Si atom -12389.766761 kJ/mol
# Density = 1.490921 g / cm^3
# Si number density = 14.943222 Si / 1000 Ang^3
#
#
#
# Elastic Constant Matrix: (Units=GPa)
#
#
# Indices 1 2 3 4 5 6 
#
# 1 71.9822 34.9267 34.9267 0.0000 0.0000 0.0000
# 2 34.9267 71.9822 34.9267 0.0000 0.0000 0.0000
# 3 34.9267 34.9267 71.9822 0.0000 0.0000 0.0000
# 4 0.0000 0.0000 0.0000 29.0056 0.0000 0.0000
# 5 0.0000 0.0000 0.0000 0.0000 29.0056 0.0000
# 6 0.0000 0.0000 0.0000 0.0000 0.0000 29.0056
#
#
#
# Elastic Compliance Matrix: (Units=1/GPa)
#
#
# Indices 1 2 3 4 5 6 
#
# 1 0.020341 -0.006645 -0.006645 0.000000 0.000000 0.000000
# 2 -0.006645 0.020341 -0.006645 0.000000 0.000000 0.000000
# 3 -0.006645 -0.006645 0.020341 0.000000 0.000000 0.000000
# 4 0.000000 0.000000 0.000000 0.034476 0.000000 0.000000
# 5 0.000000 0.000000 0.000000 0.000000 0.034476 0.000000
# 6 0.000000 0.000000 0.000000 0.000000 0.000000 0.034476
#
#
# Mechanical properties :
#
#
# Convention : Reuss Voigt Hill
#
# Bulk Modulus (GPa) = 47.27854 47.27854 47.27854
# Shear Modulus (GPa) = 23.65467 24.81443 24.23455
#
# Velocity S-wave (km/s) = 3.98297 4.07944 4.03150
# Velocity P-wave (km/s) = 7.27046 7.34143 7.30603
#
# Compressibility (1/GPa) = 0.02115124
#
# Stress axis : x y z
#
# Youngs Moduli (GPa) = 49.16132 49.16132 49.16132
#
# Poissons Ratio (x) = 0.32670 0.32670
# Poissons Ratio (y) = 0.32670 0.32670
# Poissons Ratio (z) = 0.32670 0.32670
#
# Static dielectric constant tensor:
#      x y z
#    x 2.812030 0.000000 0.000000 
#    y 0.000000 2.812030 0.000000 
#    z 0.000000 0.000000 2.812030 
# 
# 
# High freq. dielectric constant tensor:
#      x y z
#    x 1.553200 0.000000 0.000000 
#    y 0.000000 1.553200 0.000000 
#    z 0.000000 0.000000 1.553200 
# 
# From -- ./inp_files/287.got.cif
#   From: 2010.03.12/outbox.cif.g09.slc.cpg/sg221_cif.got.tgz:287.got - 2010.03.30 09:08:03.
