data_PCOD8331041
_publ_section_title
;
Structure prediction by ZEFSAII (Michael W. Deem and Ramdas Pophale) SiO2 
 PCOD8331041
Probable space group: P -4 3 M
;
_chemical_formula_sum "Si O2"
_cell_formula_units_Z 96
_cell_length_a 17.578147
_cell_length_b 17.578147
_cell_length_c 17.578147
_cell_angle_alpha 90.000000
_cell_angle_beta 90.000000
_cell_angle_gamma 90.000000
_cell_volume 5431.493649
_symmetry_space_group_name_H-M "P -4 3 M"
_symmetry_group_IT_number 215
_symmetry_cell_setting 'cubic'
loop_
_space_group_symop_operation_xyz
x,y,z
y,-x,-z
-x,-y,z
-y,x,-z
-x,z,-y
x,-y,-z
-x,-z,y
-z,-y,x
-x,y,-z
z,-y,-x
z,x,y
y,z,x
-y,-z,x
z,-x,-y
-y,z,-x
-z,-x,y
-z,x,-y
y,-z,-x
-y,-x,z
y,x,z
x,-z,-y
x,z,y
-z,y,-x
z,y,x
loop_
_atom_site_type_symbol
_atom_site_label
_atom_site_fract_x
_atom_site_fract_y
_atom_site_fract_z
Si Si1 0.662047 0.537253 0.919120
Si Si2 0.754725 0.498640 0.625626
Si Si3 0.219643 0.655199 0.095852
Si Si4 0.001302 0.878264 0.755380
O O1 0.602629 0.602629 0.905265
O O2 0.655598 0.486109 0.842307
O O3 0.745629 0.573802 0.925929
O O4 0.642347 0.500000 0.000000
O O5 0.733558 0.425933 0.574068
O O6 0.746767 0.575781 0.575781
O O7 0.697073 0.503182 0.697073
O O8 0.282677 0.717324 0.116652
O O9 0.170324 0.643658 0.170324
O O10 0.170807 0.682661 0.023609
O O11 0.932661 0.932661 0.781733
O O12 0.023413 0.826441 0.826441
O O13 0.074721 0.925280 0.729559
#
# Coordination Sequence:
#
# PCOD8331041 Si02
#       4
#    24  24  24  24
#     4  10  20  34  52  73  97 127 165 206 245 285
#     4  10  20  34  54  80 110 141 171 206 251 307
#     4   9  17  30  49  71  93 119 154 199 248 296
#     4   9  16  26  41  62  89 120 154 193 240 295
#
# _framework density 17.674697999999999
#
# number of rings (size 3 to 8) (size 9 to 14) (size 15 to 20)
#    0.000    2.500    0.000    2.750    0.000    3.250 
#    0.000    5.000    0.000    4.000    0.000    3.500 
#    0.000    0.000    0.000    0.000    0.000    0.000 
#
# Total GULP energy -1189704.108515 kJ/mol
# GULP energy per Si atom -12392.751130 kJ/mol
# Density = 1.763447 g / cm^3
# Si number density = 17.674698 Si / 1000 Ang^3
#
#
#
# Elastic Constant Matrix: (Units=GPa)
#
#
# Indices 1 2 3 4 5 6 
#
# 1 86.9076 32.4275 32.4275 0.0000 0.0000 0.0000
# 2 32.4275 86.9076 32.4275 0.0000 0.0000 0.0000
# 3 32.4275 32.4275 86.9076 0.0000 0.0000 0.0000
# 4 0.0000 0.0000 0.0000 18.3792 0.0000 0.0000
# 5 0.0000 0.0000 0.0000 0.0000 18.3792 0.0000
# 6 0.0000 0.0000 0.0000 0.0000 0.0000 18.3792
#
#
#
# Elastic Compliance Matrix: (Units=1/GPa)
#
#
# Indices 1 2 3 4 5 6 
#
# 1 0.014433 -0.003922 -0.003922 0.000000 0.000000 0.000000
# 2 -0.003922 0.014433 -0.003922 0.000000 0.000000 0.000000
# 3 -0.003922 -0.003922 0.014433 0.000000 0.000000 0.000000
# 4 0.000000 0.000000 0.000000 0.054409 0.000000 0.000000
# 5 0.000000 0.000000 0.000000 0.000000 0.054409 0.000000
# 6 0.000000 0.000000 0.000000 0.000000 0.000000 0.054409
#
#
# Mechanical properties :
#
#
# Convention : Reuss Voigt Hill
#
# Bulk Modulus (GPa) = 50.58756 50.58756 50.58756
# Shear Modulus (GPa) = 21.12833 21.92355 21.52594
#
# Velocity S-wave (km/s) = 3.46121 3.52574 3.49362
# Velocity P-wave (km/s) = 6.68258 6.72741 6.70503
#
# Compressibility (1/GPa) = 0.01976771
#
# Stress axis : x y z
#
# Youngs Moduli (GPa) = 69.28418 69.28418 69.28418
#
# Poissons Ratio (x) = 0.27174 0.27174
# Poissons Ratio (y) = 0.27174 0.27174
# Poissons Ratio (z) = 0.27174 0.27174
#
# Static dielectric constant tensor:
#      x y z
#    x 3.361380 0.000000 0.000000 
#    y 0.000000 3.361380 0.000000 
#    z 0.000000 0.000000 3.361380 
# 
# 
# High freq. dielectric constant tensor:
#      x y z
#    x 1.677320 0.000000 0.000000 
#    y 0.000000 1.677320 0.000000 
#    z 0.000000 0.000000 1.677320 
# 
# From -- ./inp_files/445.got.cif
#   From: 2010.03.12/outbox.cif.g09.slc.cpg/sg215_cif.got.tgz:445.got - 2010.03.30 09:06:09.
