data_PCOD8331068
_publ_section_title
;
Structure prediction by ZEFSAII (Michael W. Deem and Ramdas Pophale) SiO2 
 PCOD8331068
Probable space group: P -4 3 N
;
_chemical_formula_sum "Si O2"
_cell_formula_units_Z 120
_cell_length_a 18.473049
_cell_length_b 18.473049
_cell_length_c 18.473049
_cell_angle_alpha 90.000000
_cell_angle_beta 90.000000
_cell_angle_gamma 90.000000
_cell_volume 6303.993354
_symmetry_space_group_name_H-M "P -4 3 N"
_symmetry_group_IT_number 218
_symmetry_cell_setting 'cubic'
loop_
_space_group_symop_operation_xyz
x,y,z
1/2+y,1/2-x,1/2-z
-x,-y,z
1/2-y,1/2+x,1/2-z
1/2-x,1/2+z,1/2-y
x,-y,-z
1/2-x,1/2-z,1/2+y
1/2-z,1/2-y,1/2+x
-x,y,-z
1/2+z,1/2-y,1/2-x
z,x,y
y,z,x
-y,-z,x
z,-x,-y
-y,z,-x
-z,-x,y
-z,x,-y
y,-z,-x
1/2-y,1/2-x,1/2+z
1/2+y,1/2+x,1/2+z
1/2+x,1/2-z,1/2-y
1/2+x,1/2+z,1/2+y
1/2-z,1/2+y,1/2-x
1/2+z,1/2+y,1/2+x
loop_
_atom_site_type_symbol
_atom_site_label
_atom_site_fract_x
_atom_site_fract_y
_atom_site_fract_z
Si Si1 0.434179 0.739561 0.092065
Si Si2 0.396858 0.089137 0.666967
Si Si3 0.075326 0.326753 0.377004
Si Si4 0.934918 0.829838 0.948688
Si Si5 0.661326 0.977311 0.920193
O O1 0.518619 0.716750 0.086817
O O2 0.382128 0.672219 0.106243
O O3 0.428095 0.791125 0.161671
O O4 0.384738 0.109963 0.750657
O O5 0.461024 0.138999 0.636919
O O6 0.414489 0.003663 0.667472
O O7 0.121259 0.394227 0.405838
O O8 0.963655 0.857538 0.869695
O O9 0.919877 0.745482 0.957444
O O10 0.000000 0.855005 0.000000
O O11 0.635019 0.000000 0.000000
#
# Coordination Sequence:
#
# PCOD8331068 Si02
#       5
#    24  24  24  24  24
#     4   9  20  39  61  85 115 158 208 256 312 380
#     4  11  22  40  61  90 122 163 214 258 323 388
#     4  11  22  39  64  85 124 168 203 261 319 386
#     4   9  20  39  65  95 125 168 212 258 319 381
#     4  11  23  38  60  96 126 157 213 269 309 372
#
# _framework density 19.035554000000001
#
# number of rings (size 3 to 8) (size 9 to 14) (size 15 to 20)
#    0.400    1.400    2.000    2.200    0.000    4.800 
#    8.400    0.000    0.000    0.000    0.000    0.000 
#    0.000    0.000    0.000    0.000    0.000    0.000 
#
# Total GULP energy -1486913.811415 kJ/mol
# GULP energy per Si atom -12390.948428 kJ/mol
# Density = 1.899223 g / cm^3
# Si number density = 19.035554 Si / 1000 Ang^3
#
#
#
# Elastic Constant Matrix: (Units=GPa)
#
#
# Indices 1 2 3 4 5 6 
#
# 1 90.7313 30.7005 30.7005 0.0000 0.0000 0.0000
# 2 30.7005 90.7313 30.7005 0.0000 0.0000 0.0000
# 3 30.7005 30.7005 90.7313 0.0000 0.0000 0.0000
# 4 0.0000 0.0000 0.0000 28.2638 0.0000 0.0000
# 5 0.0000 0.0000 0.0000 0.0000 28.2638 0.0000
# 6 0.0000 0.0000 0.0000 0.0000 0.0000 28.2638
#
#
#
# Elastic Compliance Matrix: (Units=1/GPa)
#
#
# Indices 1 2 3 4 5 6 
#
# 1 0.013296 -0.003362 -0.003362 0.000000 0.000000 0.000000
# 2 -0.003362 0.013296 -0.003362 0.000000 0.000000 0.000000
# 3 -0.003362 -0.003362 0.013296 0.000000 0.000000 0.000000
# 4 0.000000 0.000000 0.000000 0.035381 0.000000 0.000000
# 5 0.000000 0.000000 0.000000 0.000000 0.035381 0.000000
# 6 0.000000 0.000000 0.000000 0.000000 0.000000 0.035381
#
#
# Mechanical properties :
#
#
# Convention : Reuss Voigt Hill
#
# Bulk Modulus (GPa) = 50.71077 50.71077 50.71077
# Shear Modulus (GPa) = 28.93929 28.96441 28.95185
#
# Velocity S-wave (km/s) = 3.90330 3.90499 3.90415
# Velocity P-wave (km/s) = 6.85654 6.85783 6.85719
#
# Compressibility (1/GPa) = 0.01971968
#
# Stress axis : x y z
#
# Youngs Moduli (GPa) = 75.20779 75.20779 75.20779
#
# Poissons Ratio (x) = 0.25282 0.25282
# Poissons Ratio (y) = 0.25282 0.25282
# Poissons Ratio (z) = 0.25282 0.25282
#
# Static dielectric constant tensor:
#      x y z
#    x 3.448310 0.000000 0.000000 
#    y 0.000000 3.448310 0.000000 
#    z 0.000000 0.000000 3.448310 
# 
# 
# High freq. dielectric constant tensor:
#      x y z
#    x 1.739350 0.000000 0.000000 
#    y 0.000000 1.739350 0.000000 
#    z 0.000000 0.000000 1.739350 
# 
# From -- ./inp_files/660.got.cif
#   From: 2010.03.12/outbox.cif.g09.slc.cpg/sg218_cif.got.tgz:660.got - 2010.03.30 09:07:27.
