data_PCOD8331149
_publ_section_title
;
Structure prediction by ZEFSAII (Michael W. Deem and Ramdas Pophale) SiO2 
 PCOD8331149
Probable space group: F D 3 M
;
_chemical_formula_sum "Si O2"
_cell_formula_units_Z 512
_cell_length_a 28.292240
_cell_length_b 28.292240
_cell_length_c 28.292240
_cell_angle_alpha 90.000000
_cell_angle_beta 90.000000
_cell_angle_gamma 90.000000
_cell_volume 22646.547393
_symmetry_space_group_name_H-M "F D 3 M"
_symmetry_group_IT_number 227
_space_group.IT_coordinate_system_code '2'
_symmetry_cell_setting 'cubic'
loop_
_space_group_symop_operation_xyz
x,y,z
-y,1/4+x,1/4+z
1/4-x,1/4-y,z
1/4+y,-x,1/4+z
1/4+x,-z,1/4+y
x,1/4-y,1/4-z
1/4+x,1/4+z,-y
1/4+z,1/4+y,-x
1/4-x,y,1/4-z
-z,1/4+y,1/4+x
z,x,y
y,z,x
1/4-y,1/4-z,x
z,1/4-x,1/4-y
1/4-y,z,1/4-x
1/4-z,1/4-x,y
1/4-z,x,1/4-y
y,1/4-z,1/4-x
1/4+y,1/4+x,-z
-y,-x,-z
-x,1/4+z,1/4+y
-x,-z,-y
1/4+z,-y,1/4+x
-z,-y,-x
-x,-y,-z
y,3/4-x,3/4-z
3/4+x,3/4+y,-z
3/4-y,x,3/4-z
3/4-x,z,3/4-y
-x,3/4+y,3/4+z
3/4-x,3/4-z,y
3/4-z,3/4-y,x
3/4+x,-y,3/4+z
z,3/4-y,3/4-x
-z,-x,-y
-y,-z,-x
3/4+y,3/4+z,-x
-z,3/4+x,3/4+y
3/4+y,-z,3/4+x
3/4+z,3/4+x,-y
3/4+z,-x,3/4+y
-y,3/4+z,3/4+x
3/4-y,3/4-x,z
y,x,z
x,3/4-z,3/4-y
x,z,y
3/4-z,y,3/4-x
z,y,x
x,1/2+y,1/2+z
-y,3/4+x,3/4+z
1/4-x,3/4-y,1/2+z
1/4+y,1/2-x,3/4+z
1/4+x,1/2-z,3/4+y
x,3/4-y,3/4-z
1/4+x,3/4+z,1/2-y
1/4+z,3/4+y,1/2-x
1/4-x,1/2+y,3/4-z
-z,3/4+y,3/4+x
z,1/2+x,1/2+y
y,1/2+z,1/2+x
1/4-y,3/4-z,1/2+x
z,3/4-x,3/4-y
1/4-y,1/2+z,3/4-x
1/4-z,3/4-x,1/2+y
1/4-z,1/2+x,3/4-y
y,3/4-z,3/4-x
1/4+y,3/4+x,1/2-z
-y,1/2-x,1/2-z
-x,3/4+z,3/4+y
-x,1/2-z,1/2-y
1/4+z,1/2-y,3/4+x
-z,1/2-y,1/2-x
-x,1/2-y,1/2-z
y,1/4-x,1/4-z
3/4+x,1/4+y,1/2-z
3/4-y,1/2+x,1/4-z
3/4-x,1/2+z,1/4-y
-x,1/4+y,1/4+z
3/4-x,1/4-z,1/2+y
3/4-z,1/4-y,1/2+x
3/4+x,1/2-y,1/4+z
z,1/4-y,1/4-x
-z,1/2-x,1/2-y
-y,1/2-z,1/2-x
3/4+y,1/4+z,1/2-x
-z,1/4+x,1/4+y
3/4+y,1/2-z,1/4+x
3/4+z,1/4+x,1/2-y
3/4+z,1/2-x,1/4+y
-y,1/4+z,1/4+x
3/4-y,1/4-x,1/2+z
y,1/2+x,1/2+z
x,1/4-z,1/4-y
x,1/2+z,1/2+y
3/4-z,1/2+y,1/4-x
z,1/2+y,1/2+x
1/2+x,y,1/2+z
1/2-y,1/4+x,3/4+z
3/4-x,1/4-y,1/2+z
3/4+y,-x,3/4+z
3/4+x,-z,3/4+y
1/2+x,1/4-y,3/4-z
3/4+x,1/4+z,1/2-y
3/4+z,1/4+y,1/2-x
3/4-x,y,3/4-z
1/2-z,1/4+y,3/4+x
1/2+z,x,1/2+y
1/2+y,z,1/2+x
3/4-y,1/4-z,1/2+x
1/2+z,1/4-x,3/4-y
3/4-y,z,3/4-x
3/4-z,1/4-x,1/2+y
3/4-z,x,3/4-y
1/2+y,1/4-z,3/4-x
3/4+y,1/4+x,1/2-z
1/2-y,-x,1/2-z
1/2-x,1/4+z,3/4+y
1/2-x,-z,1/2-y
3/4+z,-y,3/4+x
1/2-z,-y,1/2-x
1/2-x,-y,1/2-z
1/2+y,3/4-x,1/4-z
1/4+x,3/4+y,1/2-z
1/4-y,x,1/4-z
1/4-x,z,1/4-y
1/2-x,3/4+y,1/4+z
1/4-x,3/4-z,1/2+y
1/4-z,3/4-y,1/2+x
1/4+x,-y,1/4+z
1/2+z,3/4-y,1/4-x
1/2-z,-x,1/2-y
1/2-y,-z,1/2-x
1/4+y,3/4+z,1/2-x
1/2-z,3/4+x,1/4+y
1/4+y,-z,1/4+x
1/4+z,3/4+x,1/2-y
1/4+z,-x,1/4+y
1/2-y,3/4+z,1/4+x
1/4-y,3/4-x,1/2+z
1/2+y,x,1/2+z
1/2+x,3/4-z,1/4-y
1/2+x,z,1/2+y
1/4-z,y,1/4-x
1/2+z,y,1/2+x
1/2+x,1/2+y,z
1/2-y,3/4+x,1/4+z
3/4-x,3/4-y,z
3/4+y,1/2-x,1/4+z
3/4+x,1/2-z,1/4+y
1/2+x,3/4-y,1/4-z
3/4+x,3/4+z,-y
3/4+z,3/4+y,-x
3/4-x,1/2+y,1/4-z
1/2-z,3/4+y,1/4+x
1/2+z,1/2+x,y
1/2+y,1/2+z,x
3/4-y,3/4-z,x
1/2+z,3/4-x,1/4-y
3/4-y,1/2+z,1/4-x
3/4-z,3/4-x,y
3/4-z,1/2+x,1/4-y
1/2+y,3/4-z,1/4-x
3/4+y,3/4+x,-z
1/2-y,1/2-x,-z
1/2-x,3/4+z,1/4+y
1/2-x,1/2-z,-y
3/4+z,1/2-y,1/4+x
1/2-z,1/2-y,-x
1/2-x,1/2-y,-z
1/2+y,1/4-x,3/4-z
1/4+x,1/4+y,-z
1/4-y,1/2+x,3/4-z
1/4-x,1/2+z,3/4-y
1/2-x,1/4+y,3/4+z
1/4-x,1/4-z,y
1/4-z,1/4-y,x
1/4+x,1/2-y,3/4+z
1/2+z,1/4-y,3/4-x
1/2-z,1/2-x,-y
1/2-y,1/2-z,-x
1/4+y,1/4+z,-x
1/2-z,1/4+x,3/4+y
1/4+y,1/2-z,3/4+x
1/4+z,1/4+x,-y
1/4+z,1/2-x,3/4+y
1/2-y,1/4+z,3/4+x
1/4-y,1/4-x,z
1/2+y,1/2+x,z
1/2+x,1/4-z,3/4-y
1/2+x,1/2+z,y
1/4-z,1/2+y,3/4-x
1/2+z,1/2+y,x
loop_
_atom_site_type_symbol
_atom_site_label
_atom_site_fract_x
_atom_site_fract_y
_atom_site_fract_z
Si Si1 0.796264 0.586234 0.663767
Si Si2 0.604148 0.531159 0.958207
Si Si3 0.562896 0.762542 0.908483
Si Si4 0.532676 0.717325 0.717325
O O1 0.782021 0.625000 0.625000
O O2 0.825990 0.611299 0.706497
O O3 0.748084 0.565959 0.684042
O O4 0.585617 0.585617 0.961998
O O5 0.561928 0.500000 0.938073
O O6 0.647824 0.526635 0.921846
O O7 0.617104 0.510364 0.010364
O O8 0.557271 0.797460 0.952541
O O9 0.513554 0.736447 0.898767
O O10 0.500000 0.750000 0.750000
#
# Coordination Sequence:
#
# PCOD8331149 Si02
#       4
#    96 192 192  32
#     4  10  22  42  62  88 126 166 222 272 328 388
#     4   9  18  34  56  83 114 150 193 241 301 367
#     4  10  20  36  58  84 121 163 207 259 317 375
#     4  12  24  42  66  96 126 174 222 276 354 414
#
# _framework density 22.608302999999999
#
# number of rings (size 3 to 8) (size 9 to 14) (size 15 to 20)
#    0.000    2.250    1.875    0.750    0.000    3.750 
#    4.500    0.000    0.000    0.000    0.000    0.000 
#    1.875    0.000    0.000   23.250    0.000    0.000 
#
# Total GULP energy -1585715.877359 kJ/mol
# GULP energy per Si atom -12388.405292 kJ/mol
# Density = 2.255685 g / cm^3
# Si number density = 22.608303 Si / 1000 Ang^3
#
#
#
# Elastic Constant Matrix: (Units=GPa)
#
#
# Indices 1 2 3 4 5 6 
#
# 1 105.2870 57.6761 57.6763 0.0000 0.0000 0.0000
# 2 57.6761 105.2870 57.6763 0.0000 0.0000 0.0000
# 3 57.6763 57.6763 105.2872 0.0000 0.0000 0.0000
# 4 0.0000 0.0000 0.0000 31.4493 0.0000 0.0000
# 5 0.0000 0.0000 0.0000 0.0000 31.4493 0.0000
# 6 0.0000 0.0000 0.0000 0.0000 0.0000 31.4493
#
#
#
# Elastic Compliance Matrix: (Units=1/GPa)
#
#
# Indices 1 2 3 4 5 6 
#
# 1 0.015513 -0.005490 -0.005490 0.000000 0.000000 0.000000
# 2 -0.005490 0.015513 -0.005490 0.000000 0.000000 0.000000
# 3 -0.005490 -0.005490 0.015513 0.000000 0.000000 0.000000
# 4 0.000000 0.000000 0.000000 0.031797 0.000000 0.000000
# 5 0.000000 0.000000 0.000000 0.000000 0.031797 0.000000
# 6 0.000000 0.000000 0.000000 0.000000 0.000000 0.031797
#
#
# Mechanical properties :
#
#
# Convention : Reuss Voigt Hill
#
# Bulk Modulus (GPa) = 73.54650 73.54650 73.54650
# Shear Modulus (GPa) = 27.86974 28.39175 28.13074
#
# Velocity S-wave (km/s) = 3.51482 3.54759 3.53124
# Velocity P-wave (km/s) = 7.00524 7.02722 7.01624
#
# Compressibility (1/GPa) = 0.01359684
#
# Stress axis : x y z
#
# Youngs Moduli (GPa) = 64.46139 64.46139 64.46134
#
# Poissons Ratio (x) = 0.35392 0.35392
# Poissons Ratio (y) = 0.35392 0.35392
# Poissons Ratio (z) = 0.35392 0.35392
#
# Static dielectric constant tensor:
#      x y z
#    x 4.121620 0.000000 0.000000 
#    y 0.000000 4.121620 0.000000 
#    z 0.000000 0.000000 4.121610 
# 
# 
# High freq. dielectric constant tensor:
#      x y z
#    x 1.883200 0.000000 0.000000 
#    y 0.000000 1.883200 0.000000 
#    z 0.000000 0.000000 1.883200 
# 
# From -- ./inp_files/1153.got.cif
#   From: 2010.03.12/outbox.cif.g09.slc.cpg/sg227_cif.got.tgz:1153.got - 2010.03.30 09:10:07.
