data_PCOD8331172
_publ_section_title
;
Structure prediction by ZEFSAII (Michael W. Deem and Ramdas Pophale) SiO2 
 PCOD8331172
Probable space group: I A 3 D 
;
_chemical_formula_sum "Si O2"
_cell_formula_units_Z 312
_cell_length_a 23.913918
_cell_length_b 23.913918
_cell_length_c 23.913918
_cell_angle_alpha 90.000000
_cell_angle_beta 90.000000
_cell_angle_gamma 90.000000
_cell_volume 13675.783194
_symmetry_space_group_name_H-M "I A 3 D "
_symmetry_group_IT_number 230
_symmetry_cell_setting 'cubic'
loop_
_space_group_symop_operation_xyz
x,y,z
1/4-y,3/4+x,1/4+z
-x,1/2-y,z
1/4+y,1/4-x,3/4+z
1/4+x,1/4-z,3/4+y
x,-y,1/2-z
3/4+x,1/4+z,1/4-y
3/4+z,1/4+y,1/4-x
1/2-x,y,-z
1/4-z,3/4+y,1/4+x
z,x,y
y,z,x
-y,1/2-z,x
z,-x,1/2-y
1/2-y,z,-x
-z,1/2-x,y
1/2-z,x,-y
y,-z,1/2-x
3/4+y,1/4+x,1/4-z
1/4-y,1/4-x,1/4-z
1/4-x,3/4+z,1/4+y
1/4-x,1/4-z,1/4-y
1/4+z,1/4-y,3/4+x
1/4-z,1/4-y,1/4-x
-x,-y,-z
3/4+y,1/4-x,3/4-z
x,1/2+y,-z
3/4-y,3/4+x,1/4-z
3/4-x,3/4+z,1/4-y
-x,y,1/2+z
1/4-x,3/4-z,3/4+y
1/4-z,3/4-y,3/4+x
1/2+x,-y,z
3/4+z,1/4-y,3/4-x
-z,-x,-y
-y,-z,-x
y,1/2+z,-x
-z,x,1/2+y
1/2+y,-z,x
z,1/2+x,-y
1/2+z,-x,y
-y,z,1/2+x
1/4-y,3/4-x,3/4+z
3/4+y,3/4+x,3/4+z
3/4+x,1/4-z,3/4-y
3/4+x,3/4+z,3/4+y
3/4-z,3/4+y,1/4-x
3/4+z,3/4+y,3/4+x
1/2+x,1/2+y,1/2+z
3/4-y,1/4+x,3/4+z
1/2-x,-y,1/2+z
3/4+y,3/4-x,1/4+z
3/4+x,3/4-z,1/4+y
1/2+x,1/2-y,-z
1/4+x,3/4+z,3/4-y
1/4+z,3/4+y,3/4-x
-x,1/2+y,1/2-z
3/4-z,1/4+y,3/4+x
1/2+z,1/2+x,1/2+y
1/2+y,1/2+z,1/2+x
1/2-y,-z,1/2+x
1/2+z,1/2-x,-y
-y,1/2+z,1/2-x
1/2-z,-x,1/2+y
-z,1/2+x,1/2-y
1/2+y,1/2-z,-x
1/4+y,3/4+x,3/4-z
3/4-y,3/4-x,3/4-z
3/4-x,1/4+z,3/4+y
3/4-x,3/4-z,3/4-y
3/4+z,3/4-y,1/4+x
3/4-z,3/4-y,3/4-x
1/2-x,1/2-y,1/2-z
1/4+y,3/4-x,1/4-z
1/2+x,y,1/2-z
1/4-y,1/4+x,3/4-z
1/4-x,1/4+z,3/4-y
1/2-x,1/2+y,z
3/4-x,1/4-z,1/4+y
3/4-z,1/4-y,1/4+x
x,1/2-y,1/2+z
1/4+z,3/4-y,1/4-x
1/2-z,1/2-x,1/2-y
1/2-y,1/2-z,1/2-x
1/2+y,z,1/2-x
1/2-z,1/2+x,y
y,1/2-z,1/2+x
1/2+z,x,1/2-y
z,1/2-x,1/2+y
1/2-y,1/2+z,x
3/4-y,1/4-x,1/4+z
1/4+y,1/4+x,1/4+z
1/4+x,3/4-z,1/4-y
1/4+x,1/4+z,1/4+y
1/4-z,1/4+y,3/4-x
1/4+z,1/4+y,1/4+x
loop_
_atom_site_type_symbol
_atom_site_label
_atom_site_fract_x
_atom_site_fract_y
_atom_site_fract_z
Si Si1 0.750000 0.625000 0.500000
Si Si2 0.419800 0.113973 0.259236
Si Si3 0.393457 0.209281 0.701820
Si Si4 0.062315 0.528544 0.645126
O O1 0.692489 0.591395 0.507932
O O2 0.451830 0.125000 0.201830
O O3 0.354244 0.113670 0.245245
O O4 0.446398 0.061076 0.291806
O O5 0.427208 0.163228 0.303560
O O6 0.381221 0.250689 0.752880
O O7 0.349020 0.159893 0.710761
#
# Coordination Sequence:
#
# PCOD8331172 Si02
#       4
#    24  96  96  96
#     4  12  24  44  72  94 144 188 236 304 358 448
#     4  12  25  46  71 106 146 193 251 309 379 455
#     4  12  26  45  74 107 147 198 251 315 384 453
#     4  12  25  45  70 105 143 192 247 309 376 456
#
# _framework density 22.814049000000001
#
# number of rings (size 3 to 8) (size 9 to 14) (size 15 to 20)
#    0.000    0.000    3.077    8.000    0.000    3.077 
#    0.000    3.077    0.000    0.000    0.000    0.000 
#    0.000    0.000    0.000    0.000    0.000    0.000 
#
# Total GULP energy -1933485.699946 kJ/mol
# GULP energy per Si atom -12394.139102 kJ/mol
# Density = 2.276212 g / cm^3
# Si number density = 22.814049 Si / 1000 Ang^3
#
#
#
# Elastic Constant Matrix: (Units=GPa)
#
#
# Indices 1 2 3 4 5 6 
#
# 1 96.8094 34.1015 34.1015 0.0000 0.0000 0.0000
# 2 34.1015 96.8093 34.1015 0.0000 0.0000 0.0000
# 3 34.1015 34.1015 96.8093 0.0000 0.0000 0.0000
# 4 0.0000 0.0000 0.0000 39.0044 0.0000 0.0000
# 5 0.0000 0.0000 0.0000 0.0000 39.0044 0.0000
# 6 0.0000 0.0000 0.0000 0.0000 0.0000 39.0044
#
#
#
# Elastic Compliance Matrix: (Units=1/GPa)
#
#
# Indices 1 2 3 4 5 6 
#
# 1 0.012651 -0.003296 -0.003296 0.000000 0.000000 0.000000
# 2 -0.003296 0.012651 -0.003296 0.000000 0.000000 0.000000
# 3 -0.003296 -0.003296 0.012651 0.000000 0.000000 0.000000
# 4 0.000000 0.000000 0.000000 0.025638 0.000000 0.000000
# 5 0.000000 0.000000 0.000000 0.000000 0.025638 0.000000
# 6 0.000000 0.000000 0.000000 0.000000 0.000000 0.025638
#
#
# Mechanical properties :
#
#
# Convention : Reuss Voigt Hill
#
# Bulk Modulus (GPa) = 55.00412 55.00412 55.00412
# Shear Modulus (GPa) = 35.53604 35.94422 35.74013
#
# Velocity S-wave (km/s) = 3.95097 3.97360 3.96230
# Velocity P-wave (km/s) = 6.70639 6.72419 6.71530
#
# Compressibility (1/GPa) = 0.01818046
#
# Stress axis : x y z
#
# Youngs Moduli (GPa) = 79.04287 79.04287 79.04287
#
# Poissons Ratio (x) = 0.26049 0.26049
# Poissons Ratio (y) = 0.26049 0.26049
# Poissons Ratio (z) = 0.26049 0.26049
#
# Static dielectric constant tensor:
#      x y z
#    x 4.216300 0.000000 0.000000 
#    y 0.000000 4.216300 0.000000 
#    z 0.000000 0.000000 4.216300 
# 
# 
# High freq. dielectric constant tensor:
#      x y z
#    x 1.913600 0.000000 0.000000 
#    y 0.000000 1.913600 0.000000 
#    z 0.000000 0.000000 1.913600 
# 
# From -- ./inp_files/614.got.cif
#   From: 2010.03.12/outbox.cif.g09.slc.cpg/sg230_cif.got.tgz:614.got - 2010.03.30 09:10:43.
