data_PCOD8331076
_publ_section_title
;
Structure prediction by ZEFSAII (Michael W. Deem and Ramdas Pophale) SiO2 
 PCOD8331076
Probable space group: F -4 3 C
;
_chemical_formula_sum "Si O2"
_cell_formula_units_Z 424
_cell_length_a 29.149417
_cell_length_b 29.149417
_cell_length_c 29.149417
_cell_angle_alpha 90.000000
_cell_angle_beta 90.000000
_cell_angle_gamma 90.000000
_cell_volume 24767.924740
_symmetry_space_group_name_H-M "F -4 3 C"
_symmetry_group_IT_number 219
_symmetry_cell_setting 'cubic'
loop_
_space_group_symop_operation_xyz
x,y,z
y,-x,1/2-z
-x,-y,z
-y,x,1/2-z
-x,z,1/2-y
x,-y,-z
-x,-z,1/2+y
-z,-y,1/2+x
-x,y,-z
z,-y,1/2-x
z,x,y
y,z,x
-y,-z,x
z,-x,-y
-y,z,-x
-z,-x,y
-z,x,-y
y,-z,-x
-y,-x,1/2+z
y,x,1/2+z
x,-z,1/2-y
x,z,1/2+y
-z,y,1/2-x
z,y,1/2+x
x,1/2+y,1/2+z
y,1/2-x,-z
-x,1/2-y,1/2+z
-y,1/2+x,-z
-x,1/2+z,-y
x,1/2-y,1/2-z
-x,1/2-z,y
-z,1/2-y,x
-x,1/2+y,1/2-z
z,1/2-y,-x
z,1/2+x,1/2+y
y,1/2+z,1/2+x
-y,1/2-z,1/2+x
z,1/2-x,1/2-y
-y,1/2+z,1/2-x
-z,1/2-x,1/2+y
-z,1/2+x,1/2-y
y,1/2-z,1/2-x
-y,1/2-x,z
y,1/2+x,z
x,1/2-z,-y
x,1/2+z,y
-z,1/2+y,-x
z,1/2+y,x
1/2+x,y,1/2+z
1/2+y,-x,-z
1/2-x,-y,1/2+z
1/2-y,x,-z
1/2-x,z,-y
1/2+x,-y,1/2-z
1/2-x,-z,y
1/2-z,-y,x
1/2-x,y,1/2-z
1/2+z,-y,-x
1/2+z,x,1/2+y
1/2+y,z,1/2+x
1/2-y,-z,1/2+x
1/2+z,-x,1/2-y
1/2-y,z,1/2-x
1/2-z,-x,1/2+y
1/2-z,x,1/2-y
1/2+y,-z,1/2-x
1/2-y,-x,z
1/2+y,x,z
1/2+x,-z,-y
1/2+x,z,y
1/2-z,y,-x
1/2+z,y,x
1/2+x,1/2+y,z
1/2+y,1/2-x,1/2-z
1/2-x,1/2-y,z
1/2-y,1/2+x,1/2-z
1/2-x,1/2+z,1/2-y
1/2+x,1/2-y,-z
1/2-x,1/2-z,1/2+y
1/2-z,1/2-y,1/2+x
1/2-x,1/2+y,-z
1/2+z,1/2-y,1/2-x
1/2+z,1/2+x,y
1/2+y,1/2+z,x
1/2-y,1/2-z,x
1/2+z,1/2-x,-y
1/2-y,1/2+z,-x
1/2-z,1/2-x,y
1/2-z,1/2+x,-y
1/2+y,1/2-z,-x
1/2-y,1/2-x,1/2+z
1/2+y,1/2+x,1/2+z
1/2+x,1/2-z,1/2-y
1/2+x,1/2+z,1/2+y
1/2-z,1/2+y,1/2-x
1/2+z,1/2+y,1/2+x
loop_
_atom_site_type_symbol
_atom_site_label
_atom_site_fract_x
_atom_site_fract_y
_atom_site_fract_z
Si Si1 0.965459 0.891116 0.684479
Si Si2 0.500000 0.000000 0.500000
Si Si3 0.321374 0.500677 0.749531
Si Si4 0.063435 0.436567 0.563435
Si Si5 0.317403 0.966990 0.609495
Si Si6 0.162394 0.538146 0.463751
O O1 0.961959 0.853424 0.725088
O O2 0.968854 0.866463 0.634997
O O3 0.919849 0.921051 0.685375
O O4 0.010865 0.922902 0.693119
O O5 0.531707 0.031706 0.468295
O O6 0.289132 0.475970 0.788193
O O7 0.353908 0.464087 0.724058
O O8 0.116015 0.438178 0.550517
O O9 0.311625 0.013390 0.578680
O O10 0.148106 0.500000 0.500000
#
# Coordination Sequence:
#
# PCOD8331076 Si02
#       6
#    96   8  96  32  96  96
#     4  10  20  33  51  74 101 134 170 213 255 298
#     4  12  24  24  48  60 108 186 204 228 228 268
#     4   9  20  38  55  70  90 122 165 210 268 331
#     4  12  18  30  42  66 102 156 204 213 243 268
#     4  10  20  33  51  74 101 134 170 213 255 298
#     4  10  20  30  44  69 106 145 185 218 240 281
#
# _framework density 17.118914
#
# number of rings (size 3 to 8) (size 9 to 14) (size 15 to 20)
#    0.000    2.038    3.396    0.453    3.170    0.000 
#    0.000    0.000    0.000    0.906    0.000    0.000 
#    0.000    0.000    0.000    0.000    0.000    0.000 
#
# Total GULP energy -1313301.500239 kJ/mol
# GULP energy per Si atom -12389.636795 kJ/mol
# Density = 1.707995 g / cm^3
# Si number density = 17.118914 Si / 1000 Ang^3
#
#
#
# Elastic Constant Matrix: (Units=GPa)
#
#
# Indices 1 2 3 4 5 6 
#
# 1 95.8178 47.4941 47.4941 0.0000 0.0000 0.0000
# 2 47.4941 95.8178 47.4941 0.0000 0.0000 0.0000
# 3 47.4941 47.4941 95.8184 0.0000 0.0000 0.0000
# 4 0.0000 0.0000 0.0000 22.1243 0.0000 0.0000
# 5 0.0000 0.0000 0.0000 0.0000 22.1243 0.0000
# 6 0.0000 0.0000 0.0000 0.0000 0.0000 22.1245
#
#
#
# Elastic Compliance Matrix: (Units=1/GPa)
#
#
# Indices 1 2 3 4 5 6 
#
# 1 0.015543 -0.005151 -0.005151 0.000000 0.000000 0.000000
# 2 -0.005151 0.015543 -0.005151 0.000000 0.000000 0.000000
# 3 -0.005151 -0.005151 0.015543 0.000000 0.000000 0.000000
# 4 0.000000 0.000000 0.000000 0.045199 0.000000 0.000000
# 5 0.000000 0.000000 0.000000 0.000000 0.045199 0.000000
# 6 0.000000 0.000000 0.000000 0.000000 0.000000 0.045199
#
#
# Mechanical properties :
#
#
# Convention : Reuss Voigt Hill
#
# Bulk Modulus (GPa) = 63.60209 63.60209 63.60209
# Shear Modulus (GPa) = 22.89672 22.93940 22.91806
#
# Velocity S-wave (km/s) = 3.66117 3.66458 3.66287
# Velocity P-wave (km/s) = 7.42334 7.42558 7.42446
#
# Compressibility (1/GPa) = 0.01572275
#
# Stress axis : x y z
#
# Youngs Moduli (GPa) = 64.33843 64.33843 64.33888
#
# Poissons Ratio (x) = 0.33140 0.33140
# Poissons Ratio (y) = 0.33140 0.33140
# Poissons Ratio (z) = 0.33140 0.33140
#
# Static dielectric constant tensor:
#      x y z
#    x 3.275760 0.000000 0.000000 
#    y 0.000000 3.275760 0.000000 
#    z 0.000000 0.000000 3.275770 
# 
# 
# High freq. dielectric constant tensor:
#      x y z
#    x 1.654890 0.000000 0.000000 
#    y 0.000000 1.654890 0.000000 
#    z 0.000000 0.000000 1.654890 
# 
# From -- ./inp_files/547.got.cif
#   From: 2010.03.12/outbox.cif.g09.slc.cpg/sg219_cif.got.tgz:547.got - 2010.03.30 09:07:44.
