data_PCOD8331094
_publ_section_title
;
Structure prediction by ZEFSAII (Michael W. Deem and Ramdas Pophale) SiO2 
 PCOD8331094
Probable space group: I -4 3 D
;
_chemical_formula_sum "Si O2"
_cell_formula_units_Z 120
_cell_length_a 18.451225
_cell_length_b 18.451225
_cell_length_c 18.451225
_cell_angle_alpha 90.000000
_cell_angle_beta 90.000000
_cell_angle_gamma 90.000000
_cell_volume 6281.677187
_symmetry_space_group_name_H-M "I -4 3 D"
_symmetry_group_IT_number 220
_symmetry_cell_setting 'cubic'
loop_
_space_group_symop_operation_xyz
x,y,z
1/4+y,3/4-x,1/4-z
-x,1/2-y,z
1/4-y,1/4+x,3/4-z
1/4-x,1/4+z,3/4-y
x,-y,1/2-z
3/4-x,1/4-z,1/4+y
3/4-z,1/4-y,1/4+x
1/2-x,y,-z
1/4+z,3/4-y,1/4-x
z,x,y
y,z,x
-y,1/2-z,x
z,-x,1/2-y
1/2-y,z,-x
-z,1/2-x,y
1/2-z,x,-y
y,-z,1/2-x
3/4-y,1/4-x,1/4+z
1/4+y,1/4+x,1/4+z
1/4+x,3/4-z,1/4-y
1/4+x,1/4+z,1/4+y
1/4-z,1/4+y,3/4-x
1/4+z,1/4+y,1/4+x
1/2+x,1/2+y,1/2+z
3/4+y,1/4-x,3/4-z
1/2-x,-y,1/2+z
3/4-y,3/4+x,1/4-z
3/4-x,3/4+z,1/4-y
1/2+x,1/2-y,-z
1/4-x,3/4-z,3/4+y
1/4-z,3/4-y,3/4+x
-x,1/2+y,1/2-z
3/4+z,1/4-y,3/4-x
1/2+z,1/2+x,1/2+y
1/2+y,1/2+z,1/2+x
1/2-y,-z,1/2+x
1/2+z,1/2-x,-y
-y,1/2+z,1/2-x
1/2-z,-x,1/2+y
-z,1/2+x,1/2-y
1/2+y,1/2-z,-x
1/4-y,3/4-x,3/4+z
3/4+y,3/4+x,3/4+z
3/4+x,1/4-z,3/4-y
3/4+x,3/4+z,3/4+y
3/4-z,3/4+y,1/4-x
3/4+z,3/4+y,3/4+x
loop_
_atom_site_type_symbol
_atom_site_label
_atom_site_fract_x
_atom_site_fract_y
_atom_site_fract_z
Si Si1 0.458951 0.500000 0.250000
Si Si2 0.496778 0.385676 0.895720
Si Si3 0.336510 0.907354 0.210831
O O1 0.410984 0.571457 0.248410
O O2 0.507171 0.506287 0.323544
O O3 0.533286 0.457675 0.861021
O O4 0.416457 0.409877 0.917060
O O5 0.393399 0.905593 0.277347
#
# Coordination Sequence:
#
# PCOD8331094 Si02
#       3
#    24  48  48
#     4  10  23  42  64  89 134 168 202 276 320 387
#     4  10  25  37  60  99 119 164 213 253 326 381
#     4   9  22  42  65  88 121 172 213 258 328 382
#
# _framework density 19.103176999999999
#
# number of rings (size 3 to 8) (size 9 to 14) (size 15 to 20)
#    0.800    2.000    0.000    0.000   16.800    0.000 
#    0.000    0.000    0.000    0.000    0.000    0.000 
#    0.000    0.000    0.000    0.000    0.000    0.000 
#
# Total GULP energy -743413.519585 kJ/mol
# GULP energy per Si atom -12390.225326 kJ/mol
# Density = 1.905970 g / cm^3
# Si number density = 19.103177 Si / 1000 Ang^3
#
#
#
# Elastic Constant Matrix: (Units=GPa)
#
#
# Indices 1 2 3 4 5 6 
#
# 1 119.5534 50.4602 50.4602 0.0000 0.0000 0.0000
# 2 50.4602 119.5534 50.4602 0.0000 0.0000 0.0000
# 3 50.4602 50.4602 119.5534 0.0000 0.0000 0.0000
# 4 0.0000 0.0000 0.0000 26.3011 0.0000 0.0000
# 5 0.0000 0.0000 0.0000 0.0000 26.3011 0.0000
# 6 0.0000 0.0000 0.0000 0.0000 0.0000 26.3011
#
#
#
# Elastic Compliance Matrix: (Units=1/GPa)
#
#
# Indices 1 2 3 4 5 6 
#
# 1 0.011161 -0.003313 -0.003313 0.000000 0.000000 0.000000
# 2 -0.003313 0.011161 -0.003313 0.000000 0.000000 0.000000
# 3 -0.003313 -0.003313 0.011161 0.000000 0.000000 0.000000
# 4 0.000000 0.000000 0.000000 0.038021 0.000000 0.000000
# 5 0.000000 0.000000 0.000000 0.000000 0.038021 0.000000
# 6 0.000000 0.000000 0.000000 0.000000 0.000000 0.038021
#
#
# Mechanical properties :
#
#
# Convention : Reuss Voigt Hill
#
# Bulk Modulus (GPa) = 73.49126 73.49126 73.49126
# Shear Modulus (GPa) = 29.07715 29.59932 29.33824
#
# Velocity S-wave (km/s) = 3.90566 3.94057 3.92315
# Velocity P-wave (km/s) = 7.67418 7.69794 7.68607
#
# Compressibility (1/GPa) = 0.01360706
#
# Stress axis : x y z
#
# Youngs Moduli (GPa) = 89.60015 89.60014 89.60014
#
# Poissons Ratio (x) = 0.29680 0.29680
# Poissons Ratio (y) = 0.29680 0.29680
# Poissons Ratio (z) = 0.29680 0.29680
#
# Static dielectric constant tensor:
#      x y z
#    x 2.792980 0.000000 0.000000 
#    y 0.000000 2.792980 0.000000 
#    z 0.000000 0.000000 2.792980 
# 
# 
# High freq. dielectric constant tensor:
#      x y z
#    x 1.739260 0.000000 0.000000 
#    y 0.000000 1.739260 0.000000 
#    z 0.000000 0.000000 1.739260 
# 
# From -- ./inp_files/244.got.cif
#   From: 2010.03.12/outbox.cif.g09.slc.cpg/sg220_cif.got.tgz:244.got - 2010.03.30 09:07:51.
