data_PCOD8331036
_publ_section_title
;
Structure prediction by ZEFSAII (Michael W. Deem and Ramdas Pophale) SiO2 
 PCOD8331036
Probable space group: P -4 3 M
;
_chemical_formula_sum "Si O2"
_cell_formula_units_Z 168
_cell_length_a 21.115140
_cell_length_b 21.115140
_cell_length_c 21.115140
_cell_angle_alpha 90.000000
_cell_angle_beta 90.000000
_cell_angle_gamma 90.000000
_cell_volume 9414.166951
_symmetry_space_group_name_H-M "P -4 3 M"
_symmetry_group_IT_number 215
_symmetry_cell_setting 'cubic'
loop_
_space_group_symop_operation_xyz
x,y,z
y,-x,-z
-x,-y,z
-y,x,-z
-x,z,-y
x,-y,-z
-x,-z,y
-z,-y,x
-x,y,-z
z,-y,-x
z,x,y
y,z,x
-y,-z,x
z,-x,-y
-y,z,-x
-z,-x,y
-z,x,-y
y,-z,-x
-y,-x,z
y,x,z
x,-z,-y
x,z,y
-z,y,-x
z,y,x
loop_
_atom_site_type_symbol
_atom_site_label
_atom_site_fract_x
_atom_site_fract_y
_atom_site_fract_z
Si Si1 0.141039 0.960083 0.663191
Si Si2 0.758926 0.657434 0.140823
Si Si3 0.490586 0.853793 0.749657
Si Si4 0.696846 0.500094 0.598451
Si Si5 0.000036 0.898663 0.796671
Si Si6 0.949035 0.551863 0.845163
Si Si7 0.601582 0.498689 0.844305
O O1 0.085306 0.914695 0.633731
O O2 0.198688 0.915571 0.685930
O O3 0.114080 0.998174 0.722273
O O4 0.168582 0.012094 0.615448
O O5 0.690065 0.690065 0.140749
O O6 0.791787 0.671644 0.208214
O O7 0.753765 0.582879 0.129189
O O8 0.503222 0.785196 0.785196
O O9 0.531376 0.907862 0.784317
O O10 0.508230 0.861484 0.675370
O O11 0.666643 0.445720 0.554281
O O12 0.681538 0.568415 0.568415
O O13 0.668225 0.496330 0.668225
O O14 0.770251 0.488611 0.602761
O O15 0.060738 0.939263 0.818150
O O16 0.999749 0.832824 0.832824
O O17 0.936195 0.936195 0.812663
O O18 0.904868 0.563761 0.904868
O O19 0.000000 0.500000 0.864024
O O20 0.563796 0.436205 0.872434
O O21 0.561874 0.561874 0.863502
#
# Coordination Sequence:
#
# PCOD8331036 Si02
#       7
#    24  24  24  24  24  24  24
#     4  10  20  35  53  78 108 139 176 213 255 309
#     4  10  19  32  51  77 109 142 175 212 259 315
#     4  10  20  34  54  78 106 136 169 218 271 320
#     4   9  16  25  39  61  90 124 162 203 249 302
#     4  10  20  34  53  77 107 143 182 221 258 299
#     4  11  21  35  55  80 108 135 167 209 258 313
#     4   9  18  33  52  72  96 132 175 216 261 312
#
# _framework density 17.845445000000002
#
# number of rings (size 3 to 8) (size 9 to 14) (size 15 to 20)
#    0.000    2.143    1.429    3.714    0.000    1.571 
#    0.000    2.857    0.000    7.143    0.000    1.000 
#    0.000    0.000    0.000    0.000    0.000    0.000 
#
# Total GULP energy -2081835.230175 kJ/mol
# GULP energy per Si atom -12391.876370 kJ/mol
# Density = 1.780483 g / cm^3
# Si number density = 17.845445 Si / 1000 Ang^3
#
#
#
# Elastic Constant Matrix: (Units=GPa)
#
#
# Indices 1 2 3 4 5 6 
#
# 1 83.8522 36.2004 36.2004 0.0000 0.0000 0.0000
# 2 36.2004 83.8522 36.2004 0.0000 0.0000 0.0000
# 3 36.2004 36.2004 83.8522 0.0000 0.0000 0.0000
# 4 0.0000 0.0000 0.0000 12.5249 0.0000 0.0000
# 5 0.0000 0.0000 0.0000 0.0000 12.5249 0.0000
# 6 0.0000 0.0000 0.0000 0.0000 0.0000 12.5249
#
#
#
# Elastic Compliance Matrix: (Units=1/GPa)
#
#
# Indices 1 2 3 4 5 6 
#
# 1 0.016124 -0.004862 -0.004862 0.000000 0.000000 0.000000
# 2 -0.004862 0.016124 -0.004862 0.000000 0.000000 0.000000
# 3 -0.004862 -0.004862 0.016124 0.000000 0.000000 0.000000
# 4 0.000000 0.000000 0.000000 0.079841 0.000000 0.000000
# 5 0.000000 0.000000 0.000000 0.000000 0.079841 0.000000
# 6 0.000000 0.000000 0.000000 0.000000 0.000000 0.079841
#
#
# Mechanical properties :
#
#
# Convention : Reuss Voigt Hill
#
# Bulk Modulus (GPa) = 52.08432 52.08432 52.08432
# Shear Modulus (GPa) = 15.45759 17.04527 16.25143
#
# Velocity S-wave (km/s) = 2.94631 3.09392 3.02102
# Velocity P-wave (km/s) = 6.38937 6.48173 6.43571
#
# Compressibility (1/GPa) = 0.01919964
#
# Stress axis : x y z
#
# Youngs Moduli (GPa) = 62.02056 62.02056 62.02056
#
# Poissons Ratio (x) = 0.30154 0.30154
# Poissons Ratio (y) = 0.30154 0.30154
# Poissons Ratio (z) = 0.30154 0.30154
#
# Static dielectric constant tensor:
#      x y z
#    x 3.529410 0.000000 0.000000 
#    y 0.000000 3.529410 0.000000 
#    z 0.000000 0.000000 3.529410 
# 
# 
# High freq. dielectric constant tensor:
#      x y z
#    x 1.683660 0.000000 0.000000 
#    y 0.000000 1.683660 0.000000 
#    z 0.000000 0.000000 1.683660 
# 
# From -- ./inp_files/922.got.cif
#   From: 2010.03.12/outbox.cif.g09.slc.cpg/sg215_cif.got.tgz:922.got - 2010.03.30 09:06:09.
