data_PCOD8331162
_publ_section_title
;
Structure prediction by ZEFSAII (Michael W. Deem and Ramdas Pophale) SiO2 
 PCOD8331162
Probable space group: I M 3 M
;
_chemical_formula_sum "Si O2"
_cell_formula_units_Z 144
_cell_length_a 20.016228
_cell_length_b 20.016228
_cell_length_c 20.016228
_cell_angle_alpha 90.000000
_cell_angle_beta 90.000000
_cell_angle_gamma 90.000000
_cell_volume 8019.489405
_symmetry_space_group_name_H-M "I M 3 M"
_symmetry_group_IT_number 229
_symmetry_cell_setting 'cubic'
loop_
_space_group_symop_operation_xyz
x,y,z
-y,x,z
-x,-y,z
y,-x,z
x,-z,y
x,-y,-z
x,z,-y
z,y,-x
-x,y,-z
-z,y,x
z,x,y
y,z,x
-y,-z,x
z,-x,-y
-y,z,-x
-z,-x,y
-z,x,-y
y,-z,-x
y,x,-z
-y,-x,-z
-x,z,y
-x,-z,-y
z,-y,x
-z,-y,-x
-x,-y,-z
y,-x,-z
x,y,-z
-y,x,-z
-x,z,-y
-x,y,z
-x,-z,y
-z,-y,x
x,-y,z
z,-y,-x
-z,-x,-y
-y,-z,-x
y,z,-x
-z,x,y
y,-z,x
z,x,-y
z,-x,y
-y,z,x
-y,-x,z
y,x,z
x,-z,-y
x,z,y
-z,y,-x
z,y,x
1/2+x,1/2+y,1/2+z
1/2-y,1/2+x,1/2+z
1/2-x,1/2-y,1/2+z
1/2+y,1/2-x,1/2+z
1/2+x,1/2-z,1/2+y
1/2+x,1/2-y,1/2-z
1/2+x,1/2+z,1/2-y
1/2+z,1/2+y,1/2-x
1/2-x,1/2+y,1/2-z
1/2-z,1/2+y,1/2+x
1/2+z,1/2+x,1/2+y
1/2+y,1/2+z,1/2+x
1/2-y,1/2-z,1/2+x
1/2+z,1/2-x,1/2-y
1/2-y,1/2+z,1/2-x
1/2-z,1/2-x,1/2+y
1/2-z,1/2+x,1/2-y
1/2+y,1/2-z,1/2-x
1/2+y,1/2+x,1/2-z
1/2-y,1/2-x,1/2-z
1/2-x,1/2+z,1/2+y
1/2-x,1/2-z,1/2-y
1/2+z,1/2-y,1/2+x
1/2-z,1/2-y,1/2-x
1/2-x,1/2-y,1/2-z
1/2+y,1/2-x,1/2-z
1/2+x,1/2+y,1/2-z
1/2-y,1/2+x,1/2-z
1/2-x,1/2+z,1/2-y
1/2-x,1/2+y,1/2+z
1/2-x,1/2-z,1/2+y
1/2-z,1/2-y,1/2+x
1/2+x,1/2-y,1/2+z
1/2+z,1/2-y,1/2-x
1/2-z,1/2-x,1/2-y
1/2-y,1/2-z,1/2-x
1/2+y,1/2+z,1/2-x
1/2-z,1/2+x,1/2+y
1/2+y,1/2-z,1/2+x
1/2+z,1/2+x,1/2-y
1/2+z,1/2-x,1/2+y
1/2-y,1/2+z,1/2+x
1/2-y,1/2-x,1/2+z
1/2+y,1/2+x,1/2+z
1/2+x,1/2-z,1/2-y
1/2+x,1/2+z,1/2+y
1/2-z,1/2+y,1/2-x
1/2+z,1/2+y,1/2+x
loop_
_atom_site_type_symbol
_atom_site_label
_atom_site_fract_x
_atom_site_fract_y
_atom_site_fract_z
Si Si1 0.750000 0.425343 0.074658
Si Si2 0.290193 0.075189 0.817879
O O1 0.781555 0.500000 0.082749
O O2 0.806508 0.369370 0.084818
O O3 0.265389 0.124074 0.875927
O O4 0.250458 0.091919 0.749543
O O5 0.274579 0.000000 0.841408
#
# Coordination Sequence:
#
# PCOD8331162 Si02
#       2
#    48  96
#     4   9  18  32  49  70  98 130 159 188 226 273
#     4  10  20  33  50  71  95 124 158 197 239 282
#
# _framework density 17.956256
#
# number of rings (size 3 to 8) (size 9 to 14) (size 15 to 20)
#    0.000    2.333    0.000    2.667    0.000    4.667 
#    0.000    3.333    0.000    0.000    0.000    9.333 
#    0.000    0.000    0.000   20.667    0.000    0.000 
#
# Total GULP energy -892471.773516 kJ/mol
# GULP energy per Si atom -12395.441299 kJ/mol
# Density = 1.791539 g / cm^3
# Si number density = 17.956256 Si / 1000 Ang^3
#
#
#
# Elastic Constant Matrix: (Units=GPa)
#
#
# Indices 1 2 3 4 5 6 
#
# 1 90.3705 54.6124 54.6124 0.0000 0.0000 0.0000
# 2 54.6124 90.3705 54.6124 0.0000 0.0000 0.0000
# 3 54.6124 54.6124 90.3705 0.0000 0.0000 0.0000
# 4 0.0000 0.0000 0.0000 24.8247 0.0000 0.0000
# 5 0.0000 0.0000 0.0000 0.0000 24.8247 0.0000
# 6 0.0000 0.0000 0.0000 0.0000 0.0000 24.8247
#
#
#
# Elastic Compliance Matrix: (Units=1/GPa)
#
#
# Indices 1 2 3 4 5 6 
#
# 1 0.020314 -0.007652 -0.007652 0.000000 0.000000 0.000000
# 2 -0.007652 0.020314 -0.007652 0.000000 0.000000 0.000000
# 3 -0.007652 -0.007652 0.020314 0.000000 0.000000 0.000000
# 4 0.000000 0.000000 0.000000 0.040282 0.000000 0.000000
# 5 0.000000 0.000000 0.000000 0.000000 0.040282 0.000000
# 6 0.000000 0.000000 0.000000 0.000000 0.000000 0.040282
#
#
# Mechanical properties :
#
#
# Convention : Reuss Voigt Hill
#
# Bulk Modulus (GPa) = 66.53174 66.53174 66.53174
# Shear Modulus (GPa) = 21.48595 22.04643 21.76619
#
# Velocity S-wave (km/s) = 3.46290 3.50778 3.48541
# Velocity P-wave (km/s) = 7.28845 7.31701 7.30274
#
# Compressibility (1/GPa) = 0.01503042
#
# Stress axis : x y z
#
# Youngs Moduli (GPa) = 49.22751 49.22751 49.22751
#
# Poissons Ratio (x) = 0.37668 0.37668
# Poissons Ratio (y) = 0.37668 0.37668
# Poissons Ratio (z) = 0.37668 0.37668
#
# Static dielectric constant tensor:
#      x y z
#    x 3.256570 0.000000 0.000000 
#    y 0.000000 3.256570 0.000000 
#    z 0.000000 0.000000 3.256570 
# 
# 
# High freq. dielectric constant tensor:
#      x y z
#    x 1.686060 0.000000 0.000000 
#    y 0.000000 1.686060 0.000000 
#    z 0.000000 0.000000 1.686060 
# 
# From -- ./inp_files/221.got.cif
#   From: 2010.03.12/outbox.cif.g09.slc.cpg/sg229_cif.got.tgz:221.got - 2010.03.30 09:10:17.
