data_PCOD8331169
_publ_section_title
;
Structure prediction by ZEFSAII (Michael W. Deem and Ramdas Pophale) SiO2 
 PCOD8331169
Probable space group: I A 3 D 
;
_chemical_formula_sum "Si O2"
_cell_formula_units_Z 248
_cell_length_a 22.444290
_cell_length_b 22.444290
_cell_length_c 22.444290
_cell_angle_alpha 90.000000
_cell_angle_beta 90.000000
_cell_angle_gamma 90.000000
_cell_volume 11306.224758
_symmetry_space_group_name_H-M "I A 3 D "
_symmetry_group_IT_number 230
_symmetry_cell_setting 'cubic'
loop_
_space_group_symop_operation_xyz
x,y,z
1/4-y,3/4+x,1/4+z
-x,1/2-y,z
1/4+y,1/4-x,3/4+z
1/4+x,1/4-z,3/4+y
x,-y,1/2-z
3/4+x,1/4+z,1/4-y
3/4+z,1/4+y,1/4-x
1/2-x,y,-z
1/4-z,3/4+y,1/4+x
z,x,y
y,z,x
-y,1/2-z,x
z,-x,1/2-y
1/2-y,z,-x
-z,1/2-x,y
1/2-z,x,-y
y,-z,1/2-x
3/4+y,1/4+x,1/4-z
1/4-y,1/4-x,1/4-z
1/4-x,3/4+z,1/4+y
1/4-x,1/4-z,1/4-y
1/4+z,1/4-y,3/4+x
1/4-z,1/4-y,1/4-x
-x,-y,-z
3/4+y,1/4-x,3/4-z
x,1/2+y,-z
3/4-y,3/4+x,1/4-z
3/4-x,3/4+z,1/4-y
-x,y,1/2+z
1/4-x,3/4-z,3/4+y
1/4-z,3/4-y,3/4+x
1/2+x,-y,z
3/4+z,1/4-y,3/4-x
-z,-x,-y
-y,-z,-x
y,1/2+z,-x
-z,x,1/2+y
1/2+y,-z,x
z,1/2+x,-y
1/2+z,-x,y
-y,z,1/2+x
1/4-y,3/4-x,3/4+z
3/4+y,3/4+x,3/4+z
3/4+x,1/4-z,3/4-y
3/4+x,3/4+z,3/4+y
3/4-z,3/4+y,1/4-x
3/4+z,3/4+y,3/4+x
1/2+x,1/2+y,1/2+z
3/4-y,1/4+x,3/4+z
1/2-x,-y,1/2+z
3/4+y,3/4-x,1/4+z
3/4+x,3/4-z,1/4+y
1/2+x,1/2-y,-z
1/4+x,3/4+z,3/4-y
1/4+z,3/4+y,3/4-x
-x,1/2+y,1/2-z
3/4-z,1/4+y,3/4+x
1/2+z,1/2+x,1/2+y
1/2+y,1/2+z,1/2+x
1/2-y,-z,1/2+x
1/2+z,1/2-x,-y
-y,1/2+z,1/2-x
1/2-z,-x,1/2+y
-z,1/2+x,1/2-y
1/2+y,1/2-z,-x
1/4+y,3/4+x,3/4-z
3/4-y,3/4-x,3/4-z
3/4-x,1/4+z,3/4+y
3/4-x,3/4-z,3/4-y
3/4+z,3/4-y,1/4+x
3/4-z,3/4-y,3/4-x
1/2-x,1/2-y,1/2-z
1/4+y,3/4-x,1/4-z
1/2+x,y,1/2-z
1/4-y,1/4+x,3/4-z
1/4-x,1/4+z,3/4-y
1/2-x,1/2+y,z
3/4-x,1/4-z,1/4+y
3/4-z,1/4-y,1/4+x
x,1/2-y,1/2+z
1/4+z,3/4-y,1/4-x
1/2-z,1/2-x,1/2-y
1/2-y,1/2-z,1/2-x
1/2+y,z,1/2-x
1/2-z,1/2+x,y
y,1/2-z,1/2+x
1/2+z,x,1/2-y
z,1/2-x,1/2+y
1/2-y,1/2+z,x
3/4-y,1/4-x,1/4+z
1/4+y,1/4+x,1/4+z
1/4+x,3/4-z,1/4-y
1/4+x,1/4+z,1/4+y
1/4-z,1/4+y,3/4-x
1/4+z,1/4+y,1/4+x
loop_
_atom_site_type_symbol
_atom_site_label
_atom_site_fract_x
_atom_site_fract_y
_atom_site_fract_z
Si Si1 0.750000 0.375000 0.500000
Si Si2 0.314844 0.200948 0.590151
Si Si3 0.334458 0.165544 0.834457
Si Si4 0.669204 0.122506 0.202505
O O1 0.737399 0.336743 0.558993
O O2 0.375000 0.198992 0.551009
O O3 0.328151 0.177115 0.656292
O O4 0.290655 0.267315 0.591461
O O5 0.375000 0.125000 0.875000
O O6 0.349508 0.149870 0.765889
O O7 0.625000 0.071051 0.178950
#
# Coordination Sequence:
#
# PCOD8331169 Si02
#       4
#    24  96  32  96
#     4  12  24  40  70 108 136 172 232 294 344 432
#     4  11  23  43  69 106 138 183 236 290 358 427
#     4  12  30  49  71 100 138 195 250 296 370 447
#     4  11  26  46  71 102 144 189 238 299 363 433
#
# _framework density 21.934819999999998
#
# number of rings (size 3 to 8) (size 9 to 14) (size 15 to 20)
#    0.000    0.774    3.871    2.323    5.419    6.968 
#    0.000    0.000    0.000    0.000    0.000    0.000 
#    0.000    0.000    0.000    0.000    0.000    0.000 
#
# Total GULP energy -1538416.473351 kJ/mol
# GULP energy per Si atom -12406.584463 kJ/mol
# Density = 2.188490 g / cm^3
# Si number density = 21.934820 Si / 1000 Ang^3
#
#
#
# Elastic Constant Matrix: (Units=GPa)
#
#
# Indices 1 2 3 4 5 6 
#
# 1 124.0833 59.4414 59.4411 0.0000 0.0000 0.0000
# 2 59.4414 124.0833 59.4411 0.0000 0.0000 0.0000
# 3 59.4411 59.4411 124.0828 0.0000 0.0000 0.0000
# 4 0.0000 0.0000 0.0000 30.7838 0.0000 0.0000
# 5 0.0000 0.0000 0.0000 0.0000 30.7838 0.0000
# 6 0.0000 0.0000 0.0000 0.0000 0.0000 30.7861
#
#
#
# Elastic Compliance Matrix: (Units=1/GPa)
#
#
# Indices 1 2 3 4 5 6 
#
# 1 0.011685 -0.003785 -0.003785 0.000000 0.000000 0.000000
# 2 -0.003785 0.011685 -0.003785 0.000000 0.000000 0.000000
# 3 -0.003785 -0.003785 0.011685 0.000000 0.000000 0.000000
# 4 0.000000 0.000000 0.000000 0.032485 0.000000 0.000000
# 5 0.000000 0.000000 0.000000 0.000000 0.032485 0.000000
# 6 0.000000 0.000000 0.000000 0.000000 0.000000 0.032482
#
#
# Mechanical properties :
#
#
# Convention : Reuss Voigt Hill
#
# Bulk Modulus (GPa) = 80.98850 80.98850 80.98850
# Shear Modulus (GPa) = 31.38127 31.39914 31.39020
#
# Velocity S-wave (km/s) = 3.78651 3.78759 3.78705
# Velocity P-wave (km/s) = 7.49129 7.49201 7.49165
#
# Compressibility (1/GPa) = 0.01234743
#
# Stress axis : x y z
#
# Youngs Moduli (GPa) = 85.57867 85.57867 85.57855
#
# Poissons Ratio (x) = 0.32389 0.32389
# Poissons Ratio (y) = 0.32389 0.32389
# Poissons Ratio (z) = 0.32389 0.32389
#
# Static dielectric constant tensor:
#      x y z
#    x 3.952000 0.000000 0.000000 
#    y 0.000000 3.952000 0.000000 
#    z 0.000000 0.000000 3.952010 
# 
# 
# High freq. dielectric constant tensor:
#      x y z
#    x 1.865500 0.000000 0.000000 
#    y 0.000000 1.865500 0.000000 
#    z 0.000000 0.000000 1.865500 
# 
# From -- ./inp_files/471.got.cif
#   From: 2010.03.12/outbox.cif.g09.slc.cpg/sg230_cif.got.tgz:471.got - 2010.03.30 09:10:43.
