data_PCOD8331003
_publ_section_title
;
Structure prediction by ZEFSAII (Michael W. Deem and Ramdas Pophale) SiO2 
 PCOD8331003
Probable space group: P 43 3 2
;
_chemical_formula_sum "Si O2"
_cell_formula_units_Z 96
_cell_length_a 16.945346
_cell_length_b 16.945346
_cell_length_c 16.945346
_cell_angle_alpha 90.000000
_cell_angle_beta 90.000000
_cell_angle_gamma 90.000000
_cell_volume 4865.767159
_symmetry_space_group_name_H-M "P 43 3 2"
_symmetry_group_IT_number 212
_symmetry_cell_setting 'cubic'
loop_
_space_group_symop_operation_xyz
x,y,z
3/4-y,1/4+x,3/4+z
1/2-x,-y,1/2+z
3/4+y,3/4-x,1/4+z
3/4+x,3/4-z,1/4+y
1/2+x,1/2-y,-z
1/4+x,3/4+z,3/4-y
1/4+z,3/4+y,3/4-x
-x,1/2+y,1/2-z
3/4-z,1/4+y,3/4+x
z,x,y
y,z,x
1/2-y,-z,1/2+x
1/2+z,1/2-x,-y
-y,1/2+z,1/2-x
1/2-z,-x,1/2+y
-z,1/2+x,1/2-y
1/2+y,1/2-z,-x
1/4+y,3/4+x,3/4-z
1/4-y,1/4-x,1/4-z
3/4-x,1/4+z,3/4+y
1/4-x,1/4-z,1/4-y
3/4+z,3/4-y,1/4+x
1/4-z,1/4-y,1/4-x
loop_
_atom_site_type_symbol
_atom_site_label
_atom_site_fract_x
_atom_site_fract_y
_atom_site_fract_z
Si Si1 0.152218 0.010433 0.922815
Si Si2 0.859456 0.013491 0.106165
Si Si3 0.913079 0.663079 0.875000
Si Si4 0.554082 0.304082 0.875000
Si Si5 0.461480 0.736163 0.270159
O O1 0.222370 0.972370 0.875000
O O2 0.098249 0.065541 0.869090
O O3 0.099947 0.941348 0.964664
O O4 0.195732 0.071873 0.978045
O O5 0.787147 0.978152 0.055542
O O6 0.834519 0.016282 0.197444
O O7 0.917687 0.726776 0.804731
O O8 0.826117 0.678968 0.910154
O O9 0.625000 0.311383 0.938618
#
# Coordination Sequence:
#
# PCOD8331003 Si02
#       5
#    24  24  12  12  24
#     4  12  23  40  67  94 129 165 222 273 323 390
#     4  11  22  41  62  94 125 163 209 273 325 389
#     4  10  22  40  63  92 125 174 216 260 332 402
#     4  10  20  40  65  88 123 174 212 258 334 398
#     4  10  23  39  63  90 128 167 216 264 329 397
#
# _framework density 19.729673999999999
#
# number of rings (size 3 to 8) (size 9 to 14) (size 15 to 20)
#    0.250    1.000    5.000    1.000    1.750    2.000 
#    0.750    0.000    0.000    0.000    0.000    0.000 
#    0.000    0.000    0.000    0.000    0.000    0.000 
#
# Total GULP energy -1189468.578750 kJ/mol
# GULP energy per Si atom -12390.297695 kJ/mol
# Density = 1.968477 g / cm^3
# Si number density = 19.729674 Si / 1000 Ang^3
#
#
#
# Elastic Constant Matrix: (Units=GPa)
#
#
# Indices 1 2 3 4 5 6 
#
# 1 101.2027 35.2625 35.2625 0.0000 0.0000 0.0000
# 2 35.2625 101.2027 35.2625 0.0000 0.0000 0.0000
# 3 35.2625 35.2625 101.2027 0.0000 0.0000 0.0000
# 4 0.0000 0.0000 0.0000 34.0731 0.0000 0.0000
# 5 0.0000 0.0000 0.0000 0.0000 34.0731 0.0000
# 6 0.0000 0.0000 0.0000 0.0000 0.0000 34.0731
#
#
#
# Elastic Compliance Matrix: (Units=1/GPa)
#
#
# Indices 1 2 3 4 5 6 
#
# 1 0.012051 -0.003114 -0.003114 0.000000 0.000000 0.000000
# 2 -0.003114 0.012051 -0.003114 0.000000 0.000000 0.000000
# 3 -0.003114 -0.003114 0.012051 0.000000 0.000000 0.000000
# 4 0.000000 0.000000 0.000000 0.029349 0.000000 0.000000
# 5 0.000000 0.000000 0.000000 0.000000 0.029349 0.000000
# 6 0.000000 0.000000 0.000000 0.000000 0.000000 0.029349
#
#
# Mechanical properties :
#
#
# Convention : Reuss Voigt Hill
#
# Bulk Modulus (GPa) = 57.24254 57.24254 57.24254
# Shear Modulus (GPa) = 33.62314 33.63188 33.62751
#
# Velocity S-wave (km/s) = 4.13266 4.13320 4.13293
# Velocity P-wave (km/s) = 7.20058 7.20099 7.20078
#
# Compressibility (1/GPa) = 0.01746953
#
# Stress axis : x y z
#
# Youngs Moduli (GPa) = 82.97910 82.97910 82.97910
#
# Poissons Ratio (x) = 0.25840 0.25840
# Poissons Ratio (y) = 0.25840 0.25840
# Poissons Ratio (z) = 0.25840 0.25840
#
# Static dielectric constant tensor:
#      x y z
#    x 3.507710 0.000000 0.000000 
#    y 0.000000 3.507710 0.000000 
#    z 0.000000 0.000000 3.507710 
# 
# 
# High freq. dielectric constant tensor:
#      x y z
#    x 1.771270 0.000000 0.000000 
#    y 0.000000 1.771270 0.000000 
#    z 0.000000 0.000000 1.771270 
# 
# From -- ./inp_files/484.got.cif
#   From: 2010.03.12/outbox.cif.g09.slc.cpg/sg212_cif.got.tgz:484.got - 2010.03.30 09:05:11.
