data_PCOD8331154
_publ_section_title
;
Structure prediction by ZEFSAII (Michael W. Deem and Ramdas Pophale) SiO2 
 PCOD8331154
Probable space group: F D 3 C 
;
_chemical_formula_sum "Si O2"
_cell_formula_units_Z 528
_cell_length_a 29.247565
_cell_length_b 29.247565
_cell_length_c 29.247565
_cell_angle_alpha 90.000000
_cell_angle_beta 90.000000
_cell_angle_gamma 90.000000
_cell_volume 25018.953761
_symmetry_space_group_name_H-M "F D 3 C "
_symmetry_group_IT_number 228
_space_group.IT_coordinate_system_code '2'
_symmetry_cell_setting 'cubic'
loop_
_space_group_symop_operation_xyz
x,y,z
-y,1/4+x,3/4+z
1/4-x,1/4-y,z
1/4+y,-x,3/4+z
1/4+x,-z,3/4+y
x,1/4-y,1/4-z
1/4+x,3/4+z,-y
1/4+z,3/4+y,-x
1/4-x,y,1/4-z
-z,1/4+y,3/4+x
z,x,y
y,z,x
1/4-y,1/4-z,x
z,1/4-x,1/4-y
1/4-y,z,1/4-x
1/4-z,1/4-x,y
1/4-z,x,1/4-y
y,1/4-z,1/4-x
1/4+y,3/4+x,-z
-y,-x,1/2-z
-x,1/4+z,3/4+y
-x,-z,1/2-y
1/4+z,-y,3/4+x
-z,-y,1/2-x
-x,-y,-z
y,3/4-x,1/4-z
3/4+x,3/4+y,-z
3/4-y,x,1/4-z
3/4-x,z,1/4-y
-x,3/4+y,3/4+z
3/4-x,1/4-z,y
3/4-z,1/4-y,x
3/4+x,-y,3/4+z
z,3/4-y,1/4-x
-z,-x,-y
-y,-z,-x
3/4+y,3/4+z,-x
-z,3/4+x,3/4+y
3/4+y,-z,3/4+x
3/4+z,3/4+x,-y
3/4+z,-x,3/4+y
-y,3/4+z,3/4+x
3/4-y,1/4-x,z
y,x,1/2+z
x,3/4-z,1/4-y
x,z,1/2+y
3/4-z,y,1/4-x
z,y,1/2+x
x,1/2+y,1/2+z
-y,3/4+x,1/4+z
1/4-x,3/4-y,1/2+z
1/4+y,1/2-x,1/4+z
1/4+x,1/2-z,1/4+y
x,3/4-y,3/4-z
1/4+x,1/4+z,1/2-y
1/4+z,1/4+y,1/2-x
1/4-x,1/2+y,3/4-z
-z,3/4+y,1/4+x
z,1/2+x,1/2+y
y,1/2+z,1/2+x
1/4-y,3/4-z,1/2+x
z,3/4-x,3/4-y
1/4-y,1/2+z,3/4-x
1/4-z,3/4-x,1/2+y
1/4-z,1/2+x,3/4-y
y,3/4-z,3/4-x
1/4+y,1/4+x,1/2-z
-y,1/2-x,-z
-x,3/4+z,1/4+y
-x,1/2-z,-y
1/4+z,1/2-y,1/4+x
-z,1/2-y,-x
-x,1/2-y,1/2-z
y,1/4-x,3/4-z
3/4+x,1/4+y,1/2-z
3/4-y,1/2+x,3/4-z
3/4-x,1/2+z,3/4-y
-x,1/4+y,1/4+z
3/4-x,3/4-z,1/2+y
3/4-z,3/4-y,1/2+x
3/4+x,1/2-y,1/4+z
z,1/4-y,3/4-x
-z,1/2-x,1/2-y
-y,1/2-z,1/2-x
3/4+y,1/4+z,1/2-x
-z,1/4+x,1/4+y
3/4+y,1/2-z,1/4+x
3/4+z,1/4+x,1/2-y
3/4+z,1/2-x,1/4+y
-y,1/4+z,1/4+x
3/4-y,3/4-x,1/2+z
y,1/2+x,z
x,1/4-z,3/4-y
x,1/2+z,y
3/4-z,1/2+y,3/4-x
z,1/2+y,x
1/2+x,y,1/2+z
1/2-y,1/4+x,1/4+z
3/4-x,1/4-y,1/2+z
3/4+y,-x,1/4+z
3/4+x,-z,1/4+y
1/2+x,1/4-y,3/4-z
3/4+x,3/4+z,1/2-y
3/4+z,3/4+y,1/2-x
3/4-x,y,3/4-z
1/2-z,1/4+y,1/4+x
1/2+z,x,1/2+y
1/2+y,z,1/2+x
3/4-y,1/4-z,1/2+x
1/2+z,1/4-x,3/4-y
3/4-y,z,3/4-x
3/4-z,1/4-x,1/2+y
3/4-z,x,3/4-y
1/2+y,1/4-z,3/4-x
3/4+y,3/4+x,1/2-z
1/2-y,-x,-z
1/2-x,1/4+z,1/4+y
1/2-x,-z,-y
3/4+z,-y,1/4+x
1/2-z,-y,-x
1/2-x,-y,1/2-z
1/2+y,3/4-x,3/4-z
1/4+x,3/4+y,1/2-z
1/4-y,x,3/4-z
1/4-x,z,3/4-y
1/2-x,3/4+y,1/4+z
1/4-x,1/4-z,1/2+y
1/4-z,1/4-y,1/2+x
1/4+x,-y,1/4+z
1/2+z,3/4-y,3/4-x
1/2-z,-x,1/2-y
1/2-y,-z,1/2-x
1/4+y,3/4+z,1/2-x
1/2-z,3/4+x,1/4+y
1/4+y,-z,1/4+x
1/4+z,3/4+x,1/2-y
1/4+z,-x,1/4+y
1/2-y,3/4+z,1/4+x
1/4-y,1/4-x,1/2+z
1/2+y,x,z
1/2+x,3/4-z,3/4-y
1/2+x,z,y
1/4-z,y,3/4-x
1/2+z,y,x
1/2+x,1/2+y,z
1/2-y,3/4+x,3/4+z
3/4-x,3/4-y,z
3/4+y,1/2-x,3/4+z
3/4+x,1/2-z,3/4+y
1/2+x,3/4-y,1/4-z
3/4+x,1/4+z,-y
3/4+z,1/4+y,-x
3/4-x,1/2+y,1/4-z
1/2-z,3/4+y,3/4+x
1/2+z,1/2+x,y
1/2+y,1/2+z,x
3/4-y,3/4-z,x
1/2+z,3/4-x,1/4-y
3/4-y,1/2+z,1/4-x
3/4-z,3/4-x,y
3/4-z,1/2+x,1/4-y
1/2+y,3/4-z,1/4-x
3/4+y,1/4+x,-z
1/2-y,1/2-x,1/2-z
1/2-x,3/4+z,3/4+y
1/2-x,1/2-z,1/2-y
3/4+z,1/2-y,3/4+x
1/2-z,1/2-y,1/2-x
1/2-x,1/2-y,-z
1/2+y,1/4-x,1/4-z
1/4+x,1/4+y,-z
1/4-y,1/2+x,1/4-z
1/4-x,1/2+z,1/4-y
1/2-x,1/4+y,3/4+z
1/4-x,3/4-z,y
1/4-z,3/4-y,x
1/4+x,1/2-y,3/4+z
1/2+z,1/4-y,1/4-x
1/2-z,1/2-x,-y
1/2-y,1/2-z,-x
1/4+y,1/4+z,-x
1/2-z,1/4+x,3/4+y
1/4+y,1/2-z,3/4+x
1/4+z,1/4+x,-y
1/4+z,1/2-x,3/4+y
1/2-y,1/4+z,3/4+x
1/4-y,3/4-x,z
1/2+y,1/2+x,1/2+z
1/2+x,1/4-z,1/4-y
1/2+x,1/2+z,1/2+y
1/4-z,1/2+y,1/4-x
1/2+z,1/2+y,1/2+x
loop_
_atom_site_type_symbol
_atom_site_label
_atom_site_fract_x
_atom_site_fract_y
_atom_site_fract_z
Si Si1 0.125000 0.625000 0.125000
Si Si2 0.563219 0.686782 0.686783
Si Si3 0.381090 0.929334 0.736915
Si Si4 0.879347 0.801100 0.137297
Si Si5 0.031718 0.718284 0.531717
O O1 0.094316 0.655686 0.155686
O O2 0.520053 0.656794 0.701123
O O3 0.375000 0.875000 0.730745
O O4 0.371567 0.956643 0.691087
O O5 0.432853 0.939066 0.751857
O O6 0.831938 0.826729 0.124768
O O7 0.884364 0.750000 0.115637
O O8 0.000000 0.750000 0.500000
#
# Coordination Sequence:
#
# PCOD8331154 Si02
#       5
#    16  64 192 192  64
#     4  12  16  28  48  96 134 188 184 268 348 388
#     4  12  21  34  67 100 145 170 227 279 348 412
#     4  12  22  41  65 101 141 183 230 284 352 416
#     4  11  26  47  71  96 134 184 231 286 350 420
#     4  12  25  38  67 114 144 184 245 295 349 428
#
# _framework density 21.103999999999999
#
# number of rings (size 3 to 8) (size 9 to 14) (size 15 to 20)
#    0.000    0.364    9.091    1.091    0.000    7.273 
#    0.000    0.000    0.000    3.636    0.000    0.000 
#    0.000    0.000    0.000    0.000    0.000    0.000 
#
# Total GULP energy -1636671.616119 kJ/mol
# GULP energy per Si atom -12399.027395 kJ/mol
# Density = 2.105597 g / cm^3
# Si number density = 21.104000 Si / 1000 Ang^3
#
#
#
# Elastic Constant Matrix: (Units=GPa)
#
#
# Indices 1 2 3 4 5 6 
#
# 1 116.4655 26.2647 26.2685 0.0000 0.0000 0.0000
# 2 26.2647 116.4655 26.2685 0.0000 0.0000 0.0000
# 3 26.2685 26.2685 116.4686 0.0000 0.0000 0.0000
# 4 0.0000 0.0000 0.0000 25.8125 0.0000 0.0000
# 5 0.0000 0.0000 0.0000 0.0000 25.8125 0.0000
# 6 0.0000 0.0000 0.0000 0.0000 0.0000 25.8121
#
#
#
# Elastic Compliance Matrix: (Units=1/GPa)
#
#
# Indices 1 2 3 4 5 6 
#
# 1 0.009363 -0.001723 -0.001723 0.000000 0.000000 0.000000
# 2 -0.001723 0.009363 -0.001723 0.000000 0.000000 0.000000
# 3 -0.001723 -0.001723 0.009363 0.000000 0.000000 0.000000
# 4 0.000000 0.000000 0.000000 0.038741 0.000000 0.000000
# 5 0.000000 0.000000 0.000000 0.000000 0.038741 0.000000
# 6 0.000000 0.000000 0.000000 0.000000 0.000000 0.038742
#
#
# Mechanical properties :
#
#
# Convention : Reuss Voigt Hill
#
# Bulk Modulus (GPa) = 56.33365 56.33365 56.33365
# Shear Modulus (GPa) = 31.13914 33.52729 32.33321
#
# Velocity S-wave (km/s) = 3.84540 3.99014 3.91844
# Velocity P-wave (km/s) = 6.81670 6.92673 6.87194
#
# Compressibility (1/GPa) = 0.01775138
#
# Stress axis : x y z
#
# Youngs Moduli (GPa) = 106.79825 106.79825 106.79951
#
# Poissons Ratio (x) = 0.18400 0.18404
# Poissons Ratio (y) = 0.18400 0.18404
# Poissons Ratio (z) = 0.18404 0.18404
#
# Static dielectric constant tensor:
#      x y z
#    x 4.033510 0.000000 0.000000 
#    y 0.000000 4.033510 0.000000 
#    z 0.000000 0.000000 4.033560 
# 
# 
# High freq. dielectric constant tensor:
#      x y z
#    x 1.828950 0.000000 0.000000 
#    y 0.000000 1.828950 0.000000 
#    z 0.000000 0.000000 1.828950 
# 
# From -- ./inp_files/720.got.cif
#   From: 2010.03.12/outbox.cif.g09.slc.cpg/sg228_cif.got.tgz:720.got - 2010.03.30 09:10:12.
