data_PCOD8331084
_publ_section_title
;
Structure prediction by ZEFSAII (Michael W. Deem and Ramdas Pophale) SiO2 
 PCOD8331084
Probable space group: F -4 3 C
;
_chemical_formula_sum "Si O2"
_cell_formula_units_Z 176
_cell_length_a 19.946004
_cell_length_b 19.946004
_cell_length_c 19.946004
_cell_angle_alpha 90.000000
_cell_angle_beta 90.000000
_cell_angle_gamma 90.000000
_cell_volume 7935.379577
_symmetry_space_group_name_H-M "F -4 3 C"
_symmetry_group_IT_number 219
_symmetry_cell_setting 'cubic'
loop_
_space_group_symop_operation_xyz
x,y,z
y,-x,1/2-z
-x,-y,z
-y,x,1/2-z
-x,z,1/2-y
x,-y,-z
-x,-z,1/2+y
-z,-y,1/2+x
-x,y,-z
z,-y,1/2-x
z,x,y
y,z,x
-y,-z,x
z,-x,-y
-y,z,-x
-z,-x,y
-z,x,-y
y,-z,-x
-y,-x,1/2+z
y,x,1/2+z
x,-z,1/2-y
x,z,1/2+y
-z,y,1/2-x
z,y,1/2+x
x,1/2+y,1/2+z
y,1/2-x,-z
-x,1/2-y,1/2+z
-y,1/2+x,-z
-x,1/2+z,-y
x,1/2-y,1/2-z
-x,1/2-z,y
-z,1/2-y,x
-x,1/2+y,1/2-z
z,1/2-y,-x
z,1/2+x,1/2+y
y,1/2+z,1/2+x
-y,1/2-z,1/2+x
z,1/2-x,1/2-y
-y,1/2+z,1/2-x
-z,1/2-x,1/2+y
-z,1/2+x,1/2-y
y,1/2-z,1/2-x
-y,1/2-x,z
y,1/2+x,z
x,1/2-z,-y
x,1/2+z,y
-z,1/2+y,-x
z,1/2+y,x
1/2+x,y,1/2+z
1/2+y,-x,-z
1/2-x,-y,1/2+z
1/2-y,x,-z
1/2-x,z,-y
1/2+x,-y,1/2-z
1/2-x,-z,y
1/2-z,-y,x
1/2-x,y,1/2-z
1/2+z,-y,-x
1/2+z,x,1/2+y
1/2+y,z,1/2+x
1/2-y,-z,1/2+x
1/2+z,-x,1/2-y
1/2-y,z,1/2-x
1/2-z,-x,1/2+y
1/2-z,x,1/2-y
1/2+y,-z,1/2-x
1/2-y,-x,z
1/2+y,x,z
1/2+x,-z,-y
1/2+x,z,y
1/2-z,y,-x
1/2+z,y,x
1/2+x,1/2+y,z
1/2+y,1/2-x,1/2-z
1/2-x,1/2-y,z
1/2-y,1/2+x,1/2-z
1/2-x,1/2+z,1/2-y
1/2+x,1/2-y,-z
1/2-x,1/2-z,1/2+y
1/2-z,1/2-y,1/2+x
1/2-x,1/2+y,-z
1/2+z,1/2-y,1/2-x
1/2+z,1/2+x,y
1/2+y,1/2+z,x
1/2-y,1/2-z,x
1/2+z,1/2-x,-y
1/2-y,1/2+z,-x
1/2-z,1/2-x,y
1/2-z,1/2+x,-y
1/2+y,1/2-z,-x
1/2-y,1/2-x,1/2+z
1/2+y,1/2+x,1/2+z
1/2+x,1/2-z,1/2-y
1/2+x,1/2+z,1/2+y
1/2-z,1/2+y,1/2-x
1/2+z,1/2+y,1/2+x
loop_
_atom_site_type_symbol
_atom_site_label
_atom_site_fract_x
_atom_site_fract_y
_atom_site_fract_z
Si Si1 0.250000 0.250000 0.750000
Si Si2 0.909859 0.590143 0.909859
Si Si3 0.344432 0.844432 0.844432
Si Si4 0.509821 0.689792 0.338786
Si Si5 0.500000 0.500000 0.500000
O O1 0.202885 0.297117 0.702884
O O2 0.882271 0.543540 0.850880
O O3 0.954920 0.545081 0.954921
O O4 0.413940 0.808792 0.865756
O O5 0.516683 0.659854 0.264815
#
# Coordination Sequence:
#
# PCOD8331084 Si02
#       5
#     8  32  32  96   8
#     4  12  24  44  74  96 132 172 212 298 348 384
#     4  12  24  44  65  90 135 175 212 277 330 384
#     4  12  25  43  67  97 129 169 218 268 336 400
#     4  11  24  41  66  97 127 167 217 266 327 398
#     4  12  28  40  58  88 120 172 224 250 312 400
#
# _framework density 22.179154
#
# number of rings (size 3 to 8) (size 9 to 14) (size 15 to 20)
#    0.000    0.545    0.000    9.818    0.000    4.364 
#    0.000    5.455    0.000    0.000    0.000    0.000 
#    0.000    0.000    0.000    0.000    0.000    0.000 
#
# Total GULP energy -545538.285814 kJ/mol
# GULP energy per Si atom -12398.597405 kJ/mol
# Density = 2.212867 g / cm^3
# Si number density = 22.179154 Si / 1000 Ang^3
#
#
#
# Elastic Constant Matrix: (Units=GPa)
#
#
# Indices 1 2 3 4 5 6 
#
# 1 62.6380 24.1779 24.1804 0.0000 0.0000 0.0000
# 2 24.1779 62.6380 24.1804 0.0000 0.0000 0.0000
# 3 24.1804 24.1804 62.6414 0.0000 0.0000 0.0000
# 4 0.0000 0.0000 0.0000 41.0262 0.0000 0.0000
# 5 0.0000 0.0000 0.0000 0.0000 41.0262 0.0000
# 6 0.0000 0.0000 0.0000 0.0000 0.0000 41.0264
#
#
#
# Elastic Compliance Matrix: (Units=1/GPa)
#
#
# Indices 1 2 3 4 5 6 
#
# 1 0.020337 -0.005664 -0.005664 0.000000 0.000000 0.000000
# 2 -0.005664 0.020337 -0.005664 0.000000 0.000000 0.000000
# 3 -0.005664 -0.005664 0.020337 0.000000 0.000000 0.000000
# 4 0.000000 0.000000 0.000000 0.024375 0.000000 0.000000
# 5 0.000000 0.000000 0.000000 0.000000 0.024375 0.000000
# 6 0.000000 0.000000 0.000000 0.000000 0.000000 0.024375
#
#
# Mechanical properties :
#
#
# Convention : Reuss Voigt Hill
#
# Bulk Modulus (GPa) = 36.99939 36.99939 36.99939
# Shear Modulus (GPa) = 28.22799 32.30769 30.26784
#
# Velocity S-wave (km/s) = 3.57140 3.82077 3.69819
# Velocity P-wave (km/s) = 5.80731 6.01520 5.91217
#
# Compressibility (1/GPa) = 0.02702747
#
# Stress axis : x y z
#
# Youngs Moduli (GPa) = 49.17037 49.17037 49.17173
#
# Poissons Ratio (x) = 0.27848 0.27852
# Poissons Ratio (y) = 0.27848 0.27852
# Poissons Ratio (z) = 0.27852 0.27852
#
# Static dielectric constant tensor:
#      x y z
#    x 4.415990 0.000000 0.000000 
#    y 0.000000 4.415990 0.000000 
#    z 0.000000 0.000000 4.416010 
# 
# 
# High freq. dielectric constant tensor:
#      x y z
#    x 1.886900 0.000000 0.000000 
#    y 0.000000 1.886900 0.000000 
#    z 0.000000 0.000000 1.886900 
# 
# From -- ./inp_files/362.got.cif
#   From: 2010.03.12/outbox.cif.g09.slc.cpg/sg219_cif.got.tgz:362.got - 2010.03.30 09:07:44.
