data_PCOD8331163
_publ_section_title
;
Structure prediction by ZEFSAII (Michael W. Deem and Ramdas Pophale) SiO2 
 PCOD8331163
Probable space group: I M 3 M
;
_chemical_formula_sum "Si O2"
_cell_formula_units_Z 432
_cell_length_a 29.754948
_cell_length_b 29.754948
_cell_length_c 29.754948
_cell_angle_alpha 90.000000
_cell_angle_beta 90.000000
_cell_angle_gamma 90.000000
_cell_volume 26343.749428
_symmetry_space_group_name_H-M "I M 3 M"
_symmetry_group_IT_number 229
_symmetry_cell_setting 'cubic'
loop_
_space_group_symop_operation_xyz
x,y,z
-y,x,z
-x,-y,z
y,-x,z
x,-z,y
x,-y,-z
x,z,-y
z,y,-x
-x,y,-z
-z,y,x
z,x,y
y,z,x
-y,-z,x
z,-x,-y
-y,z,-x
-z,-x,y
-z,x,-y
y,-z,-x
y,x,-z
-y,-x,-z
-x,z,y
-x,-z,-y
z,-y,x
-z,-y,-x
-x,-y,-z
y,-x,-z
x,y,-z
-y,x,-z
-x,z,-y
-x,y,z
-x,-z,y
-z,-y,x
x,-y,z
z,-y,-x
-z,-x,-y
-y,-z,-x
y,z,-x
-z,x,y
y,-z,x
z,x,-y
z,-x,y
-y,z,x
-y,-x,z
y,x,z
x,-z,-y
x,z,y
-z,y,-x
z,y,x
1/2+x,1/2+y,1/2+z
1/2-y,1/2+x,1/2+z
1/2-x,1/2-y,1/2+z
1/2+y,1/2-x,1/2+z
1/2+x,1/2-z,1/2+y
1/2+x,1/2-y,1/2-z
1/2+x,1/2+z,1/2-y
1/2+z,1/2+y,1/2-x
1/2-x,1/2+y,1/2-z
1/2-z,1/2+y,1/2+x
1/2+z,1/2+x,1/2+y
1/2+y,1/2+z,1/2+x
1/2-y,1/2-z,1/2+x
1/2+z,1/2-x,1/2-y
1/2-y,1/2+z,1/2-x
1/2-z,1/2-x,1/2+y
1/2-z,1/2+x,1/2-y
1/2+y,1/2-z,1/2-x
1/2+y,1/2+x,1/2-z
1/2-y,1/2-x,1/2-z
1/2-x,1/2+z,1/2+y
1/2-x,1/2-z,1/2-y
1/2+z,1/2-y,1/2+x
1/2-z,1/2-y,1/2-x
1/2-x,1/2-y,1/2-z
1/2+y,1/2-x,1/2-z
1/2+x,1/2+y,1/2-z
1/2-y,1/2+x,1/2-z
1/2-x,1/2+z,1/2-y
1/2-x,1/2+y,1/2+z
1/2-x,1/2-z,1/2+y
1/2-z,1/2-y,1/2+x
1/2+x,1/2-y,1/2+z
1/2+z,1/2-y,1/2-x
1/2-z,1/2-x,1/2-y
1/2-y,1/2-z,1/2-x
1/2+y,1/2+z,1/2-x
1/2-z,1/2+x,1/2+y
1/2+y,1/2-z,1/2+x
1/2+z,1/2+x,1/2-y
1/2+z,1/2-x,1/2+y
1/2-y,1/2+z,1/2+x
1/2-y,1/2-x,1/2+z
1/2+y,1/2+x,1/2+z
1/2+x,1/2-z,1/2-y
1/2+x,1/2+z,1/2+y
1/2-z,1/2+y,1/2-x
1/2+z,1/2+y,1/2+x
loop_
_atom_site_type_symbol
_atom_site_label
_atom_site_fract_x
_atom_site_fract_y
_atom_site_fract_z
Si Si1 0.580748 0.280603 0.793421
Si Si2 0.500000 0.236574 0.837926
Si Si3 0.250000 0.676534 0.176534
Si Si4 0.418660 0.949103 0.876643
Si Si5 0.908220 0.167437 0.500000
Si Si6 0.184189 0.447445 0.625706
O O1 0.576133 0.254034 0.745967
O O2 0.543569 0.266407 0.829488
O O3 0.627476 0.270359 0.817293
O O4 0.573204 0.333904 0.785328
O O5 0.500000 0.194666 0.805335
O O6 0.500000 0.218051 0.888712
O O7 0.289618 0.710383 0.186992
O O8 0.429822 0.920670 0.920670
O O9 0.454450 0.937247 0.837726
O O10 0.367836 0.940429 0.859837
O O11 0.425067 0.000000 0.891602
O O12 0.868289 0.131712 0.500000
O O13 0.195476 0.500000 0.617360
O O14 0.194992 0.420044 0.579957
#
# Coordination Sequence:
#
# PCOD8331163 Si02
#       6
#    96  48  48  96  48  96
#     4  10  20  34  52  74  97 127 166 206 245 291
#     4   9  18  31  47  68  90 116 159 203 238 283
#     4  10  21  34  52  76 104 133 162 200 250 304
#     4   9  18  30  46  66  90 121 156 196 245 299
#     4   9  17  29  44  63  87 117 151 193 242 288
#     4  10  20  34  52  75 101 129 162 200 242 290
#
# _framework density 16.398575999999998
#
# number of rings (size 3 to 8) (size 9 to 14) (size 15 to 20)
#    0.000    2.444    1.111    1.111    3.111    0.444 
#    0.000    2.222    0.000    2.444    2.889    0.000 
#    0.000    0.000    0.000    0.000    0.000    0.000 
#
# Total GULP energy -2677766.776647 kJ/mol
# GULP energy per Si atom -12397.068410 kJ/mol
# Density = 1.636125 g / cm^3
# Si number density = 16.398576 Si / 1000 Ang^3
#
#
#
# Elastic Constant Matrix: (Units=GPa)
#
#
# Indices 1 2 3 4 5 6 
#
# 1 86.4916 47.2699 47.2699 0.0000 0.0000 0.0000
# 2 47.2699 86.4916 47.2699 0.0000 0.0000 0.0000
# 3 47.2699 47.2699 86.4916 0.0000 0.0000 0.0000
# 4 0.0000 0.0000 0.0000 23.0272 0.0000 0.0000
# 5 0.0000 0.0000 0.0000 0.0000 23.0272 0.0000
# 6 0.0000 0.0000 0.0000 0.0000 0.0000 23.0272
#
#
#
# Elastic Compliance Matrix: (Units=1/GPa)
#
#
# Indices 1 2 3 4 5 6 
#
# 1 0.018839 -0.006657 -0.006657 0.000000 0.000000 0.000000
# 2 -0.006657 0.018839 -0.006657 0.000000 0.000000 0.000000
# 3 -0.006657 -0.006657 0.018839 0.000000 0.000000 0.000000
# 4 0.000000 0.000000 0.000000 0.043427 0.000000 0.000000
# 5 0.000000 0.000000 0.000000 0.000000 0.043427 0.000000
# 6 0.000000 0.000000 0.000000 0.000000 0.000000 0.043427
#
#
# Mechanical properties :
#
#
# Convention : Reuss Voigt Hill
#
# Bulk Modulus (GPa) = 60.34382 60.34382 60.34382
# Shear Modulus (GPa) = 21.52716 21.66069 21.59392
#
# Velocity S-wave (km/s) = 3.62711 3.63835 3.63273
# Velocity P-wave (km/s) = 7.37695 7.38432 7.38063
#
# Compressibility (1/GPa) = 0.01657170
#
# Stress axis : x y z
#
# Youngs Moduli (GPa) = 53.08226 53.08226 53.08226
#
# Poissons Ratio (x) = 0.35339 0.35339
# Poissons Ratio (y) = 0.35339 0.35339
# Poissons Ratio (z) = 0.35339 0.35339
#
# Static dielectric constant tensor:
#      x y z
#    x 3.089770 0.000000 0.000000 
#    y 0.000000 3.089770 0.000000 
#    z 0.000000 0.000000 3.089770 
# 
# 
# High freq. dielectric constant tensor:
#      x y z
#    x 1.621750 0.000000 0.000000 
#    y 0.000000 1.621750 0.000000 
#    z 0.000000 0.000000 1.621750 
# 
# From -- ./inp_files/985.got.cif
#   From: 2010.03.12/outbox.cif.g09.slc.cpg/sg229_cif.got.tgz:985.got - 2010.03.30 09:10:17.
