data_PCOD8331086
_publ_section_title
;
Structure prediction by ZEFSAII (Michael W. Deem and Ramdas Pophale) SiO2 
 PCOD8331086
Probable space group: I -4 3 D
;
_chemical_formula_sum "Si O2"
_cell_formula_units_Z 188
_cell_length_a 22.630445
_cell_length_b 22.630445
_cell_length_c 22.630445
_cell_angle_alpha 90.000000
_cell_angle_beta 90.000000
_cell_angle_gamma 90.000000
_cell_volume 11589.889137
_symmetry_space_group_name_H-M "I -4 3 D"
_symmetry_group_IT_number 220
_symmetry_cell_setting 'cubic'
loop_
_space_group_symop_operation_xyz
x,y,z
1/4+y,3/4-x,1/4-z
-x,1/2-y,z
1/4-y,1/4+x,3/4-z
1/4-x,1/4+z,3/4-y
x,-y,1/2-z
3/4-x,1/4-z,1/4+y
3/4-z,1/4-y,1/4+x
1/2-x,y,-z
1/4+z,3/4-y,1/4-x
z,x,y
y,z,x
-y,1/2-z,x
z,-x,1/2-y
1/2-y,z,-x
-z,1/2-x,y
1/2-z,x,-y
y,-z,1/2-x
3/4-y,1/4-x,1/4+z
1/4+y,1/4+x,1/4+z
1/4+x,3/4-z,1/4-y
1/4+x,1/4+z,1/4+y
1/4-z,1/4+y,3/4-x
1/4+z,1/4+y,1/4+x
1/2+x,1/2+y,1/2+z
3/4+y,1/4-x,3/4-z
1/2-x,-y,1/2+z
3/4-y,3/4+x,1/4-z
3/4-x,3/4+z,1/4-y
1/2+x,1/2-y,-z
1/4-x,3/4-z,3/4+y
1/4-z,3/4-y,3/4+x
-x,1/2+y,1/2-z
3/4+z,1/4-y,3/4-x
1/2+z,1/2+x,1/2+y
1/2+y,1/2+z,1/2+x
1/2-y,-z,1/2+x
1/2+z,1/2-x,-y
-y,1/2+z,1/2-x
1/2-z,-x,1/2+y
-z,1/2+x,1/2-y
1/2+y,1/2-z,-x
1/4-y,3/4-x,3/4+z
3/4+y,3/4+x,3/4+z
3/4+x,1/4-z,3/4-y
3/4+x,3/4+z,3/4+y
3/4-z,3/4+y,1/4-x
3/4+z,3/4+y,3/4+x
loop_
_atom_site_type_symbol
_atom_site_label
_atom_site_fract_x
_atom_site_fract_y
_atom_site_fract_z
Si Si1 0.839871 0.458386 0.986830
Si Si2 0.371170 0.871170 0.628831
Si Si3 0.485127 0.183626 0.828868
Si Si4 0.494913 0.670031 0.266997
Si Si5 0.547216 0.547216 0.547216
Si Si6 0.750000 0.375000 0.500000
O O1 0.811316 0.490945 0.930005
O O2 0.835254 0.387952 0.979712
O O3 0.802099 0.477166 0.044191
O O4 0.909296 0.477069 0.995298
O O5 0.414185 0.826661 0.664853
O O6 0.411892 0.911892 0.588109
O O7 0.500000 0.250000 0.812558
O O8 0.512194 0.147766 0.773404
O O9 0.492678 0.691904 0.334624
#
# Coordination Sequence:
#
# PCOD8331086 Si02
#       6
#    48  16  48  48  16  12
#     4   9  14  23  40  68 100 115 151 201 249 288
#     4   9  15  24  36  72 105 112 150 204 252 294
#     4  11  15  24  43  73  96 129 157 202 265 293
#     4  10  17  28  42  68 100 121 166 204 247 303
#     4   9  12  21  39  66  97 120 144 189 258 289
#     4   8  20  32  44  64  92 136 168 204 232 302
#
# _framework density 16.221035000000001
#
# number of rings (size 3 to 8) (size 9 to 14) (size 15 to 20)
#    0.000    2.553   10.213    0.000    0.000    0.000 
#    0.000    0.000    0.000    0.000   26.553    0.000 
#    0.000    0.000    0.000    0.000    0.000    0.000 
#
# Total GULP energy -1164719.995290 kJ/mol
# GULP energy per Si atom -12390.638248 kJ/mol
# Density = 1.618411 g / cm^3
# Si number density = 16.221035 Si / 1000 Ang^3
#
#
#
# Elastic Constant Matrix: (Units=GPa)
#
#
# Indices 1 2 3 4 5 6 
#
# 1 82.3145 47.0994 47.0992 0.0000 0.0000 0.0000
# 2 47.0994 82.3145 47.0992 0.0000 0.0000 0.0000
# 3 47.0992 47.0992 82.3149 0.0000 0.0000 0.0000
# 4 0.0000 0.0000 0.0000 14.7365 0.0000 0.0000
# 5 0.0000 0.0000 0.0000 0.0000 14.7365 0.0000
# 6 0.0000 0.0000 0.0000 0.0000 0.0000 14.7368
#
#
#
# Elastic Compliance Matrix: (Units=1/GPa)
#
#
# Indices 1 2 3 4 5 6 
#
# 1 0.020820 -0.007577 -0.007577 0.000000 0.000000 0.000000
# 2 -0.007577 0.020820 -0.007577 0.000000 0.000000 0.000000
# 3 -0.007577 -0.007577 0.020819 0.000000 0.000000 0.000000
# 4 0.000000 0.000000 0.000000 0.067859 0.000000 0.000000
# 5 0.000000 0.000000 0.000000 0.000000 0.067859 0.000000
# 6 0.000000 0.000000 0.000000 0.000000 0.000000 0.067857
#
#
# Mechanical properties :
#
#
# Convention : Reuss Voigt Hill
#
# Bulk Modulus (GPa) = 58.83774 58.83774 58.83774
# Shear Modulus (GPa) = 15.76486 15.88505 15.82496
#
# Velocity S-wave (km/s) = 3.12088 3.13275 3.12682
# Velocity P-wave (km/s) = 7.02408 7.03113 7.02761
#
# Compressibility (1/GPa) = 0.01699589
#
# Stress axis : x y z
#
# Youngs Moduli (GPa) = 48.03158 48.03158 48.03202
#
# Poissons Ratio (x) = 0.36395 0.36394
# Poissons Ratio (y) = 0.36395 0.36394
# Poissons Ratio (z) = 0.36394 0.36394
#
# Static dielectric constant tensor:
#      x y z
#    x 3.059960 0.000000 0.000000 
#    y 0.000000 3.059960 0.000000 
#    z 0.000000 0.000000 3.059970 
# 
# 
# High freq. dielectric constant tensor:
#      x y z
#    x 1.597570 0.000000 0.000000 
#    y 0.000000 1.597570 0.000000 
#    z 0.000000 0.000000 1.597570 
# 
# From -- ./inp_files/462.got.cif
#   From: 2010.03.12/outbox.cif.g09.slc.cpg/sg220_cif.got.tgz:462.got - 2010.03.30 09:07:51.
