data_PCOD8331125
_publ_section_title
;
Structure prediction by ZEFSAII (Michael W. Deem and Ramdas Pophale) SiO2 
 PCOD8331125
Probable space group: P N 3 N
;
_chemical_formula_sum "Si O2"
_cell_formula_units_Z 276
_cell_length_a 24.405706
_cell_length_b 24.405706
_cell_length_c 24.405706
_cell_angle_alpha 90.000000
_cell_angle_beta 90.000000
_cell_angle_gamma 90.000000
_cell_volume 14536.977756
_symmetry_space_group_name_H-M "P N 3 N"
_symmetry_group_IT_number 222
_space_group.IT_coordinate_system_code '2'
_symmetry_cell_setting 'cubic'
loop_
_space_group_symop_operation_xyz
x,y,z
1/2-y,x,z
1/2-x,1/2-y,z
y,1/2-x,z
x,1/2-z,y
x,1/2-y,1/2-z
x,z,1/2-y
z,y,1/2-x
1/2-x,y,1/2-z
1/2-z,y,x
z,x,y
y,z,x
1/2-y,1/2-z,x
z,1/2-x,1/2-y
1/2-y,z,1/2-x
1/2-z,1/2-x,y
1/2-z,x,1/2-y
y,1/2-z,1/2-x
y,x,1/2-z
1/2-y,1/2-x,1/2-z
1/2-x,z,y
1/2-x,1/2-z,1/2-y
z,1/2-y,x
1/2-z,1/2-y,1/2-x
-x,-y,-z
1/2+y,-x,-z
1/2+x,1/2+y,-z
-y,1/2+x,-z
-x,1/2+z,-y
-x,1/2+y,1/2+z
-x,-z,1/2+y
-z,-y,1/2+x
1/2+x,-y,1/2+z
1/2+z,-y,-x
-z,-x,-y
-y,-z,-x
1/2+y,1/2+z,-x
-z,1/2+x,1/2+y
1/2+y,-z,1/2+x
1/2+z,1/2+x,-y
1/2+z,-x,1/2+y
-y,1/2+z,1/2+x
-y,-x,1/2+z
1/2+y,1/2+x,1/2+z
1/2+x,-z,-y
1/2+x,1/2+z,1/2+y
-z,1/2+y,-x
1/2+z,1/2+y,1/2+x
loop_
_atom_site_type_symbol
_atom_site_label
_atom_site_fract_x
_atom_site_fract_y
_atom_site_fract_z
Si Si1 0.932370 0.839675 0.752302
Si Si2 0.375411 0.558608 0.262912
Si Si3 0.833933 0.167021 0.028879
Si Si4 0.186845 0.186845 0.750000
Si Si5 0.505052 0.748918 0.084181
Si Si6 0.000000 0.250000 0.750000
Si Si7 0.130866 0.664780 0.646804
O O1 0.918620 0.802805 0.805566
O O2 0.894754 0.894754 0.750000
O O3 0.997456 0.851652 0.757282
O O4 0.437824 0.553522 0.244150
O O5 0.374284 0.586620 0.323054
O O6 0.344310 0.603443 0.224925
O O7 0.877104 0.199339 0.991193
O O8 0.785126 0.211186 0.041108
O O9 0.865758 0.148139 0.083240
O O10 0.809016 0.116293 0.995822
O O11 0.250000 0.173171 0.750000
O O12 0.159568 0.165908 0.806269
O O13 0.458710 0.750000 0.041291
#
# Coordination Sequence:
#
# PCOD8331125 Si02
#       7
#    48  48  48  24  48  12  48
#     4  11  23  41  68  97 129 159 193 249 318 409
#     4  11  22  39  59  84 120 160 207 250 300 368
#     4   9  21  34  56  79 113 152 201 247 298 350
#     4  11  22  30  46  80 124 158 196 234 282 370
#     4  10  22  38  56  82 113 154 204 253 299 346
#     4   8  16  36  52  76 114 152 196 248 288 348
#     4  11  22  34  55  84 120 163 203 242 307 356
#
# _framework density 18.986065
#
# number of rings (size 3 to 8) (size 9 to 14) (size 15 to 20)
#    0.000    1.652    3.478    0.870    4.870    1.739 
#    0.000    0.000    0.000    1.391    0.000    0.000 
#    0.000    4.522    0.000    0.000    0.000    0.000 
#
# Total GULP energy -3419175.701760 kJ/mol
# GULP energy per Si atom -12388.317760 kJ/mol
# Density = 1.894285 g / cm^3
# Si number density = 18.986065 Si / 1000 Ang^3
#
#
#
# Elastic Constant Matrix: (Units=GPa)
#
#
# Indices 1 2 3 4 5 6 
#
# 1 91.3488 36.4209 36.4209 0.0000 0.0000 0.0000
# 2 36.4209 91.3488 36.4209 0.0000 0.0000 0.0000
# 3 36.4209 36.4209 91.3488 0.0000 0.0000 0.0000
# 4 0.0000 0.0000 0.0000 25.3704 0.0000 0.0000
# 5 0.0000 0.0000 0.0000 0.0000 25.3704 0.0000
# 6 0.0000 0.0000 0.0000 0.0000 0.0000 25.3704
#
#
#
# Elastic Compliance Matrix: (Units=1/GPa)
#
#
# Indices 1 2 3 4 5 6 
#
# 1 0.014167 -0.004038 -0.004038 0.000000 0.000000 0.000000
# 2 -0.004038 0.014167 -0.004038 0.000000 0.000000 0.000000
# 3 -0.004038 -0.004038 0.014167 0.000000 0.000000 0.000000
# 4 0.000000 0.000000 0.000000 0.039416 0.000000 0.000000
# 5 0.000000 0.000000 0.000000 0.000000 0.039416 0.000000
# 6 0.000000 0.000000 0.000000 0.000000 0.000000 0.039416
#
#
# Mechanical properties :
#
#
# Convention : Reuss Voigt Hill
#
# Bulk Modulus (GPa) = 54.73017 54.73017 54.73017
# Shear Modulus (GPa) = 26.16834 26.20784 26.18809
#
# Velocity S-wave (km/s) = 3.71656 3.71937 3.71797
# Velocity P-wave (km/s) = 6.87795 6.87997 6.87896
#
# Compressibility (1/GPa) = 0.01827146
#
# Stress axis : x y z
#
# Youngs Moduli (GPa) = 70.58519 70.58519 70.58519
#
# Poissons Ratio (x) = 0.28505 0.28505
# Poissons Ratio (y) = 0.28505 0.28505
# Poissons Ratio (z) = 0.28505 0.28505
#
# Static dielectric constant tensor:
#      x y z
#    x 3.715440 0.000000 0.000000 
#    y 0.000000 3.715440 0.000000 
#    z 0.000000 0.000000 3.715440 
# 
# 
# High freq. dielectric constant tensor:
#      x y z
#    x 1.730850 0.000000 0.000000 
#    y 0.000000 1.730850 0.000000 
#    z 0.000000 0.000000 1.730850 
# 
# From -- ./inp_files/502.got.cif
#   From: 2010.03.12/outbox.cif.g09.slc.cpg/sg222_cif.got.tgz:502.got - 2010.03.30 09:08:40.
