data_PCOD8331161
_publ_section_title
;
Structure prediction by ZEFSAII (Michael W. Deem and Ramdas Pophale) SiO2 
 PCOD8331161
Probable space group: I M 3 M
;
_chemical_formula_sum "Si O2"
_cell_formula_units_Z 312
_cell_length_a 25.838124
_cell_length_b 25.838124
_cell_length_c 25.838124
_cell_angle_alpha 90.000000
_cell_angle_beta 90.000000
_cell_angle_gamma 90.000000
_cell_volume 17249.755130
_symmetry_space_group_name_H-M "I M 3 M"
_symmetry_group_IT_number 229
_symmetry_cell_setting 'cubic'
loop_
_space_group_symop_operation_xyz
x,y,z
-y,x,z
-x,-y,z
y,-x,z
x,-z,y
x,-y,-z
x,z,-y
z,y,-x
-x,y,-z
-z,y,x
z,x,y
y,z,x
-y,-z,x
z,-x,-y
-y,z,-x
-z,-x,y
-z,x,-y
y,-z,-x
y,x,-z
-y,-x,-z
-x,z,y
-x,-z,-y
z,-y,x
-z,-y,-x
-x,-y,-z
y,-x,-z
x,y,-z
-y,x,-z
-x,z,-y
-x,y,z
-x,-z,y
-z,-y,x
x,-y,z
z,-y,-x
-z,-x,-y
-y,-z,-x
y,z,-x
-z,x,y
y,-z,x
z,x,-y
z,-x,y
-y,z,x
-y,-x,z
y,x,z
x,-z,-y
x,z,y
-z,y,-x
z,y,x
1/2+x,1/2+y,1/2+z
1/2-y,1/2+x,1/2+z
1/2-x,1/2-y,1/2+z
1/2+y,1/2-x,1/2+z
1/2+x,1/2-z,1/2+y
1/2+x,1/2-y,1/2-z
1/2+x,1/2+z,1/2-y
1/2+z,1/2+y,1/2-x
1/2-x,1/2+y,1/2-z
1/2-z,1/2+y,1/2+x
1/2+z,1/2+x,1/2+y
1/2+y,1/2+z,1/2+x
1/2-y,1/2-z,1/2+x
1/2+z,1/2-x,1/2-y
1/2-y,1/2+z,1/2-x
1/2-z,1/2-x,1/2+y
1/2-z,1/2+x,1/2-y
1/2+y,1/2-z,1/2-x
1/2+y,1/2+x,1/2-z
1/2-y,1/2-x,1/2-z
1/2-x,1/2+z,1/2+y
1/2-x,1/2-z,1/2-y
1/2+z,1/2-y,1/2+x
1/2-z,1/2-y,1/2-x
1/2-x,1/2-y,1/2-z
1/2+y,1/2-x,1/2-z
1/2+x,1/2+y,1/2-z
1/2-y,1/2+x,1/2-z
1/2-x,1/2+z,1/2-y
1/2-x,1/2+y,1/2+z
1/2-x,1/2-z,1/2+y
1/2-z,1/2-y,1/2+x
1/2+x,1/2-y,1/2+z
1/2+z,1/2-y,1/2-x
1/2-z,1/2-x,1/2-y
1/2-y,1/2-z,1/2-x
1/2+y,1/2+z,1/2-x
1/2-z,1/2+x,1/2+y
1/2+y,1/2-z,1/2+x
1/2+z,1/2+x,1/2-y
1/2+z,1/2-x,1/2+y
1/2-y,1/2+z,1/2+x
1/2-y,1/2-x,1/2+z
1/2+y,1/2+x,1/2+z
1/2+x,1/2-z,1/2-y
1/2+x,1/2+z,1/2+y
1/2-z,1/2+y,1/2-x
1/2+z,1/2+y,1/2+x
loop_
_atom_site_type_symbol
_atom_site_label
_atom_site_fract_x
_atom_site_fract_y
_atom_site_fract_z
Si Si1 0.776679 0.941903 0.140464
Si Si2 0.812371 0.667498 0.940456
Si Si3 0.942390 0.296314 0.703687
Si Si4 0.438466 0.438466 0.000000
Si Si5 0.376828 0.623173 0.913636
O O1 0.796353 0.904629 0.095372
O O2 0.806702 0.928799 0.193299
O O3 0.716167 0.934148 0.150018
O O4 0.788526 0.000000 0.122003
O O5 0.755948 0.681319 0.915519
O O6 0.838684 0.620093 0.911671
O O7 0.805603 0.650879 0.000000
O O8 0.947198 0.340035 0.659966
O O9 0.000000 0.278990 0.721011
O O10 0.500000 0.427517 0.000000
O O11 0.412981 0.412981 0.949128
#
# Coordination Sequence:
#
# PCOD8331161 Si02
#       5
#    96  96  48  24  48
#     4  10  19  34  55  81 113 153 189 233 285 344
#     4  10  20  34  56  81 112 146 187 232 289 352
#     4  10  20  37  56  79 111 148 184 230 290 353
#     4  11  26  46  64  84 118 160 206 262 320 366
#     4  12  21  38  60  85 110 148 196 244 295 356
#
# _framework density 18.087213999999999
#
# number of rings (size 3 to 8) (size 9 to 14) (size 15 to 20)
#    0.000    1.615    3.846    2.154    0.000    0.308 
#    0.000    0.000    0.000    0.000    0.000    4.308 
#    0.000    0.000    0.000    9.538    0.000    0.000 
#
# Total GULP energy -1934131.628290 kJ/mol
# GULP energy per Si atom -12398.279669 kJ/mol
# Density = 1.804605 g / cm^3
# Si number density = 18.087214 Si / 1000 Ang^3
#
#
#
# Elastic Constant Matrix: (Units=GPa)
#
#
# Indices 1 2 3 4 5 6 
#
# 1 94.8502 44.1636 44.1636 0.0000 0.0000 0.0000
# 2 44.1636 94.8502 44.1636 0.0000 0.0000 0.0000
# 3 44.1636 44.1636 94.8502 0.0000 0.0000 0.0000
# 4 0.0000 0.0000 0.0000 29.3532 0.0000 0.0000
# 5 0.0000 0.0000 0.0000 0.0000 29.3532 0.0000
# 6 0.0000 0.0000 0.0000 0.0000 0.0000 29.3532
#
#
#
# Elastic Compliance Matrix: (Units=1/GPa)
#
#
# Indices 1 2 3 4 5 6 
#
# 1 0.014972 -0.004757 -0.004757 0.000000 0.000000 0.000000
# 2 -0.004757 0.014972 -0.004757 0.000000 0.000000 0.000000
# 3 -0.004757 -0.004757 0.014972 0.000000 0.000000 0.000000
# 4 0.000000 0.000000 0.000000 0.034068 0.000000 0.000000
# 5 0.000000 0.000000 0.000000 0.000000 0.034068 0.000000
# 6 0.000000 0.000000 0.000000 0.000000 0.000000 0.034068
#
#
# Mechanical properties :
#
#
# Convention : Reuss Voigt Hill
#
# Bulk Modulus (GPa) = 61.05914 61.05914 61.05914
# Shear Modulus (GPa) = 27.60605 27.74926 27.67765
#
# Velocity S-wave (km/s) = 3.91099 3.92113 3.91606
# Velocity P-wave (km/s) = 7.36383 7.37101 7.36742
#
# Compressibility (1/GPa) = 0.01637756
#
# Stress axis : x y z
#
# Youngs Moduli (GPa) = 66.78938 66.78939 66.78939
#
# Poissons Ratio (x) = 0.31769 0.31769
# Poissons Ratio (y) = 0.31769 0.31769
# Poissons Ratio (z) = 0.31769 0.31769
#
# Static dielectric constant tensor:
#      x y z
#    x 3.287950 0.000000 0.000000 
#    y 0.000000 3.287950 0.000000 
#    z 0.000000 0.000000 3.287950 
# 
# 
# High freq. dielectric constant tensor:
#      x y z
#    x 1.698890 0.000000 0.000000 
#    y 0.000000 1.698890 0.000000 
#    z 0.000000 0.000000 1.698890 
# 
# From -- ./inp_files/779.got.cif
#   From: 2010.03.12/outbox.cif.g09.slc.cpg/sg229_cif.got.tgz:779.got - 2010.03.30 09:10:17.
