data_PCOD8331057
_publ_section_title
;
Structure prediction by ZEFSAII (Michael W. Deem and Ramdas Pophale) SiO2 
 PCOD8331057
Probable space group: I -4 3 M 
;
_chemical_formula_sum "Si O2"
_cell_formula_units_Z 276
_cell_length_a 25.168576
_cell_length_b 25.168576
_cell_length_c 25.168576
_cell_angle_alpha 90.000000
_cell_angle_beta 90.000000
_cell_angle_gamma 90.000000
_cell_volume 15943.216131
_symmetry_space_group_name_H-M "I -4 3 M "
_symmetry_group_IT_number 217
_symmetry_cell_setting 'cubic'
loop_
_space_group_symop_operation_xyz
x,y,z
y,-x,-z
-x,-y,z
-y,x,-z
-x,z,-y
x,-y,-z
-x,-z,y
-z,-y,x
-x,y,-z
z,-y,-x
z,x,y
y,z,x
-y,-z,x
z,-x,-y
-y,z,-x
-z,-x,y
-z,x,-y
y,-z,-x
-y,-x,z
y,x,z
x,-z,-y
x,z,y
-z,y,-x
z,y,x
1/2+x,1/2+y,1/2+z
1/2+y,1/2-x,1/2-z
1/2-x,1/2-y,1/2+z
1/2-y,1/2+x,1/2-z
1/2-x,1/2+z,1/2-y
1/2+x,1/2-y,1/2-z
1/2-x,1/2-z,1/2+y
1/2-z,1/2-y,1/2+x
1/2-x,1/2+y,1/2-z
1/2+z,1/2-y,1/2-x
1/2+z,1/2+x,1/2+y
1/2+y,1/2+z,1/2+x
1/2-y,1/2-z,1/2+x
1/2+z,1/2-x,1/2-y
1/2-y,1/2+z,1/2-x
1/2-z,1/2-x,1/2+y
1/2-z,1/2+x,1/2-y
1/2+y,1/2-z,1/2-x
1/2-y,1/2-x,1/2+z
1/2+y,1/2+x,1/2+z
1/2+x,1/2-z,1/2-y
1/2+x,1/2+z,1/2+y
1/2-z,1/2+y,1/2-x
1/2+z,1/2+y,1/2+x
loop_
_atom_site_type_symbol
_atom_site_label
_atom_site_fract_x
_atom_site_fract_y
_atom_site_fract_z
Si Si1 0.651418 0.487474 0.850799
Si Si2 0.132649 0.529465 0.867352
Si Si3 0.000000 0.000000 0.571312
Si Si4 0.628908 0.923061 0.076940
Si Si5 0.085724 0.754439 0.509436
Si Si6 0.240619 0.845597 0.067306
Si Si7 0.920063 0.079938 0.430103
Si Si8 0.168204 0.998901 0.915798
O O1 0.620428 0.542979 0.837249
O O2 0.708406 0.503860 0.872947
O O3 0.662691 0.449893 0.800849
O O4 0.619889 0.453728 0.894343
O O5 0.105108 0.579287 0.894893
O O6 0.195092 0.530339 0.880748
O O7 0.110829 0.474481 0.889172
O O8 0.960747 0.960747 0.538657
O O9 0.034522 0.965479 0.610885
O O10 0.054095 0.766739 0.455199
O O11 0.210509 0.789492 0.075352
O O12 0.237301 0.877441 0.122560
O O13 0.214784 0.878271 0.019313
O O14 0.148618 0.045911 0.954090
O O15 0.117831 0.979922 0.882170
O O16 0.190579 0.949247 0.949247
#
# Coordination Sequence:
#
# PCOD8331057 Si02
#       8
#    48  24  12  24  48  48  24  48
#     4  11  21  38  54  82 109 147 185 235 275 338
#     4  12  22  37  56  80 113 154 181 232 280 346
#     4   8  20  29  48  80 104 146 178 216 242 343
#     4  10  22  35  54  82 118 150 185 216 283 335
#     4  11  23  37  56  78 108 147 187 221 276 337
#     4  10  21  36  56  78 107 141 186 235 290 336
#     4  10  20  35  54  78 111 143 181 218 278 318
#     4   9  17  29  45  70  97 133 165 207 254 317
#
# _framework density 17.311437999999999
#
# number of rings (size 3 to 8) (size 9 to 14) (size 15 to 20)
#    0.000    1.739    4.348    0.522    2.435    4.522 
#    0.000    0.000    0.000    1.391    0.000    0.000 
#    0.000    0.000    0.000    0.000    0.000    0.000 
#
# Total GULP energy -1710456.221753 kJ/mol
# GULP energy per Si atom -12394.610303 kJ/mol
# Density = 1.727204 g / cm^3
# Si number density = 17.311438 Si / 1000 Ang^3
#
#
#
# Elastic Constant Matrix: (Units=GPa)
#
#
# Indices 1 2 3 4 5 6 
#
# 1 74.7011 23.0085 23.0085 0.0000 0.0000 0.0000
# 2 23.0085 74.7011 23.0085 0.0000 0.0000 0.0000
# 3 23.0085 23.0085 74.7011 0.0000 0.0000 0.0000
# 4 0.0000 0.0000 0.0000 22.3795 0.0000 0.0000
# 5 0.0000 0.0000 0.0000 0.0000 22.3795 0.0000
# 6 0.0000 0.0000 0.0000 0.0000 0.0000 22.3795
#
#
#
# Elastic Compliance Matrix: (Units=1/GPa)
#
#
# Indices 1 2 3 4 5 6 
#
# 1 0.015658 -0.003687 -0.003687 0.000000 0.000000 0.000000
# 2 -0.003687 0.015658 -0.003687 0.000000 0.000000 0.000000
# 3 -0.003687 -0.003687 0.015658 0.000000 0.000000 0.000000
# 4 0.000000 0.000000 0.000000 0.044684 0.000000 0.000000
# 5 0.000000 0.000000 0.000000 0.000000 0.044684 0.000000
# 6 0.000000 0.000000 0.000000 0.000000 0.000000 0.044684
#
#
# Mechanical properties :
#
#
# Convention : Reuss Voigt Hill
#
# Bulk Modulus (GPa) = 40.23937 40.23937 40.23937
# Shear Modulus (GPa) = 23.64828 23.76621 23.70725
#
# Velocity S-wave (km/s) = 3.70002 3.70923 3.70463
# Velocity P-wave (km/s) = 6.44580 6.45286 6.44933
#
# Compressibility (1/GPa) = 0.02485128
#
# Stress axis : x y z
#
# Youngs Moduli (GPa) = 63.86502 63.86502 63.86502
#
# Poissons Ratio (x) = 0.23548 0.23548
# Poissons Ratio (y) = 0.23548 0.23548
# Poissons Ratio (z) = 0.23548 0.23548
#
# Static dielectric constant tensor:
#      x y z
#    x 3.231120 0.000000 0.000000 
#    y 0.000000 3.231120 0.000000 
#    z 0.000000 0.000000 3.231120 
# 
# 
# High freq. dielectric constant tensor:
#      x y z
#    x 1.662620 0.000000 0.000000 
#    y 0.000000 1.662620 0.000000 
#    z 0.000000 0.000000 1.662620 
# 
# From -- ./inp_files/683.got.cif
#   From: 2010.03.12/outbox.cif.g09.slc.cpg/sg217_cif.got.tgz:683.got - 2010.03.30 09:07:03.
