data_PCOD8331080
_publ_section_title
;
Structure prediction by ZEFSAII (Michael W. Deem and Ramdas Pophale) SiO2 
 PCOD8331080
Probable space group: F -4 3 C
;
_chemical_formula_sum "Si O2"
_cell_formula_units_Z 344
_cell_length_a 24.307982
_cell_length_b 24.307982
_cell_length_c 24.307982
_cell_angle_alpha 90.000000
_cell_angle_beta 90.000000
_cell_angle_gamma 90.000000
_cell_volume 14363.051519
_symmetry_space_group_name_H-M "F -4 3 C"
_symmetry_group_IT_number 219
_symmetry_cell_setting 'cubic'
loop_
_space_group_symop_operation_xyz
x,y,z
y,-x,1/2-z
-x,-y,z
-y,x,1/2-z
-x,z,1/2-y
x,-y,-z
-x,-z,1/2+y
-z,-y,1/2+x
-x,y,-z
z,-y,1/2-x
z,x,y
y,z,x
-y,-z,x
z,-x,-y
-y,z,-x
-z,-x,y
-z,x,-y
y,-z,-x
-y,-x,1/2+z
y,x,1/2+z
x,-z,1/2-y
x,z,1/2+y
-z,y,1/2-x
z,y,1/2+x
x,1/2+y,1/2+z
y,1/2-x,-z
-x,1/2-y,1/2+z
-y,1/2+x,-z
-x,1/2+z,-y
x,1/2-y,1/2-z
-x,1/2-z,y
-z,1/2-y,x
-x,1/2+y,1/2-z
z,1/2-y,-x
z,1/2+x,1/2+y
y,1/2+z,1/2+x
-y,1/2-z,1/2+x
z,1/2-x,1/2-y
-y,1/2+z,1/2-x
-z,1/2-x,1/2+y
-z,1/2+x,1/2-y
y,1/2-z,1/2-x
-y,1/2-x,z
y,1/2+x,z
x,1/2-z,-y
x,1/2+z,y
-z,1/2+y,-x
z,1/2+y,x
1/2+x,y,1/2+z
1/2+y,-x,-z
1/2-x,-y,1/2+z
1/2-y,x,-z
1/2-x,z,-y
1/2+x,-y,1/2-z
1/2-x,-z,y
1/2-z,-y,x
1/2-x,y,1/2-z
1/2+z,-y,-x
1/2+z,x,1/2+y
1/2+y,z,1/2+x
1/2-y,-z,1/2+x
1/2+z,-x,1/2-y
1/2-y,z,1/2-x
1/2-z,-x,1/2+y
1/2-z,x,1/2-y
1/2+y,-z,1/2-x
1/2-y,-x,z
1/2+y,x,z
1/2+x,-z,-y
1/2+x,z,y
1/2-z,y,-x
1/2+z,y,x
1/2+x,1/2+y,z
1/2+y,1/2-x,1/2-z
1/2-x,1/2-y,z
1/2-y,1/2+x,1/2-z
1/2-x,1/2+z,1/2-y
1/2+x,1/2-y,-z
1/2-x,1/2-z,1/2+y
1/2-z,1/2-y,1/2+x
1/2-x,1/2+y,-z
1/2+z,1/2-y,1/2-x
1/2+z,1/2+x,y
1/2+y,1/2+z,x
1/2-y,1/2-z,x
1/2+z,1/2-x,-y
1/2-y,1/2+z,-x
1/2-z,1/2-x,y
1/2-z,1/2+x,-y
1/2+y,1/2-z,-x
1/2-y,1/2-x,1/2+z
1/2+y,1/2+x,1/2+z
1/2+x,1/2-z,1/2-y
1/2+x,1/2+z,1/2+y
1/2-z,1/2+y,1/2-x
1/2+z,1/2+y,1/2+x
loop_
_atom_site_type_symbol
_atom_site_label
_atom_site_fract_x
_atom_site_fract_y
_atom_site_fract_z
Si Si1 0.024446 0.733577 0.170333
Si Si2 0.574846 0.574846 0.574846
Si Si3 0.500760 0.826069 0.937057
Si Si4 0.602260 0.602261 0.897741
Si Si5 0.750000 0.616777 0.250000
Si Si6 0.000000 0.500000 0.500000
Si Si7 0.822335 0.322335 0.822335
O O1 0.086144 0.732118 0.193335
O O2 0.006757 0.795686 0.185984
O O3 0.012167 0.724554 0.105429
O O4 0.554205 0.636811 0.571829
O O5 0.537236 0.537236 0.537236
O O6 0.445357 0.860433 0.924664
O O7 0.500000 0.804060 0.000000
O O8 0.639952 0.639953 0.860049
O O9 0.805299 0.649187 0.234854
#
# Coordination Sequence:
#
# PCOD8331080 Si02
#       7
#    96  32  96  32  48   8  32
#     4   9  21  46  73  98 146 203 249 319 404 449
#     4  12  21  37  64  94 145 210 255 322 374 445
#     4  12  23  40  71 105 151 209 261 318 373 470
#     4  12  22  40  69 108 148 202 259 314 394 447
#     4  10  23  45  72 106 138 182 238 324 396 466
#     4  12  16  40  60  72 142 208 276 268 386 460
#     4  12  24  43  82 109 139 183 250 323 397 495
#
# _framework density 23.950341000000002
#
# number of rings (size 3 to 8) (size 9 to 14) (size 15 to 20)
#    0.000    1.395    4.186    3.907    0.000    2.233 
#    0.000    2.791   15.349    0.000    0.000    0.000 
#    0.000    0.000    0.000    0.000    0.000    0.000 
#
# Total GULP energy -1065497.196690 kJ/mol
# GULP energy per Si atom -12389.502287 kJ/mol
# Density = 2.389583 g / cm^3
# Si number density = 23.950341 Si / 1000 Ang^3
#
#
#
# Elastic Constant Matrix: (Units=GPa)
#
#
# Indices 1 2 3 4 5 6 
#
# 1 117.5099 43.8901 43.8902 0.0000 0.0000 0.0000
# 2 43.8901 117.5099 43.8902 0.0000 0.0000 0.0000
# 3 43.8902 43.8902 117.5100 0.0000 0.0000 0.0000
# 4 0.0000 0.0000 0.0000 21.9671 0.0000 0.0000
# 5 0.0000 0.0000 0.0000 0.0000 21.9671 0.0000
# 6 0.0000 0.0000 0.0000 0.0000 0.0000 21.9628
#
#
#
# Elastic Compliance Matrix: (Units=1/GPa)
#
#
# Indices 1 2 3 4 5 6 
#
# 1 0.010679 -0.002904 -0.002904 0.000000 0.000000 0.000000
# 2 -0.002904 0.010679 -0.002904 0.000000 0.000000 0.000000
# 3 -0.002904 -0.002904 0.010679 0.000000 0.000000 0.000000
# 4 0.000000 0.000000 0.000000 0.045523 0.000000 0.000000
# 5 0.000000 0.000000 0.000000 0.000000 0.045523 0.000000
# 6 0.000000 0.000000 0.000000 0.000000 0.000000 0.045532
#
#
# Mechanical properties :
#
#
# Convention : Reuss Voigt Hill
#
# Bulk Modulus (GPa) = 68.43010 68.43010 68.43010
# Shear Modulus (GPa) = 26.19037 27.90337 27.04687
#
# Velocity S-wave (km/s) = 3.31044 3.41699 3.36414
# Velocity P-wave (km/s) = 6.57615 6.64842 6.61238
#
# Compressibility (1/GPa) = 0.01461345
#
# Stress axis : x y z
#
# Youngs Moduli (GPa) = 93.63949 93.63949 93.63949
#
# Poissons Ratio (x) = 0.27193 0.27193
# Poissons Ratio (y) = 0.27193 0.27193
# Poissons Ratio (z) = 0.27193 0.27193
#
# Static dielectric constant tensor:
#      x y z
#    x 4.474840 0.000000 0.000000 
#    y 0.000000 4.474840 0.000000 
#    z 0.000000 0.000000 4.474800 
# 
# 
# High freq. dielectric constant tensor:
#      x y z
#    x 1.949300 0.000000 0.000000 
#    y 0.000000 1.949300 0.000000 
#    z 0.000000 0.000000 1.949300 
# 
# From -- ./inp_files/508.got.cif
#   From: 2010.03.12/outbox.cif.g09.slc.cpg/sg219_cif.got.tgz:508.got - 2010.03.30 09:07:44.
