data_PCOD8331037
_publ_section_title
;
Structure prediction by ZEFSAII (Michael W. Deem and Ramdas Pophale) SiO2 
 PCOD8331037
Probable space group: P -4 3 M
;
_chemical_formula_sum "Si O2"
_cell_formula_units_Z 168
_cell_length_a 21.258933
_cell_length_b 21.258933
_cell_length_c 21.258933
_cell_angle_alpha 90.000000
_cell_angle_beta 90.000000
_cell_angle_gamma 90.000000
_cell_volume 9607.809636
_symmetry_space_group_name_H-M "P -4 3 M"
_symmetry_group_IT_number 215
_symmetry_cell_setting 'cubic'
loop_
_space_group_symop_operation_xyz
x,y,z
y,-x,-z
-x,-y,z
-y,x,-z
-x,z,-y
x,-y,-z
-x,-z,y
-z,-y,x
-x,y,-z
z,-y,-x
z,x,y
y,z,x
-y,-z,x
z,-x,-y
-y,z,-x
-z,-x,y
-z,x,-y
y,-z,-x
-y,-x,z
y,x,z
x,-z,-y
x,z,y
-z,y,-x
z,y,x
loop_
_atom_site_type_symbol
_atom_site_label
_atom_site_fract_x
_atom_site_fract_y
_atom_site_fract_z
Si Si1 0.642915 0.850154 0.746848
Si Si2 0.419471 0.214915 0.317615
Si Si3 0.445988 0.856165 0.958114
Si Si4 0.500851 0.599588 0.699725
Si Si5 0.331653 0.151392 0.950748
Si Si6 0.238360 0.502091 0.133042
Si Si7 0.999933 0.897251 0.794585
O O1 0.644285 0.783330 0.783330
O O2 0.682537 0.843779 0.682537
O O3 0.674076 0.903600 0.790237
O O4 0.571385 0.871842 0.730356
O O5 0.397818 0.264829 0.264829
O O6 0.358901 0.196958 0.358901
O O7 0.475654 0.243201 0.359029
O O8 0.448354 0.151883 0.288231
O O9 0.423971 0.903156 0.903156
O O10 0.478761 0.792780 0.931500
O O11 0.500000 0.889465 0.000000
O O12 0.385895 0.836865 0.998628
O O13 0.445773 0.554228 0.674690
O O14 0.560259 0.560259 0.724920
O O15 0.523325 0.642042 0.642042
O O16 0.347462 0.087556 0.912445
O O17 0.265990 0.145655 0.986989
O O18 0.185097 0.508456 0.185097
O O19 0.060250 0.939751 0.780063
O O20 0.014733 0.853971 0.853971
O O21 0.939410 0.939410 0.810615
#
# Coordination Sequence:
#
# PCOD8331037 Si02
#       7
#    24  24  24  24  24  24  24
#     4  10  19  33  52  75 103 136 172 208 252 306
#     4   9  17  31  50  70  93 125 165 208 251 299
#     4  11  20  33  54  78 105 134 161 197 247 304
#     4   9  16  25  39  61  90 123 158 196 241 294
#     4  10  20  34  52  78 107 135 169 208 252 303
#     4   9  19  34  51  73 102 131 163 209 256 300
#     4  10  20  34  52  75 106 144 185 224 258 294
#
# _framework density 17.485773999999999
#
# number of rings (size 3 to 8) (size 9 to 14) (size 15 to 20)
#    0.000    2.286    1.429    2.143    0.000    3.286 
#    0.000    2.857    0.000    4.000    0.000    2.000 
#    0.000    0.000    0.000    0.000    0.000    0.000 
#
# Total GULP energy -2083081.795683 kJ/mol
# GULP energy per Si atom -12399.296403 kJ/mol
# Density = 1.744598 g / cm^3
# Si number density = 17.485774 Si / 1000 Ang^3
#
#
#
# Elastic Constant Matrix: (Units=GPa)
#
#
# Indices 1 2 3 4 5 6 
#
# 1 75.0479 31.0076 31.0076 0.0000 0.0000 0.0000
# 2 31.0076 75.0479 31.0076 0.0000 0.0000 0.0000
# 3 31.0076 31.0076 75.0479 0.0000 0.0000 0.0000
# 4 0.0000 0.0000 0.0000 24.9039 0.0000 0.0000
# 5 0.0000 0.0000 0.0000 0.0000 24.9039 0.0000
# 6 0.0000 0.0000 0.0000 0.0000 0.0000 24.9039
#
#
#
# Elastic Compliance Matrix: (Units=1/GPa)
#
#
# Indices 1 2 3 4 5 6 
#
# 1 0.017570 -0.005137 -0.005137 0.000000 0.000000 0.000000
# 2 -0.005137 0.017570 -0.005137 0.000000 0.000000 0.000000
# 3 -0.005137 -0.005137 0.017570 0.000000 0.000000 0.000000
# 4 0.000000 0.000000 0.000000 0.040154 0.000000 0.000000
# 5 0.000000 0.000000 0.000000 0.000000 0.040154 0.000000
# 6 0.000000 0.000000 0.000000 0.000000 0.000000 0.040154
#
#
# Mechanical properties :
#
#
# Convention : Reuss Voigt Hill
#
# Bulk Modulus (GPa) = 45.68769 45.68769 45.68769
# Shear Modulus (GPa) = 23.66430 23.75043 23.70737
#
# Velocity S-wave (km/s) = 3.68278 3.68947 3.68613
# Velocity P-wave (km/s) = 6.65350 6.65844 6.65597
#
# Compressibility (1/GPa) = 0.02188773
#
# Stress axis : x y z
#
# Youngs Moduli (GPa) = 56.91646 56.91646 56.91646
#
# Poissons Ratio (x) = 0.29237 0.29237
# Poissons Ratio (y) = 0.29237 0.29237
# Poissons Ratio (z) = 0.29237 0.29237
#
# Static dielectric constant tensor:
#      x y z
#    x 3.203790 0.000000 0.000000 
#    y 0.000000 3.203790 0.000000 
#    z 0.000000 0.000000 3.203790 
# 
# 
# High freq. dielectric constant tensor:
#      x y z
#    x 1.666800 0.000000 0.000000 
#    y 0.000000 1.666800 0.000000 
#    z 0.000000 0.000000 1.666800 
# 
# From -- ./inp_files/913.got.cif
#   From: 2010.03.12/outbox.cif.g09.slc.cpg/sg215_cif.got.tgz:913.got - 2010.03.30 09:06:09.
