data_PCOD8331100
_publ_section_title
;
Structure prediction by ZEFSAII (Michael W. Deem and Ramdas Pophale) SiO2 
 PCOD8331100
Probable space group: I -4 3 D
;
_chemical_formula_sum "Si O2"
_cell_formula_units_Z 120
_cell_length_a 16.869916
_cell_length_b 16.869916
_cell_length_c 16.869916
_cell_angle_alpha 90.000000
_cell_angle_beta 90.000000
_cell_angle_gamma 90.000000
_cell_volume 4801.077985
_symmetry_space_group_name_H-M "I -4 3 D"
_symmetry_group_IT_number 220
_symmetry_cell_setting 'cubic'
loop_
_space_group_symop_operation_xyz
x,y,z
1/4+y,3/4-x,1/4-z
-x,1/2-y,z
1/4-y,1/4+x,3/4-z
1/4-x,1/4+z,3/4-y
x,-y,1/2-z
3/4-x,1/4-z,1/4+y
3/4-z,1/4-y,1/4+x
1/2-x,y,-z
1/4+z,3/4-y,1/4-x
z,x,y
y,z,x
-y,1/2-z,x
z,-x,1/2-y
1/2-y,z,-x
-z,1/2-x,y
1/2-z,x,-y
y,-z,1/2-x
3/4-y,1/4-x,1/4+z
1/4+y,1/4+x,1/4+z
1/4+x,3/4-z,1/4-y
1/4+x,1/4+z,1/4+y
1/4-z,1/4+y,3/4-x
1/4+z,1/4+y,1/4+x
1/2+x,1/2+y,1/2+z
3/4+y,1/4-x,3/4-z
1/2-x,-y,1/2+z
3/4-y,3/4+x,1/4-z
3/4-x,3/4+z,1/4-y
1/2+x,1/2-y,-z
1/4-x,3/4-z,3/4+y
1/4-z,3/4-y,3/4+x
-x,1/2+y,1/2-z
3/4+z,1/4-y,3/4-x
1/2+z,1/2+x,1/2+y
1/2+y,1/2+z,1/2+x
1/2-y,-z,1/2+x
1/2+z,1/2-x,-y
-y,1/2+z,1/2-x
1/2-z,-x,1/2+y
-z,1/2+x,1/2-y
1/2+y,1/2-z,-x
1/4-y,3/4-x,3/4+z
3/4+y,3/4+x,3/4+z
3/4+x,1/4-z,3/4-y
3/4+x,3/4+z,3/4+y
3/4-z,3/4+y,1/4-x
3/4+z,3/4+y,3/4+x
loop_
_atom_site_type_symbol
_atom_site_label
_atom_site_fract_x
_atom_site_fract_y
_atom_site_fract_z
Si Si1 0.756726 0.101049 0.180020
Si Si2 0.567551 0.651098 0.999676
Si Si3 0.000000 0.750000 0.869933
O O1 0.839004 0.115798 0.224061
O O2 0.734974 0.181437 0.136301
O O3 0.770781 0.031871 0.114469
O O4 0.688941 0.076105 0.243759
O O5 0.508322 0.673944 0.072025
#
# Coordination Sequence:
#
# PCOD8331100 Si02
#       3
#    48  48  24
#     4  12  26  51  78 117 161 213 277 345 421 516
#     4  12  26  51  78 117 161 213 277 345 421 516
#     4  12  28  46  80 112 160 214 260 348 418 488
#
# _framework density 24.994388000000001
#
# number of rings (size 3 to 8) (size 9 to 14) (size 15 to 20)
#    0.000    0.000    4.000    5.600    0.000    0.000 
#    2.400    0.000    0.000    0.000    0.000    0.000 
#    0.000    0.000    0.000    0.000    0.000    0.000 
#
# Total GULP energy -743587.625570 kJ/mol
# GULP energy per Si atom -12393.127093 kJ/mol
# Density = 2.493750 g / cm^3
# Si number density = 24.994388 Si / 1000 Ang^3
#
#
#
# Elastic Constant Matrix: (Units=GPa)
#
#
# Indices 1 2 3 4 5 6 
#
# 1 126.3905 55.2991 55.2991 0.0000 0.0000 0.0000
# 2 55.2991 126.3905 55.2991 0.0000 0.0000 0.0000
# 3 55.2991 55.2991 126.3905 0.0000 0.0000 0.0000
# 4 0.0000 0.0000 0.0000 53.1078 0.0000 0.0000
# 5 0.0000 0.0000 0.0000 0.0000 53.1078 0.0000
# 6 0.0000 0.0000 0.0000 0.0000 0.0000 53.1078
#
#
#
# Elastic Compliance Matrix: (Units=1/GPa)
#
#
# Indices 1 2 3 4 5 6 
#
# 1 0.010784 -0.003282 -0.003282 0.000000 0.000000 0.000000
# 2 -0.003282 0.010784 -0.003282 0.000000 0.000000 0.000000
# 3 -0.003282 -0.003282 0.010784 0.000000 0.000000 0.000000
# 4 0.000000 0.000000 0.000000 0.018830 0.000000 0.000000
# 5 0.000000 0.000000 0.000000 0.000000 0.018830 0.000000
# 6 0.000000 0.000000 0.000000 0.000000 0.000000 0.018830
#
#
# Mechanical properties :
#
#
# Convention : Reuss Voigt Hill
#
# Bulk Modulus (GPa) = 78.99625 78.99625 78.99625
# Shear Modulus (GPa) = 44.34414 46.08296 45.21355
#
# Velocity S-wave (km/s) = 4.21665 4.29853 4.25779
# Velocity P-wave (km/s) = 7.44185 7.50404 7.47301
#
# Compressibility (1/GPa) = 0.01265883
#
# Stress axis : x y z
#
# Youngs Moduli (GPa) = 92.72878 92.72878 92.72879
#
# Poissons Ratio (x) = 0.30436 0.30436
# Poissons Ratio (y) = 0.30436 0.30436
# Poissons Ratio (z) = 0.30436 0.30436
#
# Static dielectric constant tensor:
#      x y z
#    x 4.672500 0.000000 0.000000 
#    y 0.000000 4.672500 0.000000 
#    z 0.000000 0.000000 4.672500 
# 
# 
# High freq. dielectric constant tensor:
#      x y z
#    x 1.998930 0.000000 0.000000 
#    y 0.000000 1.998930 0.000000 
#    z 0.000000 0.000000 1.998930 
# 
# From -- ./inp_files/206.got.cif
#   From: 2010.03.12/outbox.cif.g09.slc.cpg/sg220_cif.got.tgz:206.got - 2010.03.30 09:07:51.
