data_PCOD8331071
_publ_section_title
;
Structure prediction by ZEFSAII (Michael W. Deem and Ramdas Pophale) SiO2 
 PCOD8331071
Probable space group: P -4 3 N
;
_chemical_formula_sum "Si O2"
_cell_formula_units_Z 52
_cell_length_a 13.288188
_cell_length_b 13.288188
_cell_length_c 13.288188
_cell_angle_alpha 90.000000
_cell_angle_beta 90.000000
_cell_angle_gamma 90.000000
_cell_volume 2346.374291
_symmetry_space_group_name_H-M "P -4 3 N"
_symmetry_group_IT_number 218
_symmetry_cell_setting 'cubic'
loop_
_space_group_symop_operation_xyz
x,y,z
1/2+y,1/2-x,1/2-z
-x,-y,z
1/2-y,1/2+x,1/2-z
1/2-x,1/2+z,1/2-y
x,-y,-z
1/2-x,1/2-z,1/2+y
1/2-z,1/2-y,1/2+x
-x,y,-z
1/2+z,1/2-y,1/2-x
z,x,y
y,z,x
-y,-z,x
z,-x,-y
-y,z,-x
-z,-x,y
-z,x,-y
y,-z,-x
1/2-y,1/2-x,1/2+z
1/2+y,1/2+x,1/2+z
1/2+x,1/2-z,1/2-y
1/2+x,1/2+z,1/2+y
1/2-z,1/2+y,1/2-x
1/2+z,1/2+y,1/2+x
loop_
_atom_site_type_symbol
_atom_site_label
_atom_site_fract_x
_atom_site_fract_y
_atom_site_fract_z
Si Si1 0.230685 0.500000 0.500000
Si Si2 0.139204 0.443856 0.708134
Si Si3 0.372198 0.372197 0.372198
Si Si4 0.764351 0.235650 0.764352
O O1 0.156776 0.471115 0.591580
O O2 0.304981 0.409866 0.465862
O O3 0.126535 0.540316 0.780432
O O4 0.234228 0.381040 0.748341
O O5 0.303912 0.303912 0.303912
#
# Coordination Sequence:
#
# PCOD8331071 Si02
#       4
#    12  24   8   8
#     4  12  24  48  76 108 150 190 258 310 374 446
#     4  11  26  46  71 106 149 197 247 306 378 452
#     4  12  24  45  76 110 142 201 249 310 374 433
#     4  12  24  48  70 107 145 189 252 307 368 445
#
# _framework density 22.161850999999999
#
# number of rings (size 3 to 8) (size 9 to 14) (size 15 to 20)
#    0.000    0.462    4.615    3.692    0.000    3.692 
#    0.000    0.000    0.000    0.000    0.000    0.000 
#    0.000    0.000    0.000    0.000    0.000    0.000 
#
# Total GULP energy -644689.072964 kJ/mol
# GULP energy per Si atom -12397.866788 kJ/mol
# Density = 2.211141 g / cm^3
# Si number density = 22.161851 Si / 1000 Ang^3
#
#
#
# Elastic Constant Matrix: (Units=GPa)
#
#
# Indices 1 2 3 4 5 6 
#
# 1 125.1940 65.0787 65.0788 0.0000 0.0000 0.0000
# 2 65.0787 125.1940 65.0788 0.0000 0.0000 0.0000
# 3 65.0788 65.0788 125.1966 0.0000 0.0000 0.0000
# 4 0.0000 0.0000 0.0000 51.2012 0.0000 0.0000
# 5 0.0000 0.0000 0.0000 0.0000 51.2012 0.0000
# 6 0.0000 0.0000 0.0000 0.0000 0.0000 51.2022
#
#
#
# Elastic Compliance Matrix: (Units=1/GPa)
#
#
# Indices 1 2 3 4 5 6 
#
# 1 0.012395 -0.004240 -0.004239 0.000000 0.000000 0.000000
# 2 -0.004240 0.012395 -0.004239 0.000000 0.000000 0.000000
# 3 -0.004239 -0.004239 0.012395 0.000000 0.000000 0.000000
# 4 0.000000 0.000000 0.000000 0.019531 0.000000 0.000000
# 5 0.000000 0.000000 0.000000 0.000000 0.019531 0.000000
# 6 0.000000 0.000000 0.000000 0.000000 0.000000 0.019530
#
#
# Mechanical properties :
#
#
# Convention : Reuss Voigt Hill
#
# Bulk Modulus (GPa) = 85.11747 85.11747 85.11747
# Shear Modulus (GPa) = 39.95846 42.74413 41.35130
#
# Velocity S-wave (km/s) = 4.25082 4.39649 4.32427
# Velocity P-wave (km/s) = 7.91095 8.01641 7.96385
#
# Compressibility (1/GPa) = 0.01174847
#
# Stress axis : x y z
#
# Youngs Moduli (GPa) = 80.67668 80.67668 80.67889
#
# Poissons Ratio (x) = 0.34203 0.34203
# Poissons Ratio (y) = 0.34203 0.34203
# Poissons Ratio (z) = 0.34202 0.34202
#
# Static dielectric constant tensor:
#      x y z
#    x 4.359130 0.000000 0.000000 
#    y 0.000000 4.359130 0.000000 
#    z 0.000000 0.000000 4.359160 
# 
# 
# High freq. dielectric constant tensor:
#      x y z
#    x 1.877910 0.000000 0.000000 
#    y 0.000000 1.877910 0.000000 
#    z 0.000000 0.000000 1.877910 
# 
# From -- ./inp_files/253.got.cif
#   From: 2010.03.12/outbox.cif.g09.slc.cpg/sg218_cif.got.tgz:253.got - 2010.03.30 09:07:27.
