data_PCOD8331155
_publ_section_title
;
Structure prediction by ZEFSAII (Michael W. Deem and Ramdas Pophale) SiO2 
 PCOD8331155
Probable space group: F D 3 C 
;
_chemical_formula_sum "Si O2"
_cell_formula_units_Z 528
_cell_length_a 29.255975
_cell_length_b 29.255975
_cell_length_c 29.255975
_cell_angle_alpha 90.000000
_cell_angle_beta 90.000000
_cell_angle_gamma 90.000000
_cell_volume 25040.542216
_symmetry_space_group_name_H-M "F D 3 C "
_symmetry_group_IT_number 228
_space_group.IT_coordinate_system_code '2'
_symmetry_cell_setting 'cubic'
loop_
_space_group_symop_operation_xyz
x,y,z
-y,1/4+x,3/4+z
1/4-x,1/4-y,z
1/4+y,-x,3/4+z
1/4+x,-z,3/4+y
x,1/4-y,1/4-z
1/4+x,3/4+z,-y
1/4+z,3/4+y,-x
1/4-x,y,1/4-z
-z,1/4+y,3/4+x
z,x,y
y,z,x
1/4-y,1/4-z,x
z,1/4-x,1/4-y
1/4-y,z,1/4-x
1/4-z,1/4-x,y
1/4-z,x,1/4-y
y,1/4-z,1/4-x
1/4+y,3/4+x,-z
-y,-x,1/2-z
-x,1/4+z,3/4+y
-x,-z,1/2-y
1/4+z,-y,3/4+x
-z,-y,1/2-x
-x,-y,-z
y,3/4-x,1/4-z
3/4+x,3/4+y,-z
3/4-y,x,1/4-z
3/4-x,z,1/4-y
-x,3/4+y,3/4+z
3/4-x,1/4-z,y
3/4-z,1/4-y,x
3/4+x,-y,3/4+z
z,3/4-y,1/4-x
-z,-x,-y
-y,-z,-x
3/4+y,3/4+z,-x
-z,3/4+x,3/4+y
3/4+y,-z,3/4+x
3/4+z,3/4+x,-y
3/4+z,-x,3/4+y
-y,3/4+z,3/4+x
3/4-y,1/4-x,z
y,x,1/2+z
x,3/4-z,1/4-y
x,z,1/2+y
3/4-z,y,1/4-x
z,y,1/2+x
x,1/2+y,1/2+z
-y,3/4+x,1/4+z
1/4-x,3/4-y,1/2+z
1/4+y,1/2-x,1/4+z
1/4+x,1/2-z,1/4+y
x,3/4-y,3/4-z
1/4+x,1/4+z,1/2-y
1/4+z,1/4+y,1/2-x
1/4-x,1/2+y,3/4-z
-z,3/4+y,1/4+x
z,1/2+x,1/2+y
y,1/2+z,1/2+x
1/4-y,3/4-z,1/2+x
z,3/4-x,3/4-y
1/4-y,1/2+z,3/4-x
1/4-z,3/4-x,1/2+y
1/4-z,1/2+x,3/4-y
y,3/4-z,3/4-x
1/4+y,1/4+x,1/2-z
-y,1/2-x,-z
-x,3/4+z,1/4+y
-x,1/2-z,-y
1/4+z,1/2-y,1/4+x
-z,1/2-y,-x
-x,1/2-y,1/2-z
y,1/4-x,3/4-z
3/4+x,1/4+y,1/2-z
3/4-y,1/2+x,3/4-z
3/4-x,1/2+z,3/4-y
-x,1/4+y,1/4+z
3/4-x,3/4-z,1/2+y
3/4-z,3/4-y,1/2+x
3/4+x,1/2-y,1/4+z
z,1/4-y,3/4-x
-z,1/2-x,1/2-y
-y,1/2-z,1/2-x
3/4+y,1/4+z,1/2-x
-z,1/4+x,1/4+y
3/4+y,1/2-z,1/4+x
3/4+z,1/4+x,1/2-y
3/4+z,1/2-x,1/4+y
-y,1/4+z,1/4+x
3/4-y,3/4-x,1/2+z
y,1/2+x,z
x,1/4-z,3/4-y
x,1/2+z,y
3/4-z,1/2+y,3/4-x
z,1/2+y,x
1/2+x,y,1/2+z
1/2-y,1/4+x,1/4+z
3/4-x,1/4-y,1/2+z
3/4+y,-x,1/4+z
3/4+x,-z,1/4+y
1/2+x,1/4-y,3/4-z
3/4+x,3/4+z,1/2-y
3/4+z,3/4+y,1/2-x
3/4-x,y,3/4-z
1/2-z,1/4+y,1/4+x
1/2+z,x,1/2+y
1/2+y,z,1/2+x
3/4-y,1/4-z,1/2+x
1/2+z,1/4-x,3/4-y
3/4-y,z,3/4-x
3/4-z,1/4-x,1/2+y
3/4-z,x,3/4-y
1/2+y,1/4-z,3/4-x
3/4+y,3/4+x,1/2-z
1/2-y,-x,-z
1/2-x,1/4+z,1/4+y
1/2-x,-z,-y
3/4+z,-y,1/4+x
1/2-z,-y,-x
1/2-x,-y,1/2-z
1/2+y,3/4-x,3/4-z
1/4+x,3/4+y,1/2-z
1/4-y,x,3/4-z
1/4-x,z,3/4-y
1/2-x,3/4+y,1/4+z
1/4-x,1/4-z,1/2+y
1/4-z,1/4-y,1/2+x
1/4+x,-y,1/4+z
1/2+z,3/4-y,3/4-x
1/2-z,-x,1/2-y
1/2-y,-z,1/2-x
1/4+y,3/4+z,1/2-x
1/2-z,3/4+x,1/4+y
1/4+y,-z,1/4+x
1/4+z,3/4+x,1/2-y
1/4+z,-x,1/4+y
1/2-y,3/4+z,1/4+x
1/4-y,1/4-x,1/2+z
1/2+y,x,z
1/2+x,3/4-z,3/4-y
1/2+x,z,y
1/4-z,y,3/4-x
1/2+z,y,x
1/2+x,1/2+y,z
1/2-y,3/4+x,3/4+z
3/4-x,3/4-y,z
3/4+y,1/2-x,3/4+z
3/4+x,1/2-z,3/4+y
1/2+x,3/4-y,1/4-z
3/4+x,1/4+z,-y
3/4+z,1/4+y,-x
3/4-x,1/2+y,1/4-z
1/2-z,3/4+y,3/4+x
1/2+z,1/2+x,y
1/2+y,1/2+z,x
3/4-y,3/4-z,x
1/2+z,3/4-x,1/4-y
3/4-y,1/2+z,1/4-x
3/4-z,3/4-x,y
3/4-z,1/2+x,1/4-y
1/2+y,3/4-z,1/4-x
3/4+y,1/4+x,-z
1/2-y,1/2-x,1/2-z
1/2-x,3/4+z,3/4+y
1/2-x,1/2-z,1/2-y
3/4+z,1/2-y,3/4+x
1/2-z,1/2-y,1/2-x
1/2-x,1/2-y,-z
1/2+y,1/4-x,1/4-z
1/4+x,1/4+y,-z
1/4-y,1/2+x,1/4-z
1/4-x,1/2+z,1/4-y
1/2-x,1/4+y,3/4+z
1/4-x,3/4-z,y
1/4-z,3/4-y,x
1/4+x,1/2-y,3/4+z
1/2+z,1/4-y,1/4-x
1/2-z,1/2-x,-y
1/2-y,1/2-z,-x
1/4+y,1/4+z,-x
1/2-z,1/4+x,3/4+y
1/4+y,1/2-z,3/4+x
1/4+z,1/4+x,-y
1/4+z,1/2-x,3/4+y
1/2-y,1/4+z,3/4+x
1/4-y,3/4-x,z
1/2+y,1/2+x,1/2+z
1/2+x,1/4-z,1/4-y
1/2+x,1/2+z,1/2+y
1/4-z,1/2+y,1/4-x
1/2+z,1/2+y,1/2+x
loop_
_atom_site_type_symbol
_atom_site_label
_atom_site_fract_x
_atom_site_fract_y
_atom_site_fract_z
Si Si1 0.313198 0.436804 0.936803
Si Si2 0.125000 0.125000 0.625000
Si Si3 0.137322 0.301360 0.377019
Si Si4 0.869051 0.929377 0.737170
Si Si5 0.218346 0.531655 0.218347
O O1 0.344306 0.405696 0.905695
O O2 0.298307 0.479665 0.906604
O O3 0.131489 0.332070 0.422686
O O4 0.116516 0.250000 0.383485
O O5 0.190827 0.294621 0.369939
O O6 0.875000 0.875000 0.732501
O O7 0.817276 0.939786 0.751505
O O8 0.250000 0.500000 0.250000
#
# Coordination Sequence:
#
# PCOD8331155 Si02
#       5
#    64  16 192 192  64
#     4  12  21  37  68 103 141 170 230 276 357 412
#     4  12  16  28  60 100 134 184 184 280 336 400
#     4  11  27  47  71  98 138 186 234 290 354 423
#     4  12  23  42  67 103 141 183 231 290 352 421
#     4  12  28  38  70 114 141 184 245 298 349 428
#
# _framework density 21.085806000000002
#
# number of rings (size 3 to 8) (size 9 to 14) (size 15 to 20)
#    0.000    0.364    9.091    0.000    5.091    2.909 
#    0.000    0.000    0.000    0.727    0.000    0.000 
#    0.000    0.000    0.000    0.000    0.000    0.000 
#
# Total GULP energy -1636686.932572 kJ/mol
# GULP energy per Si atom -12399.143429 kJ/mol
# Density = 2.103781 g / cm^3
# Si number density = 21.085806 Si / 1000 Ang^3
#
#
#
# Elastic Constant Matrix: (Units=GPa)
#
#
# Indices 1 2 3 4 5 6 
#
# 1 122.7850 27.2589 27.2601 0.0000 0.0000 0.0000
# 2 27.2589 122.7850 27.2601 0.0000 0.0000 0.0000
# 3 27.2601 27.2601 122.7854 0.0000 0.0000 0.0000
# 4 0.0000 0.0000 0.0000 30.0247 0.0000 0.0000
# 5 0.0000 0.0000 0.0000 0.0000 30.0247 0.0000
# 6 0.0000 0.0000 0.0000 0.0000 0.0000 30.0247
#
#
#
# Elastic Compliance Matrix: (Units=1/GPa)
#
#
# Indices 1 2 3 4 5 6 
#
# 1 0.008859 -0.001609 -0.001610 0.000000 0.000000 0.000000
# 2 -0.001609 0.008859 -0.001610 0.000000 0.000000 0.000000
# 3 -0.001610 -0.001610 0.008859 0.000000 0.000000 0.000000
# 4 0.000000 0.000000 0.000000 0.033306 0.000000 0.000000
# 5 0.000000 0.000000 0.000000 0.000000 0.033306 0.000000
# 6 0.000000 0.000000 0.000000 0.000000 0.000000 0.033306
#
#
# Mechanical properties :
#
#
# Convention : Reuss Voigt Hill
#
# Bulk Modulus (GPa) = 59.10154 59.10154 59.10154
# Shear Modulus (GPa) = 35.26305 37.11989 36.19147
#
# Velocity S-wave (km/s) = 4.09389 4.20029 4.14743
# Velocity P-wave (km/s) = 7.10186 7.18423 7.14316
#
# Compressibility (1/GPa) = 0.01692003
#
# Stress axis : x y z
#
# Youngs Moduli (GPa) = 112.88029 112.88029 112.88013
#
# Poissons Ratio (x) = 0.18167 0.18168
# Poissons Ratio (y) = 0.18167 0.18168
# Poissons Ratio (z) = 0.18168 0.18168
#
# Static dielectric constant tensor:
#      x y z
#    x 4.035390 0.000000 0.000000 
#    y 0.000000 4.035390 0.000000 
#    z 0.000000 0.000000 4.035390 
# 
# 
# High freq. dielectric constant tensor:
#      x y z
#    x 1.827720 0.000000 0.000000 
#    y 0.000000 1.827720 0.000000 
#    z 0.000000 0.000000 1.827720 
# 
# From -- ./inp_files/719.got.cif
#   From: 2010.03.12/outbox.cif.g09.slc.cpg/sg228_cif.got.tgz:719.got - 2010.03.30 09:10:12.
