data_PCOD8331075
_publ_section_title
;
Structure prediction by ZEFSAII (Michael W. Deem and Ramdas Pophale) SiO2 
 PCOD8331075
Probable space group: F -4 3 C
;
_chemical_formula_sum "Si O2"
_cell_formula_units_Z 424
_cell_length_a 29.077722
_cell_length_b 29.077722
_cell_length_c 29.077722
_cell_angle_alpha 90.000000
_cell_angle_beta 90.000000
_cell_angle_gamma 90.000000
_cell_volume 24585.618617
_symmetry_space_group_name_H-M "F -4 3 C"
_symmetry_group_IT_number 219
_symmetry_cell_setting 'cubic'
loop_
_space_group_symop_operation_xyz
x,y,z
y,-x,1/2-z
-x,-y,z
-y,x,1/2-z
-x,z,1/2-y
x,-y,-z
-x,-z,1/2+y
-z,-y,1/2+x
-x,y,-z
z,-y,1/2-x
z,x,y
y,z,x
-y,-z,x
z,-x,-y
-y,z,-x
-z,-x,y
-z,x,-y
y,-z,-x
-y,-x,1/2+z
y,x,1/2+z
x,-z,1/2-y
x,z,1/2+y
-z,y,1/2-x
z,y,1/2+x
x,1/2+y,1/2+z
y,1/2-x,-z
-x,1/2-y,1/2+z
-y,1/2+x,-z
-x,1/2+z,-y
x,1/2-y,1/2-z
-x,1/2-z,y
-z,1/2-y,x
-x,1/2+y,1/2-z
z,1/2-y,-x
z,1/2+x,1/2+y
y,1/2+z,1/2+x
-y,1/2-z,1/2+x
z,1/2-x,1/2-y
-y,1/2+z,1/2-x
-z,1/2-x,1/2+y
-z,1/2+x,1/2-y
y,1/2-z,1/2-x
-y,1/2-x,z
y,1/2+x,z
x,1/2-z,-y
x,1/2+z,y
-z,1/2+y,-x
z,1/2+y,x
1/2+x,y,1/2+z
1/2+y,-x,-z
1/2-x,-y,1/2+z
1/2-y,x,-z
1/2-x,z,-y
1/2+x,-y,1/2-z
1/2-x,-z,y
1/2-z,-y,x
1/2-x,y,1/2-z
1/2+z,-y,-x
1/2+z,x,1/2+y
1/2+y,z,1/2+x
1/2-y,-z,1/2+x
1/2+z,-x,1/2-y
1/2-y,z,1/2-x
1/2-z,-x,1/2+y
1/2-z,x,1/2-y
1/2+y,-z,1/2-x
1/2-y,-x,z
1/2+y,x,z
1/2+x,-z,-y
1/2+x,z,y
1/2-z,y,-x
1/2+z,y,x
1/2+x,1/2+y,z
1/2+y,1/2-x,1/2-z
1/2-x,1/2-y,z
1/2-y,1/2+x,1/2-z
1/2-x,1/2+z,1/2-y
1/2+x,1/2-y,-z
1/2-x,1/2-z,1/2+y
1/2-z,1/2-y,1/2+x
1/2-x,1/2+y,-z
1/2+z,1/2-y,1/2-x
1/2+z,1/2+x,y
1/2+y,1/2+z,x
1/2-y,1/2-z,x
1/2+z,1/2-x,-y
1/2-y,1/2+z,-x
1/2-z,1/2-x,y
1/2-z,1/2+x,-y
1/2+y,1/2-z,-x
1/2-y,1/2-x,1/2+z
1/2+y,1/2+x,1/2+z
1/2+x,1/2-z,1/2-y
1/2+x,1/2+z,1/2+y
1/2-z,1/2+y,1/2-x
1/2+z,1/2+y,1/2+x
loop_
_atom_site_type_symbol
_atom_site_label
_atom_site_fract_x
_atom_site_fract_y
_atom_site_fract_z
Si Si1 0.554316 0.316634 0.883026
Si Si2 0.187588 0.312413 0.312414
Si Si3 0.750000 0.250000 0.750000
Si Si4 0.389754 0.034084 0.957712
Si Si5 0.512075 0.679968 0.265628
Si Si6 0.851221 0.094022 0.290795
O O1 0.543763 0.342034 0.931326
O O2 0.511344 0.286736 0.865462
O O3 0.595955 0.281398 0.892982
O O4 0.570289 0.350461 0.841629
O O5 0.218710 0.281291 0.281292
O O6 0.181980 0.289088 0.362143
O O7 0.422724 0.017451 0.915451
O O8 0.380790 0.000000 0.000000
O O9 0.483624 0.697273 0.220975
O O10 0.562856 0.666533 0.250471
#
# Coordination Sequence:
#
# PCOD8331075 Si02
#       6
#    96  32   8  96  96  96
#     4  10  17  34  54  75 105 145 179 229 266 333
#     4   9  21  33  60  72 117 141 174 226 287 337
#     4  12  24  36  48 108 114 120 180 268 284 328
#     4  10  19  32  53  78 107 142 188 225 272 333
#     4   9  19  33  55  78 102 135 191 229 259 328
#     4   9  17  35  55  75 100 151 181 206 283 341
#
# _framework density 17.245854000000001
#
# number of rings (size 3 to 8) (size 9 to 14) (size 15 to 20)
#    0.453    2.038    2.264    0.906    0.000    5.434 
#    4.075    0.000    0.000    0.906    0.000    0.000 
#    0.000    0.000    0.000    0.000    0.000    0.000 
#
# Total GULP energy -1313211.122927 kJ/mol
# GULP energy per Si atom -12388.784179 kJ/mol
# Density = 1.720660 g / cm^3
# Si number density = 17.245854 Si / 1000 Ang^3
#
#
#
# Elastic Constant Matrix: (Units=GPa)
#
#
# Indices 1 2 3 4 5 6 
#
# 1 89.8758 54.6587 54.6585 0.0000 0.0000 0.0000
# 2 54.6587 89.8758 54.6585 0.0000 0.0000 0.0000
# 3 54.6585 54.6585 89.8760 0.0000 0.0000 0.0000
# 4 0.0000 0.0000 0.0000 25.7502 0.0000 0.0000
# 5 0.0000 0.0000 0.0000 0.0000 25.7502 0.0000
# 6 0.0000 0.0000 0.0000 0.0000 0.0000 25.7496
#
#
#
# Elastic Compliance Matrix: (Units=1/GPa)
#
#
# Indices 1 2 3 4 5 6 
#
# 1 0.020604 -0.007792 -0.007792 0.000000 0.000000 0.000000
# 2 -0.007792 0.020604 -0.007792 0.000000 0.000000 0.000000
# 3 -0.007792 -0.007792 0.020603 0.000000 0.000000 0.000000
# 4 0.000000 0.000000 0.000000 0.038835 0.000000 0.000000
# 5 0.000000 0.000000 0.000000 0.000000 0.038835 0.000000
# 6 0.000000 0.000000 0.000000 0.000000 0.000000 0.038835
#
#
# Mechanical properties :
#
#
# Convention : Reuss Voigt Hill
#
# Bulk Modulus (GPa) = 66.39770 66.39770 66.39770
# Shear Modulus (GPa) = 21.73105 22.49345 22.11225
#
# Velocity S-wave (km/s) = 3.55360 3.61540 3.58464
# Velocity P-wave (km/s) = 7.44458 7.48415 7.46439
#
# Compressibility (1/GPa) = 0.01506076
#
# Stress axis : x y z
#
# Youngs Moduli (GPa) = 48.53529 48.53529 48.53562
#
# Poissons Ratio (x) = 0.37817 0.37817
# Poissons Ratio (y) = 0.37817 0.37817
# Poissons Ratio (z) = 0.37817 0.37817
#
# Static dielectric constant tensor:
#      x y z
#    x 3.087730 0.000000 0.000000 
#    y 0.000000 3.087730 0.000000 
#    z 0.000000 0.000000 3.087730 
# 
# 
# High freq. dielectric constant tensor:
#      x y z
#    x 1.653550 0.000000 0.000000 
#    y 0.000000 1.653550 0.000000 
#    z 0.000000 0.000000 1.653550 
# 
# From -- ./inp_files/549.got.cif
#   From: 2010.03.12/outbox.cif.g09.slc.cpg/sg219_cif.got.tgz:549.got - 2010.03.30 09:07:44.
