data_PCOD8331166
_publ_section_title
;
Structure prediction by ZEFSAII (Michael W. Deem and Ramdas Pophale) SiO2 
 PCOD8331166
Probable space group: I A 3 D 
;
_chemical_formula_sum "Si O2"
_cell_formula_units_Z 152
_cell_length_a 19.793243
_cell_length_b 19.793243
_cell_length_c 19.793243
_cell_angle_alpha 90.000000
_cell_angle_beta 90.000000
_cell_angle_gamma 90.000000
_cell_volume 7754.447669
_symmetry_space_group_name_H-M "I A 3 D "
_symmetry_group_IT_number 230
_symmetry_cell_setting 'cubic'
loop_
_space_group_symop_operation_xyz
x,y,z
1/4-y,3/4+x,1/4+z
-x,1/2-y,z
1/4+y,1/4-x,3/4+z
1/4+x,1/4-z,3/4+y
x,-y,1/2-z
3/4+x,1/4+z,1/4-y
3/4+z,1/4+y,1/4-x
1/2-x,y,-z
1/4-z,3/4+y,1/4+x
z,x,y
y,z,x
-y,1/2-z,x
z,-x,1/2-y
1/2-y,z,-x
-z,1/2-x,y
1/2-z,x,-y
y,-z,1/2-x
3/4+y,1/4+x,1/4-z
1/4-y,1/4-x,1/4-z
1/4-x,3/4+z,1/4+y
1/4-x,1/4-z,1/4-y
1/4+z,1/4-y,3/4+x
1/4-z,1/4-y,1/4-x
-x,-y,-z
3/4+y,1/4-x,3/4-z
x,1/2+y,-z
3/4-y,3/4+x,1/4-z
3/4-x,3/4+z,1/4-y
-x,y,1/2+z
1/4-x,3/4-z,3/4+y
1/4-z,3/4-y,3/4+x
1/2+x,-y,z
3/4+z,1/4-y,3/4-x
-z,-x,-y
-y,-z,-x
y,1/2+z,-x
-z,x,1/2+y
1/2+y,-z,x
z,1/2+x,-y
1/2+z,-x,y
-y,z,1/2+x
1/4-y,3/4-x,3/4+z
3/4+y,3/4+x,3/4+z
3/4+x,1/4-z,3/4-y
3/4+x,3/4+z,3/4+y
3/4-z,3/4+y,1/4-x
3/4+z,3/4+y,3/4+x
1/2+x,1/2+y,1/2+z
3/4-y,1/4+x,3/4+z
1/2-x,-y,1/2+z
3/4+y,3/4-x,1/4+z
3/4+x,3/4-z,1/4+y
1/2+x,1/2-y,-z
1/4+x,3/4+z,3/4-y
1/4+z,3/4+y,3/4-x
-x,1/2+y,1/2-z
3/4-z,1/4+y,3/4+x
1/2+z,1/2+x,1/2+y
1/2+y,1/2+z,1/2+x
1/2-y,-z,1/2+x
1/2+z,1/2-x,-y
-y,1/2+z,1/2-x
1/2-z,-x,1/2+y
-z,1/2+x,1/2-y
1/2+y,1/2-z,-x
1/4+y,3/4+x,3/4-z
3/4-y,3/4-x,3/4-z
3/4-x,1/4+z,3/4+y
3/4-x,3/4-z,3/4-y
3/4+z,3/4-y,1/4+x
3/4-z,3/4-y,3/4-x
1/2-x,1/2-y,1/2-z
1/4+y,3/4-x,1/4-z
1/2+x,y,1/2-z
1/4-y,1/4+x,3/4-z
1/4-x,1/4+z,3/4-y
1/2-x,1/2+y,z
3/4-x,1/4-z,1/4+y
3/4-z,1/4-y,1/4+x
x,1/2-y,1/2+z
1/4+z,3/4-y,1/4-x
1/2-z,1/2-x,1/2-y
1/2-y,1/2-z,1/2-x
1/2+y,z,1/2-x
1/2-z,1/2+x,y
y,1/2-z,1/2+x
1/2+z,x,1/2-y
z,1/2-x,1/2+y
1/2-y,1/2+z,x
3/4-y,1/4-x,1/4+z
1/4+y,1/4+x,1/4+z
1/4+x,3/4-z,1/4-y
1/4+x,1/4+z,1/4+y
1/4-z,1/4+y,3/4-x
1/4+z,1/4+y,1/4+x
loop_
_atom_site_type_symbol
_atom_site_label
_atom_site_fract_x
_atom_site_fract_y
_atom_site_fract_z
Si Si1 0.552492 0.197034 0.255358
Si Si2 0.250000 0.625000 0.500000
Si Si3 0.045938 0.045938 0.045938
O O1 0.500000 0.250000 0.288670
O O2 0.535096 0.125000 0.285096
O O3 0.544268 0.200067 0.173191
O O4 0.626976 0.218350 0.276800
O O5 0.000000 0.000000 0.000000
#
# Coordination Sequence:
#
# PCOD8331166 Si02
#       3
#    96  24  32
#     4  10  24  45  68  98 140 181 228 284 352 412
#     4   8  24  44  70 100 128 184 226 292 336 420
#     4  12  28  41  70 108 142 185 232 291 355 425
#
# _framework density 19.601652999999999
#
# number of rings (size 3 to 8) (size 9 to 14) (size 15 to 20)
#    1.895    0.000    0.000    1.895    8.842    5.053 
#    0.000    0.000    0.000    0.000    0.000    0.000 
#    0.000    0.000    0.000    0.000    0.000    0.000 
#
# Total GULP energy -941861.354439 kJ/mol
# GULP energy per Si atom -12392.912558 kJ/mol
# Density = 1.955704 g / cm^3
# Si number density = 19.601653 Si / 1000 Ang^3
#
#
#
# Elastic Constant Matrix: (Units=GPa)
#
#
# Indices 1 2 3 4 5 6 
#
# 1 147.0880 53.5032 53.5032 0.0000 0.0000 0.0000
# 2 53.5032 147.0880 53.5031 0.0000 0.0000 0.0000
# 3 53.5032 53.5031 147.0880 0.0000 0.0000 0.0000
# 4 0.0000 0.0000 0.0000 40.6091 0.0000 0.0000
# 5 0.0000 0.0000 0.0000 0.0000 40.6091 0.0000
# 6 0.0000 0.0000 0.0000 0.0000 0.0000 40.6091
#
#
#
# Elastic Compliance Matrix: (Units=1/GPa)
#
#
# Indices 1 2 3 4 5 6 
#
# 1 0.008436 -0.002250 -0.002250 0.000000 0.000000 0.000000
# 2 -0.002250 0.008436 -0.002250 0.000000 0.000000 0.000000
# 3 -0.002250 -0.002250 0.008436 0.000000 0.000000 0.000000
# 4 0.000000 0.000000 0.000000 0.024625 0.000000 0.000000
# 5 0.000000 0.000000 0.000000 0.000000 0.024625 0.000000
# 6 0.000000 0.000000 0.000000 0.000000 0.000000 0.024625
#
#
# Mechanical properties :
#
#
# Convention : Reuss Voigt Hill
#
# Bulk Modulus (GPa) = 84.69811 84.69811 84.69811
# Shear Modulus (GPa) = 42.87537 43.08242 42.97889
#
# Velocity S-wave (km/s) = 4.68197 4.69326 4.68762
# Velocity P-wave (km/s) = 8.51653 8.52481 8.52067
#
# Compressibility (1/GPa) = 0.01180664
#
# Stress axis : x y z
#
# Youngs Moduli (GPa) = 118.54654 118.54654 118.54654
#
# Poissons Ratio (x) = 0.26673 0.26673
# Poissons Ratio (y) = 0.26673 0.26673
# Poissons Ratio (z) = 0.26673 0.26673
#
# Static dielectric constant tensor:
#      x y z
#    x 3.809550 0.000000 0.000000 
#    y 0.000000 3.809550 0.000000 
#    z 0.000000 0.000000 3.809550 
# 
# 
# High freq. dielectric constant tensor:
#      x y z
#    x 1.765780 0.000000 0.000000 
#    y 0.000000 1.765780 0.000000 
#    z 0.000000 0.000000 1.765780 
# 
# From -- ./inp_files/220.got.cif
#   From: 2010.03.12/outbox.cif.g09.slc.cpg/sg230_cif.got.tgz:220.got - 2010.03.30 09:10:43.
