data_PCOD8331143
_publ_section_title
;
Structure prediction by ZEFSAII (Michael W. Deem and Ramdas Pophale) SiO2 
 PCOD8331143
Probable space group: P N 3 M
;
_chemical_formula_sum "Si O2"
_cell_formula_units_Z 120
_cell_length_a 18.558983
_cell_length_b 18.558983
_cell_length_c 18.558983
_cell_angle_alpha 90.000000
_cell_angle_beta 90.000000
_cell_angle_gamma 90.000000
_cell_volume 6392.379085
_symmetry_space_group_name_H-M "P N 3 M"
_symmetry_group_IT_number 224
_space_group.IT_coordinate_system_code '2'
_symmetry_cell_setting 'cubic'
loop_
_space_group_symop_operation_xyz
x,y,z
-y,1/2+x,1/2+z
1/2-x,1/2-y,z
1/2+y,-x,1/2+z
1/2+x,-z,1/2+y
x,1/2-y,1/2-z
1/2+x,1/2+z,-y
1/2+z,1/2+y,-x
1/2-x,y,1/2-z
-z,1/2+y,1/2+x
z,x,y
y,z,x
1/2-y,1/2-z,x
z,1/2-x,1/2-y
1/2-y,z,1/2-x
1/2-z,1/2-x,y
1/2-z,x,1/2-y
y,1/2-z,1/2-x
1/2+y,1/2+x,-z
-y,-x,-z
-x,1/2+z,1/2+y
-x,-z,-y
1/2+z,-y,1/2+x
-z,-y,-x
-x,-y,-z
y,1/2-x,1/2-z
1/2+x,1/2+y,-z
1/2-y,x,1/2-z
1/2-x,z,1/2-y
-x,1/2+y,1/2+z
1/2-x,1/2-z,y
1/2-z,1/2-y,x
1/2+x,-y,1/2+z
z,1/2-y,1/2-x
-z,-x,-y
-y,-z,-x
1/2+y,1/2+z,-x
-z,1/2+x,1/2+y
1/2+y,-z,1/2+x
1/2+z,1/2+x,-y
1/2+z,-x,1/2+y
-y,1/2+z,1/2+x
1/2-y,1/2-x,z
y,x,z
x,1/2-z,1/2-y
x,z,y
1/2-z,y,1/2-x
z,y,x
loop_
_atom_site_type_symbol
_atom_site_label
_atom_site_fract_x
_atom_site_fract_y
_atom_site_fract_z
Si Si1 0.546475 0.067883 0.663027
Si Si2 0.861510 0.750000 0.250000
Si Si3 0.883885 0.181314 0.432180
O O1 0.500000 0.137776 0.637776
O O2 0.624573 0.067329 0.624573
O O3 0.553354 0.065385 0.749963
O O4 0.503485 0.996516 0.639037
O O5 0.810727 0.689274 0.287511
O O6 0.911998 0.712694 0.193109
O O7 0.871665 0.128336 0.500000
O O8 0.916440 0.132999 0.367001
#
# Coordination Sequence:
#
# PCOD8331143 Si02
#       3
#    48  24  48
#     4  10  20  35  56  81 107 134 167 212 266 319
#     4   9  17  28  44  70 101 133 174 220 261 303
#     4  11  21  32  48  71 102 141 180 216 255 302
#
# _framework density 18.772352000000001
#
# number of rings (size 3 to 8) (size 9 to 14) (size 15 to 20)
#    0.000    1.800    0.000    5.800    0.000   10.400 
#    0.000    0.000    0.000    7.200    0.000    0.000 
#    0.000    0.000    0.000    0.000    0.000    0.000 
#
# Total GULP energy -1487423.267348 kJ/mol
# GULP energy per Si atom -12395.193895 kJ/mol
# Density = 1.872963 g / cm^3
# Si number density = 18.772352 Si / 1000 Ang^3
#
#
#
# Elastic Constant Matrix: (Units=GPa)
#
#
# Indices 1 2 3 4 5 6 
#
# 1 73.4062 27.3294 27.3294 0.0000 0.0000 0.0000
# 2 27.3294 73.4062 27.3294 0.0000 0.0000 0.0000
# 3 27.3294 27.3294 73.4062 0.0000 0.0000 0.0000
# 4 0.0000 0.0000 0.0000 22.9265 0.0000 0.0000
# 5 0.0000 0.0000 0.0000 0.0000 22.9265 0.0000
# 6 0.0000 0.0000 0.0000 0.0000 0.0000 22.9265
#
#
#
# Elastic Compliance Matrix: (Units=1/GPa)
#
#
# Indices 1 2 3 4 5 6 
#
# 1 0.017071 -0.004631 -0.004631 0.000000 0.000000 0.000000
# 2 -0.004631 0.017071 -0.004631 0.000000 0.000000 0.000000
# 3 -0.004631 -0.004631 0.017071 0.000000 0.000000 0.000000
# 4 0.000000 0.000000 0.000000 0.043618 0.000000 0.000000
# 5 0.000000 0.000000 0.000000 0.000000 0.043618 0.000000
# 6 0.000000 0.000000 0.000000 0.000000 0.000000 0.043618
#
#
# Mechanical properties :
#
#
# Convention : Reuss Voigt Hill
#
# Bulk Modulus (GPa) = 42.68833 42.68833 42.68833
# Shear Modulus (GPa) = 22.97110 22.97123 22.97117
#
# Velocity S-wave (km/s) = 3.50189 3.50190 3.50189
# Velocity P-wave (km/s) = 6.25622 6.25623 6.25623
#
# Compressibility (1/GPa) = 0.02342561
#
# Stress axis : x y z
#
# Youngs Moduli (GPa) = 58.57738 58.57738 58.57738
#
# Poissons Ratio (x) = 0.27130 0.27130
# Poissons Ratio (y) = 0.27130 0.27130
# Poissons Ratio (z) = 0.27130 0.27130
#
# Static dielectric constant tensor:
#      x y z
#    x 3.457940 0.000000 0.000000 
#    y 0.000000 3.457940 0.000000 
#    z 0.000000 0.000000 3.457940 
# 
# 
# High freq. dielectric constant tensor:
#      x y z
#    x 1.714520 0.000000 0.000000 
#    y 0.000000 1.714520 0.000000 
#    z 0.000000 0.000000 1.714520 
# 
# From -- ./inp_files/248.got.cif
#   From: 2010.03.12/outbox.cif.g09.slc.cpg/sg224_cif.got.tgz:248.got - 2010.03.30 09:09:26.
