data_PCOD8331115
_publ_section_title
;
Structure prediction by ZEFSAII (Michael W. Deem and Ramdas Pophale) SiO2 
 PCOD8331115
Probable space group: P M 3 M
;
_chemical_formula_sum "Si O2"
_cell_formula_units_Z 216
_cell_length_a 24.258678
_cell_length_b 24.258678
_cell_length_c 24.258678
_cell_angle_alpha 90.000000
_cell_angle_beta 90.000000
_cell_angle_gamma 90.000000
_cell_volume 14275.830723
_symmetry_space_group_name_H-M "P M 3 M"
_symmetry_group_IT_number 221
_symmetry_cell_setting 'cubic'
loop_
_space_group_symop_operation_xyz
x,y,z
-y,x,z
-x,-y,z
y,-x,z
x,-z,y
x,-y,-z
x,z,-y
z,y,-x
-x,y,-z
-z,y,x
z,x,y
y,z,x
-y,-z,x
z,-x,-y
-y,z,-x
-z,-x,y
-z,x,-y
y,-z,-x
y,x,-z
-y,-x,-z
-x,z,y
-x,-z,-y
z,-y,x
-z,-y,-x
-x,-y,-z
y,-x,-z
x,y,-z
-y,x,-z
-x,z,-y
-x,y,z
-x,-z,y
-z,-y,x
x,-y,z
z,-y,-x
-z,-x,-y
-y,-z,-x
y,z,-x
-z,x,y
y,-z,x
z,x,-y
z,-x,y
-y,z,x
-y,-x,z
y,x,z
x,-z,-y
x,z,y
-z,y,-x
z,y,x
loop_
_atom_site_type_symbol
_atom_site_label
_atom_site_fract_x
_atom_site_fract_y
_atom_site_fract_z
Si Si1 0.635731 0.187252 0.275119
Si Si2 0.354299 0.000000 0.189603
Si Si3 0.710077 0.000000 0.562326
Si Si4 0.290110 0.111229 0.200224
Si Si5 0.000000 0.562365 0.909915
Si Si6 0.347481 0.884698 0.437153
O O1 0.616481 0.240497 0.240497
O O2 0.677195 0.207228 0.322806
O O3 0.665519 0.143661 0.236148
O O4 0.582284 0.157642 0.300216
O O5 0.314737 0.052205 0.185733
O O6 0.395835 0.000000 0.139484
O O7 0.390612 0.000000 0.244380
O O8 0.672269 0.053037 0.571209
O O9 0.735293 0.000000 0.500000
O O10 0.277193 0.144087 0.144087
O O11 0.233335 0.103931 0.233335
O O12 0.000000 0.500000 0.886951
O O13 0.054245 0.572716 0.945756
O O14 0.361455 0.871375 0.500000
O O15 0.402798 0.875373 0.402798
#
# Coordination Sequence:
#
# PCOD8331115 Si02
#       6
#    48  24  24  48  24  48
#     4   9  17  30  47  67  91 119 147 177 220 273
#     4  12  19  30  51  74  91 113 161 198 231 268
#     4  10  20  32  45  63  91 119 145 188 237 271
#     4  10  20  32  47  68  94 122 150 186 231 279
#     4   9  19  35  50  65  94 134 166 195 233 274
#     4  10  20  33  48  65  87 116 149 187 229 270
#
# _framework density 15.130466999999999
#
# number of rings (size 3 to 8) (size 9 to 14) (size 15 to 20)
#    0.000    2.111    2.222    2.444    0.000    3.333 
#    0.000    0.000    0.000    2.000    0.000    0.000 
#    0.000    0.000    0.000    0.000    0.000    0.000 
#
# Total GULP energy -2678558.052146 kJ/mol
# GULP energy per Si atom -12400.731723 kJ/mol
# Density = 1.509603 g / cm^3
# Si number density = 15.130467 Si / 1000 Ang^3
#
#
#
# Elastic Constant Matrix: (Units=GPa)
#
#
# Indices 1 2 3 4 5 6 
#
# 1 95.0865 49.9924 49.9924 0.0000 0.0000 0.0000
# 2 49.9924 95.0865 49.9924 0.0000 0.0000 0.0000
# 3 49.9924 49.9924 95.0865 0.0000 0.0000 0.0000
# 4 0.0000 0.0000 0.0000 -10.9430 0.0000 0.0000
# 5 0.0000 0.0000 0.0000 0.0000 -10.9430 0.0000
# 6 0.0000 0.0000 0.0000 0.0000 0.0000 -10.9430
#
#
#
# Elastic Compliance Matrix: (Units=1/GPa)
#
#
# Indices 1 2 3 4 5 6 
#
# 1 0.016493 -0.005683 -0.005683 0.000000 0.000000 0.000000
# 2 -0.005683 0.016493 -0.005683 0.000000 0.000000 0.000000
# 3 -0.005683 -0.005683 0.016493 0.000000 0.000000 0.000000
# 4 0.000000 0.000000 0.000000 -0.091383 0.000000 0.000000
# 5 0.000000 0.000000 0.000000 0.000000 -0.091383 0.000000
# 6 0.000000 0.000000 0.000000 0.000000 0.000000 -0.091383
#
#
# Mechanical properties :
#
#
# Convention : Reuss Voigt Hill
#
# Bulk Modulus (GPa) = 65.02378 65.02378 65.02378
# Shear Modulus (GPa) = -26.96228 2.45301 -12.25463
#
# Velocity S-wave (km/s) = -4.22594 1.27466 -2.84902
# Velocity P-wave (km/s) = 4.38831 6.72570 5.67857
#
# Compressibility (1/GPa) = 0.01537899
#
# Stress axis : x y z
#
# Youngs Moduli (GPa) = 60.63295 60.63295 60.63295
#
# Poissons Ratio (x) = 0.34459 0.34459
# Poissons Ratio (y) = 0.34459 0.34459
# Poissons Ratio (z) = 0.34459 0.34459
#
# Static dielectric constant tensor:
#      x y z
#    x 2.892070 0.000000 0.000000 
#    y 0.000000 2.892070 0.000000 
#    z 0.000000 0.000000 2.892070 
# 
# 
# High freq. dielectric constant tensor:
#      x y z
#    x 1.574840 0.000000 0.000000 
#    y 0.000000 1.574840 0.000000 
#    z 0.000000 0.000000 1.574840 
# 
# From -- ./inp_files/728.got.cif
#   From: 2010.03.12/outbox.cif.g09.slc.cpg/sg221_cif.got.tgz:728.got - 2010.03.30 09:08:03.
