data_PCOD8331141
_publ_section_title
;
Structure prediction by ZEFSAII (Michael W. Deem and Ramdas Pophale) SiO2 
 PCOD8331141
Probable space group: P N 3 M
;
_chemical_formula_sum "Si O2"
_cell_formula_units_Z 168
_cell_length_a 20.252983
_cell_length_b 20.252983
_cell_length_c 20.252983
_cell_angle_alpha 90.000000
_cell_angle_beta 90.000000
_cell_angle_gamma 90.000000
_cell_volume 8307.435815
_symmetry_space_group_name_H-M "P N 3 M"
_symmetry_group_IT_number 224
_space_group.IT_coordinate_system_code '2'
_symmetry_cell_setting 'cubic'
loop_
_space_group_symop_operation_xyz
x,y,z
-y,1/2+x,1/2+z
1/2-x,1/2-y,z
1/2+y,-x,1/2+z
1/2+x,-z,1/2+y
x,1/2-y,1/2-z
1/2+x,1/2+z,-y
1/2+z,1/2+y,-x
1/2-x,y,1/2-z
-z,1/2+y,1/2+x
z,x,y
y,z,x
1/2-y,1/2-z,x
z,1/2-x,1/2-y
1/2-y,z,1/2-x
1/2-z,1/2-x,y
1/2-z,x,1/2-y
y,1/2-z,1/2-x
1/2+y,1/2+x,-z
-y,-x,-z
-x,1/2+z,1/2+y
-x,-z,-y
1/2+z,-y,1/2+x
-z,-y,-x
-x,-y,-z
y,1/2-x,1/2-z
1/2+x,1/2+y,-z
1/2-y,x,1/2-z
1/2-x,z,1/2-y
-x,1/2+y,1/2+z
1/2-x,1/2-z,y
1/2-z,1/2-y,x
1/2+x,-y,1/2+z
z,1/2-y,1/2-x
-z,-x,-y
-y,-z,-x
1/2+y,1/2+z,-x
-z,1/2+x,1/2+y
1/2+y,-z,1/2+x
1/2+z,1/2+x,-y
1/2+z,-x,1/2+y
-y,1/2+z,1/2+x
1/2-y,1/2-x,z
y,x,z
x,1/2-z,1/2-y
x,z,y
1/2-z,y,1/2-x
z,y,x
loop_
_atom_site_type_symbol
_atom_site_label
_atom_site_fract_x
_atom_site_fract_y
_atom_site_fract_z
Si Si1 0.500000 0.608406 0.391595
Si Si2 0.697998 0.310016 0.078865
Si Si3 0.749756 0.854126 0.542850
Si Si4 0.906504 0.108400 0.285675
O O1 0.540524 0.540524 0.389944
O O2 0.546527 0.671248 0.382977
O O3 0.750000 0.250000 0.089975
O O4 0.716348 0.378772 0.121229
O O5 0.630370 0.284011 0.110630
O O6 0.681903 0.318098 0.000000
O O7 0.691069 0.808932 0.515526
O O8 0.810199 0.810199 0.569307
O O9 0.722935 0.897430 0.602571
O O10 0.773850 0.901030 0.484113
O O11 0.892602 0.176868 0.323133
#
# Coordination Sequence:
#
# PCOD8331141 Si02
#       4
#    24  48  48  48
#     4  10  19  32  53  82 118 156 194 240 298 364
#     4  11  24  41  63  90 120 155 197 249 309 371
#     4  10  20  34  53  77 107 143 183 226 271 322
#     4  10  21  36  55  81 112 146 185 230 281 341
#
# _framework density 20.222847000000002
#
# number of rings (size 3 to 8) (size 9 to 14) (size 15 to 20)
#    0.000    1.714    0.000    5.000    0.000    7.714 
#    0.000    2.857    0.000    2.571    0.000    0.000 
#    0.000    0.000    0.000    0.000    0.000    0.000 
#
# Total GULP energy -2081551.157710 kJ/mol
# GULP energy per Si atom -12390.185463 kJ/mol
# Density = 2.017682 g / cm^3
# Si number density = 20.222847 Si / 1000 Ang^3
#
#
#
# Elastic Constant Matrix: (Units=GPa)
#
#
# Indices 1 2 3 4 5 6 
#
# 1 82.7035 44.1885 44.1885 0.0000 0.0000 0.0000
# 2 44.1885 82.7035 44.1885 0.0000 0.0000 0.0000
# 3 44.1885 44.1885 82.7035 0.0000 0.0000 0.0000
# 4 0.0000 0.0000 0.0000 29.6516 0.0000 0.0000
# 5 0.0000 0.0000 0.0000 0.0000 29.6516 0.0000
# 6 0.0000 0.0000 0.0000 0.0000 0.0000 29.6516
#
#
#
# Elastic Compliance Matrix: (Units=1/GPa)
#
#
# Indices 1 2 3 4 5 6 
#
# 1 0.019258 -0.006706 -0.006706 0.000000 0.000000 0.000000
# 2 -0.006706 0.019258 -0.006706 0.000000 0.000000 0.000000
# 3 -0.006706 -0.006706 0.019258 0.000000 0.000000 0.000000
# 4 0.000000 0.000000 0.000000 0.033725 0.000000 0.000000
# 5 0.000000 0.000000 0.000000 0.000000 0.033725 0.000000
# 6 0.000000 0.000000 0.000000 0.000000 0.000000 0.033725
#
#
# Mechanical properties :
#
#
# Convention : Reuss Voigt Hill
#
# Bulk Modulus (GPa) = 57.02686 57.02686 57.02686
# Shear Modulus (GPa) = 24.38659 25.49395 24.94027
#
# Velocity S-wave (km/s) = 3.47636 3.55442 3.51561
# Velocity P-wave (km/s) = 6.66138 6.71607 6.68878
#
# Compressibility (1/GPa) = 0.01753560
#
# Stress axis : x y z
#
# Youngs Moduli (GPa) = 51.92731 51.92731 51.92731
#
# Poissons Ratio (x) = 0.34824 0.34824
# Poissons Ratio (y) = 0.34824 0.34824
# Poissons Ratio (z) = 0.34824 0.34824
#
# Static dielectric constant tensor:
#      x y z
#    x 3.731440 0.000000 0.000000 
#    y 0.000000 3.731440 0.000000 
#    z 0.000000 0.000000 3.731440 
# 
# 
# High freq. dielectric constant tensor:
#      x y z
#    x 1.789440 0.000000 0.000000 
#    y 0.000000 1.789440 0.000000 
#    z 0.000000 0.000000 1.789440 
# 
# From -- ./inp_files/480.got.cif
#   From: 2010.03.12/outbox.cif.g09.slc.cpg/sg224_cif.got.tgz:480.got - 2010.03.30 09:09:26.
