data_PCOD8331061
_publ_section_title
;
Structure prediction by ZEFSAII (Michael W. Deem and Ramdas Pophale) SiO2 
 PCOD8331061
Probable space group: P -4 3 N
;
_chemical_formula_sum "Si O2"
_cell_formula_units_Z 130
_cell_length_a 19.511825
_cell_length_b 19.511825
_cell_length_c 19.511825
_cell_angle_alpha 90.000000
_cell_angle_beta 90.000000
_cell_angle_gamma 90.000000
_cell_volume 7428.372550
_symmetry_space_group_name_H-M "P -4 3 N"
_symmetry_group_IT_number 218
_symmetry_cell_setting 'cubic'
loop_
_space_group_symop_operation_xyz
x,y,z
1/2+y,1/2-x,1/2-z
-x,-y,z
1/2-y,1/2+x,1/2-z
1/2-x,1/2+z,1/2-y
x,-y,-z
1/2-x,1/2-z,1/2+y
1/2-z,1/2-y,1/2+x
-x,y,-z
1/2+z,1/2-y,1/2-x
z,x,y
y,z,x
-y,-z,x
z,-x,-y
-y,z,-x
-z,-x,y
-z,x,-y
y,-z,-x
1/2-y,1/2-x,1/2+z
1/2+y,1/2+x,1/2+z
1/2+x,1/2-z,1/2-y
1/2+x,1/2+z,1/2+y
1/2-z,1/2+y,1/2-x
1/2+z,1/2+y,1/2+x
loop_
_atom_site_type_symbol
_atom_site_label
_atom_site_fract_x
_atom_site_fract_y
_atom_site_fract_z
Si Si1 0.198235 0.023830 0.688825
Si Si2 0.594707 0.594706 0.405295
Si Si3 0.348493 0.124075 0.237470
Si Si4 0.311170 0.976168 0.198237
Si Si5 0.000000 0.000000 0.000000
Si Si6 0.752197 0.056913 0.056907
Si Si7 0.262529 0.848494 0.375924
O O1 0.242552 0.030671 0.757444
O O2 0.119226 0.024813 0.709742
O O3 0.214879 0.086084 0.637894
O O4 0.214171 0.954415 0.648302
O O5 0.547329 0.547328 0.452673
O O6 0.581186 0.673871 0.418846
O O7 0.413917 0.137895 0.285118
O O8 0.348714 0.170361 0.170360
O O9 0.279829 0.140191 0.279829
O O10 0.351694 0.045585 0.214167
O O11 0.290243 0.975181 0.119230
O O12 0.761975 0.000000 0.000000
#
# Coordination Sequence:
#
# PCOD8331061 Si02
#       7
#    24   8  24  24   2  24  24
#     4  10  21  36  57  84 112 150 198 241 302 351
#     4  12  24  36  57  81 124 170 211 237 297 366
#     4  10  20  36  57  84 114 151 193 247 299 360
#     4  10  21  36  57  84 112 150 198 241 302 351
#     4  12  24  48  48  84 124 188 220 222 312 384
#     4  12  22  36  57  86 121 157 202 252 289 362
#     4  10  20  36  57  84 114 151 193 247 299 360
#
# _framework density 17.500467
#
# number of rings (size 3 to 8) (size 9 to 14) (size 15 to 20)
#    0.000    1.477    4.615    1.477    0.000    0.738 
#    0.000    0.000    0.000    0.000    0.000    0.000 
#    0.000    0.000    0.000    0.000    0.000    0.000 
#
# Total GULP energy -1612563.694856 kJ/mol
# GULP energy per Si atom -12404.336114 kJ/mol
# Density = 1.746064 g / cm^3
# Si number density = 17.500467 Si / 1000 Ang^3
#
#
#
# Elastic Constant Matrix: (Units=GPa)
#
#
# Indices 1 2 3 4 5 6 
#
# 1 97.5189 42.0511 42.0505 0.0000 0.0000 0.0000
# 2 42.0511 97.5189 42.0505 0.0000 0.0000 0.0000
# 3 42.0505 42.0505 97.5176 0.0000 0.0000 0.0000
# 4 0.0000 0.0000 0.0000 22.7011 0.0000 0.0000
# 5 0.0000 0.0000 0.0000 0.0000 22.7011 0.0000
# 6 0.0000 0.0000 0.0000 0.0000 0.0000 22.7021
#
#
#
# Elastic Compliance Matrix: (Units=1/GPa)
#
#
# Indices 1 2 3 4 5 6 
#
# 1 0.013854 -0.004174 -0.004174 0.000000 0.000000 0.000000
# 2 -0.004174 0.013854 -0.004174 0.000000 0.000000 0.000000
# 3 -0.004174 -0.004174 0.013854 0.000000 0.000000 0.000000
# 4 0.000000 0.000000 0.000000 0.044051 0.000000 0.000000
# 5 0.000000 0.000000 0.000000 0.000000 0.044051 0.000000
# 6 0.000000 0.000000 0.000000 0.000000 0.000000 0.044049
#
#
# Mechanical properties :
#
#
# Convention : Reuss Voigt Hill
#
# Bulk Modulus (GPa) = 60.53994 60.53994 60.53994
# Shear Modulus (GPa) = 24.47813 24.71444 24.59629
#
# Velocity S-wave (km/s) = 3.74399 3.76202 3.75302
# Velocity P-wave (km/s) = 7.30468 7.31702 7.31086
#
# Compressibility (1/GPa) = 0.01651802
#
# Stress axis : x y z
#
# Youngs Moduli (GPa) = 72.17989 72.17989 72.17914
#
# Poissons Ratio (x) = 0.30129 0.30129
# Poissons Ratio (y) = 0.30129 0.30129
# Poissons Ratio (z) = 0.30129 0.30129
#
# Static dielectric constant tensor:
#      x y z
#    x 3.253450 0.000000 0.000000 
#    y 0.000000 3.253450 0.000000 
#    z 0.000000 0.000000 3.253470 
# 
# 
# High freq. dielectric constant tensor:
#      x y z
#    x 1.680720 0.000000 0.000000 
#    y 0.000000 1.680720 0.000000 
#    z 0.000000 0.000000 1.680720 
# 
# From -- ./inp_files/735.got.cif
#   From: 2010.03.12/outbox.cif.g09.slc.cpg/sg218_cif.got.tgz:735.got - 2010.03.30 09:07:27.
