data_PCOD8331131
_publ_section_title
;
Structure prediction by ZEFSAII (Michael W. Deem and Ramdas Pophale) SiO2 
 PCOD8331131
Probable space group: P M 3 N
;
_chemical_formula_sum "Si O2"
_cell_formula_units_Z 352
_cell_length_a 26.764267
_cell_length_b 26.764267
_cell_length_c 26.764267
_cell_angle_alpha 90.000000
_cell_angle_beta 90.000000
_cell_angle_gamma 90.000000
_cell_volume 19171.940003
_symmetry_space_group_name_H-M "P M 3 N"
_symmetry_group_IT_number 223
_symmetry_cell_setting 'cubic'
loop_
_space_group_symop_operation_xyz
x,y,z
1/2-y,1/2+x,1/2+z
-x,-y,z
1/2+y,1/2-x,1/2+z
1/2+x,1/2-z,1/2+y
x,-y,-z
1/2+x,1/2+z,1/2-y
1/2+z,1/2+y,1/2-x
-x,y,-z
1/2-z,1/2+y,1/2+x
z,x,y
y,z,x
-y,-z,x
z,-x,-y
-y,z,-x
-z,-x,y
-z,x,-y
y,-z,-x
1/2+y,1/2+x,1/2-z
1/2-y,1/2-x,1/2-z
1/2-x,1/2+z,1/2+y
1/2-x,1/2-z,1/2-y
1/2+z,1/2-y,1/2+x
1/2-z,1/2-y,1/2-x
-x,-y,-z
1/2+y,1/2-x,1/2-z
x,y,-z
1/2-y,1/2+x,1/2-z
1/2-x,1/2+z,1/2-y
-x,y,z
1/2-x,1/2-z,1/2+y
1/2-z,1/2-y,1/2+x
x,-y,z
1/2+z,1/2-y,1/2-x
-z,-x,-y
-y,-z,-x
y,z,-x
-z,x,y
y,-z,x
z,x,-y
z,-x,y
-y,z,x
1/2-y,1/2-x,1/2+z
1/2+y,1/2+x,1/2+z
1/2+x,1/2-z,1/2-y
1/2+x,1/2+z,1/2+y
1/2-z,1/2+y,1/2-x
1/2+z,1/2+y,1/2+x
loop_
_atom_site_type_symbol
_atom_site_label
_atom_site_fract_x
_atom_site_fract_y
_atom_site_fract_z
Si Si1 0.284931 0.620029 0.556494
Si Si2 0.217157 0.628060 0.302276
Si Si3 0.131959 0.377793 0.126054
Si Si4 0.311524 0.113840 0.721985
Si Si5 0.193332 0.682282 0.557411
Si Si6 0.441451 0.057802 0.058602
Si Si7 0.555530 0.351891 0.709886
Si Si8 0.783549 0.783549 0.783549
O O1 0.274206 0.602099 0.500000
O O2 0.240557 0.653279 0.580535
O O3 0.335122 0.652425 0.559445
O O4 0.288867 0.571812 0.590754
O O5 0.168014 0.618168 0.336295
O O6 0.203356 0.631249 0.243220
O O7 0.254958 0.583635 0.313050
O O8 0.247405 0.679211 0.315429
O O9 0.174378 0.407678 0.157303
O O10 0.158367 0.357396 0.076790
O O11 0.087186 0.411417 0.102833
O O12 0.339981 0.160020 0.750000
O O13 0.304818 0.067987 0.759122
O O14 0.196116 0.673100 0.500000
O O15 0.500000 0.065374 0.070280
O O16 0.426399 0.000000 0.073214
O O17 0.430564 0.065656 0.000000
O O18 0.500000 0.349560 0.730397
O O19 0.750000 0.750000 0.750000
#
# Coordination Sequence:
#
# PCOD8331131 Si02
#       8
#    48  48  48  48  48  48  48  16
#     4  10  20  37  56  76 110 153 192 237 287 338
#     4  12  21  34  51  79 118 155 195 239 274 324
#     4  11  21  34  55  86 114 141 182 231 286 335
#     4  10  21  35  52  80 116 159 197 230 267 321
#     4  10  19  34  52  76 112 147 179 222 277 333
#     4   9  20  42  69  90 107 135 183 243 303 362
#     4  11  22  36  55  80 109 151 197 236 287 341
#     4  12  21  33  57  84 114 162 213 249 268 320
#
# _framework density 18.360166
#
# number of rings (size 3 to 8) (size 9 to 14) (size 15 to 20)
#    0.000    1.500    2.727    5.182    0.000    1.364 
#    0.000    0.000    0.000    2.455    0.000   10.500 
#    0.000    0.000    0.000    8.455    0.000    0.000 
#
# Total GULP energy -4360969.422722 kJ/mol
# GULP energy per Si atom -12389.117678 kJ/mol
# Density = 1.831838 g / cm^3
# Si number density = 18.360166 Si / 1000 Ang^3
#
#
#
# Elastic Constant Matrix: (Units=GPa)
#
#
# Indices 1 2 3 4 5 6 
#
# 1 83.2676 42.4530 42.4530 0.0000 0.0000 0.0000
# 2 42.4530 83.2676 42.4530 0.0000 0.0000 0.0000
# 3 42.4530 42.4530 83.2676 0.0000 0.0000 0.0000
# 4 0.0000 0.0000 0.0000 31.6821 0.0000 0.0000
# 5 0.0000 0.0000 0.0000 0.0000 31.6821 0.0000
# 6 0.0000 0.0000 0.0000 0.0000 0.0000 31.6821
#
#
#
# Elastic Compliance Matrix: (Units=1/GPa)
#
#
# Indices 1 2 3 4 5 6 
#
# 1 0.018316 -0.006185 -0.006185 0.000000 0.000000 0.000000
# 2 -0.006185 0.018316 -0.006185 0.000000 0.000000 0.000000
# 3 -0.006185 -0.006185 0.018316 0.000000 0.000000 0.000000
# 4 0.000000 0.000000 0.000000 0.031564 0.000000 0.000000
# 5 0.000000 0.000000 0.000000 0.000000 0.031564 0.000000
# 6 0.000000 0.000000 0.000000 0.000000 0.000000 0.031564
#
#
# Mechanical properties :
#
#
# Convention : Reuss Voigt Hill
#
# Bulk Modulus (GPa) = 56.05785 56.05785 56.05785
# Shear Modulus (GPa) = 25.94775 27.17216 26.55995
#
# Velocity S-wave (km/s) = 3.76342 3.85119 3.80756
# Velocity P-wave (km/s) = 7.03442 7.09747 7.06602
#
# Compressibility (1/GPa) = 0.01783871
#
# Stress axis : x y z
#
# Youngs Moduli (GPa) = 54.59675 54.59675 54.59675
#
# Poissons Ratio (x) = 0.33768 0.33768
# Poissons Ratio (y) = 0.33768 0.33768
# Poissons Ratio (z) = 0.33768 0.33768
#
# Static dielectric constant tensor:
#      x y z
#    x 3.534750 0.000000 0.000000 
#    y 0.000000 3.534750 0.000000 
#    z 0.000000 0.000000 3.534750 
# 
# 
# High freq. dielectric constant tensor:
#      x y z
#    x 1.706390 0.000000 0.000000 
#    y 0.000000 1.706390 0.000000 
#    z 0.000000 0.000000 1.706390 
# 
# From -- ./inp_files/940.got.cif
#   From: 2010.03.12/outbox.cif.g09.slc.cpg/sg223_cif.got.tgz:940.got - 2010.03.30 09:08:57.
