data_PCOD8331065
_publ_section_title
;
Structure prediction by ZEFSAII (Michael W. Deem and Ramdas Pophale) SiO2 
 PCOD8331065
Probable space group: P -4 3 N
;
_chemical_formula_sum "Si O2"
_cell_formula_units_Z 120
_cell_length_a 18.022644
_cell_length_b 18.022644
_cell_length_c 18.022644
_cell_angle_alpha 90.000000
_cell_angle_beta 90.000000
_cell_angle_gamma 90.000000
_cell_volume 5854.037668
_symmetry_space_group_name_H-M "P -4 3 N"
_symmetry_group_IT_number 218
_symmetry_cell_setting 'cubic'
loop_
_space_group_symop_operation_xyz
x,y,z
1/2+y,1/2-x,1/2-z
-x,-y,z
1/2-y,1/2+x,1/2-z
1/2-x,1/2+z,1/2-y
x,-y,-z
1/2-x,1/2-z,1/2+y
1/2-z,1/2-y,1/2+x
-x,y,-z
1/2+z,1/2-y,1/2-x
z,x,y
y,z,x
-y,-z,x
z,-x,-y
-y,z,-x
-z,-x,y
-z,x,-y
y,-z,-x
1/2-y,1/2-x,1/2+z
1/2+y,1/2+x,1/2+z
1/2+x,1/2-z,1/2-y
1/2+x,1/2+z,1/2+y
1/2-z,1/2+y,1/2-x
1/2+z,1/2+y,1/2+x
loop_
_atom_site_type_symbol
_atom_site_label
_atom_site_fract_x
_atom_site_fract_y
_atom_site_fract_z
Si Si1 0.681316 0.887672 0.367229
Si Si2 0.832148 0.481419 0.916076
Si Si3 0.698598 0.803896 0.509831
Si Si4 0.945601 0.802811 0.692860
Si Si5 0.849169 0.432019 0.450250
O O1 0.707080 0.870867 0.450795
O O2 0.750078 0.918164 0.319201
O O3 0.641139 0.816913 0.326507
O O4 0.616694 0.948086 0.374221
O O5 0.755336 0.465406 0.872896
O O6 0.890341 0.414989 0.907484
O O7 0.812621 0.500000 0.000000
O O8 0.727043 0.732676 0.463322
O O9 0.613881 0.793851 0.536684
O O10 0.997508 0.874697 0.692884
O O11 0.879008 0.500000 0.500000
#
# Coordination Sequence:
#
# PCOD8331065 Si02
#       5
#    24  24  24  24  24
#     4  11  23  38  61  94 130 178 215 281 334 405
#     4  11  21  35  65  95 137 184 230 266 330 414
#     4  11  24  42  62  94 137 171 229 284 340 413
#     4  11  24  42  65  89 133 184 231 274 350 418
#     4  12  24  42  67 100 135 175 234 291 335 401
#
# _framework density 20.498671000000002
#
# number of rings (size 3 to 8) (size 9 to 14) (size 15 to 20)
#    0.000    0.800    4.000    4.800    2.800    4.800 
#    2.400    0.000    4.400    0.000    0.000    0.000 
#    0.000    0.000    0.000    0.000    0.000    0.000 
#
# Total GULP energy -1487491.176803 kJ/mol
# GULP energy per Si atom -12395.759807 kJ/mol
# Density = 2.045201 g / cm^3
# Si number density = 20.498671 Si / 1000 Ang^3
#
#
#
# Elastic Constant Matrix: (Units=GPa)
#
#
# Indices 1 2 3 4 5 6 
#
# 1 91.5381 35.6291 35.6291 0.0000 0.0000 0.0000
# 2 35.6291 91.5381 35.6291 0.0000 0.0000 0.0000
# 3 35.6291 35.6291 91.5381 0.0000 0.0000 0.0000
# 4 0.0000 0.0000 0.0000 30.4590 0.0000 0.0000
# 5 0.0000 0.0000 0.0000 0.0000 30.4590 0.0000
# 6 0.0000 0.0000 0.0000 0.0000 0.0000 30.4590
#
#
#
# Elastic Compliance Matrix: (Units=1/GPa)
#
#
# Indices 1 2 3 4 5 6 
#
# 1 0.013972 -0.003915 -0.003915 0.000000 0.000000 0.000000
# 2 -0.003915 0.013972 -0.003915 0.000000 0.000000 0.000000
# 3 -0.003915 -0.003915 0.013972 0.000000 0.000000 0.000000
# 4 0.000000 0.000000 0.000000 0.032831 0.000000 0.000000
# 5 0.000000 0.000000 0.000000 0.000000 0.032831 0.000000
# 6 0.000000 0.000000 0.000000 0.000000 0.000000 0.032831
#
#
# Mechanical properties :
#
#
# Convention : Reuss Voigt Hill
#
# Bulk Modulus (GPa) = 54.26543 54.26543 54.26543
# Shear Modulus (GPa) = 29.40518 29.45717 29.43117
#
# Velocity S-wave (km/s) = 3.79158 3.79493 3.79325
# Velocity P-wave (km/s) = 6.76005 6.76255 6.76130
#
# Compressibility (1/GPa) = 0.01842794
#
# Stress axis : x y z
#
# Youngs Moduli (GPa) = 71.57328 71.57328 71.57328
#
# Poissons Ratio (x) = 0.28018 0.28018
# Poissons Ratio (y) = 0.28018 0.28018
# Poissons Ratio (z) = 0.28018 0.28018
#
# Static dielectric constant tensor:
#      x y z
#    x 3.872810 0.000000 0.000000 
#    y 0.000000 3.872810 0.000000 
#    z 0.000000 0.000000 3.872810 
# 
# 
# High freq. dielectric constant tensor:
#      x y z
#    x 1.793210 0.000000 0.000000 
#    y 0.000000 1.793210 0.000000 
#    z 0.000000 0.000000 1.793210 
# 
# From -- ./inp_files/665.got.cif
#   From: 2010.03.12/outbox.cif.g09.slc.cpg/sg218_cif.got.tgz:665.got - 2010.03.30 09:07:27.
