data_PCOD8331045
_publ_section_title
;
Structure prediction by ZEFSAII (Michael W. Deem and Ramdas Pophale) SiO2 
 PCOD8331045
Probable space group: P -4 3 M
;
_chemical_formula_sum "Si O2"
_cell_formula_units_Z 120
_cell_length_a 18.540335
_cell_length_b 18.540335
_cell_length_c 18.540335
_cell_angle_alpha 90.000000
_cell_angle_beta 90.000000
_cell_angle_gamma 90.000000
_cell_volume 6373.129320
_symmetry_space_group_name_H-M "P -4 3 M"
_symmetry_group_IT_number 215
_symmetry_cell_setting 'cubic'
loop_
_space_group_symop_operation_xyz
x,y,z
y,-x,-z
-x,-y,z
-y,x,-z
-x,z,-y
x,-y,-z
-x,-z,y
-z,-y,x
-x,y,-z
z,-y,-x
z,x,y
y,z,x
-y,-z,x
z,-x,-y
-y,z,-x
-z,-x,y
-z,x,-y
y,-z,-x
-y,-x,z
y,x,z
x,-z,-y
x,z,y
-z,y,-x
z,y,x
loop_
_atom_site_type_symbol
_atom_site_label
_atom_site_fract_x
_atom_site_fract_y
_atom_site_fract_z
Si Si1 0.918789 0.508052 0.199300
Si Si2 0.709544 0.592506 0.827945
Si Si3 0.117000 0.998978 0.235824
Si Si4 0.270580 0.499371 0.385884
Si Si5 0.670869 0.094635 0.788200
O O1 0.872030 0.500648 0.127971
O O2 0.898083 0.444268 0.255090
O O3 0.908852 0.587156 0.233667
O O4 0.000000 0.500000 0.174306
O O5 0.662840 0.662840 0.850231
O O6 0.769419 0.616611 0.769419
O O7 0.659664 0.530031 0.795523
O O8 0.073979 0.926022 0.257413
O O9 0.167596 0.982874 0.167596
O O10 0.164750 0.024768 0.304331
O O11 0.061304 0.061304 0.212942
O O12 0.300678 0.561432 0.438569
O O13 0.242218 0.430748 0.430748
O O14 0.335339 0.473722 0.335339
O O15 0.687539 0.166386 0.833615
O O16 0.714141 0.098947 0.714141
#
# Coordination Sequence:
#
# PCOD8331045 Si02
#       5
#    24  24  24  24  24
#     4  10  22  38  56  80 106 132 165 203 245 295
#     4   9  18  34  55  77 101 131 168 209 253 301
#     4   9  16  26  42  66  98 136 177 219 263 311
#     4   9  16  26  42  66  98 135 173 212 254 301
#     4   9  18  33  53  76 102 134 171 210 252 300
#
# _framework density 18.829053999999999
#
# number of rings (size 3 to 8) (size 9 to 14) (size 15 to 20)
#    0.000    2.800    0.000    1.200    0.000    5.800 
#    0.000    2.000    0.000    5.600    0.000    8.400 
#    0.000    0.000    0.000    0.000    0.000    0.000 
#
# Total GULP energy -1487687.874749 kJ/mol
# GULP energy per Si atom -12397.398956 kJ/mol
# Density = 1.878620 g / cm^3
# Si number density = 18.829054 Si / 1000 Ang^3
#
#
#
# Elastic Constant Matrix: (Units=GPa)
#
#
# Indices 1 2 3 4 5 6 
#
# 1 95.8459 47.7958 47.7958 0.0000 0.0000 0.0000
# 2 47.7958 95.8459 47.7958 0.0000 0.0000 0.0000
# 3 47.7958 47.7958 95.8459 0.0000 0.0000 0.0000
# 4 0.0000 0.0000 0.0000 19.4066 0.0000 0.0000
# 5 0.0000 0.0000 0.0000 0.0000 19.4066 0.0000
# 6 0.0000 0.0000 0.0000 0.0000 0.0000 19.4066
#
#
#
# Elastic Compliance Matrix: (Units=1/GPa)
#
#
# Indices 1 2 3 4 5 6 
#
# 1 0.015616 -0.005196 -0.005196 0.000000 0.000000 0.000000
# 2 -0.005196 0.015616 -0.005196 0.000000 0.000000 0.000000
# 3 -0.005196 -0.005196 0.015616 0.000000 0.000000 0.000000
# 4 0.000000 0.000000 0.000000 0.051529 0.000000 0.000000
# 5 0.000000 0.000000 0.000000 0.000000 0.051529 0.000000
# 6 0.000000 0.000000 0.000000 0.000000 0.000000 0.051529
#
#
# Mechanical properties :
#
#
# Convention : Reuss Voigt Hill
#
# Bulk Modulus (GPa) = 63.81250 63.81250 63.81250
# Shear Modulus (GPa) = 21.02320 21.25402 21.13861
#
# Velocity S-wave (km/s) = 3.34508 3.36339 3.35425
# Velocity P-wave (km/s) = 6.99167 7.00337 6.99752
#
# Compressibility (1/GPa) = 0.01567091
#
# Stress axis : x y z
#
# Youngs Moduli (GPa) = 64.03852 64.03852 64.03852
#
# Poissons Ratio (x) = 0.33274 0.33274
# Poissons Ratio (y) = 0.33274 0.33274
# Poissons Ratio (z) = 0.33274 0.33274
#
# Static dielectric constant tensor:
#      x y z
#    x 3.403730 0.000000 0.000000 
#    y 0.000000 3.403730 0.000000 
#    z 0.000000 0.000000 3.403730 
# 
# 
# High freq. dielectric constant tensor:
#      x y z
#    x 1.723540 0.000000 0.000000 
#    y 0.000000 1.723540 0.000000 
#    z 0.000000 0.000000 1.723540 
# 
# From -- ./inp_files/630.got.cif
#   From: 2010.03.12/outbox.cif.g09.slc.cpg/sg215_cif.got.tgz:630.got - 2010.03.30 09:06:09.
