data_PCOD8331042
_publ_section_title
;
Structure prediction by ZEFSAII (Michael W. Deem and Ramdas Pophale) SiO2 
 PCOD8331042
Probable space group: P -4 3 M
;
_chemical_formula_sum "Si O2"
_cell_formula_units_Z 168
_cell_length_a 20.240832
_cell_length_b 20.240832
_cell_length_c 20.240832
_cell_angle_alpha 90.000000
_cell_angle_beta 90.000000
_cell_angle_gamma 90.000000
_cell_volume 8292.492371
_symmetry_space_group_name_H-M "P -4 3 M"
_symmetry_group_IT_number 215
_symmetry_cell_setting 'cubic'
loop_
_space_group_symop_operation_xyz
x,y,z
y,-x,-z
-x,-y,z
-y,x,-z
-x,z,-y
x,-y,-z
-x,-z,y
-z,-y,x
-x,y,-z
z,-y,-x
z,x,y
y,z,x
-y,-z,x
z,-x,-y
-y,z,-x
-z,-x,y
-z,x,-y
y,-z,-x
-y,-x,z
y,x,z
x,-z,-y
x,z,y
-z,y,-x
z,y,x
loop_
_atom_site_type_symbol
_atom_site_label
_atom_site_fract_x
_atom_site_fract_y
_atom_site_fract_z
Si Si1 0.001307 0.894200 0.790816
Si Si2 0.584181 0.307462 0.801785
Si Si3 0.076736 0.503189 0.723795
Si Si4 0.444021 0.141653 0.040473
Si Si5 0.837145 0.057215 0.332491
Si Si6 0.501127 0.394527 0.289092
Si Si7 0.841630 0.373258 0.266354
O O1 0.938881 0.938881 0.809446
O O2 0.023974 0.856260 0.856260
O O3 0.981605 0.840509 0.736104
O O4 0.061701 0.938300 0.764224
O O5 0.653306 0.346695 0.795702
O O6 0.591793 0.236976 0.763025
O O7 0.565535 0.302061 0.879690
O O8 0.524025 0.348128 0.769652
O O9 0.075926 0.512275 0.802308
O O10 0.117967 0.436896 0.708167
O O11 0.000000 0.500000 0.695874
O O12 0.409646 0.093368 0.093368
O O13 0.500000 0.101086 0.000000
O O14 0.389260 0.176901 0.995948
O O15 0.907426 0.092575 0.346789
O O16 0.778687 0.110012 0.329002
O O17 0.564270 0.435731 0.263133
O O18 0.442924 0.442924 0.312449
O O19 0.522846 0.351922 0.351922
O O20 0.820113 0.329299 0.329299
O O21 0.776018 0.393131 0.223983
#
# Coordination Sequence:
#
# PCOD8331042 Si02
#       7
#    24  24  24  24  24  24  24
#     4  10  20  34  52  75 106 146 193 244 299 362
#     4  10  21  39  63  89 120 160 210 263 315 375
#     4  11  23  41  62  88 122 162 198 252 314 373
#     4  11  20  33  54  82 113 148 187 236 298 364
#     4  10  20  35  54  81 115 149 189 238 298 364
#     4   9  17  30  51  81 117 157 199 247 304 367
#     4  11  22  39  62  90 124 162 207 256 311 374
#
# _framework density 20.259288999999999
#
# number of rings (size 3 to 8) (size 9 to 14) (size 15 to 20)
#    0.000    1.714    2.857    3.429    0.000    3.857 
#    0.000    1.429    0.000    4.000    0.000    3.000 
#    0.000    0.000    0.000    0.000    0.000    0.000 
#
# Total GULP energy -2082229.188497 kJ/mol
# GULP energy per Si atom -12394.221360 kJ/mol
# Density = 2.021318 g / cm^3
# Si number density = 20.259289 Si / 1000 Ang^3
#
#
#
# Elastic Constant Matrix: (Units=GPa)
#
#
# Indices 1 2 3 4 5 6 
#
# 1 82.9306 26.7224 26.7224 0.0000 0.0000 0.0000
# 2 26.7224 82.9306 26.7224 0.0000 0.0000 0.0000
# 3 26.7224 26.7224 82.9306 0.0000 0.0000 0.0000
# 4 0.0000 0.0000 0.0000 25.0783 0.0000 0.0000
# 5 0.0000 0.0000 0.0000 0.0000 25.0783 0.0000
# 6 0.0000 0.0000 0.0000 0.0000 0.0000 25.0783
#
#
#
# Elastic Compliance Matrix: (Units=1/GPa)
#
#
# Indices 1 2 3 4 5 6 
#
# 1 0.014305 -0.003486 -0.003486 0.000000 0.000000 0.000000
# 2 -0.003486 0.014305 -0.003486 0.000000 0.000000 0.000000
# 3 -0.003486 -0.003486 0.014305 0.000000 0.000000 0.000000
# 4 0.000000 0.000000 0.000000 0.039875 0.000000 0.000000
# 5 0.000000 0.000000 0.000000 0.000000 0.039875 0.000000
# 6 0.000000 0.000000 0.000000 0.000000 0.000000 0.039875
#
#
# Mechanical properties :
#
#
# Convention : Reuss Voigt Hill
#
# Bulk Modulus (GPa) = 45.45847 45.45847 45.45847
# Shear Modulus (GPa) = 26.20691 26.28861 26.24776
#
# Velocity S-wave (km/s) = 3.60053 3.60614 3.60334
# Velocity P-wave (km/s) = 6.30652 6.31079 6.30865
#
# Compressibility (1/GPa) = 0.02199810
#
# Stress axis : x y z
#
# Youngs Moduli (GPa) = 69.90606 69.90606 69.90606
#
# Poissons Ratio (x) = 0.24370 0.24370
# Poissons Ratio (y) = 0.24370 0.24370
# Poissons Ratio (z) = 0.24370 0.24370
#
# Static dielectric constant tensor:
#      x y z
#    x 3.614000 0.000000 0.000000 
#    y 0.000000 3.614000 0.000000 
#    z 0.000000 0.000000 3.614000 
# 
# 
# High freq. dielectric constant tensor:
#      x y z
#    x 1.783070 0.000000 0.000000 
#    y 0.000000 1.783070 0.000000 
#    z 0.000000 0.000000 1.783070 
# 
# From -- ./inp_files/935.got.cif
#   From: 2010.03.12/outbox.cif.g09.slc.cpg/sg215_cif.got.tgz:935.got - 2010.03.30 09:06:09.
