data_PCOD8331008
_publ_section_title
;
Structure prediction by ZEFSAII (Michael W. Deem and Ramdas Pophale) SiO2 
 PCOD8331008
Probable space group: P 43 3 2
;
_chemical_formula_sum "Si O2"
_cell_formula_units_Z 120
_cell_length_a 17.803554
_cell_length_b 17.803554
_cell_length_c 17.803554
_cell_angle_alpha 90.000000
_cell_angle_beta 90.000000
_cell_angle_gamma 90.000000
_cell_volume 5643.130823
_symmetry_space_group_name_H-M "P 43 3 2"
_symmetry_group_IT_number 212
_symmetry_cell_setting 'cubic'
loop_
_space_group_symop_operation_xyz
x,y,z
3/4-y,1/4+x,3/4+z
1/2-x,-y,1/2+z
3/4+y,3/4-x,1/4+z
3/4+x,3/4-z,1/4+y
1/2+x,1/2-y,-z
1/4+x,3/4+z,3/4-y
1/4+z,3/4+y,3/4-x
-x,1/2+y,1/2-z
3/4-z,1/4+y,3/4+x
z,x,y
y,z,x
1/2-y,-z,1/2+x
1/2+z,1/2-x,-y
-y,1/2+z,1/2-x
1/2-z,-x,1/2+y
-z,1/2+x,1/2-y
1/2+y,1/2-z,-x
1/4+y,3/4+x,3/4-z
1/4-y,1/4-x,1/4-z
3/4-x,1/4+z,3/4+y
1/4-x,1/4-z,1/4-y
3/4+z,3/4-y,1/4+x
1/4-z,1/4-y,1/4-x
loop_
_atom_site_type_symbol
_atom_site_label
_atom_site_fract_x
_atom_site_fract_y
_atom_site_fract_z
Si Si1 0.036301 0.422080 0.807623
Si Si2 0.054024 0.194462 0.975225
Si Si3 0.417847 0.360511 0.937233
Si Si4 0.519745 0.743974 0.328291
Si Si5 0.053528 0.443604 0.066708
O O1 0.125000 0.438425 0.811576
O O2 0.015626 0.335816 0.809845
O O3 0.998478 0.457052 0.732628
O O4 0.987482 0.462665 0.873022
O O5 0.076628 0.107343 0.964917
O O6 0.034937 0.225339 0.893317
O O7 0.125000 0.238567 0.011434
O O8 0.977436 0.195603 0.023854
O O9 0.368505 0.312341 0.879735
O O10 0.357727 0.398048 0.994126
O O11 0.001719 0.511915 0.098861
#
# Coordination Sequence:
#
# PCOD8331008 Si02
#       5
#    24  24  24  24  24
#     4  11  22  41  70 104 138 184 232 291 370 427
#     4  12  25  45  72 101 148 191 240 292 358 438
#     4  11  25  45  70 106 140 198 237 289 354 430
#     4  11  23  46  68 105 139 184 235 298 366 413
#     4   9  20  39  70 107 143 169 229 302 355 415
#
# _framework density 21.264790999999999
#
# number of rings (size 3 to 8) (size 9 to 14) (size 15 to 20)
#    0.400    0.800    4.000    3.400    5.600    0.000 
#    8.400    0.000    0.000    4.800    0.000    0.000 
#    0.000    0.000    0.000    0.000    0.000    0.000 
#
# Total GULP energy -1486744.718618 kJ/mol
# GULP energy per Si atom -12389.539322 kJ/mol
# Density = 2.121639 g / cm^3
# Si number density = 21.264791 Si / 1000 Ang^3
#
#
#
# Elastic Constant Matrix: (Units=GPa)
#
#
# Indices 1 2 3 4 5 6 
#
# 1 100.3722 40.4481 40.4481 0.0000 0.0000 0.0000
# 2 40.4481 100.3722 40.4481 0.0000 0.0000 0.0000
# 3 40.4481 40.4481 100.3722 0.0000 0.0000 0.0000
# 4 0.0000 0.0000 0.0000 29.0408 0.0000 0.0000
# 5 0.0000 0.0000 0.0000 0.0000 29.0408 0.0000
# 6 0.0000 0.0000 0.0000 0.0000 0.0000 29.0408
#
#
#
# Elastic Compliance Matrix: (Units=1/GPa)
#
#
# Indices 1 2 3 4 5 6 
#
# 1 0.012964 -0.003724 -0.003724 0.000000 0.000000 0.000000
# 2 -0.003724 0.012964 -0.003724 0.000000 0.000000 0.000000
# 3 -0.003724 -0.003724 0.012964 0.000000 0.000000 0.000000
# 4 0.000000 0.000000 0.000000 0.034434 0.000000 0.000000
# 5 0.000000 0.000000 0.000000 0.000000 0.034434 0.000000
# 6 0.000000 0.000000 0.000000 0.000000 0.000000 0.034434
#
#
# Mechanical properties :
#
#
# Convention : Reuss Voigt Hill
#
# Bulk Modulus (GPa) = 60.42279 60.42279 60.42279
# Shear Modulus (GPa) = 29.40243 29.40932 29.40587
#
# Velocity S-wave (km/s) = 3.72248 3.72291 3.72269
# Velocity P-wave (km/s) = 6.85215 6.85246 6.85231
#
# Compressibility (1/GPa) = 0.01655005
#
# Stress axis : x y z
#
# Youngs Moduli (GPa) = 77.13619 77.13619 77.13619
#
# Poissons Ratio (x) = 0.28723 0.28723
# Poissons Ratio (y) = 0.28723 0.28723
# Poissons Ratio (z) = 0.28723 0.28723
#
# Static dielectric constant tensor:
#      x y z
#    x 4.003550 0.000000 0.000000 
#    y 0.000000 4.003550 0.000000 
#    z 0.000000 0.000000 4.003550 
# 
# 
# High freq. dielectric constant tensor:
#      x y z
#    x 1.833130 0.000000 0.000000 
#    y 0.000000 1.833130 0.000000 
#    z 0.000000 0.000000 1.833130 
# 
# From -- ./inp_files/571.got.cif
#   From: 2010.03.12/outbox.cif.g09.slc.cpg/sg212_cif.got.tgz:571.got - 2010.03.30 09:05:11.
