data_PCOD8331081
_publ_section_title
;
Structure prediction by ZEFSAII (Michael W. Deem and Ramdas Pophale) SiO2 
 PCOD8331081
Probable space group: F -4 3 C
;
_chemical_formula_sum "Si O2"
_cell_formula_units_Z 160
_cell_length_a 19.765633
_cell_length_b 19.765633
_cell_length_c 19.765633
_cell_angle_alpha 90.000000
_cell_angle_beta 90.000000
_cell_angle_gamma 90.000000
_cell_volume 7722.042400
_symmetry_space_group_name_H-M "F -4 3 C"
_symmetry_group_IT_number 219
_symmetry_cell_setting 'cubic'
loop_
_space_group_symop_operation_xyz
x,y,z
y,-x,1/2-z
-x,-y,z
-y,x,1/2-z
-x,z,1/2-y
x,-y,-z
-x,-z,1/2+y
-z,-y,1/2+x
-x,y,-z
z,-y,1/2-x
z,x,y
y,z,x
-y,-z,x
z,-x,-y
-y,z,-x
-z,-x,y
-z,x,-y
y,-z,-x
-y,-x,1/2+z
y,x,1/2+z
x,-z,1/2-y
x,z,1/2+y
-z,y,1/2-x
z,y,1/2+x
x,1/2+y,1/2+z
y,1/2-x,-z
-x,1/2-y,1/2+z
-y,1/2+x,-z
-x,1/2+z,-y
x,1/2-y,1/2-z
-x,1/2-z,y
-z,1/2-y,x
-x,1/2+y,1/2-z
z,1/2-y,-x
z,1/2+x,1/2+y
y,1/2+z,1/2+x
-y,1/2-z,1/2+x
z,1/2-x,1/2-y
-y,1/2+z,1/2-x
-z,1/2-x,1/2+y
-z,1/2+x,1/2-y
y,1/2-z,1/2-x
-y,1/2-x,z
y,1/2+x,z
x,1/2-z,-y
x,1/2+z,y
-z,1/2+y,-x
z,1/2+y,x
1/2+x,y,1/2+z
1/2+y,-x,-z
1/2-x,-y,1/2+z
1/2-y,x,-z
1/2-x,z,-y
1/2+x,-y,1/2-z
1/2-x,-z,y
1/2-z,-y,x
1/2-x,y,1/2-z
1/2+z,-y,-x
1/2+z,x,1/2+y
1/2+y,z,1/2+x
1/2-y,-z,1/2+x
1/2+z,-x,1/2-y
1/2-y,z,1/2-x
1/2-z,-x,1/2+y
1/2-z,x,1/2-y
1/2+y,-z,1/2-x
1/2-y,-x,z
1/2+y,x,z
1/2+x,-z,-y
1/2+x,z,y
1/2-z,y,-x
1/2+z,y,x
1/2+x,1/2+y,z
1/2+y,1/2-x,1/2-z
1/2-x,1/2-y,z
1/2-y,1/2+x,1/2-z
1/2-x,1/2+z,1/2-y
1/2+x,1/2-y,-z
1/2-x,1/2-z,1/2+y
1/2-z,1/2-y,1/2+x
1/2-x,1/2+y,-z
1/2+z,1/2-y,1/2-x
1/2+z,1/2+x,y
1/2+y,1/2+z,x
1/2-y,1/2-z,x
1/2+z,1/2-x,-y
1/2-y,1/2+z,-x
1/2-z,1/2-x,y
1/2-z,1/2+x,-y
1/2+y,1/2-z,-x
1/2-y,1/2-x,1/2+z
1/2+y,1/2+x,1/2+z
1/2+x,1/2-z,1/2-y
1/2+x,1/2+z,1/2+y
1/2-z,1/2+y,1/2-x
1/2+z,1/2+y,1/2+x
loop_
_atom_site_type_symbol
_atom_site_label
_atom_site_fract_x
_atom_site_fract_y
_atom_site_fract_z
Si Si1 0.500000 0.500000 0.000000
Si Si2 0.408587 0.091415 0.908586
Si Si3 0.750000 0.750000 0.000000
Si Si4 0.646463 0.646477 0.960088
O O1 0.545441 0.454561 0.954561
O O2 0.459099 0.136648 0.863371
O O3 0.703538 0.703559 0.951389
O O4 0.670977 0.576796 0.923216
#
# Coordination Sequence:
#
# PCOD8331081 Si02
#       4
#     8  32  24  96
#     4  12  12  36  60 114 132 124 200 280 414 384
#     4  12  18  39  75 111 132 151 218 319 381 387
#     4  12  28  44  56  98 144 196 228 240 346 420
#     4  10  24  43  67 100 133 175 231 284 345 402
#
# _framework density 20.719906000000002
#
# number of rings (size 3 to 8) (size 9 to 14) (size 15 to 20)
#    1.200    0.000    6.000    0.000    8.400    0.000 
#    3.600    0.000    0.000    0.000    0.000    0.000 
#    0.000    0.000    0.000    0.000    0.000    0.000 
#
# Total GULP energy -495704.448377 kJ/mol
# GULP energy per Si atom -12392.611209 kJ/mol
# Density = 2.067275 g / cm^3
# Si number density = 20.719906 Si / 1000 Ang^3
#
#
#
# Elastic Constant Matrix: (Units=GPa)
#
#
# Indices 1 2 3 4 5 6 
#
# 1 97.0744 49.9722 49.9727 0.0000 0.0000 0.0000
# 2 49.9722 97.0744 49.9727 0.0000 0.0000 0.0000
# 3 49.9727 49.9727 97.0745 0.0000 0.0000 0.0000
# 4 0.0000 0.0000 0.0000 43.0899 0.0000 0.0000
# 5 0.0000 0.0000 0.0000 0.0000 43.0899 0.0000
# 6 0.0000 0.0000 0.0000 0.0000 0.0000 43.0897
#
#
#
# Elastic Compliance Matrix: (Units=1/GPa)
#
#
# Indices 1 2 3 4 5 6 
#
# 1 0.015846 -0.005385 -0.005385 0.000000 0.000000 0.000000
# 2 -0.005385 0.015846 -0.005385 0.000000 0.000000 0.000000
# 3 -0.005385 -0.005385 0.015846 0.000000 0.000000 0.000000
# 4 0.000000 0.000000 0.000000 0.023207 0.000000 0.000000
# 5 0.000000 0.000000 0.000000 0.000000 0.023207 0.000000
# 6 0.000000 0.000000 0.000000 0.000000 0.000000 0.023207
#
#
# Mechanical properties :
#
#
# Convention : Reuss Voigt Hill
#
# Bulk Modulus (GPa) = 65.67317 65.67317 65.67317
# Shear Modulus (GPa) = 32.35319 35.27426 33.81373
#
# Velocity S-wave (km/s) = 3.95581 4.13053 4.04412
# Velocity P-wave (km/s) = 7.25459 7.38328 7.31922
#
# Compressibility (1/GPa) = 0.01522692
#
# Stress axis : x y z
#
# Youngs Moduli (GPa) = 63.10923 63.10923 63.10882
#
# Poissons Ratio (x) = 0.33983 0.33984
# Poissons Ratio (y) = 0.33983 0.33984
# Poissons Ratio (z) = 0.33984 0.33984
#
# Static dielectric constant tensor:
#      x y z
#    x 3.695150 0.000000 0.000000 
#    y 0.000000 3.695150 0.000000 
#    z 0.000000 0.000000 3.695150 
# 
# 
# High freq. dielectric constant tensor:
#      x y z
#    x 1.797180 0.000000 0.000000 
#    y 0.000000 1.797180 0.000000 
#    z 0.000000 0.000000 1.797180 
# 
# From -- ./inp_files/312.got.cif
#   From: 2010.03.12/outbox.cif.g09.slc.cpg/sg219_cif.got.tgz:312.got - 2010.03.30 09:07:44.
