data_PCOD8331027
_publ_section_title
;
Structure prediction by ZEFSAII (Michael W. Deem and Ramdas Pophale) SiO2 
 PCOD8331027
Probable space group: P -4 3 M
;
_chemical_formula_sum "Si O2"
_cell_formula_units_Z 120
_cell_length_a 18.595472
_cell_length_b 18.595472
_cell_length_c 18.595472
_cell_angle_alpha 90.000000
_cell_angle_beta 90.000000
_cell_angle_gamma 90.000000
_cell_volume 6430.157623
_symmetry_space_group_name_H-M "P -4 3 M"
_symmetry_group_IT_number 215
_symmetry_cell_setting 'cubic'
loop_
_space_group_symop_operation_xyz
x,y,z
y,-x,-z
-x,-y,z
-y,x,-z
-x,z,-y
x,-y,-z
-x,-z,y
-z,-y,x
-x,y,-z
z,-y,-x
z,x,y
y,z,x
-y,-z,x
z,-x,-y
-y,z,-x
-z,-x,y
-z,x,-y
y,-z,-x
-y,-x,z
y,x,z
x,-z,-y
x,z,y
-z,y,-x
z,y,x
loop_
_atom_site_type_symbol
_atom_site_label
_atom_site_fract_x
_atom_site_fract_y
_atom_site_fract_z
Si Si1 0.045405 0.724819 0.159991
Si Si2 0.472465 0.850241 0.730971
Si Si3 0.264867 0.383747 0.498925
Si Si4 0.628748 0.855272 0.741707
Si Si5 0.904353 0.787360 0.332286
O O1 0.035742 0.803881 0.196120
O O2 0.080090 0.733517 0.080090
O O3 0.098125 0.678906 0.208502
O O4 0.970934 0.679844 0.157465
O O5 0.463551 0.795626 0.795626
O O6 0.470726 0.807596 0.655444
O O7 0.549516 0.890732 0.735893
O O8 0.407635 0.907526 0.742692
O O9 0.326937 0.326937 0.516852
O O10 0.247497 0.429323 0.570678
O O11 0.292196 0.435689 0.435689
O O12 0.621085 0.775107 0.775107
O O13 0.662590 0.848131 0.662590
O O14 0.830707 0.830707 0.325434
O O15 0.908668 0.730072 0.269929
#
# Coordination Sequence:
#
# PCOD8331027 Si02
#       5
#    24  24  24  24  24
#     4   9  18  32  52  77 102 127 155 193 244 300
#     4   9  18  30  45  66  91 122 162 205 244 286
#     4  10  19  30  44  63  89 123 165 215 270 323
#     4   9  16  28  47  71  98 127 161 203 252 301
#     4  10  20  34  51  71  97 131 169 205 242 287
#
# _framework density 18.662061000000001
#
# number of rings (size 3 to 8) (size 9 to 14) (size 15 to 20)
#    0.000    2.600    0.000    2.200    0.000    2.800 
#    0.000    4.000    0.000    1.600    0.000    5.600 
#    0.000   12.800    0.000   12.400    0.000    0.000 
#
# Total GULP energy -1486904.205784 kJ/mol
# GULP energy per Si atom -12390.868382 kJ/mol
# Density = 1.861959 g / cm^3
# Si number density = 18.662061 Si / 1000 Ang^3
#
#
#
# Elastic Constant Matrix: (Units=GPa)
#
#
# Indices 1 2 3 4 5 6 
#
# 1 66.8378 22.8661 22.8661 0.0000 0.0000 0.0000
# 2 22.8661 66.8378 22.8661 0.0000 0.0000 0.0000
# 3 22.8661 22.8661 66.8378 0.0000 0.0000 0.0000
# 4 0.0000 0.0000 0.0000 24.0946 0.0000 0.0000
# 5 0.0000 0.0000 0.0000 0.0000 24.0946 0.0000
# 6 0.0000 0.0000 0.0000 0.0000 0.0000 24.0946
#
#
#
# Elastic Compliance Matrix: (Units=1/GPa)
#
#
# Indices 1 2 3 4 5 6 
#
# 1 0.018122 -0.004620 -0.004620 0.000000 0.000000 0.000000
# 2 -0.004620 0.018122 -0.004620 0.000000 0.000000 0.000000
# 3 -0.004620 -0.004620 0.018122 0.000000 0.000000 0.000000
# 4 0.000000 0.000000 0.000000 0.041503 0.000000 0.000000
# 5 0.000000 0.000000 0.000000 0.000000 0.041503 0.000000
# 6 0.000000 0.000000 0.000000 0.000000 0.000000 0.041503
#
#
# Mechanical properties :
#
#
# Convention : Reuss Voigt Hill
#
# Bulk Modulus (GPa) = 37.52333 37.52333 37.52333
# Shear Modulus (GPa) = 23.20434 23.25109 23.22772
#
# Velocity S-wave (km/s) = 3.53001 3.53356 3.53179
# Velocity P-wave (km/s) = 6.06342 6.06617 6.06480
#
# Compressibility (1/GPa) = 0.02665009
#
# Stress axis : x y z
#
# Youngs Moduli (GPa) = 55.18042 55.18042 55.18042
#
# Poissons Ratio (x) = 0.25491 0.25491
# Poissons Ratio (y) = 0.25491 0.25491
# Poissons Ratio (z) = 0.25491 0.25491
#
# Static dielectric constant tensor:
#      x y z
#    x 3.553190 0.000000 0.000000 
#    y 0.000000 3.553190 0.000000 
#    z 0.000000 0.000000 3.553190 
# 
# 
# High freq. dielectric constant tensor:
#      x y z
#    x 1.714780 0.000000 0.000000 
#    y 0.000000 1.714780 0.000000 
#    z 0.000000 0.000000 1.714780 
# 
# From -- ./inp_files/624.got.cif
#   From: 2010.03.12/outbox.cif.g09.slc.cpg/sg215_cif.got.tgz:624.got - 2010.03.30 09:06:09.
