data_PCOD8331070
_publ_section_title
;
Structure prediction by ZEFSAII (Michael W. Deem and Ramdas Pophale) SiO2 
 PCOD8331070
Probable space group: P -4 3 N
;
_chemical_formula_sum "Si O2"
_cell_formula_units_Z 40
_cell_length_a 12.423172
_cell_length_b 12.423172
_cell_length_c 12.423172
_cell_angle_alpha 90.000000
_cell_angle_beta 90.000000
_cell_angle_gamma 90.000000
_cell_volume 1917.332767
_symmetry_space_group_name_H-M "P -4 3 N"
_symmetry_group_IT_number 218
_symmetry_cell_setting 'cubic'
loop_
_space_group_symop_operation_xyz
x,y,z
1/2+y,1/2-x,1/2-z
-x,-y,z
1/2-y,1/2+x,1/2-z
1/2-x,1/2+z,1/2-y
x,-y,-z
1/2-x,1/2-z,1/2+y
1/2-z,1/2-y,1/2+x
-x,y,-z
1/2+z,1/2-y,1/2-x
z,x,y
y,z,x
-y,-z,x
z,-x,-y
-y,z,-x
-z,-x,y
-z,x,-y
y,-z,-x
1/2-y,1/2-x,1/2+z
1/2+y,1/2+x,1/2+z
1/2+x,1/2-z,1/2-y
1/2+x,1/2+z,1/2+y
1/2-z,1/2+y,1/2-x
1/2+z,1/2+y,1/2+x
loop_
_atom_site_type_symbol
_atom_site_label
_atom_site_fract_x
_atom_site_fract_y
_atom_site_fract_z
Si Si1 0.779776 0.546636 0.835182
Si Si2 0.000000 0.500000 0.250000
Si Si3 0.000000 0.000000 0.000000
Si Si4 0.147997 0.852003 0.852003
O O1 0.751014 0.425410 0.867553
O O2 0.908515 0.555267 0.822854
O O3 0.719260 0.572571 0.724736
O O4 0.074163 0.925838 0.925839
#
# Coordination Sequence:
#
# PCOD8331070 Si02
#       4
#    24   6   2   8
#     4  11  26  45  74 104 140 189 240 297 356 427
#     4  12  24  46  72 104 142 192 240 294 356 428
#     4  12  36  40  68 106 144 192 232 284 364 450
#     4  12  27  49  68 103 150 183 232 302 358 420
#
# _framework density 20.862313
#
# number of rings (size 3 to 8) (size 9 to 14) (size 15 to 20)
#    0.000    0.600    6.000    0.000    8.400    4.800 
#    0.000    0.000    0.000    0.000    0.000    0.000 
#    0.000    0.000    0.000    0.000    0.000    0.000 
#
# Total GULP energy -496274.857191 kJ/mol
# GULP energy per Si atom -12406.871430 kJ/mol
# Density = 2.081483 g / cm^3
# Si number density = 20.862313 Si / 1000 Ang^3
#
#
#
# Elastic Constant Matrix: (Units=GPa)
#
#
# Indices 1 2 3 4 5 6 
#
# 1 118.9761 56.2238 56.2237 0.0000 0.0000 0.0000
# 2 56.2238 118.9761 56.2237 0.0000 0.0000 0.0000
# 3 56.2237 56.2237 118.9761 0.0000 0.0000 0.0000
# 4 0.0000 0.0000 0.0000 35.7306 0.0000 0.0000
# 5 0.0000 0.0000 0.0000 0.0000 35.7306 0.0000
# 6 0.0000 0.0000 0.0000 0.0000 0.0000 35.7306
#
#
#
# Elastic Compliance Matrix: (Units=1/GPa)
#
#
# Indices 1 2 3 4 5 6 
#
# 1 0.012064 -0.003872 -0.003872 0.000000 0.000000 0.000000
# 2 -0.003872 0.012064 -0.003872 0.000000 0.000000 0.000000
# 3 -0.003872 -0.003872 0.012064 0.000000 0.000000 0.000000
# 4 0.000000 0.000000 0.000000 0.027987 0.000000 0.000000
# 5 0.000000 0.000000 0.000000 0.000000 0.027987 0.000000
# 6 0.000000 0.000000 0.000000 0.000000 0.000000 0.027987
#
#
# Mechanical properties :
#
#
# Convention : Reuss Voigt Hill
#
# Bulk Modulus (GPa) = 77.14119 77.14119 77.14119
# Shear Modulus (GPa) = 33.85142 33.98883 33.92013
#
# Velocity S-wave (km/s) = 4.03253 4.04071 4.03663
# Velocity P-wave (km/s) = 7.66410 7.66984 7.66697
#
# Compressibility (1/GPa) = 0.01296324
#
# Stress axis : x y z
#
# Youngs Moduli (GPa) = 82.89030 82.89030 82.89036
#
# Poissons Ratio (x) = 0.32091 0.32091
# Poissons Ratio (y) = 0.32091 0.32091
# Poissons Ratio (z) = 0.32091 0.32091
#
# Static dielectric constant tensor:
#      x y z
#    x 3.813760 0.000000 0.000000 
#    y 0.000000 3.813760 0.000000 
#    z 0.000000 0.000000 3.813760 
# 
# 
# High freq. dielectric constant tensor:
#      x y z
#    x 1.827310 0.000000 0.000000 
#    y 0.000000 1.827310 0.000000 
#    z 0.000000 0.000000 1.827310 
# 
# From -- ./inp_files/128.got.cif
#   From: 2010.03.12/outbox.cif.g09.slc.cpg/sg218_cif.got.tgz:128.got - 2010.03.30 09:07:27.
