data_PCOD8331134
_publ_section_title
;
Structure prediction by ZEFSAII (Michael W. Deem and Ramdas Pophale) SiO2 
 PCOD8331134
Probable space group: P M 3 N
;
_chemical_formula_sum "Si O2"
_cell_formula_units_Z 112
_cell_length_a 18.130086
_cell_length_b 18.130086
_cell_length_c 18.130086
_cell_angle_alpha 90.000000
_cell_angle_beta 90.000000
_cell_angle_gamma 90.000000
_cell_volume 5959.359601
_symmetry_space_group_name_H-M "P M 3 N"
_symmetry_group_IT_number 223
_symmetry_cell_setting 'cubic'
loop_
_space_group_symop_operation_xyz
x,y,z
1/2-y,1/2+x,1/2+z
-x,-y,z
1/2+y,1/2-x,1/2+z
1/2+x,1/2-z,1/2+y
x,-y,-z
1/2+x,1/2+z,1/2-y
1/2+z,1/2+y,1/2-x
-x,y,-z
1/2-z,1/2+y,1/2+x
z,x,y
y,z,x
-y,-z,x
z,-x,-y
-y,z,-x
-z,-x,y
-z,x,-y
y,-z,-x
1/2+y,1/2+x,1/2-z
1/2-y,1/2-x,1/2-z
1/2-x,1/2+z,1/2+y
1/2-x,1/2-z,1/2-y
1/2+z,1/2-y,1/2+x
1/2-z,1/2-y,1/2-x
-x,-y,-z
1/2+y,1/2-x,1/2-z
x,y,-z
1/2-y,1/2+x,1/2-z
1/2-x,1/2+z,1/2-y
-x,y,z
1/2-x,1/2-z,1/2+y
1/2-z,1/2-y,1/2+x
x,-y,z
1/2+z,1/2-y,1/2-x
-z,-x,-y
-y,-z,-x
y,z,-x
-z,x,y
y,-z,x
z,x,-y
z,-x,y
-y,z,x
1/2-y,1/2-x,1/2+z
1/2+y,1/2+x,1/2+z
1/2+x,1/2-z,1/2-y
1/2+x,1/2+z,1/2+y
1/2-z,1/2+y,1/2-x
1/2+z,1/2+y,1/2+x
loop_
_atom_site_type_symbol
_atom_site_label
_atom_site_fract_x
_atom_site_fract_y
_atom_site_fract_z
Si Si1 0.309465 0.413009 0.178188
Si Si2 0.831883 0.086759 0.417914
Si Si3 0.300386 0.699616 0.699616
O O1 0.250000 0.374727 0.125274
O O2 0.296336 0.500000 0.183907
O O3 0.386926 0.394338 0.138835
O O4 0.309738 0.379734 0.260843
O O5 0.750000 0.110920 0.389081
O O6 0.845646 0.119665 0.500000
O O7 0.835042 0.000000 0.422222
O O8 0.250000 0.750000 0.750000
#
# Coordination Sequence:
#
# PCOD8331134 Si02
#       3
#    48  48  16
#     4  11  22  35  54  78 104 136 175 219 264 310
#     4   9  18  33  53  78 110 145 175 206 253 315
#     4   9  21  39  54  72 102 141 181 218 259 318
#
# _framework density 18.793966999999999
#
# number of rings (size 3 to 8) (size 9 to 14) (size 15 to 20)
#    0.000    2.143    0.000    6.429    0.000    9.000 
#    0.000    2.143    0.000    0.000    0.000    0.000 
#    0.000    0.000    0.000    5.143    0.000    0.000 
#
# Total GULP energy -1388335.351421 kJ/mol
# GULP energy per Si atom -12395.851352 kJ/mol
# Density = 1.875119 g / cm^3
# Si number density = 18.793967 Si / 1000 Ang^3
#
#
#
# Elastic Constant Matrix: (Units=GPa)
#
#
# Indices 1 2 3 4 5 6 
#
# 1 93.7604 51.4956 51.4928 0.0000 0.0000 0.0000
# 2 51.4956 93.7604 51.4928 0.0000 0.0000 0.0000
# 3 51.4928 51.4928 93.7593 0.0000 0.0000 0.0000
# 4 0.0000 0.0000 0.0000 25.1051 0.0000 0.0000
# 5 0.0000 0.0000 0.0000 0.0000 25.1051 0.0000
# 6 0.0000 0.0000 0.0000 0.0000 0.0000 25.1063
#
#
#
# Elastic Compliance Matrix: (Units=1/GPa)
#
#
# Indices 1 2 3 4 5 6 
#
# 1 0.017467 -0.006193 -0.006192 0.000000 0.000000 0.000000
# 2 -0.006193 0.017467 -0.006192 0.000000 0.000000 0.000000
# 3 -0.006192 -0.006192 0.017467 0.000000 0.000000 0.000000
# 4 0.000000 0.000000 0.000000 0.039833 0.000000 0.000000
# 5 0.000000 0.000000 0.000000 0.000000 0.039833 0.000000
# 6 0.000000 0.000000 0.000000 0.000000 0.000000 0.039831
#
#
# Mechanical properties :
#
#
# Convention : Reuss Voigt Hill
#
# Bulk Modulus (GPa) = 65.58250 65.58250 65.58250
# Shear Modulus (GPa) = 23.34990 23.51658 23.43324
#
# Velocity S-wave (km/s) = 3.52861 3.54119 3.53491
# Velocity P-wave (km/s) = 7.18142 7.18966 7.18554
#
# Compressibility (1/GPa) = 0.01524797
#
# Stress axis : x y z
#
# Youngs Moduli (GPa) = 57.24948 57.24948 57.25131
#
# Poissons Ratio (x) = 0.35454 0.35450
# Poissons Ratio (y) = 0.35454 0.35450
# Poissons Ratio (z) = 0.35449 0.35449
#
# Static dielectric constant tensor:
#      x y z
#    x 3.825530 0.000000 0.000000 
#    y 0.000000 3.825530 0.000000 
#    z 0.000000 0.000000 3.825540 
# 
# 
# High freq. dielectric constant tensor:
#      x y z
#    x 1.720580 0.000000 0.000000 
#    y 0.000000 1.720580 0.000000 
#    z 0.000000 0.000000 1.720580 
# 
# From -- ./inp_files/316.got.cif
#   From: 2010.03.12/outbox.cif.g09.slc.cpg/sg223_cif.got.tgz:316.got - 2010.03.30 09:08:57.
