data_PCOD9000140
_publ_section_title
;
Structure prediction by ZEFSAII (Michael W. Deem and Ramdas Pophale) SiO2 
 PCOD9000140
Probable space group: P 1
;
_chemical_formula_sum "Si O2"
_cell_formula_units_Z 8
_cell_length_a 14.090846
_cell_length_b 10.392106
_cell_length_c 5.038288
_cell_angle_alpha 109.012739
_cell_angle_beta 109.229842
_cell_angle_gamma 30.331961
_cell_volume 350.459407
_symmetry_space_group_name_H-M "P 1"
_symmetry_group_IT_number 1
_symmetry_cell_setting 'triclinic'
loop_
_space_group_symop_operation_xyz
x,y,z
loop_
_atom_site_type_symbol
_atom_site_label
_atom_site_fract_x
_atom_site_fract_y
_atom_site_fract_z
Si Si1 0.765690 0.327280 0.763690
Si Si2 0.183245 0.530985 0.847980
Si Si3 0.035162 0.237560 0.141073
Si Si4 0.988639 0.481439 0.750760
Si Si5 0.523954 0.829037 0.657963
Si Si6 0.930210 0.874357 0.340209
Si Si7 0.426481 0.808029 0.047459
Si Si8 0.625959 0.011951 0.944477
O O1 0.692780 0.526085 0.625890
O O2 0.919804 0.233455 0.001712
O O3 0.835616 0.117319 0.534324
O O4 0.592632 0.512067 0.935725
O O5 0.149171 0.412008 0.817041
O O6 0.087841 0.651751 0.552571
O O7 0.407849 0.311633 0.902457
O O8 0.048356 0.758663 0.096603
O O9 0.996769 0.397691 0.987620
O O10 0.998732 0.354685 0.457218
O O11 0.249333 0.944961 0.108965
O O12 0.788746 0.791487 0.725927
O O13 0.470619 0.883658 0.338101
O O14 0.581984 0.903629 0.894830
O O15 0.381398 0.919365 0.790800
O O16 0.757456 0.963497 0.204382
#
# Coordination Sequence:
#
# PCOD9000140 Si02
#       8
#     1   1   1   1   1   1   1   1
#     4  10  26  43  65  94 135 171 215 266 327 386
#     4  11  26  43  70  98 133 176 225 268 328 398
#     4  12  22  38  67  96 135 162 213 269 334 378
#     4  11  23  39  66 103 127 167 216 276 323 392
#     4  10  22  40  68  94 126 164 216 267 332 375
#     4  11  28  46  65  98 137 178 225 265 322 407
#     4  10  22  39  62 100 124 167 209 273 320 389
#     4  11  23  46  69  97 135 175 215 280 334 377
#
# _framework density 22.827179000000001
#
# number of rings (size 3 to 8) (size 9 to 14) (size 15 to 20)
#    0.750    0.500    1.250    4.500    1.750    6.000 
#    2.250    0.000    0.000    0.000    0.000    0.000 
#    0.000    0.000    0.000    0.000    0.000    0.000 
#
# Total GULP energy -44534.176061 kJ/mol
# GULP energy per Si atom -5566.772008 kJ/mol
# Density = 2.277522 g / cm^3
# Si number density = 22.827179 Si / 1000 Ang^3
#
#
#
# Elastic Constant Matrix: (Units=GPa)
#
#
# Indices 1 2 3 4 5 6 
#
# 1 14.0744 51.8344 25.3614 -0.5177 -6.6554 -13.4894
# 2 51.8344 122.6338 67.3802 -1.0413 37.5531 -43.0257
# 3 25.3614 67.3802 151.7017 15.1612 6.5494 -10.9181
# 4 -0.5177 -1.0413 15.1612 38.2165 12.3237 3.5680
# 5 -6.6554 37.5531 6.5494 12.3237 24.6835 4.5543
# 6 -13.4894 -43.0257 -10.9181 3.5680 4.5543 40.0705
#
#
#
# Elastic Compliance Matrix: (Units=1/GPa)
#
#
# Indices 1 2 3 4 5 6 
#
# 1 0.014382 0.023021 -0.010209 0.015520 -0.041747 0.030141
# 2 0.023021 -0.002655 -0.002678 -0.002784 0.011778 0.003079
# 3 -0.010209 -0.002678 0.009588 -0.004175 0.001508 -0.003500
# 4 0.015520 -0.002784 -0.004175 0.029699 -0.005123 -0.000964
# 5 -0.041747 0.011778 0.001508 -0.005123 0.013886 -0.002118
# 6 0.030141 0.003079 -0.003500 -0.000964 -0.002118 0.037782
#
#
# Mechanical properties :
#
#
# Convention : Reuss Voigt Hill
#
# Bulk Modulus (GPa) = 24.04809 64.17354 44.11082
# Shear Modulus (GPa) = 51.93402 30.18304 41.05853
#
# Velocity S-wave (km/s) = 4.77497 3.64021 4.24567
# Velocity P-wave (km/s) = 6.39986 6.77067 6.58787
#
# Compressibility (1/GPa) = 0.04158334
#
# Stress axis : x y z
#
# Youngs Moduli (GPa) = 69.53135 -376.69791 104.29257
#
# Poissons Ratio (x) = 8.67189 1.06470
# Poissons Ratio (y) = -1.60067 0.27932
# Poissons Ratio (z) = 0.70983 -1.00889
#
# Static dielectric constant tensor:
#      x y z
#    x 1.883940 -0.023350 -0.021570 
#    y -0.023350 2.025210 -0.072140 
#    z -0.021570 -0.072140 1.887860 
# 
# From -- ./inp_files/2811.got.cif
#   From: 2010.05.17/outbox.cif.g08.bks.cpg/sg1_2_cif.got.tgz:2811.got - 2010.05.17 20:27:59.
