data_PCOD9000677
_publ_section_title
;
Structure prediction by ZEFSAII (Michael W. Deem and Ramdas Pophale) SiO2 
 PCOD9000677
Probable space group: P 1
;
_chemical_formula_sum "Si O2"
_cell_formula_units_Z 8
_cell_length_a 9.448606
_cell_length_b 8.181212
_cell_length_c 12.812081
_cell_angle_alpha 132.279133
_cell_angle_beta 35.372812
_cell_angle_gamma 119.275735
_cell_volume 420.073828
_symmetry_space_group_name_H-M "P 1"
_symmetry_group_IT_number 1
_symmetry_cell_setting 'triclinic'
loop_
_space_group_symop_operation_xyz
x,y,z
loop_
_atom_site_type_symbol
_atom_site_label
_atom_site_fract_x
_atom_site_fract_y
_atom_site_fract_z
Si Si1 0.229020 0.785940 0.924980
Si Si2 0.498578 0.973031 0.471872
Si Si3 0.682543 0.399296 0.774087
Si Si4 0.100956 0.498983 0.161887
Si Si5 0.673788 0.883625 0.563707
Si Si6 0.793045 0.617594 0.013540
Si Si7 0.939671 0.243894 0.346384
Si Si8 0.062280 0.343300 0.905107
O O1 0.486208 0.796281 0.719667
O O2 0.217044 0.555848 0.894254
O O3 0.020608 0.760360 0.951377
O O4 0.129946 0.012310 0.144572
O O5 0.568232 0.878975 0.506386
O O6 0.558720 0.777598 0.268262
O O7 0.689553 0.152801 0.419791
O O8 0.230134 0.111371 0.684449
O O9 0.856920 0.382359 0.559978
O O10 0.685098 0.140495 0.690995
O O11 0.394123 0.488717 0.967501
O O12 0.771277 0.532583 0.874582
O O13 0.939467 0.738816 0.351112
O O14 0.049667 0.389820 0.256119
O O15 0.993341 0.354038 0.072544
O O16 0.857155 0.414627 0.971340
#
# Coordination Sequence:
#
# PCOD9000677 Si02
#       8
#     1   1   1   1   1   1   1   1
#     4   9  19  38  62  90 114 160 201 239 292 356
#     4  10  18  36  61  87 115 155 196 246 287 350
#     4  11  23  41  58  91 127 151 194 255 300 345
#     4  12  21  36  66  91 114 162 203 239 294 355
#     4  11  20  36  64  92 116 157 206 242 286 363
#     4   9  22  38  58  87 125 151 194 248 307 337
#     4  10  19  37  63  87 117 157 198 243 290 351
#     4  10  18  36  62  87 112 157 200 240 286 353
#
# _framework density 19.044271999999999
#
# number of rings (size 3 to 8) (size 9 to 14) (size 15 to 20)
#    0.750    1.000    5.000    1.500    0.000    1.000 
#    2.250    0.000    5.500    0.000    0.000    0.000 
#    0.000    0.000    0.000    0.000    0.000    0.000 
#
# Total GULP energy -44557.255522 kJ/mol
# GULP energy per Si atom -5569.656940 kJ/mol
# Density = 1.900093 g / cm^3
# Si number density = 19.044272 Si / 1000 Ang^3
#
#
#
# Elastic Constant Matrix: (Units=GPa)
#
#
# Indices 1 2 3 4 5 6 
#
# 1 78.4502 16.5863 63.9307 11.2151 21.8240 -12.7066
# 2 16.5863 42.4879 34.2517 -0.6619 5.9266 -21.4557
# 3 63.9307 34.2517 162.5466 23.6282 7.6489 -12.6007
# 4 11.2151 -0.6619 23.6282 33.4374 -10.4330 -1.9651
# 5 21.8240 5.9266 7.6489 -10.4330 42.3205 4.8870
# 6 -12.7066 -21.4557 -12.6007 -1.9651 4.8870 16.1095
#
#
#
# Elastic Compliance Matrix: (Units=1/GPa)
#
#
# Indices 1 2 3 4 5 6 
#
# 1 0.052357 0.071790 -0.021632 -0.008818 -0.050830 0.134336
# 2 0.071790 0.215211 -0.042478 -0.000684 -0.098907 0.339955
# 3 -0.021632 -0.042478 0.018071 -0.003837 0.020537 -0.066201
# 4 -0.008818 -0.000684 -0.003837 0.040059 0.016480 -0.010981
# 5 -0.050830 -0.098907 0.020537 0.016480 0.084767 -0.179466
# 6 0.134336 0.339955 -0.066201 -0.010981 -0.179466 0.622132
#
#
# Mechanical properties :
#
#
# Convention : Reuss Voigt Hill
#
# Bulk Modulus (GPa) = 3.32227 57.00246 30.16237
# Shear Modulus (GPa) = 4.47399 29.62119 17.04759
#
# Velocity S-wave (km/s) = 1.53439 3.94812 2.99516
# Velocity P-wave (km/s) = 2.21075 7.12601 5.27577
#
# Compressibility (1/GPa) = 0.30099899
#
# Stress axis : x y z
#
# Youngs Moduli (GPa) = 19.09974 4.64660 55.33842
#
# Poissons Ratio (x) = -0.33358 1.19710
# Poissons Ratio (y) = -1.37117 2.35065
# Poissons Ratio (z) = 0.41317 0.19738
#
# Static dielectric constant tensor:
#      x y z
#    x 1.663670 -0.019840 0.003840 
#    y -0.019840 1.664030 -0.004500 
#    z 0.003840 -0.004500 1.691850 
# 
# From -- ./inp_files/4089.got.cif
#   From: 2010.05.17/outbox.cif.g08.bks.cpg/sg1_3_cif.got.tgz:4089.got - 2010.05.17 20:27:59.
