data_PCOD9000281
_publ_section_title
;
Structure prediction by ZEFSAII (Michael W. Deem and Ramdas Pophale) SiO2 
 PCOD9000281
Probable space group: P 1
;
_chemical_formula_sum "Si O2"
_cell_formula_units_Z 8
_cell_length_a 9.683452
_cell_length_b 7.048079
_cell_length_c 5.252926
_cell_angle_alpha 78.522780
_cell_angle_beta 72.011657
_cell_angle_gamma 90.775290
_cell_volume 333.085223
_symmetry_space_group_name_H-M "P 1"
_symmetry_group_IT_number 1
_symmetry_cell_setting 'triclinic'
loop_
_space_group_symop_operation_xyz
x,y,z
loop_
_atom_site_type_symbol
_atom_site_label
_atom_site_fract_x
_atom_site_fract_y
_atom_site_fract_z
Si Si1 0.427220 0.473710 0.250000
Si Si2 0.616888 0.232310 0.910090
Si Si3 0.144946 0.290970 0.601820
Si Si4 0.694227 0.586993 0.392533
Si Si5 0.884784 0.304637 0.130371
Si Si6 0.068237 0.849280 0.658936
Si Si7 0.772250 0.942111 0.618904
Si Si8 0.163666 0.633580 0.157928
O O1 0.305343 0.391673 0.544846
O O2 0.570033 0.589363 0.249275
O O3 0.476648 0.280392 0.136256
O O4 0.336756 0.609049 0.086695
O O5 0.635069 0.410328 0.655867
O O6 0.754672 0.255068 0.013409
O O7 0.636612 0.031968 0.808656
O O8 0.140446 0.066172 0.599601
O O9 0.030830 0.313502 0.883357
O O10 0.103262 0.416883 0.344708
O O11 0.723437 0.781486 0.482402
O O12 0.840066 0.505347 0.221851
O O13 0.861847 0.126370 0.386040
O O14 0.892717 0.858736 0.755706
O O15 0.122003 0.720533 0.891871
O O16 0.112797 0.766965 0.382389
#
# Coordination Sequence:
#
# PCOD9000281 Si02
#       8
#     1   1   1   1   1   1   1   1
#     4   9  24  51  72 106 155 217 246 319 404 468
#     4  10  22  47  70 106 151 206 262 309 401 463
#     4  10  24  49  76 109 158 202 256 333 379 473
#     4  10  24  46  73 111 151 209 256 324 392 470
#     4  10  22  46  72 110 152 204 260 320 402 451
#     4  12  25  49  75 124 149 209 264 329 393 467
#     4  11  25  43  78 115 153 196 269 329 387 470
#     4  10  28  47  78 113 161 201 265 319 404 464
#
# _framework density 24.017876000000001
#
# number of rings (size 3 to 8) (size 9 to 14) (size 15 to 20)
#    0.750    1.000    1.250    0.750    3.500    6.000 
#   13.500    0.000    0.000    1.500    0.000    0.000 
#    0.000    0.000    0.000    0.000    0.000    0.000 
#
# Total GULP energy -44769.841849 kJ/mol
# GULP energy per Si atom -5596.230231 kJ/mol
# Density = 2.396321 g / cm^3
# Si number density = 24.017876 Si / 1000 Ang^3
#
#
#
# Elastic Constant Matrix: (Units=GPa)
#
#
# Indices 1 2 3 4 5 6 
#
# 1 91.9757 59.7591 20.6071 -6.4943 2.3069 -16.8901
# 2 59.7591 181.8834 37.1157 11.2012 6.7498 4.4367
# 3 20.6071 37.1157 80.4583 -4.5037 8.6854 -20.6941
# 4 -6.4943 11.2012 -4.5037 40.8450 -6.6599 -1.9755
# 5 2.3069 6.7498 8.6854 -6.6599 38.5921 4.4272
# 6 -16.8901 4.4367 -20.6941 -1.9755 4.4272 44.8300
#
#
#
# Elastic Compliance Matrix: (Units=1/GPa)
#
#
# Indices 1 2 3 4 5 6 
#
# 1 0.016228 -0.005935 0.000718 0.004617 -0.000129 0.007249
# 2 -0.005935 0.008642 -0.003952 -0.004057 -0.000387 -0.005056
# 3 0.000718 -0.003952 0.016937 0.002897 -0.003693 0.008972
# 4 0.004617 -0.004057 0.002897 0.027515 0.004037 0.004292
# 5 -0.000129 -0.000387 -0.003693 0.004037 0.028009 -0.004303
# 6 0.007249 -0.005056 0.008972 0.004292 -0.004303 0.030294
#
#
# Mechanical properties :
#
#
# Convention : Reuss Voigt Hill
#
# Bulk Modulus (GPa) = 42.61008 65.47570 54.04289
# Shear Modulus (GPa) = 32.51306 40.64246 36.57776
#
# Velocity S-wave (km/s) = 3.68326 4.11807 3.90672
# Velocity P-wave (km/s) = 5.98899 7.06624 6.54980
#
# Compressibility (1/GPa) = 0.02346862
#
# Stress axis : x y z
#
# Youngs Moduli (GPa) = 61.62268 115.71421 59.04384
#
# Poissons Ratio (x) = 0.68672 -0.04240
# Poissons Ratio (y) = 0.36571 0.23336
# Poissons Ratio (z) = -0.04425 0.45734
#
# Static dielectric constant tensor:
#      x y z
#    x 1.976180 -0.013850 0.036940 
#    y -0.013850 1.900290 -0.003920 
#    z 0.036940 -0.003920 1.960810 
# 
# From -- ./inp_files/2086.got.cif
#   From: 2010.05.17/outbox.cif.g08.bks.cpg/sg1_2_cif.got.tgz:2086.got - 2010.05.17 20:27:59.
