data_PCOD9000736
_publ_section_title
;
Structure prediction by ZEFSAII (Michael W. Deem and Ramdas Pophale) SiO2 
 PCOD9000736
Probable space group: P 1
;
_chemical_formula_sum "Si O2"
_cell_formula_units_Z 8
_cell_length_a 8.652687
_cell_length_b 8.484307
_cell_length_c 7.879296
_cell_angle_alpha 102.063601
_cell_angle_beta 106.489798
_cell_angle_gamma 130.480621
_cell_volume 355.293030
_symmetry_space_group_name_H-M "P 1"
_symmetry_group_IT_number 1
_symmetry_cell_setting 'triclinic'
loop_
_space_group_symop_operation_xyz
x,y,z
loop_
_atom_site_type_symbol
_atom_site_label
_atom_site_fract_x
_atom_site_fract_y
_atom_site_fract_z
Si Si1 0.585430 0.813940 0.157270
Si Si2 0.713066 0.793731 0.815916
Si Si3 0.950937 0.833282 0.386085
Si Si4 0.875264 0.589290 0.989562
Si Si5 0.437488 0.036764 0.191993
Si Si6 0.177793 0.285579 0.961984
Si Si7 0.358915 0.308594 0.387368
Si Si8 0.373741 0.118855 0.817219
O O1 0.617621 0.022199 0.268241
O O2 0.300046 0.546329 0.018650
O O3 0.732780 0.799321 0.320492
O O4 0.654511 0.835755 0.985987
O O5 0.496040 0.554844 0.582999
O O6 0.849973 0.732028 0.901511
O O7 0.888116 0.036861 0.810164
O O8 0.848080 0.616743 0.185006
O O9 0.154098 0.085075 0.399002
O O10 0.111943 0.878046 0.595515
O O11 0.163412 0.771252 0.102602
O O12 0.622140 0.297069 0.819909
O O13 0.499958 0.252398 0.354929
O O14 0.415638 0.056097 0.989412
O O15 0.239409 0.286683 0.175023
O O16 0.317098 0.262982 0.879714
#
# Coordination Sequence:
#
# PCOD9000736 Si02
#       8
#     1   1   1   1   1   1   1   1
#     4  11  23  42  62  99 134 159 202 277 320 361
#     4  11  20  39  66  90 124 166 218 252 299 385
#     4  10  19  37  68  87 121 165 213 250 304 378
#     4  10  19  38  60  89 125 163 210 257 296 383
#     4  10  24  41  62  97 134 158 205 271 326 355
#     4  11  21  36  65  91 120 171 213 249 305 380
#     4  10  20  40  66  89 122 169 215 252 302 384
#     4  11  20  37  67  90 116 175 214 244 308 382
#
# _framework density 22.516625000000001
#
# number of rings (size 3 to 8) (size 9 to 14) (size 15 to 20)
#    0.000    1.500    8.750    0.000    1.750    1.000 
#    0.000    5.000    0.000    0.000    0.000    0.000 
#    0.000    0.000    0.000    0.000    0.000    0.000 
#
# Total GULP energy -44594.461145 kJ/mol
# GULP energy per Si atom -5574.307643 kJ/mol
# Density = 2.246538 g / cm^3
# Si number density = 22.516625 Si / 1000 Ang^3
#
#
#
# Elastic Constant Matrix: (Units=GPa)
#
#
# Indices 1 2 3 4 5 6 
#
# 1 41.0439 16.8146 -11.8164 3.7858 -0.3472 -2.2311
# 2 16.8146 67.7589 -2.7567 14.2552 -0.2010 27.5028
# 3 -11.8164 -2.7567 71.3679 8.8357 1.3587 7.0141
# 4 3.7858 14.2552 8.8357 31.6441 3.6106 3.2144
# 5 -0.3472 -0.2010 1.3587 3.6106 12.9129 0.2534
# 6 -2.2311 27.5028 7.0141 3.2144 0.2534 27.4869
#
#
#
# Elastic Compliance Matrix: (Units=1/GPa)
#
#
# Indices 1 2 3 4 5 6 
#
# 1 0.032057 -0.014456 0.003134 0.000158 -0.000056 0.016249
# 2 -0.014456 0.036129 0.004092 -0.012383 0.003931 -0.036956
# 3 0.003134 0.004092 0.016142 -0.006020 0.000275 -0.007258
# 4 0.000158 -0.012383 -0.006020 0.039098 -0.010673 0.009466
# 5 -0.000056 0.003931 0.000275 -0.010673 0.080526 -0.003502
# 6 0.016249 -0.036956 -0.007258 0.009466 -0.003502 0.075454
#
#
# Mechanical properties :
#
#
# Convention : Reuss Voigt Hill
#
# Bulk Modulus (GPa) = 14.31273 20.51707 17.41490
# Shear Modulus (GPa) = 15.76510 26.27072 21.01791
#
# Velocity S-wave (km/s) = 2.64891 3.41944 3.05854
# Velocity P-wave (km/s) = 3.96560 4.97211 4.49710
#
# Compressibility (1/GPa) = 0.06986785
#
# Stress axis : x y z
#
# Youngs Moduli (GPa) = 31.19448 27.67863 61.94931
#
# Poissons Ratio (x) = 0.40013 -0.19414
# Poissons Ratio (y) = 0.45096 -0.25352
# Poissons Ratio (z) = -0.09776 -0.11327
#
# Static dielectric constant tensor:
#      x y z
#    x 1.866690 0.053610 0.001590 
#    y 0.053610 1.841320 0.040830 
#    z 0.001590 0.040830 1.917120 
# 
# From -- ./inp_files/4037.got.cif
#   From: 2010.05.17/outbox.cif.g08.bks.cpg/sg1_3_cif.got.tgz:4037.got - 2010.05.17 20:27:59.
