data_PCOD9000695
_publ_section_title
;
Structure prediction by ZEFSAII (Michael W. Deem and Ramdas Pophale) SiO2 
 PCOD9000695
Probable space group: P 1
;
_chemical_formula_sum "Si O2"
_cell_formula_units_Z 8
_cell_length_a 4.874792
_cell_length_b 13.885368
_cell_length_c 5.058897
_cell_angle_alpha 119.433790
_cell_angle_beta 92.768022
_cell_angle_gamma 86.026725
_cell_volume 297.472081
_symmetry_space_group_name_H-M "P 1"
_symmetry_group_IT_number 1
_symmetry_cell_setting 'triclinic'
loop_
_space_group_symop_operation_xyz
x,y,z
loop_
_atom_site_type_symbol
_atom_site_label
_atom_site_fract_x
_atom_site_fract_y
_atom_site_fract_z
Si Si1 0.311460 0.112290 0.865600
Si Si2 0.605615 0.903791 0.861924
Si Si3 0.116811 0.953329 0.279093
Si Si4 0.998436 0.733499 0.118700
Si Si5 0.469778 0.683080 0.709222
Si Si6 0.357692 0.528039 0.891857
Si Si7 0.818156 0.253287 0.182946
Si Si8 0.867408 0.394456 0.868962
O O1 0.132859 0.075705 0.559075
O O2 0.555028 0.195098 0.975000
O O3 0.079733 0.168221 0.117651
O O4 0.462690 0.994903 0.790127
O O5 0.417809 0.921142 0.139496
O O6 0.897659 0.942123 0.021267
O O7 0.582310 0.772094 0.623707
O O8 0.020918 0.861389 0.364699
O O9 0.184397 0.638083 0.146789
O O10 0.167196 0.729689 0.841606
O O11 0.698809 0.701853 0.976606
O O12 0.419730 0.554478 0.619697
O O13 0.642655 0.497211 0.006597
O O14 0.148613 0.433780 0.809647
O O15 0.749174 0.311510 0.535737
O O16 0.904609 0.340626 0.083091
#
# Coordination Sequence:
#
# PCOD9000695 Si02
#       8
#     1   1   1   1   1   1   1   1
#     4  12  26  44  68 102 134 188 230 290 352 406
#     4  10  21  38  66  97 141 173 217 274 343 427
#     4  10  21  38  66  97 141 173 217 274 343 427
#     4   8  15  32  61  99 131 173 210 271 335 431
#     4   8  15  32  61  99 131 173 210 271 335 431
#     4  10  18  40  74  96 138 178 222 288 356 402
#     4  12  30  48  70 102 134 186 248 296 342 404
#     4  12  26  48  70 100 134 182 242 298 342 402
#
# _framework density 26.893281999999999
#
# number of rings (size 3 to 8) (size 9 to 14) (size 15 to 20)
#    0.750    1.000    1.250    3.000    5.250    0.000 
#    0.000    2.500    0.000    0.000    0.000    0.000 
#    0.000    0.000    0.000    0.000    0.000    0.000 
#
# Total GULP energy -44630.094980 kJ/mol
# GULP energy per Si atom -5578.761872 kJ/mol
# Density = 2.683207 g / cm^3
# Si number density = 26.893282 Si / 1000 Ang^3
#
#
#
# Elastic Constant Matrix: (Units=GPa)
#
#
# Indices 1 2 3 4 5 6 
#
# 1 143.5095 21.2260 9.7734 3.5371 14.1214 -6.7972
# 2 21.2260 114.4651 15.8817 -23.5707 1.9555 -3.4505
# 3 9.7734 15.8817 72.5301 -7.2184 -3.9657 0.4972
# 4 3.5371 -23.5707 -7.2184 22.9365 7.0149 4.1421
# 5 14.1214 1.9555 -3.9657 7.0149 19.6917 9.6027
# 6 -6.7972 -3.4505 0.4972 4.1421 9.6027 49.9850
#
#
#
# Elastic Compliance Matrix: (Units=1/GPa)
#
#
# Indices 1 2 3 4 5 6 
#
# 1 0.008064 -0.001462 -0.001297 -0.001599 -0.006494 0.002389
# 2 -0.001462 0.012189 -0.001400 0.013948 -0.005704 0.000597
# 3 -0.001297 -0.001400 0.014733 0.002476 0.003816 -0.001358
# 4 -0.001599 0.013948 0.002476 0.066089 -0.023130 -0.000312
# 5 -0.006494 -0.005704 0.003816 -0.023130 0.071412 -0.013117
# 6 0.002389 0.000597 -0.001358 -0.000312 -0.013117 0.022931
#
#
# Mechanical properties :
#
#
# Convention : Reuss Voigt Hill
#
# Bulk Modulus (GPa) = 37.49696 47.14077 42.31886
# Shear Modulus (GPa) = 23.51553 37.43087 30.47320
#
# Velocity S-wave (km/s) = 2.96024 3.73477 3.36983
# Velocity P-wave (km/s) = 5.06529 6.01373 5.55977
#
# Compressibility (1/GPa) = 0.02666883
#
# Stress axis : x y z
#
# Youngs Moduli (GPa) = 124.00255 82.04025 67.87432
#
# Poissons Ratio (x) = 0.11993 0.08805
# Poissons Ratio (y) = 0.18127 0.09502
# Poissons Ratio (z) = 0.16086 0.11485
#
# Static dielectric constant tensor:
#      x y z
#    x 1.985390 0.001560 0.015690 
#    y 0.001560 2.241140 0.042770 
#    z 0.015690 0.042770 2.225830 
# 
# From -- ./inp_files/503.got.cif
#   From: 2010.05.17/outbox.cif.g08.bks.cpg/sg1_1_cif.got.tgz:503.got - 2010.05.17 20:27:59.
