data_PCOD9000664
_publ_section_title
;
Structure prediction by ZEFSAII (Michael W. Deem and Ramdas Pophale) SiO2 
 PCOD9000664
Probable space group: P 1
;
_chemical_formula_sum "Si O2"
_cell_formula_units_Z 8
_cell_length_a 4.625049
_cell_length_b 10.481403
_cell_length_c 7.455605
_cell_angle_alpha 64.196630
_cell_angle_beta 66.784113
_cell_angle_gamma 90.919745
_cell_volume 291.249311
_symmetry_space_group_name_H-M "P 1"
_symmetry_group_IT_number 1
_symmetry_cell_setting 'triclinic'
loop_
_space_group_symop_operation_xyz
x,y,z
loop_
_atom_site_type_symbol
_atom_site_label
_atom_site_fract_x
_atom_site_fract_y
_atom_site_fract_z
Si Si1 0.587320 0.433040 0.128340
Si Si2 0.019920 0.854145 0.802327
Si Si3 0.149549 0.138672 0.044743
Si Si4 0.327437 0.848299 0.079970
Si Si5 0.253104 0.570347 0.824035
Si Si6 0.821414 0.265383 0.723637
Si Si7 0.378532 0.557164 0.423988
Si Si8 0.584000 0.140196 0.460455
O O1 0.475266 0.266052 0.900822
O O2 0.397599 0.525883 0.998529
O O3 0.450707 0.268885 0.319028
O O4 0.933292 0.444561 0.948937
O O5 0.034713 0.824488 0.028235
O O6 0.126405 0.718913 0.766806
O O7 0.651058 0.866673 0.864724
O O8 0.290866 0.999480 0.611071
O O9 0.884156 0.123022 0.274016
O O10 0.295367 0.994414 0.097632
O O11 0.989884 0.166703 0.874938
O O12 0.301498 0.708128 0.292178
O O13 0.642833 0.517953 0.251953
O O14 0.475519 0.572429 0.597403
O O15 0.072949 0.420266 0.551893
O O16 0.708819 0.195714 0.596495
#
# Coordination Sequence:
#
# PCOD9000664 Si02
#       8
#     1   1   1   1   1   1   1   1
#     4  12  28  52  81 122 165 208 278 342 403 498
#     4  12  27  55  82 121 169 219 276 341 412 492
#     4  12  30  56  83 124 168 216 287 333 416 502
#     4  12  28  53  84 120 170 215 278 345 405 495
#     4  12  28  54  82 120 162 216 277 338 405 501
#     4  12  29  54  84 126 165 218 276 350 402 505
#     4  12  29  53  85 118 166 219 272 336 430 467
#     4  12  31  55  89 119 173 221 272 341 431 478
#
# _framework density 27.467873999999998
#
# number of rings (size 3 to 8) (size 9 to 14) (size 15 to 20)
#    0.000    0.000    3.750    3.000    1.750   18.000 
#    0.000    0.000    0.000    0.000    0.000    0.000 
#    0.000    0.000    0.000    0.000    0.000    0.000 
#
# Total GULP energy -44899.553868 kJ/mol
# GULP energy per Si atom -5612.444233 kJ/mol
# Density = 2.740536 g / cm^3
# Si number density = 27.467874 Si / 1000 Ang^3
#
#
#
# Elastic Constant Matrix: (Units=GPa)
#
#
# Indices 1 2 3 4 5 6 
#
# 1 117.5205 38.3977 49.8200 -9.5911 -6.5295 -13.7661
# 2 38.3977 170.0431 73.3068 -26.2460 4.4184 -26.2411
# 3 49.8200 73.3068 159.5159 -2.2754 -1.4543 -7.9058
# 4 -9.5911 -26.2460 -2.2754 59.0070 -1.6197 -3.6787
# 5 -6.5295 4.4184 -1.4543 -1.6197 55.8528 -4.8002
# 6 -13.7661 -26.2411 -7.9058 -3.6787 -4.8002 53.1272
#
#
#
# Elastic Compliance Matrix: (Units=1/GPa)
#
#
# Indices 1 2 3 4 5 6 
#
# 1 0.010356 -0.000590 -0.002820 0.001488 0.001416 0.002203
# 2 -0.000590 0.008781 -0.003607 0.003901 -0.000411 0.003880
# 3 -0.002820 -0.003607 0.008715 -0.001810 0.000015 -0.001339
# 4 0.001488 0.003901 -0.001810 0.019086 0.000666 0.003425
# 5 0.001416 -0.000411 0.000015 0.000666 0.018282 0.001864
# 6 0.002203 0.003880 -0.001339 0.003425 0.001864 0.021517
#
#
# Mechanical properties :
#
#
# Convention : Reuss Voigt Hill
#
# Bulk Modulus (GPa) = 72.36696 85.56982 78.96839
# Shear Modulus (GPa) = 47.44933 52.63440 50.04186
#
# Velocity S-wave (km/s) = 4.16077 4.38221 4.27292
# Velocity P-wave (km/s) = 7.03462 7.53826 7.29079
#
# Compressibility (1/GPa) = 0.01381846
#
# Stress axis : x y z
#
# Youngs Moduli (GPa) = 96.56671 113.88721 114.74284
#
# Poissons Ratio (x) = 0.06717 0.32356
# Poissons Ratio (y) = 0.05695 0.41385
# Poissons Ratio (z) = 0.27230 0.41077
#
# Static dielectric constant tensor:
#      x y z
#    x 2.072070 0.011490 0.031210 
#    y 0.011490 2.186560 0.007800 
#    z 0.031210 0.007800 2.134040 
# 
# From -- ./inp_files/413.got.cif
#   From: 2010.05.17/outbox.cif.g08.bks.cpg/sg1_1_cif.got.tgz:413.got - 2010.05.17 20:27:59.
