data_PCOD9000214
_publ_section_title
;
Structure prediction by ZEFSAII (Michael W. Deem and Ramdas Pophale) SiO2 
 PCOD9000214
Probable space group: P 1
;
_chemical_formula_sum "Si O2"
_cell_formula_units_Z 8
_cell_length_a 9.059690
_cell_length_b 9.096985
_cell_length_c 5.573469
_cell_angle_alpha 127.171210
_cell_angle_beta 97.323407
_cell_angle_gamma 89.592217
_cell_volume 361.610872
_symmetry_space_group_name_H-M "P 1"
_symmetry_group_IT_number 1
_symmetry_cell_setting 'triclinic'
loop_
_space_group_symop_operation_xyz
x,y,z
loop_
_atom_site_type_symbol
_atom_site_label
_atom_site_fract_x
_atom_site_fract_y
_atom_site_fract_z
Si Si1 0.555950 0.406350 0.907240
Si Si2 0.727887 0.099806 0.895255
Si Si3 0.784650 0.353543 0.543490
Si Si4 0.242990 0.211762 0.515237
Si Si5 0.470185 0.800664 0.407800
Si Si6 0.292838 0.864432 0.928145
Si Si7 0.016710 0.219016 0.840098
Si Si8 0.071978 0.512606 0.523026
O O1 0.661313 0.284945 0.962186
O O2 0.650002 0.452046 0.728525
O O3 0.408886 0.273256 0.691282
O O4 0.509463 0.589163 0.202432
O O5 0.903479 0.096529 0.868869
O O6 0.623809 0.931633 0.601460
O O7 0.720822 0.154117 0.226063
O O8 0.900106 0.295449 0.707441
O O9 0.895981 0.480143 0.518292
O O10 0.167533 0.395964 0.608869
O O11 0.140121 0.123357 0.621376
O O12 0.246587 0.071567 0.157733
O O13 0.378953 0.838891 0.670489
O O14 0.386769 0.832994 0.165928
O O15 0.147552 0.718294 0.746131
O O16 0.089654 0.399647 0.170248
#
# Coordination Sequence:
#
# PCOD9000214 Si02
#       8
#     1   1   1   1   1   1   1   1
#     4  11  22  40  68  96 131 174 217 269 333 390
#     4  10  22  43  66  94 135 170 218 275 326 394
#     4   9  21  41  66  94 129 175 218 268 331 389
#     4  11  22  40  68  96 131 174 217 269 333 390
#     4  12  27  42  66 103 134 172 221 275 327 392
#     4  12  27  42  66 103 134 172 221 275 327 392
#     4   9  21  41  66  94 129 175 218 268 331 389
#     4  10  22  43  66  94 135 170 218 275 326 394
#
# _framework density 22.123228000000001
#
# number of rings (size 3 to 8) (size 9 to 14) (size 15 to 20)
#    0.000    1.500    2.500    1.500    7.000    3.000 
#    0.000   11.250    0.000    0.000    0.000    0.000 
#    0.000    0.000    0.000    0.000    0.000    0.000 
#
# Total GULP energy -44636.442898 kJ/mol
# GULP energy per Si atom -5579.555362 kJ/mol
# Density = 2.207287 g / cm^3
# Si number density = 22.123228 Si / 1000 Ang^3
#
#
#
# Elastic Constant Matrix: (Units=GPa)
#
#
# Indices 1 2 3 4 5 6 
#
# 1 118.7477 13.5017 46.7168 -0.2896 -10.7995 20.5229
# 2 13.5017 34.3690 16.7146 6.0629 -3.6498 3.8902
# 3 46.7168 16.7146 122.3598 0.9895 -1.2335 23.5950
# 4 -0.2896 6.0629 0.9895 41.7982 3.5049 4.1355
# 5 -10.7995 -3.6498 -1.2335 3.5049 56.9121 -6.7580
# 6 20.5229 3.8902 23.5950 4.1355 -6.7580 22.3800
#
#
#
# Elastic Compliance Matrix: (Units=1/GPa)
#
#
# Indices 1 2 3 4 5 6 
#
# 1 0.010971 -0.002383 -0.002537 0.001078 0.000992 -0.006871
# 2 -0.002383 0.032821 -0.003939 -0.005083 0.002144 0.002220
# 3 -0.002537 -0.003939 0.011575 0.001415 -0.001756 -0.009985
# 4 0.001078 -0.005083 0.001415 0.025546 -0.002504 -0.007074
# 5 0.000992 0.002144 -0.001756 -0.002504 0.018810 0.006712
# 6 -0.006871 0.002220 -0.009985 -0.007074 0.006712 0.064459
#
#
# Mechanical properties :
#
#
# Convention : Reuss Voigt Hill
#
# Bulk Modulus (GPa) = 26.56081 47.70474 37.13278
# Shear Modulus (GPa) = 25.71378 37.45427 31.58402
#
# Velocity S-wave (km/s) = 3.41295 4.11905 3.78251
# Velocity P-wave (km/s) = 5.25003 6.65072 5.99145
#
# Compressibility (1/GPa) = 0.03764945
#
# Stress axis : x y z
#
# Youngs Moduli (GPa) = 91.15326 30.46830 86.39020
#
# Poissons Ratio (x) = 0.07261 0.21914
# Poissons Ratio (y) = 0.21724 0.34028
# Poissons Ratio (z) = 0.23123 0.12001
#
# Static dielectric constant tensor:
#      x y z
#    x 1.825150 0.033320 -0.027700 
#    y 0.033320 1.935310 -0.113520 
#    z -0.027700 -0.113520 1.846650 
# 
# From -- ./inp_files/1618.got.cif
#   From: 2010.05.17/outbox.cif.g08.bks.cpg/sg1_1_cif.got.tgz:1618.got - 2010.05.17 20:27:59.
