data_PCOD9000566
_publ_section_title
;
Structure prediction by ZEFSAII (Michael W. Deem and Ramdas Pophale) SiO2 
 PCOD9000566
Probable space group: P 1
;
_chemical_formula_sum "Si O2"
_cell_formula_units_Z 6
_cell_length_a 6.543661
_cell_length_b 4.699650
_cell_length_c 9.431279
_cell_angle_alpha 84.696877
_cell_angle_beta 55.477638
_cell_angle_gamma 86.950492
_cell_volume 237.941907
_symmetry_space_group_name_H-M "P 1"
_symmetry_group_IT_number 1
_symmetry_cell_setting 'triclinic'
loop_
_space_group_symop_operation_xyz
x,y,z
loop_
_atom_site_type_symbol
_atom_site_label
_atom_site_fract_x
_atom_site_fract_y
_atom_site_fract_z
Si Si1 0.813620 0.368450 0.652550
Si Si2 0.980418 0.599585 0.877133
Si Si3 0.276220 0.143449 0.316733
Si Si4 0.204584 0.685433 0.150089
Si Si5 0.824228 0.057457 0.120915
Si Si6 0.482798 0.844429 0.746261
O O1 0.718072 0.663377 0.609162
O O2 0.872553 0.459516 0.785561
O O3 0.060674 0.220707 0.505721
O O4 0.584245 0.159895 0.717399
O O5 0.245241 0.758675 0.748878
O O6 0.985185 0.333599 0.998065
O O7 0.811176 0.850915 0.997316
O O8 0.555223 0.173902 0.262759
O O9 0.953778 0.846045 0.191064
O O10 0.266648 0.829533 0.269369
O O11 0.223456 0.353494 0.194998
O O12 0.386453 0.748264 0.944299
#
# Coordination Sequence:
#
# PCOD9000566 Si02
#       6
#     1   1   1   1   1   1
#     4  12  25  42  67 101 140 176 216 279 347 402
#     4  11  23  43  72 100 131 179 233 280 329 397
#     4  12  25  42  67 101 140 176 216 279 347 402
#     4  11  23  43  69  97 131 177 231 277 326 399
#     4  11  23  43  72 100 131 179 233 280 329 397
#     4  11  23  43  69  97 131 177 231 277 326 399
#
# _framework density 25.216237
#
# number of rings (size 3 to 8) (size 9 to 14) (size 15 to 20)
#    0.000    0.667    0.000   11.000    0.000    1.333 
#    0.000   10.000    0.000    0.000    0.000    0.000 
#    0.000    0.000    0.000    0.000    0.000    0.000 
#
# Total GULP energy -33555.842491 kJ/mol
# GULP energy per Si atom -5592.640415 kJ/mol
# Density = 2.515884 g / cm^3
# Si number density = 25.216237 Si / 1000 Ang^3
#
#
#
# Elastic Constant Matrix: (Units=GPa)
#
#
# Indices 1 2 3 4 5 6 
#
# 1 131.5257 15.5867 20.9459 -5.9101 -38.2441 9.3723
# 2 15.5867 124.9686 18.7540 16.6962 -1.8719 13.0794
# 3 20.9459 18.7540 77.2492 13.0521 -35.9128 1.3597
# 4 -5.9101 16.6962 13.0521 33.4616 -1.4334 0.5028
# 5 -38.2441 -1.8719 -35.9128 -1.4334 43.0557 5.3608
# 6 9.3723 13.0794 1.3597 0.5028 5.3608 29.2565
#
#
#
# Elastic Compliance Matrix: (Units=1/GPa)
#
#
# Indices 1 2 3 4 5 6 
#
# 1 0.011869 -0.001455 0.003468 0.002167 0.014185 -0.005949
# 2 -0.001455 0.009362 -0.002339 -0.004081 -0.002591 -0.003066
# 3 0.003468 -0.002339 0.025225 -0.006926 0.024487 -0.005605
# 4 0.002167 -0.004081 -0.006926 0.034854 -0.003045 0.001411
# 5 0.014185 -0.002591 0.024487 -0.003045 0.057914 -0.015084
# 6 -0.005949 -0.003066 -0.005605 0.001411 -0.015084 0.040457
#
#
# Mechanical properties :
#
#
# Convention : Reuss Voigt Hill
#
# Bulk Modulus (GPa) = 21.83219 49.36851 35.60035
# Shear Modulus (GPa) = 25.56215 39.71854 32.64035
#
# Velocity S-wave (km/s) = 3.18735 3.97308 3.60170
# Velocity P-wave (km/s) = 4.71406 6.37713 5.60759
#
# Compressibility (1/GPa) = 0.04580393
#
# Stress axis : x y z
#
# Youngs Moduli (GPa) = 84.25167 106.81717 39.64271
#
# Poissons Ratio (x) = 0.15544 -0.13749
# Poissons Ratio (y) = 0.12260 0.09274
# Poissons Ratio (z) = -0.29221 0.24987
#
# Static dielectric constant tensor:
#      x y z
#    x 2.054710 0.048920 0.020180 
#    y 0.048920 1.974380 -0.023800 
#    z 0.020180 -0.023800 1.976510 
# 
# From -- ./inp_files/2143.got.cif
#   From: 2010.05.17/outbox.cif.g08.bks.cpg/sg1_2_cif.got.tgz:2143.got - 2010.05.17 20:27:59.
