data_PCOD9000247
_publ_section_title
;
Structure prediction by ZEFSAII (Michael W. Deem and Ramdas Pophale) SiO2 
 PCOD9000247
Probable space group: P 1
;
_chemical_formula_sum "Si O2"
_cell_formula_units_Z 8
_cell_length_a 10.295402
_cell_length_b 8.173300
_cell_length_c 5.338469
_cell_angle_alpha 74.270950
_cell_angle_beta 97.688512
_cell_angle_gamma 137.575831
_cell_volume 290.175599
_symmetry_space_group_name_H-M "P 1"
_symmetry_group_IT_number 1
_symmetry_cell_setting 'triclinic'
loop_
_space_group_symop_operation_xyz
x,y,z
loop_
_atom_site_type_symbol
_atom_site_label
_atom_site_fract_x
_atom_site_fract_y
_atom_site_fract_z
Si Si1 0.672580 0.788510 0.612150
Si Si2 0.304109 0.289147 0.587910
Si Si3 0.429037 0.047630 0.956465
Si Si4 0.182174 0.953422 0.318168
Si Si5 0.796173 0.526852 0.617148
Si Si6 0.121583 0.520707 0.880390
Si Si7 0.978880 0.037015 0.942744
Si Si8 0.878912 0.329793 0.376468
O O1 0.444872 0.568385 0.603090
O O2 0.733653 0.664863 0.555100
O O3 0.757061 0.856853 0.888600
O O4 0.754329 0.042014 0.422707
O O5 0.089260 0.140050 0.661677
O O6 0.357185 0.166289 0.799119
O O7 0.317672 0.234528 0.334227
O O8 0.332673 0.805885 0.864615
O O9 0.658228 0.291893 0.874389
O O10 0.323063 0.947684 0.240628
O O11 0.033199 0.756956 0.584320
O O12 0.026843 0.899709 0.123757
O O13 0.758574 0.377824 0.421340
O O14 0.087677 0.286900 0.020110
O O15 0.017142 0.428067 0.617529
O O16 0.000351 0.482881 0.097371
#
# Coordination Sequence:
#
# PCOD9000247 Si02
#       8
#     1   1   1   1   1   1   1   1
#     4  10  23  45  68 105 140 182 244 290 358 433
#     4  10  22  44  68 102 139 181 241 300 351 441
#     4  10  24  42  64 106 137 181 246 295 353 445
#     4  11  21  45  72  99 139 189 238 296 367 428
#     4  11  22  44  71  98 142 189 236 295 366 419
#     4  11  24  45  69 100 145 186 240 300 360 430
#     4  10  23  41  72  97 140 191 230 300 369 417
#     4  11  25  46  70 103 142 189 239 302 356 433
#
# _framework density 27.569514000000002
#
# number of rings (size 3 to 8) (size 9 to 14) (size 15 to 20)
#    0.000    1.500    2.500    1.500    5.250    0.000 
#   31.500    0.000    0.000    0.000    0.000    0.000 
#    0.000    0.000    0.000    0.000    0.000    0.000 
#
# Total GULP energy -44615.651071 kJ/mol
# GULP energy per Si atom -5576.956384 kJ/mol
# Density = 2.750676 g / cm^3
# Si number density = 27.569514 Si / 1000 Ang^3
#
#
#
# Elastic Constant Matrix: (Units=GPa)
#
#
# Indices 1 2 3 4 5 6 
#
# 1 47.3111 41.5187 17.4594 0.2663 -14.9732 -13.5473
# 2 41.5187 234.2065 53.1454 -11.1513 -14.8825 -10.0970
# 3 17.4594 53.1454 119.8106 -1.7647 -14.9379 10.0039
# 4 0.2663 -11.1513 -1.7647 31.2911 -4.4828 -5.6956
# 5 -14.9732 -14.8825 -14.9379 -4.4828 38.0856 3.8663
# 6 -13.5473 -10.0970 10.0039 -5.6956 3.8663 60.6749
#
#
#
# Elastic Compliance Matrix: (Units=1/GPa)
#
#
# Indices 1 2 3 4 5 6 
#
# 1 0.029838 -0.004010 -0.001939 0.000535 0.008878 0.005799
# 2 -0.004010 0.005526 -0.001877 0.001996 0.000029 0.000519
# 3 -0.001939 -0.001877 0.010008 -0.000175 0.002671 -0.002582
# 4 0.000535 0.001996 -0.000175 0.033924 0.004572 0.003374
# 5 0.008878 0.000029 0.002671 0.004572 0.031346 -0.000022
# 6 0.005799 0.000519 -0.002582 0.003374 -0.000022 0.018606
#
#
# Mechanical properties :
#
#
# Convention : Reuss Voigt Hill
#
# Bulk Modulus (GPa) = 33.64754 69.50835 51.57795
# Shear Modulus (GPa) = 32.29827 45.29064 38.79446
#
# Velocity S-wave (km/s) = 3.42646 4.05752 3.75527
# Velocity P-wave (km/s) = 5.28065 6.87154 6.12794
#
# Compressibility (1/GPa) = 0.02971985
#
# Stress axis : x y z
#
# Youngs Moduli (GPa) = 33.51378 180.96878 99.92271
#
# Poissons Ratio (x) = 0.72568 0.19375
# Poissons Ratio (y) = 0.13439 0.18757
# Poissons Ratio (z) = 0.06498 0.33970
#
# Static dielectric constant tensor:
#      x y z
#    x 2.189190 -0.050670 0.017400 
#    y -0.050670 2.207220 -0.063740 
#    z 0.017400 -0.063740 2.321910 
# 
# From -- ./inp_files/1660.got.cif
#   From: 2010.05.17/outbox.cif.g08.bks.cpg/sg1_1_cif.got.tgz:1660.got - 2010.05.17 20:27:59.
