data_PCOD9000877
_publ_section_title
;
Structure prediction by ZEFSAII (Michael W. Deem and Ramdas Pophale) SiO2 
 PCOD9000877
Probable space group: P 1
;
_chemical_formula_sum "Si O2"
_cell_formula_units_Z 8
_cell_length_a 8.747208
_cell_length_b 5.600581
_cell_length_c 12.221507
_cell_angle_alpha 79.341908
_cell_angle_beta 144.610481
_cell_angle_gamma 95.018284
_cell_volume 338.644625
_symmetry_space_group_name_H-M "P 1"
_symmetry_group_IT_number 1
_symmetry_cell_setting 'triclinic'
loop_
_space_group_symop_operation_xyz
x,y,z
loop_
_atom_site_type_symbol
_atom_site_label
_atom_site_fract_x
_atom_site_fract_y
_atom_site_fract_z
Si Si1 0.329320 0.437620 0.236750
Si Si2 0.066522 0.305277 0.880660
Si Si3 0.124837 0.277825 0.339377
Si Si4 0.118005 0.038874 0.584267
Si Si5 0.634658 0.196746 0.930800
Si Si6 0.916938 0.519770 0.552967
Si Si7 0.901902 0.882829 0.920387
Si Si8 0.520904 0.561133 0.648689
O O1 0.288611 0.240115 0.324047
O O2 0.606853 0.543055 0.401896
O O3 0.283066 0.352739 0.093419
O O4 0.080996 0.644972 0.087022
O O5 0.091326 0.424964 0.768364
O O6 0.770105 0.411505 0.742336
O O7 0.056499 0.015698 0.906031
O O8 0.246408 0.522433 0.433701
O O9 0.171768 0.095118 0.483897
O O10 0.817289 0.272739 0.128375
O O11 0.993301 0.784859 0.541614
O O12 0.392080 0.034297 0.814152
O O13 0.949858 0.287866 0.509125
O O14 0.511030 0.438122 0.773163
O O15 0.827611 0.050339 0.967072
O O16 0.636202 0.813072 0.714537
#
# Coordination Sequence:
#
# PCOD9000877 Si02
#       8
#     1   1   1   1   1   1   1   1
#     4  11  24  43  76 113 134 183 254 306 364 419
#     4  10  22  42  70 102 142 186 238 304 359 426
#     4  11  21  45  72 106 140 182 243 311 354 430
#     4  11  31  47  71 104 153 202 238 288 375 447
#     4  10  22  44  67 102 143 184 241 293 366 424
#     4  12  29  51  70 104 153 201 238 296 366 451
#     4  10  20  40  75 108 141 173 244 317 356 419
#     4   9  19  38  63 109 132 175 230 299 364 410
#
# _framework density 23.623581999999999
#
# number of rings (size 3 to 8) (size 9 to 14) (size 15 to 20)
#    0.000    1.500    5.000    0.000    8.750    3.000 
#    4.500    0.000    0.000    0.000    0.000    0.000 
#    0.000    0.000    0.000    0.000    0.000    0.000 
#
# Total GULP energy -44631.714038 kJ/mol
# GULP energy per Si atom -5578.964255 kJ/mol
# Density = 2.356981 g / cm^3
# Si number density = 23.623582 Si / 1000 Ang^3
#
#
#
# Elastic Constant Matrix: (Units=GPa)
#
#
# Indices 1 2 3 4 5 6 
#
# 1 67.7360 42.2861 31.0016 -5.3179 -4.1449 18.2494
# 2 42.2861 117.9465 49.5737 20.1762 -8.3742 29.4187
# 3 31.0016 49.5737 171.2768 39.0717 -5.4284 18.9970
# 4 -5.3179 20.1762 39.0717 36.9760 9.1188 5.8335
# 5 -4.1449 -8.3742 -5.4284 9.1188 35.6219 -1.9951
# 6 18.2494 29.4187 18.9970 5.8335 -1.9951 39.7984
#
#
#
# Elastic Compliance Matrix: (Units=1/GPa)
#
#
# Indices 1 2 3 4 5 6 
#
# 1 0.024613 -0.008295 -0.005091 0.015262 -0.004058 -0.005165
# 2 -0.008295 0.014744 0.000226 -0.009770 0.004726 -0.005534
# 3 -0.005091 0.000226 0.009580 -0.011875 0.003934 -0.000468
# 4 0.015262 -0.009770 -0.011875 0.051350 -0.015611 -0.002417
# 5 -0.004058 0.004726 0.003934 -0.015611 0.033332 0.000448
# 6 -0.005165 -0.005534 -0.000468 -0.002417 0.000448 0.032186
#
#
# Mechanical properties :
#
#
# Convention : Reuss Voigt Hill
#
# Bulk Modulus (GPa) = 44.21371 66.96469 55.58920
# Shear Modulus (GPa) = 25.04185 38.08579 31.56382
#
# Velocity S-wave (km/s) = 3.25935 4.01957 3.65926
# Velocity P-wave (km/s) = 5.73769 7.06758 6.43707
#
# Compressibility (1/GPa) = 0.02261742
#
# Stress axis : x y z
#
# Youngs Moduli (GPa) = 40.62865 67.82205 104.38232
#
# Poissons Ratio (x) = 0.56258 0.53146
# Poissons Ratio (y) = 0.33701 -0.02361
# Poissons Ratio (z) = 0.20686 -0.01534
#
# Static dielectric constant tensor:
#      x y z
#    x 1.961650 -0.018030 -0.003890 
#    y -0.018030 1.947350 0.000030 
#    z -0.003890 0.000030 1.899900 
# 
# From -- ./inp_files/2693.got.cif
#   From: 2010.05.17/outbox.cif.g08.bks.cpg/sg1_2_cif.got.tgz:2693.got - 2010.05.17 20:27:59.
