data_PCOD9000193
_publ_section_title
;
Structure prediction by ZEFSAII (Michael W. Deem and Ramdas Pophale) SiO2 
 PCOD9000193
Probable space group: P 1
;
_chemical_formula_sum "Si O2"
_cell_formula_units_Z 8
_cell_length_a 8.410962
_cell_length_b 7.563405
_cell_length_c 7.719256
_cell_angle_alpha 74.109477
_cell_angle_beta 101.105843
_cell_angle_gamma 138.249828
_cell_volume 314.444407
_symmetry_space_group_name_H-M "P 1"
_symmetry_group_IT_number 1
_symmetry_cell_setting 'triclinic'
loop_
_space_group_symop_operation_xyz
x,y,z
loop_
_atom_site_type_symbol
_atom_site_label
_atom_site_fract_x
_atom_site_fract_y
_atom_site_fract_z
Si Si1 0.135500 0.165460 0.696840
Si Si2 0.358037 0.881251 0.360289
Si Si3 0.669655 0.961226 0.647920
Si Si4 0.464421 0.381572 0.377851
Si Si5 0.458617 0.505755 0.972098
Si Si6 0.606720 0.202989 0.998095
Si Si7 0.112735 0.730714 0.839118
Si Si8 0.907106 0.534740 0.484641
O O1 0.338073 0.313617 0.552198
O O2 0.226197 0.336439 0.846575
O O3 0.907830 0.071468 0.591073
O O4 0.058846 0.899630 0.814530
O O5 0.443437 0.783255 0.522410
O O6 0.075053 0.626703 0.332719
O O7 0.371738 0.106204 0.364259
O O8 0.546333 0.042934 0.201562
O O9 0.625400 0.805760 0.851687
O O10 0.731901 0.228236 0.591744
O O11 0.747002 0.580296 0.412988
O O12 0.424925 0.480894 0.178117
O O13 0.550455 0.375327 0.974737
O O14 0.884794 0.427231 0.943680
O O15 0.388154 0.946135 0.899205
O O16 0.091095 0.695216 0.638205
#
# Coordination Sequence:
#
# PCOD9000193 Si02
#       8
#     1   1   1   1   1   1   1   1
#     4  11  22  44  72 100 137 182 232 294 341 418
#     4  10  23  42  66 101 135 183 227 288 352 409
#     4  11  24  42  68  94 149 181 221 288 365 409
#     4  10  23  41  73 102 130 183 242 286 338 419
#     4  10  22  42  66 103 137 182 231 287 350 411
#     4  10  23  40  73 103 134 177 244 291 335 415
#     4  11  22  42  73 103 133 180 241 290 338 414
#     4  11  23  43  69  98 137 184 226 288 351 415
#
# _framework density 25.441700999999998
#
# number of rings (size 3 to 8) (size 9 to 14) (size 15 to 20)
#    0.000    1.500    2.500    2.250    7.000    1.000 
#    0.000    5.000    0.000    0.000    0.000    0.000 
#    0.000    0.000    0.000    0.000    0.000    0.000 
#
# Total GULP energy -44645.067933 kJ/mol
# GULP energy per Si atom -5580.633492 kJ/mol
# Density = 2.538379 g / cm^3
# Si number density = 25.441701 Si / 1000 Ang^3
#
#
#
# Elastic Constant Matrix: (Units=GPa)
#
#
# Indices 1 2 3 4 5 6 
#
# 1 82.8689 30.5147 36.4009 -0.7845 3.7783 43.1077
# 2 30.5147 103.0299 49.8436 -16.0147 -9.1354 21.0529
# 3 36.4009 49.8436 164.4080 -27.0009 0.0076 26.4008
# 4 -0.7845 -16.0147 -27.0009 37.1336 4.9127 -5.7592
# 5 3.7783 -9.1354 0.0076 4.9127 31.5400 -12.8456
# 6 43.1077 21.0529 26.4008 -5.7592 -12.8456 47.4116
#
#
#
# Elastic Compliance Matrix: (Units=1/GPa)
#
#
# Indices 1 2 3 4 5 6 
#
# 1 0.030818 -0.004476 -0.001380 -0.004793 -0.016600 -0.030344
# 2 -0.004476 0.012900 -0.002611 0.003208 0.004326 0.001358
# 3 -0.001380 -0.002611 0.008340 0.004859 -0.002268 -0.002254
# 4 -0.004793 0.003208 0.004859 0.032584 -0.002100 0.003616
# 5 -0.016600 0.004326 -0.002268 -0.002100 0.046142 0.026681
# 6 -0.030344 0.001358 -0.002254 0.003616 0.026681 0.057002
#
#
# Mechanical properties :
#
#
# Convention : Reuss Voigt Hill
#
# Bulk Modulus (GPa) = 28.47151 64.86946 46.67049
# Shear Modulus (GPa) = 23.10244 38.78688 30.94466
#
# Velocity S-wave (km/s) = 3.01666 3.90877 3.49133
# Velocity P-wave (km/s) = 4.83206 6.77672 5.88527
#
# Compressibility (1/GPa) = 0.03512283
#
# Stress axis : x y z
#
# Youngs Moduli (GPa) = 32.44870 77.52112 119.90949
#
# Poissons Ratio (x) = 0.34701 0.16546
# Poissons Ratio (y) = 0.14525 0.31309
# Poissons Ratio (z) = 0.04477 0.20241
#
# Static dielectric constant tensor:
#      x y z
#    x 2.019490 -0.004020 -0.070210 
#    y -0.004020 2.157390 0.075220 
#    z -0.070210 0.075220 2.034480 
# 
# From -- ./inp_files/3036.got.cif
#   From: 2010.05.17/outbox.cif.g08.bks.cpg/sg1_2_cif.got.tgz:3036.got - 2010.05.17 20:27:59.
