data_PCOD9000100
_publ_section_title
;
Structure prediction by ZEFSAII (Michael W. Deem and Ramdas Pophale) SiO2 
 PCOD9000100
Probable space group: P 1
;
_chemical_formula_sum "Si O2"
_cell_formula_units_Z 8
_cell_length_a 7.541328
_cell_length_b 7.441834
_cell_length_c 8.686715
_cell_angle_alpha 91.213478
_cell_angle_beta 101.807341
_cell_angle_gamma 123.058607
_cell_volume 394.668436
_symmetry_space_group_name_H-M "P 1"
_symmetry_group_IT_number 1
_symmetry_cell_setting 'triclinic'
loop_
_space_group_symop_operation_xyz
x,y,z
loop_
_atom_site_type_symbol
_atom_site_label
_atom_site_fract_x
_atom_site_fract_y
_atom_site_fract_z
Si Si1 0.699180 0.756290 0.815850
Si Si2 0.906858 0.761127 0.150014
Si Si3 0.418394 0.725385 0.527614
Si Si4 0.577745 0.086374 0.786907
Si Si5 0.937066 0.454634 0.378448
Si Si6 0.300183 0.853154 0.014109
Si Si7 0.693214 0.946861 0.291027
Si Si8 0.923035 0.558653 0.732418
O O1 0.476506 0.622630 0.675278
O O2 0.875853 0.744187 0.748998
O O3 0.722808 0.679796 0.983950
O O4 0.724850 0.986657 0.840221
O O5 0.872331 0.571026 0.248345
O O6 0.875148 0.919002 0.250561
O O7 0.137750 0.866937 0.102516
O O8 0.611452 0.832972 0.439820
O O9 0.193611 0.557981 0.402477
O O10 0.425743 0.925513 0.617035
O O11 0.789469 0.198862 0.328554
O O12 0.437941 0.041498 0.914881
O O13 0.726423 0.333208 0.766683
O O14 0.931596 0.515765 0.555213
O O15 0.478412 0.843410 0.143155
O O16 0.139931 0.644228 0.873844
#
# Coordination Sequence:
#
# PCOD9000100 Si02
#       8
#     1   1   1   1   1   1   1   1
#     4   9  21  41  64  98 132 172 223 268 328 399
#     4  11  25  43  68 104 134 177 223 275 337 407
#     4  10  21  45  65  96 138 174 219 279 327 395
#     4  10  21  44  67  92 136 177 216 282 327 383
#     4  12  24  43  70 101 135 178 227 274 338 397
#     4  11  24  43  69  99 138 173 226 273 332 403
#     4  12  24  47  66  99 145 173 217 290 332 389
#     4  11  22  42  71  99 130 182 227 271 331 405
#
# _framework density 20.270178999999999
#
# number of rings (size 3 to 8) (size 9 to 14) (size 15 to 20)
#    0.750    0.500    5.000    0.750    3.500    0.000 
#    6.750    7.500    0.000    0.000    0.000    0.000 
#    0.000    0.000    0.000    0.000    0.000    0.000 
#
# Total GULP energy -44573.499399 kJ/mol
# GULP energy per Si atom -5571.687425 kJ/mol
# Density = 2.022404 g / cm^3
# Si number density = 20.270179 Si / 1000 Ang^3
#
#
#
# Elastic Constant Matrix: (Units=GPa)
#
#
# Indices 1 2 3 4 5 6 
#
# 1 105.5998 47.0955 41.8346 -6.6261 -25.4846 -3.8728
# 2 47.0955 70.1259 38.4199 -10.4298 -2.1743 13.6000
# 3 41.8346 38.4199 96.6962 -13.3830 -2.9550 -2.1903
# 4 -6.6261 -10.4298 -13.3830 23.4154 5.1386 -4.6332
# 5 -25.4846 -2.1743 -2.9550 5.1386 51.5971 -6.4306
# 6 -3.8728 13.6000 -2.1903 -4.6332 -6.4306 26.7338
#
#
#
# Elastic Compliance Matrix: (Units=1/GPa)
#
#
# Indices 1 2 3 4 5 6 
#
# 1 0.019679 -0.014106 -0.002612 -0.002177 0.010689 0.012006
# 2 -0.014106 0.031593 -0.006581 0.004313 -0.008942 -0.020058
# 3 -0.002612 -0.006581 0.015021 0.006071 -0.000677 0.005089
# 4 -0.002177 0.004313 0.006071 0.049611 -0.004810 0.005429
# 5 0.010689 -0.008942 -0.000677 -0.004810 0.026157 0.011500
# 6 0.012006 -0.020058 0.005089 0.005429 0.011500 0.053473
#
#
# Mechanical properties :
#
#
# Convention : Reuss Voigt Hill
#
# Bulk Modulus (GPa) = 50.77185 58.56910 54.67047
# Shear Modulus (GPa) = 20.10491 30.02072 25.06281
#
# Velocity S-wave (km/s) = 3.15278 3.85259 3.52012
# Velocity P-wave (km/s) = 6.19316 6.98190 6.59932
#
# Compressibility (1/GPa) = 0.01969596
#
# Stress axis : x y z
#
# Youngs Moduli (GPa) = 50.81666 31.65289 66.57313
#
# Poissons Ratio (x) = 0.44649 0.17388
# Poissons Ratio (y) = 0.71681 0.43809
# Poissons Ratio (z) = 0.13273 0.20829
#
# Static dielectric constant tensor:
#      x y z
#    x 1.775670 -0.006180 -0.014530 
#    y -0.006180 1.671260 -0.011560 
#    z -0.014530 -0.011560 1.762660 
# 
# From -- ./inp_files/3917.got.cif
#   From: 2010.05.17/outbox.cif.g08.bks.cpg/sg1_2_cif.got.tgz:3917.got - 2010.05.17 20:27:59.
