data_PCOD9000489
_publ_section_title
;
Structure prediction by ZEFSAII (Michael W. Deem and Ramdas Pophale) SiO2 
 PCOD9000489
Probable space group: P 1
;
_chemical_formula_sum "Si O2"
_cell_formula_units_Z 6
_cell_length_a 7.476466
_cell_length_b 6.142820
_cell_length_c 4.995355
_cell_angle_alpha 81.940934
_cell_angle_beta 91.938016
_cell_angle_gamma 89.473202
_cell_volume 227.001419
_symmetry_space_group_name_H-M "P 1"
_symmetry_group_IT_number 1
_symmetry_cell_setting 'triclinic'
loop_
_space_group_symop_operation_xyz
x,y,z
loop_
_atom_site_type_symbol
_atom_site_label
_atom_site_fract_x
_atom_site_fract_y
_atom_site_fract_z
Si Si1 0.881440 0.755350 0.865550
Si Si2 0.190110 0.502617 0.745917
Si Si3 0.264495 0.906028 0.999015
Si Si4 0.168531 0.216720 0.314108
Si Si5 0.609032 0.129095 0.777033
Si Si6 0.776853 0.340910 0.275786
O O1 0.992654 0.613903 0.676112
O O2 0.719968 0.909005 0.741613
O O3 0.818541 0.582364 0.118090
O O4 0.048625 0.900918 0.949052
O O5 0.247307 0.397695 0.487788
O O6 0.307465 0.673534 0.893110
O O7 0.160395 0.319180 0.000289
O O8 0.267206 0.982966 0.299631
O O9 0.408130 0.060145 0.839448
O O10 0.961542 0.213126 0.387755
O O11 0.646643 0.312873 0.525404
O O12 0.688902 0.213800 0.045430
#
# Coordination Sequence:
#
# PCOD9000489 Si02
#       6
#     1   1   1   1   1   1
#     4   9  23  50  73 107 147 199 239 306 365 445
#     4   9  23  40  71 103 139 190 239 293 360 427
#     4  10  25  47  76 109 145 198 245 305 369 442
#     4  11  21  44  72 102 140 192 240 292 362 437
#     4  12  26  47  73 112 148 189 249 309 367 436
#     4  11  24  46  73 107 147 194 244 303 371 437
#
# _framework density 26.431556
#
# number of rings (size 3 to 8) (size 9 to 14) (size 15 to 20)
#    1.000    0.667    1.667    2.000    0.000   10.667 
#    0.000    1.667    0.000    0.000    0.000    0.000 
#    0.000    0.000    0.000    0.000    0.000    0.000 
#
# Total GULP energy -33472.442773 kJ/mol
# GULP energy per Si atom -5578.740462 kJ/mol
# Density = 2.637140 g / cm^3
# Si number density = 26.431556 Si / 1000 Ang^3
#
#
#
# Elastic Constant Matrix: (Units=GPa)
#
#
# Indices 1 2 3 4 5 6 
#
# 1 130.0054 57.7461 25.3784 -6.6846 -41.0626 10.5691
# 2 57.7461 134.5146 49.9127 27.7460 -2.9583 23.3953
# 3 25.3784 49.9127 103.5658 26.7834 -6.9139 12.0074
# 4 -6.6846 27.7460 26.7834 62.6065 7.1200 -6.7871
# 5 -41.0626 -2.9583 -6.9139 7.1200 24.7656 -12.7097
# 6 10.5691 23.3953 12.0074 -6.7871 -12.7097 42.4272
#
#
#
# Elastic Compliance Matrix: (Units=1/GPa)
#
#
# Indices 1 2 3 4 5 6 
#
# 1 0.036258 -0.019827 0.000650 0.007186 0.067753 0.023163
# 2 -0.019827 0.021311 -0.003919 -0.007483 -0.038774 -0.018516
# 3 0.000650 -0.003919 0.012962 -0.004407 0.005053 -0.000861
# 4 0.007186 -0.007483 -0.004407 0.022030 0.008396 0.009623
# 5 0.067753 -0.038774 0.005053 0.008396 0.176479 0.057283
# 6 0.023163 -0.018516 -0.000861 0.009623 0.057283 0.046952
#
#
# Mechanical properties :
#
#
# Convention : Reuss Voigt Hill
#
# Bulk Modulus (GPa) = 41.08710 70.46223 55.77467
# Shear Modulus (GPa) = 13.50261 41.62977 27.56619
#
# Velocity S-wave (km/s) = 2.26266 3.97294 3.23294
# Velocity P-wave (km/s) = 4.73335 6.91100 5.92311
#
# Compressibility (1/GPa) = 0.02433854
#
# Stress axis : x y z
#
# Youngs Moduli (GPa) = 27.57976 46.92416 77.14910
#
# Poissons Ratio (x) = 0.93039 -0.05012
# Poissons Ratio (y) = 0.54684 0.30232
# Poissons Ratio (z) = -0.01792 0.18388
#
# Static dielectric constant tensor:
#      x y z
#    x 2.014690 -0.050560 0.047680 
#    y -0.050560 2.290770 0.013320 
#    z 0.047680 0.013320 2.051120 
# 
# From -- ./inp_files/737.got.cif
#   From: 2010.05.17/outbox.cif.g08.bks.cpg/sg1_1_cif.got.tgz:737.got - 2010.05.17 20:27:59.
