data_PCOD9000343
_publ_section_title
;
Structure prediction by ZEFSAII (Michael W. Deem and Ramdas Pophale) SiO2 
 PCOD9000343
Probable space group: P 1
;
_chemical_formula_sum "Si O2"
_cell_formula_units_Z 8
_cell_length_a 7.036960
_cell_length_b 7.746651
_cell_length_c 7.207751
_cell_angle_alpha 74.059888
_cell_angle_beta 85.741436
_cell_angle_gamma 120.493014
_cell_volume 314.547604
_symmetry_space_group_name_H-M "P 1"
_symmetry_group_IT_number 1
_symmetry_cell_setting 'triclinic'
loop_
_space_group_symop_operation_xyz
x,y,z
loop_
_atom_site_type_symbol
_atom_site_label
_atom_site_fract_x
_atom_site_fract_y
_atom_site_fract_z
Si Si1 0.398910 0.164480 0.995660
Si Si2 0.047077 0.257239 0.116633
Si Si3 0.879522 0.375344 0.749206
Si Si4 0.251226 0.177231 0.582167
Si Si5 0.715022 0.528605 0.433360
Si Si6 0.284704 0.806589 0.639800
Si Si7 0.774979 0.917744 0.524419
Si Si8 0.123515 0.691634 0.097219
O O1 0.670789 0.329855 0.916310
O O2 0.304268 0.166461 0.796632
O O3 0.255119 0.225121 0.113222
O O4 0.325430 0.918229 0.102616
O O5 0.119851 0.474435 0.157400
O O6 0.832712 0.054521 0.292004
O O7 0.980008 0.273661 0.905591
O O8 0.745218 0.343293 0.574659
O O9 0.113849 0.594711 0.601061
O O10 0.449988 0.416509 0.439345
O O11 0.986837 0.079250 0.593130
O O12 0.300480 0.018149 0.513861
O O13 0.889714 0.638086 0.221100
O O14 0.774104 0.707032 0.533427
O O15 0.529027 0.844244 0.639586
O O16 0.145492 0.741378 0.862151
#
# Coordination Sequence:
#
# PCOD9000343 Si02
#       8
#     1   1   1   1   1   1   1   1
#     4  10  23  46  71 107 145 190 238 298 364 424
#     4  11  25  44  73 104 146 193 240 290 369 425
#     4  10  24  43  74 103 147 187 236 300 356 425
#     4  10  24  44  72 102 145 187 238 299 358 424
#     4  11  23  47  75 104 147 188 236 305 359 419
#     4  10  23  44  70 100 144 188 235 296 357 423
#     4  12  25  46  73 108 143 190 244 292 361 434
#     4  10  23  44  68 104 145 181 239 294 352 426
#
# _framework density 25.433354999999999
#
# number of rings (size 3 to 8) (size 9 to 14) (size 15 to 20)
#    0.000    1.500    2.500    0.750    7.000    8.000 
#    2.250    5.000    0.000    0.000    0.000    0.000 
#    0.000    0.000    0.000    0.000    0.000    0.000 
#
# Total GULP energy -44637.318838 kJ/mol
# GULP energy per Si atom -5579.664855 kJ/mol
# Density = 2.537547 g / cm^3
# Si number density = 25.433355 Si / 1000 Ang^3
#
#
#
# Elastic Constant Matrix: (Units=GPa)
#
#
# Indices 1 2 3 4 5 6 
#
# 1 151.4667 49.6003 38.3132 -7.7644 -19.4544 27.2890
# 2 49.6003 111.5279 31.3814 -13.0463 -14.5895 16.6736
# 3 38.3132 31.3814 85.6719 -10.7978 -10.9088 3.5591
# 4 -7.7644 -13.0463 -10.7978 34.0939 6.0433 -5.5482
# 5 -19.4544 -14.5895 -10.9088 6.0433 50.1818 -9.0709
# 6 27.2890 16.6736 3.5591 -5.5482 -9.0709 46.1258
#
#
#
# Elastic Compliance Matrix: (Units=1/GPa)
#
#
# Indices 1 2 3 4 5 6 
#
# 1 0.009020 -0.002497 -0.002851 -0.000724 0.001515 -0.004003
# 2 -0.002497 0.011538 -0.002563 0.002507 0.001172 -0.001964
# 3 -0.002851 -0.002563 0.014344 0.003030 0.001287 0.002124
# 4 -0.000724 0.002507 0.003030 0.031921 -0.002252 0.002685
# 5 0.001515 0.001172 0.001287 -0.002252 0.021879 0.002613
# 6 -0.004003 -0.001964 0.002124 0.002685 0.002613 0.025431
#
#
# Mechanical properties :
#
#
# Convention : Reuss Voigt Hill
#
# Bulk Modulus (GPa) = 52.41231 65.25072 58.83152
# Shear Modulus (GPa) = 36.67993 41.37172 39.02582
#
# Velocity S-wave (km/s) = 3.80175 4.03758 3.92144
# Velocity P-wave (km/s) = 6.31850 6.88820 6.60949
#
# Compressibility (1/GPa) = 0.01907949
#
# Stress axis : x y z
#
# Youngs Moduli (GPa) = 110.86941 86.66753 69.71683
#
# Poissons Ratio (x) = 0.21643 0.19877
# Poissons Ratio (y) = 0.27687 0.17867
# Poissons Ratio (z) = 0.31609 0.22211
#
# Static dielectric constant tensor:
#      x y z
#    x 1.973690 -0.031270 0.014090 
#    y -0.031270 2.179240 0.002930 
#    z 0.014090 0.002930 2.033730 
# 
# From -- ./inp_files/3043.got.cif
#   From: 2010.05.17/outbox.cif.g08.bks.cpg/sg1_2_cif.got.tgz:3043.got - 2010.05.17 20:27:59.
