data_PCOD9000211
_publ_section_title
;
Structure prediction by ZEFSAII (Michael W. Deem and Ramdas Pophale) SiO2 
 PCOD9000211
Probable space group: P 1
;
_chemical_formula_sum "Si O2"
_cell_formula_units_Z 8
_cell_length_a 5.415234
_cell_length_b 13.260289
_cell_length_c 10.170389
_cell_angle_alpha 30.004335
_cell_angle_beta 80.696834
_cell_angle_gamma 93.218581
_cell_volume 330.710537
_symmetry_space_group_name_H-M "P 1"
_symmetry_group_IT_number 1
_symmetry_cell_setting 'triclinic'
loop_
_space_group_symop_operation_xyz
x,y,z
loop_
_atom_site_type_symbol
_atom_site_label
_atom_site_fract_x
_atom_site_fract_y
_atom_site_fract_z
Si Si1 0.581430 0.542070 0.814180
Si Si2 0.636240 0.251282 0.900535
Si Si3 0.574626 0.485906 0.399665
Si Si4 0.842398 0.323490 0.346681
Si Si5 0.970036 0.957750 0.878281
Si Si6 0.405529 0.095475 0.464892
Si Si7 0.161030 0.730221 0.687807
Si Si8 0.098494 0.116532 0.968687
O O1 0.638376 0.419052 0.823310
O O2 0.379454 0.662486 0.667459
O O3 0.876591 0.691372 0.682358
O O4 0.420455 0.337445 0.156518
O O5 0.727402 0.396123 0.596224
O O6 0.323562 0.089673 0.074869
O O7 0.834785 0.127505 0.045569
O O8 0.619289 0.390456 0.365223
O O9 0.270225 0.360984 0.618596
O O10 0.703134 0.745870 0.102244
O O11 0.710723 0.160246 0.419311
O O12 0.929851 0.180012 0.601006
O O13 0.058665 0.548851 0.019176
O O14 0.207431 0.971474 0.741320
O O15 0.031598 0.957630 0.027966
O O16 0.315426 0.953911 0.501567
#
# Coordination Sequence:
#
# PCOD9000211 Si02
#       8
#     1   1   1   1   1   1   1   1
#     4  11  25  46  65  92 132 169 219 264 308 375
#     4  10  22  47  64  88 134 170 209 271 307 367
#     4  10  23  39  64  96 127 170 204 263 320 381
#     4  11  22  39  63  96 136 160 209 264 324 381
#     4  12  21  39  67  97 127 167 206 262 330 382
#     4  11  24  39  67  97 126 173 206 265 325 379
#     4  11  25  42  66  96 128 171 215 261 318 377
#     4  10  22  43  64  96 128 166 212 262 318 374
#
# _framework density 24.190341
#
# number of rings (size 3 to 8) (size 9 to 14) (size 15 to 20)
#    0.750    0.500    5.000    0.750    1.750    2.000 
#    4.500    0.000    0.000    0.000    0.000    0.000 
#    0.000    0.000    0.000    0.000    0.000    0.000 
#
# Total GULP energy -44683.913542 kJ/mol
# GULP energy per Si atom -5585.489193 kJ/mol
# Density = 2.413528 g / cm^3
# Si number density = 24.190341 Si / 1000 Ang^3
#
#
#
# Elastic Constant Matrix: (Units=GPa)
#
#
# Indices 1 2 3 4 5 6 
#
# 1 134.5409 38.6222 23.6965 -20.5341 2.2901 -2.0014
# 2 38.6222 126.7992 1.3333 -23.5027 -5.0298 8.3907
# 3 23.6965 1.3333 76.7419 -4.6827 -27.8203 6.4429
# 4 -20.5341 -23.5027 -4.6827 27.0274 8.0812 -10.6256
# 5 2.2901 -5.0298 -27.8203 8.0812 33.0072 -0.4119
# 6 -2.0014 8.3907 6.4429 -10.6256 -0.4119 40.3037
#
#
#
# Elastic Compliance Matrix: (Units=1/GPa)
#
#
# Indices 1 2 3 4 5 6 
#
# 1 0.010801 -0.002072 -0.006196 0.009633 -0.008591 0.004410
# 2 -0.002072 0.009815 0.001336 0.006614 0.001139 -0.000604
# 3 -0.006196 0.001336 0.022880 -0.008617 0.021949 -0.006291
# 4 0.009633 0.006614 -0.008617 0.061576 -0.021794 0.016490
# 5 -0.008591 0.001139 0.021949 -0.021794 0.054785 -0.009358
# 6 0.004410 -0.000604 -0.006291 0.016490 -0.009358 0.030414
#
#
# Mechanical properties :
#
#
# Convention : Reuss Voigt Hill
#
# Bulk Modulus (GPa) = 33.74623 51.70956 42.72790
# Shear Modulus (GPa) = 23.36333 38.36299 30.86316
#
# Velocity S-wave (km/s) = 3.11112 3.98663 3.57577
# Velocity P-wave (km/s) = 5.18517 6.52790 5.89489
#
# Compressibility (1/GPa) = 0.02963294
#
# Stress axis : x y z
#
# Youngs Moduli (GPa) = 92.58607 101.88934 43.70633
#
# Poissons Ratio (x) = 0.21109 0.27080
# Poissons Ratio (y) = 0.19181 -0.05841
# Poissons Ratio (z) = 0.57365 -0.13616
#
# Static dielectric constant tensor:
#      x y z
#    x 1.961750 0.006540 0.020750 
#    y 0.006540 1.913600 0.053520 
#    z 0.020750 0.053520 1.952460 
# 
# From -- ./inp_files/363.got.cif
#   From: 2010.05.17/outbox.cif.g08.bks.cpg/sg1_1_cif.got.tgz:363.got - 2010.05.17 20:27:59.
