data_PCOD9000035
_publ_section_title
;
Structure prediction by ZEFSAII (Michael W. Deem and Ramdas Pophale) SiO2 
 PCOD9000035
Probable space group: P 1
;
_chemical_formula_sum "Si O2"
_cell_formula_units_Z 8
_cell_length_a 7.895728
_cell_length_b 4.870609
_cell_length_c 8.672521
_cell_angle_alpha 81.999126
_cell_angle_beta 105.478197
_cell_angle_gamma 75.070999
_cell_volume 302.731476
_symmetry_space_group_name_H-M "P 1"
_symmetry_group_IT_number 1
_symmetry_cell_setting 'triclinic'
loop_
_space_group_symop_operation_xyz
x,y,z
loop_
_atom_site_type_symbol
_atom_site_label
_atom_site_fract_x
_atom_site_fract_y
_atom_site_fract_z
Si Si1 0.790040 0.564490 0.479320
Si Si2 0.308436 0.165253 0.541221
Si Si3 0.696848 0.622176 0.948066
Si Si4 0.746196 0.013465 0.660752
Si Si5 0.485083 0.951033 0.165811
Si Si6 0.010738 0.346097 0.238153
Si Si7 0.303924 0.626596 0.741786
Si Si8 0.247238 0.583069 0.067741
O O1 0.851715 0.809615 0.563206
O O2 0.592171 0.739509 0.343512
O O3 0.911041 0.438067 0.370000
O O4 0.783699 0.318898 0.620547
O O5 0.200721 0.124334 0.365201
O O6 0.265633 0.476416 0.589496
O O7 0.526837 0.074864 0.576536
O O8 0.259228 0.966222 0.674590
O O9 0.776002 0.814637 0.835447
O O10 0.526665 0.533199 0.838445
O O11 0.609834 0.838213 0.053006
O O12 0.851175 0.341470 0.079651
O O13 0.300186 0.873628 0.085658
O O14 0.427734 0.294675 0.158436
O O15 0.093530 0.571331 0.152139
O O16 0.209521 0.563450 0.878733
#
# Coordination Sequence:
#
# PCOD9000035 Si02
#       8
#     1   1   1   1   1   1   1   1
#     4  11  24  40  62  92 130 168 210 259 315 376
#     4  11  23  43  69  97 126 166 216 265 315 379
#     4   9  22  43  68  97 128 166 214 265 318 379
#     4  11  22  43  67  89 124 176 214 248 313 394
#     4  10  21  41  64  92 126 168 210 255 316 388
#     4  11  26  42  64 100 134 163 212 275 320 361
#     4  10  22  44  69  93 126 173 215 254 315 395
#     4  11  22  40  65  92 126 168 211 259 316 376
#
# _framework density 26.426061000000001
#
# number of rings (size 3 to 8) (size 9 to 14) (size 15 to 20)
#    0.000    1.500    0.000    6.000    0.000    6.000 
#    0.000   13.750    0.000    0.000    0.000    0.000 
#    0.000    0.000    0.000    0.000    0.000    0.000 
#
# Total GULP energy -44730.188633 kJ/mol
# GULP energy per Si atom -5591.273579 kJ/mol
# Density = 2.636591 g / cm^3
# Si number density = 26.426061 Si / 1000 Ang^3
#
#
#
# Elastic Constant Matrix: (Units=GPa)
#
#
# Indices 1 2 3 4 5 6 
#
# 1 85.3745 8.4859 39.3340 -9.6383 -8.9669 -7.4226
# 2 8.4859 82.3859 11.3232 2.7284 -3.1453 14.5280
# 3 39.3340 11.3232 117.1641 -5.0684 6.1561 4.5986
# 4 -9.6383 2.7284 -5.0684 32.0046 -7.3699 -4.8427
# 5 -8.9669 -3.1453 6.1561 -7.3699 64.9977 -0.2980
# 6 -7.4226 14.5280 4.5986 -4.8427 -0.2980 27.6229
#
#
#
# Elastic Compliance Matrix: (Units=1/GPa)
#
#
# Indices 1 2 3 4 5 6 
#
# 1 0.016133 -0.002329 -0.005400 0.006119 0.003353 0.007568
# 2 -0.002329 0.014039 -0.000381 -0.003250 -0.000013 -0.008516
# 3 -0.005400 -0.000381 0.010572 -0.000832 -0.001873 -0.003177
# 4 0.006119 -0.003250 -0.000832 0.035843 0.004875 0.009829
# 5 0.003353 -0.000013 -0.001873 0.004875 0.016588 0.002254
# 6 0.007568 -0.008516 -0.003177 0.009829 0.002254 0.044991
#
#
# Mechanical properties :
#
#
# Convention : Reuss Voigt Hill
#
# Bulk Modulus (GPa) = 40.77322 44.80119 42.78720
# Shear Modulus (GPa) = 30.75807 39.97715 35.36761
#
# Velocity S-wave (km/s) = 3.41534 3.89368 3.66233
# Velocity P-wave (km/s) = 5.56915 6.09956 5.84038
#
# Compressibility (1/GPa) = 0.02452590
#
# Stress axis : x y z
#
# Youngs Moduli (GPa) = 61.98378 71.23001 94.59197
#
# Poissons Ratio (x) = 0.16588 0.51076
# Poissons Ratio (y) = 0.14435 0.03600
# Poissons Ratio (z) = 0.33469 0.02711
#
# Static dielectric constant tensor:
#      x y z
#    x 2.121050 -0.097930 0.072280 
#    y -0.097930 2.016880 -0.023660 
#    z 0.072280 -0.023660 2.099420 
# 
# From -- ./inp_files/3449.got.cif
#   From: 2010.05.17/outbox.cif.g08.bks.cpg/sg1_2_cif.got.tgz:3449.got - 2010.05.17 20:27:59.
