data_PCOD9000307
_publ_section_title
;
Structure prediction by ZEFSAII (Michael W. Deem and Ramdas Pophale) SiO2 
 PCOD9000307
Probable space group: P 1
;
_chemical_formula_sum "Si O2"
_cell_formula_units_Z 8
_cell_length_a 7.466720
_cell_length_b 8.822788
_cell_length_c 11.333482
_cell_angle_alpha 151.311460
_cell_angle_beta 81.561846
_cell_angle_gamma 89.400301
_cell_volume 338.959097
_symmetry_space_group_name_H-M "P 1"
_symmetry_group_IT_number 1
_symmetry_cell_setting 'triclinic'
loop_
_space_group_symop_operation_xyz
x,y,z
loop_
_atom_site_type_symbol
_atom_site_label
_atom_site_fract_x
_atom_site_fract_y
_atom_site_fract_z
Si Si1 0.118530 0.176040 0.007050
Si Si2 0.885029 0.079703 0.270844
Si Si3 0.354914 0.229563 0.660410
Si Si4 0.110815 0.533025 0.680772
Si Si5 0.456934 0.490542 0.196911
Si Si6 0.687435 0.206733 0.763890
Si Si7 0.983831 0.482081 0.982618
Si Si8 0.733095 0.491024 0.372795
O O1 0.307546 0.284642 0.068000
O O2 0.959954 0.351578 0.237549
O O3 0.006966 0.321978 0.998772
O O4 0.161530 0.785691 0.756220
O O5 0.013215 0.294291 0.459178
O O6 0.712536 0.347852 0.405645
O O7 0.974456 0.788145 0.963911
O O8 0.853626 0.851653 0.225330
O O9 0.285379 0.313204 0.591507
O O10 0.557054 0.257072 0.696934
O O11 0.192853 0.483731 0.926711
O O12 0.346375 0.878786 0.474056
O O13 0.603053 0.375526 0.212090
O O14 0.578953 0.466577 0.049979
O O15 0.893143 0.247998 0.753505
O O16 0.691457 0.871524 0.602948
#
# Coordination Sequence:
#
# PCOD9000307 Si02
#       8
#     1   1   1   1   1   1   1   1
#     4  11  21  40  69  91 126 173 213 261 325 380
#     4  10  23  42  66  96 128 169 215 267 319 382
#     4  10  23  41  64  91 132 167 214 267 317 382
#     4  10  23  42  66  96 128 169 215 267 319 382
#     4  11  22  39  64  95 128 166 216 264 317 382
#     4  11  22  39  64  95 128 166 216 264 317 382
#     4  11  21  40  69  91 126 173 213 261 325 380
#     4  10  23  41  64  91 132 167 214 267 317 382
#
# _framework density 23.601668
#
# number of rings (size 3 to 8) (size 9 to 14) (size 15 to 20)
#    0.000    1.500    2.500    2.250    3.500    3.000 
#    0.000    1.250    0.000    0.000    0.000    0.000 
#    0.000    0.000    0.000    0.000    0.000    0.000 
#
# Total GULP energy -44631.885484 kJ/mol
# GULP energy per Si atom -5578.985686 kJ/mol
# Density = 2.354795 g / cm^3
# Si number density = 23.601668 Si / 1000 Ang^3
#
#
#
# Elastic Constant Matrix: (Units=GPa)
#
#
# Indices 1 2 3 4 5 6 
#
# 1 120.2283 48.2251 34.2328 2.5234 28.4525 -20.3689
# 2 48.2251 169.2143 34.5739 25.0935 26.4697 -39.7830
# 3 34.2328 34.5739 65.8971 3.9096 22.7403 -10.7290
# 4 2.5234 25.0935 3.9096 34.8629 4.5790 3.1110
# 5 28.4525 26.4697 22.7403 4.5790 45.3366 -4.4273
# 6 -20.3689 -39.7830 -10.7290 3.1110 -4.4273 36.4373
#
#
#
# Elastic Compliance Matrix: (Units=1/GPa)
#
#
# Indices 1 2 3 4 5 6 
#
# 1 0.011351 -0.001119 -0.003181 0.000624 -0.004589 0.003576
# 2 -0.001119 0.010843 -0.001867 -0.008131 -0.002795 0.011018
# 3 -0.003181 -0.001867 0.020454 0.000087 -0.007051 0.001342
# 4 0.000624 -0.008131 0.000087 0.035569 -0.000412 -0.011590
# 5 -0.004589 -0.002795 -0.007051 -0.000412 0.029752 -0.004042
# 6 0.003576 0.011018 0.001342 -0.011590 -0.004042 0.042367
#
#
# Mechanical properties :
#
#
# Convention : Reuss Voigt Hill
#
# Bulk Modulus (GPa) = 32.98802 65.48925 49.23864
# Shear Modulus (GPa) = 28.93941 39.21456 34.07698
#
# Velocity S-wave (km/s) = 3.50545 4.08059 3.80391
# Velocity P-wave (km/s) = 5.51286 7.07175 6.34040
#
# Compressibility (1/GPa) = 0.03031403
#
# Stress axis : x y z
#
# Youngs Moduli (GPa) = 88.10046 92.22155 48.89119
#
# Poissons Ratio (x) = 0.10320 0.15551
# Poissons Ratio (y) = 0.09859 0.09128
# Poissons Ratio (z) = 0.28023 0.17218
#
# Static dielectric constant tensor:
#      x y z
#    x 1.869650 0.040310 -0.045600 
#    y 0.040310 1.998050 -0.027050 
#    z -0.045600 -0.027050 1.949760 
# 
# From -- ./inp_files/6503.got.cif
#   From: 2010.05.17/outbox.cif.g08.bks.cpg/sg1_4_cif.got.tgz:6503.got - 2010.05.17 20:27:59.
