data_PCOD9000604
_publ_section_title
;
Structure prediction by ZEFSAII (Michael W. Deem and Ramdas Pophale) SiO2 
 PCOD9000604
Probable space group: P 1
;
_chemical_formula_sum "Si O2"
_cell_formula_units_Z 8
_cell_length_a 5.006878
_cell_length_b 10.484041
_cell_length_c 8.035721
_cell_angle_alpha 135.245743
_cell_angle_beta 84.085276
_cell_angle_gamma 90.568233
_cell_volume 294.196525
_symmetry_space_group_name_H-M "P 1"
_symmetry_group_IT_number 1
_symmetry_cell_setting 'triclinic'
loop_
_space_group_symop_operation_xyz
x,y,z
loop_
_atom_site_type_symbol
_atom_site_label
_atom_site_fract_x
_atom_site_fract_y
_atom_site_fract_z
Si Si1 0.933700 0.442430 0.169260
Si Si2 0.706692 0.002956 0.533103
Si Si3 0.953662 0.844193 0.672299
Si Si4 0.200694 0.649899 0.880248
Si Si5 0.434595 0.946512 0.945741
Si Si6 0.184099 0.329111 0.379891
Si Si7 0.640850 0.611938 0.073944
Si Si8 0.188644 0.201069 0.628927
O O1 0.996612 0.653093 0.394583
O O2 0.660663 0.483934 0.117541
O O3 0.974399 0.345991 0.255712
O O4 0.099264 0.322036 0.908532
O O5 0.010258 0.029052 0.485741
O O6 0.503231 0.147548 0.587913
O O7 0.764211 0.994896 0.718997
O O8 0.584071 0.815802 0.330344
O O9 0.733268 0.839296 0.829575
O O10 0.234237 0.910110 0.771487
O O11 0.277913 0.850027 0.014534
O O12 0.250689 0.535796 0.599371
O O13 0.420035 0.563193 0.914817
O O14 0.916366 0.630682 0.969328
O O15 0.408119 0.163807 0.173709
O O16 0.103614 0.283652 0.531474
#
# Coordination Sequence:
#
# PCOD9000604 Si02
#       8
#     1   1   1   1   1   1   1   1
#     4  11  26  50  76 111 157 200 251 318 375 454
#     4  11  24  47  75 107 151 201 254 311 380 452
#     4  11  25  48  76 111 153 203 254 313 382 448
#     4  12  26  49  76 114 156 195 261 311 378 453
#     4  12  26  48  77 115 151 201 257 313 378 457
#     4  12  27  50  81 115 154 204 252 319 382 455
#     4  11  25  48  76 106 153 208 242 318 383 446
#     4  12  27  48  75 117 149 198 259 313 382 451
#
# _framework density 27.192706999999999
#
# number of rings (size 3 to 8) (size 9 to 14) (size 15 to 20)
#    0.000    0.500    2.500    5.250    1.750    6.000 
#    2.250    0.000    0.000    0.000    0.000    0.000 
#    0.000    0.000    0.000    0.000    0.000    0.000 
#
# Total GULP energy -44697.743971 kJ/mol
# GULP energy per Si atom -5587.217996 kJ/mol
# Density = 2.713082 g / cm^3
# Si number density = 27.192707 Si / 1000 Ang^3
#
#
#
# Elastic Constant Matrix: (Units=GPa)
#
#
# Indices 1 2 3 4 5 6 
#
# 1 140.1425 27.6248 31.5044 -16.2587 0.4597 -12.2240
# 2 27.6248 137.1165 26.3905 -23.3700 10.6312 -43.2468
# 3 31.5044 26.3905 140.4517 -13.1624 -6.8590 -9.3774
# 4 -16.2587 -23.3700 -13.1624 45.1129 -12.4525 12.5122
# 5 0.4597 10.6312 -6.8590 -12.4525 31.6482 -5.9902
# 6 -12.2240 -43.2468 -9.3774 12.5122 -5.9902 43.2019
#
#
#
# Elastic Compliance Matrix: (Units=1/GPa)
#
#
# Indices 1 2 3 4 5 6 
#
# 1 0.007894 -0.000853 -0.001337 0.002070 0.000811 0.000602
# 2 -0.000853 0.011308 -0.001133 0.002069 -0.001315 0.010050
# 3 -0.001337 -0.001133 0.007971 0.002062 0.002944 0.000029
# 4 0.002070 0.002069 0.002062 0.028434 0.010206 -0.003715
# 5 0.000811 -0.001315 0.002944 0.010206 0.037008 0.001728
# 6 0.000602 0.010050 0.000029 -0.003715 0.001728 0.034700
#
#
# Mechanical properties :
#
#
# Convention : Reuss Voigt Hill
#
# Bulk Modulus (GPa) = 48.71315 65.41668 57.06492
# Shear Modulus (GPa) = 35.51049 46.13866 40.82458
#
# Velocity S-wave (km/s) = 3.61762 4.12361 3.87887
# Velocity P-wave (km/s) = 5.95000 6.83967 6.41029
#
# Compressibility (1/GPa) = 0.02052834
#
# Stress axis : x y z
#
# Youngs Moduli (GPa) = 126.67393 88.43686 125.44703
#
# Poissons Ratio (x) = 0.07546 0.16768
# Poissons Ratio (y) = 0.10809 0.14207
# Poissons Ratio (z) = 0.16932 0.10016
#
# Static dielectric constant tensor:
#      x y z
#    x 2.084710 0.045460 -0.027960 
#    y 0.045460 2.311890 0.025210 
#    z -0.027960 0.025210 2.138670 
# 
# From -- ./inp_files/3240.got.cif
#   From: 2010.05.17/outbox.cif.g08.bks.cpg/sg1_2_cif.got.tgz:3240.got - 2010.05.17 20:27:59.
