data_PCOD9000477
_publ_section_title
;
Structure prediction by ZEFSAII (Michael W. Deem and Ramdas Pophale) SiO2 
 PCOD9000477
Probable space group: P 1
;
_chemical_formula_sum "Si O2"
_cell_formula_units_Z 8
_cell_length_a 5.013333
_cell_length_b 11.194195
_cell_length_c 12.067507
_cell_angle_alpha 149.677176
_cell_angle_beta 90.090110
_cell_angle_gamma 87.410160
_cell_volume 340.623549
_symmetry_space_group_name_H-M "P 1"
_symmetry_group_IT_number 1
_symmetry_cell_setting 'triclinic'
loop_
_space_group_symop_operation_xyz
x,y,z
loop_
_atom_site_type_symbol
_atom_site_label
_atom_site_fract_x
_atom_site_fract_y
_atom_site_fract_z
Si Si1 0.071260 0.783690 0.000000
Si Si2 0.867176 0.966817 0.812544
Si Si3 0.999320 0.732702 0.408386
Si Si4 0.540335 0.127941 0.247303
Si Si5 0.617407 0.164303 0.775454
Si Si6 0.183998 0.289707 0.203998
Si Si7 0.843280 0.530066 0.595176
Si Si8 0.093978 0.489213 0.988572
O O1 0.304939 0.960524 0.136520
O O2 0.798789 0.952828 0.131216
O O3 0.023930 0.609268 0.758230
O O4 0.102593 0.629194 0.986865
O O5 0.059817 0.885463 0.641606
O O6 0.730146 0.753239 0.699032
O O7 0.650586 0.146797 0.895029
O O8 0.058788 0.057467 0.976511
O O9 0.087597 0.476013 0.257556
O O10 0.708311 0.890655 0.517771
O O11 0.102346 0.679558 0.241962
O O12 0.482717 0.224146 0.197761
O O13 0.611486 0.367533 0.501686
O O14 0.829239 0.347150 0.883866
O O15 0.334297 0.282606 0.833262
O O16 0.036540 0.388590 0.394020
#
# Coordination Sequence:
#
# PCOD9000477 Si02
#       8
#     1   1   1   1   1   1   1   1
#     4  12  29  47  74 107 149 199 258 301 366 448
#     4   9  20  46  72 116 145 191 243 308 379 458
#     4   9  22  43  76 106 144 192 239 304 382 435
#     4  12  26  48  72 111 148 196 248 312 367 449
#     4  10  25  45  72 108 146 191 253 307 370 450
#     4  11  21  47  72 111 150 187 242 308 379 449
#     4  11  24  45  76 107 150 191 242 307 382 431
#     4  12  25  51  70 104 150 199 253 309 363 446
#
# _framework density 23.486339000000001
#
# number of rings (size 3 to 8) (size 9 to 14) (size 15 to 20)
#    0.750    0.500    3.750    0.750    1.750    5.000 
#    2.250    0.000    0.000    0.000    0.000    0.000 
#    0.000    0.000    0.000    0.000    0.000    0.000 
#
# Total GULP energy -44564.231731 kJ/mol
# GULP energy per Si atom -5570.528966 kJ/mol
# Density = 2.343288 g / cm^3
# Si number density = 23.486339 Si / 1000 Ang^3
#
#
#
# Elastic Constant Matrix: (Units=GPa)
#
#
# Indices 1 2 3 4 5 6 
#
# 1 121.9950 51.0264 40.0479 6.8246 17.1995 -13.5501
# 2 51.0264 178.2390 70.2154 -12.8054 -7.0580 -0.0306
# 3 40.0479 70.2154 96.6552 -2.4181 10.1801 3.0328
# 4 6.8246 -12.8054 -2.4181 27.2399 -5.0094 -7.3426
# 5 17.1995 -7.0580 10.1801 -5.0094 30.8423 12.3504
# 6 -13.5501 -0.0306 3.0328 -7.3426 12.3504 36.3862
#
#
#
# Elastic Compliance Matrix: (Units=1/GPa)
#
#
# Indices 1 2 3 4 5 6 
#
# 1 0.013291 -0.003958 -0.001773 -0.005358 -0.011816 0.008023
# 2 -0.003958 0.009994 -0.006294 0.005999 0.008608 -0.002652
# 3 -0.001773 -0.006294 0.016242 -0.002297 -0.006008 -0.000444
# 4 -0.005358 0.005999 -0.002297 0.043559 0.010872 0.003301
# 5 -0.011816 0.008608 -0.006008 0.010872 0.052554 -0.019536
# 6 0.008023 -0.002652 -0.000444 0.003301 -0.019536 0.037803
#
#
# Mechanical properties :
#
#
# Convention : Reuss Voigt Hill
#
# Bulk Modulus (GPa) = 64.60809 79.94097 72.27453
# Shear Modulus (GPa) = 24.67274 34.60031 29.63653
#
# Velocity S-wave (km/s) = 3.24468 3.84241 3.55612
# Velocity P-wave (km/s) = 6.45025 7.33461 6.90660
#
# Compressibility (1/GPa) = 0.01547794
#
# Stress axis : x y z
#
# Youngs Moduli (GPa) = 75.23661 100.05644 61.56832
#
# Poissons Ratio (x) = 0.39603 0.10917
# Poissons Ratio (y) = 0.29779 0.38750
# Poissons Ratio (z) = 0.13341 0.62974
#
# Static dielectric constant tensor:
#      x y z
#    x 1.995940 0.004080 -0.026670 
#    y 0.004080 1.872500 0.046190 
#    z -0.026670 0.046190 1.994720 
# 
# From -- ./inp_files/6120.got.cif
#   From: 2010.05.17/outbox.cif.g08.bks.cpg/sg1_4_cif.got.tgz:6120.got - 2010.05.17 20:27:59.
