data_PCOD9000406
_publ_section_title
;
Structure prediction by ZEFSAII (Michael W. Deem and Ramdas Pophale) SiO2 
 PCOD9000406
Probable space group: P 1
;
_chemical_formula_sum "Si O2"
_cell_formula_units_Z 6
_cell_length_a 4.857579
_cell_length_b 5.591018
_cell_length_c 9.600437
_cell_angle_alpha 108.893920
_cell_angle_beta 74.263544
_cell_angle_gamma 82.550953
_cell_volume 230.572242
_symmetry_space_group_name_H-M "P 1"
_symmetry_group_IT_number 1
_symmetry_cell_setting 'triclinic'
loop_
_space_group_symop_operation_xyz
x,y,z
loop_
_atom_site_type_symbol
_atom_site_label
_atom_site_fract_x
_atom_site_fract_y
_atom_site_fract_z
Si Si1 0.821990 0.840280 0.766220
Si Si2 0.805119 0.918925 0.336178
Si Si3 0.831426 0.119987 0.089655
Si Si4 0.228086 0.186450 0.820028
Si Si5 0.353946 0.426978 0.597788
Si Si6 0.383600 0.592783 0.325538
O O1 0.998606 0.550862 0.647722
O O2 0.498171 0.944289 0.773775
O O3 0.010127 0.050944 0.734337
O O4 0.814535 0.887163 0.942581
O O5 0.600452 0.753113 0.262993
O O6 0.053730 0.740989 0.363356
O O7 0.950550 0.037209 0.210607
O O8 0.563649 0.142144 0.488811
O O9 0.509471 0.306253 0.193484
O O10 0.042970 0.264386 0.000631
O O11 0.340492 0.408452 0.764920
O O12 0.450967 0.572771 0.478579
#
# Coordination Sequence:
#
# PCOD9000406 Si02
#       6
#     1   1   1   1   1   1
#     4  10  24  40  65  97 124 162 208 258 315 364
#     4  11  26  43  65  92 128 168 209 255 310 374
#     4   9  26  40  68  93 126 164 210 257 316 362
#     4  10  24  40  65  97 124 162 208 258 315 364
#     4  11  24  44  66  93 128 166 210 257 312 372
#     4  11  26  43  65  92 128 168 209 255 310 374
#
# _framework density 26.022210999999999
#
# number of rings (size 3 to 8) (size 9 to 14) (size 15 to 20)
#    1.000    0.667    0.000    2.000    7.000    8.000 
#    0.000    0.000    0.000    0.000    0.000    0.000 
#    0.000    0.000    0.000    0.000    0.000    0.000 
#
# Total GULP energy -33408.611313 kJ/mol
# GULP energy per Si atom -5568.101885 kJ/mol
# Density = 2.596298 g / cm^3
# Si number density = 26.022211 Si / 1000 Ang^3
#
#
#
# Elastic Constant Matrix: (Units=GPa)
#
#
# Indices 1 2 3 4 5 6 
#
# 1 89.6187 30.9011 24.5752 11.3486 -23.4135 -16.8506
# 2 30.9011 119.2237 67.8181 -2.5391 -20.5888 -36.3045
# 3 24.5752 67.8181 159.4228 -5.2539 -15.4715 -16.4447
# 4 11.3486 -2.5391 -5.2539 57.7756 -5.6749 -10.2407
# 5 -23.4135 -20.5888 -15.4715 -5.6749 30.3716 5.7631
# 6 -16.8506 -36.3045 -16.4447 -10.2407 5.7631 40.6559
#
#
#
# Elastic Compliance Matrix: (Units=1/GPa)
#
#
# Indices 1 2 3 4 5 6 
#
# 1 0.015011 -0.000756 -0.000734 -0.001471 0.009747 0.003497
# 2 -0.000756 0.016121 -0.004790 0.003170 0.006209 0.012063
# 3 -0.000734 -0.004790 0.008400 0.000571 0.000791 -0.001152
# 4 -0.001471 0.003170 0.000571 0.019352 0.003629 0.006812
# 5 0.009747 0.006209 0.000791 0.003629 0.044884 0.004456
# 6 0.003497 0.012063 -0.001152 0.006812 0.004456 0.037436
#
#
# Mechanical properties :
#
#
# Convention : Reuss Voigt Hill
#
# Bulk Modulus (GPa) = 37.07639 68.31711 52.69675
# Shear Modulus (GPa) = 30.72081 42.09202 36.40641
#
# Velocity S-wave (km/s) = 3.43966 4.02623 3.74445
# Velocity P-wave (km/s) = 5.48214 6.92275 6.24413
#
# Compressibility (1/GPa) = 0.02697134
#
# Stress axis : x y z
#
# Youngs Moduli (GPa) = 66.61924 62.02950 119.04416
#
# Poissons Ratio (x) = 0.04691 0.08739
# Poissons Ratio (y) = 0.05039 0.57023
# Poissons Ratio (z) = 0.04890 0.29713
#
# Static dielectric constant tensor:
#      x y z
#    x 2.013580 0.069580 0.029600 
#    y 0.069580 2.048650 0.011980 
#    z 0.029600 0.011980 2.018040 
# 
# From -- ./inp_files/222.got.cif
#   From: 2010.05.17/outbox.cif.g08.bks.cpg/sg1_1_cif.got.tgz:222.got - 2010.05.17 20:27:59.
