data_PCOD9000794
_publ_section_title
;
Structure prediction by ZEFSAII (Michael W. Deem and Ramdas Pophale) SiO2 
 PCOD9000794
Probable space group: P 1
;
_chemical_formula_sum "Si O2"
_cell_formula_units_Z 8
_cell_length_a 7.876448
_cell_length_b 8.513515
_cell_length_c 5.546015
_cell_angle_alpha 87.924861
_cell_angle_beta 60.598357
_cell_angle_gamma 74.113620
_cell_volume 309.474163
_symmetry_space_group_name_H-M "P 1"
_symmetry_group_IT_number 1
_symmetry_cell_setting 'triclinic'
loop_
_space_group_symop_operation_xyz
x,y,z
loop_
_atom_site_type_symbol
_atom_site_label
_atom_site_fract_x
_atom_site_fract_y
_atom_site_fract_z
Si Si1 0.313670 0.403340 0.205970
Si Si2 0.891843 0.176556 0.287851
Si Si3 0.466680 0.385187 0.603081
Si Si4 0.941431 0.934076 0.648758
Si Si5 0.462416 0.666469 0.898671
Si Si6 0.668952 0.924829 0.230641
Si Si7 0.890411 0.641888 0.411261
Si Si8 0.252248 0.978480 0.787463
O O1 0.359302 0.335348 0.447952
O O2 0.076404 0.475836 0.295833
O O3 0.429032 0.307464 0.894019
O O4 0.407889 0.558428 0.150964
O O5 0.709727 0.342270 0.392920
O O6 0.952464 0.104405 0.514971
O O7 0.771254 0.047523 0.291047
O O8 0.094642 0.144585 0.991202
O O9 0.391928 0.575921 0.722937
O O10 0.981888 0.779854 0.454408
O O11 0.103088 0.898617 0.750575
O O12 0.720684 0.952746 0.918961
O O13 0.702816 0.631565 0.706957
O O14 0.348913 0.857830 0.948853
O O15 0.783634 0.735713 0.238757
O O16 0.440081 0.970262 0.482510
#
# Coordination Sequence:
#
# PCOD9000794 Si02
#       8
#     1   1   1   1   1   1   1   1
#     4  10  22  41  60  90 120 167 198 251 304 359
#     4  10  22  40  58  84 123 161 202 250 306 364
#     4  10  24  42  64  84 130 161 206 249 306 357
#     4  10  20  33  64  85 124 155 203 251 309 356
#     4   9  21  37  61  93 120 158 200 254 299 368
#     4   9  21  36  60  92 119 154 204 256 304 367
#     4  10  20  37  60  93 119 157 202 253 309 361
#     4  10  20  38  61  91 119 157 203 252 311 362
#
# _framework density 25.850301000000002
#
# number of rings (size 3 to 8) (size 9 to 14) (size 15 to 20)
#    0.750    1.500    0.000    3.000    5.250    6.000 
#    2.250    1.250    0.000    0.000    0.000    0.000 
#    0.000    0.000    0.000    0.000    0.000    0.000 
#
# Total GULP energy -44633.514422 kJ/mol
# GULP energy per Si atom -5579.189303 kJ/mol
# Density = 2.579146 g / cm^3
# Si number density = 25.850301 Si / 1000 Ang^3
#
#
#
# Elastic Constant Matrix: (Units=GPa)
#
#
# Indices 1 2 3 4 5 6 
#
# 1 87.7715 16.6261 45.4703 4.1465 -19.4789 -11.4827
# 2 16.6261 51.8440 6.8140 10.0028 2.6221 -19.4978
# 3 45.4703 6.8140 137.5200 -1.0484 -10.9466 -22.7093
# 4 4.1465 10.0028 -1.0484 26.8208 1.5866 -14.9738
# 5 -19.4789 2.6221 -10.9466 1.5866 48.4756 2.6574
# 6 -11.4827 -19.4978 -22.7093 -14.9738 2.6574 37.7946
#
#
#
# Elastic Compliance Matrix: (Units=1/GPa)
#
#
# Indices 1 2 3 4 5 6 
#
# 1 0.016051 -0.005123 -0.004945 -0.002242 0.005795 -0.002033
# 2 -0.005123 0.025928 0.002235 -0.001395 -0.003616 0.012864
# 3 -0.004945 0.002235 0.010039 0.004539 -0.000401 0.007509
# 4 -0.002242 -0.001395 0.004539 0.050498 -0.002633 0.021519
# 5 0.005795 -0.003616 -0.000401 -0.002633 0.023315 -0.003028
# 6 -0.002033 0.012864 0.007509 0.021519 -0.003028 0.045728
#
#
# Mechanical properties :
#
#
# Convention : Reuss Voigt Hill
#
# Bulk Modulus (GPa) = 27.50878 46.10627 36.80753
# Shear Modulus (GPa) = 25.08257 36.49987 30.79122
#
# Velocity S-wave (km/s) = 3.11834 3.76170 3.45503
# Velocity P-wave (km/s) = 4.86108 6.06150 5.49417
#
# Compressibility (1/GPa) = 0.03635203
#
# Stress axis : x y z
#
# Youngs Moduli (GPa) = 62.29961 38.56877 99.61490
#
# Poissons Ratio (x) = 0.19758 0.49260
# Poissons Ratio (y) = 0.31915 -0.22264
# Poissons Ratio (z) = 0.30807 -0.08620
#
# Static dielectric constant tensor:
#      x y z
#    x 2.028930 0.011000 0.035660 
#    y 0.011000 2.111400 -0.002020 
#    z 0.035660 -0.002020 2.065520 
# 
# From -- ./inp_files/1564.got.cif
#   From: 2010.05.17/outbox.cif.g08.bks.cpg/sg1_1_cif.got.tgz:1564.got - 2010.05.17 20:27:59.
