data_PCOD9000986
_publ_section_title
;
Structure prediction by ZEFSAII (Michael W. Deem and Ramdas Pophale) SiO2 
 PCOD9000986
Probable space group: P -1
;
_chemical_formula_sum "Si O2"
_cell_formula_units_Z 16
_cell_length_a 12.008479
_cell_length_b 21.580612
_cell_length_c 9.470417
_cell_angle_alpha 39.157691
_cell_angle_beta 143.866667
_cell_angle_gamma 156.177606
_cell_volume 577.593159
_symmetry_space_group_name_H-M "P -1"
_symmetry_group_IT_number 2
_symmetry_cell_setting 'triclinic'
loop_
_space_group_symop_operation_xyz
x,y,z
-x,-y,-z
loop_
_atom_site_type_symbol
_atom_site_label
_atom_site_fract_x
_atom_site_fract_y
_atom_site_fract_z
Si Si1 0.661712 0.712657 0.303468
Si Si2 0.725895 0.175333 0.964884
Si Si3 0.623677 0.496172 0.354394
Si Si4 0.248604 0.878611 0.614845
Si Si5 0.836256 0.345632 0.527010
Si Si6 0.323420 0.282942 0.144111
Si Si7 0.640799 0.885397 0.830353
Si Si8 0.814529 0.942655 0.270237
O O1 0.476256 0.571116 0.471305
O O2 0.933225 0.764255 0.414674
O O3 0.809297 0.852883 0.313936
O O4 0.503149 0.722091 0.013220
O O5 0.880524 0.274587 0.808081
O O6 0.521592 0.180903 0.802030
O O7 0.870050 0.195043 0.220066
O O8 0.500000 0.000000 0.000000
O O9 0.427016 0.358336 0.275163
O O10 0.967793 0.601542 0.500345
O O11 0.598905 0.597499 0.093364
O O12 0.477986 0.888918 0.777402
O O13 0.396159 0.046055 0.452125
O O14 0.507628 0.258951 0.332164
O O15 0.000000 0.500000 0.500000
O O16 0.981786 0.108161 0.094094
O O17 0.000000 0.000000 0.000000
O O18 0.000000 0.000000 0.500000
#
# Coordination Sequence:
#
# PCOD9000986 Si02
#       8
#     2   2   2   2   2   2   2   2
#     4  11  21  35  61  85 115 152 194 245 292 342
#     4  12  23  34  57  90 126 159 190 235 292 358
#     4  10  21  34  51  78 115 159 201 232 273 345
#     4  10  22  36  59  89 118 148 197 244 294 345
#     4  10  21  35  49  75 121 160 195 227 274 344
#     4  10  21  33  48  72 118 162 192 230 276 343
#     4   9  20  41  60  85 114 148 196 254 296 331
#     4  12  19  34  50  81 121 159 192 229 290 348
#
# _framework density 27.701159000000001
#
# number of rings (size 3 to 8) (size 9 to 14) (size 15 to 20)
#    0.000    1.500    3.750    2.250    5.250    0.000 
#    0.000    0.000    0.000    0.000    0.000   13.125 
#    0.000    0.625    0.000    0.000    0.000    0.000 
#
# Total GULP energy -89407.387585 kJ/mol
# GULP energy per Si atom -5587.961724 kJ/mol
# Density = 2.763811 g / cm^3
# Si number density = 27.701159 Si / 1000 Ang^3
#
#
#
# Elastic Constant Matrix: (Units=GPa)
#
#
# Indices 1 2 3 4 5 6 
#
# 1 126.3107 33.4063 46.5702 -2.3058 14.5906 19.5542
# 2 33.4063 85.8607 39.5179 -26.6251 6.3934 13.7923
# 3 46.5702 39.5179 186.4278 -25.2721 0.5497 18.1976
# 4 -2.3058 -26.6251 -25.2721 60.5936 12.0934 3.0239
# 5 14.5906 6.3934 0.5497 12.0934 61.4651 -0.0549
# 6 19.5542 13.7923 18.1976 3.0239 -0.0549 53.8616
#
#
#
# Elastic Compliance Matrix: (Units=1/GPa)
#
#
# Indices 1 2 3 4 5 6 
#
# 1 0.009866 -0.002897 -0.001793 -0.001179 -0.001795 -0.002170
# 2 -0.002897 0.016308 -0.001472 0.007069 -0.002389 -0.003026
# 3 -0.001793 -0.001472 0.006528 0.002049 0.000116 -0.001292
# 4 -0.001179 0.007069 0.002049 0.021524 -0.004712 -0.003288
# 5 -0.001795 -0.002389 0.000116 -0.004712 0.017871 0.001507
# 6 -0.002170 -0.003026 -0.001292 -0.003288 0.001507 0.020751
#
#
# Mechanical properties :
#
#
# Convention : Reuss Voigt Hill
#
# Bulk Modulus (GPa) = 49.07629 70.84309 59.95969
# Shear Modulus (GPa) = 44.65719 53.79106 49.22413
#
# Velocity S-wave (km/s) = 4.01946 4.41141 4.21999
# Velocity P-wave (km/s) = 6.26867 7.18171 6.74066
#
# Compressibility (1/GPa) = 0.02037644
#
# Stress axis : x y z
#
# Youngs Moduli (GPa) = 101.35894 61.32116 153.19611
#
# Poissons Ratio (x) = 0.17762 0.27472
# Poissons Ratio (y) = 0.29360 0.22558
# Poissons Ratio (z) = 0.18176 0.09030
#
# Static dielectric constant tensor:
#      x y z
#    x 2.324530 -0.057100 -0.110660 
#    y -0.057100 2.168140 -0.034950 
#    z -0.110660 -0.034950 2.159690 
# 
# From -- ./inp_files/458376.got.cif
#   From: 2010.05.17/outbox.cif.g08.bks.cpg/sg2_230_cif.got.tgz:458376.got - 2010.06.03 11:33:40.
