data_PCOD9000099
_publ_section_title
;
Structure prediction by ZEFSAII (Michael W. Deem and Ramdas Pophale) SiO2 
 PCOD9000099
Probable space group: P 1
;
_chemical_formula_sum "Si O2"
_cell_formula_units_Z 8
_cell_length_a 5.127848
_cell_length_b 7.311726
_cell_length_c 9.255500
_cell_angle_alpha 80.442531
_cell_angle_beta 91.905725
_cell_angle_gamma 67.649596
_cell_volume 314.723022
_symmetry_space_group_name_H-M "P 1"
_symmetry_group_IT_number 1
_symmetry_cell_setting 'triclinic'
loop_
_space_group_symop_operation_xyz
x,y,z
loop_
_atom_site_type_symbol
_atom_site_label
_atom_site_fract_x
_atom_site_fract_y
_atom_site_fract_z
Si Si1 0.358600 0.892330 0.113580
Si Si2 0.383324 0.680656 0.849373
Si Si3 0.702976 0.724763 0.395951
Si Si4 0.527025 0.173906 0.736861
Si Si5 0.499085 0.264874 0.032956
Si Si6 0.267522 0.936071 0.571966
Si Si7 0.874007 0.432943 0.671078
Si Si8 0.895342 0.068051 0.300757
O O1 0.621643 0.729995 0.227606
O O2 0.341636 0.495197 0.951669
O O3 0.086492 0.916076 0.199806
O O4 0.342874 0.120432 0.095453
O O5 0.677199 0.574377 0.777214
O O6 0.382212 0.826325 0.959340
O O7 0.160924 0.823567 0.708883
O O8 0.919792 0.543107 0.513158
O O9 0.427030 0.759829 0.484073
O O10 0.742828 0.933807 0.386259
O O11 0.658444 0.145778 0.905446
O O12 0.479543 0.010014 0.655782
O O13 0.702469 0.291018 0.650941
O O14 0.192954 0.307743 0.744730
O O15 0.692718 0.253014 0.177892
O O16 0.070339 0.101224 0.433804
#
# Coordination Sequence:
#
# PCOD9000099 Si02
#       8
#     1   1   1   1   1   1   1   1
#     4  10  21  44  66  97 139 185 224 284 346 411
#     4  10  22  43  68 100 131 182 232 284 344 407
#     4   9  22  43  64  98 139 181 230 283 344 413
#     4  11  24  43  72 104 140 178 231 291 342 407
#     4  10  23  42  64 102 138 174 228 286 339 411
#     4  10  22  43  72  97 133 184 232 283 350 405
#     4  10  25  43  69 105 141 175 234 292 338 409
#     4  10  23  43  69  95 143 183 227 285 345 413
#
# _framework density 25.419177000000001
#
# number of rings (size 3 to 8) (size 9 to 14) (size 15 to 20)
#    0.000    2.000    1.250    0.000   12.250    1.000 
#   13.500    0.000    0.000    0.000    0.000    0.000 
#    0.000    0.000    0.000    0.000    0.000    0.000 
#
# Total GULP energy -44558.954468 kJ/mol
# GULP energy per Si atom -5569.869309 kJ/mol
# Density = 2.536132 g / cm^3
# Si number density = 25.419177 Si / 1000 Ang^3
#
#
#
# Elastic Constant Matrix: (Units=GPa)
#
#
# Indices 1 2 3 4 5 6 
#
# 1 68.1187 18.8196 33.1326 -8.9737 4.5636 7.4453
# 2 18.8196 85.1050 47.0836 -10.2800 13.7167 15.1658
# 3 33.1326 47.0836 197.4477 -25.2560 13.8290 6.1794
# 4 -8.9737 -10.2800 -25.2560 33.5659 -1.4490 -13.7690
# 5 4.5636 13.7167 13.8290 -1.4490 33.3730 4.7877
# 6 7.4453 15.1658 6.1794 -13.7690 4.7877 28.9056
#
#
#
# Elastic Compliance Matrix: (Units=1/GPa)
#
#
# Indices 1 2 3 4 5 6 
#
# 1 0.016659 -0.001954 -0.002063 0.001430 -0.000257 -0.002101
# 2 -0.001954 0.015594 -0.003029 -0.001009 -0.003947 -0.006858
# 3 -0.002063 -0.003029 0.006762 0.004877 -0.001530 0.003251
# 4 0.001430 -0.001009 0.004877 0.041315 -0.002771 0.019257
# 5 -0.000257 -0.003947 -0.001530 -0.002771 0.032749 -0.004280
# 6 -0.002101 -0.006858 0.003251 0.019257 -0.004280 0.047921
#
#
# Mechanical properties :
#
#
# Convention : Reuss Voigt Hill
#
# Bulk Modulus (GPa) = 40.12192 60.97144 50.54668
# Shear Modulus (GPa) = 27.26285 35.94461 31.60373
#
# Velocity S-wave (km/s) = 3.27850 3.76450 3.52988
# Velocity P-wave (km/s) = 5.49089 6.55238 6.04498
#
# Compressibility (1/GPa) = 0.02492403
#
# Stress axis : x y z
#
# Youngs Moduli (GPa) = 60.02888 64.12603 147.88146
#
# Poissons Ratio (x) = 0.12531 0.30504
# Poissons Ratio (y) = 0.11730 0.44789
# Poissons Ratio (z) = 0.12382 0.19422
#
# Static dielectric constant tensor:
#      x y z
#    x 2.127220 -0.025830 0.060360 
#    y -0.025830 2.170840 -0.063900 
#    z 0.060360 -0.063900 2.049460 
# 
# From -- ./inp_files/1041.got.cif
#   From: 2010.05.17/outbox.cif.g08.bks.cpg/sg1_1_cif.got.tgz:1041.got - 2010.05.17 20:27:59.
