data_PCOD9000809
_publ_section_title
;
Structure prediction by ZEFSAII (Michael W. Deem and Ramdas Pophale) SiO2 
 PCOD9000809
Probable space group: P 1
;
_chemical_formula_sum "Si O2"
_cell_formula_units_Z 8
_cell_length_a 9.432361
_cell_length_b 7.004638
_cell_length_c 7.180370
_cell_angle_alpha 62.212899
_cell_angle_beta 75.946889
_cell_angle_gamma 110.701987
_cell_volume 341.675119
_symmetry_space_group_name_H-M "P 1"
_symmetry_group_IT_number 1
_symmetry_cell_setting 'triclinic'
loop_
_space_group_symop_operation_xyz
x,y,z
loop_
_atom_site_type_symbol
_atom_site_label
_atom_site_fract_x
_atom_site_fract_y
_atom_site_fract_z
Si Si1 0.459150 0.505440 0.970540
Si Si2 0.382466 0.828508 0.323192
Si Si3 0.452803 0.438693 0.568343
Si Si4 0.388813 0.895255 0.725390
Si Si5 0.127643 0.992729 0.388487
Si Si6 0.997314 0.639176 0.943458
Si Si7 0.713972 0.341220 0.905245
Si Si8 0.844302 0.694772 0.350275
O O1 0.410869 0.425186 0.805597
O O2 0.627222 0.490849 0.952785
O O3 0.355302 0.552584 0.441975
O O4 0.291649 0.279105 0.231283
O O5 0.430747 0.908762 0.488135
O O6 0.214394 0.843100 0.340948
O O7 0.486313 0.781363 0.851757
O O8 0.549966 0.054843 0.062449
O O9 0.420807 0.166974 0.646866
O O10 0.658655 0.652739 0.386309
O O11 0.182960 0.681208 0.907423
O O12 0.045017 0.861779 0.672506
O O13 0.982959 0.948116 0.306517
O O14 0.858656 0.385832 0.987215
O O15 0.920808 0.666973 0.146866
O O16 0.796598 0.472169 0.621227
#
# Coordination Sequence:
#
# PCOD9000809 Si02
#       8
#     1   1   1   1   1   1   1   1
#     4   9  19  38  60  82 115 152 190 240 285 333
#     4   9  19  38  60  82 115 152 190 240 285 333
#     4  10  20  36  60  85 113 153 194 234 285 342
#     4  10  20  36  60  85 113 153 194 234 285 342
#     4   9  19  38  60  83 115 151 188 238 289 333
#     4  10  20  36  57  85 118 149 189 235 285 346
#     4   9  19  38  60  83 115 151 188 238 289 333
#     4  10  20  36  57  85 118 149 189 235 285 346
#
# _framework density 23.414055000000001
#
# number of rings (size 3 to 8) (size 9 to 14) (size 15 to 20)
#    0.000    2.500    0.000    1.500    0.000    1.000 
#    0.000   27.500    0.000    0.000    0.000    0.000 
#    0.000    0.000    0.000    0.000    0.000    0.000 
#
# Total GULP energy -44687.944507 kJ/mol
# GULP energy per Si atom -5585.993063 kJ/mol
# Density = 2.336076 g / cm^3
# Si number density = 23.414055 Si / 1000 Ang^3
#
#
#
# Elastic Constant Matrix: (Units=GPa)
#
#
# Indices 1 2 3 4 5 6 
#
# 1 89.5891 41.5268 7.3486 -6.0559 9.0882 -15.0884
# 2 41.5268 79.1326 37.6412 9.4929 -10.2815 -20.4945
# 3 7.3486 37.6412 136.9405 8.2019 -25.7872 -1.2050
# 4 -6.0559 9.4929 8.2019 34.0863 1.8592 -0.5714
# 5 9.0882 -10.2815 -25.7872 1.8592 22.7252 -8.9957
# 6 -15.0884 -20.4945 -1.2050 -0.5714 -8.9957 35.6482
#
#
#
# Elastic Compliance Matrix: (Units=1/GPa)
#
#
# Indices 1 2 3 4 5 6 
#
# 1 0.019478 -0.014171 -0.001051 0.008559 -0.017792 -0.004291
# 2 -0.014171 0.030117 -0.002004 -0.011486 0.024818 0.017327
# 3 -0.001051 -0.002004 0.010399 -0.002769 0.012253 0.001802
# 4 0.008559 -0.011486 -0.002769 0.035556 -0.017400 -0.006896
# 5 -0.017792 0.024818 0.012253 -0.017400 0.089318 0.029412
# 6 -0.004291 0.017327 0.001802 -0.006896 0.029412 0.043570
#
#
# Mechanical properties :
#
#
# Convention : Reuss Voigt Hill
#
# Bulk Modulus (GPa) = 39.15219 53.18837 46.17028
# Shear Modulus (GPa) = 18.42271 33.10164 25.76218
#
# Velocity S-wave (km/s) = 2.80808 3.76407 3.32066
# Velocity P-wave (km/s) = 5.22223 6.45420 5.87062
#
# Compressibility (1/GPa) = 0.02554135
#
# Stress axis : x y z
#
# Youngs Moduli (GPa) = 51.34053 33.20363 96.16479
#
# Poissons Ratio (x) = 0.47054 0.10104
# Poissons Ratio (y) = 0.72757 0.19272
# Poissons Ratio (z) = 0.05394 0.06654
#
# Static dielectric constant tensor:
#      x y z
#    x 1.912580 0.012080 0.022480 
#    y 0.012080 1.905870 -0.000290 
#    z 0.022480 -0.000290 1.918810 
# 
# From -- ./inp_files/2733.got.cif
#   From: 2010.05.17/outbox.cif.g08.bks.cpg/sg1_2_cif.got.tgz:2733.got - 2010.05.17 20:27:59.
