data_PCOD9000754
_publ_section_title
;
Structure prediction by ZEFSAII (Michael W. Deem and Ramdas Pophale) SiO2 
 PCOD9000754
Probable space group: P 1
;
_chemical_formula_sum "Si O2"
_cell_formula_units_Z 8
_cell_length_a 9.818014
_cell_length_b 9.145330
_cell_length_c 9.431593
_cell_angle_alpha 90.000014
_cell_angle_beta 118.706368
_cell_angle_gamma 42.991331
_cell_volume 409.882809
_symmetry_space_group_name_H-M "P 1"
_symmetry_group_IT_number 1
_symmetry_cell_setting 'triclinic'
loop_
_space_group_symop_operation_xyz
x,y,z
loop_
_atom_site_type_symbol
_atom_site_label
_atom_site_fract_x
_atom_site_fract_y
_atom_site_fract_z
Si Si1 0.315490 0.232060 0.890850
Si Si2 0.248258 0.614238 0.545318
Si Si3 0.792944 0.712640 0.317657
Si Si4 0.841886 0.169187 0.366855
Si Si5 0.199316 0.157692 0.545565
Si Si6 0.358372 0.548976 0.916762
Si Si7 0.682829 0.777901 0.578986
Si Si8 0.725712 0.094817 0.595964
O O1 0.320258 0.160545 0.734851
O O2 0.376508 0.357351 0.927828
O O3 0.990918 0.479550 0.779196
O O4 0.544857 0.967820 0.097549
O O5 0.372529 0.572282 0.756999
O O6 0.020599 0.663439 0.460194
O O7 0.496346 0.359056 0.573298
O O8 0.059091 0.894060 0.391023
O O9 0.668673 0.754596 0.405066
O O10 0.982111 0.432817 0.352529
O O11 0.020601 0.163441 0.515678
O O12 0.720947 0.166334 0.435201
O O13 0.599915 0.413136 0.141077
O O14 0.441285 0.913742 0.561756
O O15 0.050284 0.847326 0.808884
O O16 0.664693 0.969526 0.571920
#
# Coordination Sequence:
#
# PCOD9000754 Si02
#       8
#     1   1   1   1   1   1   1   1
#     4  10  20  38  63  87 117 154 200 240 286 350
#     4  11  20  38  61  88 116 154 197 241 284 351
#     4  11  20  38  61  88 116 154 197 241 284 351
#     4  11  24  40  59  89 124 152 191 248 297 339
#     4  11  24  40  59  89 124 152 191 248 297 339
#     4  10  19  39  61  89 118 152 197 245 285 347
#     4  10  19  39  61  89 118 152 197 245 285 347
#     4  10  20  38  63  87 117 154 200 240 286 350
#
# _framework density 19.517775
#
# number of rings (size 3 to 8) (size 9 to 14) (size 15 to 20)
#    0.000    1.500    7.500    0.000    0.000    6.000 
#    4.500    1.250    0.000    0.000    0.000    0.000 
#    0.000    0.000    0.000    0.000    0.000    0.000 
#
# Total GULP energy -44607.621217 kJ/mol
# GULP energy per Si atom -5575.952652 kJ/mol
# Density = 1.947335 g / cm^3
# Si number density = 19.517775 Si / 1000 Ang^3
#
#
#
# Elastic Constant Matrix: (Units=GPa)
#
#
# Indices 1 2 3 4 5 6 
#
# 1 32.9536 5.5003 13.0406 3.8298 5.4284 -7.0681
# 2 5.5003 104.0039 29.7283 -19.6413 -1.9883 -25.9345
# 3 13.0406 29.7283 112.6427 -18.8447 -13.5638 -13.2929
# 4 3.8298 -19.6413 -18.8447 21.6380 9.5819 -0.9587
# 5 5.4284 -1.9883 -13.5638 9.5819 14.8252 -2.1276
# 6 -7.0681 -25.9345 -13.2929 -0.9587 -2.1276 25.0522
#
#
#
# Elastic Compliance Matrix: (Units=1/GPa)
#
#
# Indices 1 2 3 4 5 6 
#
# 1 0.037171 0.000001 -0.006330 -0.005054 -0.015326 0.005635
# 2 0.000001 0.018127 -0.000078 0.020986 -0.008506 0.018805
# 3 -0.006330 -0.000078 0.012899 0.008290 0.009627 0.006112
# 4 -0.005054 0.020986 0.008290 0.094544 -0.045345 0.024465
# 5 -0.015326 -0.008506 0.009627 -0.045345 0.109980 -0.000417
# 6 0.005635 0.018805 0.006112 0.024465 -0.000417 0.065118
#
#
# Mechanical properties :
#
#
# Convention : Reuss Voigt Hill
#
# Bulk Modulus (GPa) = 18.05608 38.45985 28.25797
# Shear Modulus (GPa) = 13.54600 25.72513 19.63557
#
# Velocity S-wave (km/s) = 2.63731 3.63442 3.17525
# Velocity P-wave (km/s) = 4.30640 6.11227 5.28700
#
# Compressibility (1/GPa) = 0.05538299
#
# Stress axis : x y z
#
# Youngs Moduli (GPa) = 26.90279 55.16537 77.52821
#
# Poissons Ratio (x) = -0.00006 0.49072
# Poissons Ratio (y) = -0.00003 0.00608
# Poissons Ratio (z) = 0.17028 0.00433
#
# Static dielectric constant tensor:
#      x y z
#    x 1.708990 0.018980 0.008250 
#    y 0.018980 1.690860 -0.006720 
#    z 0.008250 -0.006720 1.680110 
# 
# From -- ./inp_files/5541.got.cif
#   From: 2010.05.17/outbox.cif.g08.bks.cpg/sg1_3_cif.got.tgz:5541.got - 2010.05.17 20:27:59.
