data_PCOD9000849
_publ_section_title
;
Structure prediction by ZEFSAII (Michael W. Deem and Ramdas Pophale) SiO2 
 PCOD9000849
Probable space group: P 1
;
_chemical_formula_sum "Si O2"
_cell_formula_units_Z 8
_cell_length_a 10.176883
_cell_length_b 7.153702
_cell_length_c 10.995119
_cell_angle_alpha 42.416863
_cell_angle_beta 40.441385
_cell_angle_gamma 58.935223
_cell_volume 348.309498
_symmetry_space_group_name_H-M "P 1"
_symmetry_group_IT_number 1
_symmetry_cell_setting 'triclinic'
loop_
_space_group_symop_operation_xyz
x,y,z
loop_
_atom_site_type_symbol
_atom_site_label
_atom_site_fract_x
_atom_site_fract_y
_atom_site_fract_z
Si Si1 0.773860 0.500000 0.513870
Si Si2 0.105169 0.609318 0.890586
Si Si3 0.227677 0.595609 0.084671
Si Si4 0.725445 0.844093 0.156685
Si Si5 0.805387 0.318396 0.069415
Si Si6 0.306448 0.002955 0.371125
Si Si7 0.847888 0.921719 0.662135
Si Si8 0.605674 0.935913 0.589495
O O1 0.688045 0.588926 0.401603
O O2 0.653532 0.648237 0.629039
O O3 0.011189 0.627526 0.283384
O O4 0.783339 0.171589 0.671171
O O5 0.904788 0.767220 0.981629
O O6 0.018659 0.375701 0.966605
O O7 0.269367 0.835661 0.604559
O O8 0.176779 0.516859 0.016213
O O9 0.320899 0.337155 0.206744
O O10 0.384527 0.870358 0.835616
O O11 0.641644 0.175348 0.348876
O O12 0.806102 0.107635 0.057560
O O13 0.512750 0.906343 0.219240
O O14 0.756962 0.615502 0.911464
O O15 0.092221 0.923951 0.492119
O O16 0.771657 0.991905 0.549758
#
# Coordination Sequence:
#
# PCOD9000849 Si02
#       8
#     1   1   1   1   1   1   1   1
#     4   9  21  41  62  87 118 158 198 240 296 353
#     4  10  21  41  60  83 125 157 188 250 297 338
#     4  10  21  37  62  89 116 157 200 237 293 356
#     4  10  20  39  63  88 119 158 198 237 297 355
#     4  10  21  36  61  90 115 153 198 238 291 351
#     4  10  21  38  60  89 119 154 200 241 289 355
#     4  10  22  40  61  89 121 153 200 246 287 353
#     4  11  21  40  63  85 123 158 190 249 298 337
#
# _framework density 22.968077999999998
#
# number of rings (size 3 to 8) (size 9 to 14) (size 15 to 20)
#    0.000    2.000    0.000    4.500    0.000    6.000 
#    0.000   28.750    0.000    0.000    0.000    0.000 
#    0.000    0.000    0.000    0.000    0.000    0.000 
#
# Total GULP energy -44704.909716 kJ/mol
# GULP energy per Si atom -5588.113715 kJ/mol
# Density = 2.291580 g / cm^3
# Si number density = 22.968078 Si / 1000 Ang^3
#
#
#
# Elastic Constant Matrix: (Units=GPa)
#
#
# Indices 1 2 3 4 5 6 
#
# 1 64.5470 29.7316 23.4045 -5.3105 -16.7947 -14.7348
# 2 29.7316 75.7864 28.9499 -8.8435 4.4781 -11.6001
# 3 23.4045 28.9499 103.3867 -5.3604 -0.1036 -15.1126
# 4 -5.3105 -8.8435 -5.3604 38.3007 -7.0913 -1.6731
# 5 -16.7947 4.4781 -0.1036 -7.0913 29.6928 0.4793
# 6 -14.7348 -11.6001 -15.1126 -1.6731 0.4793 39.7204
#
#
#
# Elastic Compliance Matrix: (Units=1/GPa)
#
#
# Indices 1 2 3 4 5 6 
#
# 1 0.027085 -0.009227 -0.002334 0.004869 0.017761 0.006455
# 2 -0.009227 0.018703 -0.002936 0.001236 -0.007772 0.001068
# 3 -0.002334 -0.002936 0.011441 0.000579 -0.000742 0.002663
# 4 0.004869 0.001236 0.000579 0.029053 0.009452 0.003497
# 5 0.017761 -0.007772 -0.000742 0.009452 0.047089 0.003867
# 6 0.006455 0.001068 0.002663 0.003497 0.003867 0.028997
#
#
# Mechanical properties :
#
#
# Convention : Reuss Voigt Hill
#
# Bulk Modulus (GPa) = 35.41650 45.32135 40.36893
# Shear Modulus (GPa) = 24.90361 32.31838 28.61100
#
# Velocity S-wave (km/s) = 3.29640 3.75520 3.53326
# Velocity P-wave (km/s) = 5.47190 6.21106 5.85316
#
# Compressibility (1/GPa) = 0.02823543
#
# Stress axis : x y z
#
# Youngs Moduli (GPa) = 36.92121 53.46627 87.40163
#
# Poissons Ratio (x) = 0.49335 0.20397
# Poissons Ratio (y) = 0.34068 0.25661
# Poissons Ratio (z) = 0.08616 0.15698
#
# Static dielectric constant tensor:
#      x y z
#    x 1.879140 0.041420 0.000080 
#    y 0.041420 1.845930 -0.025410 
#    z 0.000080 -0.025410 1.870850 
# 
# From -- ./inp_files/6671.got.cif
#   From: 2010.05.17/outbox.cif.g08.bks.cpg/sg1_4_cif.got.tgz:6671.got - 2010.05.17 20:27:59.
