data_PCOD9000517
_publ_section_title
;
Structure prediction by ZEFSAII (Michael W. Deem and Ramdas Pophale) SiO2 
 PCOD9000517
Probable space group: P 1
;
_chemical_formula_sum "Si O2"
_cell_formula_units_Z 8
_cell_length_a 9.675436
_cell_length_b 4.924570
_cell_length_c 18.395279
_cell_angle_alpha 118.241515
_cell_angle_beta 146.936415
_cell_angle_gamma 56.755881
_cell_volume 399.744003
_symmetry_space_group_name_H-M "P 1"
_symmetry_group_IT_number 1
_symmetry_cell_setting 'triclinic'
loop_
_space_group_symop_operation_xyz
x,y,z
loop_
_atom_site_type_symbol
_atom_site_label
_atom_site_fract_x
_atom_site_fract_y
_atom_site_fract_z
Si Si1 0.880180 0.475930 0.644690
Si Si2 0.432353 0.065575 0.864425
Si Si3 0.423503 0.574520 0.054414
Si Si4 0.343613 0.874381 0.427713
Si Si5 0.742984 0.184717 0.693236
Si Si6 0.102952 0.302093 0.984302
Si Si7 0.785096 0.407892 0.999283
Si Si8 0.000783 0.447146 0.259951
O O1 0.770456 0.400131 0.664528
O O2 0.735569 0.506555 0.198605
O O3 0.148028 0.181300 0.712923
O O4 0.615953 0.580776 0.490990
O O5 0.399877 0.319388 0.949653
O O6 0.662114 0.116840 0.920380
O O7 0.541940 0.713250 0.903016
O O8 0.250373 0.530063 0.040774
O O9 0.941359 0.817004 0.720542
O O10 0.303567 0.938293 0.019091
O O11 0.461347 0.113600 0.557917
O O12 0.196876 0.094007 0.323938
O O13 0.151444 0.714539 0.364544
O O14 0.837530 0.318790 0.823538
O O15 0.015541 0.357900 0.035654
O O16 0.896587 0.465789 0.133826
#
# Coordination Sequence:
#
# PCOD9000517 Si02
#       8
#     1   1   1   1   1   1   1   1
#     4  10  18  32  59  87 107 141 188 251 270 326
#     4  11  19  38  55  91 113 145 195 239 288 330
#     4  11  21  34  62  81 115 151 198 236 273 337
#     4  10  19  35  57  87 110 146 200 240 269 321
#     4  10  18  33  58  88 105 146 186 249 268 336
#     4  12  21  39  56  92 116 151 183 236 311 340
#     4  11  25  34  58  87 128 147 175 242 302 347
#     4  11  21  37  55  89 112 153 193 237 269 339
#
# _framework density 20.012809000000001
#
# number of rings (size 3 to 8) (size 9 to 14) (size 15 to 20)
#    0.750    0.500    3.750    5.250    0.000    0.000 
#    0.000    0.000    0.000    6.000    0.000    0.000 
#    0.000    0.000    0.000    0.000    0.000    0.000 
#
# Total GULP energy -44586.357816 kJ/mol
# GULP energy per Si atom -5573.294727 kJ/mol
# Density = 1.996726 g / cm^3
# Si number density = 20.012809 Si / 1000 Ang^3
#
#
#
# Elastic Constant Matrix: (Units=GPa)
#
#
# Indices 1 2 3 4 5 6 
#
# 1 83.5847 7.4228 36.8537 4.9313 12.3305 19.9461
# 2 7.4228 48.5856 22.7516 -19.5699 -6.4948 21.4270
# 3 36.8537 22.7516 105.2926 -17.6609 16.9220 11.6602
# 4 4.9313 -19.5699 -17.6609 30.5301 13.7790 -1.7119
# 5 12.3305 -6.4948 16.9220 13.7790 25.3883 -4.0968
# 6 19.9461 21.4270 11.6602 -1.7119 -4.0968 30.9788
#
#
#
# Elastic Compliance Matrix: (Units=1/GPa)
#
#
# Indices 1 2 3 4 5 6 
#
# 1 0.017912 0.004294 -0.004943 -0.001101 -0.005884 -0.013481
# 2 0.004294 0.047525 0.000376 0.034640 -0.014758 -0.035815
# 3 -0.004943 0.000376 0.019487 0.022717 -0.023839 -0.006309
# 4 -0.001101 0.034640 0.022717 0.094637 -0.062734 -0.034868
# 5 -0.005884 -0.014758 -0.023839 -0.062734 0.093551 0.031874
# 6 -0.013481 -0.035815 -0.006309 -0.034868 0.031874 0.070396
#
#
# Mechanical properties :
#
#
# Convention : Reuss Voigt Hill
#
# Bulk Modulus (GPa) = 11.85151 41.27991 26.56571
# Shear Modulus (GPa) = 13.43435 28.74176 21.08806
#
# Velocity S-wave (km/s) = 2.59373 3.79379 3.24964
# Velocity P-wave (km/s) = 3.86067 6.31364 5.23291
#
# Compressibility (1/GPa) = 0.08437747
#
# Stress axis : x y z
#
# Youngs Moduli (GPa) = 55.82766 21.04151 51.31726
#
# Poissons Ratio (x) = -0.09035 0.25368
# Poissons Ratio (y) = -0.23971 -0.01931
# Poissons Ratio (z) = 0.27597 -0.00792
#
# Static dielectric constant tensor:
#      x y z
#    x 1.706700 -0.000380 0.032870 
#    y -0.000380 1.709960 -0.019500 
#    z 0.032870 -0.019500 1.759590 
# 
# From -- ./inp_files/6046.got.cif
#   From: 2010.05.17/outbox.cif.g08.bks.cpg/sg1_4_cif.got.tgz:6046.got - 2010.05.17 20:27:59.
