data_PCOD9000887
_publ_section_title
;
Structure prediction by ZEFSAII (Michael W. Deem and Ramdas Pophale) SiO2 
 PCOD9000887
Probable space group: P 1
;
_chemical_formula_sum "Si O2"
_cell_formula_units_Z 8
_cell_length_a 8.757597
_cell_length_b 8.337815
_cell_length_c 9.886090
_cell_angle_alpha 136.754659
_cell_angle_beta 60.466262
_cell_angle_gamma 130.456978
_cell_volume 376.032905
_symmetry_space_group_name_H-M "P 1"
_symmetry_group_IT_number 1
_symmetry_cell_setting 'triclinic'
loop_
_space_group_symop_operation_xyz
x,y,z
loop_
_atom_site_type_symbol
_atom_site_label
_atom_site_fract_x
_atom_site_fract_y
_atom_site_fract_z
Si Si1 0.441500 0.997830 0.386180
Si Si2 0.446944 0.102982 0.904154
Si Si3 0.240644 0.521297 0.581036
Si Si4 0.884269 0.508573 0.893204
Si Si5 0.247017 0.808745 0.088958
Si Si6 0.793382 0.939921 0.048891
Si Si7 0.213761 0.405434 0.219872
Si Si8 0.481823 0.543048 0.749511
O O1 0.306988 0.974288 0.299765
O O2 0.307426 0.719210 0.348058
O O3 0.637920 0.993024 0.238742
O O4 0.492316 0.273307 0.606931
O O5 0.681506 0.251525 0.866394
O O6 0.367042 0.310248 0.040785
O O7 0.379088 0.991063 0.017740
O O8 0.329177 0.836524 0.704208
O O9 0.199496 0.362857 0.362693
O O10 0.407800 0.530971 0.619288
O O11 0.033159 0.438239 0.699389
O O12 0.017023 0.669876 0.063160
O O13 0.838462 0.718070 0.961702
O O14 0.313779 0.578807 0.928912
O O15 0.685453 0.802871 0.870043
O O16 0.000440 0.217427 0.128166
#
# Coordination Sequence:
#
# PCOD9000887 Si02
#       8
#     1   1   1   1   1   1   1   1
#     4  11  24  40  65  96 135 165 209 267 322 377
#     4  10  20  41  66  94 124 170 214 263 315 377
#     4  10  24  42  67  94 129 168 217 261 315 384
#     4  10  20  41  69  91 127 167 213 265 315 373
#     4   9  21  42  63  94 129 168 211 263 319 378
#     4  11  23  40  65  95 128 168 215 262 319 375
#     4  12  24  39  68 100 127 169 215 262 322 378
#     4   9  22  43  61  88 133 169 200 265 317 372
#
# _framework density 21.274730999999999
#
# number of rings (size 3 to 8) (size 9 to 14) (size 15 to 20)
#    0.000    2.000    3.750    0.750    3.500    3.000 
#    0.000    5.000    0.000    0.000    0.000    0.000 
#    0.000    0.000    0.000    0.000    0.000    0.000 
#
# Total GULP energy -44637.938560 kJ/mol
# GULP energy per Si atom -5579.742320 kJ/mol
# Density = 2.122631 g / cm^3
# Si number density = 21.274731 Si / 1000 Ang^3
#
#
#
# Elastic Constant Matrix: (Units=GPa)
#
#
# Indices 1 2 3 4 5 6 
#
# 1 108.9803 32.7411 44.5971 -5.8110 6.4988 22.8068
# 2 32.7411 113.0462 40.1931 5.3951 0.9636 31.9766
# 3 44.5971 40.1931 99.9718 26.0589 9.1106 9.0951
# 4 -5.8110 5.3951 26.0589 22.7971 -2.1611 -8.1715
# 5 6.4988 0.9636 9.1106 -2.1611 25.4561 4.5916
# 6 22.8068 31.9766 9.0951 -8.1715 4.5916 39.6585
#
#
#
# Elastic Compliance Matrix: (Units=1/GPa)
#
#
# Indices 1 2 3 4 5 6 
#
# 1 0.014705 -0.000598 -0.009938 0.014352 0.001570 -0.002920
# 2 -0.000598 0.013402 -0.003761 -0.002509 0.002659 -0.010425
# 3 -0.009938 -0.003761 0.025504 -0.032632 -0.008711 -0.002816
# 4 0.014352 -0.002509 -0.032632 0.093441 0.012607 0.019047
# 5 0.001570 0.002659 -0.008711 0.012607 0.043601 -0.003500
# 6 -0.002920 -0.010425 -0.002816 0.019047 -0.003500 0.040275
#
#
# Mechanical properties :
#
#
# Convention : Reuss Voigt Hill
#
# Bulk Modulus (GPa) = 39.97285 61.89565 50.93425
# Shear Modulus (GPa) = 18.66626 31.21346 24.93986
#
# Velocity S-wave (km/s) = 2.96529 3.83451 3.42757
# Velocity P-wave (km/s) = 5.52753 6.98293 6.29742
#
# Compressibility (1/GPa) = 0.02501698
#
# Stress axis : x y z
#
# Youngs Moduli (GPa) = 68.00329 74.61403 39.20891
#
# Poissons Ratio (x) = 0.04462 0.38966
# Poissons Ratio (y) = 0.04066 0.14748
# Poissons Ratio (z) = 0.67582 0.28066
#
# Static dielectric constant tensor:
#      x y z
#    x 1.807490 -0.057070 0.003040 
#    y -0.057070 1.775550 0.018100 
#    z 0.003040 0.018100 1.782100 
# 
# From -- ./inp_files/4065.got.cif
#   From: 2010.05.17/outbox.cif.g08.bks.cpg/sg1_3_cif.got.tgz:4065.got - 2010.05.17 20:27:59.
