data_PCOD9000738
_publ_section_title
;
Structure prediction by ZEFSAII (Michael W. Deem and Ramdas Pophale) SiO2 
 PCOD9000738
Probable space group: P 1
;
_chemical_formula_sum "Si O2"
_cell_formula_units_Z 8
_cell_length_a 19.546494
_cell_length_b 6.984470
_cell_length_c 9.874153
_cell_angle_alpha 53.940137
_cell_angle_beta 153.816111
_cell_angle_gamma 135.890594
_cell_volume 407.151597
_symmetry_space_group_name_H-M "P 1"
_symmetry_group_IT_number 1
_symmetry_cell_setting 'triclinic'
loop_
_space_group_symop_operation_xyz
x,y,z
loop_
_atom_site_type_symbol
_atom_site_label
_atom_site_fract_x
_atom_site_fract_y
_atom_site_fract_z
Si Si1 0.183580 0.099910 0.772160
Si Si2 0.999521 0.466992 0.627110
Si Si3 0.387088 0.041718 0.699828
Si Si4 0.640387 0.933153 0.320852
Si Si5 0.209025 0.172215 0.099701
Si Si6 0.011888 0.470796 0.330236
Si Si7 0.821039 0.612279 0.715782
Si Si8 0.522962 0.237587 0.134640
O O1 0.078800 0.262316 0.497017
O O2 0.056473 0.769677 0.655235
O O3 0.249032 0.168426 0.015039
O O4 0.356557 0.198807 0.942106
O O5 0.951178 0.428520 0.396774
O O6 0.828669 0.227192 0.507025
O O7 0.164489 0.409668 0.955235
O O8 0.188077 0.789412 0.500836
O O9 0.356222 0.165704 0.459392
O O10 0.511232 0.904500 0.976661
O O11 0.484463 0.274270 0.894431
O O12 0.534333 0.961318 0.247395
O O13 0.695843 0.709806 0.523059
O O14 0.013900 0.883932 0.901622
O O15 0.866327 0.445115 0.973114
O O16 0.709239 0.455379 0.448648
#
# Coordination Sequence:
#
# PCOD9000738 Si02
#       8
#     1   1   1   1   1   1   1   1
#     4  11  21  37  61  83 117 148 189 233 278 339
#     4  10  19  38  56  86 114 152 184 237 278 334
#     4   9  19  41  55  86 112 148 187 230 283 331
#     4   9  20  36  60  79 119 145 184 235 282 327
#     4   9  21  38  60  82 114 149 192 229 281 333
#     4  10  21  37  61  83 115 148 192 230 283 329
#     4  10  20  39  59  86 110 151 191 233 276 337
#     4  10  21  36  58  85 115 147 187 229 283 332
#
# _framework density 19.648699000000001
#
# number of rings (size 3 to 8) (size 9 to 14) (size 15 to 20)
#    0.750    1.500    1.250    1.500    0.000    2.000 
#    9.000    1.250    0.000    0.000    0.000    0.000 
#    0.000    0.000    0.000    0.000    0.000    0.000 
#
# Total GULP energy -44564.044267 kJ/mol
# GULP energy per Si atom -5570.505533 kJ/mol
# Density = 1.960398 g / cm^3
# Si number density = 19.648699 Si / 1000 Ang^3
#
#
#
# Elastic Constant Matrix: (Units=GPa)
#
#
# Indices 1 2 3 4 5 6 
#
# 1 74.8525 31.1212 42.7972 -26.4330 -2.8104 -23.8678
# 2 31.1212 81.2912 58.7417 -14.6469 -13.5802 -18.6592
# 3 42.7972 58.7417 147.5825 -20.6673 -18.0630 -17.4655
# 4 -26.4330 -14.6469 -20.6673 32.5314 3.5765 5.3325
# 5 -2.8104 -13.5802 -18.0630 3.5765 20.0145 0.9263
# 6 -23.8678 -18.6592 -17.4655 5.3325 0.9263 28.6073
#
#
#
# Elastic Compliance Matrix: (Units=1/GPa)
#
#
# Indices 1 2 3 4 5 6 
#
# 1 0.026998 -0.001884 -0.003322 0.016775 -0.004237 0.016278
# 2 -0.001884 0.020418 -0.005386 0.002081 0.007995 0.007811
# 3 -0.003322 -0.005386 0.010670 0.001093 0.005320 -0.000147
# 4 0.016775 0.002081 0.001093 0.045139 -0.003669 0.007726
# 5 -0.004237 0.007995 0.005320 -0.003669 0.060081 0.003667
# 6 0.016278 0.007811 -0.000147 0.007726 0.003667 0.051983
#
#
# Mechanical properties :
#
#
# Convention : Reuss Voigt Hill
#
# Bulk Modulus (GPa) = 27.09939 63.22739 45.16339
# Shear Modulus (GPa) = 20.09853 27.63504 23.86679
#
# Velocity S-wave (km/s) = 3.20174 3.75434 3.48900
# Velocity P-wave (km/s) = 5.24310 7.14439 6.26627
#
# Compressibility (1/GPa) = 0.03690120
#
# Stress axis : x y z
#
# Youngs Moduli (GPa) = 37.04033 48.97535 93.72053
#
# Poissons Ratio (x) = 0.09227 0.31134
# Poissons Ratio (y) = 0.06978 0.50482
# Poissons Ratio (z) = 0.12305 0.26380
#
# Static dielectric constant tensor:
#      x y z
#    x 1.692990 0.007610 0.009920 
#    y 0.007610 1.722690 0.010020 
#    z 0.009920 0.010020 1.705000 
# 
# From -- ./inp_files/1139.got.cif
#   From: 2010.05.17/outbox.cif.g08.bks.cpg/sg1_1_cif.got.tgz:1139.got - 2010.05.17 20:27:59.
