data_PCOD9000363
_publ_section_title
;
Structure prediction by ZEFSAII (Michael W. Deem and Ramdas Pophale) SiO2 
 PCOD9000363
Probable space group: P 1
;
_chemical_formula_sum "Si O2"
_cell_formula_units_Z 8
_cell_length_a 13.821729
_cell_length_b 8.966637
_cell_length_c 10.385574
_cell_angle_alpha 138.561326
_cell_angle_beta 29.645809
_cell_angle_gamma 150.342507
_cell_volume 314.947419
_symmetry_space_group_name_H-M "P 1"
_symmetry_group_IT_number 1
_symmetry_cell_setting 'triclinic'
loop_
_space_group_symop_operation_xyz
x,y,z
loop_
_atom_site_type_symbol
_atom_site_label
_atom_site_fract_x
_atom_site_fract_y
_atom_site_fract_z
Si Si1 0.021510 0.698580 0.518350
Si Si2 0.729481 0.651266 0.267071
Si Si3 0.212025 0.218475 0.234385
Si Si4 0.488161 0.841199 0.218127
Si Si5 0.814665 0.206898 0.825596
Si Si6 0.177092 0.281192 0.783068
Si Si7 0.776886 0.089473 0.311624
Si Si8 0.328036 0.862310 0.003707
O O1 0.223155 0.772586 0.443358
O O2 0.162211 0.794031 0.278551
O O3 0.803564 0.337986 0.523614
O O4 0.982866 0.934136 0.738159
O O5 0.467600 0.414593 0.502104
O O6 0.971747 0.930236 0.247478
O O7 0.669166 0.793680 0.321654
O O8 0.818440 0.480004 0.996785
O O9 0.080628 0.282682 0.534247
O O10 0.395408 0.513126 0.126799
O O11 0.352733 0.114223 0.065968
O O12 0.616131 0.009741 0.315073
O O13 0.683083 0.032656 0.998495
O O14 0.604250 0.983936 0.813703
O O15 0.185646 0.545761 0.891648
O O16 0.072941 0.246476 0.025675
#
# Coordination Sequence:
#
# PCOD9000363 Si02
#       8
#     1   1   1   1   1   1   1   1
#     4  10  23  47  72 102 151 187 243 305 360 434
#     4  12  25  44  75 109 150 194 247 299 370 445
#     4  12  27  47  76 109 149 195 250 300 371 444
#     4  11  25  48  73 112 145 191 253 295 373 442
#     4  11  26  47  74 108 148 197 240 310 365 433
#     4  11  24  46  76 101 151 194 240 308 364 429
#     4  11  27  46  71 112 148 196 245 303 371 439
#     4  10  23  45  73 105 142 192 248 296 366 434
#
# _framework density 25.401062
#
# number of rings (size 3 to 8) (size 9 to 14) (size 15 to 20)
#    0.000    1.000    5.000    0.750    7.000    0.000 
#    2.250    1.250    0.000    0.000    0.000    0.000 
#    0.000    0.000    0.000    0.000    0.000    0.000 
#
# Total GULP energy -44793.166534 kJ/mol
# GULP energy per Si atom -5599.145817 kJ/mol
# Density = 2.534325 g / cm^3
# Si number density = 25.401062 Si / 1000 Ang^3
#
#
#
# Elastic Constant Matrix: (Units=GPa)
#
#
# Indices 1 2 3 4 5 6 
#
# 1 144.8154 61.7256 32.2401 7.1954 -13.1330 -5.0509
# 2 61.7256 187.8335 64.5140 36.3033 -1.6402 -8.2271
# 3 32.2401 64.5140 121.3540 16.5864 6.2829 -1.5085
# 4 7.1954 36.3033 16.5864 62.1018 -5.0124 -1.9094
# 5 -13.1330 -1.6402 6.2829 -5.0124 28.4476 3.7760
# 6 -5.0509 -8.2271 -1.5085 -1.9094 3.7760 48.2637
#
#
#
# Elastic Compliance Matrix: (Units=1/GPa)
#
#
# Indices 1 2 3 4 5 6 
#
# 1 0.008632 -0.002576 -0.001311 0.001209 0.004321 0.000133
# 2 -0.002576 0.007918 -0.002983 -0.003572 -0.000824 0.000910
# 3 -0.001311 -0.002983 0.010504 -0.001179 -0.003291 -0.000106
# 4 0.001209 -0.003572 -0.001179 0.018679 0.003915 -0.000087
# 5 0.004321 -0.000824 -0.003291 0.003915 0.038872 -0.002677
# 6 0.000133 0.000910 -0.000106 -0.000087 -0.002677 0.021091
#
#
# Mechanical properties :
#
#
# Convention : Reuss Voigt Hill
#
# Bulk Modulus (GPa) = 75.10693 85.66248 80.38470
# Shear Modulus (GPa) = 40.36352 47.46416 43.91384
#
# Velocity S-wave (km/s) = 3.99061 4.32741 4.16242
# Velocity P-wave (km/s) = 7.13203 7.66589 7.40377
#
# Compressibility (1/GPa) = 0.01331435
#
# Stress axis : x y z
#
# Youngs Moduli (GPa) = 115.85063 126.29401 95.19792
#
# Poissons Ratio (x) = 0.32539 0.12479
# Poissons Ratio (y) = 0.29848 0.28394
# Poissons Ratio (z) = 0.15186 0.37669
#
# Static dielectric constant tensor:
#      x y z
#    x 2.031960 0.030140 -0.016060 
#    y 0.030140 2.017510 -0.006550 
#    z -0.016060 -0.006550 1.994430 
# 
# From -- ./inp_files/6836.got.cif
#   From: 2010.05.17/outbox.cif.g08.bks.cpg/sg1_4_cif.got.tgz:6836.got - 2010.05.17 20:27:59.
