data_PCOD9000531
_publ_section_title
;
Structure prediction by ZEFSAII (Michael W. Deem and Ramdas Pophale) SiO2 
 PCOD9000531
Probable space group: P 1
;
_chemical_formula_sum "Si O2"
_cell_formula_units_Z 8
_cell_length_a 7.206715
_cell_length_b 8.291298
_cell_length_c 11.713014
_cell_angle_alpha 37.801602
_cell_angle_beta 97.129440
_cell_angle_gamma 75.866555
_cell_volume 351.872342
_symmetry_space_group_name_H-M "P 1"
_symmetry_group_IT_number 1
_symmetry_cell_setting 'triclinic'
loop_
_space_group_symop_operation_xyz
x,y,z
loop_
_atom_site_type_symbol
_atom_site_label
_atom_site_fract_x
_atom_site_fract_y
_atom_site_fract_z
Si Si1 0.395920 0.557040 0.900490
Si Si2 0.798896 0.130198 0.743642
Si Si3 0.207877 0.057995 0.930346
Si Si4 0.182583 0.153812 0.126516
Si Si5 0.453258 0.660244 0.594138
Si Si6 0.650412 0.694175 0.011388
Si Si7 0.941646 0.181690 0.491650
Si Si8 0.851532 0.682587 0.663910
O O1 0.442274 0.512688 0.793627
O O2 0.588812 0.502443 0.030525
O O3 0.296560 0.351246 0.041321
O O4 0.883383 0.952128 0.554044
O O5 0.608797 0.380634 0.674678
O O6 0.815713 0.289003 0.542514
O O7 0.041824 0.967188 0.916441
O O8 0.727622 0.892388 0.840339
O O9 0.034773 0.446166 0.713571
O O10 0.425656 0.919973 0.945392
O O11 0.276447 0.955997 0.125027
O O12 0.227157 0.932139 0.360682
O O13 0.929588 0.425173 0.916514
O O14 0.598503 0.809483 0.543792
O O15 0.854363 0.470096 0.238980
O O16 0.204911 0.938915 0.676811
#
# Coordination Sequence:
#
# PCOD9000531 Si02
#       8
#     1   1   1   1   1   1   1   1
#     4  11  24  40  65  98 129 165 221 265 312 391
#     4  11  24  42  67  98 133 165 220 264 316 394
#     4   9  20  43  67  91 135 166 208 276 312 370
#     4   9  20  41  64  87 128 169 207 266 316 367
#     4  11  21  40  66  95 122 176 213 253 334 377
#     4  12  24  43  68  95 135 171 208 270 327 376
#     4  11  23  44  65  96 130 171 214 265 326 373
#     4   8  20  39  64  92 124 165 213 269 303 382
#
# _framework density 22.735517000000002
#
# number of rings (size 3 to 8) (size 9 to 14) (size 15 to 20)
#    0.750    1.000    1.250    3.000    0.000    3.000 
#    6.750    0.000    0.000    0.000    0.000    0.000 
#    0.000    0.000    0.000    0.000    0.000    0.000 
#
# Total GULP energy -44639.008196 kJ/mol
# GULP energy per Si atom -5579.876024 kJ/mol
# Density = 2.268377 g / cm^3
# Si number density = 22.735517 Si / 1000 Ang^3
#
#
#
# Elastic Constant Matrix: (Units=GPa)
#
#
# Indices 1 2 3 4 5 6 
#
# 1 41.8480 12.3113 8.8259 -0.5167 6.7918 9.3747
# 2 12.3113 84.6980 -4.6960 17.8741 0.6994 -10.8511
# 3 8.8259 -4.6960 74.0891 24.9867 17.5384 -5.1575
# 4 -0.5167 17.8741 24.9867 21.4524 0.0782 4.0545
# 5 6.7918 0.6994 17.5384 0.0782 22.9730 1.8975
# 6 9.3747 -10.8511 -5.1575 4.0545 1.8975 42.0731
#
#
#
# Elastic Compliance Matrix: (Units=1/GPa)
#
#
# Indices 1 2 3 4 5 6 
#
# 1 0.047613 -0.032166 -0.044794 0.086421 0.023597 -0.033788
# 2 -0.032166 0.051530 0.061410 -0.122970 -0.041969 0.041728
# 3 -0.044794 0.061410 0.109632 -0.191216 -0.076723 0.061146
# 4 0.086421 -0.122970 -0.191216 0.395792 0.132617 -0.118534
# 5 0.023597 -0.041969 -0.076723 0.132617 0.099483 -0.042754
# 6 -0.033788 0.041728 0.061146 -0.118534 -0.042754 0.062906
#
#
# Mechanical properties :
#
#
# Convention : Reuss Voigt Hill
#
# Bulk Modulus (GPa) = 5.62830 25.94640 15.78735
# Shear Modulus (GPa) = 5.83239 29.57929 17.70584
#
# Velocity S-wave (km/s) = 1.60340 3.61087 2.79368
# Velocity P-wave (km/s) = 2.43080 5.36858 4.16716
#
# Compressibility (1/GPa) = 0.17767366
#
# Stress axis : x y z
#
# Youngs Moduli (GPa) = 21.00286 19.40605 9.12143
#
# Poissons Ratio (x) = 0.62421 0.40859
# Poissons Ratio (y) = 0.67557 -0.56014
# Poissons Ratio (z) = 0.94081 -1.19172
#
# Static dielectric constant tensor:
#      x y z
#    x 1.832730 -0.024360 0.017820 
#    y -0.024360 1.898040 0.010520 
#    z 0.017820 0.010520 1.828050 
# 
# From -- ./inp_files/6336.got.cif
#   From: 2010.05.17/outbox.cif.g08.bks.cpg/sg1_4_cif.got.tgz:6336.got - 2010.05.17 20:27:59.
