data_PCOD9000704
_publ_section_title
;
Structure prediction by ZEFSAII (Michael W. Deem and Ramdas Pophale) SiO2 
 PCOD9000704
Probable space group: P 1
;
_chemical_formula_sum "Si O2"
_cell_formula_units_Z 8
_cell_length_a 8.340055
_cell_length_b 10.375114
_cell_length_c 6.870931
_cell_angle_alpha 44.240989
_cell_angle_beta 69.662349
_cell_angle_gamma 49.078484
_cell_volume 304.953083
_symmetry_space_group_name_H-M "P 1"
_symmetry_group_IT_number 1
_symmetry_cell_setting 'triclinic'
loop_
_space_group_symop_operation_xyz
x,y,z
loop_
_atom_site_type_symbol
_atom_site_label
_atom_site_fract_x
_atom_site_fract_y
_atom_site_fract_z
Si Si1 0.704420 0.514770 0.598610
Si Si2 0.087672 0.761774 0.122514
Si Si3 0.506349 0.380586 0.107260
Si Si4 0.834401 0.390886 0.224421
Si Si5 0.609581 0.988349 0.020048
Si Si6 0.670914 0.869586 0.667549
Si Si7 0.137882 0.351731 0.719170
Si Si8 0.225688 0.044104 0.660306
O O1 0.751327 0.453164 0.417409
O O2 0.647043 0.769015 0.347031
O O3 0.923178 0.366131 0.803196
O O4 0.538012 0.478662 0.792428
O O5 0.257830 0.575253 0.083211
O O6 0.091523 0.600094 0.455954
O O7 0.827946 0.962370 0.985740
O O8 0.178386 0.902790 0.972362
O O9 0.666034 0.371023 0.207845
O O10 0.613650 0.102988 0.333341
O O11 0.072167 0.145108 0.428446
O O12 0.859395 0.586674 0.921905
O O13 0.631754 0.947091 0.823935
O O14 0.353040 0.198514 0.925118
O O15 0.474393 0.868392 0.688720
O O16 0.196908 0.245445 0.585992
#
# Coordination Sequence:
#
# PCOD9000704 Si02
#       8
#     1   1   1   1   1   1   1   1
#     4   9  22  41  64  95 128 159 215 263 310 367
#     4  11  20  33  64  95 121 165 213 250 315 381
#     4  12  22  40  66  98 127 162 211 262 310 379
#     4  10  22  42  65  85 127 173 204 255 317 367
#     4   9  18  38  62  85 121 172 201 249 318 366
#     4  10  20  37  62  91 123 164 210 252 312 368
#     4   9  19  41  61  86 125 171 206 259 311 372
#     4  10  19  34  62  91 118 162 212 252 303 372
#
# _framework density 26.233540999999999
#
# number of rings (size 3 to 8) (size 9 to 14) (size 15 to 20)
#    0.000    2.000    3.750    1.500    0.000    0.000 
#    4.500    7.500    5.500    0.000    0.000    0.000 
#    0.000    0.000    0.000    0.000    0.000    0.000 
#
# Total GULP energy -44572.688204 kJ/mol
# GULP energy per Si atom -5571.586026 kJ/mol
# Density = 2.617383 g / cm^3
# Si number density = 26.233541 Si / 1000 Ang^3
#
#
#
# Elastic Constant Matrix: (Units=GPa)
#
#
# Indices 1 2 3 4 5 6 
#
# 1 104.4164 18.2474 32.1423 -10.1356 -8.8461 -16.6878
# 2 18.2474 54.9657 20.9991 4.6833 -2.3174 -4.7173
# 3 32.1423 20.9991 116.9241 -8.6502 -39.1603 -6.9788
# 4 -10.1356 4.6833 -8.6502 55.8209 -2.6032 -1.2318
# 5 -8.8461 -2.3174 -39.1603 -2.6032 48.4971 -9.6564
# 6 -16.6878 -4.7173 -6.9788 -1.2318 -9.6564 36.6949
#
#
#
# Elastic Compliance Matrix: (Units=1/GPa)
#
#
# Indices 1 2 3 4 5 6 
#
# 1 0.011820 -0.002987 -0.001584 0.002357 0.001910 0.005272
# 2 -0.002987 0.020912 -0.004285 -0.003123 -0.003263 -0.000448
# 3 -0.001584 -0.004285 0.014348 0.002970 0.012201 0.004768
# 4 0.002357 -0.003123 0.002970 0.019333 0.004318 0.003020
# 5 0.001910 -0.003263 0.012201 0.004318 0.033217 0.011656
# 6 0.005272 -0.000448 0.004768 0.003020 0.011656 0.033667
#
#
# Mechanical properties :
#
#
# Convention : Reuss Voigt Hill
#
# Bulk Modulus (GPa) = 34.05026 46.56485 40.30756
# Shear Modulus (GPa) = 31.09505 41.86373 36.47939
#
# Velocity S-wave (km/s) = 3.44658 3.99909 3.73307
# Velocity P-wave (km/s) = 5.37088 6.25398 5.82918
#
# Compressibility (1/GPa) = 0.02936835
#
# Stress axis : x y z
#
# Youngs Moduli (GPa) = 84.60429 47.81992 69.69504
#
# Poissons Ratio (x) = 0.14282 0.11040
# Poissons Ratio (y) = 0.25267 0.29865
# Poissons Ratio (z) = 0.13401 0.20492
#
# Static dielectric constant tensor:
#      x y z
#    x 2.067640 -0.055080 0.048560 
#    y -0.055080 2.269730 0.011290 
#    z 0.048560 0.011290 2.077550 
# 
# From -- ./inp_files/4988.got.cif
#   From: 2010.05.17/outbox.cif.g08.bks.cpg/sg1_3_cif.got.tgz:4988.got - 2010.05.17 20:27:59.
