data_PCOD9000175
_publ_section_title
;
Structure prediction by ZEFSAII (Michael W. Deem and Ramdas Pophale) SiO2 
 PCOD9000175
Probable space group: P 1
;
_chemical_formula_sum "Si O2"
_cell_formula_units_Z 8
_cell_length_a 8.123244
_cell_length_b 7.420188
_cell_length_c 8.736883
_cell_angle_alpha 93.203972
_cell_angle_beta 48.485174
_cell_angle_gamma 67.302060
_cell_volume 324.661557
_symmetry_space_group_name_H-M "P 1"
_symmetry_group_IT_number 1
_symmetry_cell_setting 'triclinic'
loop_
_space_group_symop_operation_xyz
x,y,z
loop_
_atom_site_type_symbol
_atom_site_label
_atom_site_fract_x
_atom_site_fract_y
_atom_site_fract_z
Si Si1 0.306210 0.015470 0.663170
Si Si2 0.023827 0.793923 0.741677
Si Si3 0.438832 0.008683 0.070194
Si Si4 0.239163 0.421123 0.369949
Si Si5 0.379220 0.616381 0.039035
Si Si6 0.675470 0.592641 0.582226
Si Si7 0.971396 0.274523 0.128452
Si Si8 0.851263 0.911783 0.194521
O O1 0.434845 0.843309 0.719082
O O2 0.564097 0.982938 0.429681
O O3 0.091866 0.249492 0.884311
O O4 0.159268 0.927566 0.653925
O O5 0.207691 0.551256 0.548508
O O6 0.947207 0.794038 0.965626
O O7 0.737997 0.926377 0.840743
O O8 0.354176 0.165959 0.278186
O O9 0.217640 0.169949 0.090948
O O10 0.858896 0.124285 0.186358
O O11 0.411156 0.458752 0.146200
O O12 0.939728 0.545346 0.494609
O O13 0.075940 0.752393 0.171499
O O14 0.430879 0.795757 0.077383
O O15 0.563639 0.501401 0.770314
O O16 0.750727 0.495562 0.360148
#
# Coordination Sequence:
#
# PCOD9000175 Si02
#       8
#     1   1   1   1   1   1   1   1
#     4  11  21  40  64  90 131 168 204 261 323 375
#     4  11  23  41  61  92 139 166 201 270 316 388
#     4  10  22  43  63  95 130 161 217 261 315 381
#     4  11  24  41  69  93 129 173 211 264 324 372
#     4  11  21  44  70  95 124 170 218 271 310 373
#     4  11  20  41  64  95 129 157 223 267 306 382
#     4   9  21  39  64  92 119 165 213 265 306 373
#     4  10  22  41  65  92 127 168 211 265 320 366
#
# _framework density 24.641044999999998
#
# number of rings (size 3 to 8) (size 9 to 14) (size 15 to 20)
#    0.000    1.500    6.250    0.000    1.750    4.000 
#    4.500    0.000    2.750    0.000    0.000    0.000 
#    0.000    0.000    0.000    0.000    0.000    0.000 
#
# Total GULP energy -44738.050741 kJ/mol
# GULP energy per Si atom -5592.256343 kJ/mol
# Density = 2.458496 g / cm^3
# Si number density = 24.641045 Si / 1000 Ang^3
#
#
#
# Elastic Constant Matrix: (Units=GPa)
#
#
# Indices 1 2 3 4 5 6 
#
# 1 106.0092 25.4332 60.2540 -0.9388 -14.2517 30.1878
# 2 25.4332 41.0798 33.3393 3.9420 0.5819 9.8903
# 3 60.2540 33.3393 184.6700 7.7253 7.8781 38.2652
# 4 -0.9388 3.9420 7.7253 46.8753 18.9239 3.2692
# 5 -14.2517 0.5819 7.8781 18.9239 48.7213 3.8422
# 6 30.1878 9.8903 38.2652 3.2692 3.8422 25.5244
#
#
#
# Elastic Compliance Matrix: (Units=1/GPa)
#
#
# Indices 1 2 3 4 5 6 
#
# 1 0.017420 -0.005543 -0.001350 -0.000563 0.006971 -0.017409
# 2 -0.005543 0.030888 -0.003786 -0.001840 -0.000711 0.000606
# 3 -0.001350 -0.003786 0.008582 -0.000066 -0.000950 -0.009651
# 4 -0.000563 -0.001840 -0.000066 0.025559 -0.010037 -0.000285
# 5 0.006971 -0.000711 -0.000950 -0.010037 0.027364 -0.009378
# 6 -0.017409 0.000606 -0.009651 -0.000285 -0.009378 0.075449
#
#
# Mechanical properties :
#
#
# Convention : Reuss Voigt Hill
#
# Bulk Modulus (GPa) = 28.14325 63.31244 45.72785
# Shear Modulus (GPa) = 22.88702 38.40637 30.64669
#
# Velocity S-wave (km/s) = 3.05096 3.95224 3.53047
# Velocity P-wave (km/s) = 4.88438 6.82470 5.93438
#
# Compressibility (1/GPa) = 0.03553249
#
# Stress axis : x y z
#
# Youngs Moduli (GPa) = 57.40617 32.37501 116.52274
#
# Poissons Ratio (x) = 0.17946 0.15726
# Poissons Ratio (y) = 0.31820 0.44115
# Poissons Ratio (z) = 0.07748 0.12257
#
# Static dielectric constant tensor:
#      x y z
#    x 1.989340 -0.005480 0.042250 
#    y -0.005480 1.949520 0.000700 
#    z 0.042250 0.000700 1.976720 
# 
# From -- ./inp_files/4075.got.cif
#   From: 2010.05.17/outbox.cif.g08.bks.cpg/sg1_3_cif.got.tgz:4075.got - 2010.05.17 20:27:59.
