data_PCOD9000081
_publ_section_title
;
Structure prediction by ZEFSAII (Michael W. Deem and Ramdas Pophale) SiO2 
 PCOD9000081
Probable space group: P 1
;
_chemical_formula_sum "Si O2"
_cell_formula_units_Z 8
_cell_length_a 11.144864
_cell_length_b 7.712299
_cell_length_c 7.975662
_cell_angle_alpha 128.946025
_cell_angle_beta 55.907848
_cell_angle_gamma 142.434934
_cell_volume 322.233361
_symmetry_space_group_name_H-M "P 1"
_symmetry_group_IT_number 1
_symmetry_cell_setting 'triclinic'
loop_
_space_group_symop_operation_xyz
x,y,z
loop_
_atom_site_type_symbol
_atom_site_label
_atom_site_fract_x
_atom_site_fract_y
_atom_site_fract_z
Si Si1 0.162310 0.981940 0.049370
Si Si2 0.729032 0.963879 0.819420
Si Si3 0.501543 0.301768 0.734637
Si Si4 0.331191 0.302811 0.444589
Si Si5 0.175890 0.509239 0.911635
Si Si6 0.621009 0.255989 0.297127
Si Si7 0.039908 0.623666 0.374805
Si Si8 0.825884 0.419494 0.766451
O O1 0.231385 0.221867 0.289447
O O2 0.209045 0.789964 0.979319
O O3 0.942028 0.698468 0.979047
O O4 0.297742 0.162140 0.890196
O O5 0.622808 0.623249 0.740794
O O6 0.762090 0.115162 0.706866
O O7 0.956698 0.188255 0.840970
O O8 0.609710 0.027500 0.053305
O O9 0.493869 0.107075 0.477837
O O10 0.636821 0.352487 0.807845
O O11 0.183305 0.982485 0.463504
O O12 0.328205 0.515672 0.694252
O O13 0.537318 0.380272 0.334254
O O14 0.149621 0.530823 0.143372
O O15 0.848327 0.487825 0.326433
O O16 0.964181 0.516729 0.556649
#
# Coordination Sequence:
#
# PCOD9000081 Si02
#       8
#     1   1   1   1   1   1   1   1
#     4  10  23  40  62  95 133 167 213 268 319 382
#     4  10  22  42  65  93 130 170 213 261 322 383
#     4  11  23  41  65  95 129 169 214 263 322 381
#     4  11  21  39  66  96 130 170 215 264 321 383
#     4   9  20  40  65  95 128 169 217 263 319 383
#     4  10  22  39  61  91 130 167 209 265 315 375
#     4   9  20  40  63  90 129 169 213 268 320 378
#     4  10  21  43  67  93 131 169 212 268 320 379
#
# _framework density 24.826727000000002
#
# number of rings (size 3 to 8) (size 9 to 14) (size 15 to 20)
#    0.000    2.000    0.000    3.750    0.000    4.000 
#    0.000   23.750    0.000    0.000    0.000    0.000 
#    0.000    0.000    0.000    0.000    0.000    0.000 
#
# Total GULP energy -44698.939228 kJ/mol
# GULP energy per Si atom -5587.367404 kJ/mol
# Density = 2.477022 g / cm^3
# Si number density = 24.826727 Si / 1000 Ang^3
#
#
#
# Elastic Constant Matrix: (Units=GPa)
#
#
# Indices 1 2 3 4 5 6 
#
# 1 77.9886 3.0830 33.8728 1.1789 11.9852 15.4707
# 2 3.0830 105.9784 16.9847 -20.5043 12.4143 -8.3622
# 3 33.8728 16.9847 151.0748 -9.0523 3.6295 3.0931
# 4 1.1789 -20.5043 -9.0523 36.4176 -0.6398 3.0152
# 5 11.9852 12.4143 3.6295 -0.6398 43.7438 -6.1818
# 6 15.4707 -8.3622 3.0931 3.0152 -6.1818 29.0784
#
#
#
# Elastic Compliance Matrix: (Units=1/GPa)
#
#
# Indices 1 2 3 4 5 6 
#
# 1 0.017265 -0.000203 -0.003553 -0.000830 -0.005805 -0.010014
# 2 -0.000203 0.011201 -0.000844 0.005870 -0.002649 0.002247
# 3 -0.003553 -0.000844 0.007564 0.001463 0.000727 0.000846
# 4 -0.000830 0.005870 0.001463 0.031260 -0.001322 -0.001548
# 5 -0.005805 -0.002649 0.000727 -0.001322 0.026249 0.007967
# 6 -0.010014 0.002247 0.000846 -0.001548 0.007967 0.042128
#
#
# Mechanical properties :
#
#
# Convention : Reuss Voigt Hill
#
# Bulk Modulus (GPa) = 37.27557 49.21365 43.24461
# Shear Modulus (GPa) = 32.50753 40.58806 36.54780
#
# Velocity S-wave (km/s) = 3.62246 4.04772 3.84098
# Velocity P-wave (km/s) = 5.70466 6.45842 6.09321
#
# Compressibility (1/GPa) = 0.02682722
#
# Stress axis : x y z
#
# Youngs Moduli (GPa) = 57.92091 89.28124 132.21023
#
# Poissons Ratio (x) = 0.01816 0.46979
# Poissons Ratio (y) = 0.01178 0.11162
# Poissons Ratio (z) = 0.20581 0.07537
#
# Static dielectric constant tensor:
#      x y z
#    x 2.062930 0.086780 0.011100 
#    y 0.086780 1.965990 0.022160 
#    z 0.011100 0.022160 2.028950 
# 
# From -- ./inp_files/5419.got.cif
#   From: 2010.05.17/outbox.cif.g08.bks.cpg/sg1_3_cif.got.tgz:5419.got - 2010.05.17 20:27:59.
