data_PCOD9000981
_publ_section_title
;
Structure prediction by ZEFSAII (Michael W. Deem and Ramdas Pophale) SiO2 
 PCOD9000981
Probable space group: P 1
;
_chemical_formula_sum "Si O2"
_cell_formula_units_Z 8
_cell_length_a 7.754740
_cell_length_b 11.793676
_cell_length_c 9.242464
_cell_angle_alpha 141.188431
_cell_angle_beta 144.999855
_cell_angle_gamma 54.488504
_cell_volume 299.975972
_symmetry_space_group_name_H-M "P 1"
_symmetry_group_IT_number 1
_symmetry_cell_setting 'triclinic'
loop_
_space_group_symop_operation_xyz
x,y,z
loop_
_atom_site_type_symbol
_atom_site_label
_atom_site_fract_x
_atom_site_fract_y
_atom_site_fract_z
Si Si1 0.215260 0.354090 0.298540
Si Si2 0.288956 0.156982 0.879585
Si Si3 0.863877 0.736014 0.490121
Si Si4 0.542050 0.848500 0.112053
Si Si5 0.525452 0.537407 0.303923
Si Si6 0.729674 0.894415 0.959250
Si Si7 0.107716 0.077317 0.171057
Si Si8 0.903862 0.432728 0.884193
O O1 0.250432 0.174076 0.043861
O O2 0.105019 0.277008 0.301720
O O3 0.562871 0.451889 0.639917
O O4 0.993702 0.440151 0.123831
O O5 0.528459 0.332793 0.161805
O O6 0.980533 0.230397 0.690190
O O7 0.435934 0.978287 0.779848
O O8 0.633595 0.581199 0.259698
O O9 0.215103 0.716318 0.738586
O O10 0.864254 0.929094 0.769231
O O11 0.687272 0.879080 0.085596
O O12 0.769625 0.772036 0.299916
O O13 0.431006 0.020152 0.290221
O O14 0.725632 0.692497 0.691342
O O15 0.173928 0.559855 0.113058
O O16 0.021269 0.029444 0.229345
#
# Coordination Sequence:
#
# PCOD9000981 Si02
#       8
#     1   1   1   1   1   1   1   1
#     4   9  17  35  61  84 130 164 202 258 322 362
#     4   8  19  36  66  90 130 164 207 268 316 375
#     4   9  20  39  61  89 138 169 200 282 316 368
#     4  10  21  39  62  96 134 162 217 269 318 380
#     4   8  20  40  65  98 127 168 219 260 321 386
#     4  11  19  43  66 101 120 178 213 263 326 384
#     4   9  21  35  63  96 125 165 217 260 313 387
#     4   8  19  35  64  84 124 172 193 266 318 360
#
# _framework density 26.668801999999999
#
# number of rings (size 3 to 8) (size 9 to 14) (size 15 to 20)
#    2.250    0.500    1.250    0.000    1.750    2.000 
#    4.500    2.500    0.000    3.000    0.000    0.000 
#    0.000    0.000    0.000    0.000    0.000    0.000 
#
# Total GULP energy -44657.233351 kJ/mol
# GULP energy per Si atom -5582.154169 kJ/mol
# Density = 2.660810 g / cm^3
# Si number density = 26.668802 Si / 1000 Ang^3
#
#
#
# Elastic Constant Matrix: (Units=GPa)
#
#
# Indices 1 2 3 4 5 6 
#
# 1 218.3128 57.4871 27.6128 -11.1589 31.0323 32.1089
# 2 57.4871 150.5408 21.5873 -7.8111 3.6688 9.4359
# 3 27.6128 21.5873 66.0519 1.0716 13.3967 15.8324
# 4 -11.1589 -7.8111 1.0716 24.7134 2.6126 0.1388
# 5 31.0323 3.6688 13.3967 2.6126 40.4985 12.2420
# 6 32.1089 9.4359 15.8324 0.1388 12.2420 39.0058
#
#
#
# Elastic Compliance Matrix: (Units=1/GPa)
#
#
# Indices 1 2 3 4 5 6 
#
# 1 0.006294 -0.001891 -0.000508 0.002669 -0.003632 -0.003387
# 2 -0.001891 0.007698 -0.002039 0.001530 0.001294 0.000111
# 3 -0.000508 -0.002039 0.018052 -0.001232 -0.003734 -0.005239
# 4 0.002669 0.001530 -0.001232 0.042662 -0.004262 -0.000881
# 5 -0.003632 0.001294 -0.003734 -0.004262 0.030489 -0.005362
# 6 -0.003387 0.000111 -0.005239 -0.000881 -0.005362 0.032211
#
#
# Mechanical properties :
#
#
# Convention : Reuss Voigt Hill
#
# Bulk Modulus (GPa) = 43.16493 72.03111 57.59802
# Shear Modulus (GPa) = 32.46679 42.72476 37.59577
#
# Velocity S-wave (km/s) = 3.49292 4.00690 3.75871
# Velocity P-wave (km/s) = 5.69983 6.96241 6.36252
#
# Compressibility (1/GPa) = 0.02316696
#
# Stress axis : x y z
#
# Youngs Moduli (GPa) = 158.89184 129.89949 55.39678
#
# Poissons Ratio (x) = 0.24567 0.02813
# Poissons Ratio (y) = 0.30050 0.11296
# Poissons Ratio (z) = 0.08069 0.26489
#
# Static dielectric constant tensor:
#      x y z
#    x 2.112000 -0.048570 -0.059780 
#    y -0.048570 2.123290 0.098780 
#    z -0.059780 0.098780 2.238660 
# 
# From -- ./inp_files/4756.got.cif
#   From: 2010.05.17/outbox.cif.g08.bks.cpg/sg1_3_cif.got.tgz:4756.got - 2010.05.17 20:27:59.
