data_PCOD9000452
_publ_section_title
;
Structure prediction by ZEFSAII (Michael W. Deem and Ramdas Pophale) SiO2 
 PCOD9000452
Probable space group: P 1
;
_chemical_formula_sum "Si O2"
_cell_formula_units_Z 8
_cell_length_a 5.112642
_cell_length_b 14.530813
_cell_length_c 5.061288
_cell_angle_alpha 77.704007
_cell_angle_beta 93.305881
_cell_angle_gamma 123.363284
_cell_volume 306.022190
_symmetry_space_group_name_H-M "P 1"
_symmetry_group_IT_number 1
_symmetry_cell_setting 'triclinic'
loop_
_space_group_symop_operation_xyz
x,y,z
loop_
_atom_site_type_symbol
_atom_site_label
_atom_site_fract_x
_atom_site_fract_y
_atom_site_fract_z
Si Si1 0.442390 0.855970 0.631560
Si Si2 0.240457 0.121060 0.062556
Si Si3 0.464760 0.067866 0.613394
Si Si4 0.091759 0.740404 0.197852
Si Si5 0.084135 0.252727 0.298642
Si Si6 0.315794 0.452417 0.806504
Si Si7 0.654133 0.345009 0.663222
Si Si8 0.514751 0.683857 0.524017
O O1 0.308984 0.849198 0.334210
O O2 0.641385 0.800606 0.620901
O O3 0.556457 0.976662 0.679561
O O4 0.181293 0.769637 0.881466
O O5 0.241634 0.055988 0.845819
O O6 0.007407 0.157823 0.126444
O O7 0.539770 0.246415 0.934147
O O8 0.277913 0.059692 0.346236
O O9 0.794579 0.188824 0.522128
O O10 0.206762 0.662956 0.369172
O O11 0.747884 0.696309 0.302009
O O12 0.174415 0.368557 0.097806
O O13 0.400455 0.283586 0.451762
O O14 0.573902 0.432629 0.718617
O O15 0.446396 0.582473 0.769944
O O16 0.023478 0.407435 0.616609
#
# Coordination Sequence:
#
# PCOD9000452 Si02
#       8
#     1   1   1   1   1   1   1   1
#     4  10  26  45  75 109 145 196 245 307 365 444
#     4  11  24  43  68 104 148 191 240 299 359 443
#     4  12  24  46  73 108 148 197 242 303 371 442
#     4  10  24  48  74 103 148 186 249 302 370 425
#     4  11  26  44  73 110 155 192 247 303 374 449
#     4  11  24  46  75 111 147 199 243 309 372 447
#     4  11  23  44  72 108 150 194 243 301 369 443
#     4  10  25  48  74 109 145 191 245 310 364 441
#
# _framework density 26.141897
#
# number of rings (size 3 to 8) (size 9 to 14) (size 15 to 20)
#    0.750    0.500    2.500    2.250    3.500    3.000 
#    2.250    2.500    0.000    0.000    0.000    0.000 
#    0.000    0.000    0.000    0.000    0.000    0.000 
#
# Total GULP energy -44696.539710 kJ/mol
# GULP energy per Si atom -5587.067464 kJ/mol
# Density = 2.608240 g / cm^3
# Si number density = 26.141897 Si / 1000 Ang^3
#
#
#
# Elastic Constant Matrix: (Units=GPa)
#
#
# Indices 1 2 3 4 5 6 
#
# 1 118.5538 14.8723 40.4165 -10.3978 -7.7872 -27.7500
# 2 14.8723 94.3954 30.8083 -29.1369 9.2150 -35.4498
# 3 40.4165 30.8083 144.1752 4.8491 -13.1527 -21.7919
# 4 -10.3978 -29.1369 4.8491 39.0410 -10.5008 7.2316
# 5 -7.7872 9.2150 -13.1527 -10.5008 31.1950 -0.2960
# 6 -27.7500 -35.4498 -21.7919 7.2316 -0.2960 37.2562
#
#
#
# Elastic Compliance Matrix: (Units=1/GPa)
#
#
# Indices 1 2 3 4 5 6 
#
# 1 0.011864 0.004332 -0.002639 0.005475 0.002511 0.010373
# 2 0.004332 0.023774 -0.003890 0.014918 -0.002364 0.020659
# 3 -0.002639 -0.003890 0.008966 -0.004002 0.002927 0.000378
# 4 0.005475 0.014918 -0.004002 0.039483 0.008642 0.008336
# 5 0.002511 -0.002364 0.002927 0.008642 0.037524 -0.000047
# 6 0.010373 0.020659 0.000378 0.008336 -0.000047 0.052827
#
#
# Mechanical properties :
#
#
# Convention : Reuss Voigt Hill
#
# Bulk Modulus (GPa) = 24.86816 58.81320 41.84068
# Shear Modulus (GPa) = 26.00987 39.56694 32.78840
#
# Velocity S-wave (km/s) = 3.15770 3.89465 3.54538
# Velocity P-wave (km/s) = 4.77789 6.53995 5.72709
#
# Compressibility (1/GPa) = 0.04021206
#
# Stress axis : x y z
#
# Youngs Moduli (GPa) = 84.28705 42.06205 111.53746
#
# Poissons Ratio (x) = -0.18223 0.29433
# Poissons Ratio (y) = -0.36516 0.43383
# Poissons Ratio (z) = 0.22242 0.16360
#
# Static dielectric constant tensor:
#      x y z
#    x 2.065790 -0.012750 0.027360 
#    y -0.012750 2.106200 0.073110 
#    z 0.027360 0.073110 2.023670 
# 
# From -- ./inp_files/511.got.cif
#   From: 2010.05.17/outbox.cif.g08.bks.cpg/sg1_1_cif.got.tgz:511.got - 2010.05.17 20:27:59.
