data_PCOD9000746
_publ_section_title
;
Structure prediction by ZEFSAII (Michael W. Deem and Ramdas Pophale) SiO2 
 PCOD9000746
Probable space group: P 1
;
_chemical_formula_sum "Si O2"
_cell_formula_units_Z 8
_cell_length_a 11.225780
_cell_length_b 9.273414
_cell_length_c 13.151964
_cell_angle_alpha 32.224933
_cell_angle_beta 146.745917
_cell_angle_gamma 139.647765
_cell_volume 393.290707
_symmetry_space_group_name_H-M "P 1"
_symmetry_group_IT_number 1
_symmetry_cell_setting 'triclinic'
loop_
_space_group_symop_operation_xyz
x,y,z
loop_
_atom_site_type_symbol
_atom_site_label
_atom_site_fract_x
_atom_site_fract_y
_atom_site_fract_z
Si Si1 0.267560 0.053890 0.861660
Si Si2 0.817565 0.232807 0.386106
Si Si3 0.439953 0.699047 0.030802
Si Si4 0.080451 0.345700 0.868241
Si Si5 0.651046 0.215166 0.511060
Si Si6 0.357156 0.952167 0.196547
Si Si7 0.354436 0.674692 0.581933
Si Si8 0.898368 0.794217 0.180758
O O1 0.385514 0.362890 0.792236
O O2 0.038691 0.108814 0.616797
O O3 0.401691 0.914288 0.959302
O O4 0.233568 0.872503 0.049253
O O5 0.736072 0.218545 0.453957
O O6 0.851317 0.561859 0.195611
O O7 0.614379 0.048494 0.294426
O O8 0.221923 0.621139 0.851603
O O9 0.468173 0.405764 0.273628
O O10 0.670927 0.785424 0.083926
O O11 0.858859 0.349564 0.645676
O O12 0.254915 0.211954 0.006921
O O13 0.990779 0.104411 0.028676
O O14 0.536561 0.899159 0.634214
O O15 0.345610 0.761626 0.402968
O O16 0.113857 0.698796 0.441175
#
# Coordination Sequence:
#
# PCOD9000746 Si02
#       8
#     1   1   1   1   1   1   1   1
#     4  11  23  38  64  90 130 164 194 263 330 344
#     4   9  18  36  62  87 118 154 207 255 292 372
#     4  11  23  42  56  95 129 157 201 262 314 365
#     4  11  20  37  68  89 115 169 209 251 307 364
#     4  10  19  38  64  90 117 161 212 250 298 373
#     4  10  19  39  65  92 117 161 214 254 296 375
#     4   9  20  40  65  95 117 162 223 248 296 386
#     4   9  18  38  62  84 121 158 204 259 291 365
#
# _framework density 20.341187999999999
#
# number of rings (size 3 to 8) (size 9 to 14) (size 15 to 20)
#    0.000    2.000    6.250    0.000    1.750    1.000 
#    6.750    0.000    0.000    0.000    0.000    0.000 
#    0.000    0.000    0.000    0.000    0.000    0.000 
#
# Total GULP energy -44547.050458 kJ/mol
# GULP energy per Si atom -5568.381307 kJ/mol
# Density = 2.029489 g / cm^3
# Si number density = 20.341188 Si / 1000 Ang^3
#
#
#
# Elastic Constant Matrix: (Units=GPa)
#
#
# Indices 1 2 3 4 5 6 
#
# 1 73.8465 40.0858 30.9516 -4.8484 14.1501 2.1788
# 2 40.0858 93.7068 29.8545 11.2659 7.2522 16.4684
# 3 30.9516 29.8545 78.0443 10.3602 9.0800 -5.8423
# 4 -4.8484 11.2659 10.3602 28.1680 -4.1933 3.6718
# 5 14.1501 7.2522 9.0800 -4.1933 24.9734 1.2396
# 6 2.1788 16.4684 -5.8423 3.6718 1.2396 26.8207
#
#
#
# Elastic Compliance Matrix: (Units=1/GPa)
#
#
# Indices 1 2 3 4 5 6 
#
# 1 0.022340 -0.008364 -0.005863 0.008175 -0.006786 0.001238
# 2 -0.008364 0.017864 -0.003546 -0.005887 0.000362 -0.010273
# 3 -0.005863 -0.003546 0.018663 -0.008126 -0.004196 0.008026
# 4 0.008175 -0.005887 -0.008126 0.044076 0.007691 -0.005209
# 5 -0.006786 0.000362 -0.004196 0.007691 0.046788 -0.003800
# 6 0.001238 -0.010273 0.008026 -0.005209 -0.003800 0.046129
#
#
# Mechanical properties :
#
#
# Convention : Reuss Voigt Hill
#
# Bulk Modulus (GPa) = 42.88150 49.70906 46.29528
# Shear Modulus (GPa) = 20.90478 25.63947 23.27212
#
# Velocity S-wave (km/s) = 3.20926 3.55416 3.38611
# Velocity P-wave (km/s) = 5.90418 6.42911 6.17223
#
# Compressibility (1/GPa) = 0.02332008
#
# Stress axis : x y z
#
# Youngs Moduli (GPa) = 44.76347 55.97733 53.58219
#
# Poissons Ratio (x) = 0.46817 0.31418
# Poissons Ratio (y) = 0.37438 0.19002
# Poissons Ratio (z) = 0.26247 0.19852
#
# Static dielectric constant tensor:
#      x y z
#    x 1.746790 0.037420 -0.076750 
#    y 0.037420 1.791640 0.031950 
#    z -0.076750 0.031950 1.768740 
# 
# From -- ./inp_files/3747.got.cif
#   From: 2010.05.17/outbox.cif.g08.bks.cpg/sg1_2_cif.got.tgz:3747.got - 2010.05.17 20:27:59.
