data_PCOD9000494
_publ_section_title
;
Structure prediction by ZEFSAII (Michael W. Deem and Ramdas Pophale) SiO2 
 PCOD9000494
Probable space group: P 1
;
_chemical_formula_sum "Si O2"
_cell_formula_units_Z 8
_cell_length_a 7.057823
_cell_length_b 9.883220
_cell_length_c 5.055550
_cell_angle_alpha 69.323750
_cell_angle_beta 102.693949
_cell_angle_gamma 75.197246
_cell_volume 299.669282
_symmetry_space_group_name_H-M "P 1"
_symmetry_group_IT_number 1
_symmetry_cell_setting 'triclinic'
loop_
_space_group_symop_operation_xyz
x,y,z
loop_
_atom_site_type_symbol
_atom_site_label
_atom_site_fract_x
_atom_site_fract_y
_atom_site_fract_z
Si Si1 0.792730 0.956620 0.214020
Si Si2 0.272752 0.443588 0.217971
Si Si3 0.094953 0.040633 0.632607
Si Si4 0.939828 0.617825 0.643514
Si Si5 0.514263 0.090607 0.533650
Si Si6 0.881032 0.386942 0.406044
Si Si7 0.596000 0.664956 0.885333
Si Si8 0.333526 0.747202 0.234919
O O1 0.603679 0.012267 0.334848
O O2 0.908909 0.770386 0.363765
O O3 0.686037 0.025143 0.859102
O O4 0.962287 0.014407 0.365686
O O5 0.307506 0.584447 0.279673
O O6 0.080834 0.408994 0.316023
O O7 0.451631 0.276478 0.369638
O O8 0.176861 0.520580 0.856612
O O9 0.951422 0.205872 0.598665
O O10 0.305861 0.059873 0.576250
O O11 0.152867 0.899749 0.959010
O O12 0.852102 0.492863 0.582897
O O13 0.799719 0.685344 0.813728
O O14 0.680635 0.479413 0.099994
O O15 0.416012 0.735913 0.565498
O O16 0.517260 0.742845 0.087851
#
# Coordination Sequence:
#
# PCOD9000494 Si02
#       8
#     1   1   1   1   1   1   1   1
#     4  12  28  49  81 109 152 198 252 306 376 442
#     4  10  26  44  73 104 150 189 241 302 376 433
#     4  11  27  52  74 117 149 198 249 316 367 443
#     4  11  23  49  74 107 146 196 243 302 374 442
#     4  11  29  49  75 114 153 195 248 313 373 441
#     4  10  25  49  74 106 148 194 241 307 372 437
#     4  11  25  44  74 103 144 190 245 298 370 436
#     4  12  25  46  73 108 142 192 245 304 362 446
#
# _framework density 26.696093999999999
#
# number of rings (size 3 to 8) (size 9 to 14) (size 15 to 20)
#    0.000    1.000    2.500    1.500   12.250    2.000 
#    6.750    0.000    0.000    0.000    0.000    0.000 
#    0.000    0.000    0.000    0.000    0.000    0.000 
#
# Total GULP energy -44835.531144 kJ/mol
# GULP energy per Si atom -5604.441393 kJ/mol
# Density = 2.663533 g / cm^3
# Si number density = 26.696094 Si / 1000 Ang^3
#
#
#
# Elastic Constant Matrix: (Units=GPa)
#
#
# Indices 1 2 3 4 5 6 
#
# 1 107.7714 27.7331 37.4986 -16.0798 2.6355 8.4677
# 2 27.7331 176.9372 78.0322 -37.9417 -0.3027 15.3374
# 3 37.4986 78.0322 159.4056 -16.3756 14.7349 3.2608
# 4 -16.0798 -37.9417 -16.3756 63.8452 -1.9821 -4.5490
# 5 2.6355 -0.3027 14.7349 -1.9821 49.0838 0.4695
# 6 8.4677 15.3374 3.2608 -4.5490 0.4695 50.0097
#
#
#
# Elastic Compliance Matrix: (Units=1/GPa)
#
#
# Indices 1 2 3 4 5 6 
#
# 1 0.010466 -0.000149 -0.002182 0.001892 0.000182 -0.001414
# 2 -0.000149 0.008314 -0.003724 0.003852 0.001351 -0.001944
# 3 -0.002182 -0.003724 0.008775 -0.000527 -0.002570 0.000916
# 4 0.001892 0.003852 -0.000527 0.018332 0.000819 0.000193
# 5 0.000182 0.001351 -0.002570 0.000819 0.021180 -0.000402
# 6 -0.001414 -0.001944 0.000916 0.000193 -0.000402 0.020793
#
#
# Mechanical properties :
#
#
# Convention : Reuss Voigt Hill
#
# Bulk Modulus (GPa) = 64.75694 81.18244 72.96969
# Shear Modulus (GPa) = 47.56458 52.64444 50.10451
#
# Velocity S-wave (km/s) = 4.22560 4.44553 4.33696
# Velocity P-wave (km/s) = 6.93667 7.53831 7.24374
#
# Compressibility (1/GPa) = 0.01544236
#
# Stress axis : x y z
#
# Youngs Moduli (GPa) = 95.55098 120.27296 113.96566
#
# Poissons Ratio (x) = 0.01796 0.24872
# Poissons Ratio (y) = 0.01426 0.42446
# Poissons Ratio (z) = 0.20853 0.44795
#
# Static dielectric constant tensor:
#      x y z
#    x 2.197870 -0.042700 -0.008560 
#    y -0.042700 2.086600 0.011280 
#    z -0.008560 0.011280 2.080400 
# 
# From -- ./inp_files/1519.got.cif
#   From: 2010.05.17/outbox.cif.g08.bks.cpg/sg1_1_cif.got.tgz:1519.got - 2010.05.17 20:27:59.
