data_PCOD9000252
_publ_section_title
;
Structure prediction by ZEFSAII (Michael W. Deem and Ramdas Pophale) SiO2 
 PCOD9000252
Probable space group: P 1
;
_chemical_formula_sum "Si O2"
_cell_formula_units_Z 8
_cell_length_a 12.157475
_cell_length_b 7.467020
_cell_length_c 8.833136
_cell_angle_alpha 48.707958
_cell_angle_beta 144.922877
_cell_angle_gamma 110.254193
_cell_volume 309.380670
_symmetry_space_group_name_H-M "P 1"
_symmetry_group_IT_number 1
_symmetry_cell_setting 'triclinic'
loop_
_space_group_symop_operation_xyz
x,y,z
loop_
_atom_site_type_symbol
_atom_site_label
_atom_site_fract_x
_atom_site_fract_y
_atom_site_fract_z
Si Si1 0.038640 0.175500 0.228460
Si Si2 0.230948 0.412042 0.107379
Si Si3 0.562621 0.649402 0.392379
Si Si4 0.635776 0.286994 0.268562
Si Si5 0.871416 0.872532 0.036581
Si Si6 0.735676 0.750091 0.252341
Si Si7 0.346805 0.072013 0.147147
Si Si8 0.945251 0.273327 0.403334
O O1 0.192986 0.304216 0.284031
O O2 0.039468 0.132716 0.430716
O O3 0.062361 0.935028 0.279249
O O4 0.796019 0.401501 0.797659
O O5 0.383271 0.555105 0.202786
O O6 0.333524 0.154624 0.257980
O O7 0.989666 0.597611 0.668448
O O8 0.592317 0.838498 0.193042
O O9 0.507324 0.791376 0.413718
O O10 0.657224 0.540415 0.214600
O O11 0.407844 0.286691 0.013371
O O12 0.735533 0.252949 0.233347
O O13 0.764295 0.058026 0.667338
O O14 0.920215 0.573182 0.212955
O O15 0.732251 0.927256 0.006114
O O16 0.114943 0.116897 0.811330
#
# Coordination Sequence:
#
# PCOD9000252 Si02
#       8
#     1   1   1   1   1   1   1   1
#     4  11  25  46  70 102 138 187 229 279 347 411
#     4  11  22  47  70 101 141 178 233 280 341 411
#     4  11  25  43  72 106 138 182 232 285 342 408
#     4  11  22  47  71  96 143 180 226 284 344 403
#     4  11  21  45  74  95 134 188 226 277 346 403
#     4  10  22  44  71  99 139 184 225 281 342 410
#     4  12  24  42  71 103 138 181 225 289 342 400
#     4  11  27  44  67 108 137 180 232 283 342 412
#
# _framework density 25.85811
#
# number of rings (size 3 to 8) (size 9 to 14) (size 15 to 20)
#    0.000    1.000    6.250    0.750    3.500    4.000 
#    2.250    6.250    0.000    0.000    0.000    0.000 
#    0.000    0.000    0.000    0.000    0.000    0.000 
#
# Total GULP energy -44754.939302 kJ/mol
# GULP energy per Si atom -5594.367413 kJ/mol
# Density = 2.579926 g / cm^3
# Si number density = 25.858110 Si / 1000 Ang^3
#
#
#
# Elastic Constant Matrix: (Units=GPa)
#
#
# Indices 1 2 3 4 5 6 
#
# 1 153.2100 40.2705 22.8512 -3.1069 -1.7368 10.7237
# 2 40.2705 129.3671 12.7606 6.8438 6.2637 1.9773
# 3 22.8512 12.7606 58.7713 2.6690 -5.7431 -2.3734
# 4 -3.1069 6.8438 2.6690 37.9560 10.1011 1.1698
# 5 -1.7368 6.2637 -5.7431 10.1011 35.4174 6.8094
# 6 10.7237 1.9773 -2.3734 1.1698 6.8094 49.7168
#
#
#
# Elastic Compliance Matrix: (Units=1/GPa)
#
#
# Indices 1 2 3 4 5 6 
#
# 1 0.007634 -0.002173 -0.002587 0.001161 0.000346 -0.001759
# 2 -0.002173 0.008652 -0.001112 -0.001266 -0.001515 0.000309
# 3 -0.002587 -0.001112 0.018759 -0.002312 0.003567 0.001064
# 4 0.001161 -0.001266 -0.002312 0.029067 -0.008414 0.000158
# 5 0.000346 -0.001515 0.003567 -0.008414 0.032280 -0.004067
# 6 -0.001759 0.000309 0.001064 0.000158 -0.004067 0.021085
#
#
# Mechanical properties :
#
#
# Convention : Reuss Voigt Hill
#
# Bulk Modulus (GPa) = 42.91354 54.79033 48.85194
# Shear Modulus (GPa) = 36.50024 42.31579 39.40801
#
# Velocity S-wave (km/s) = 3.76115 4.04971 3.90809
# Velocity P-wave (km/s) = 5.95764 6.56519 6.26878
#
# Compressibility (1/GPa) = 0.02330267
#
# Stress axis : x y z
#
# Youngs Moduli (GPa) = 130.98642 115.58640 53.30872
#
# Poissons Ratio (x) = 0.25113 0.13788
# Poissons Ratio (y) = 0.28459 0.05927
# Poissons Ratio (z) = 0.33880 0.12851
#
# Static dielectric constant tensor:
#      x y z
#    x 2.043710 -0.027980 -0.000740 
#    y -0.027980 2.010230 -0.003370 
#    z -0.000740 -0.003370 2.091590 
# 
# From -- ./inp_files/5350.got.cif
#   From: 2010.05.17/outbox.cif.g08.bks.cpg/sg1_3_cif.got.tgz:5350.got - 2010.05.17 20:27:59.
