data_PCOD9000350
_publ_section_title
;
Structure prediction by ZEFSAII (Michael W. Deem and Ramdas Pophale) SiO2 
 PCOD9000350
Probable space group: P 1
;
_chemical_formula_sum "Si O2"
_cell_formula_units_Z 8
_cell_length_a 6.888896
_cell_length_b 11.250312
_cell_length_c 13.475490
_cell_angle_alpha 151.765336
_cell_angle_beta 42.859864
_cell_angle_gamma 137.320358
_cell_volume 322.861062
_symmetry_space_group_name_H-M "P 1"
_symmetry_group_IT_number 1
_symmetry_cell_setting 'triclinic'
loop_
_space_group_symop_operation_xyz
x,y,z
loop_
_atom_site_type_symbol
_atom_site_label
_atom_site_fract_x
_atom_site_fract_y
_atom_site_fract_z
Si Si1 0.048720 0.202360 0.864470
Si Si2 0.547388 0.179941 0.430168
Si Si3 0.911485 0.028983 0.572938
Si Si4 0.678745 0.651544 0.983299
Si Si5 0.864615 0.505722 0.311600
Si Si6 0.221661 0.482023 0.553779
Si Si7 0.086214 0.650154 0.527477
Si Si8 0.754796 0.963630 0.365332
O O1 0.361127 0.436913 0.926691
O O2 0.894185 0.165904 0.786199
O O3 0.081133 0.932165 0.699454
O O4 0.826624 0.272306 0.078840
O O5 0.520344 0.083271 0.484030
O O6 0.226369 0.192489 0.529874
O O7 0.558067 0.513768 0.484509
O O8 0.649929 0.937081 0.165739
O O9 0.958079 0.756260 0.390558
O O10 0.718291 0.972946 0.503380
O O11 0.971641 0.585202 0.781425
O O12 0.780977 0.458339 0.544208
O O13 0.102738 0.509206 0.311758
O O14 0.731523 0.701126 0.119067
O O15 0.284172 0.635555 0.537470
O O16 0.061963 0.173719 0.372414
#
# Coordination Sequence:
#
# PCOD9000350 Si02
#       8
#     1   1   1   1   1   1   1   1
#     4  11  24  43  75 102 137 186 231 279 354 402
#     4   9  20  45  70  99 134 178 228 283 336 408
#     4  11  22  44  69  98 141 180 227 284 338 410
#     4  10  23  44  72 102 133 184 231 276 346 411
#     4  11  25  43  63 107 143 176 226 291 341 406
#     4  11  24  44  68 102 140 177 232 283 345 408
#     4  10  24  44  69  98 146 179 224 287 347 405
#     4   9  22  41  68 100 136 174 233 279 337 404
#
# _framework density 24.778461
#
# number of rings (size 3 to 8) (size 9 to 14) (size 15 to 20)
#    0.750    1.000    1.250    2.250    1.750    7.000 
#    2.250    2.500    0.000    0.000    0.000    0.000 
#    0.000    0.000    0.000    0.000    0.000    0.000 
#
# Total GULP energy -44544.354059 kJ/mol
# GULP energy per Si atom -5568.044257 kJ/mol
# Density = 2.472206 g / cm^3
# Si number density = 24.778461 Si / 1000 Ang^3
#
#
#
# Elastic Constant Matrix: (Units=GPa)
#
#
# Indices 1 2 3 4 5 6 
#
# 1 130.6717 15.9622 45.9950 -21.1979 33.3808 -38.4417
# 2 15.9622 123.2967 23.7831 -8.9845 9.6655 -4.8135
# 3 45.9950 23.7831 113.1496 -22.2688 27.9991 -1.6529
# 4 -21.1979 -8.9845 -22.2688 30.5364 4.3795 9.0005
# 5 33.3808 9.6655 27.9991 4.3795 35.4700 -14.6702
# 6 -38.4417 -4.8135 -1.6529 9.0005 -14.6702 43.0570
#
#
#
# Elastic Compliance Matrix: (Units=1/GPa)
#
#
# Indices 1 2 3 4 5 6 
#
# 1 0.014332 0.000133 -0.001730 0.007880 -0.009943 0.007709
# 2 0.000133 0.008593 -0.000873 0.002341 -0.002138 -0.000172
# 3 -0.001730 -0.000873 0.017582 0.017265 -0.018668 -0.010937
# 4 0.007880 0.002341 0.017265 0.061870 -0.036526 -0.017418
# 5 -0.009943 -0.002138 -0.018668 -0.036526 0.065733 0.020199
# 6 0.007709 -0.000172 -0.010937 -0.017418 0.020199 0.040192
#
#
# Mechanical properties :
#
#
# Convention : Reuss Voigt Hill
#
# Bulk Modulus (GPa) = 28.11594 59.84429 43.98012
# Shear Modulus (GPa) = 22.21273 40.57119 31.39196
#
# Velocity S-wave (km/s) = 2.99733 4.05082 3.56322
# Velocity P-wave (km/s) = 4.83221 6.78845 5.89208
#
# Compressibility (1/GPa) = 0.03556701
#
# Stress axis : x y z
#
# Youngs Moduli (GPa) = 69.77635 116.37137 56.87607
#
# Poissons Ratio (x) = -0.01547 0.09838
# Poissons Ratio (y) = -0.00927 0.04965
# Poissons Ratio (z) = 0.12070 0.10159
#
# Static dielectric constant tensor:
#      x y z
#    x 2.123610 0.021280 0.014310 
#    y 0.021280 2.052830 -0.042370 
#    z 0.014310 -0.042370 2.018120 
# 
# From -- ./inp_files/5681.got.cif
#   From: 2010.05.17/outbox.cif.g08.bks.cpg/sg1_3_cif.got.tgz:5681.got - 2010.05.17 20:27:59.
