data_PCOD9000928
_publ_section_title
;
Structure prediction by ZEFSAII (Michael W. Deem and Ramdas Pophale) SiO2 
 PCOD9000928
Probable space group: P 1
;
_chemical_formula_sum "Si O2"
_cell_formula_units_Z 8
_cell_length_a 8.321025
_cell_length_b 8.995512
_cell_length_c 5.822445
_cell_angle_alpha 128.031392
_cell_angle_beta 111.698173
_cell_angle_gamma 86.380907
_cell_volume 310.783540
_symmetry_space_group_name_H-M "P 1"
_symmetry_group_IT_number 1
_symmetry_cell_setting 'triclinic'
loop_
_space_group_symop_operation_xyz
x,y,z
loop_
_atom_site_type_symbol
_atom_site_label
_atom_site_fract_x
_atom_site_fract_y
_atom_site_fract_z
Si Si1 0.678120 0.107940 0.937410
Si Si2 0.601759 0.541264 0.655904
Si Si3 0.426676 0.328618 0.748875
Si Si4 0.018861 0.105493 0.356661
Si Si5 0.831743 0.865941 0.416156
Si Si6 0.937326 0.673713 0.690638
Si Si7 0.381951 0.819957 0.735812
Si Si8 0.285315 0.705866 0.079435
O O1 0.551699 0.238394 0.894706
O O2 0.710954 0.955946 0.614228
O O3 0.562500 0.979282 0.949642
O O4 0.872852 0.194069 0.226469
O O5 0.709804 0.711458 0.039891
O O6 0.743193 0.556556 0.543890
O O7 0.530884 0.348748 0.579573
O O8 0.426265 0.608447 0.554140
O O9 0.223727 0.207454 0.530592
O O10 0.406908 0.548589 0.998804
O O11 0.979370 0.888744 0.025945
O O12 0.956049 0.051293 0.533616
O O13 0.942352 0.729925 0.479799
O O14 0.086762 0.585954 0.805208
O O15 0.290699 0.817921 0.432199
O O16 0.320743 0.831631 0.979310
#
# Coordination Sequence:
#
# PCOD9000928 Si02
#       8
#     1   1   1   1   1   1   1   1
#     4  11  22  43  71  98 139 187 228 289 354 413
#     4  10  22  43  70  97 137 181 234 288 346 415
#     4  11  26  44  62 106 145 176 229 293 363 409
#     4  10  23  45  65 106 135 178 237 291 352 412
#     4  10  20  43  74  98 131 185 244 283 340 425
#     4  10  22  42  75  96 132 186 240 285 342 421
#     4  11  22  46  71  98 137 187 243 279 338 426
#     4  11  27  44  70 107 140 184 235 292 347 419
#
# _framework density 25.741387
#
# number of rings (size 3 to 8) (size 9 to 14) (size 15 to 20)
#    0.000    1.500    3.750    2.250    5.250    2.000 
#   15.750    0.000    0.000    0.000    0.000    0.000 
#    0.000    0.000    0.000    0.000    0.000    0.000 
#
# Total GULP energy -44656.496132 kJ/mol
# GULP energy per Si atom -5582.062017 kJ/mol
# Density = 2.568280 g / cm^3
# Si number density = 25.741387 Si / 1000 Ang^3
#
#
#
# Elastic Constant Matrix: (Units=GPa)
#
#
# Indices 1 2 3 4 5 6 
#
# 1 116.3226 63.9253 44.1801 -5.6248 19.3770 11.3758
# 2 63.9253 124.8061 50.0198 -20.4487 17.5734 11.6389
# 3 44.1801 50.0198 126.1937 -12.6069 15.6884 14.1394
# 4 -5.6248 -20.4487 -12.6069 48.1969 -3.3419 8.8161
# 5 19.3770 17.5734 15.6884 -3.3419 47.7392 -2.7556
# 6 11.3758 11.6389 14.1394 8.8161 -2.7556 71.5845
#
#
#
# Elastic Compliance Matrix: (Units=1/GPa)
#
#
# Indices 1 2 3 4 5 6 
#
# 1 0.012872 -0.005583 -0.002038 -0.001462 -0.002640 -0.000657
# 2 -0.005583 0.012864 -0.002383 0.004324 -0.001460 -0.001322
# 3 -0.002038 -0.002383 0.010110 0.001567 -0.001597 -0.001540
# 4 -0.001462 0.004324 0.001567 0.023489 -0.000081 -0.003676
# 5 -0.002640 -0.001460 -0.001597 -0.000081 0.023184 0.001875
# 6 -0.000657 -0.001322 -0.001540 -0.003676 0.001875 0.015118
#
#
# Mechanical properties :
#
#
# Convention : Reuss Voigt Hill
#
# Bulk Modulus (GPa) = 63.13494 75.95252 69.54373
# Shear Modulus (GPa) = 40.67557 47.45060 44.06309
#
# Velocity S-wave (km/s) = 3.97944 4.29809 4.14183
# Velocity P-wave (km/s) = 6.75977 7.36217 7.06739
#
# Compressibility (1/GPa) = 0.01583909
#
# Stress axis : x y z
#
# Youngs Moduli (GPa) = 77.68664 77.73418 98.91280
#
# Poissons Ratio (x) = 0.43399 0.20157
# Poissons Ratio (y) = 0.43372 0.23569
# Poissons Ratio (z) = 0.15832 0.18523
#
# Static dielectric constant tensor:
#      x y z
#    x 2.116080 -0.020770 -0.037050 
#    y -0.020770 2.103510 -0.087770 
#    z -0.037050 -0.087770 2.119700 
# 
# From -- ./inp_files/1338.got.cif
#   From: 2010.05.17/outbox.cif.g08.bks.cpg/sg1_1_cif.got.tgz:1338.got - 2010.05.17 20:27:59.
