data_PCOD9000352
_publ_section_title
;
Structure prediction by ZEFSAII (Michael W. Deem and Ramdas Pophale) SiO2 
 PCOD9000352
Probable space group: P 1
;
_chemical_formula_sum "Si O2"
_cell_formula_units_Z 8
_cell_length_a 8.673705
_cell_length_b 7.868733
_cell_length_c 14.134075
_cell_angle_alpha 144.051372
_cell_angle_beta 145.748402
_cell_angle_gamma 36.471281
_cell_volume 290.917056
_symmetry_space_group_name_H-M "P 1"
_symmetry_group_IT_number 1
_symmetry_cell_setting 'triclinic'
loop_
_space_group_symop_operation_xyz
x,y,z
loop_
_atom_site_type_symbol
_atom_site_label
_atom_site_fract_x
_atom_site_fract_y
_atom_site_fract_z
Si Si1 0.772010 0.416990 0.062810
Si Si2 0.902683 0.878296 0.756484
Si Si3 0.237185 0.515981 0.937280
Si Si4 0.450874 0.841892 0.920009
Si Si5 0.985633 0.964089 0.187717
Si Si6 0.254845 0.605847 0.354681
Si Si7 0.465558 0.205024 0.537895
Si Si8 0.863576 0.174564 0.551566
O O1 0.118312 0.354833 0.205684
O O2 0.578806 0.474485 0.084496
O O3 0.623066 0.706907 0.045769
O O4 0.733920 0.125675 0.863361
O O5 0.649898 0.912778 0.569445
O O6 0.122523 0.592956 0.803169
O O7 0.111684 0.005080 0.857830
O O8 0.106959 0.253884 0.770306
O O9 0.075848 0.785847 0.053162
O O10 0.468359 0.537127 0.728509
O O11 0.636926 0.030601 0.058277
O O12 0.160318 0.718432 0.250556
O O13 0.129083 0.222942 0.377167
O O14 0.608729 0.456878 0.489080
O O15 0.066222 0.897403 0.459876
O O16 0.649719 0.116999 0.494485
#
# Coordination Sequence:
#
# PCOD9000352 Si02
#       8
#     1   1   1   1   1   1   1   1
#     4   9  22  43  71  99 142 192 243 299 361 435
#     4  10  23  44  75 100 148 193 240 303 375 432
#     4  11  24  46  72 108 144 194 247 301 370 439
#     4   9  21  44  67 105 140 187 238 305 361 433
#     4  11  24  47  71 108 142 192 247 303 367 437
#     4  11  28  49  72 109 146 197 246 304 367 438
#     4  11  24  45  70 105 145 191 243 301 369 436
#     4  12  28  48  74 106 153 194 246 304 368 440
#
# _framework density 27.499248000000001
#
# number of rings (size 3 to 8) (size 9 to 14) (size 15 to 20)
#    0.000    1.500    1.250    1.500   15.750    0.000 
#    2.250    0.000    0.000    0.000    0.000    0.000 
#    0.000    0.000    0.000    0.000    0.000    0.000 
#
# Total GULP energy -44728.022498 kJ/mol
# GULP energy per Si atom -5591.002812 kJ/mol
# Density = 2.743666 g / cm^3
# Si number density = 27.499248 Si / 1000 Ang^3
#
#
#
# Elastic Constant Matrix: (Units=GPa)
#
#
# Indices 1 2 3 4 5 6 
#
# 1 153.2751 30.9111 47.4292 -8.4674 11.3222 0.7726
# 2 30.9111 67.6633 27.3168 -13.8829 -15.3976 -13.0506
# 3 47.4292 27.3168 128.7910 -24.6047 23.6843 -7.5391
# 4 -8.4674 -13.8829 -24.6047 48.3128 -7.9044 -1.3470
# 5 11.3222 -15.3976 23.6843 -7.9044 55.9157 -6.4332
# 6 0.7726 -13.0506 -7.5391 -1.3470 -6.4332 57.5767
#
#
#
# Elastic Compliance Matrix: (Units=1/GPa)
#
#
# Indices 1 2 3 4 5 6 
#
# 1 0.008043 -0.003865 -0.002052 -0.001142 -0.002160 -0.001521
# 2 -0.003865 0.022727 -0.003819 0.005736 0.010157 0.005972
# 3 -0.002052 -0.003819 0.010839 0.003290 -0.004748 0.000128
# 4 -0.001142 0.005736 0.003290 0.024590 0.004215 0.002793
# 5 -0.002160 0.010157 -0.004748 0.004215 0.024245 0.004517
# 6 -0.001521 0.005972 0.000128 0.002793 0.004517 0.019329
#
#
# Mechanical properties :
#
#
# Convention : Reuss Voigt Hill
#
# Bulk Modulus (GPa) = 45.17479 62.33818 53.75649
# Shear Modulus (GPa) = 36.59683 48.63253 42.61468
#
# Velocity S-wave (km/s) = 3.65201 4.20992 3.94085
# Velocity P-wave (km/s) = 5.85203 6.80805 6.34806
#
# Compressibility (1/GPa) = 0.02213624
#
# Stress axis : x y z
#
# Youngs Moduli (GPa) = 124.33490 44.00093 92.25603
#
# Poissons Ratio (x) = 0.17006 0.18932
# Poissons Ratio (y) = 0.48055 0.35236
# Poissons Ratio (z) = 0.25514 0.16806
#
# Static dielectric constant tensor:
#      x y z
#    x 2.122400 0.132200 0.070720 
#    y 0.132200 2.191060 -0.016340 
#    z 0.070720 -0.016340 2.226740 
# 
# From -- ./inp_files/7133.got.cif
#   From: 2010.05.17/outbox.cif.g08.bks.cpg/sg1_4_cif.got.tgz:7133.got - 2010.05.17 20:27:59.
