data_PCOD9000453
_publ_section_title
;
Structure prediction by ZEFSAII (Michael W. Deem and Ramdas Pophale) SiO2 
 PCOD9000453
Probable space group: P 1
;
_chemical_formula_sum "Si O2"
_cell_formula_units_Z 8
_cell_length_a 7.237640
_cell_length_b 7.238276
_cell_length_c 6.842660
_cell_angle_alpha 110.514516
_cell_angle_beta 73.015821
_cell_angle_gamma 87.903624
_cell_volume 317.210421
_symmetry_space_group_name_H-M "P 1"
_symmetry_group_IT_number 1
_symmetry_cell_setting 'triclinic'
loop_
_space_group_symop_operation_xyz
x,y,z
loop_
_atom_site_type_symbol
_atom_site_label
_atom_site_fract_x
_atom_site_fract_y
_atom_site_fract_z
Si Si1 0.092900 0.794260 0.216140
Si Si2 0.805551 0.017955 0.696902
Si Si3 0.521669 0.365581 0.422164
Si Si4 0.234940 0.207305 0.196891
Si Si5 0.873174 0.379220 0.575845
Si Si6 0.365559 0.144087 0.722876
Si Si7 0.800902 0.770099 0.974091
Si Si8 0.429902 0.751285 0.345261
O O1 0.282455 0.668735 0.209782
O O2 0.171625 0.996887 0.198420
O O3 0.927072 0.854672 0.454768
O O4 0.989053 0.714208 0.033350
O O5 0.880893 0.223051 0.692846
O O6 0.578563 0.056134 0.716204
O O7 0.826776 0.949484 0.887645
O O8 0.446707 0.234234 0.225086
O O9 0.739515 0.309984 0.418546
O O10 0.393567 0.319157 0.630540
O O11 0.494154 0.588425 0.430456
O O12 0.083911 0.373642 0.415256
O O13 0.228864 0.215891 0.970551
O O14 0.779003 0.589894 0.767877
O O15 0.315188 0.953722 0.550064
O O16 0.614224 0.803308 0.186413
#
# Coordination Sequence:
#
# PCOD9000453 Si02
#       8
#     1   1   1   1   1   1   1   1
#     4  11  26  49  74 112 145 193 245 298 363 437
#     4  10  24  48  75 106 145 193 241 298 366 427
#     4  11  27  50  73 110 149 191 244 303 363 431
#     4  11  26  48  75 109 144 196 240 302 365 430
#     4  10  27  50  73 111 147 190 245 301 364 434
#     4  11  24  50  75 105 150 189 242 301 362 433
#     4  12  27  49  74 109 149 194 239 305 364 428
#     4  12  27  48  73 110 149 194 244 296 367 432
#
# _framework density 25.219851999999999
#
# number of rings (size 3 to 8) (size 9 to 14) (size 15 to 20)
#    0.000    1.000    2.500    1.500    7.000    1.000 
#    4.500    0.000    0.000    0.000    0.000    0.000 
#    0.000    0.000    0.000    0.000    0.000    0.000 
#
# Total GULP energy -44840.656388 kJ/mol
# GULP energy per Si atom -5605.082048 kJ/mol
# Density = 2.516245 g / cm^3
# Si number density = 25.219852 Si / 1000 Ang^3
#
#
#
# Elastic Constant Matrix: (Units=GPa)
#
#
# Indices 1 2 3 4 5 6 
#
# 1 98.8937 17.3687 39.6949 -14.5147 26.4158 -2.0665
# 2 17.3687 115.1170 51.8953 -43.3159 -9.3954 0.0026
# 3 39.6949 51.8953 133.3265 -28.9143 9.3491 1.7363
# 4 -14.5147 -43.3159 -28.9143 50.2592 -3.2160 10.0550
# 5 26.4158 -9.3954 9.3491 -3.2160 30.8989 -0.2416
# 6 -2.0665 0.0026 1.7363 10.0550 -0.2416 29.5919
#
#
#
# Elastic Compliance Matrix: (Units=1/GPa)
#
#
# Indices 1 2 3 4 5 6 
#
# 1 0.014969 -0.002054 -0.002812 -0.000097 -0.012572 0.001141
# 2 -0.002054 0.016055 -0.003468 0.012657 0.008971 -0.004169
# 3 -0.002812 -0.003468 0.010330 0.002368 -0.001542 -0.001619
# 4 -0.000097 0.012657 0.002368 0.034967 0.006761 -0.011973
# 5 -0.012572 0.008971 -0.001542 0.006761 0.046989 -0.002702
# 6 0.001141 -0.004169 -0.001619 -0.011973 -0.002702 0.038014
#
#
# Mechanical properties :
#
#
# Convention : Reuss Voigt Hill
#
# Bulk Modulus (GPa) = 40.50615 62.80611 51.65613
# Shear Modulus (GPa) = 26.85022 38.04189 32.44606
#
# Velocity S-wave (km/s) = 3.26643 3.88804 3.59071
# Velocity P-wave (km/s) = 5.50656 6.71664 6.14148
#
# Compressibility (1/GPa) = 0.02468761
#
# Stress axis : x y z
#
# Youngs Moduli (GPa) = 66.80557 62.28748 96.80671
#
# Poissons Ratio (x) = 0.12792 0.27218
# Poissons Ratio (y) = 0.13720 0.33568
# Poissons Ratio (z) = 0.18783 0.21598
#
# Static dielectric constant tensor:
#      x y z
#    x 1.986830 -0.004550 0.018970 
#    y -0.004550 1.959560 0.008380 
#    z 0.018970 0.008380 1.909100 
# 
# From -- ./inp_files/1241.got.cif
#   From: 2010.05.17/outbox.cif.g08.bks.cpg/sg1_1_cif.got.tgz:1241.got - 2010.05.17 20:27:59.
