data_PCOD9000956
_publ_section_title
;
Structure prediction by ZEFSAII (Michael W. Deem and Ramdas Pophale) SiO2 
 PCOD9000956
Probable space group: P 1
;
_chemical_formula_sum "Si O2"
_cell_formula_units_Z 8
_cell_length_a 5.280783
_cell_length_b 8.417512
_cell_length_c 10.144395
_cell_angle_alpha 64.947892
_cell_angle_beta 57.927705
_cell_angle_gamma 59.257818
_cell_volume 321.179091
_symmetry_space_group_name_H-M "P 1"
_symmetry_group_IT_number 1
_symmetry_cell_setting 'triclinic'
loop_
_space_group_symop_operation_xyz
x,y,z
loop_
_atom_site_type_symbol
_atom_site_label
_atom_site_fract_x
_atom_site_fract_y
_atom_site_fract_z
Si Si1 0.862450 0.568130 0.768450
Si Si2 0.441527 0.364215 0.853873
Si Si3 0.509637 0.103695 0.505279
Si Si4 0.690730 0.062313 0.109214
Si Si5 0.370216 0.946818 0.859609
Si Si6 0.840121 0.321940 0.500479
Si Si7 0.934374 0.677876 0.440253
Si Si8 0.221700 0.942652 0.178193
O O1 0.555636 0.533227 0.806122
O O2 0.695264 0.771312 0.805960
O O3 0.066518 0.569044 0.580196
O O4 0.087731 0.430792 0.864146
O O5 0.675064 0.280175 0.693903
O O6 0.513701 0.250210 0.010347
O O7 0.721284 0.225891 0.447733
O O8 0.221438 0.215844 0.449476
O O9 0.342477 0.084571 0.698586
O O10 0.691409 0.883737 0.488076
O O11 0.433855 0.964182 0.231433
O O12 0.859723 0.083469 0.191568
O O13 0.016183 0.935925 0.982068
O O14 0.407628 0.990396 0.986724
O O15 0.795690 0.543987 0.443600
O O16 0.189004 0.740134 0.267436
#
# Coordination Sequence:
#
# PCOD9000956 Si02
#       8
#     1   1   1   1   1   1   1   1
#     4  10  23  35  65  95 126 160 215 278 325 374
#     4  11  20  38  61  97 127 159 215 278 324 376
#     4  11  23  40  71  96 126 171 225 274 326 387
#     4  10  21  37  66  85 121 173 215 255 322 393
#     4   9  22  39  64  93 123 171 220 266 324 391
#     4  11  22  40  65  97 132 169 214 275 337 379
#     4  10  25  44  64 101 139 170 222 272 333 399
#     4  10  22  39  64  86 130 177 208 256 333 395
#
# _framework density 24.908225000000002
#
# number of rings (size 3 to 8) (size 9 to 14) (size 15 to 20)
#    0.750    1.000    1.250    3.000    1.750   10.000 
#    0.000    3.750    0.000    1.500    0.000    0.000 
#    0.000    0.000    0.000    0.000    0.000    0.000 
#
# Total GULP energy -44540.614301 kJ/mol
# GULP energy per Si atom -5567.576788 kJ/mol
# Density = 2.485153 g / cm^3
# Si number density = 24.908225 Si / 1000 Ang^3
#
#
#
# Elastic Constant Matrix: (Units=GPa)
#
#
# Indices 1 2 3 4 5 6 
#
# 1 176.4011 61.0254 18.5517 0.9914 -0.4388 20.0359
# 2 61.0254 97.5676 19.7853 -7.5629 4.2944 11.3031
# 3 18.5517 19.7853 69.2590 -17.7454 7.1153 11.5319
# 4 0.9914 -7.5629 -17.7454 27.0641 -0.5408 -2.0004
# 5 -0.4388 4.2944 7.1153 -0.5408 35.9249 -5.2435
# 6 20.0359 11.3031 11.5319 -2.0004 -5.2435 39.3330
#
#
#
# Elastic Compliance Matrix: (Units=1/GPa)
#
#
# Indices 1 2 3 4 5 6 
#
# 1 0.007608 -0.004483 -0.001018 -0.002364 0.000452 -0.002349
# 2 -0.004483 0.013821 -0.001660 0.002814 -0.001520 -0.001261
# 3 -0.001018 -0.001660 0.019434 0.011889 -0.004163 -0.004652
# 4 -0.002364 0.002814 0.011889 0.045495 -0.002191 -0.001069
# 5 0.000452 -0.001520 -0.004163 -0.002191 0.029582 0.005259
# 6 -0.002349 -0.001261 -0.004652 -0.001069 0.005259 0.028993
#
#
# Mechanical properties :
#
#
# Convention : Reuss Voigt Hill
#
# Bulk Modulus (GPa) = 37.67914 60.21697 48.94805
# Shear Modulus (GPa) = 29.74354 36.72209 33.23282
#
# Velocity S-wave (km/s) = 3.45936 3.84382 3.65665
# Velocity P-wave (km/s) = 5.57820 6.62782 6.12553
#
# Compressibility (1/GPa) = 0.02653989
#
# Stress axis : x y z
#
# Youngs Moduli (GPa) = 131.43909 72.35275 51.45606
#
# Poissons Ratio (x) = 0.32437 0.05239
# Poissons Ratio (y) = 0.58926 0.08543
# Poissons Ratio (z) = 0.13383 0.12013
#
# Static dielectric constant tensor:
#      x y z
#    x 2.048680 0.024790 -0.019650 
#    y 0.024790 2.015870 0.034370 
#    z -0.019650 0.034370 2.076630 
# 
# From -- ./inp_files/2463.got.cif
#   From: 2010.05.17/outbox.cif.g08.bks.cpg/sg1_2_cif.got.tgz:2463.got - 2010.05.17 20:27:59.
