data_PCOD9000422
_publ_section_title
;
Structure prediction by ZEFSAII (Michael W. Deem and Ramdas Pophale) SiO2 
 PCOD9000422
Probable space group: P 1
;
_chemical_formula_sum "Si O2"
_cell_formula_units_Z 8
_cell_length_a 4.908858
_cell_length_b 7.682694
_cell_length_c 15.308940
_cell_angle_alpha 33.923168
_cell_angle_beta 63.116804
_cell_angle_gamma 66.420891
_cell_volume 287.029781
_symmetry_space_group_name_H-M "P 1"
_symmetry_group_IT_number 1
_symmetry_cell_setting 'triclinic'
loop_
_space_group_symop_operation_xyz
x,y,z
loop_
_atom_site_type_symbol
_atom_site_label
_atom_site_fract_x
_atom_site_fract_y
_atom_site_fract_z
Si Si1 0.488000 0.873160 0.388860
Si Si2 0.669304 0.878749 0.538576
Si Si3 0.236661 0.800574 0.777045
Si Si4 0.931544 0.267361 0.850518
Si Si5 0.031260 0.375123 0.340372
Si Si6 0.541327 0.349192 0.039861
Si Si7 0.459894 0.844274 0.999701
Si Si8 0.721455 0.223191 0.615411
O O1 0.749470 0.875191 0.425505
O O2 0.472046 0.506110 0.540402
O O3 0.243057 0.093449 0.384932
O O4 0.520416 0.018790 0.228449
O O5 0.862473 0.585016 0.675143
O O6 0.338556 0.784779 0.666687
O O7 0.714203 0.243934 0.403937
O O8 0.534624 0.957227 0.707714
O O9 0.940654 0.035719 0.730977
O O10 0.258389 0.482744 0.963855
O O11 0.821754 0.334646 0.937998
O O12 0.714371 0.996192 0.958782
O O13 0.274950 0.123768 0.860263
O O14 0.194074 0.681400 0.160955
O O15 0.969614 0.365841 0.455102
O O16 0.557581 0.579274 0.025176
#
# Coordination Sequence:
#
# PCOD9000422 Si02
#       8
#     1   1   1   1   1   1   1   1
#     4  11  24  43  69 102 137 185 234 290 353 421
#     4  10  24  44  74  97 146 183 237 295 356 416
#     4  10  24  46  68  99 139 182 229 292 351 412
#     4  11  27  48  73 106 144 190 240 297 355 430
#     4  10  24  46  66 105 141 186 232 297 354 423
#     4  10  26  48  69 107 144 190 237 298 357 430
#     4  11  27  45  77 102 147 190 239 292 366 424
#     4  11  24  42  72  98 136 180 236 285 346 422
#
# _framework density 27.871672
#
# number of rings (size 3 to 8) (size 9 to 14) (size 15 to 20)
#    0.000    1.500    1.250    0.750   10.500    5.000 
#    6.750    0.000    0.000    0.000    0.000    0.000 
#    0.000    0.000    0.000    0.000    0.000    0.000 
#
# Total GULP energy -44682.766915 kJ/mol
# GULP energy per Si atom -5585.345864 kJ/mol
# Density = 2.780823 g / cm^3
# Si number density = 27.871672 Si / 1000 Ang^3
#
#
#
# Elastic Constant Matrix: (Units=GPa)
#
#
# Indices 1 2 3 4 5 6 
#
# 1 107.2879 17.4422 31.4553 -6.0627 13.7074 -4.2813
# 2 17.4422 85.8748 21.9653 -4.0977 7.4613 -12.9165
# 3 31.4553 21.9653 202.6929 21.0460 19.6756 2.9999
# 4 -6.0627 -4.0977 21.0460 58.3320 -4.6553 9.3687
# 5 13.7074 7.4613 19.6756 -4.6553 40.5156 -9.9502
# 6 -4.2813 -12.9165 2.9999 9.3687 -9.9502 54.5507
#
#
#
# Elastic Compliance Matrix: (Units=1/GPa)
#
#
# Indices 1 2 3 4 5 6 
#
# 1 0.010337 -0.001505 -0.001333 0.001275 -0.002461 -0.000140
# 2 -0.001505 0.012752 -0.001213 0.000695 -0.000492 0.002759
# 3 -0.001333 -0.001213 0.005784 -0.002394 -0.002600 -0.000773
# 4 0.001275 0.000695 -0.002394 0.018751 0.002161 -0.002430
# 5 -0.002461 -0.000492 -0.002600 0.002161 0.028249 0.004615
# 6 -0.000140 0.002759 -0.000773 -0.002430 0.004615 0.020275
#
#
# Mechanical properties :
#
#
# Convention : Reuss Voigt Hill
#
# Bulk Modulus (GPa) = 48.14451 59.73127 53.93789
# Shear Modulus (GPa) = 44.97430 52.34584 48.66007
#
# Velocity S-wave (km/s) = 4.02135 4.33841 4.18288
# Velocity P-wave (km/s) = 6.23480 6.82445 6.53628
#
# Compressibility (1/GPa) = 0.02077080
#
# Stress axis : x y z
#
# Youngs Moduli (GPa) = 96.74007 78.42000 172.88382
#
# Poissons Ratio (x) = 0.11803 0.23038
# Poissons Ratio (y) = 0.14560 0.20979
# Poissons Ratio (z) = 0.12891 0.09516
#
# Static dielectric constant tensor:
#      x y z
#    x 2.446360 0.113570 0.020330 
#    y 0.113570 2.362100 0.071290 
#    z 0.020330 0.071290 2.187750 
# 
# From -- ./inp_files/7366.got.cif
#   From: 2010.05.17/outbox.cif.g08.bks.cpg/sg1_4_cif.got.tgz:7366.got - 2010.05.17 20:27:59.
