data_PCOD9000698
_publ_section_title
;
Structure prediction by ZEFSAII (Michael W. Deem and Ramdas Pophale) SiO2 
 PCOD9000698
Probable space group: P 1
;
_chemical_formula_sum "Si O2"
_cell_formula_units_Z 8
_cell_length_a 7.651037
_cell_length_b 11.304596
_cell_length_c 6.590233
_cell_angle_alpha 77.696699
_cell_angle_beta 41.612603
_cell_angle_gamma 62.343149
_cell_volume 326.473038
_symmetry_space_group_name_H-M "P 1"
_symmetry_group_IT_number 1
_symmetry_cell_setting 'triclinic'
loop_
_space_group_symop_operation_xyz
x,y,z
loop_
_atom_site_type_symbol
_atom_site_label
_atom_site_fract_x
_atom_site_fract_y
_atom_site_fract_z
Si Si1 0.376630 0.127900 0.538390
Si Si2 0.195276 0.131394 0.239497
Si Si3 0.020893 0.991349 0.969439
Si Si4 0.960855 0.717756 0.775416
Si Si5 0.148038 0.426834 0.746318
Si Si6 0.704743 0.427568 0.458484
Si Si7 0.824515 0.996423 0.663606
Si Si8 0.521240 0.717174 0.504165
O O1 0.321279 0.096519 0.369403
O O2 0.318799 0.283275 0.536940
O O3 0.119991 0.107763 0.880778
O O4 0.717043 0.021416 0.334451
O O5 0.926906 0.284460 0.419235
O O6 0.073107 0.024666 0.331196
O O7 0.487717 0.114620 0.875013
O O8 0.318161 0.845970 0.774239
O O9 0.913841 0.001174 0.822336
O O10 0.826610 0.850633 0.701090
O O11 0.026346 0.571056 0.682488
O O12 0.276517 0.706468 0.573613
O O13 0.754145 0.737826 0.148362
O O14 0.388297 0.431759 0.693546
O O15 0.870784 0.426558 0.103933
O O16 0.665987 0.568615 0.540491
#
# Coordination Sequence:
#
# PCOD9000698 Si02
#       8
#     1   1   1   1   1   1   1   1
#     4  10  19  31  50  74  98 126 160 200 242 285
#     4  10  19  31  50  74  98 126 160 200 242 285
#     4   9  16  28  47  72  96 121 161 205 237 272
#     4   9  16  28  47  71  96 123 161 204 238 274
#     4  10  20  33  50  73 101 130 159 197 244 291
#     4  10  20  33  50  73 101 130 159 197 244 291
#     4   9  16  28  47  72  96 121 161 205 237 272
#     4   9  16  28  47  71  96 123 161 204 238 274
#
# _framework density 24.504321999999998
#
# number of rings (size 3 to 8) (size 9 to 14) (size 15 to 20)
#    0.000    2.500    0.000    5.250    0.000    0.000 
#    0.000    0.000    0.000    4.500    0.000    0.000 
#    0.000    0.000    0.000    0.000    0.000    0.000 
#
# Total GULP energy -44652.400993 kJ/mol
# GULP energy per Si atom -5581.550124 kJ/mol
# Density = 2.444855 g / cm^3
# Si number density = 24.504322 Si / 1000 Ang^3
#
#
#
# Elastic Constant Matrix: (Units=GPa)
#
#
# Indices 1 2 3 4 5 6 
#
# 1 47.3741 16.1062 11.8964 -2.1622 -13.7799 4.2490
# 2 16.1062 180.5829 44.2382 10.1236 -30.7179 16.1712
# 3 11.8964 44.2382 142.7652 -3.9143 -12.2944 -0.0890
# 4 -2.1622 10.1236 -3.9143 42.7362 -5.8047 -2.4203
# 5 -13.7799 -30.7179 -12.2944 -5.8047 23.2163 -0.1667
# 6 4.2490 16.1712 -0.0890 -2.4203 -0.1667 24.1331
#
#
#
# Elastic Compliance Matrix: (Units=1/GPa)
#
#
# Indices 1 2 3 4 5 6 
#
# 1 0.026662 0.001118 -0.000978 0.003091 0.017524 -0.005016
# 2 0.001118 0.008186 -0.001776 -0.000974 0.010270 -0.005716
# 3 -0.000978 -0.001776 0.007810 0.001386 0.001564 0.001541
# 4 0.003091 -0.000974 0.001386 0.025094 0.007573 0.002683
# 5 0.017524 0.010270 0.001564 0.007573 0.069722 -0.008720
# 6 -0.005016 -0.005716 0.001541 0.002683 -0.008720 0.046364
#
#
# Mechanical properties :
#
#
# Convention : Reuss Voigt Hill
#
# Bulk Modulus (GPa) = 25.38827 57.24486 41.31657
# Shear Modulus (GPa) = 24.97030 37.91589 31.44310
#
# Velocity S-wave (km/s) = 3.19567 3.93786 3.58602
# Velocity P-wave (km/s) = 4.89894 6.63984 5.83468
#
# Compressibility (1/GPa) = 0.03938826
#
# Stress axis : x y z
#
# Youngs Moduli (GPa) = 37.50660 122.15449 128.04397
#
# Poissons Ratio (x) = -0.13660 0.12517
# Poissons Ratio (y) = -0.04194 0.22737
# Poissons Ratio (z) = 0.03666 0.21691
#
# Static dielectric constant tensor:
#      x y z
#    x 2.005490 -0.021000 0.057350 
#    y -0.021000 2.019020 0.025230 
#    z 0.057350 0.025230 1.950570 
# 
# From -- ./inp_files/1398.got.cif
#   From: 2010.05.17/outbox.cif.g08.bks.cpg/sg1_1_cif.got.tgz:1398.got - 2010.05.17 20:27:59.
