data_PCOD9000690
_publ_section_title
;
Structure prediction by ZEFSAII (Michael W. Deem and Ramdas Pophale) SiO2 
 PCOD9000690
Probable space group: P 1
;
_chemical_formula_sum "Si O2"
_cell_formula_units_Z 8
_cell_length_a 7.416443
_cell_length_b 16.982244
_cell_length_c 5.492110
_cell_angle_alpha 60.982513
_cell_angle_beta 111.724456
_cell_angle_gamma 147.717188
_cell_volume 321.886396
_symmetry_space_group_name_H-M "P 1"
_symmetry_group_IT_number 1
_symmetry_cell_setting 'triclinic'
loop_
_space_group_symop_operation_xyz
x,y,z
loop_
_atom_site_type_symbol
_atom_site_label
_atom_site_fract_x
_atom_site_fract_y
_atom_site_fract_z
Si Si1 0.075940 0.730580 0.463870
Si Si2 0.685255 0.081438 0.242376
Si Si3 0.216646 0.513281 0.860246
Si Si4 0.944019 0.253012 0.614354
Si Si5 0.401500 0.164034 0.976653
Si Si6 0.457494 0.605963 0.341616
Si Si7 0.419522 0.222574 0.397849
Si Si8 0.742818 0.543181 0.078444
O O1 0.850612 0.736557 0.342234
O O2 0.958122 0.640033 0.288084
O O3 0.466717 0.908086 0.393092
O O4 0.957970 0.639951 0.793473
O O5 0.885749 0.176238 0.452338
O O6 0.885711 0.176241 0.948426
O O7 0.425660 0.066874 0.134502
O O8 0.328965 0.600767 0.533590
O O9 0.808330 0.347234 0.905198
O O10 0.328963 0.600771 0.036736
O O11 0.443502 0.506602 0.983683
O O12 0.681440 0.237576 0.506251
O O13 0.290720 0.440976 0.505725
O O14 0.237826 0.138776 0.688165
O O15 0.237801 0.138779 0.177263
O O16 0.590890 0.385199 0.239568
#
# Coordination Sequence:
#
# PCOD9000690 Si02
#       8
#     1   1   1   1   1   1   1   1
#     4  10  21  32  48  75 109 131 161 203 263 297
#     4  10  18  30  49  78 100 126 163 219 241 294
#     4  10  16  30  48  75  97 123 168 213 237 285
#     4  10  17  30  53  76  94 126 176 207 247 280
#     4  10  17  30  53  76  94 126 176 207 247 280
#     4  10  16  30  48  75  97 123 168 213 237 285
#     4  10  18  30  49  78 100 126 163 219 241 294
#     4  10  21  32  48  75 109 131 161 203 263 297
#
# _framework density 24.853487000000001
#
# number of rings (size 3 to 8) (size 9 to 14) (size 15 to 20)
#    0.000    2.000    5.000    1.500    0.000    0.000 
#    0.000    0.000    0.000    0.000   13.000    0.000 
#    0.000    0.000    0.000    0.000    0.000    0.000 
#
# Total GULP energy -44683.248731 kJ/mol
# GULP energy per Si atom -5585.406091 kJ/mol
# Density = 2.479692 g / cm^3
# Si number density = 24.853487 Si / 1000 Ang^3
#
#
#
# Elastic Constant Matrix: (Units=GPa)
#
#
# Indices 1 2 3 4 5 6 
#
# 1 94.3808 18.3222 53.1991 15.2744 34.1166 10.9277
# 2 18.3222 68.0784 55.7425 13.3040 -23.2219 -0.3186
# 3 53.1991 55.7425 154.7788 52.2889 -63.3064 -32.4699
# 4 15.2744 13.3040 52.2889 36.6469 -25.1631 -15.2059
# 5 34.1166 -23.2219 -63.3064 -25.1631 25.8951 -0.1171
# 6 10.9277 -0.3186 -32.4699 -15.2059 -0.1171 17.4855
#
#
#
# Elastic Compliance Matrix: (Units=1/GPa)
#
#
# Indices 1 2 3 4 5 6 
#
# 1 0.002799 -0.001876 0.004630 0.004213 0.010091 0.010546
# 2 -0.001876 0.023964 -0.009152 0.005868 0.007243 -0.010234
# 3 0.004630 -0.009152 0.010172 -0.023168 -0.011974 -0.004400
# 4 0.004213 0.005868 -0.023168 0.054675 -0.003790 0.001973
# 5 0.010091 0.007243 -0.011974 -0.003790 -0.001281 -0.031714
# 6 0.010546 -0.010234 -0.004400 0.001973 -0.031714 0.043746
#
#
# Mechanical properties :
#
#
# Convention : Reuss Voigt Hill
#
# Bulk Modulus (GPa) = 41.42797 63.52951 52.47874
# Shear Modulus (GPa) = 32.27529 28.67044 30.47286
#
# Velocity S-wave (km/s) = 3.60755 3.40012 3.50537
# Velocity P-wave (km/s) = 5.83589 6.40559 6.12736
#
# Compressibility (1/GPa) = 0.02413828
#
# Stress axis : x y z
#
# Youngs Moduli (GPa) = 357.27943 41.72936 98.31040
#
# Poissons Ratio (x) = 0.07830 -0.45522
# Poissons Ratio (y) = 0.67040 0.89977
# Poissons Ratio (z) = -1.65437 0.38192
#
# Static dielectric constant tensor:
#      x y z
#    x 1.968190 -0.005880 -0.036830 
#    y -0.005880 1.924400 0.067960 
#    z -0.036830 0.067960 2.019450 
# 
# From -- ./inp_files/1145.got.cif
#   From: 2010.05.17/outbox.cif.g08.bks.cpg/sg1_1_cif.got.tgz:1145.got - 2010.05.17 20:27:59.
