data_PCOD9000904
_publ_section_title
;
Structure prediction by ZEFSAII (Michael W. Deem and Ramdas Pophale) SiO2 
 PCOD9000904
Probable space group: P 1
;
_chemical_formula_sum "Si O2"
_cell_formula_units_Z 8
_cell_length_a 11.676972
_cell_length_b 5.562995
_cell_length_c 14.358709
_cell_angle_alpha 128.943585
_cell_angle_beta 152.769202
_cell_angle_gamma 47.465190
_cell_volume 313.446393
_symmetry_space_group_name_H-M "P 1"
_symmetry_group_IT_number 1
_symmetry_cell_setting 'triclinic'
loop_
_space_group_symop_operation_xyz
x,y,z
loop_
_atom_site_type_symbol
_atom_site_label
_atom_site_fract_x
_atom_site_fract_y
_atom_site_fract_z
Si Si1 0.051600 0.945090 0.660720
Si Si2 0.637921 0.121600 0.543593
Si Si3 0.052500 0.492523 0.209000
Si Si4 0.647677 0.376258 0.225466
Si Si5 0.600950 0.656503 0.059768
Si Si6 0.763502 0.740857 0.869603
Si Si7 0.180263 0.999198 0.561986
Si Si8 0.051218 0.676989 0.880223
O O1 0.138351 0.846220 0.593448
O O2 0.072334 0.304689 0.782415
O O3 0.291709 0.712550 0.837940
O O4 0.753042 0.013998 0.497203
O O5 0.325842 0.194297 0.343817
O O6 0.679169 0.457617 0.687871
O O7 0.841576 0.873980 0.699901
O O8 0.119255 0.790570 0.382091
O O9 0.798584 0.471234 0.076161
O O10 0.959371 0.590707 0.060352
O O11 0.690564 0.445551 0.165596
O O12 0.617745 0.028156 0.154041
O O13 0.360709 0.644346 0.100522
O O14 0.935952 0.337960 0.467375
O O15 0.483509 0.982186 0.765203
O O16 0.921336 0.830497 0.921253
#
# Coordination Sequence:
#
# PCOD9000904 Si02
#       8
#     1   1   1   1   1   1   1   1
#     4  10  20  42  65  90 133 168 222 277 332 387
#     4  10  22  42  62  92 128 172 217 273 331 399
#     4  10  22  42  65  93 128 173 223 269 332 399
#     4  10  22  40  67  96 131 172 224 275 328 394
#     4  10  20  42  66  94 131 173 221 279 326 388
#     4  10  22  43  63  89 133 170 220 273 332 391
#     4  10  22  42  66  94 126 176 219 280 328 396
#     4  10  22  41  62  94 130 172 218 272 331 398
#
# _framework density 25.522708999999999
#
# number of rings (size 3 to 8) (size 9 to 14) (size 15 to 20)
#    0.000    2.000    2.500    0.000    3.500    0.000 
#   11.250    0.000    0.000    0.000    0.000    0.000 
#    0.000    0.000    0.000    0.000    0.000    0.000 
#
# Total GULP energy -44664.598360 kJ/mol
# GULP energy per Si atom -5583.074795 kJ/mol
# Density = 2.546462 g / cm^3
# Si number density = 25.522709 Si / 1000 Ang^3
#
#
#
# Elastic Constant Matrix: (Units=GPa)
#
#
# Indices 1 2 3 4 5 6 
#
# 1 161.4999 13.1050 65.9667 -22.4131 8.2236 -13.1343
# 2 13.1050 93.7813 35.2428 -7.2194 15.1230 -18.8749
# 3 65.9667 35.2428 161.8905 -41.4422 35.6260 -7.3767
# 4 -22.4131 -7.2194 -41.4422 60.7770 -14.4528 0.8052
# 5 8.2236 15.1230 35.6260 -14.4528 52.7025 -11.4582
# 6 -13.1343 -18.8749 -7.3767 0.8052 -11.4582 32.6199
#
#
#
# Elastic Compliance Matrix: (Units=1/GPa)
#
#
# Indices 1 2 3 4 5 6 
#
# 1 0.007822 0.000610 -0.003293 0.001112 0.001872 0.003388
# 2 0.000610 0.013082 -0.002733 -0.000311 -0.000564 0.007007
# 3 -0.003293 -0.002733 0.010182 0.004259 -0.004949 -0.002448
# 4 0.001112 -0.000311 0.004259 0.020427 0.003028 0.001790
# 5 0.001872 -0.000564 -0.004949 0.003028 0.024743 0.007925
# 6 0.003388 0.007007 -0.002448 0.001790 0.007925 0.038261
#
#
# Mechanical properties :
#
#
# Convention : Reuss Voigt Hill
#
# Bulk Modulus (GPa) = 49.37309 71.75563 60.56436
# Shear Modulus (GPa) = 37.85033 49.41035 43.63034
#
# Velocity S-wave (km/s) = 3.85516 4.40470 4.13906
# Velocity P-wave (km/s) = 6.26124 7.35146 6.82814
#
# Compressibility (1/GPa) = 0.02025395
#
# Stress axis : x y z
#
# Youngs Moduli (GPa) = 127.84343 76.44059 98.21646
#
# Poissons Ratio (x) = -0.04663 0.32343
# Poissons Ratio (y) = -0.07799 0.26841
# Poissons Ratio (z) = 0.42100 0.20890
#
# Static dielectric constant tensor:
#      x y z
#    x 2.009350 0.006900 0.031190 
#    y 0.006900 2.119190 0.081000 
#    z 0.031190 0.081000 2.011870 
# 
# From -- ./inp_files/1729.got.cif
#   From: 2010.05.17/outbox.cif.g08.bks.cpg/sg1_1_cif.got.tgz:1729.got - 2010.05.17 20:27:59.
