data_PCOD9000171
_publ_section_title
;
Structure prediction by ZEFSAII (Michael W. Deem and Ramdas Pophale) SiO2 
 PCOD9000171
Probable space group: P 1
;
_chemical_formula_sum "Si O2"
_cell_formula_units_Z 8
_cell_length_a 5.095592
_cell_length_b 11.621502
_cell_length_c 5.337453
_cell_angle_alpha 69.450679
_cell_angle_beta 88.263539
_cell_angle_gamma 91.905923
_cell_volume 295.502394
_symmetry_space_group_name_H-M "P 1"
_symmetry_group_IT_number 1
_symmetry_cell_setting 'triclinic'
loop_
_space_group_symop_operation_xyz
x,y,z
loop_
_atom_site_type_symbol
_atom_site_label
_atom_site_fract_x
_atom_site_fract_y
_atom_site_fract_z
Si Si1 0.668560 0.683380 0.841390
Si Si2 0.143138 0.353149 0.138686
Si Si3 0.539916 0.086769 0.127607
Si Si4 0.827368 0.142175 0.584595
Si Si5 0.656891 0.408218 0.811064
Si Si6 0.019304 0.961256 0.060001
Si Si7 0.372949 0.543378 0.340012
Si Si8 0.182810 0.740164 0.526385
O O1 0.659066 0.547182 0.821342
O O2 0.452737 0.761558 0.650672
O O3 0.952326 0.741523 0.735058
O O4 0.567193 0.652178 0.145472
O O5 0.028833 0.251579 0.411393
O O6 0.182410 0.482233 0.184970
O O7 0.935885 0.361545 0.914440
O O8 0.424096 0.333293 0.022710
O O9 0.628195 0.120466 0.378616
O O10 0.232823 0.055852 0.117028
O O11 0.662794 0.165832 0.826153
O O12 0.722338 0.969400 0.162051
O O13 0.987157 0.020518 0.740800
O O14 0.553045 0.435585 0.516214
O O15 0.123505 0.831470 0.232712
O O16 0.200457 0.604841 0.508366
#
# Coordination Sequence:
#
# PCOD9000171 Si02
#       8
#     1   1   1   1   1   1   1   1
#     4  10  22  41  64 101 138 182 234 284 347 430
#     4  11  25  40  70 103 137 183 236 285 357 429
#     4  10  25  45  73  99 147 181 246 291 362 413
#     4  10  27  46  74 106 142 191 238 301 355 434
#     4  10  23  41  63  96 141 176 235 281 345 425
#     4  10  25  46  71 105 140 189 237 300 356 429
#     4  10  24  45  71 102 146 188 228 297 363 427
#     4  11  23  44  70 104 141 184 236 291 357 433
#
# _framework density 27.07254
#
# number of rings (size 3 to 8) (size 9 to 14) (size 15 to 20)
#    0.750    1.000    0.000    3.000    5.250   11.000 
#    2.250    2.500    0.000    0.000    0.000    0.000 
#    0.000    0.000    0.000    0.000    0.000    0.000 
#
# Total GULP energy -44795.911676 kJ/mol
# GULP energy per Si atom -5599.488960 kJ/mol
# Density = 2.701092 g / cm^3
# Si number density = 27.072540 Si / 1000 Ang^3
#
#
#
# Elastic Constant Matrix: (Units=GPa)
#
#
# Indices 1 2 3 4 5 6 
#
# 1 146.6257 20.2138 68.0289 -15.0802 9.5082 7.9963
# 2 20.2138 47.6946 44.5390 -8.4344 2.2997 13.7950
# 3 68.0289 44.5390 190.9197 -19.1918 16.4656 5.7870
# 4 -15.0802 -8.4344 -19.1918 44.5233 0.3376 4.5512
# 5 9.5082 2.2997 16.4656 0.3376 58.1826 -5.7552
# 6 7.9963 13.7950 5.7870 4.5512 -5.7552 34.9842
#
#
#
# Elastic Compliance Matrix: (Units=1/GPa)
#
#
# Indices 1 2 3 4 5 6 
#
# 1 0.008414 -0.000224 -0.002636 0.001859 -0.000806 -0.001773
# 2 -0.000224 0.031226 -0.006359 0.004316 -0.000597 -0.011869
# 3 -0.002636 -0.006359 0.007854 0.001153 -0.001406 0.001430
# 4 0.001859 0.004316 0.001153 0.025011 -0.001522 -0.005821
# 5 -0.000806 -0.000597 -0.001406 -0.001522 0.018128 0.003833
# 6 -0.001773 -0.011869 0.001430 -0.005821 0.003833 0.034821
#
#
# Mechanical properties :
#
#
# Convention : Reuss Voigt Hill
#
# Bulk Modulus (GPa) = 34.41737 72.31150 53.36444
# Shear Modulus (GPa) = 32.55666 44.36855 38.46261
#
# Velocity S-wave (km/s) = 3.47157 4.05270 3.77334
# Velocity P-wave (km/s) = 5.36747 6.97620 6.22403
#
# Compressibility (1/GPa) = 0.02905509
#
# Stress axis : x y z
#
# Youngs Moduli (GPa) = 118.84940 32.02501 127.31845
#
# Poissons Ratio (x) = 0.00718 0.33557
# Poissons Ratio (y) = 0.02666 0.80968
# Poissons Ratio (z) = 0.31324 0.20366
#
# Static dielectric constant tensor:
#      x y z
#    x 2.037810 -0.055950 -0.014170 
#    y -0.055950 2.175780 -0.055990 
#    z -0.014170 -0.055990 2.116900 
# 
# From -- ./inp_files/489.got.cif
#   From: 2010.05.17/outbox.cif.g08.bks.cpg/sg1_1_cif.got.tgz:489.got - 2010.05.17 20:27:59.
