data_PCOD9000036
_publ_section_title
;
Structure prediction by ZEFSAII (Michael W. Deem and Ramdas Pophale) SiO2 
 PCOD9000036
Probable space group: P 1
;
_chemical_formula_sum "Si O2"
_cell_formula_units_Z 8
_cell_length_a 5.228023
_cell_length_b 11.629829
_cell_length_c 5.961369
_cell_angle_alpha 92.402271
_cell_angle_beta 98.155681
_cell_angle_gamma 103.219587
_cell_volume 348.242433
_symmetry_space_group_name_H-M "P 1"
_symmetry_group_IT_number 1
_symmetry_cell_setting 'triclinic'
loop_
_space_group_symop_operation_xyz
x,y,z
loop_
_atom_site_type_symbol
_atom_site_label
_atom_site_fract_x
_atom_site_fract_y
_atom_site_fract_z
Si Si1 0.487380 0.530510 0.022640
Si Si2 0.888122 0.213328 0.305184
Si Si3 0.014705 0.614068 0.791182
Si Si4 0.345922 0.295460 0.717750
Si Si5 0.097451 0.877435 0.652918
Si Si6 0.098552 0.084968 0.936886
Si Si7 0.748626 0.426127 0.414407
Si Si8 0.652766 0.002049 0.532694
O O1 0.577801 0.508066 0.281683
O O2 0.749875 0.581529 0.909084
O O3 0.353463 0.399932 0.901344
O O4 0.271630 0.607121 0.968713
O O5 0.808021 0.333208 0.228599
O O6 0.660621 0.102624 0.355315
O O7 0.077563 0.267287 0.538833
O O8 0.063803 0.152516 0.161763
O O9 0.044281 0.741160 0.693185
O O10 0.982248 0.516631 0.580158
O O11 0.579409 0.341843 0.574768
O O12 0.328310 0.172316 0.830898
O O13 0.136422 0.953152 0.898611
O O14 0.852467 0.915963 0.500359
O O15 0.363859 0.927102 0.550200
O O16 0.813876 0.069803 0.772403
#
# Coordination Sequence:
#
# PCOD9000036 Si02
#       8
#     1   1   1   1   1   1   1   1
#     4  11  25  42  70 101 134 176 228 275 337 395
#     4  11  21  40  66 103 134 171 222 276 343 404
#     4  11  25  46  69  96 137 179 229 279 325 397
#     4  10  21  41  64  96 139 168 217 276 339 396
#     4  10  21  47  66  88 136 178 219 278 332 384
#     4   9  22  37  68  97 132 172 216 272 338 397
#     4  11  25  40  71  99 137 179 221 279 341 399
#     4   9  22  41  66  96 127 177 218 277 335 392
#
# _framework density 22.972501000000001
#
# number of rings (size 3 to 8) (size 9 to 14) (size 15 to 20)
#    0.750    1.000    1.250    2.250    3.500    3.000 
#    2.250    0.000    0.000    0.000    0.000    0.000 
#    0.000    0.000    0.000    0.000    0.000    0.000 
#
# Total GULP energy -44661.110862 kJ/mol
# GULP energy per Si atom -5582.638858 kJ/mol
# Density = 2.292021 g / cm^3
# Si number density = 22.972501 Si / 1000 Ang^3
#
#
#
# Elastic Constant Matrix: (Units=GPa)
#
#
# Indices 1 2 3 4 5 6 
#
# 1 124.7934 50.2548 16.1386 -12.0147 -5.9374 -3.3192
# 2 50.2548 164.0449 24.6076 -20.0069 -15.0776 -6.5015
# 3 16.1386 24.6076 41.2152 -9.2594 0.5578 5.0784
# 4 -12.0147 -20.0069 -9.2594 14.9574 -1.1687 0.9401
# 5 -5.9374 -15.0776 0.5578 -1.1687 25.2266 -12.0296
# 6 -3.3192 -6.5015 5.0784 0.9401 -12.0296 30.5070
#
#
#
# Elastic Compliance Matrix: (Units=1/GPa)
#
#
# Indices 1 2 3 4 5 6 
#
# 1 0.009557 -0.001879 -0.001957 0.004016 0.002164 0.001695
# 2 -0.001879 0.009248 -0.003527 0.008979 0.008091 0.005267
# 3 -0.001957 -0.003527 0.031344 0.013147 -0.007136 -0.009401
# 4 0.004016 0.008979 0.013147 0.090986 0.011055 0.001717
# 5 0.002164 0.008091 -0.007136 0.011055 0.057878 0.025630
# 6 0.001695 0.005267 -0.009401 0.001717 0.025630 0.045705
#
#
# Mechanical properties :
#
#
# Convention : Reuss Voigt Hill
#
# Bulk Modulus (GPa) = 28.22974 56.89505 42.56239
# Shear Modulus (GPa) = 18.43310 30.07502 24.25406
#
# Velocity S-wave (km/s) = 2.83574 3.62218 3.25281
# Velocity P-wave (km/s) = 4.79969 6.50491 5.71625
#
# Compressibility (1/GPa) = 0.03542364
#
# Stress axis : x y z
#
# Youngs Moduli (GPa) = 104.63032 108.13201 31.90441
#
# Poissons Ratio (x) = 0.20313 0.06243
# Poissons Ratio (y) = 0.19655 0.11254
# Poissons Ratio (z) = 0.20474 0.38142
#
# Static dielectric constant tensor:
#      x y z
#    x 1.910110 -0.056500 0.002320 
#    y -0.056500 1.823680 -0.002040 
#    z 0.002320 -0.002040 1.904150 
# 
# From -- ./inp_files/422.got.cif
#   From: 2010.05.17/outbox.cif.g08.bks.cpg/sg1_1_cif.got.tgz:422.got - 2010.05.17 20:27:59.
