data_PCOD9000568
_publ_section_title
;
Structure prediction by ZEFSAII (Michael W. Deem and Ramdas Pophale) SiO2 
 PCOD9000568
Probable space group: P 1
;
_chemical_formula_sum "Si O2"
_cell_formula_units_Z 8
_cell_length_a 11.716161
_cell_length_b 8.622350
_cell_length_c 14.560881
_cell_angle_alpha 30.647580
_cell_angle_beta 28.867740
_cell_angle_gamma 39.654007
_cell_volume 361.193992
_symmetry_space_group_name_H-M "P 1"
_symmetry_group_IT_number 1
_symmetry_cell_setting 'triclinic'
loop_
_space_group_symop_operation_xyz
x,y,z
loop_
_atom_site_type_symbol
_atom_site_label
_atom_site_fract_x
_atom_site_fract_y
_atom_site_fract_z
Si Si1 0.357580 0.230720 0.850250
Si Si2 0.493342 0.576969 0.401771
Si Si3 0.997553 0.767835 0.893785
Si Si4 0.632449 0.638135 0.649297
Si Si5 0.819543 0.136501 0.648259
Si Si6 0.280843 0.253120 0.210654
Si Si7 0.154174 0.626752 0.295007
Si Si8 0.297854 0.217955 0.561169
O O1 0.478117 0.372569 0.605853
O O2 0.567778 0.021311 0.858018
O O3 0.211360 0.510943 0.860068
O O4 0.178038 0.980125 0.079349
O O5 0.761243 0.599898 0.167423
O O6 0.312772 0.433403 0.529933
O O7 0.413833 0.927547 0.301244
O O8 0.936660 0.956252 0.745512
O O9 0.084015 0.003382 0.790723
O O10 0.717951 0.474808 0.578035
O O11 0.887312 0.617953 0.528865
O O12 0.518649 0.972901 0.544171
O O13 0.441112 0.438007 0.935754
O O14 0.014570 0.165501 0.417284
O O15 0.222330 0.453772 0.240144
O O16 0.315223 0.443793 0.348847
#
# Coordination Sequence:
#
# PCOD9000568 Si02
#       8
#     1   1   1   1   1   1   1   1
#     4  12  26  46  73 104 140 189 235 289 354 416
#     4  12  26  46  71 109 142 184 240 287 352 427
#     4  12  24  50  73 100 145 189 230 298 354 411
#     4  11  23  45  71 101 136 187 231 289 349 413
#     4  11  23  44  72 100 141 183 229 287 350 414
#     4  11  23  47  70 100 145 178 235 289 346 419
#     4  11  25  47  69 102 143 185 235 290 349 419
#     4  12  24  45  73 102 140 187 233 287 354 413
#
# _framework density 22.148762999999999
#
# number of rings (size 3 to 8) (size 9 to 14) (size 15 to 20)
#    0.000    0.500    6.250    2.250    1.750    0.000 
#    6.750    0.000    0.000    0.000    0.000    0.000 
#    0.000    0.000    0.000    0.000    0.000    0.000 
#
# Total GULP energy -44588.673154 kJ/mol
# GULP energy per Si atom -5573.584144 kJ/mol
# Density = 2.209835 g / cm^3
# Si number density = 22.148763 Si / 1000 Ang^3
#
#
#
# Elastic Constant Matrix: (Units=GPa)
#
#
# Indices 1 2 3 4 5 6 
#
# 1 80.3254 30.3738 27.5040 0.0489 -10.3202 -6.6634
# 2 30.3738 91.7577 54.2537 -1.6965 -1.3477 -29.5969
# 3 27.5040 54.2537 135.5158 2.2772 -7.0166 -4.1923
# 4 0.0489 -1.6965 2.2772 43.4077 -1.2569 -2.5834
# 5 -10.3202 -1.3477 -7.0166 -1.2569 20.8749 -5.2737
# 6 -6.6634 -29.5969 -4.1923 -2.5834 -5.2737 31.2735
#
#
#
# Elastic Compliance Matrix: (Units=1/GPa)
#
#
# Indices 1 2 3 4 5 6 
#
# 1 0.015347 -0.004274 -0.001032 0.000090 0.007041 0.000281
# 2 -0.004274 0.024030 -0.008018 0.002703 0.002304 0.021368
# 3 -0.001032 -0.008018 0.010669 -0.001223 0.000886 -0.006329
# 4 0.000090 0.002703 -0.001223 0.023561 0.002432 0.004770
# 5 0.007041 0.002304 0.000886 0.002432 0.055347 0.013334
# 6 0.000281 0.021368 -0.006329 0.004770 0.013334 0.054053
#
#
# Mechanical properties :
#
#
# Convention : Reuss Voigt Hill
#
# Bulk Modulus (GPa) = 42.73853 59.09576 50.91715
# Shear Modulus (GPa) = 22.99331 32.14240 27.56785
#
# Velocity S-wave (km/s) = 3.22550 3.81360 3.53181
# Velocity P-wave (km/s) = 5.76280 6.79195 6.29843
#
# Compressibility (1/GPa) = 0.02339809
#
# Stress axis : x y z
#
# Youngs Moduli (GPa) = 65.16024 41.61423 93.72709
#
# Poissons Ratio (x) = 0.17787 0.09671
# Poissons Ratio (y) = 0.27851 0.75151
# Poissons Ratio (z) = 0.06723 0.33367
#
# Static dielectric constant tensor:
#      x y z
#    x 2.028460 0.009170 -0.148510 
#    y 0.009170 1.772050 0.005030 
#    z -0.148510 0.005030 1.857030 
# 
# From -- ./inp_files/5592.got.cif
#   From: 2010.05.17/outbox.cif.g08.bks.cpg/sg1_3_cif.got.tgz:5592.got - 2010.05.17 20:27:59.
