data_PCOD9000753
_publ_section_title
;
Structure prediction by ZEFSAII (Michael W. Deem and Ramdas Pophale) SiO2 
 PCOD9000753
Probable space group: P 1
;
_chemical_formula_sum "Si O2"
_cell_formula_units_Z 8
_cell_length_a 7.328533
_cell_length_b 7.950922
_cell_length_c 11.419983
_cell_angle_alpha 40.438291
_cell_angle_beta 108.571033
_cell_angle_gamma 122.358425
_cell_volume 359.763673
_symmetry_space_group_name_H-M "P 1"
_symmetry_group_IT_number 1
_symmetry_cell_setting 'triclinic'
loop_
_space_group_symop_operation_xyz
x,y,z
loop_
_atom_site_type_symbol
_atom_site_label
_atom_site_fract_x
_atom_site_fract_y
_atom_site_fract_z
Si Si1 0.128840 0.187390 0.687290
Si Si2 0.596721 0.314476 0.760163
Si Si3 0.715903 0.597403 0.406823
Si Si4 0.475935 0.288926 0.311096
Si Si5 0.715568 0.916107 0.598363
Si Si6 0.721425 0.703628 0.945186
Si Si7 0.184884 0.819383 0.335352
Si Si8 0.613468 0.108222 0.120834
O O1 0.344705 0.154929 0.753162
O O2 0.199471 0.530336 0.530883
O O3 0.973545 0.076066 0.599014
O O4 0.611801 0.804598 0.766225
O O5 0.732767 0.407851 0.618386
O O6 0.649365 0.627604 0.662767
O O7 0.631697 0.143604 0.965409
O O8 0.502791 0.399131 0.390376
O O9 0.932250 0.706344 0.314841
O O10 0.696200 0.879286 0.295352
O O11 0.576374 0.573630 0.097531
O O12 0.628708 0.128984 0.418138
O O13 0.250943 0.049115 0.335160
O O14 0.960498 0.979436 0.862274
O O15 0.741238 0.430297 0.034944
O O16 0.364104 0.978667 0.186176
#
# Coordination Sequence:
#
# PCOD9000753 Si02
#       8
#     1   1   1   1   1   1   1   1
#     4  10  19  38  71  94 115 170 214 254 319 368
#     4  11  22  42  65  94 131 166 212 264 314 379
#     4  12  25  41  63 100 134 160 212 266 316 376
#     4  11  21  40  62  94 132 163 211 264 309 381
#     4   9  19  37  65  91 123 164 212 260 307 372
#     4   8  20  38  64  93 120 167 214 252 315 370
#     4  11  23  44  69  93 124 175 212 258 322 371
#     4  10  23  46  65  91 131 169 211 264 310 381
#
# _framework density 22.236820999999999
#
# number of rings (size 3 to 8) (size 9 to 14) (size 15 to 20)
#    0.750    1.000    3.750    0.750    1.750    3.000 
#    2.250    0.000    0.000    0.000    0.000    0.000 
#    0.000    0.000    0.000    0.000    0.000    0.000 
#
# Total GULP energy -44609.167858 kJ/mol
# GULP energy per Si atom -5576.145982 kJ/mol
# Density = 2.218621 g / cm^3
# Si number density = 22.236821 Si / 1000 Ang^3
#
#
#
# Elastic Constant Matrix: (Units=GPa)
#
#
# Indices 1 2 3 4 5 6 
#
# 1 33.5863 -4.0276 6.0965 -6.0991 1.6620 4.2023
# 2 -4.0276 71.3596 21.3351 -8.3487 -4.1459 5.1563
# 3 6.0965 21.3351 119.2466 4.5807 -19.4025 -4.2337
# 4 -6.0991 -8.3487 4.5807 38.4144 1.9263 -1.6176
# 5 1.6620 -4.1459 -19.4025 1.9263 22.0629 -3.1715
# 6 4.2023 5.1563 -4.2337 -1.6176 -3.1715 26.8467
#
#
#
# Elastic Compliance Matrix: (Units=1/GPa)
#
#
# Indices 1 2 3 4 5 6 
#
# 1 0.033435 0.003993 -0.004061 0.006712 -0.006940 -0.007057
# 2 0.003993 0.016065 -0.003638 0.004457 -0.001473 -0.004190
# 3 -0.004061 -0.003638 0.011192 -0.003114 0.010330 0.004132
# 4 0.006712 0.004457 -0.003114 0.028639 -0.005090 -0.001273
# 5 -0.006940 -0.001473 0.010330 -0.005090 0.056446 0.009360
# 6 -0.007057 -0.004190 0.004132 -0.001273 0.009360 0.040838
#
#
# Mechanical properties :
#
#
# Convention : Reuss Voigt Hill
#
# Bulk Modulus (GPa) = 18.76884 30.11116 24.44000
# Shear Modulus (GPa) = 23.60857 30.85070 27.22964
#
# Velocity S-wave (km/s) = 3.26189 3.72878 3.50312
# Velocity P-wave (km/s) = 4.75871 5.66648 5.23232
#
# Compressibility (1/GPa) = 0.05327981
#
# Stress axis : x y z
#
# Youngs Moduli (GPa) = 29.90853 62.24627 89.35191
#
# Poissons Ratio (x) = -0.24857 0.36290
# Poissons Ratio (y) = -0.11943 0.32507
# Poissons Ratio (z) = 0.12147 0.22646
#
# Static dielectric constant tensor:
#      x y z
#    x 1.789080 -0.026460 -0.033450 
#    y -0.026460 1.833150 0.018480 
#    z -0.033450 0.018480 1.831690 
# 
# From -- ./inp_files/3876.got.cif
#   From: 2010.05.17/outbox.cif.g08.bks.cpg/sg1_2_cif.got.tgz:3876.got - 2010.05.17 20:27:59.
