data_PCOD9000153
_publ_section_title
;
Structure prediction by ZEFSAII (Michael W. Deem and Ramdas Pophale) SiO2 
 PCOD9000153
Probable space group: P 1
;
_chemical_formula_sum "Si O2"
_cell_formula_units_Z 8
_cell_length_a 14.434620
_cell_length_b 7.824361
_cell_length_c 5.587787
_cell_angle_alpha 60.243102
_cell_angle_beta 123.820794
_cell_angle_gamma 142.839784
_cell_volume 314.948482
_symmetry_space_group_name_H-M "P 1"
_symmetry_group_IT_number 1
_symmetry_cell_setting 'triclinic'
loop_
_space_group_symop_operation_xyz
x,y,z
loop_
_atom_site_type_symbol
_atom_site_label
_atom_site_fract_x
_atom_site_fract_y
_atom_site_fract_z
Si Si1 0.868650 0.970660 0.377730
Si Si2 0.511158 0.606224 0.198715
Si Si3 0.464766 0.130228 0.720375
Si Si4 0.299633 0.150865 0.863609
Si Si5 0.822257 0.494663 0.899388
Si Si6 0.080737 0.558455 0.132829
Si Si7 0.033782 0.950023 0.234495
Si Si8 0.252679 0.542432 0.965277
O O1 0.698910 0.863582 0.239899
O O2 0.851026 0.750106 0.659188
O O3 0.014560 0.309904 0.395833
O O4 0.906779 0.932756 0.195352
O O5 0.482389 0.350780 0.438917
O O6 0.423387 0.655076 0.201847
O O7 0.402093 0.459914 0.904023
O O8 0.426638 0.168133 0.902754
O O9 0.634505 0.237304 0.858204
O O10 0.318854 0.790983 0.702273
O O11 0.166708 0.050444 0.549052
O O12 0.199104 0.896285 0.089789
O O13 0.910030 0.445814 0.896256
O O14 0.931322 0.640973 0.194080
O O15 0.166708 0.550443 0.049055
O O16 0.134311 0.204603 0.008314
#
# Coordination Sequence:
#
# PCOD9000153 Si02
#       8
#     1   1   1   1   1   1   1   1
#     4  10  23  41  64  91 124 159 206 252 307 365
#     4  11  22  42  65  89 126 163 198 256 310 356
#     4  10  23  41  64  91 124 159 206 252 307 365
#     4  11  22  41  63  91 126 161 204 252 302 365
#     4  11  22  42  65  89 126 163 198 256 310 356
#     4  10  22  40  64  92 122 160 207 254 300 365
#     4  11  22  41  63  91 126 161 204 252 302 365
#     4  10  22  40  64  92 122 160 207 254 300 365
#
# _framework density 25.400981999999999
#
# number of rings (size 3 to 8) (size 9 to 14) (size 15 to 20)
#    0.000    1.500    2.500    2.250    0.000    1.000 
#    9.000    1.250    0.000    0.000    0.000    0.000 
#    0.000    0.000    0.000    0.000    0.000    0.000 
#
# Total GULP energy -44651.070312 kJ/mol
# GULP energy per Si atom -5581.383789 kJ/mol
# Density = 2.534317 g / cm^3
# Si number density = 25.400982 Si / 1000 Ang^3
#
#
#
# Elastic Constant Matrix: (Units=GPa)
#
#
# Indices 1 2 3 4 5 6 
#
# 1 202.1259 46.2394 12.8091 6.1846 31.3731 38.7444
# 2 46.2394 154.6527 33.4353 -25.7537 -9.5706 32.1642
# 3 12.8091 33.4353 93.0418 -23.0218 15.2747 14.4656
# 4 6.1846 -25.7537 -23.0218 35.1007 -1.1868 -0.1138
# 5 31.3731 -9.5706 15.2747 -1.1868 28.3145 -5.1326
# 6 38.7444 32.1642 14.4656 -0.1138 -5.1326 54.6289
#
#
#
# Elastic Compliance Matrix: (Units=1/GPa)
#
#
# Indices 1 2 3 4 5 6 
#
# 1 0.008935 -0.003172 0.002444 -0.002778 -0.013567 -0.006397
# 2 -0.003172 0.010007 -0.002549 0.006497 0.008147 -0.002188
# 3 0.002444 -0.002549 0.016345 0.007958 -0.013101 -0.005775
# 4 -0.002778 0.006497 0.007958 0.039019 0.001946 -0.003699
# 5 -0.013567 0.008147 -0.013101 0.001946 0.062827 0.014201
# 6 -0.006397 -0.002188 -0.005775 -0.003699 0.014201 0.026987
#
#
# Mechanical properties :
#
#
# Convention : Reuss Voigt Hill
#
# Bulk Modulus (GPa) = 34.80152 70.53199 52.66675
# Shear Modulus (GPa) = 27.73910 47.43129 37.58519
#
# Velocity S-wave (km/s) = 3.30820 4.32592 3.85083
# Velocity P-wave (km/s) = 5.32192 7.26492 6.36797
#
# Compressibility (1/GPa) = 0.02873438
#
# Stress axis : x y z
#
# Youngs Moduli (GPa) = 111.91734 99.93237 61.18071
#
# Poissons Ratio (x) = 0.31694 -0.14954
# Poissons Ratio (y) = 0.35495 0.15595
# Poissons Ratio (z) = -0.27356 0.25473
#
# Static dielectric constant tensor:
#      x y z
#    x 2.020750 -0.027860 0.038170 
#    y -0.027860 1.983240 -0.006660 
#    z 0.038170 -0.006660 2.102000 
# 
# From -- ./inp_files/2698.got.cif
#   From: 2010.05.17/outbox.cif.g08.bks.cpg/sg1_2_cif.got.tgz:2698.got - 2010.05.17 20:27:59.
