data_PCOD9000324
_publ_section_title
;
Structure prediction by ZEFSAII (Michael W. Deem and Ramdas Pophale) SiO2 
 PCOD9000324
Probable space group: P 1
;
_chemical_formula_sum "Si O2"
_cell_formula_units_Z 8
_cell_length_a 10.407156
_cell_length_b 10.858518
_cell_length_c 5.511560
_cell_angle_alpha 111.067339
_cell_angle_beta 120.603849
_cell_angle_gamma 36.610406
_cell_volume 318.233208
_symmetry_space_group_name_H-M "P 1"
_symmetry_group_IT_number 1
_symmetry_cell_setting 'triclinic'
loop_
_space_group_symop_operation_xyz
x,y,z
loop_
_atom_site_type_symbol
_atom_site_label
_atom_site_fract_x
_atom_site_fract_y
_atom_site_fract_z
Si Si1 0.881710 0.683220 0.464890
Si Si2 0.504123 0.589481 0.988449
Si Si3 0.150662 0.016919 0.713985
Si Si4 0.447822 0.929114 0.561382
Si Si5 0.355750 0.436038 0.972258
Si Si6 0.653706 0.412491 0.504927
Si Si7 0.157665 0.287108 0.174183
Si Si8 0.601618 0.044585 0.145752
O O1 0.649687 0.787859 0.451257
O O2 0.097854 0.555089 0.767794
O O3 0.961716 0.522941 0.228810
O O4 0.818505 0.865211 0.401982
O O5 0.403707 0.509446 0.859854
O O6 0.652544 0.486498 0.811906
O O7 0.295891 0.836050 0.923913
O O8 0.650015 0.501291 0.316663
O O9 0.880389 0.162433 0.530929
O O10 0.307547 0.907027 0.543634
O O11 0.121100 0.190778 0.886475
O O12 0.244812 0.156205 0.408392
O O13 0.566308 0.930794 0.892114
O O14 0.416332 0.487872 0.297705
O O15 0.555554 0.187179 0.001418
O O16 0.377062 0.217574 0.226731
#
# Coordination Sequence:
#
# PCOD9000324 Si02
#       8
#     1   1   1   1   1   1   1   1
#     4  11  24  43  72 114 145 190 236 316 382 431
#     4  10  27  48  72 114 144 206 247 301 373 438
#     4  11  26  50  72 105 154 192 256 300 374 447
#     4  10  24  43  69 109 141 192 238 305 372 441
#     4  10  25  45  73 111 147 188 255 298 372 456
#     4  10  27  47  74 110 147 204 244 309 359 446
#     4  10  24  43  71 108 147 188 244 308 368 444
#     4  10  23  43  65 109 145 188 236 301 374 439
#
# _framework density 25.138793
#
# number of rings (size 3 to 8) (size 9 to 14) (size 15 to 20)
#    0.750    1.000    1.250    0.000    8.750    4.000 
#    0.000    0.000    0.000    0.000    0.000    0.000 
#    0.000    0.000    0.000    0.000    0.000    0.000 
#
# Total GULP energy -44647.165141 kJ/mol
# GULP energy per Si atom -5580.895643 kJ/mol
# Density = 2.508158 g / cm^3
# Si number density = 25.138793 Si / 1000 Ang^3
#
#
#
# Elastic Constant Matrix: (Units=GPa)
#
#
# Indices 1 2 3 4 5 6 
#
# 1 64.8959 55.1614 23.8862 -3.4608 -6.1518 7.1566
# 2 55.1614 179.0762 46.8311 -11.3428 -20.5310 -4.2671
# 3 23.8862 46.8311 106.8398 -7.0388 -22.9204 -12.7824
# 4 -3.4608 -11.3428 -7.0388 41.6210 -5.7352 -5.7773
# 5 -6.1518 -20.5310 -22.9204 -5.7352 40.6022 -0.1209
# 6 7.1566 -4.2671 -12.7824 -5.7773 -0.1209 27.8238
#
#
#
# Elastic Compliance Matrix: (Units=1/GPa)
#
#
# Indices 1 2 3 4 5 6 
#
# 1 0.023347 -0.006786 -0.004059 -0.002247 -0.002531 -0.009388
# 2 -0.006786 0.008523 -0.001033 0.002434 0.003051 0.003097
# 3 -0.004059 -0.001033 0.013397 0.003695 0.006970 0.007838
# 4 -0.002247 0.002434 0.003695 0.027228 0.006847 0.008332
# 5 -0.002531 0.003051 0.006970 0.006847 0.030708 0.005876
# 6 -0.009388 0.003097 0.007838 0.008332 0.005876 0.044186
#
#
# Mechanical properties :
#
#
# Convention : Reuss Voigt Hill
#
# Bulk Modulus (GPa) = 46.49190 66.95213 56.72202
# Shear Modulus (GPa) = 28.04006 37.00495 32.52250
#
# Velocity S-wave (km/s) = 3.34340 3.84086 3.60073
# Velocity P-wave (km/s) = 5.78262 6.80885 6.31661
#
# Compressibility (1/GPa) = 0.02150912
#
# Stress axis : x y z
#
# Youngs Moduli (GPa) = 42.83124 117.33538 74.64526
#
# Poissons Ratio (x) = 0.79628 0.30301
# Poissons Ratio (y) = 0.29067 0.07711
# Poissons Ratio (z) = 0.17387 0.12122
#
# Static dielectric constant tensor:
#      x y z
#    x 2.063600 0.031010 0.038390 
#    y 0.031010 2.003670 0.008510 
#    z 0.038390 0.008510 2.007350 
# 
# From -- ./inp_files/2418.got.cif
#   From: 2010.05.17/outbox.cif.g08.bks.cpg/sg1_2_cif.got.tgz:2418.got - 2010.05.17 20:27:59.
