data_PCOD9000258
_publ_section_title
;
Structure prediction by ZEFSAII (Michael W. Deem and Ramdas Pophale) SiO2 
 PCOD9000258
Probable space group: P 1
;
_chemical_formula_sum "Si O2"
_cell_formula_units_Z 8
_cell_length_a 9.255059
_cell_length_b 10.302917
_cell_length_c 5.426473
_cell_angle_alpha 92.142352
_cell_angle_beta 78.171973
_cell_angle_gamma 141.346710
_cell_volume 309.895899
_symmetry_space_group_name_H-M "P 1"
_symmetry_group_IT_number 1
_symmetry_cell_setting 'triclinic'
loop_
_space_group_symop_operation_xyz
x,y,z
loop_
_atom_site_type_symbol
_atom_site_label
_atom_site_fract_x
_atom_site_fract_y
_atom_site_fract_z
Si Si1 0.496380 0.445330 0.633000
Si Si2 0.888333 0.942022 0.549066
Si Si3 0.232431 0.609378 0.075243
Si Si4 0.370098 0.431924 0.165388
Si Si5 0.316567 0.880455 0.721295
Si Si6 0.725574 0.900215 0.110586
Si Si7 0.238979 0.956740 0.262367
Si Si8 0.703114 0.317927 0.393644
O O1 0.649010 0.682662 0.633925
O O2 0.321629 0.350587 0.453321
O O3 0.654195 0.429877 0.510480
O O4 0.383806 0.338963 0.933536
O O5 0.882668 0.011134 0.817599
O O6 0.848963 0.009052 0.335069
O O7 0.083467 0.972003 0.395516
O O8 0.224859 0.450072 0.098662
O O9 0.975169 0.478422 0.244776
O O10 0.481305 0.814086 0.152532
O O11 0.290827 0.712931 0.796823
O O12 0.629803 0.683601 0.138405
O O13 0.192594 0.828617 0.503128
O O14 0.581945 0.127619 0.606718
O O15 0.200009 0.874186 0.997578
O O16 0.524544 0.182835 0.210598
#
# Coordination Sequence:
#
# PCOD9000258 Si02
#       8
#     1   1   1   1   1   1   1   1
#     4  10  19  38  64  95 125 168 222 270 318 389
#     4  10  17  38  63  90 127 166 219 264 321 387
#     4  10  21  47  71  97 134 184 215 279 337 404
#     4   8  20  36  63  94 124 167 222 260 327 389
#     4  10  24  43  62 102 130 176 222 268 335 400
#     4   8  19  33  63  93 117 170 218 257 318 394
#     4  10  23  41  61  98 138 166 221 279 325 389
#     4  10  25  42  69 101 137 171 225 279 333 400
#
# _framework density 25.815123
#
# number of rings (size 3 to 8) (size 9 to 14) (size 15 to 20)
#    1.500    1.000    0.000    1.500    1.750    4.000 
#    6.750    1.250    0.000    0.000    0.000    0.000 
#    0.000    0.000    0.000    0.000    0.000    0.000 
#
# Total GULP energy -44633.594374 kJ/mol
# GULP energy per Si atom -5579.199297 kJ/mol
# Density = 2.575637 g / cm^3
# Si number density = 25.815123 Si / 1000 Ang^3
#
#
#
# Elastic Constant Matrix: (Units=GPa)
#
#
# Indices 1 2 3 4 5 6 
#
# 1 117.9282 28.1645 54.3590 -22.2992 -9.1881 19.3620
# 2 28.1645 63.7939 36.7007 -13.0700 7.8291 -5.8875
# 3 54.3590 36.7007 180.8304 -18.1821 7.6147 15.2373
# 4 -22.2992 -13.0700 -18.1821 46.0875 -4.3623 5.2199
# 5 -9.1881 7.8291 7.6147 -4.3623 39.9239 -4.9816
# 6 19.3620 -5.8875 15.2373 5.2199 -4.9816 34.4124
#
#
#
# Elastic Compliance Matrix: (Units=1/GPa)
#
#
# Indices 1 2 3 4 5 6 
#
# 1 0.013091 -0.004719 -0.001959 0.005454 0.003965 -0.007559
# 2 -0.004719 0.020897 -0.003123 0.001290 -0.003587 0.006898
# 3 -0.001959 -0.003123 0.007189 0.001206 -0.001453 -0.003008
# 4 0.005454 0.001290 0.001206 0.026229 0.002770 -0.006960
# 5 0.003965 -0.003587 -0.001453 0.002770 0.027411 0.001347
# 6 -0.007559 0.006898 -0.003008 -0.006960 0.001347 0.037075
#
#
# Mechanical properties :
#
#
# Convention : Reuss Voigt Hill
#
# Bulk Modulus (GPa) = 46.35243 66.77788 56.56516
# Shear Modulus (GPa) = 31.50870 40.30664 35.90767
#
# Velocity S-wave (km/s) = 3.49743 3.95569 3.73360
# Velocity P-wave (km/s) = 5.85695 6.84012 6.36754
#
# Compressibility (1/GPa) = 0.02157384
#
# Stress axis : x y z
#
# Youngs Moduli (GPa) = 76.38705 47.85421 139.10705
#
# Poissons Ratio (x) = 0.22584 0.27252
# Poissons Ratio (y) = 0.36050 0.43444
# Poissons Ratio (z) = 0.14965 0.14945
#
# Static dielectric constant tensor:
#      x y z
#    x 2.032020 0.007540 0.008560 
#    y 0.007540 2.133610 -0.026350 
#    z 0.008560 -0.026350 2.049290 
# 
# From -- ./inp_files/1548.got.cif
#   From: 2010.05.17/outbox.cif.g08.bks.cpg/sg1_1_cif.got.tgz:1548.got - 2010.05.17 20:27:59.
