data_PCOD9000718
_publ_section_title
;
Structure prediction by ZEFSAII (Michael W. Deem and Ramdas Pophale) SiO2 
 PCOD9000718
Probable space group: P 1
;
_chemical_formula_sum "Si O2"
_cell_formula_units_Z 8
_cell_length_a 10.840727
_cell_length_b 7.741416
_cell_length_c 8.319189
_cell_angle_alpha 75.078847
_cell_angle_beta 54.699343
_cell_angle_gamma 119.053627
_cell_volume 327.035190
_symmetry_space_group_name_H-M "P 1"
_symmetry_group_IT_number 1
_symmetry_cell_setting 'triclinic'
loop_
_space_group_symop_operation_xyz
x,y,z
loop_
_atom_site_type_symbol
_atom_site_label
_atom_site_fract_x
_atom_site_fract_y
_atom_site_fract_z
Si Si1 0.394270 0.034980 0.959040
Si Si2 0.549415 0.532670 0.333011
Si Si3 0.897457 0.448919 0.299394
Si Si4 0.506944 0.914757 0.188431
Si Si5 0.928370 0.059579 0.457386
Si Si6 0.004378 0.459193 0.857181
Si Si7 0.434234 0.383853 0.109977
Si Si8 0.046096 0.078829 0.003723
O O1 0.623561 0.255447 0.607638
O O2 0.417698 0.212182 0.031607
O O3 0.433713 0.892315 0.068272
O O4 0.123569 0.768313 0.140746
O O5 0.529897 0.725137 0.250920
O O6 0.325639 0.287902 0.688050
O O7 0.501604 0.385439 0.238396
O O8 0.824087 0.770006 0.147490
O O9 0.918998 0.262184 0.386024
O O10 0.937936 0.485797 0.069275
O O11 0.276193 0.768374 0.506389
O O12 0.775930 0.259292 0.950061
O O13 0.661888 0.730126 0.799101
O O14 0.990673 0.029184 0.245810
O O15 0.161149 0.223168 0.357063
O O16 0.023965 0.266562 0.926292
#
# Coordination Sequence:
#
# PCOD9000718 Si02
#       8
#     1   1   1   1   1   1   1   1
#     4  12  25  40  58  90 128 160 195 244 298 354
#     4  10  19  36  60  86 114 152 197 244 292 348
#     4  11  22  41  66  90 116 157 204 247 294 354
#     4  10  19  36  60  86 114 152 197 244 292 348
#     4  11  22  41  66  90 116 157 204 247 294 354
#     4   9  19  35  60  88 112 143 198 253 290 338
#     4  12  25  40  58  90 128 160 195 244 298 354
#     4   9  19  35  60  88 112 143 198 253 290 338
#
# _framework density 24.462198999999998
#
# number of rings (size 3 to 8) (size 9 to 14) (size 15 to 20)
#    0.000    1.500    0.000    6.000    0.000    6.000 
#    0.000    7.500    0.000    0.000    0.000    0.000 
#    0.000    0.000    0.000    0.000    0.000    0.000 
#
# Total GULP energy -44868.525879 kJ/mol
# GULP energy per Si atom -5608.565735 kJ/mol
# Density = 2.440652 g / cm^3
# Si number density = 24.462199 Si / 1000 Ang^3
#
#
#
# Elastic Constant Matrix: (Units=GPa)
#
#
# Indices 1 2 3 4 5 6 
#
# 1 67.4696 17.2789 19.2630 -9.7202 -14.0114 -2.5642
# 2 17.2789 133.2934 49.5901 -1.6538 -14.0306 -1.2704
# 3 19.2630 49.5901 119.1776 -4.6754 -13.5526 -7.4087
# 4 -9.7202 -1.6538 -4.6754 45.8341 8.6097 -2.7796
# 5 -14.0114 -14.0306 -13.5526 8.6097 37.8217 -4.2984
# 6 -2.5642 -1.2704 -7.4087 -2.7796 -4.2984 45.7922
#
#
#
# Elastic Compliance Matrix: (Units=1/GPa)
#
#
# Indices 1 2 3 4 5 6 
#
# 1 0.016974 -0.001058 -0.001566 0.002560 0.004898 0.001283
# 2 -0.001058 0.009108 -0.003444 -0.000611 0.001866 -0.000226
# 3 -0.001566 -0.003444 0.010424 0.000336 0.001995 0.001711
# 4 0.002560 -0.000611 0.000336 0.023256 -0.004317 0.001187
# 5 0.004898 0.001866 0.001995 -0.004317 0.031019 0.003298
# 6 0.001283 -0.000226 0.001711 0.001187 0.003298 0.022562
#
#
# Mechanical properties :
#
#
# Convention : Reuss Voigt Hill
#
# Bulk Modulus (GPa) = 41.03780 54.68941 47.86361
# Shear Modulus (GPa) = 37.42449 41.47682 39.45066
#
# Velocity S-wave (km/s) = 3.91563 4.12217 4.02022
# Velocity P-wave (km/s) = 6.10371 6.71279 6.41548
#
# Compressibility (1/GPa) = 0.02436778
#
# Stress axis : x y z
#
# Youngs Moduli (GPa) = 58.91273 109.79890 95.93572
#
# Poissons Ratio (x) = 0.11619 0.15025
# Poissons Ratio (y) = 0.06234 0.33045
# Poissons Ratio (z) = 0.09227 0.37820
#
# Static dielectric constant tensor:
#      x y z
#    x 1.984970 -0.052820 0.001110 
#    y -0.052820 1.909750 0.005870 
#    z 0.001110 0.005870 1.864540 
# 
# From -- ./inp_files/1589.got.cif
#   From: 2010.05.17/outbox.cif.g08.bks.cpg/sg1_1_cif.got.tgz:1589.got - 2010.05.17 20:27:59.
