data_PCOD9000913
_publ_section_title
;
Structure prediction by ZEFSAII (Michael W. Deem and Ramdas Pophale) SiO2 
 PCOD9000913
Probable space group: P 1
;
_chemical_formula_sum "Si O2"
_cell_formula_units_Z 8
_cell_length_a 7.569004
_cell_length_b 7.401397
_cell_length_c 9.561599
_cell_angle_alpha 100.233257
_cell_angle_beta 143.578070
_cell_angle_gamma 78.373481
_cell_volume 311.395310
_symmetry_space_group_name_H-M "P 1"
_symmetry_group_IT_number 1
_symmetry_cell_setting 'triclinic'
loop_
_space_group_symop_operation_xyz
x,y,z
loop_
_atom_site_type_symbol
_atom_site_label
_atom_site_fract_x
_atom_site_fract_y
_atom_site_fract_z
Si Si1 0.326470 0.774720 0.088230
Si Si2 0.205993 0.576720 0.502123
Si Si3 0.090859 0.463252 0.716377
Si Si4 0.470413 0.366970 0.399793
Si Si5 0.931771 0.960956 0.259805
Si Si6 0.538617 0.981145 0.497835
Si Si7 0.762936 0.751755 0.878661
Si Si8 0.369033 0.154363 0.033630
O O1 0.566941 0.858428 0.357163
O O2 0.247904 0.959973 0.970420
O O3 0.304542 0.608087 0.941845
O O4 0.110996 0.708224 0.064236
O O5 0.080709 0.493039 0.548450
O O6 0.560795 0.588786 0.747888
O O7 0.211966 0.463113 0.347422
O O8 0.060616 0.784829 0.409462
O O9 0.748050 0.483947 0.556585
O O10 0.232733 0.262132 0.827378
O O11 0.625692 0.183628 0.551084
O O12 0.330674 0.288936 0.160554
O O13 0.727265 0.111142 0.234886
O O14 0.709274 0.879194 0.996483
O O15 0.193479 0.022109 0.337286
O O16 0.677697 0.868803 0.701430
#
# Coordination Sequence:
#
# PCOD9000913 Si02
#       8
#     1   1   1   1   1   1   1   1
#     4  10  22  45  67 105 143 188 232 299 351 420
#     4  11  26  45  72 106 144 189 238 297 356 425
#     4  12  27  45  78 105 145 190 244 291 359 427
#     4  11  26  46  71 109 144 184 242 301 352 422
#     4  10  24  45  70 104 146 191 233 294 362 425
#     4   9  22  42  73 100 143 186 235 293 357 420
#     4  10  20  42  74  99 136 193 238 282 362 424
#     4  11  27  46  71 110 147 185 244 295 355 429
#
# _framework density 25.690815000000001
#
# number of rings (size 3 to 8) (size 9 to 14) (size 15 to 20)
#    0.000    1.500    1.250    1.500    8.750    6.000 
#    0.000    0.000    0.000    0.000    0.000    0.000 
#    0.000    0.000    0.000    0.000    0.000    0.000 
#
# Total GULP energy -44716.992305 kJ/mol
# GULP energy per Si atom -5589.624038 kJ/mol
# Density = 2.563234 g / cm^3
# Si number density = 25.690815 Si / 1000 Ang^3
#
#
#
# Elastic Constant Matrix: (Units=GPa)
#
#
# Indices 1 2 3 4 5 6 
#
# 1 171.4541 60.0453 29.7012 0.8932 -11.8119 6.4496
# 2 60.0453 120.2317 17.4170 -5.7226 1.7790 22.3159
# 3 29.7012 17.4170 42.4517 3.0208 -8.6339 8.0188
# 4 0.8932 -5.7226 3.0208 34.8359 5.6773 -4.5615
# 5 -11.8119 1.7790 -8.6339 5.6773 32.6108 -6.9315
# 6 6.4496 22.3159 8.0188 -4.5615 -6.9315 48.9227
#
#
#
# Elastic Compliance Matrix: (Units=1/GPa)
#
#
# Indices 1 2 3 4 5 6 
#
# 1 0.007922 -0.003783 -0.003720 -0.000710 0.002552 0.001587
# 2 -0.003783 0.011572 -0.002163 0.002207 -0.003975 -0.004782
# 3 -0.003720 -0.002163 0.029225 -0.004241 0.006659 -0.002765
# 4 -0.000710 0.002207 -0.004241 0.030738 -0.006484 0.001729
# 5 0.002552 -0.003975 0.006659 -0.006484 0.035727 0.004843
# 6 0.001587 -0.004782 -0.002765 0.001729 0.004843 0.023713
#
#
# Mechanical properties :
#
#
# Convention : Reuss Voigt Hill
#
# Bulk Modulus (GPa) = 34.03064 60.94052 47.48558
# Shear Modulus (GPa) = 29.75768 38.40548 34.08158
#
# Velocity S-wave (km/s) = 3.40707 3.87060 3.64621
# Velocity P-wave (km/s) = 5.36214 6.61420 6.02080
#
# Compressibility (1/GPa) = 0.02938528
#
# Stress axis : x y z
#
# Youngs Moduli (GPa) = 126.23540 86.41919 34.21747
#
# Poissons Ratio (x) = 0.32695 0.12730
# Poissons Ratio (y) = 0.47758 0.07400
# Poissons Ratio (z) = 0.46965 0.18690
#
# Static dielectric constant tensor:
#      x y z
#    x 1.994000 -0.057290 0.072300 
#    y -0.057290 2.056310 -0.003880 
#    z 0.072300 -0.003880 2.188840 
# 
# From -- ./inp_files/5784.got.cif
#   From: 2010.05.17/outbox.cif.g08.bks.cpg/sg1_3_cif.got.tgz:5784.got - 2010.05.17 20:27:59.
