data_PCOD9000616
_publ_section_title
;
Structure prediction by ZEFSAII (Michael W. Deem and Ramdas Pophale) SiO2 
 PCOD9000616
Probable space group: P 1
;
_chemical_formula_sum "Si O2"
_cell_formula_units_Z 6
_cell_length_a 7.202105
_cell_length_b 6.985962
_cell_length_c 6.867750
_cell_angle_alpha 89.999982
_cell_angle_beta 118.475622
_cell_angle_gamma 60.987974
_cell_volume 253.321643
_symmetry_space_group_name_H-M "P 1"
_symmetry_group_IT_number 1
_symmetry_cell_setting 'triclinic'
loop_
_space_group_symop_operation_xyz
x,y,z
loop_
_atom_site_type_symbol
_atom_site_label
_atom_site_fract_x
_atom_site_fract_y
_atom_site_fract_z
Si Si1 0.190890 0.363840 0.759360
Si Si2 0.593656 0.854880 0.075296
Si Si3 0.190889 0.748688 0.988461
Si Si4 0.283615 0.509901 0.420272
Si Si5 0.686385 0.000942 0.507107
Si Si6 0.686380 0.616097 0.736207
O O1 0.269629 0.516896 0.913278
O O2 0.144587 0.453744 0.515029
O O3 0.938635 0.424210 0.747783
O O4 0.407577 0.098027 0.875214
O O5 0.732693 0.911029 0.309085
O O6 0.407578 0.797812 0.089304
O O7 0.732685 0.659695 0.980539
O O8 0.144578 0.705085 0.186482
O O9 0.938637 0.940577 0.747784
O O10 0.469698 0.266755 0.406268
O O11 0.469691 0.566973 0.620352
O O12 0.607643 0.847891 0.582290
#
# Coordination Sequence:
#
# PCOD9000616 Si02
#       6
#     1   1   1   1   1   1
#     4  11  25  44  74 107 140 188 236 291 358 417
#     4  12  23  49  74 104 148 184 238 298 350 426
#     4  11  25  44  74 107 140 188 236 291 358 417
#     4  12  23  49  74 104 148 184 238 298 350 426
#     4  11  25  44  74 107 140 188 236 291 358 417
#     4  11  25  44  74 107 140 188 236 291 358 417
#
# _framework density 23.685306000000001
#
# number of rings (size 3 to 8) (size 9 to 14) (size 15 to 20)
#    0.000    0.667    6.667    1.000    0.000    5.333 
#    0.000    0.000    0.000    0.000    0.000    0.000 
#    0.000    0.000    0.000    0.000    0.000    0.000 
#
# Total GULP energy -33551.022016 kJ/mol
# GULP energy per Si atom -5591.837003 kJ/mol
# Density = 2.363140 g / cm^3
# Si number density = 23.685306 Si / 1000 Ang^3
#
#
#
# Elastic Constant Matrix: (Units=GPa)
#
#
# Indices 1 2 3 4 5 6 
#
# 1 71.5571 7.0174 33.9293 3.1640 -10.3291 -12.7841
# 2 7.0174 58.4352 17.0235 8.3857 -0.5030 -8.4417
# 3 33.9293 17.0235 167.2755 20.8865 -22.6427 -25.5121
# 4 3.1640 8.3857 20.8865 39.8203 -3.0060 -7.0237
# 5 -10.3291 -0.5030 -22.6427 -3.0060 39.5700 5.7177
# 6 -12.7841 -8.4417 -25.5121 -7.0237 5.7177 34.5916
#
#
#
# Elastic Compliance Matrix: (Units=1/GPa)
#
#
# Indices 1 2 3 4 5 6 
#
# 1 0.016180 -0.000810 -0.002426 0.001007 0.002351 0.003808
# 2 -0.000810 0.018348 -0.001057 -0.002803 -0.001235 0.003033
# 3 -0.002426 -0.001057 0.007906 -0.002864 0.003143 0.003575
# 4 0.001007 -0.002803 -0.002864 0.027701 0.000236 0.003162
# 5 0.002351 -0.001235 0.003143 0.000236 0.027929 -0.001683
# 6 0.003808 0.003033 0.003575 0.003162 -0.001683 0.034613
#
#
# Mechanical properties :
#
#
# Convention : Reuss Voigt Hill
#
# Bulk Modulus (GPa) = 29.54493 45.91204 37.72848
# Shear Modulus (GPa) = 32.77671 38.74955 35.76313
#
# Velocity S-wave (km/s) = 3.72404 4.04916 3.89000
# Velocity P-wave (km/s) = 5.56707 6.42551 6.01163
#
# Compressibility (1/GPa) = 0.03384676
#
# Stress axis : x y z
#
# Youngs Moduli (GPa) = 61.80511 54.50142 126.48354
#
# Poissons Ratio (x) = 0.04416 0.30685
# Poissons Ratio (y) = 0.05008 0.13375
# Poissons Ratio (z) = 0.14994 0.05763
#
# Static dielectric constant tensor:
#      x y z
#    x 1.924830 -0.074110 -0.051010 
#    y -0.074110 1.876980 0.049760 
#    z -0.051010 0.049760 2.088220 
# 
# From -- ./inp_files/1170.got.cif
#   From: 2010.05.17/outbox.cif.g08.bks.cpg/sg1_1_cif.got.tgz:1170.got - 2010.05.17 20:27:59.
