data_PCOD9000279
_publ_section_title
;
Structure prediction by ZEFSAII (Michael W. Deem and Ramdas Pophale) SiO2 
 PCOD9000279
Probable space group: P 1
;
_chemical_formula_sum "Si O2"
_cell_formula_units_Z 8
_cell_length_a 7.958691
_cell_length_b 11.034242
_cell_length_c 7.514191
_cell_angle_alpha 131.644995
_cell_angle_beta 113.346477
_cell_angle_gamma 40.684992
_cell_volume 313.519633
_symmetry_space_group_name_H-M "P 1"
_symmetry_group_IT_number 1
_symmetry_cell_setting 'triclinic'
loop_
_space_group_symop_operation_xyz
x,y,z
loop_
_atom_site_type_symbol
_atom_site_label
_atom_site_fract_x
_atom_site_fract_y
_atom_site_fract_z
Si Si1 0.370640 0.855480 0.676010
Si Si2 0.576499 0.186348 0.174772
Si Si3 0.781546 0.817198 0.149673
Si Si4 0.103941 0.991783 0.078442
Si Si5 0.505709 0.269236 0.608527
Si Si6 0.328444 0.642501 0.133018
Si Si7 0.964346 0.448533 0.461361
Si Si8 0.069168 0.372898 0.017007
O O1 0.201277 0.410269 0.592279
O O2 0.684255 0.685066 0.644225
O O3 0.241136 0.898489 0.853410
O O4 0.195541 0.117170 0.779415
O O5 0.579650 0.289149 0.460179
O O6 0.571735 0.013271 0.105677
O O7 0.313618 0.345659 0.104177
O O8 0.832220 0.063628 0.049351
O O9 0.046888 0.734676 0.117837
O O10 0.673437 0.997575 0.444244
O O11 0.853458 0.589995 0.009100
O O12 0.032322 0.221779 0.320169
O O13 0.295717 0.798892 0.120561
O O14 0.534195 0.382986 0.884253
O O15 0.367792 0.702185 0.394922
O O16 0.955942 0.449313 0.243748
#
# Coordination Sequence:
#
# PCOD9000279 Si02
#       8
#     1   1   1   1   1   1   1   1
#     4  11  27  45  69 113 148 188 241 295 372 438
#     4   8  20  45  73 105 135 194 243 295 370 416
#     4   9  22  42  73 106 135 188 249 291 359 429
#     4  10  24  45  72  99 154 192 234 307 362 428
#     4   9  22  44  74 102 142 189 246 291 361 438
#     4  11  25  44  71 112 142 190 242 297 367 435
#     4  10  24  43  69 107 146 196 235 296 373 425
#     4  10  22  46  71 106 144 187 246 304 356 431
#
# _framework density 25.516745
#
# number of rings (size 3 to 8) (size 9 to 14) (size 15 to 20)
#    0.750    1.500    0.000    0.000    7.000    6.000 
#    0.000    0.000    0.000    0.000    0.000    0.000 
#    0.000    0.000    0.000    0.000    0.000    0.000 
#
# Total GULP energy -44728.150974 kJ/mol
# GULP energy per Si atom -5591.018872 kJ/mol
# Density = 2.545867 g / cm^3
# Si number density = 25.516745 Si / 1000 Ang^3
#
#
#
# Elastic Constant Matrix: (Units=GPa)
#
#
# Indices 1 2 3 4 5 6 
#
# 1 102.3629 25.4566 30.3291 11.4451 -34.9444 -1.3709
# 2 25.4566 97.7928 26.8956 17.7917 -7.9142 19.3040
# 3 30.3291 26.8956 186.1548 22.7470 -16.6050 2.3230
# 4 11.4451 17.7917 22.7470 33.3154 -3.0618 1.8311
# 5 -34.9444 -7.9142 -16.6050 -3.0618 31.1560 12.1940
# 6 -1.3709 19.3040 2.3230 1.8311 12.1940 26.8191
#
#
#
# Elastic Compliance Matrix: (Units=1/GPa)
#
#
# Indices 1 2 3 4 5 6 
#
# 1 0.018183 -0.000348 -0.000318 -0.003183 0.023436 -0.009231
# 2 -0.000348 0.014955 -0.000475 -0.006036 0.008035 -0.013982
# 3 -0.000318 -0.000475 0.006208 -0.003526 0.003010 -0.001340
# 4 -0.003183 -0.006036 -0.003526 0.036026 -0.005151 0.004370
# 5 0.023436 0.008035 0.003010 -0.005151 0.076979 -0.039495
# 6 -0.009231 -0.013982 -0.001340 0.004370 -0.039495 0.064655
#
#
# Mechanical properties :
#
#
# Convention : Reuss Voigt Hill
#
# Bulk Modulus (GPa) = 26.97997 61.29700 44.13849
# Shear Modulus (GPa) = 21.58498 38.50004 30.04251
#
# Velocity S-wave (km/s) = 2.91162 3.88856 3.43500
# Velocity P-wave (km/s) = 4.67972 6.65099 5.75045
#
# Compressibility (1/GPa) = 0.03706454
#
# Stress axis : x y z
#
# Youngs Moduli (GPa) = 54.99780 66.86544 161.07514
#
# Poissons Ratio (x) = 0.02327 0.05115
# Poissons Ratio (y) = 0.01914 0.07657
# Poissons Ratio (z) = 0.01746 0.03179
#
# Static dielectric constant tensor:
#      x y z
#    x 2.020200 0.004960 0.039410 
#    y 0.004960 2.020300 -0.006680 
#    z 0.039410 -0.006680 2.086850 
# 
# From -- ./inp_files/4880.got.cif
#   From: 2010.05.17/outbox.cif.g08.bks.cpg/sg1_3_cif.got.tgz:4880.got - 2010.05.17 20:27:59.
