data_PCOD9000508
_publ_section_title
;
Structure prediction by ZEFSAII (Michael W. Deem and Ramdas Pophale) SiO2 
 PCOD9000508
Probable space group: P 1
;
_chemical_formula_sum "Si O2"
_cell_formula_units_Z 8
_cell_length_a 11.047799
_cell_length_b 8.716978
_cell_length_c 5.044063
_cell_angle_alpha 89.689016
_cell_angle_beta 125.236789
_cell_angle_gamma 58.265285
_cell_volume 302.240897
_symmetry_space_group_name_H-M "P 1"
_symmetry_group_IT_number 1
_symmetry_cell_setting 'triclinic'
loop_
_space_group_symop_operation_xyz
x,y,z
loop_
_atom_site_type_symbol
_atom_site_label
_atom_site_fract_x
_atom_site_fract_y
_atom_site_fract_z
Si Si1 0.233420 0.072510 0.811700
Si Si2 0.170289 0.531684 0.352127
Si Si3 0.895952 0.870556 0.372172
Si Si4 0.831659 0.226673 0.051579
Si Si5 0.256794 0.741846 0.104013
Si Si6 0.749866 0.753931 0.580406
Si Si7 0.642698 0.477805 0.306924
Si Si8 0.407215 0.088807 0.513199
O O1 0.355969 0.011853 0.697317
O O2 0.025516 0.174064 0.419537
O O3 0.270827 0.180482 0.070707
O O4 0.290261 0.898037 0.090187
O O5 0.054201 0.641075 0.473762
O O6 0.247573 0.646297 0.354952
O O7 0.344949 0.295215 0.555095
O O8 0.978521 0.602781 0.945334
O O9 0.733209 0.895072 0.332808
O O10 0.034228 0.876379 0.734515
O O11 0.831419 0.042724 0.080690
O O12 0.672128 0.407043 0.044143
O O13 0.795106 0.298624 0.704475
O O14 0.433715 0.561799 0.149885
O O15 0.685343 0.630256 0.400020
O O16 0.615469 0.900643 0.653244
#
# Coordination Sequence:
#
# PCOD9000508 Si02
#       8
#     1   1   1   1   1   1   1   1
#     4  11  25  49  73 111 145 199 245 312 370 442
#     4  11  27  48  75 108 156 201 243 311 379 449
#     4  10  27  49  75 104 157 199 246 306 382 445
#     4  11  27  45  79 105 152 192 251 309 378 439
#     4  10  26  46  73 104 150 190 250 303 374 432
#     4  11  27  49  74 113 149 198 251 314 369 451
#     4  12  27  46  77 113 143 193 257 311 368 443
#     4  12  28  46  80 110 154 196 255 304 380 445
#
# _framework density 26.468952000000002
#
# number of rings (size 3 to 8) (size 9 to 14) (size 15 to 20)
#    0.000    1.000    1.250    2.250   22.750    0.000 
#    0.000    0.000    0.000    0.000    0.000    0.000 
#    0.000    0.000    0.000    0.000    0.000    0.000 
#
# Total GULP energy -44679.277877 kJ/mol
# GULP energy per Si atom -5584.909735 kJ/mol
# Density = 2.640871 g / cm^3
# Si number density = 26.468952 Si / 1000 Ang^3
#
#
#
# Elastic Constant Matrix: (Units=GPa)
#
#
# Indices 1 2 3 4 5 6 
#
# 1 174.2536 52.1040 35.0408 2.9205 -4.9400 -17.9992
# 2 52.1040 121.9276 27.5748 -9.3340 -20.7727 -25.8228
# 3 35.0408 27.5748 84.5228 -1.4879 5.3175 13.0894
# 4 2.9205 -9.3340 -1.4879 37.6330 -5.4193 -3.2535
# 5 -4.9400 -20.7727 5.3175 -5.4193 47.8552 -5.7872
# 6 -17.9992 -25.8228 13.0894 -3.2535 -5.7872 41.0977
#
#
#
# Elastic Compliance Matrix: (Units=1/GPa)
#
#
# Indices 1 2 3 4 5 6 
#
# 1 0.007186 -0.001720 -0.002938 -0.000752 0.000603 0.003028
# 2 -0.001720 0.015231 -0.006717 0.006105 0.009415 0.012765
# 3 -0.002938 -0.006717 0.017534 -0.002812 -0.006973 -0.012297
# 4 -0.000752 0.006105 -0.002812 0.029741 0.007192 0.007769
# 5 0.000603 0.009415 -0.006973 0.007192 0.028200 0.012941
# 6 0.003028 0.012765 -0.012297 0.007769 0.012941 0.040033
#
#
# Mechanical properties :
#
#
# Convention : Reuss Voigt Hill
#
# Bulk Modulus (GPa) = 58.14015 67.79369 62.96692
# Shear Modulus (GPa) = 30.04636 43.04948 36.54792
#
# Velocity S-wave (km/s) = 3.37286 4.03726 3.71992
# Velocity P-wave (km/s) = 6.09765 6.88482 6.50316
#
# Compressibility (1/GPa) = 0.01719982
#
# Stress axis : x y z
#
# Youngs Moduli (GPa) = 139.15252 65.65637 57.03168
#
# Poissons Ratio (x) = 0.11295 0.16756
# Poissons Ratio (y) = 0.23938 0.38311
# Poissons Ratio (z) = 0.40884 0.44104
#
# Static dielectric constant tensor:
#      x y z
#    x 2.040160 0.052550 0.055760 
#    y 0.052550 2.148500 0.012400 
#    z 0.055760 0.012400 2.166340 
# 
# From -- ./inp_files/2204.got.cif
#   From: 2010.05.17/outbox.cif.g08.bks.cpg/sg1_2_cif.got.tgz:2204.got - 2010.05.17 20:27:59.
