data_PCOD9000932
_publ_section_title
;
Structure prediction by ZEFSAII (Michael W. Deem and Ramdas Pophale) SiO2 
 PCOD9000932
Probable space group: P 1
;
_chemical_formula_sum "Si O2"
_cell_formula_units_Z 8
_cell_length_a 6.721167
_cell_length_b 7.870820
_cell_length_c 9.750462
_cell_angle_alpha 49.340421
_cell_angle_beta 85.635777
_cell_angle_gamma 64.218539
_cell_volume 335.725407
_symmetry_space_group_name_H-M "P 1"
_symmetry_group_IT_number 1
_symmetry_cell_setting 'triclinic'
loop_
_space_group_symop_operation_xyz
x,y,z
loop_
_atom_site_type_symbol
_atom_site_label
_atom_site_fract_x
_atom_site_fract_y
_atom_site_fract_z
Si Si1 0.080340 0.924560 0.366710
Si Si2 0.002394 0.110235 0.561652
Si Si3 0.784396 0.465689 0.987211
Si Si4 0.399236 0.129372 0.904278
Si Si5 0.194615 0.434542 0.472318
Si Si6 0.883262 0.866420 0.907994
Si Si7 0.375372 0.632064 0.142362
Si Si8 0.417744 0.606270 0.727137
O O1 0.039286 0.722539 0.391978
O O2 0.342267 0.743455 0.509141
O O3 0.940015 0.037058 0.457833
O O4 0.005268 0.183437 0.150676
O O5 0.044122 0.349105 0.434581
O O6 0.257910 0.852416 0.702621
O O7 0.858139 0.110376 0.696871
O O8 0.585089 0.513581 0.084776
O O9 0.844634 0.686282 0.898957
O O10 0.674948 0.488847 0.831308
O O11 0.302309 0.237220 0.698902
O O12 0.337117 0.392820 0.850080
O O13 0.677600 0.974533 0.969264
O O14 0.343938 0.903689 0.057299
O O15 0.388066 0.446879 0.362894
O O16 0.133099 0.708024 0.044622
#
# Coordination Sequence:
#
# PCOD9000932 Si02
#       8
#     1   1   1   1   1   1   1   1
#     4   9  23  41  65  98 129 173 224 267 328 397
#     4  10  20  44  65  92 137 171 212 277 328 382
#     4  11  22  44  66  98 132 172 227 267 336 397
#     4  10  23  44  64  98 135 172 223 270 340 389
#     4  11  22  43  68  93 135 171 218 277 325 393
#     4  11  22  40  71  96 127 182 215 273 340 387
#     4  11  23  42  69  97 129 176 222 276 326 400
#     4   9  21  44  64  94 140 167 219 281 317 399
#
# _framework density 23.829000000000001
#
# number of rings (size 3 to 8) (size 9 to 14) (size 15 to 20)
#    0.750    1.000    2.500    1.500    3.500    1.000 
#    4.500    0.000    0.000    0.000    0.000    0.000 
#    0.000    0.000    0.000    0.000    0.000    0.000 
#
# Total GULP energy -44635.154472 kJ/mol
# GULP energy per Si atom -5579.394309 kJ/mol
# Density = 2.377476 g / cm^3
# Si number density = 23.829000 Si / 1000 Ang^3
#
#
#
# Elastic Constant Matrix: (Units=GPa)
#
#
# Indices 1 2 3 4 5 6 
#
# 1 70.6750 29.8206 29.1727 -2.5350 -13.1186 15.4960
# 2 29.8206 115.0855 18.2793 -16.1534 -8.9318 25.3701
# 3 29.1727 18.2793 90.3829 -20.7863 -0.7108 5.3025
# 4 -2.5350 -16.1534 -20.7863 31.6786 5.0097 -13.0195
# 5 -13.1186 -8.9318 -0.7108 5.0097 37.9373 -5.6703
# 6 15.4960 25.3701 5.3025 -13.0195 -5.6703 28.5980
#
#
#
# Elastic Compliance Matrix: (Units=1/GPa)
#
#
# Indices 1 2 3 4 5 6 
#
# 1 0.022199 -0.002897 -0.008378 -0.011009 0.006555 -0.011618
# 2 -0.002897 0.011491 -0.000437 0.002224 0.000285 -0.007474
# 3 -0.008378 -0.000437 0.016500 0.013483 -0.003375 0.007337
# 4 -0.011009 0.002224 0.013483 0.051375 -0.006282 0.023636
# 5 0.006555 0.000285 -0.003375 -0.006282 0.029429 -0.000204
# 6 -0.011618 -0.007474 0.007337 0.023636 -0.000204 0.057253
#
#
# Mechanical properties :
#
#
# Convention : Reuss Voigt Hill
#
# Bulk Modulus (GPa) = 37.35926 47.85428 42.60677
# Shear Modulus (GPa) = 22.66623 32.90083 27.78353
#
# Velocity S-wave (km/s) = 3.08750 3.71982 3.41831
# Velocity P-wave (km/s) = 5.33126 6.21090 5.78782
#
# Compressibility (1/GPa) = 0.02676712
#
# Stress axis : x y z
#
# Youngs Moduli (GPa) = 45.04729 87.02328 60.60485
#
# Poissons Ratio (x) = 0.25210 0.50775
# Poissons Ratio (y) = 0.13050 0.02647
# Poissons Ratio (z) = 0.37741 0.03800
#
# Static dielectric constant tensor:
#      x y z
#    x 1.913620 -0.018600 0.025350 
#    y -0.018600 1.935300 0.044760 
#    z 0.025350 0.044760 1.991190 
# 
# From -- ./inp_files/3233.got.cif
#   From: 2010.05.17/outbox.cif.g08.bks.cpg/sg1_2_cif.got.tgz:3233.got - 2010.05.17 20:27:59.
