data_PCOD9000482
_publ_section_title
;
Structure prediction by ZEFSAII (Michael W. Deem and Ramdas Pophale) SiO2 
 PCOD9000482
Probable space group: P 1
;
_chemical_formula_sum "Si O2"
_cell_formula_units_Z 8
_cell_length_a 12.098001
_cell_length_b 11.639001
_cell_length_c 5.244313
_cell_angle_alpha 51.559292
_cell_angle_beta 113.560967
_cell_angle_gamma 145.421635
_cell_volume 317.634317
_symmetry_space_group_name_H-M "P 1"
_symmetry_group_IT_number 1
_symmetry_cell_setting 'triclinic'
loop_
_space_group_symop_operation_xyz
x,y,z
loop_
_atom_site_type_symbol
_atom_site_label
_atom_site_fract_x
_atom_site_fract_y
_atom_site_fract_z
Si Si1 0.775930 0.282690 0.347520
Si Si2 0.341503 0.809850 0.761155
Si Si3 0.624172 0.534751 0.721777
Si Si4 0.030762 0.051868 0.513455
Si Si5 0.841088 0.539911 0.552073
Si Si6 0.062911 0.361258 0.802774
Si Si7 0.263237 0.052185 0.384435
Si Si8 0.342610 0.519840 0.483800
O O1 0.790504 0.407291 0.429834
O O2 0.922731 0.290671 0.548733
O O3 0.541926 0.011828 0.496936
O O4 0.833551 0.420564 0.951844
O O5 0.142880 0.577197 0.738220
O O6 0.313734 0.939487 0.693720
O O7 0.364897 0.697145 0.126410
O O8 0.684599 0.510492 0.551560
O O9 0.530609 0.602335 0.495810
O O10 0.830405 0.760373 0.757958
O O11 0.450282 0.283098 0.065917
O O12 0.148320 0.238268 0.598085
O O13 0.192911 0.105477 0.446903
O O14 0.964707 0.132454 0.180587
O O15 0.060771 0.827878 0.342489
O O16 0.276698 0.495220 0.739906
#
# Coordination Sequence:
#
# PCOD9000482 Si02
#       8
#     1   1   1   1   1   1   1   1
#     4  12  26  47  74 113 151 199 251 314 378 451
#     4  11  25  44  73 108 143 199 248 309 374 449
#     4  11  24  47  74 108 146 197 252 309 379 453
#     4  10  25  46  70 107 147 196 253 307 379 451
#     4  11  27  47  76 113 153 196 253 316 379 446
#     4  11  24  47  70 106 154 193 249 314 373 453
#     4  11  22  49  72 110 149 191 252 315 373 445
#     4  11  25  45  73 103 151 199 246 312 377 452
#
# _framework density 25.186198000000001
#
# number of rings (size 3 to 8) (size 9 to 14) (size 15 to 20)
#    0.000    1.000    3.750    1.500    5.250    3.000 
#    2.250    0.000    0.000    0.000    0.000    0.000 
#    0.000    0.000    0.000    0.000    0.000    0.000 
#
# Total GULP energy -44790.278563 kJ/mol
# GULP energy per Si atom -5598.784820 kJ/mol
# Density = 2.512887 g / cm^3
# Si number density = 25.186198 Si / 1000 Ang^3
#
#
#
# Elastic Constant Matrix: (Units=GPa)
#
#
# Indices 1 2 3 4 5 6 
#
# 1 164.3443 55.0296 36.5980 -15.4216 6.6890 3.2409
# 2 55.0296 84.1432 55.5844 -27.0326 -11.8259 -2.1064
# 3 36.5980 55.5844 110.7055 -28.0900 3.2966 5.2441
# 4 -15.4216 -27.0326 -28.0900 43.4328 11.7620 -0.2326
# 5 6.6890 -11.8259 3.2966 11.7620 52.5870 -1.1975
# 6 3.2409 -2.1064 5.2441 -0.2326 -1.1975 47.9709
#
#
#
# Elastic Compliance Matrix: (Units=1/GPa)
#
#
# Indices 1 2 3 4 5 6 
#
# 1 0.008094 -0.005905 0.000440 0.000138 -0.002437 -0.000914
# 2 -0.005905 0.024514 -0.009203 0.005699 0.005627 0.002650
# 3 0.000440 -0.009203 0.015097 0.005350 -0.004318 -0.002166
# 4 0.000138 0.005699 0.005350 0.031752 -0.006181 -0.000344
# 5 -0.002437 0.005627 -0.004318 -0.006181 0.022277 0.001410
# 6 -0.000914 0.002650 -0.002166 -0.000344 0.001410 0.021294
#
#
# Mechanical properties :
#
#
# Convention : Reuss Voigt Hill
#
# Bulk Modulus (GPa) = 54.44044 72.62411 63.53228
# Shear Modulus (GPa) = 31.54797 42.93021 37.23909
#
# Velocity S-wave (km/s) = 3.54303 4.13305 3.84937
# Velocity P-wave (km/s) = 6.19674 7.18844 6.71093
#
# Compressibility (1/GPa) = 0.01836870
#
# Stress axis : x y z
#
# Youngs Moduli (GPa) = 123.54277 40.79258 66.23868
#
# Poissons Ratio (x) = 0.24090 -0.02915
# Poissons Ratio (y) = 0.72958 0.60960
# Poissons Ratio (z) = -0.05437 0.37542
#
# Static dielectric constant tensor:
#      x y z
#    x 1.993380 0.023790 0.049680 
#    y 0.023790 1.981990 0.019400 
#    z 0.049680 0.019400 2.019050 
# 
# From -- ./inp_files/2348.got.cif
#   From: 2010.05.17/outbox.cif.g08.bks.cpg/sg1_2_cif.got.tgz:2348.got - 2010.05.17 20:27:59.
