data_PCOD9000244
_publ_section_title
;
Structure prediction by ZEFSAII (Michael W. Deem and Ramdas Pophale) SiO2 
 PCOD9000244
Probable space group: P 1
;
_chemical_formula_sum "Si O2"
_cell_formula_units_Z 8
_cell_length_a 9.943752
_cell_length_b 5.103006
_cell_length_c 14.233938
_cell_angle_alpha 69.786561
_cell_angle_beta 154.109690
_cell_angle_gamma 105.830673
_cell_volume 294.678288
_symmetry_space_group_name_H-M "P 1"
_symmetry_group_IT_number 1
_symmetry_cell_setting 'triclinic'
loop_
_space_group_symop_operation_xyz
x,y,z
loop_
_atom_site_type_symbol
_atom_site_label
_atom_site_fract_x
_atom_site_fract_y
_atom_site_fract_z
Si Si1 0.389970 0.312790 0.694050
Si Si2 0.741301 0.503752 0.050141
Si Si3 0.202602 0.315039 0.062896
Si Si4 0.760661 0.118911 0.322692
Si Si5 0.403375 0.243957 0.498220
Si Si6 0.215040 0.820018 0.765408
Si Si7 0.285685 0.847089 0.328919
Si Si8 0.139406 0.934742 0.909246
O O1 0.515763 0.252019 0.675686
O O2 0.021501 0.329674 0.438923
O O3 0.396972 0.076668 0.809255
O O4 0.572272 0.534795 0.837548
O O5 0.018993 0.253832 0.256986
O O6 0.459896 0.549586 0.942276
O O7 0.960544 0.752029 0.170139
O O8 0.556917 0.276862 0.255845
O O9 0.205703 0.095638 0.175638
O O10 0.119461 0.641214 0.986840
O O11 0.032545 0.190689 0.880177
O O12 0.501589 0.994303 0.112231
O O13 0.951108 0.838776 0.518358
O O14 0.484969 0.970824 0.521218
O O15 0.445561 0.541809 0.437425
O O16 0.048808 0.885763 0.751301
#
# Coordination Sequence:
#
# PCOD9000244 Si02
#       8
#     1   1   1   1   1   1   1   1
#     4  10  23  38  62  98 131 155 208 260 320 374
#     4  10  24  36  69  91 134 161 205 264 311 380
#     4  10  22  44  66  85 127 168 215 250 308 362
#     4   8  24  35  64  91 126 161 200 261 307 378
#     4  10  24  41  67  90 128 169 208 254 323 360
#     4  10  23  36  63  95 131 151 211 249 330 364
#     4  10  23  43  68  88 124 175 214 253 303 375
#     4  10  23  39  65  92 123 170 201 261 312 369
#
# _framework density 27.148251999999999
#
# number of rings (size 3 to 8) (size 9 to 14) (size 15 to 20)
#    2.250    0.000    0.000    1.500   10.500    0.000 
#    0.000    1.250    0.000    0.000    0.000    0.000 
#    0.000    0.000    0.000    0.000    0.000    0.000 
#
# Total GULP energy -44562.131305 kJ/mol
# GULP energy per Si atom -5570.266413 kJ/mol
# Density = 2.708646 g / cm^3
# Si number density = 27.148252 Si / 1000 Ang^3
#
#
#
# Elastic Constant Matrix: (Units=GPa)
#
#
# Indices 1 2 3 4 5 6 
#
# 1 77.3145 26.5190 1.9228 -7.1225 -15.0930 1.1288
# 2 26.5190 149.4642 28.6072 4.6152 -10.1505 -1.9899
# 3 1.9228 28.6072 95.7445 23.4968 -12.5625 6.5012
# 4 -7.1225 4.6152 23.4968 42.1000 -7.0527 -5.0210
# 5 -15.0930 -10.1505 -12.5625 -7.0527 42.6233 -4.8963
# 6 1.1288 -1.9899 6.5012 -5.0210 -4.8963 40.3009
#
#
#
# Elastic Compliance Matrix: (Units=1/GPa)
#
#
# Indices 1 2 3 4 5 6 
#
# 1 0.015189 -0.002467 0.000208 0.003717 0.005531 0.000554
# 2 -0.002467 0.007597 -0.002275 0.000192 0.000398 0.000883
# 3 0.000208 -0.002275 0.013336 -0.007183 0.001937 -0.002929
# 4 0.003717 0.000192 -0.007183 0.029812 0.004793 0.005361
# 5 0.005531 0.000398 0.001937 0.004793 0.027277 0.003463
# 6 0.000554 0.000883 -0.002929 0.005361 0.003463 0.026403
#
#
# Mechanical properties :
#
#
# Convention : Reuss Voigt Hill
#
# Bulk Modulus (GPa) = 36.96267 48.51348 42.73807
# Shear Modulus (GPa) = 36.31121 42.70312 39.50717
#
# Velocity S-wave (km/s) = 3.66117 3.97036 3.81890
# Velocity P-wave (km/s) = 5.61399 6.23915 5.93481
#
# Compressibility (1/GPa) = 0.02705432
#
# Stress axis : x y z
#
# Youngs Moduli (GPa) = 65.83675 131.63930 74.98511
#
# Poissons Ratio (x) = 0.32469 -0.01559
# Poissons Ratio (y) = 0.16239 0.17059
# Poissons Ratio (z) = -0.01368 0.29948
#
# Static dielectric constant tensor:
#      x y z
#    x 2.234740 -0.029050 0.057520 
#    y -0.029050 2.150680 -0.026180 
#    z 0.057520 -0.026180 2.214470 
# 
# From -- ./inp_files/3326.got.cif
#   From: 2010.05.17/outbox.cif.g08.bks.cpg/sg1_2_cif.got.tgz:3326.got - 2010.05.17 20:27:59.
