data_PCOD9000425
_publ_section_title
;
Structure prediction by ZEFSAII (Michael W. Deem and Ramdas Pophale) SiO2 
 PCOD9000425
Probable space group: P 1
;
_chemical_formula_sum "Si O2"
_cell_formula_units_Z 8
_cell_length_a 7.502088
_cell_length_b 11.703019
_cell_length_c 13.038634
_cell_angle_alpha 155.008305
_cell_angle_beta 41.399829
_cell_angle_gamma 127.024492
_cell_volume 307.213498
_symmetry_space_group_name_H-M "P 1"
_symmetry_group_IT_number 1
_symmetry_cell_setting 'triclinic'
loop_
_space_group_symop_operation_xyz
x,y,z
loop_
_atom_site_type_symbol
_atom_site_label
_atom_site_fract_x
_atom_site_fract_y
_atom_site_fract_z
Si Si1 0.657480 0.193300 0.381700
Si Si2 0.263717 0.051063 0.572723
Si Si3 0.712898 0.009976 0.992706
Si Si4 0.230974 0.581202 0.363940
Si Si5 0.745312 0.115152 0.722340
Si Si6 0.761131 0.165856 0.524629
Si Si7 0.268039 0.752860 0.915254
Si Si8 0.555619 0.608356 0.454203
O O1 0.485800 0.981920 0.326677
O O2 0.820184 0.282424 0.481133
O O3 0.419312 0.463374 0.667881
O O4 0.810039 0.058323 0.103956
O O5 0.423370 0.235745 0.720069
O O6 0.962177 0.190647 0.768652
O O7 0.285147 0.785908 0.419012
O O8 0.396097 0.989981 0.103774
O O9 0.718874 0.287166 0.152905
O O10 0.897985 0.711020 0.625687
O O11 0.364433 0.621025 0.447710
O O12 0.414534 0.270937 0.004746
O O13 0.825880 0.190125 0.634688
O O14 0.761446 0.795327 0.486015
O O15 0.941946 0.844543 0.158756
O O16 0.363268 0.725883 0.733367
#
# Coordination Sequence:
#
# PCOD9000425 Si02
#       8
#     1   1   1   1   1   1   1   1
#     4   9  23  44  68  99 145 178 231 295 348 414
#     4  10  24  45  68 106 139 183 235 288 346 424
#     4  11  25  45  71 105 142 187 238 293 347 426
#     4  12  25  44  71 104 147 184 238 289 353 416
#     4  12  26  47  74 105 144 190 231 293 356 418
#     4  10  24  46  70 104 140 185 231 290 354 417
#     4  11  23  43  73 103 138 190 233 293 355 415
#     4  11  24  46  69 102 147 183 237 295 349 418
#
# _framework density 26.040521999999999
#
# number of rings (size 3 to 8) (size 9 to 14) (size 15 to 20)
#    0.750    0.500    1.250    3.750    1.750    8.000 
#    4.500    0.000    0.000    0.000    0.000    0.000 
#    0.000    0.000    0.000    0.000    0.000    0.000 
#
# Total GULP energy -44615.275947 kJ/mol
# GULP energy per Si atom -5576.909493 kJ/mol
# Density = 2.598125 g / cm^3
# Si number density = 26.040522 Si / 1000 Ang^3
#
#
#
# Elastic Constant Matrix: (Units=GPa)
#
#
# Indices 1 2 3 4 5 6 
#
# 1 120.0338 63.6253 28.6158 -8.1764 -8.3609 -45.9781
# 2 63.6253 117.0537 30.4129 5.7343 -3.8377 -37.7031
# 3 28.6158 30.4129 106.1406 -8.2479 -13.6906 -15.6931
# 4 -8.1764 5.7343 -8.2479 31.6860 -3.5546 -2.6485
# 5 -8.3609 -3.8377 -13.6906 -3.5546 33.6964 -1.5076
# 6 -45.9781 -37.7031 -15.6931 -2.6485 -1.5076 53.0453
#
#
#
# Elastic Compliance Matrix: (Units=1/GPa)
#
#
# Indices 1 2 3 4 5 6 
#
# 1 0.015992 -0.005489 -0.000133 0.006449 0.004433 0.010369
# 2 -0.005489 0.013575 -0.002283 -0.004249 -0.001014 0.003975
# 3 -0.000133 -0.002283 0.011336 0.004035 0.004826 0.001955
# 4 0.006449 -0.004249 0.004035 0.036293 0.006842 0.005770
# 5 0.004433 -0.001014 0.004826 0.006842 0.033605 0.005846
# 6 0.010369 0.003975 0.001955 0.005770 0.005846 0.031697
#
#
# Mechanical properties :
#
#
# Convention : Reuss Voigt Hill
#
# Bulk Modulus (GPa) = 39.85033 65.39287 52.62160
# Shear Modulus (GPa) = 29.99901 38.39048 34.19475
#
# Velocity S-wave (km/s) = 3.39781 3.84377 3.62765
# Velocity P-wave (km/s) = 5.54346 6.69820 6.14800
#
# Compressibility (1/GPa) = 0.02509389
#
# Stress axis : x y z
#
# Youngs Moduli (GPa) = 62.53218 73.66517 88.21110
#
# Poissons Ratio (x) = 0.40433 0.01170
# Poissons Ratio (y) = 0.34323 0.20140
# Poissons Ratio (z) = 0.00830 0.16819
#
# Static dielectric constant tensor:
#      x y z
#    x 2.060850 0.001230 0.008860 
#    y 0.001230 2.091500 -0.048410 
#    z 0.008860 -0.048410 2.035640 
# 
# From -- ./inp_files/7159.got.cif
#   From: 2010.05.17/outbox.cif.g08.bks.cpg/sg1_4_cif.got.tgz:7159.got - 2010.05.17 20:27:59.
