data_PCOD9000129
_publ_section_title
;
Structure prediction by ZEFSAII (Michael W. Deem and Ramdas Pophale) SiO2 
 PCOD9000129
Probable space group: P 1
;
_chemical_formula_sum "Si O2"
_cell_formula_units_Z 8
_cell_length_a 12.362827
_cell_length_b 5.113928
_cell_length_c 7.829444
_cell_angle_alpha 88.727751
_cell_angle_beta 46.428686
_cell_angle_gamma 80.769926
_cell_volume 351.278822
_symmetry_space_group_name_H-M "P 1"
_symmetry_group_IT_number 1
_symmetry_cell_setting 'triclinic'
loop_
_space_group_symop_operation_xyz
x,y,z
loop_
_atom_site_type_symbol
_atom_site_label
_atom_site_fract_x
_atom_site_fract_y
_atom_site_fract_z
Si Si1 0.565450 0.832290 0.734260
Si Si2 0.874693 0.248730 0.867954
Si Si3 0.194871 0.328762 0.553898
Si Si4 0.027327 0.923567 0.205759
Si Si5 0.879424 0.499300 0.504623
Si Si6 0.401721 0.374055 0.004579
Si Si7 0.328013 0.090117 0.765115
Si Si8 0.915633 0.729069 0.979580
O O1 0.732078 0.661606 0.567958
O O2 0.842273 0.466651 0.052158
O O3 0.494667 0.909703 0.622215
O O4 0.542682 0.116772 0.851085
O O5 0.827514 0.411816 0.746222
O O6 0.955306 0.223261 0.337072
O O7 0.060166 0.172123 0.656719
O O8 0.825812 0.973253 0.961872
O O9 0.297582 0.350461 0.279794
O O10 0.289399 0.202173 0.617571
O O11 0.085563 0.606013 0.725017
O O12 0.996857 0.703366 0.378812
O O13 0.322290 0.320880 0.912064
O O14 0.198981 0.931406 0.966852
O O15 0.944269 0.847011 0.128261
O O16 0.457580 0.650165 0.937668
#
# Coordination Sequence:
#
# PCOD9000129 Si02
#       8
#     1   1   1   1   1   1   1   1
#     4  10  26  45  62  94 140 174 225 265 333 400
#     4  10  22  37  62  93 131 162 212 272 328 377
#     4  10  22  39  68 100 130 164 222 280 332 375
#     4  12  23  40  71  99 127 174 226 274 335 388
#     4  12  25  43  68  95 135 181 217 274 335 396
#     4  10  24  40  68  95 132 180 216 269 335 395
#     4  10  24  42  71  99 134 163 230 277 326 396
#     4  10  22  38  58 101 135 154 212 287 324 387
#
# _framework density 22.773935000000002
#
# number of rings (size 3 to 8) (size 9 to 14) (size 15 to 20)
#    1.500    0.000    1.250    3.750    7.000    0.000 
#    0.000    3.750    0.000    0.000    0.000    0.000 
#    0.000    0.000    0.000    0.000    0.000    0.000 
#
# Total GULP energy -44633.894968 kJ/mol
# GULP energy per Si atom -5579.236871 kJ/mol
# Density = 2.272210 g / cm^3
# Si number density = 22.773935 Si / 1000 Ang^3
#
#
#
# Elastic Constant Matrix: (Units=GPa)
#
#
# Indices 1 2 3 4 5 6 
#
# 1 68.8669 21.7618 16.4986 6.6024 8.0651 -23.9458
# 2 21.7618 136.8533 6.8758 7.8786 1.4309 -5.8146
# 3 16.4986 6.8758 33.3994 -2.8932 10.7733 -4.0967
# 4 6.6024 7.8786 -2.8932 23.5366 5.8039 -3.2464
# 5 8.0651 1.4309 10.7733 5.8039 13.4754 2.8585
# 6 -23.9458 -5.8146 -4.0967 -3.2464 2.8585 29.8408
#
#
#
# Elastic Compliance Matrix: (Units=1/GPa)
#
#
# Indices 1 2 3 4 5 6 
#
# 1 0.025594 -0.002800 -0.004316 0.000072 -0.016045 0.020945
# 2 -0.002800 0.007942 -0.002239 -0.003515 0.004523 -0.001822
# 3 -0.004316 -0.002239 0.052109 0.022318 -0.050687 0.010538
# 4 0.000072 -0.003515 0.022318 0.059566 -0.045994 0.013323
# 5 -0.016045 0.004523 -0.050687 -0.045994 0.151832 -0.038501
# 6 0.020945 -0.001822 0.010538 0.013323 -0.038501 0.056548
#
#
# Mechanical properties :
#
#
# Convention : Reuss Voigt Hill
#
# Bulk Modulus (GPa) = 14.93946 36.59909 25.76928
# Shear Modulus (GPa) = 12.67066 26.30278 19.48672
#
# Velocity S-wave (km/s) = 2.36130 3.40214 2.92834
# Velocity P-wave (km/s) = 3.74279 5.61589 4.77214
#
# Compressibility (1/GPa) = 0.06693684
#
# Stress axis : x y z
#
# Youngs Moduli (GPa) = 39.07109 125.90622 19.19066
#
# Poissons Ratio (x) = 0.35248 0.08282
# Poissons Ratio (y) = 0.10938 0.04297
# Poissons Ratio (z) = 0.16863 0.28189
#
# Static dielectric constant tensor:
#      x y z
#    x 1.893160 -0.008020 -0.011100 
#    y -0.008020 1.884420 -0.030000 
#    z -0.011100 -0.030000 1.872420 
# 
# From -- ./inp_files/5650.got.cif
#   From: 2010.05.17/outbox.cif.g08.bks.cpg/sg1_3_cif.got.tgz:5650.got - 2010.05.17 20:27:59.
