data_PCOD9000334
_publ_section_title
;
Structure prediction by ZEFSAII (Michael W. Deem and Ramdas Pophale) SiO2 
 PCOD9000334
Probable space group: P 1
;
_chemical_formula_sum "Si O2"
_cell_formula_units_Z 8
_cell_length_a 9.140368
_cell_length_b 12.305929
_cell_length_c 14.503821
_cell_angle_alpha 29.236228
_cell_angle_beta 26.264847
_cell_angle_gamma 38.795147
_cell_volume 352.561401
_symmetry_space_group_name_H-M "P 1"
_symmetry_group_IT_number 1
_symmetry_cell_setting 'triclinic'
loop_
_space_group_symop_operation_xyz
x,y,z
loop_
_atom_site_type_symbol
_atom_site_label
_atom_site_fract_x
_atom_site_fract_y
_atom_site_fract_z
Si Si1 0.829130 0.747840 0.303910
Si Si2 0.825903 0.367987 0.079731
Si Si3 0.911043 0.246903 0.392358
Si Si4 0.559171 0.321380 0.873223
Si Si5 0.424898 0.589316 0.485037
Si Si6 0.505334 0.819734 0.953643
Si Si7 0.234820 0.979116 0.184195
Si Si8 0.533310 0.198718 0.181356
O O1 0.753574 0.522693 0.569149
O O2 0.700460 0.717417 0.295288
O O3 0.212693 0.808976 0.052424
O O4 0.615270 0.939501 0.330864
O O5 0.188632 0.470021 0.780214
O O6 0.627624 0.569109 0.088146
O O7 0.667959 0.322607 0.102233
O O8 0.903960 0.126966 0.257060
O O9 0.601813 0.401463 0.465357
O O10 0.144015 0.238360 0.357749
O O11 0.168519 0.354005 0.094619
O O12 0.793025 0.992934 0.631523
O O13 0.521481 0.118563 0.973232
O O14 0.690740 0.269252 0.940543
O O15 0.214172 0.751520 0.420994
O O16 0.351603 0.923074 0.056833
#
# Coordination Sequence:
#
# PCOD9000334 Si02
#       8
#     1   1   1   1   1   1   1   1
#     4  12  22  46  70 106 142 188 234 296 351 420
#     4  12  25  47  68 106 149 184 236 294 351 422
#     4  10  23  46  72 106 138 191 233 289 362 411
#     4  10  24  44  72 101 140 185 233 288 356 410
#     4  12  24  44  74 100 153 182 239 295 350 425
#     4  12  26  45  76 103 146 189 234 294 356 419
#     4  12  25  43  70 106 140 189 234 285 358 414
#     4  10  23  43  72 100 146 178 237 287 354 417
#
# _framework density 22.691084
#
# number of rings (size 3 to 8) (size 9 to 14) (size 15 to 20)
#    0.750    0.000    5.000    2.250    3.500    0.000 
#    0.000    0.000    5.500    0.000    0.000    0.000 
#    0.000    0.000    0.000    0.000    0.000    0.000 
#
# Total GULP energy -44677.983817 kJ/mol
# GULP energy per Si atom -5584.747977 kJ/mol
# Density = 2.263944 g / cm^3
# Si number density = 22.691084 Si / 1000 Ang^3
#
#
#
# Elastic Constant Matrix: (Units=GPa)
#
#
# Indices 1 2 3 4 5 6 
#
# 1 110.3137 16.2600 20.6121 -13.0615 -10.7443 -9.8426
# 2 16.2600 123.1959 -0.1013 -20.9336 -0.3401 -8.8446
# 3 20.6121 -0.1013 51.4133 -12.6001 -1.4346 -12.5034
# 4 -13.0615 -20.9336 -12.6001 31.9105 -2.4735 0.3754
# 5 -10.7443 -0.3401 -1.4346 -2.4735 28.2968 -3.2801
# 6 -9.8426 -8.8446 -12.5034 0.3754 -3.2801 38.6592
#
#
#
# Elastic Compliance Matrix: (Units=1/GPa)
#
#
# Indices 1 2 3 4 5 6 
#
# 1 0.010686 -0.000745 -0.002946 0.003039 0.004390 0.001940
# 2 -0.000745 0.009651 0.002818 0.007178 0.000944 0.002940
# 3 -0.002946 0.002818 0.025298 0.010697 0.002077 0.008149
# 4 0.003039 0.007178 0.010697 0.041920 0.006141 0.005990
# 5 0.004390 0.000944 0.002077 0.006141 0.038262 0.005192
# 6 0.001940 0.002940 0.008149 0.005990 0.005192 0.030052
#
#
# Mechanical properties :
#
#
# Convention : Reuss Voigt Hill
#
# Bulk Modulus (GPa) = 22.78474 39.82937 31.30706
# Shear Modulus (GPa) = 29.02846 36.31677 32.67261
#
# Velocity S-wave (km/s) = 3.58060 4.00495 3.79870
# Velocity P-wave (km/s) = 5.21127 6.24317 5.75041
#
# Compressibility (1/GPa) = 0.04388902
#
# Stress axis : x y z
#
# Youngs Moduli (GPa) = 93.58115 103.61483 39.52823
#
# Poissons Ratio (x) = 0.07719 0.11647
# Poissons Ratio (y) = 0.06971 -0.11140
# Poissons Ratio (z) = 0.27573 -0.29200
#
# Static dielectric constant tensor:
#      x y z
#    x 1.884580 -0.010780 0.010450 
#    y -0.010780 1.848300 -0.014140 
#    z 0.010450 -0.014140 1.813300 
# 
# From -- ./inp_files/4226.got.cif
#   From: 2010.05.17/outbox.cif.g08.bks.cpg/sg1_3_cif.got.tgz:4226.got - 2010.05.17 20:27:59.
