data_PCOD9000589
_publ_section_title
;
Structure prediction by ZEFSAII (Michael W. Deem and Ramdas Pophale) SiO2 
 PCOD9000589
Probable space group: P 1
;
_chemical_formula_sum "Si O2"
_cell_formula_units_Z 6
_cell_length_a 10.452647
_cell_length_b 6.320686
_cell_length_c 5.460162
_cell_angle_alpha 130.964370
_cell_angle_beta 71.396941
_cell_angle_gamma 104.137807
_cell_volume 257.858536
_symmetry_space_group_name_H-M "P 1"
_symmetry_group_IT_number 1
_symmetry_cell_setting 'triclinic'
loop_
_space_group_symop_operation_xyz
x,y,z
loop_
_atom_site_type_symbol
_atom_site_label
_atom_site_fract_x
_atom_site_fract_y
_atom_site_fract_z
Si Si1 0.636180 0.105170 0.696930
Si Si2 0.991722 0.580738 0.485109
Si Si3 0.455809 0.618591 0.249934
Si Si4 0.240083 0.691648 0.077305
Si Si5 0.208227 0.270799 0.389471
Si Si6 0.806487 0.081169 0.072328
O O1 0.721989 0.082932 0.377572
O O2 0.516677 0.865879 0.568104
O O3 0.572696 0.408226 0.965871
O O4 0.717915 0.061476 0.864098
O O5 0.895585 0.371775 0.226249
O O6 0.115988 0.714768 0.355817
O O7 0.065228 0.383650 0.483208
O O8 0.903450 0.821862 0.827498
O O9 0.386073 0.744638 0.149644
O O10 0.230020 0.379625 0.736097
O O11 0.331113 0.435312 0.302187
O O12 0.217160 0.941900 0.092504
#
# Coordination Sequence:
#
# PCOD9000589 Si02
#       6
#     1   1   1   1   1   1
#     4  12  28  47  74 103 146 194 236 290 350 426
#     4  11  26  46  70 108 138 183 244 290 358 421
#     4  11  26  46  70 108 138 183 244 290 358 421
#     4  11  24  43  76 101 139 182 230 307 354 415
#     4  11  24  43  76 101 139 182 230 307 354 415
#     4  12  28  47  74 103 146 194 236 290 350 426
#
# _framework density 23.268571999999999
#
# number of rings (size 3 to 8) (size 9 to 14) (size 15 to 20)
#    0.000    0.667    0.000    6.000   14.000    5.333 
#    0.000    0.000    0.000    0.000    0.000    0.000 
#    0.000    0.000    0.000    0.000    0.000    0.000 
#
# Total GULP energy -33595.378566 kJ/mol
# GULP energy per Si atom -5599.229761 kJ/mol
# Density = 2.321561 g / cm^3
# Si number density = 23.268572 Si / 1000 Ang^3
#
#
#
# Elastic Constant Matrix: (Units=GPa)
#
#
# Indices 1 2 3 4 5 6 
#
# 1 102.5025 25.7169 37.7972 -10.5445 4.6060 -14.0733
# 2 25.7169 69.1940 21.9468 3.3102 -7.8505 -8.2039
# 3 37.7972 21.9468 102.8467 6.0430 -6.7155 -14.3348
# 4 -10.5445 3.3102 6.0430 47.7444 -0.5108 7.3416
# 5 4.6060 -7.8505 -6.7155 -0.5108 50.9755 10.8667
# 6 -14.0733 -8.2039 -14.3348 7.3416 10.8667 24.5000
#
#
#
# Elastic Compliance Matrix: (Units=1/GPa)
#
#
# Indices 1 2 3 4 5 6 
#
# 1 0.013146 -0.003633 -0.003782 0.002879 -0.003216 0.004685
# 2 -0.003633 0.016960 -0.001705 -0.002082 0.002218 0.002234
# 3 -0.003782 -0.001705 0.012419 -0.003081 0.000578 0.005190
# 4 0.002879 -0.002082 -0.003081 0.023404 0.001020 -0.008311
# 5 -0.003216 0.002218 0.000578 0.001020 0.022712 -0.011145
# 6 0.004685 0.002234 0.005190 -0.008311 -0.011145 0.054726
#
#
# Mechanical properties :
#
#
# Convention : Reuss Voigt Hill
#
# Bulk Modulus (GPa) = 41.18012 49.49613 45.33812
# Shear Modulus (GPa) = 29.46341 37.24945 33.35643
#
# Velocity S-wave (km/s) = 3.56228 4.00540 3.79032
# Velocity P-wave (km/s) = 5.88693 6.53520 6.21951
#
# Compressibility (1/GPa) = 0.02428356
#
# Stress axis : x y z
#
# Youngs Moduli (GPa) = 76.06886 58.96387 80.52104
#
# Poissons Ratio (x) = 0.21424 0.30453
# Poissons Ratio (y) = 0.27638 0.13730
# Poissons Ratio (z) = 0.28770 0.10054
#
# Static dielectric constant tensor:
#      x y z
#    x 1.851640 -0.008000 0.026920 
#    y -0.008000 1.907960 -0.068140 
#    z 0.026920 -0.068140 1.847290 
# 
# From -- ./inp_files/1961.got.cif
#   From: 2010.05.17/outbox.cif.g08.bks.cpg/sg1_1_cif.got.tgz:1961.got - 2010.05.17 20:27:59.
