data_PCOD9000681
_publ_section_title
;
Structure prediction by ZEFSAII (Michael W. Deem and Ramdas Pophale) SiO2 
 PCOD9000681
Probable space group: P 1
;
_chemical_formula_sum "Si O2"
_cell_formula_units_Z 8
_cell_length_a 7.942796
_cell_length_b 7.337088
_cell_length_c 5.430228
_cell_angle_alpha 104.653633
_cell_angle_beta 90.198200
_cell_angle_gamma 80.014401
_cell_volume 301.254665
_symmetry_space_group_name_H-M "P 1"
_symmetry_group_IT_number 1
_symmetry_cell_setting 'triclinic'
loop_
_space_group_symop_operation_xyz
x,y,z
loop_
_atom_site_type_symbol
_atom_site_label
_atom_site_fract_x
_atom_site_fract_y
_atom_site_fract_z
Si Si1 0.673820 0.833380 0.878580
Si Si2 0.473861 0.385626 0.430009
Si Si3 0.283616 0.966699 0.083532
Si Si4 0.744284 0.092055 0.579604
Si Si5 0.116280 0.564648 0.449851
Si Si6 0.143311 0.007014 0.594648
Si Si7 0.011960 0.687313 0.995891
Si Si8 0.596818 0.460219 0.952515
O O1 0.482808 0.913596 0.995969
O O2 0.693774 0.611306 0.876696
O O3 0.693063 0.898362 0.620063
O O4 0.852368 0.862380 0.013643
O O5 0.616833 0.195944 0.405947
O O6 0.281050 0.406625 0.345100
O O7 0.452203 0.461207 0.738487
O O8 0.547698 0.500936 0.248318
O O9 0.193979 0.079397 0.884179
O O10 0.179929 0.788618 0.048173
O O11 0.261415 0.049474 0.386831
O O12 0.696956 0.244251 0.855923
O O13 0.946046 0.070229 0.540259
O O14 0.996406 0.582735 0.217693
O O15 0.169729 0.775511 0.542743
O O16 0.034585 0.550472 0.710749
#
# Coordination Sequence:
#
# PCOD9000681 Si02
#       8
#     1   1   1   1   1   1   1   1
#     4  12  23  48  77 107 136 197 236 289 361 423
#     4  10  22  44  70 102 149 183 226 304 352 408
#     4  10  22  39  67 101 135 179 233 284 342 417
#     4  10  25  44  75 106 143 187 236 294 356 419
#     4  10  18  37  65  96 134 182 224 278 351 404
#     4  10  20  41  66  96 147 178 223 298 345 404
#     4  10  22  37  68 101 135 179 232 285 343 417
#     4  10  24  42  68 105 141 183 236 286 350 422
#
# _framework density 26.555605
#
# number of rings (size 3 to 8) (size 9 to 14) (size 15 to 20)
#    0.750    1.000    2.500    3.750    1.750    2.000 
#    4.500    1.250    0.000    0.000    0.000    0.000 
#    0.000    0.000    0.000    0.000    0.000    0.000 
#
# Total GULP energy -44623.899688 kJ/mol
# GULP energy per Si atom -5577.987461 kJ/mol
# Density = 2.649516 g / cm^3
# Si number density = 26.555605 Si / 1000 Ang^3
#
#
#
# Elastic Constant Matrix: (Units=GPa)
#
#
# Indices 1 2 3 4 5 6 
#
# 1 118.5365 23.8039 23.7559 1.2235 -15.7458 -39.9909
# 2 23.8039 76.5538 19.0362 -16.9671 4.8062 -10.8937
# 3 23.7559 19.0362 156.2946 -33.6785 5.2284 -13.0659
# 4 1.2235 -16.9671 -33.6785 24.8028 -7.2139 4.9938
# 5 -15.7458 4.8062 5.2284 -7.2139 40.7386 0.3433
# 6 -39.9909 -10.8937 -13.0659 4.9938 0.3433 35.4171
#
#
#
# Elastic Compliance Matrix: (Units=1/GPa)
#
#
# Indices 1 2 3 4 5 6 
#
# 1 0.016712 -0.004453 -0.002766 -0.009610 0.005488 0.017782
# 2 -0.004453 0.017045 0.001514 0.013735 -0.001484 -0.001149
# 3 -0.002766 0.001514 0.009674 0.014568 0.000100 -0.001143
# 4 -0.009610 0.013735 0.014568 0.074084 0.006013 -0.011756
# 5 0.005488 -0.001484 0.000100 0.006013 0.027856 0.004659
# 6 0.017782 -0.001149 -0.001143 -0.011756 0.004659 0.049151
#
#
# Mechanical properties :
#
#
# Convention : Reuss Voigt Hill
#
# Bulk Modulus (GPa) = 31.22816 53.84190 42.53503
# Shear Modulus (GPa) = 23.08354 39.17763 31.13059
#
# Velocity S-wave (km/s) = 2.95151 3.84514 3.42757
# Velocity P-wave (km/s) = 4.83738 6.32713 5.63174
#
# Compressibility (1/GPa) = 0.03202238
#
# Stress axis : x y z
#
# Youngs Moduli (GPa) = 59.83716 58.66941 103.36725
#
# Poissons Ratio (x) = 0.26124 0.28586
# Poissons Ratio (y) = 0.26644 -0.15650
# Poissons Ratio (z) = 0.16548 -0.08883
#
# Static dielectric constant tensor:
#      x y z
#    x 2.179350 0.060210 0.073940 
#    y 0.060210 2.118860 0.067240 
#    z 0.073940 0.067240 2.162230 
# 
# From -- ./inp_files/1141.got.cif
#   From: 2010.05.17/outbox.cif.g08.bks.cpg/sg1_1_cif.got.tgz:1141.got - 2010.05.17 20:27:59.
