data_PCOD9000786
_publ_section_title
;
Structure prediction by ZEFSAII (Michael W. Deem and Ramdas Pophale) SiO2 
 PCOD9000786
Probable space group: P 1
;
_chemical_formula_sum "Si O2"
_cell_formula_units_Z 8
_cell_length_a 8.229366
_cell_length_b 8.187313
_cell_length_c 7.246421
_cell_angle_alpha 75.728971
_cell_angle_beta 105.668374
_cell_angle_gamma 53.770154
_cell_volume 323.230307
_symmetry_space_group_name_H-M "P 1"
_symmetry_group_IT_number 1
_symmetry_cell_setting 'triclinic'
loop_
_space_group_symop_operation_xyz
x,y,z
loop_
_atom_site_type_symbol
_atom_site_label
_atom_site_fract_x
_atom_site_fract_y
_atom_site_fract_z
Si Si1 0.027860 0.187180 0.475080
Si Si2 0.881849 0.262939 0.043363
Si Si3 0.463763 0.465960 0.646562
Si Si4 0.514912 0.635001 0.290662
Si Si5 0.647147 0.033890 0.632930
Si Si6 0.255016 0.231837 0.215734
Si Si7 0.531454 0.810385 0.910435
Si Si8 0.197134 0.636715 0.905129
O O1 0.113422 0.289977 0.349772
O O2 0.936626 0.136423 0.290445
O O3 0.791074 0.382766 0.462356
O O4 0.260599 0.973938 0.715111
O O5 0.125456 0.174856 0.074901
O O6 0.734694 0.256769 0.861813
O O7 0.696384 0.546668 0.949240
O O8 0.421653 0.665406 0.459047
O O9 0.465874 0.314340 0.541645
O O10 0.306512 0.558661 0.754287
O O11 0.356472 0.634799 0.097977
O O12 0.545948 0.783211 0.141624
O O13 0.528431 0.029615 0.418010
O O14 0.621861 0.920940 0.824797
O O15 0.922200 0.884360 0.735598
O O16 0.203296 0.442561 0.041679
#
# Coordination Sequence:
#
# PCOD9000786 Si02
#       8
#     1   1   1   1   1   1   1   1
#     4   8  18  39  69  92 132 183 224 272 339 404
#     4   9  19  43  66  98 139 178 222 283 340 403
#     4  12  26  44  71 110 135 181 238 279 346 416
#     4  11  23  42  68 100 145 181 221 293 344 400
#     4  11  24  45  75 101 135 185 233 283 348 406
#     4   9  19  43  70  97 141 182 221 292 346 398
#     4  10  19  43  73  95 136 193 222 278 353 407
#     4  12  22  47  68  99 151 177 219 300 346 394
#
# _framework density 24.750157000000002
#
# number of rings (size 3 to 8) (size 9 to 14) (size 15 to 20)
#    0.750    1.000    5.000    0.000    1.750    0.000 
#    9.000    2.500    0.000    0.000    0.000    0.000 
#    0.000    0.000    0.000    0.000    0.000    0.000 
#
# Total GULP energy -44631.185839 kJ/mol
# GULP energy per Si atom -5578.898230 kJ/mol
# Density = 2.469382 g / cm^3
# Si number density = 24.750157 Si / 1000 Ang^3
#
#
#
# Elastic Constant Matrix: (Units=GPa)
#
#
# Indices 1 2 3 4 5 6 
#
# 1 101.9994 30.8837 51.5838 1.1145 3.6662 -25.1953
# 2 30.8837 58.2867 30.3250 -1.2731 -5.4600 -32.7978
# 3 51.5838 30.3250 150.3941 -2.6744 -8.3946 -26.0908
# 4 1.1145 -1.2731 -2.6744 34.1289 -4.2919 4.1136
# 5 3.6662 -5.4600 -8.3946 -4.2919 66.3470 -6.5232
# 6 -25.1953 -32.7978 -26.0908 4.1136 -6.5232 35.6012
#
#
#
# Elastic Compliance Matrix: (Units=1/GPa)
#
#
# Indices 1 2 3 4 5 6 
#
# 1 0.013566 -0.003287 -0.003376 -0.001463 -0.001143 0.004058
# 2 -0.003287 0.039524 -0.000384 -0.001851 0.006732 0.035251
# 3 -0.003376 -0.000384 0.008653 0.000520 0.001661 0.003843
# 4 -0.001463 -0.001851 0.000520 0.030169 0.001396 -0.005590
# 5 -0.001143 0.006732 0.001661 0.001396 0.016929 0.009551
# 6 0.004058 0.035251 0.003843 -0.005590 0.009551 0.068649
#
#
# Mechanical properties :
#
#
# Convention : Reuss Voigt Hill
#
# Bulk Modulus (GPa) = 20.98668 59.58503 40.28586
# Shear Modulus (GPa) = 24.10017 40.40795 32.25406
#
# Velocity S-wave (km/s) = 3.12386 4.04497 3.61388
# Velocity P-wave (km/s) = 4.63780 6.77810 5.80740
#
# Compressibility (1/GPa) = 0.04764926
#
# Stress axis : x y z
#
# Youngs Moduli (GPa) = 73.71317 25.30110 115.56383
#
# Poissons Ratio (x) = 0.08317 0.39015
# Poissons Ratio (y) = 0.24232 0.04433
# Poissons Ratio (z) = 0.24886 0.00971
#
# Static dielectric constant tensor:
#      x y z
#    x 1.984740 0.058400 0.029100 
#    y 0.058400 2.047670 -0.002960 
#    z 0.029100 -0.002960 1.963830 
# 
# From -- ./inp_files/4217.got.cif
#   From: 2010.05.17/outbox.cif.g08.bks.cpg/sg1_3_cif.got.tgz:4217.got - 2010.05.17 20:27:59.
