data_PCOD9000820
_publ_section_title
;
Structure prediction by ZEFSAII (Michael W. Deem and Ramdas Pophale) SiO2 
 PCOD9000820
Probable space group: P 1
;
_chemical_formula_sum "Si O2"
_cell_formula_units_Z 8
_cell_length_a 9.871741
_cell_length_b 8.390076
_cell_length_c 6.825657
_cell_angle_alpha 76.587382
_cell_angle_beta 68.407608
_cell_angle_gamma 122.150537
_cell_volume 373.607297
_symmetry_space_group_name_H-M "P 1"
_symmetry_group_IT_number 1
_symmetry_cell_setting 'triclinic'
loop_
_space_group_symop_operation_xyz
x,y,z
loop_
_atom_site_type_symbol
_atom_site_label
_atom_site_fract_x
_atom_site_fract_y
_atom_site_fract_z
Si Si1 0.666450 0.913970 0.691620
Si Si2 0.995401 0.367739 0.552448
Si Si3 0.074637 0.722004 0.690483
Si Si4 0.008355 0.943873 0.335692
Si Si5 0.640965 0.388720 0.008059
Si Si6 0.786678 0.493246 0.447069
Si Si7 0.504191 0.071291 0.472428
Si Si8 0.323369 0.418609 0.147773
O O1 0.824065 0.900749 0.539252
O O2 0.612532 0.997288 0.522893
O O3 0.461544 0.670899 0.927705
O O4 0.787922 0.106759 0.739835
O O5 0.057141 0.528341 0.655660
O O6 0.169543 0.377779 0.396011
O O7 0.945373 0.465213 0.382966
O O8 0.091580 0.876008 0.469837
O O9 0.857043 0.581892 0.936366
O O10 0.268072 0.879156 0.675272
O O11 0.908745 0.753879 0.278312
O O12 0.181777 0.209294 0.130810
O O13 0.693237 0.430276 0.737043
O O14 0.554672 0.150513 0.197784
O O15 0.482121 0.405816 0.137454
O O16 0.602606 0.299640 0.468156
#
# Coordination Sequence:
#
# PCOD9000820 Si02
#       8
#     1   1   1   1   1   1   1   1
#     4  10  20  37  59  93 127 156 205 258 301 364
#     4   8  20  35  60  90 123 159 204 248 303 365
#     4  10  20  40  61  92 124 160 212 253 297 372
#     4   9  18  38  63  85 128 162 200 251 306 371
#     4  10  21  40  65  88 124 167 200 248 315 363
#     4   9  20  43  63  91 126 160 206 256 304 366
#     4  11  23  39  65  95 123 159 211 259 298 364
#     4  11  18  36  68  90 117 173 198 243 320 361
#
# _framework density 21.412858
#
# number of rings (size 3 to 8) (size 9 to 14) (size 15 to 20)
#    0.000    2.500    3.750    0.000    0.000    6.000 
#    4.500    0.000    2.750    0.000    0.000    0.000 
#    0.000    0.000    0.000    0.000    0.000    0.000 
#
# Total GULP energy -44563.471150 kJ/mol
# GULP energy per Si atom -5570.433894 kJ/mol
# Density = 2.136412 g / cm^3
# Si number density = 21.412858 Si / 1000 Ang^3
#
#
#
# Elastic Constant Matrix: (Units=GPa)
#
#
# Indices 1 2 3 4 5 6 
#
# 1 100.7741 52.7178 27.3332 5.6005 -29.2320 -3.0189
# 2 52.7178 137.8999 41.6901 -32.1053 -22.7811 8.0281
# 3 27.3332 41.6901 81.1670 -28.0932 -14.3184 1.2664
# 4 5.6005 -32.1053 -28.0932 36.2385 2.6960 -8.8969
# 5 -29.2320 -22.7811 -14.3184 2.6960 35.7462 -11.0387
# 6 -3.0189 8.0281 1.2664 -8.8969 -11.0387 32.3024
#
#
#
# Elastic Compliance Matrix: (Units=1/GPa)
#
#
# Indices 1 2 3 4 5 6 
#
# 1 0.019365 -0.007264 -0.005597 -0.013642 0.011199 0.003904
# 2 -0.007264 0.013214 0.000525 0.013166 0.001775 0.000249
# 3 -0.005597 0.000525 0.021064 0.018596 0.004379 0.005139
# 4 -0.013642 0.013166 0.018596 0.058481 0.004044 0.012213
# 5 0.011199 0.001775 0.004379 0.004044 0.044933 0.016903
# 6 0.003904 0.000249 0.005139 0.012213 0.016903 0.040199
#
#
# Mechanical properties :
#
#
# Convention : Reuss Voigt Hill
#
# Bulk Modulus (GPa) = 34.51773 62.59147 48.55460
# Shear Modulus (GPa) = 21.59027 34.06407 27.82717
#
# Velocity S-wave (km/s) = 3.17880 3.99284 3.60884
# Velocity P-wave (km/s) = 5.44317 7.10994 6.33164
#
# Compressibility (1/GPa) = 0.02897062
#
# Stress axis : x y z
#
# Youngs Moduli (GPa) = 51.63876 75.67811 47.47442
#
# Poissons Ratio (x) = 0.54975 0.26573
# Poissons Ratio (y) = 0.37512 -0.02494
# Poissons Ratio (z) = 0.28904 -0.03976
#
# Static dielectric constant tensor:
#      x y z
#    x 1.776120 0.025720 0.032440 
#    y 0.025720 1.834010 0.002120 
#    z 0.032440 0.002120 1.834530 
# 
# From -- ./inp_files/3819.got.cif
#   From: 2010.05.17/outbox.cif.g08.bks.cpg/sg1_2_cif.got.tgz:3819.got - 2010.05.17 20:27:59.
