data_PCOD9000541
_publ_section_title
;
Structure prediction by ZEFSAII (Michael W. Deem and Ramdas Pophale) SiO2 
 PCOD9000541
Probable space group: P 1
;
_chemical_formula_sum "Si O2"
_cell_formula_units_Z 8
_cell_length_a 7.293700
_cell_length_b 10.877035
_cell_length_c 6.793015
_cell_angle_alpha 96.576452
_cell_angle_beta 90.009338
_cell_angle_gamma 47.880995
_cell_volume 394.958179
_symmetry_space_group_name_H-M "P 1"
_symmetry_group_IT_number 1
_symmetry_cell_setting 'triclinic'
loop_
_space_group_symop_operation_xyz
x,y,z
loop_
_atom_site_type_symbol
_atom_site_label
_atom_site_fract_x
_atom_site_fract_y
_atom_site_fract_z
Si Si1 0.346610 0.548680 0.946110
Si Si2 0.594054 0.013133 0.832890
Si Si3 0.378270 0.940140 0.139778
Si Si4 0.955945 0.940112 0.139857
Si Si5 0.770549 0.548702 0.946026
Si Si6 0.509073 0.098189 0.431051
Si Si7 0.181937 0.425373 0.221395
Si Si8 0.980850 0.626379 0.638796
O O1 0.605607 0.501666 0.915458
O O2 0.229553 0.554628 0.742246
O O3 0.145941 0.740324 0.064313
O O4 0.344042 0.438758 0.082021
O O5 0.407765 0.022995 0.975006
O O6 0.474074 0.133146 0.668507
O O7 0.760633 0.022950 0.975106
O O8 0.436220 0.993069 0.343506
O O9 0.587905 0.740353 0.064216
O O10 0.781663 0.825541 0.708667
O O11 0.117068 0.990157 0.156038
O O12 0.792223 0.993041 0.343614
O O13 0.875617 0.554642 0.742134
O O14 0.993064 0.438793 0.081919
O O15 0.342077 0.265206 0.331871
O O16 0.028489 0.578787 0.403249
#
# Coordination Sequence:
#
# PCOD9000541 Si02
#       8
#     1   1   1   1   1   1   1   1
#     4   9  19  37  59  79 100 133 179 224 260 299
#     4   9  18  34  55  79 105 135 175 219 260 304
#     4   9  19  37  59  79 100 133 179 224 260 299
#     4   9  19  37  59  79 100 133 179 224 260 299
#     4   9  19  37  59  79 100 133 179 224 260 299
#     4  11  22  34  51  79 113 143 169 205 260 320
#     4  11  22  34  51  79 113 143 169 205 260 320
#     4   9  18  34  55  79 105 135 175 219 260 304
#
# _framework density 20.255309
#
# number of rings (size 3 to 8) (size 9 to 14) (size 15 to 20)
#    0.000    2.500    0.000    3.750    0.000    7.000 
#    0.000    5.000    0.000    0.000    0.000    0.000 
#    0.000    0.000    0.000    0.000    0.000    0.000 
#
# Total GULP energy -44688.319880 kJ/mol
# GULP energy per Si atom -5586.039985 kJ/mol
# Density = 2.020921 g / cm^3
# Si number density = 20.255309 Si / 1000 Ang^3
#
#
#
# Elastic Constant Matrix: (Units=GPa)
#
#
# Indices 1 2 3 4 5 6 
#
# 1 177.4098 21.4511 40.7622 -15.6037 -9.8860 -19.4153
# 2 21.4511 43.6208 10.3538 -12.3992 -3.9198 0.1690
# 3 40.7622 10.3538 81.7957 -18.7592 -0.5422 -6.2630
# 4 -15.6037 -12.3992 -18.7592 38.2857 3.6191 2.0129
# 5 -9.8860 -3.9198 -0.5422 3.6191 7.6386 6.6999
# 6 -19.4153 0.1690 -6.2630 2.0129 6.6999 9.7839
#
#
#
# Elastic Compliance Matrix: (Units=1/GPa)
#
#
# Indices 1 2 3 4 5 6 
#
# 1 0.008799 -0.005140 -0.001471 0.001263 -0.015754 0.027136
# 2 -0.005140 0.032289 -0.003935 0.004242 0.050175 -0.048507
# 3 -0.001471 -0.003935 0.017187 0.007993 -0.030540 0.027419
# 4 0.001263 0.004242 0.007993 0.033667 -0.030346 0.021404
# 5 -0.015754 0.050175 -0.030540 -0.030346 0.471587 -0.368371
# 6 0.027136 -0.048507 0.027419 0.021404 -0.368371 0.422299
#
#
# Mechanical properties :
#
#
# Convention : Reuss Voigt Hill
#
# Bulk Modulus (GPa) = 26.89351 49.77338 38.33344
# Shear Modulus (GPa) = 4.90526 26.49225 15.69875
#
# Velocity S-wave (km/s) = 1.55787 3.62044 2.78698
# Velocity P-wave (km/s) = 4.06719 6.48869 5.41503
#
# Compressibility (1/GPa) = 0.03718369
#
# Stress axis : x y z
#
# Youngs Moduli (GPa) = 113.64797 30.97068 58.18385
#
# Poissons Ratio (x) = 0.15918 0.08561
# Poissons Ratio (y) = 0.58410 0.22893
# Poissons Ratio (z) = 0.16721 0.12186
#
# Static dielectric constant tensor:
#      x y z
#    x 1.682400 0.012790 0.001300 
#    y 0.012790 1.774750 0.005260 
#    z 0.001300 0.005260 1.689430 
# 
# From -- ./inp_files/1788.got.cif
#   From: 2010.05.17/outbox.cif.g08.bks.cpg/sg1_1_cif.got.tgz:1788.got - 2010.05.17 20:27:59.
