data_PCOD9000361
_publ_section_title
;
Structure prediction by ZEFSAII (Michael W. Deem and Ramdas Pophale) SiO2 
 PCOD9000361
Probable space group: P 1
;
_chemical_formula_sum "Si O2"
_cell_formula_units_Z 8
_cell_length_a 5.121386
_cell_length_b 9.515329
_cell_length_c 10.676217
_cell_angle_alpha 134.357635
_cell_angle_beta 107.568781
_cell_angle_gamma 55.100551
_cell_volume 300.784507
_symmetry_space_group_name_H-M "P 1"
_symmetry_group_IT_number 1
_symmetry_cell_setting 'triclinic'
loop_
_space_group_symop_operation_xyz
x,y,z
loop_
_atom_site_type_symbol
_atom_site_label
_atom_site_fract_x
_atom_site_fract_y
_atom_site_fract_z
Si Si1 0.422140 0.757260 0.767350
Si Si2 0.345163 0.144073 0.343158
Si Si3 0.707676 0.073797 0.966394
Si Si4 0.437420 0.903561 0.460513
Si Si5 0.645753 0.465399 0.370596
Si Si6 0.775651 0.133727 0.593431
Si Si7 0.779391 0.683166 0.006266
Si Si8 0.495091 0.464677 0.972372
O O1 0.494851 0.957213 0.864174
O O2 0.457294 0.608550 0.556627
O O3 0.710327 0.606220 0.815676
O O4 0.077343 0.872120 0.860049
O O5 0.020030 0.368711 0.394798
O O6 0.294681 0.016177 0.374670
O O7 0.625927 0.172921 0.458508
O O8 0.497449 0.949394 0.139375
O O9 0.609014 0.260755 0.959125
O O10 0.655201 0.235314 0.181403
O O11 0.526580 0.649355 0.353120
O O12 0.138233 0.071139 0.611943
O O13 0.729319 0.558437 0.039611
O O14 0.519318 0.347251 0.769670
O O15 0.750592 0.923436 0.518726
O O16 0.121814 0.654223 0.051960
#
# Coordination Sequence:
#
# PCOD9000361 Si02
#       8
#     1   1   1   1   1   1   1   1
#     4  12  28  51  73 114 154 192 254 313 368 460
#     4  10  26  46  73 107 144 192 247 300 367 447
#     4  12  28  50  76 113 151 195 258 309 371 458
#     4  10  24  45  71 111 138 194 243 306 359 451
#     4  12  26  51  80 108 153 205 242 312 390 429
#     4  10  23  45  73 104 147 183 254 298 368 443
#     4  12  26  46  71 107 153 185 251 308 368 447
#     4  12  25  46  75 106 142 200 239 310 377 435
#
# _framework density 26.597114000000001
#
# number of rings (size 3 to 8) (size 9 to 14) (size 15 to 20)
#    0.750    0.000    1.250    5.250    5.250    2.000 
#    2.250    0.000    0.000    0.000    0.000    0.000 
#    0.000    0.000    0.000    0.000    0.000    0.000 
#
# Total GULP energy -44749.235539 kJ/mol
# GULP energy per Si atom -5593.654442 kJ/mol
# Density = 2.653658 g / cm^3
# Si number density = 26.597114 Si / 1000 Ang^3
#
#
#
# Elastic Constant Matrix: (Units=GPa)
#
#
# Indices 1 2 3 4 5 6 
#
# 1 124.7355 39.1171 38.0337 2.3795 -0.5722 21.1669
# 2 39.1171 117.4142 2.7125 6.0003 -9.6239 7.8125
# 3 38.0337 2.7125 133.7157 -2.4947 -3.1115 -2.5262
# 4 2.3795 6.0003 -2.4947 38.8108 -4.2647 1.3746
# 5 -0.5722 -9.6239 -3.1115 -4.2647 23.9707 10.1601
# 6 21.1669 7.8125 -2.5262 1.3746 10.1601 49.0107
#
#
#
# Elastic Compliance Matrix: (Units=1/GPa)
#
#
# Indices 1 2 3 4 5 6 
#
# 1 0.010679 -0.003157 -0.003049 -0.000164 0.000404 -0.004345
# 2 -0.003157 0.010021 0.000761 -0.000789 0.004363 -0.001077
# 3 -0.003049 0.000761 0.008389 0.000648 0.000827 0.001438
# 4 -0.000164 -0.000789 0.000648 0.026563 0.005161 -0.001585
# 5 0.000404 0.004363 0.000827 0.005161 0.049243 -0.011180
# 6 -0.004345 -0.001077 0.001438 -0.001585 -0.011180 0.024888
#
#
# Mechanical properties :
#
#
# Convention : Reuss Voigt Hill
#
# Bulk Modulus (GPa) = 54.94871 59.51024 57.22948
# Shear Modulus (GPa) = 34.07409 42.09190 38.08300
#
# Velocity S-wave (km/s) = 3.58316 3.98247 3.78808
# Velocity P-wave (km/s) = 6.15006 6.60076 6.37939
#
# Compressibility (1/GPa) = 0.01819879
#
# Stress axis : x y z
#
# Youngs Moduli (GPa) = 93.64171 99.79538 119.20443
#
# Poissons Ratio (x) = 0.31502 0.36348
# Poissons Ratio (y) = 0.29559 -0.09072
# Poissons Ratio (z) = 0.28553 -0.07595
#
# Static dielectric constant tensor:
#      x y z
#    x 2.056610 0.088820 0.067270 
#    y 0.088820 2.035070 -0.004790 
#    z 0.067270 -0.004790 2.156340 
# 
# From -- ./inp_files/6105.got.cif
#   From: 2010.05.17/outbox.cif.g08.bks.cpg/sg1_4_cif.got.tgz:6105.got - 2010.05.17 20:27:59.
