data_PCOD9000556
_publ_section_title
;
Structure prediction by ZEFSAII (Michael W. Deem and Ramdas Pophale) SiO2 
 PCOD9000556
Probable space group: P 1
;
_chemical_formula_sum "Si O2"
_cell_formula_units_Z 8
_cell_length_a 13.699947
_cell_length_b 17.896724
_cell_length_c 12.216862
_cell_angle_alpha 22.460477
_cell_angle_beta 30.626188
_cell_angle_gamma 21.313302
_cell_volume 415.940629
_symmetry_space_group_name_H-M "P 1"
_symmetry_group_IT_number 1
_symmetry_cell_setting 'triclinic'
loop_
_space_group_symop_operation_xyz
x,y,z
loop_
_atom_site_type_symbol
_atom_site_label
_atom_site_fract_x
_atom_site_fract_y
_atom_site_fract_z
Si Si1 0.623870 0.689260 0.352080
Si Si2 0.238253 0.560396 0.094600
Si Si3 0.897284 0.612526 0.980309
Si Si4 0.893254 0.871266 0.202120
Si Si5 0.278843 0.000157 0.459585
Si Si6 0.171691 0.071497 0.708138
Si Si7 0.619832 0.948025 0.573864
Si Si8 0.345434 0.489029 0.846060
O O1 0.418842 0.665171 0.542680
O O2 0.887219 0.386903 0.551469
O O3 0.492237 0.896713 0.299883
O O4 0.702772 0.755282 0.079965
O O5 0.510237 0.249186 0.281170
O O6 0.193903 0.542981 0.033365
O O7 0.024884 0.663811 0.254324
O O8 0.258532 0.780289 0.777090
O O9 0.158009 0.554193 0.840431
O O10 0.758546 0.780293 0.777078
O O11 0.006875 0.311369 0.272991
O O12 0.814357 0.805245 0.474231
O O13 0.629903 0.173622 0.002738
O O14 0.098287 0.895350 0.011521
O O15 0.323201 0.017562 0.520826
O O16 0.359120 0.006339 0.713752
#
# Coordination Sequence:
#
# PCOD9000556 Si02
#       8
#     1   1   1   1   1   1   1   1
#     4   9  18  36  57  77 104 138 179 223 258 301
#     4   9  18  36  59  79 100 137 185 220 255 309
#     4  11  23  35  51  82 115 139 170 214 268 321
#     4   9  18  36  57  77 104 138 179 223 258 301
#     4   9  18  36  59  79 100 137 185 220 255 309
#     4   9  19  35  57  80 103 138 181 219 258 310
#     4  11  23  35  51  82 115 139 170 214 268 321
#     4   9  19  35  57  80 103 138 181 219 258 310
#
# _framework density 19.233515000000001
#
# number of rings (size 3 to 8) (size 9 to 14) (size 15 to 20)
#    0.000    2.500    0.000    4.500    0.000    6.000 
#    0.000    5.000    0.000    0.000    0.000    0.000 
#    0.000    0.000    0.000    0.000    0.000    0.000 
#
# Total GULP energy -44599.248149 kJ/mol
# GULP energy per Si atom -5574.906019 kJ/mol
# Density = 1.918974 g / cm^3
# Si number density = 19.233515 Si / 1000 Ang^3
#
#
#
# Elastic Constant Matrix: (Units=GPa)
#
#
# Indices 1 2 3 4 5 6 
#
# 1 115.5834 33.9511 50.4707 -7.1924 21.1224 -18.9480
# 2 33.9511 94.7157 20.9440 17.9056 21.2666 22.7860
# 3 50.4707 20.9440 69.6251 -0.9099 18.6274 -13.2608
# 4 -7.1924 17.9056 -0.9099 32.2767 2.5319 -1.1131
# 5 21.1224 21.2666 18.6274 2.5319 42.6194 2.3077
# 6 -18.9480 22.7860 -13.2608 -1.1131 2.3077 26.7239
#
#
#
# Elastic Compliance Matrix: (Units=1/GPa)
#
#
# Indices 1 2 3 4 5 6 
#
# 1 0.020300 -0.013975 -0.004789 0.013239 -0.003121 0.024753
# 2 -0.013975 0.031662 -0.006874 -0.022104 -0.002333 -0.041035
# 3 -0.004789 -0.006874 0.024479 0.004434 -0.005988 0.015314
# 4 0.013239 -0.022104 0.004434 0.047606 -0.002063 0.032595
# 5 -0.003121 -0.002333 -0.005988 -0.002063 0.029229 -0.005805
# 6 0.024753 -0.041035 0.015314 0.032595 -0.005805 0.099416
#
#
# Mechanical properties :
#
#
# Convention : Reuss Voigt Hill
#
# Bulk Modulus (GPa) = 39.73820 54.51731 47.12775
# Shear Modulus (GPa) = 16.00746 31.96123 23.98434
#
# Velocity S-wave (km/s) = 2.88804 4.08088 3.53513
# Velocity P-wave (km/s) = 5.64152 7.11416 6.42020
#
# Compressibility (1/GPa) = 0.02516471
#
# Stress axis : x y z
#
# Youngs Moduli (GPa) = 49.26150 31.58392 40.85199
#
# Poissons Ratio (x) = 0.44137 0.19564
# Poissons Ratio (y) = 0.68841 0.28083
# Poissons Ratio (z) = 0.23591 0.21712
#
# Static dielectric constant tensor:
#      x y z
#    x 1.683550 0.012400 -0.047020 
#    y 0.012400 1.711410 0.038870 
#    z -0.047020 0.038870 1.684510 
# 
# From -- ./inp_files/3837.got.cif
#   From: 2010.05.17/outbox.cif.g08.bks.cpg/sg1_2_cif.got.tgz:3837.got - 2010.05.17 20:27:59.
