data_PCOD9000810
_publ_section_title
;
Structure prediction by ZEFSAII (Michael W. Deem and Ramdas Pophale) SiO2 
 PCOD9000810
Probable space group: P 1
;
_chemical_formula_sum "Si O2"
_cell_formula_units_Z 8
_cell_length_a 6.921911
_cell_length_b 8.975683
_cell_length_c 8.164936
_cell_angle_alpha 73.953783
_cell_angle_beta 56.695479
_cell_angle_gamma 108.448993
_cell_volume 331.050653
_symmetry_space_group_name_H-M "P 1"
_symmetry_group_IT_number 1
_symmetry_cell_setting 'triclinic'
loop_
_space_group_symop_operation_xyz
x,y,z
loop_
_atom_site_type_symbol
_atom_site_label
_atom_site_fract_x
_atom_site_fract_y
_atom_site_fract_z
Si Si1 0.278030 0.008580 0.481060
Si Si2 0.280026 0.655848 0.989184
Si Si3 0.273982 0.862311 0.197828
Si Si4 0.883163 0.770571 0.990248
Si Si5 0.622036 0.538040 0.686125
Si Si6 0.563975 0.391408 0.123053
Si Si7 0.173952 0.125945 0.967134
Si Si8 0.838307 0.255377 0.258234
O O1 0.280433 0.183222 0.356183
O O2 0.507574 0.098071 0.495773
O O3 0.982527 0.839260 0.738103
O O4 0.372331 0.931526 0.315652
O O5 0.418222 0.784983 0.047093
O O6 0.050187 0.434512 0.217586
O O7 0.103652 0.729381 0.974039
O O8 0.472066 0.643696 0.769173
O O9 0.934896 0.689577 0.423206
O O10 0.309223 0.037434 0.032533
O O11 0.600091 0.556705 0.169915
O O12 0.957864 0.956964 0.993807
O O13 0.617674 0.451900 0.892005
O O14 0.418297 0.344854 0.731673
O O15 0.793990 0.353172 0.091308
O O16 0.983440 0.155769 0.166566
#
# Coordination Sequence:
#
# PCOD9000810 Si02
#       8
#     1   1   1   1   1   1   1   1
#     4  10  20  36  59  77 117 148 184 229 286 325
#     4   9  22  39  57  87 115 143 196 235 273 340
#     4  11  22  38  60  85 113 155 187 228 288 336
#     4  10  20  36  59  83 110 150 188 230 284 332
#     4  11  21  38  61  82 120 149 183 237 288 327
#     4   9  19  37  54  79 118 146 179 240 273 332
#     4  10  21  37  58  88 111 144 196 233 277 341
#     4   8  19  37  58  75 118 143 181 240 275 319
#
# _framework density 24.165485
#
# number of rings (size 3 to 8) (size 9 to 14) (size 15 to 20)
#    0.750    1.500    2.500    0.000    3.500    1.000 
#    0.000    1.250    0.000    0.000    0.000    0.000 
#    0.000    0.000    0.000    0.000    0.000    0.000 
#
# Total GULP energy -44573.451787 kJ/mol
# GULP energy per Si atom -5571.681473 kJ/mol
# Density = 2.411048 g / cm^3
# Si number density = 24.165485 Si / 1000 Ang^3
#
#
#
# Elastic Constant Matrix: (Units=GPa)
#
#
# Indices 1 2 3 4 5 6 
#
# 1 43.9477 18.1457 -1.1803 3.7759 -2.5853 -7.4125
# 2 18.1457 205.3779 27.1881 -6.5590 -4.2557 8.7219
# 3 -1.1803 27.1881 59.2072 -16.1259 -4.9996 -0.0112
# 4 3.7759 -6.5590 -16.1259 33.6628 5.8783 -5.0355
# 5 -2.5853 -4.2557 -4.9996 5.8783 28.9114 0.6567
# 6 -7.4125 8.7219 -0.0112 -5.0355 0.6567 41.2862
#
#
#
# Elastic Compliance Matrix: (Units=1/GPa)
#
#
# Indices 1 2 3 4 5 6 
#
# 1 0.025009 -0.002600 0.001235 -0.002446 0.002458 0.004702
# 2 -0.002600 0.005514 -0.002613 -0.000168 0.000199 -0.001656
# 3 0.001235 -0.002613 0.020777 0.009349 0.001375 0.001898
# 4 -0.002446 -0.000168 0.009349 0.036098 -0.006059 0.004098
# 5 0.002458 0.000199 0.001375 -0.006059 0.036328 -0.000917
# 6 0.004702 -0.001656 0.001898 0.004098 -0.000917 0.025930
#
#
# Mechanical properties :
#
#
# Convention : Reuss Voigt Hill
#
# Bulk Modulus (GPa) = 23.07174 44.09332 33.58253
# Shear Modulus (GPa) = 29.05955 38.39737 33.72846
#
# Velocity S-wave (km/s) = 3.47150 3.99047 3.74000
# Velocity P-wave (km/s) = 5.06326 6.28632 5.70764
#
# Compressibility (1/GPa) = 0.04334307
#
# Stress axis : x y z
#
# Youngs Moduli (GPa) = 39.98586 181.36360 48.12949
#
# Poissons Ratio (x) = 0.47153 -0.05942
# Poissons Ratio (y) = 0.10396 0.12577
# Poissons Ratio (z) = -0.04937 0.47392
#
# Static dielectric constant tensor:
#      x y z
#    x 2.031440 0.086190 -0.021180 
#    y 0.086190 1.991690 -0.008260 
#    z -0.021180 -0.008260 1.905260 
# 
# From -- ./inp_files/2237.got.cif
#   From: 2010.05.17/outbox.cif.g08.bks.cpg/sg1_2_cif.got.tgz:2237.got - 2010.05.17 20:27:59.
