data_PCOD9000092
_publ_section_title
;
Structure prediction by ZEFSAII (Michael W. Deem and Ramdas Pophale) SiO2 
 PCOD9000092
Probable space group: P 1
;
_chemical_formula_sum "Si O2"
_cell_formula_units_Z 8
_cell_length_a 5.290619
_cell_length_b 12.343017
_cell_length_c 5.317336
_cell_angle_alpha 59.687525
_cell_angle_beta 89.214148
_cell_angle_gamma 105.545484
_cell_volume 284.125034
_symmetry_space_group_name_H-M "P 1"
_symmetry_group_IT_number 1
_symmetry_cell_setting 'triclinic'
loop_
_space_group_symop_operation_xyz
x,y,z
loop_
_atom_site_type_symbol
_atom_site_label
_atom_site_fract_x
_atom_site_fract_y
_atom_site_fract_z
Si Si1 0.853960 0.703860 0.559770
Si Si2 0.764568 0.978788 0.806515
Si Si3 0.104712 0.059391 0.188178
Si Si4 0.919137 0.551898 0.304713
Si Si5 0.498405 0.445075 0.081972
Si Si6 0.051422 0.337355 0.858458
Si Si7 0.558044 0.177351 0.377278
Si Si8 0.364457 0.751844 0.789082
O O1 0.929591 0.686333 0.296379
O O2 0.596514 0.740307 0.610684
O O3 0.123685 0.785455 0.607021
O O4 0.765352 0.545399 0.821652
O O5 0.626142 0.093965 0.697700
O O6 0.951202 0.976572 0.045739
O O7 0.525826 0.847176 0.894693
O O8 0.928273 0.018443 0.494816
O O9 0.131679 0.209952 0.927552
O O10 0.395389 0.077012 0.281000
O O11 0.610315 0.504872 0.277417
O O12 0.950956 0.414774 0.558309
O O13 0.189675 0.611795 0.069033
O O14 0.418409 0.286301 0.315286
O O15 0.281205 0.444717 0.880102
O O16 0.819820 0.274005 0.134427
#
# Coordination Sequence:
#
# PCOD9000092 Si02
#       8
#     1   1   1   1   1   1   1   1
#     4  11  25  49  72 112 153 198 262 317 387 465
#     4  11  26  50  74 107 151 204 262 322 388 468
#     4  10  25  46  76 108 148 199 262 323 392 465
#     4  11  24  47  79 107 156 203 248 323 399 462
#     4  10  22  41  69 111 145 188 249 312 385 471
#     4  10  21  43  72 109 150 192 251 315 396 467
#     4  10  22  45  73 108 148 195 256 320 393 463
#     4  11  29  49  75 114 153 207 266 320 388 473
#
# _framework density 28.156618999999999
#
# number of rings (size 3 to 8) (size 9 to 14) (size 15 to 20)
#    0.000    1.500    1.250    1.500    5.250    9.000 
#    2.250    0.000    0.000    0.000    0.000    0.000 
#    0.000    0.000    0.000    0.000    0.000    0.000 
#
# Total GULP energy -44655.193440 kJ/mol
# GULP energy per Si atom -5581.899180 kJ/mol
# Density = 2.809253 g / cm^3
# Si number density = 28.156619 Si / 1000 Ang^3
#
#
#
# Elastic Constant Matrix: (Units=GPa)
#
#
# Indices 1 2 3 4 5 6 
#
# 1 133.5568 30.9908 29.4809 13.0297 8.0745 47.4212
# 2 30.9908 168.0958 18.5733 13.6058 -8.1319 60.3207
# 3 29.4809 18.5733 68.2574 17.2834 -3.0282 14.8497
# 4 13.0297 13.6058 17.2834 36.8988 12.1028 14.8573
# 5 8.0745 -8.1319 -3.0282 12.1028 39.6219 7.5788
# 6 47.4212 60.3207 14.8497 14.8573 7.5788 58.5686
#
#
#
# Elastic Compliance Matrix: (Units=1/GPa)
#
#
# Indices 1 2 3 4 5 6 
#
# 1 0.011531 0.001987 -0.003556 0.001382 -0.000578 -0.010757
# 2 0.001987 0.010424 -0.000616 -0.000589 0.004276 -0.012593
# 3 -0.003556 -0.000616 0.018751 -0.009019 0.004702 0.000440
# 4 0.001382 -0.000589 -0.009019 0.037259 -0.011284 -0.006218
# 5 -0.000578 0.004276 0.004702 -0.011284 0.031247 -0.006309
# 6 -0.010757 -0.012593 0.000440 -0.006218 -0.006309 0.041035
#
#
# Mechanical properties :
#
#
# Convention : Reuss Voigt Hill
#
# Bulk Modulus (GPa) = 27.52184 58.66665 43.09424
# Shear Modulus (GPa) = 29.98865 46.40888 38.19876
#
# Velocity S-wave (km/s) = 3.26707 4.06426 3.68727
# Velocity P-wave (km/s) = 4.90178 6.55021 5.78501
#
# Compressibility (1/GPa) = 0.03633478
#
# Stress axis : x y z
#
# Youngs Moduli (GPa) = 86.72324 95.93209 53.33073
#
# Poissons Ratio (x) = -0.19065 0.18967
# Poissons Ratio (y) = -0.17235 0.03288
# Poissons Ratio (z) = 0.30843 0.05914
#
# Static dielectric constant tensor:
#      x y z
#    x 2.464430 -0.146400 0.180650 
#    y -0.146400 2.895330 1.007360 
#    z 0.180650 1.007360 3.906350 
# 
# From -- ./inp_files/628.got.cif
#   From: 2010.05.17/outbox.cif.g08.bks.cpg/sg1_1_cif.got.tgz:628.got - 2010.05.17 20:27:59.
