data_PCOD9000599
_publ_section_title
;
Structure prediction by ZEFSAII (Michael W. Deem and Ramdas Pophale) SiO2 
 PCOD9000599
Probable space group: P 1
;
_chemical_formula_sum "Si O2"
_cell_formula_units_Z 8
_cell_length_a 11.656732
_cell_length_b 9.548026
_cell_length_c 14.562746
_cell_angle_alpha 145.398250
_cell_angle_beta 151.624155
_cell_angle_gamma 25.985264
_cell_volume 333.434402
_symmetry_space_group_name_H-M "P 1"
_symmetry_group_IT_number 1
_symmetry_cell_setting 'triclinic'
loop_
_space_group_symop_operation_xyz
x,y,z
loop_
_atom_site_type_symbol
_atom_site_label
_atom_site_fract_x
_atom_site_fract_y
_atom_site_fract_z
Si Si1 0.943090 0.689960 0.667740
Si Si2 0.117425 0.891134 0.541660
Si Si3 0.136932 0.464224 0.886589
Si Si4 0.923382 0.493673 0.228365
Si Si5 0.208716 0.107958 0.404814
Si Si6 0.183762 0.051641 0.994548
Si Si7 0.789974 0.055964 0.206991
Si Si8 0.797586 0.562221 0.855631
O O1 0.100778 0.561559 0.809504
O O2 0.125336 0.402216 0.567298
O O3 0.581957 0.842804 0.507673
O O4 0.959342 0.963077 0.798832
O O5 0.495161 0.597423 0.638730
O O6 0.997218 0.735143 0.429152
O O7 0.902616 0.036226 0.377736
O O8 0.114225 0.179344 0.724390
O O9 0.846476 0.710003 0.882356
O O10 0.450557 0.371230 0.101810
O O11 0.546472 0.726738 0.076928
O O12 0.038522 0.256350 0.267366
O O13 0.105629 0.280230 0.149850
O O14 0.062441 0.985147 0.295744
O O15 0.095457 0.226312 0.928284
O O16 0.746396 0.792765 0.025000
#
# Coordination Sequence:
#
# PCOD9000599 Si02
#       8
#     1   1   1   1   1   1   1   1
#     4  12  27  47  71 104 145 183 237 291 350 416
#     4  11  24  46  69 104 142 181 239 284 353 415
#     4  11  26  42  73 103 142 187 228 296 347 416
#     4  12  27  46  74 102 142 189 233 292 349 419
#     4  12  27  46  74 102 142 189 233 292 349 419
#     4  12  27  47  71 104 145 183 237 291 350 416
#     4  11  24  46  69 104 142 181 239 284 353 415
#     4  11  26  42  73 103 142 187 228 296 347 416
#
# _framework density 23.992723000000002
#
# number of rings (size 3 to 8) (size 9 to 14) (size 15 to 20)
#    0.000    0.500    2.500    4.500   10.500    2.000 
#    0.000    0.000    0.000    0.000    0.000    0.000 
#    0.000    0.000    0.000    0.000    0.000    0.000 
#
# Total GULP energy -44729.853210 kJ/mol
# GULP energy per Si atom -5591.231651 kJ/mol
# Density = 2.393811 g / cm^3
# Si number density = 23.992723 Si / 1000 Ang^3
#
#
#
# Elastic Constant Matrix: (Units=GPa)
#
#
# Indices 1 2 3 4 5 6 
#
# 1 75.5500 3.5133 5.9478 -15.3922 -18.0754 3.9523
# 2 3.5133 50.4476 10.7843 -21.6438 -14.6200 -0.0036
# 3 5.9478 10.7843 104.5643 -16.1339 -2.4700 -6.1604
# 4 -15.3922 -21.6438 -16.1339 58.2878 5.2633 -1.9275
# 5 -18.0754 -14.6200 -2.4700 5.2633 55.1110 -6.9395
# 6 3.9523 -0.0036 -6.1604 -1.9275 -6.9395 32.0854
#
#
#
# Elastic Compliance Matrix: (Units=1/GPa)
#
#
# Indices 1 2 3 4 5 6 
#
# 1 0.015298 0.002360 -0.000358 0.004334 0.005141 -0.000581
# 2 0.002360 0.025914 -0.001107 0.009368 0.006900 0.001555
# 3 -0.000358 -0.001107 0.010195 0.002380 0.000091 0.002164
# 4 0.004334 0.009368 0.002380 0.022305 0.002099 0.001718
# 5 0.005141 0.006900 0.000091 0.002099 0.022003 0.004270
# 6 -0.000581 0.001555 0.002164 0.001718 0.004270 0.032681
#
#
# Mechanical properties :
#
#
# Convention : Reuss Voigt Hill
#
# Bulk Modulus (GPa) = 18.79789 30.11696 24.45743
# Shear Modulus (GPa) = 34.64128 43.11795 38.87961
#
# Velocity S-wave (km/s) = 3.80389 4.24385 4.02988
# Velocity P-wave (km/s) = 5.21005 6.04926 5.64527
#
# Compressibility (1/GPa) = 0.05319745
#
# Stress axis : x y z
#
# Youngs Moduli (GPa) = 65.36860 38.58970 98.08892
#
# Poissons Ratio (x) = -0.09108 0.03509
# Poissons Ratio (y) = -0.15428 0.10857
# Poissons Ratio (z) = 0.02338 0.04271
#
# Static dielectric constant tensor:
#      x y z
#    x 1.969860 -0.126820 -0.026360 
#    y -0.126820 2.015380 0.053990 
#    z -0.026360 0.053990 1.870980 
# 
# From -- ./inp_files/653.got.cif
#   From: 2010.05.17/outbox.cif.g08.bks.cpg/sg1_1_cif.got.tgz:653.got - 2010.05.17 20:27:59.
