data_PCOD9000006
_publ_section_title
;
Structure prediction by ZEFSAII (Michael W. Deem and Ramdas Pophale) SiO2 
 PCOD9000006
Probable space group: P 1
;
_chemical_formula_sum "Si O2"
_cell_formula_units_Z 8
_cell_length_a 6.920521
_cell_length_b 13.369363
_cell_length_c 4.836219
_cell_angle_alpha 68.790858
_cell_angle_beta 69.547876
_cell_angle_gamma 62.361165
_cell_volume 360.506958
_symmetry_space_group_name_H-M "P 1"
_symmetry_group_IT_number 1
_symmetry_cell_setting 'triclinic'
loop_
_space_group_symop_operation_xyz
x,y,z
loop_
_atom_site_type_symbol
_atom_site_label
_atom_site_fract_x
_atom_site_fract_y
_atom_site_fract_z
Si Si1 0.362420 0.597880 0.617990
Si Si2 0.226040 0.119706 0.053738
Si Si3 0.718589 0.951661 0.975243
Si Si4 0.102216 0.473440 0.603013
Si Si5 0.301022 0.243293 0.392395
Si Si6 0.657217 0.597053 0.971416
Si Si7 0.793566 0.075241 0.314423
Si Si8 0.917429 0.721498 0.447347
O O1 0.292774 0.489220 0.685948
O O2 0.564191 0.595357 0.322103
O O3 0.135102 0.706947 0.537701
O O4 0.455449 0.599574 0.872257
O O5 0.250453 0.222002 0.124886
O O6 0.009808 0.097462 0.261354
O O7 0.451279 0.005978 0.094339
O O8 0.217013 0.160151 0.702391
O O9 0.830690 0.825877 0.176320
O O10 0.802583 0.034805 0.034942
O O11 0.769138 0.972948 0.614597
O O12 0.188953 0.369069 0.454008
O O13 0.009826 0.597471 0.362940
O O14 0.884540 0.487990 0.881942
O O15 0.568336 0.188974 0.352793
O O16 0.726862 0.705715 0.752399
#
# Coordination Sequence:
#
# PCOD9000006 Si02
#       8
#     1   1   1   1   1   1   1   1
#     4   9  20  36  53  79 112 148 183 220 273 331
#     4  10  22  38  62  81 114 148 193 232 283 326
#     4  10  21  40  56  88 113 147 188 237 276 336
#     4   8  22  37  58  86 117 148 185 232 280 339
#     4  10  21  40  56  88 113 147 188 237 276 336
#     4   9  20  36  53  79 112 148 183 220 273 331
#     4  10  22  38  62  81 114 148 193 232 283 326
#     4   8  22  37  58  86 117 148 185 232 280 339
#
# _framework density 22.190973
#
# number of rings (size 3 to 8) (size 9 to 14) (size 15 to 20)
#    1.500    1.000    0.000    0.750    0.000   12.000 
#    0.000    0.000    0.000    0.000    0.000    0.000 
#    0.000    0.000    0.000    0.000    0.000    0.000 
#
# Total GULP energy -44640.599991 kJ/mol
# GULP energy per Si atom -5580.074999 kJ/mol
# Density = 2.214047 g / cm^3
# Si number density = 22.190973 Si / 1000 Ang^3
#
#
#
# Elastic Constant Matrix: (Units=GPa)
#
#
# Indices 1 2 3 4 5 6 
#
# 1 113.8258 11.0979 19.4697 3.4236 -20.3300 -15.5674
# 2 11.0979 72.5235 6.5133 -9.2277 -4.1872 -12.8726
# 3 19.4697 6.5133 50.5202 15.0469 1.1710 -6.7890
# 4 3.4236 -9.2277 15.0469 20.6236 -1.7376 2.6008
# 5 -20.3300 -4.1872 1.1710 -1.7376 34.1970 7.3355
# 6 -15.5674 -12.8726 -6.7890 2.6008 7.3355 11.3736
#
#
#
# Elastic Compliance Matrix: (Units=1/GPa)
#
#
# Indices 1 2 3 4 5 6 
#
# 1 0.011726 0.000870 -0.002813 -0.000731 0.004418 0.012673
# 2 0.000870 0.018137 -0.002091 0.006945 -0.001030 0.019545
# 3 -0.002813 -0.002091 0.033897 -0.029558 -0.010500 0.027547
# 4 -0.000731 0.006945 -0.029558 0.079163 0.013517 -0.037604
# 5 0.004418 -0.001030 -0.010500 0.013517 0.039168 -0.029739
# 6 0.012673 0.019545 0.027547 -0.037604 -0.029739 0.171612
#
#
# Mechanical properties :
#
#
# Convention : Reuss Voigt Hill
#
# Bulk Modulus (GPa) = 17.95652 34.55902 26.25777
# Shear Modulus (GPa) = 13.14627 26.55808 19.85217
#
# Velocity S-wave (km/s) = 2.43660 3.46323 2.99424
# Velocity P-wave (km/s) = 4.00317 5.62132 4.87978
#
# Compressibility (1/GPa) = 0.05569008
#
# Stress axis : x y z
#
# Youngs Moduli (GPa) = 85.28054 55.13660 29.50149
#
# Poissons Ratio (x) = -0.04795 0.08298
# Poissons Ratio (y) = -0.07416 0.06170
# Poissons Ratio (z) = 0.23988 0.11531
#
# Static dielectric constant tensor:
#      x y z
#    x 1.801690 0.012520 -0.007400 
#    y 0.012520 1.838990 -0.020490 
#    z -0.007400 -0.020490 1.804880 
# 
# From -- ./inp_files/495.got.cif
#   From: 2010.05.17/outbox.cif.g08.bks.cpg/sg1_1_cif.got.tgz:495.got - 2010.05.17 20:27:59.
