data_PCOD9000325
_publ_section_title
;
Structure prediction by ZEFSAII (Michael W. Deem and Ramdas Pophale) SiO2 
 PCOD9000325
Probable space group: P 1
;
_chemical_formula_sum "Si O2"
_cell_formula_units_Z 8
_cell_length_a 14.693477
_cell_length_b 11.848384
_cell_length_c 8.191802
_cell_angle_alpha 144.960807
_cell_angle_beta 40.563829
_cell_angle_gamma 151.869841
_cell_volume 382.295760
_symmetry_space_group_name_H-M "P 1"
_symmetry_group_IT_number 1
_symmetry_cell_setting 'triclinic'
loop_
_space_group_symop_operation_xyz
x,y,z
loop_
_atom_site_type_symbol
_atom_site_label
_atom_site_fract_x
_atom_site_fract_y
_atom_site_fract_z
Si Si1 0.755890 0.847450 0.948730
Si Si2 0.402424 0.091435 0.082777
Si Si3 0.445457 0.206024 0.545309
Si Si4 0.746634 0.697076 0.274625
Si Si5 0.797064 0.276063 0.222157
Si Si6 0.702023 0.044127 0.583558
Si Si7 0.960150 0.602591 0.052467
Si Si8 0.007349 0.806967 0.752115
O O1 0.576073 0.526686 0.778461
O O2 0.938820 0.889226 0.798571
O O3 0.709088 0.932154 0.273627
O O4 0.794570 0.044512 0.990120
O O5 0.541222 0.387202 0.157869
O O6 0.510116 0.988722 0.792344
O O7 0.185418 0.870133 0.050473
O O8 0.401293 0.138019 0.332579
O O9 0.580386 0.155910 0.359515
O O10 0.238623 0.016464 0.692356
O O11 0.833396 0.677676 0.294084
O O12 0.904650 0.791413 0.034190
O O13 0.713984 0.895298 0.535437
O O14 0.908997 0.503666 0.481518
O O15 0.908880 0.449443 0.111465
O O16 0.878721 0.370088 0.754205
#
# Coordination Sequence:
#
# PCOD9000325 Si02
#       8
#     1   1   1   1   1   1   1   1
#     4  10  25  42  66  91 131 167 210 259 313 375
#     4  11  23  42  64  98 127 165 212 258 316 374
#     4  11  23  42  66  97 126 163 216 258 315 372
#     4  10  23  43  65  90 132 167 206 262 313 375
#     4  11  21  41  64  94 129 165 205 264 311 369
#     4  10  23  44  63  94 128 167 209 260 313 375
#     4  11  23  39  65  96 127 164 211 258 316 369
#     4  10  23  43  65  94 128 166 211 257 317 375
#
# _framework density 20.926207000000002
#
# number of rings (size 3 to 8) (size 9 to 14) (size 15 to 20)
#    0.000    1.500    3.750    1.500    1.750    8.000 
#    2.250    0.000    0.000    0.000    0.000    0.000 
#    0.000    0.000    0.000    0.000    0.000    0.000 
#
# Total GULP energy -44722.523204 kJ/mol
# GULP energy per Si atom -5590.315400 kJ/mol
# Density = 2.087858 g / cm^3
# Si number density = 20.926207 Si / 1000 Ang^3
#
#
#
# Elastic Constant Matrix: (Units=GPa)
#
#
# Indices 1 2 3 4 5 6 
#
# 1 69.5754 41.6277 19.4535 21.1177 -15.4052 2.6893
# 2 41.6277 126.7641 16.9551 -2.4189 -23.4033 32.1463
# 3 19.4535 16.9551 80.7926 13.6173 -10.6928 9.7156
# 4 21.1177 -2.4189 13.6173 28.5795 -16.9439 0.9450
# 5 -15.4052 -23.4033 -10.6928 -16.9439 39.0954 3.4636
# 6 2.6893 32.1463 9.7156 0.9450 3.4636 48.3833
#
#
#
# Elastic Compliance Matrix: (Units=1/GPa)
#
#
# Indices 1 2 3 4 5 6 
#
# 1 0.029573 -0.014517 -0.001799 -0.029056 -0.010983 0.009716
# 2 -0.014517 0.020002 -0.000667 0.023607 0.017548 -0.014066
# 3 -0.001799 -0.000667 0.014160 -0.004900 0.000842 -0.002265
# 4 -0.029056 0.023607 -0.004900 0.084912 0.039700 -0.017586
# 5 -0.010983 0.017548 0.000842 0.039700 0.050575 -0.015614
# 6 0.009716 -0.014066 -0.002265 -0.017586 -0.015614 0.031390
#
#
# Mechanical properties :
#
#
# Convention : Reuss Voigt Hill
#
# Bulk Modulus (GPa) = 33.59075 48.13385 40.86230
# Shear Modulus (GPa) = 18.21480 36.48468 27.34974
#
# Velocity S-wave (km/s) = 2.95351 4.18004 3.61911
# Velocity P-wave (km/s) = 5.26477 6.80799 6.08549
#
# Compressibility (1/GPa) = 0.02977010
#
# Stress axis : x y z
#
# Youngs Moduli (GPa) = 33.81408 49.99397 70.62071
#
# Poissons Ratio (x) = 0.72577 0.12704
# Poissons Ratio (y) = 0.49088 0.04710
# Poissons Ratio (z) = 0.06083 0.03335
#
# Static dielectric constant tensor:
#      x y z
#    x 1.807120 -0.054600 0.038320 
#    y -0.054600 1.721220 -0.015670 
#    z 0.038320 -0.015670 1.748210 
# 
# From -- ./inp_files/4276.got.cif
#   From: 2010.05.17/outbox.cif.g08.bks.cpg/sg1_3_cif.got.tgz:4276.got - 2010.05.17 20:27:59.
