data_PCOD9000058
_publ_section_title
;
Structure prediction by ZEFSAII (Michael W. Deem and Ramdas Pophale) SiO2 
 PCOD9000058
Probable space group: P 1
;
_chemical_formula_sum "Si O2"
_cell_formula_units_Z 8
_cell_length_a 9.615769
_cell_length_b 7.218271
_cell_length_c 7.949718
_cell_angle_alpha 96.940785
_cell_angle_beta 43.811533
_cell_angle_gamma 111.027597
_cell_volume 348.319451
_symmetry_space_group_name_H-M "P 1"
_symmetry_group_IT_number 1
_symmetry_cell_setting 'triclinic'
loop_
_space_group_symop_operation_xyz
x,y,z
loop_
_atom_site_type_symbol
_atom_site_label
_atom_site_fract_x
_atom_site_fract_y
_atom_site_fract_z
Si Si1 0.912650 0.810130 0.331000
Si Si2 0.881014 0.162269 0.586467
Si Si3 0.305254 0.621537 0.697904
Si Si4 0.813920 0.007803 0.129441
Si Si5 0.219756 0.224104 0.583254
Si Si6 0.399958 0.902245 0.947304
Si Si7 0.384790 0.877992 0.325090
Si Si8 0.899802 0.391831 0.269227
O O1 0.876792 0.939551 0.528048
O O2 0.327133 0.789265 0.178533
O O3 0.808955 0.846681 0.253811
O O4 0.176701 0.919127 0.086870
O O5 0.618226 0.104988 0.813161
O O6 0.047446 0.251468 0.603545
O O7 0.975376 0.305111 0.357783
O O8 0.438045 0.768845 0.749329
O O9 0.284870 0.746717 0.565586
O O10 0.372288 0.444251 0.545856
O O11 0.077376 0.500644 0.981467
O O12 0.746375 0.180452 0.293781
O O13 0.640422 0.921923 0.125396
O O14 0.058174 0.102912 0.859570
O O15 0.333320 0.080530 0.397488
O O16 0.831606 0.571214 0.407568
#
# Coordination Sequence:
#
# PCOD9000058 Si02
#       8
#     1   1   1   1   1   1   1   1
#     4  10  21  42  66  92 132 175 214 268 332 379
#     4  11  22  40  68  97 131 172 219 267 323 394
#     4  10  24  42  67  98 134 170 220 271 326 384
#     4  10  22  41  66  95 132 172 217 270 324 390
#     4  11  23  41  66  99 133 174 215 269 332 381
#     4  11  23  44  68  98 132 172 219 270 325 388
#     4  12  24  44  71  96 133 174 223 268 325 394
#     4   9  21  40  66  93 133 169 217 265 329 382
#
# _framework density 22.967421999999999
#
# number of rings (size 3 to 8) (size 9 to 14) (size 15 to 20)
#    0.000    1.500    2.500    3.000    3.500    2.000 
#    0.000    8.750    0.000    0.000    0.000    0.000 
#    0.000    0.000    0.000    0.000    0.000    0.000 
#
# Total GULP energy -44589.752167 kJ/mol
# GULP energy per Si atom -5573.719021 kJ/mol
# Density = 2.291515 g / cm^3
# Si number density = 22.967422 Si / 1000 Ang^3
#
#
#
# Elastic Constant Matrix: (Units=GPa)
#
#
# Indices 1 2 3 4 5 6 
#
# 1 123.6076 34.4978 33.7478 -4.2148 20.1516 9.1793
# 2 34.4978 91.3207 25.9197 2.1961 12.6059 -5.1686
# 3 33.7478 25.9197 78.8078 -0.3093 18.6150 0.5239
# 4 -4.2148 2.1961 -0.3093 27.1380 -1.3916 1.6282
# 5 20.1516 12.6059 18.6150 -1.3916 51.1536 -0.3073
# 6 9.1793 -5.1686 0.5239 1.6282 -0.3073 24.5122
#
#
#
# Elastic Compliance Matrix: (Units=1/GPa)
#
#
# Indices 1 2 3 4 5 6 
#
# 1 0.010559 -0.003165 -0.002899 0.002029 -0.002298 -0.004723
# 2 -0.003165 0.013377 -0.002833 -0.001911 -0.001046 0.004180
# 3 -0.002899 -0.002833 0.015784 -0.000249 -0.003910 0.000118
# 4 0.002029 -0.001911 -0.000249 0.037573 0.000762 -0.003643
# 5 -0.002298 -0.001046 -0.003910 0.000762 0.022161 0.000951
# 6 -0.004723 0.004180 0.000118 -0.003643 0.000951 0.043698
#
#
# Mechanical properties :
#
#
# Convention : Reuss Voigt Hill
#
# Bulk Modulus (GPa) = 45.60464 53.56297 49.58381
# Shear Modulus (GPa) = 29.71693 33.86547 31.79120
#
# Velocity S-wave (km/s) = 3.60095 3.84409 3.72450
# Velocity P-wave (km/s) = 6.09823 6.56312 6.33494
#
# Compressibility (1/GPa) = 0.02192759
#
# Stress axis : x y z
#
# Youngs Moduli (GPa) = 94.70157 74.75534 63.35612
#
# Poissons Ratio (x) = 0.23661 0.18365
# Poissons Ratio (y) = 0.29974 0.17946
# Poissons Ratio (z) = 0.27451 0.21175
#
# Static dielectric constant tensor:
#      x y z
#    x 1.865820 0.017750 -0.041720 
#    y 0.017750 1.905560 0.034660 
#    z -0.041720 0.034660 1.956520 
# 
# From -- ./inp_files/3849.got.cif
#   From: 2010.05.17/outbox.cif.g08.bks.cpg/sg1_2_cif.got.tgz:3849.got - 2010.05.17 20:27:59.
