data_PCOD9000976
_publ_section_title
;
Structure prediction by ZEFSAII (Michael W. Deem and Ramdas Pophale) SiO2 
 PCOD9000976
Probable space group: P 1
;
_chemical_formula_sum "Si O2"
_cell_formula_units_Z 6
_cell_length_a 4.948946
_cell_length_b 8.840285
_cell_length_c 6.558622
_cell_angle_alpha 125.869938
_cell_angle_beta 90.000057
_cell_angle_gamma 89.999963
_cell_volume 232.521858
_symmetry_space_group_name_H-M "P 1"
_symmetry_group_IT_number 1
_symmetry_cell_setting 'triclinic'
loop_
_space_group_symop_operation_xyz
x,y,z
loop_
_atom_site_type_symbol
_atom_site_label
_atom_site_fract_x
_atom_site_fract_y
_atom_site_fract_z
Si Si1 0.405690 0.458410 0.583550
Si Si2 0.405694 0.819401 0.093240
Si Si3 0.560552 0.133608 0.596695
Si Si4 0.905690 0.939405 0.939975
Si Si5 0.060552 0.264206 0.926830
Si Si6 0.905694 0.578414 0.430286
O O1 0.469312 0.252720 0.494826
O O2 0.104821 0.490086 0.530791
O O3 0.604981 0.523480 0.454910
O O4 0.447010 0.599339 0.886073
O O5 0.496206 0.918292 0.378991
O O6 0.866395 0.186364 0.688254
O O7 0.604821 0.907729 0.992735
O O8 0.366395 0.211450 0.835271
O O9 0.104980 0.874335 0.068616
O O10 0.947010 0.798475 0.637452
O O11 0.969312 0.145095 0.028699
O O12 0.996206 0.479522 0.144534
#
# Coordination Sequence:
#
# PCOD9000976 Si02
#       6
#     1   1   1   1   1   1
#     4  10  21  39  61  81 107 148 192 228 266 324
#     4  10  21  39  61  81 107 148 192 228 266 324
#     4  12  24  36  56  86 118 146 176 228 286 330
#     4  10  21  39  61  81 107 148 192 228 266 324
#     4  12  24  36  56  86 118 146 176 228 286 330
#     4  10  21  39  61  81 107 148 192 228 266 324
#
# _framework density 25.804024999999999
#
# number of rings (size 3 to 8) (size 9 to 14) (size 15 to 20)
#    0.000    1.333    0.000    6.000    0.000    2.667 
#    0.000    0.000    0.000    0.000    0.000    0.000 
#    0.000    0.000    0.000    0.000    0.000    0.000 
#
# Total GULP energy -33611.044161 kJ/mol
# GULP energy per Si atom -5601.840694 kJ/mol
# Density = 2.574529 g / cm^3
# Si number density = 25.804025 Si / 1000 Ang^3
#
#
#
# Elastic Constant Matrix: (Units=GPa)
#
#
# Indices 1 2 3 4 5 6 
#
# 1 60.9704 1.3400 6.1882 5.2893 8.4220 -5.9522
# 2 1.3400 36.9268 0.4449 3.1482 -5.8073 7.4426
# 3 6.1882 0.4449 170.9313 36.5614 11.7584 13.7612
# 4 5.2893 3.1482 36.5614 32.7596 10.5846 -2.6122
# 5 8.4220 -5.8073 11.7584 10.5846 36.1273 -6.3882
# 6 -5.9522 7.4426 13.7612 -2.6122 -6.3882 30.5072
#
#
#
# Elastic Compliance Matrix: (Units=1/GPa)
#
#
# Indices 1 2 3 4 5 6 
#
# 1 0.017338 -0.001750 -0.000499 -0.000724 -0.003371 0.003267
# 2 -0.001750 0.030150 0.001737 -0.006902 0.005304 -0.007961
# 3 -0.000499 0.001737 0.008397 -0.009743 -0.000407 -0.005228
# 4 -0.000724 -0.006902 -0.009743 0.045989 -0.009862 0.007810
# 5 -0.003371 0.005304 -0.000407 -0.009862 0.033104 0.004320
# 6 0.003267 -0.007961 -0.005228 0.007810 0.004320 0.039291
#
#
# Mechanical properties :
#
#
# Convention : Reuss Voigt Hill
#
# Bulk Modulus (GPa) = 18.22792 31.64164 24.93478
# Shear Modulus (GPa) = 25.82926 37.26919 31.54922
#
# Velocity S-wave (km/s) = 3.16726 3.80454 3.50043
# Velocity P-wave (km/s) = 4.52268 5.62034 5.10112
#
# Compressibility (1/GPa) = 0.05486088
#
# Stress axis : x y z
#
# Youngs Moduli (GPa) = 57.67705 33.16725 119.09373
#
# Poissons Ratio (x) = 0.05804 0.05947
# Poissons Ratio (y) = 0.10093 -0.20691
# Poissons Ratio (z) = 0.02880 -0.05762
#
# Static dielectric constant tensor:
#      x y z
#    x 1.928530 -0.009010 0.041070 
#    y -0.009010 1.928510 -0.033120 
#    z 0.041070 -0.033120 2.082140 
# 
# From -- ./inp_files/888.got.cif
#   From: 2010.05.17/outbox.cif.g08.bks.cpg/sg1_1_cif.got.tgz:888.got - 2010.05.17 20:27:59.
