data_PCOD9000263
_publ_section_title
;
Structure prediction by ZEFSAII (Michael W. Deem and Ramdas Pophale) SiO2 
 PCOD9000263
Probable space group: P 1
;
_chemical_formula_sum "Si O2"
_cell_formula_units_Z 8
_cell_length_a 5.017973
_cell_length_b 11.457433
_cell_length_c 14.951799
_cell_angle_alpha 154.631515
_cell_angle_beta 67.328367
_cell_angle_gamma 107.616808
_cell_volume 337.566218
_symmetry_space_group_name_H-M "P 1"
_symmetry_group_IT_number 1
_symmetry_cell_setting 'triclinic'
loop_
_space_group_symop_operation_xyz
x,y,z
loop_
_atom_site_type_symbol
_atom_site_label
_atom_site_fract_x
_atom_site_fract_y
_atom_site_fract_z
Si Si1 0.634570 0.955330 0.651840
Si Si2 0.672668 0.322792 0.223144
Si Si3 0.295274 0.022478 0.574699
Si Si4 0.562561 0.396359 0.683880
Si Si5 0.398924 0.818004 0.140498
Si Si6 0.784321 0.825509 0.268773
Si Si7 0.444485 0.410467 0.506077
Si Si8 0.307309 0.031201 0.929230
O O1 0.583870 0.638159 0.426543
O O2 0.452926 0.116809 0.708411
O O3 0.520181 0.049096 0.829198
O O4 0.975784 0.965055 0.601001
O O5 0.654118 0.342098 0.346973
O O6 0.457282 0.138421 0.072880
O O7 0.999336 0.206954 0.075166
O O8 0.285846 0.246769 0.651440
O O9 0.524936 0.770616 0.331831
O O10 0.581194 0.440551 0.607269
O O11 0.795713 0.147897 0.512267
O O12 0.543022 0.664977 0.930204
O O13 0.642176 0.810360 0.179629
O O14 0.114128 0.696644 0.132711
O O15 0.300639 0.130131 0.339223
O O16 0.266290 0.707064 0.717782
#
# Coordination Sequence:
#
# PCOD9000263 Si02
#       8
#     1   1   1   1   1   1   1   1
#     4  11  23  46  67  97 131 172 220 273 323 382
#     4  11  25  46  70  96 127 174 223 273 329 383
#     4  10  22  45  66  94 143 168 208 279 317 385
#     4   9  23  41  64  98 136 171 211 260 326 393
#     4  11  21  41  62  95 131 176 208 254 323 390
#     4   9  23  39  59  91 134 169 211 257 307 382
#     4  10  24  42  70  96 137 168 217 274 324 389
#     4  11  25  46  68  99 127 170 226 274 327 380
#
# _framework density 23.699054
#
# number of rings (size 3 to 8) (size 9 to 14) (size 15 to 20)
#    0.750    1.000    0.000    3.000    0.000   13.000 
#   13.500    0.000    0.000    0.000    0.000    0.000 
#    0.000    0.000    0.000    0.000    0.000    0.000 
#
# Total GULP energy -44615.058837 kJ/mol
# GULP energy per Si atom -5576.882355 kJ/mol
# Density = 2.364511 g / cm^3
# Si number density = 23.699054 Si / 1000 Ang^3
#
#
#
# Elastic Constant Matrix: (Units=GPa)
#
#
# Indices 1 2 3 4 5 6 
#
# 1 96.3261 22.3978 42.3170 -12.4237 -3.5816 -2.5438
# 2 22.3978 85.8541 33.0831 -23.8166 8.0303 -13.0777
# 3 42.3170 33.0831 146.0630 -15.7649 7.1969 -3.3138
# 4 -12.4237 -23.8166 -15.7649 31.2507 -9.4321 5.9448
# 5 -3.5816 8.0303 7.1969 -9.4321 27.6417 -11.2454
# 6 -2.5438 -13.0777 -3.3138 5.9448 -11.2454 26.2622
#
#
#
# Elastic Compliance Matrix: (Units=1/GPa)
#
#
# Indices 1 2 3 4 5 6 
#
# 1 0.012773 -0.001328 -0.003210 0.003594 0.004652 0.001349
# 2 -0.001328 0.016461 -0.002179 0.010232 0.001614 0.006168
# 3 -0.003210 -0.002179 0.008448 0.000924 -0.002285 -0.001517
# 4 0.003594 0.010232 0.000924 0.045487 0.013135 0.000887
# 5 0.004652 0.001614 -0.002285 0.013135 0.049130 0.019030
# 6 0.001349 0.006168 -0.001517 0.000887 0.019030 0.049036
#
#
# Mechanical properties :
#
#
# Convention : Reuss Voigt Hill
#
# Bulk Modulus (GPa) = 41.24228 58.20433 49.72330
# Shear Modulus (GPa) = 24.64868 32.39395 28.52132
#
# Velocity S-wave (km/s) = 3.22851 3.70116 3.47288
# Velocity P-wave (km/s) = 5.59803 6.54812 6.09163
#
# Compressibility (1/GPa) = 0.02424696
#
# Stress axis : x y z
#
# Youngs Moduli (GPa) = 78.29266 60.75115 118.37317
#
# Poissons Ratio (x) = 0.08066 0.38003
# Poissons Ratio (y) = 0.10395 0.25793
# Poissons Ratio (z) = 0.25135 0.13237
#
# Static dielectric constant tensor:
#      x y z
#    x 1.869130 0.046580 0.006630 
#    y 0.046580 1.988730 0.018860 
#    z 0.006630 0.018860 1.932620 
# 
# From -- ./inp_files/7026.got.cif
#   From: 2010.05.17/outbox.cif.g08.bks.cpg/sg1_4_cif.got.tgz:7026.got - 2010.05.17 20:27:59.
