data_PCOD9000079
_publ_section_title
;
Structure prediction by ZEFSAII (Michael W. Deem and Ramdas Pophale) SiO2 
 PCOD9000079
Probable space group: P 1
;
_chemical_formula_sum "Si O2"
_cell_formula_units_Z 8
_cell_length_a 5.689712
_cell_length_b 9.226063
_cell_length_c 11.018653
_cell_angle_alpha 140.606144
_cell_angle_beta 89.850574
_cell_angle_gamma 82.713594
_cell_volume 359.440232
_symmetry_space_group_name_H-M "P 1"
_symmetry_group_IT_number 1
_symmetry_cell_setting 'triclinic'
loop_
_space_group_symop_operation_xyz
x,y,z
loop_
_atom_site_type_symbol
_atom_site_label
_atom_site_fract_x
_atom_site_fract_y
_atom_site_fract_z
Si Si1 0.917180 0.388930 0.614260
Si Si2 0.124668 0.981937 0.745412
Si Si3 0.580584 0.108643 0.384300
Si Si4 0.160395 0.277643 0.302466
Si Si5 0.245128 0.415600 0.128003
Si Si6 0.888600 0.875354 0.021483
Si Si7 0.618640 0.975523 0.841490
Si Si8 0.240844 0.930540 0.430184
O O1 0.651061 0.339583 0.590022
O O2 0.965678 0.410260 0.484467
O O3 0.068406 0.144316 0.503055
O O4 0.980919 0.601472 0.825095
O O5 0.382644 0.870625 0.738414
O O6 0.193742 0.967200 0.595680
O O7 0.873137 0.906557 0.726493
O O8 0.081751 0.251448 0.963573
O O9 0.386405 0.198904 0.338584
O O10 0.494783 0.962412 0.397363
O O11 0.786269 0.944911 0.199414
O O12 0.201810 0.421616 0.277354
O O13 0.073284 0.044996 0.107213
O O14 0.210640 0.669190 0.236090
O O15 0.508651 0.252013 0.003029
O O16 0.685935 0.931771 0.953691
#
# Coordination Sequence:
#
# PCOD9000079 Si02
#       8
#     1   1   1   1   1   1   1   1
#     4  10  26  40  68  97 136 182 226 284 340 414
#     4  10  24  43  66 102 140 173 228 277 349 406
#     4  10  23  44  63  98 133 178 233 274 346 408
#     4  10  21  43  67 101 127 175 233 283 348 392
#     4  10  23  42  70  97 136 177 225 288 336 413
#     4  11  21  43  71  95 134 173 234 289 340 405
#     4  10  22  44  68 104 128 179 223 289 343 390
#     4  11  26  43  63 100 136 187 218 278 346 418
#
# _framework density 22.256829
#
# number of rings (size 3 to 8) (size 9 to 14) (size 15 to 20)
#    0.750    1.000    2.500    0.000    3.500    9.000 
#    0.000    0.000    0.000    0.000    0.000    0.000 
#    0.000    0.000    0.000    0.000    0.000    0.000 
#
# Total GULP energy -44584.180631 kJ/mol
# GULP energy per Si atom -5573.022579 kJ/mol
# Density = 2.220617 g / cm^3
# Si number density = 22.256829 Si / 1000 Ang^3
#
#
#
# Elastic Constant Matrix: (Units=GPa)
#
#
# Indices 1 2 3 4 5 6 
#
# 1 85.4923 26.8492 15.7027 -0.7857 -8.7344 12.5379
# 2 26.8492 87.6254 43.4171 11.8186 -11.0806 15.3716
# 3 15.7027 43.4171 73.6383 9.2519 4.3747 10.2496
# 4 -0.7857 11.8186 9.2519 49.0820 6.0500 -5.7580
# 5 -8.7344 -11.0806 4.3747 6.0500 16.1324 -5.6152
# 6 12.5379 15.3716 10.2496 -5.7580 -5.6152 33.2328
#
#
#
# Elastic Compliance Matrix: (Units=1/GPa)
#
#
# Indices 1 2 3 4 5 6 
#
# 1 0.013629 -0.002320 -0.001482 0.000096 0.005206 -0.002715
# 2 -0.002320 0.021820 -0.012268 -0.005590 0.017983 -0.003364
# 3 -0.001482 -0.012268 0.022565 0.000324 -0.016684 -0.003489
# 4 0.000096 -0.005590 0.000324 0.023575 -0.011095 0.004660
# 5 0.005206 0.017983 -0.016684 -0.011095 0.088596 0.007911
# 6 -0.002715 -0.003364 -0.003489 0.004660 0.007911 0.035891
#
#
# Mechanical properties :
#
#
# Convention : Reuss Voigt Hill
#
# Bulk Modulus (GPa) = 38.64877 46.52156 42.58516
# Shear Modulus (GPa) = 20.25607 30.40858 25.33232
#
# Velocity S-wave (km/s) = 3.02007 3.70030 3.37736
# Velocity P-wave (km/s) = 5.43725 6.26130 5.86377
#
# Compressibility (1/GPa) = 0.02587404
#
# Stress axis : x y z
#
# Youngs Moduli (GPa) = 73.37450 45.82986 44.31619
#
# Poissons Ratio (x) = 0.10633 0.06566
# Poissons Ratio (y) = 0.17023 0.54367
# Poissons Ratio (z) = 0.10872 0.56224
#
# Static dielectric constant tensor:
#      x y z
#    x 1.967890 0.022740 -0.031710 
#    y 0.022740 1.780330 0.014160 
#    z -0.031710 0.014160 1.847880 
# 
# From -- ./inp_files/2781.got.cif
#   From: 2010.05.17/outbox.cif.g08.bks.cpg/sg1_2_cif.got.tgz:2781.got - 2010.05.17 20:27:59.
