data_PCOD9000939
_publ_section_title
;
Structure prediction by ZEFSAII (Michael W. Deem and Ramdas Pophale) SiO2 
 PCOD9000939
Probable space group: P 1
;
_chemical_formula_sum "Si O2"
_cell_formula_units_Z 8
_cell_length_a 8.100947
_cell_length_b 7.975064
_cell_length_c 9.104508
_cell_angle_alpha 142.752540
_cell_angle_beta 69.848203
_cell_angle_gamma 124.546179
_cell_volume 286.417818
_symmetry_space_group_name_H-M "P 1"
_symmetry_group_IT_number 1
_symmetry_cell_setting 'triclinic'
loop_
_space_group_symop_operation_xyz
x,y,z
loop_
_atom_site_type_symbol
_atom_site_label
_atom_site_fract_x
_atom_site_fract_y
_atom_site_fract_z
Si Si1 0.995260 0.235930 0.370920
Si Si2 0.007713 0.765490 0.508907
Si Si3 0.983836 0.464359 0.804359
Si Si4 0.556622 0.015948 0.730574
Si Si5 0.899187 0.858038 0.896924
Si Si6 0.624246 0.140431 0.118548
Si Si7 0.289931 0.903357 0.266357
Si Si8 0.530312 0.651941 0.194392
O O1 0.022015 0.524848 0.457102
O O2 0.103673 0.367592 0.584390
O O3 0.770632 0.927945 0.276667
O O4 0.071720 0.077170 0.116518
O O5 0.189564 0.965644 0.481549
O O6 0.971699 0.959794 0.780490
O O7 0.811883 0.507177 0.293769
O O8 0.801463 0.180652 0.752604
O O9 0.854072 0.527451 0.757456
O O10 0.125193 0.711069 0.056112
O O11 0.483061 0.743883 0.436587
O O12 0.515024 0.959785 0.877421
O O13 0.506026 0.304067 0.929382
O O14 0.717548 0.932614 0.010567
O O15 0.485650 0.176294 0.308946
O O16 0.377792 0.692577 0.163362
#
# Coordination Sequence:
#
# PCOD9000939 Si02
#       8
#     1   1   1   1   1   1   1   1
#     4   9  19  42  70  96 138 195 233 291 371 429
#     4  10  22  42  71 102 145 185 240 305 372 429
#     4  10  21  40  71 104 142 187 243 302 363 439
#     4  11  24  46  73 104 152 197 242 301 379 439
#     4  10  20  44  73  95 143 193 235 293 377 435
#     4  11  24  45  70 104 140 194 239 304 369 442
#     4  12  24  46  70 111 141 187 255 303 364 439
#     4  11  24  47  74 108 147 196 245 305 369 446
#
# _framework density 27.931222999999999
#
# number of rings (size 3 to 8) (size 9 to 14) (size 15 to 20)
#    0.000    1.500    5.000    0.000    1.750    2.000 
#   11.250    0.000    0.000    0.000    0.000    0.000 
#    0.000    0.000    0.000    0.000    0.000    0.000 
#
# Total GULP energy -44594.503692 kJ/mol
# GULP energy per Si atom -5574.312961 kJ/mol
# Density = 2.786765 g / cm^3
# Si number density = 27.931223 Si / 1000 Ang^3
#
#
#
# Elastic Constant Matrix: (Units=GPa)
#
#
# Indices 1 2 3 4 5 6 
#
# 1 89.8927 53.1431 28.5751 -9.2449 11.8713 -16.1673
# 2 53.1431 113.3740 52.0576 -43.4545 -4.9082 -2.9958
# 3 28.5751 52.0576 161.1104 -70.2943 -0.5472 -0.7000
# 4 -9.2449 -43.4545 -70.2943 64.6850 0.0246 -2.3484
# 5 11.8713 -4.9082 -0.5472 0.0246 20.8245 -4.9740
# 6 -16.1673 -2.9958 -0.7000 -2.3484 -4.9740 52.5989
#
#
#
# Elastic Compliance Matrix: (Units=1/GPa)
#
#
# Indices 1 2 3 4 5 6 
#
# 1 0.021205 -0.012199 -0.003873 -0.009222 -0.014092 0.004027
# 2 -0.012199 0.019189 0.001604 0.012850 0.011266 -0.000996
# 3 -0.003873 0.001604 0.012576 0.014188 0.002894 -0.000025
# 4 -0.009222 0.012850 0.014188 0.038212 0.008762 0.000621
# 5 -0.014092 0.011266 0.002894 0.008762 0.059336 0.002351
# 6 0.004027 -0.000996 -0.000025 0.000621 0.002351 0.020442
#
#
# Mechanical properties :
#
#
# Convention : Reuss Voigt Hill
#
# Bulk Modulus (GPa) = 41.61181 70.21429 55.91305
# Shear Modulus (GPa) = 24.04914 42.99511 33.52212
#
# Velocity S-wave (km/s) = 2.93748 3.92767 3.46810
# Velocity P-wave (km/s) = 5.14154 6.76474 6.00821
#
# Compressibility (1/GPa) = 0.02403164
#
# Stress axis : x y z
#
# Youngs Moduli (GPa) = 47.15978 52.11384 79.51715
#
# Poissons Ratio (x) = 0.63576 0.30799
# Poissons Ratio (y) = 0.57532 -0.12754
# Poissons Ratio (z) = 0.18266 -0.08359
#
# Static dielectric constant tensor:
#      x y z
#    x 2.346890 -0.025080 -0.270910 
#    y -0.025080 2.220640 0.106220 
#    z -0.270910 0.106220 2.691030 
# 
# From -- ./inp_files/4490.got.cif
#   From: 2010.05.17/outbox.cif.g08.bks.cpg/sg1_3_cif.got.tgz:4490.got - 2010.05.17 20:27:59.
