data_PCOD9000755
_publ_section_title
;
Structure prediction by ZEFSAII (Michael W. Deem and Ramdas Pophale) SiO2 
 PCOD9000755
Probable space group: P 1
;
_chemical_formula_sum "Si O2"
_cell_formula_units_Z 8
_cell_length_a 10.126886
_cell_length_b 8.552125
_cell_length_c 7.368097
_cell_angle_alpha 70.424734
_cell_angle_beta 80.065270
_cell_angle_gamma 132.629933
_cell_volume 361.541895
_symmetry_space_group_name_H-M "P 1"
_symmetry_group_IT_number 1
_symmetry_cell_setting 'triclinic'
loop_
_space_group_symop_operation_xyz
x,y,z
loop_
_atom_site_type_symbol
_atom_site_label
_atom_site_fract_x
_atom_site_fract_y
_atom_site_fract_z
Si Si1 0.671830 0.997570 0.812200
Si Si2 0.940666 0.579744 0.530412
Si Si3 0.274679 0.819831 0.852703
Si Si4 0.552006 0.415994 0.625279
Si Si5 0.813244 0.471880 0.028308
Si Si6 0.572421 0.554587 0.962967
Si Si7 0.356603 0.840518 0.414015
Si Si8 0.470340 0.628730 0.291697
O O1 0.682955 0.837101 0.761982
O O2 0.838201 0.303278 0.602570
O O3 0.431378 0.850297 0.916870
O O4 0.682006 0.934435 0.038902
O O5 0.800294 0.590501 0.477442
O O6 0.884012 0.531998 0.777297
O O7 0.200515 0.822151 0.360390
O O8 0.397137 0.116866 0.708210
O O9 0.286012 0.757735 0.671466
O O10 0.021998 0.612865 0.038091
O O11 0.500462 0.396419 0.857357
O O12 0.518609 0.547331 0.468129
O O13 0.731111 0.582090 0.021666
O O14 0.602793 0.150543 0.233964
O O15 0.403025 0.456988 0.194172
O O16 0.326970 0.634837 0.405512
#
# Coordination Sequence:
#
# PCOD9000755 Si02
#       8
#     1   1   1   1   1   1   1   1
#     4   9  19  41  57  92 122 155 202 249 305 360
#     4   9  20  39  65  88 121 161 204 254 305 358
#     4  10  22  38  65  91 122 164 205 249 308 358
#     4  10  20  41  63  92 124 159 206 253 302 366
#     4  10  19  39  61  91 124 160 205 254 299 364
#     4   9  20  37  64  86 128 159 196 257 304 357
#     4  11  21  39  67  89 122 162 209 250 304 368
#     4  10  21  38  64  91 125 160 203 248 311 369
#
# _framework density 22.127451000000001
#
# number of rings (size 3 to 8) (size 9 to 14) (size 15 to 20)
#    0.750    1.500    1.250    1.500    0.000    1.000 
#    6.750    3.750    2.750    0.000    0.000    0.000 
#    0.000    0.000    0.000    0.000    0.000    0.000 
#
# Total GULP energy -44569.018424 kJ/mol
# GULP energy per Si atom -5571.127303 kJ/mol
# Density = 2.207709 g / cm^3
# Si number density = 22.127451 Si / 1000 Ang^3
#
#
#
# Elastic Constant Matrix: (Units=GPa)
#
#
# Indices 1 2 3 4 5 6 
#
# 1 132.9691 36.6131 44.8440 -8.7909 -2.4522 -4.0562
# 2 36.6131 56.6853 21.6223 15.1537 -16.8350 -4.3505
# 3 44.8440 21.6223 54.4620 11.1138 -3.2156 4.9590
# 4 -8.7909 15.1537 11.1138 30.0854 1.8769 -14.3371
# 5 -2.4522 -16.8350 -3.2156 1.8769 32.5250 1.5367
# 6 -4.0562 -4.3505 4.9590 -14.3371 1.5367 37.9113
#
#
#
# Elastic Compliance Matrix: (Units=1/GPa)
#
#
# Indices 1 2 3 4 5 6 
#
# 1 0.019445 -0.015107 -0.017208 0.026493 -0.010199 0.013030
# 2 -0.015107 0.040002 0.005770 -0.033525 0.022608 -0.011376
# 3 -0.017208 0.005770 0.038878 -0.031660 0.008237 -0.018571
# 4 0.026493 -0.033525 -0.031660 0.089207 -0.025423 0.037895
# 5 -0.010199 0.022608 0.008237 -0.025423 0.044480 -0.010992
# 6 0.013030 -0.011376 -0.018571 0.037895 -0.010992 0.043672
#
#
# Mechanical properties :
#
#
# Convention : Reuss Voigt Hill
#
# Bulk Modulus (GPa) = 22.10732 50.03057 36.06894
# Shear Modulus (GPa) = 14.54119 29.50680 22.02399
#
# Velocity S-wave (km/s) = 2.56629 3.65566 3.15830
# Velocity P-wave (km/s) = 4.33517 6.36221 5.44387
#
# Compressibility (1/GPa) = 0.04523388
#
# Stress axis : x y z
#
# Youngs Moduli (GPa) = 51.42824 24.99885 25.72151
#
# Poissons Ratio (x) = 0.37765 0.44262
# Poissons Ratio (y) = 0.77692 -0.14840
# Poissons Ratio (z) = 0.88498 -0.14423
#
# Static dielectric constant tensor:
#      x y z
#    x 1.832470 -0.002020 -0.025230 
#    y -0.002020 1.853040 0.035670 
#    z -0.025230 0.035670 1.835340 
# 
# From -- ./inp_files/3771.got.cif
#   From: 2010.05.17/outbox.cif.g08.bks.cpg/sg1_2_cif.got.tgz:3771.got - 2010.05.17 20:27:59.
