data_PCOD9000197
_publ_section_title
;
Structure prediction by ZEFSAII (Michael W. Deem and Ramdas Pophale) SiO2 
 PCOD9000197
Probable space group: P 1
;
_chemical_formula_sum "Si O2"
_cell_formula_units_Z 8
_cell_length_a 5.527659
_cell_length_b 7.930801
_cell_length_c 12.178900
_cell_angle_alpha 58.441094
_cell_angle_beta 124.380208
_cell_angle_gamma 86.012395
_cell_volume 320.910626
_symmetry_space_group_name_H-M "P 1"
_symmetry_group_IT_number 1
_symmetry_cell_setting 'triclinic'
loop_
_space_group_symop_operation_xyz
x,y,z
loop_
_atom_site_type_symbol
_atom_site_label
_atom_site_fract_x
_atom_site_fract_y
_atom_site_fract_z
Si Si1 0.641570 0.516070 0.931490
Si Si2 0.881974 0.399765 0.270745
Si Si3 0.875847 0.792235 0.747203
Si Si4 0.194556 0.837425 0.008393
Si Si5 0.396603 0.196830 0.978557
Si Si6 0.183634 0.703429 0.289850
Si Si7 0.810824 0.644349 0.574312
Si Si8 0.911806 0.972854 0.354309
O O1 0.257749 0.679009 0.829147
O O2 0.619235 0.301792 0.951803
O O3 0.770042 0.636052 0.842304
O O4 0.881957 0.431959 0.128437
O O5 0.491086 0.571507 0.151047
O O6 0.100085 0.500322 0.344593
O O7 0.987598 0.133970 0.396097
O O8 0.649875 0.843295 0.561382
O O9 0.907520 0.936895 0.805702
O O10 0.064810 0.831192 0.098733
O O11 0.395649 0.974572 0.011595
O O12 0.022101 0.409053 0.776976
O O13 0.509490 0.144486 0.154082
O O14 0.583205 0.609177 0.440233
O O15 0.046730 0.877143 0.299098
O O16 0.004691 0.740433 0.519959
#
# Coordination Sequence:
#
# PCOD9000197 Si02
#       8
#     1   1   1   1   1   1   1   1
#     4   9  20  39  68 101 137 193 243 295 367 440
#     4  10  22  44  73 106 148 195 250 308 378 452
#     4  10  22  42  68 102 147 191 246 306 367 445
#     4  11  22  47  74 109 148 199 252 307 382 455
#     4  10  22  45  71 101 149 196 241 306 376 448
#     4  12  23  45  77 110 147 191 260 310 376 455
#     4  11  26  46  69 109 151 192 250 312 381 453
#     4  11  25  48  74 106 145 201 248 312 381 448
#
# _framework density 24.929055000000002
#
# number of rings (size 3 to 8) (size 9 to 14) (size 15 to 20)
#    0.000    1.500    3.750    0.750    3.500    5.000 
#    6.750    0.000    0.000    0.000    0.000    0.000 
#    0.000    0.000    0.000    0.000    0.000    0.000 
#
# Total GULP energy -44554.972805 kJ/mol
# GULP energy per Si atom -5569.371601 kJ/mol
# Density = 2.487232 g / cm^3
# Si number density = 24.929055 Si / 1000 Ang^3
#
#
#
# Elastic Constant Matrix: (Units=GPa)
#
#
# Indices 1 2 3 4 5 6 
#
# 1 78.7747 40.1416 2.1410 -5.3044 -19.4005 9.2996
# 2 40.1416 160.2872 18.2289 19.3476 11.0947 23.7213
# 3 2.1410 18.2289 67.0210 17.2360 -10.4861 -2.7766
# 4 -5.3044 19.3476 17.2360 46.5622 -1.0035 9.2902
# 5 -19.4005 11.0947 -10.4861 -1.0035 31.6573 12.2826
# 6 9.2996 23.7213 -2.7766 9.2902 12.2826 43.8726
#
#
#
# Elastic Compliance Matrix: (Units=1/GPa)
#
#
# Indices 1 2 3 4 5 6 
#
# 1 0.022564 -0.006940 0.002313 0.006629 0.020333 -0.007980
# 2 -0.006940 0.009410 -0.002701 -0.003746 -0.008305 -0.000669
# 3 0.002313 -0.002701 0.018242 -0.005414 0.007814 0.001084
# 4 0.006629 -0.003746 -0.005414 0.027471 0.007406 -0.007613
# 5 0.020333 -0.008305 0.007814 0.007406 0.056238 -0.016638
# 6 -0.007980 -0.000669 0.001084 -0.007613 -0.016638 0.031185
#
#
# Mechanical properties :
#
#
# Convention : Reuss Voigt Hill
#
# Bulk Modulus (GPa) = 28.12327 47.45622 37.78975
# Shear Modulus (GPa) = 26.09319 40.78983 33.44151
#
# Velocity S-wave (km/s) = 3.23878 4.04943 3.66658
# Velocity P-wave (km/s) = 5.02912 6.39857 5.75473
#
# Compressibility (1/GPa) = 0.03555774
#
# Stress axis : x y z
#
# Youngs Moduli (GPa) = 44.31811 106.26670 54.82005
#
# Poissons Ratio (x) = 0.73753 -0.12679
# Poissons Ratio (y) = 0.30759 0.14810
# Poissons Ratio (z) = -0.10250 0.28708
#
# Static dielectric constant tensor:
#      x y z
#    x 2.114930 -0.048520 0.183650 
#    y -0.048520 2.029870 -0.009870 
#    z 0.183650 -0.009870 2.121750 
# 
# From -- ./inp_files/5958.got.cif
#   From: 2010.05.17/outbox.cif.g08.bks.cpg/sg1_3_cif.got.tgz:5958.got - 2010.05.17 20:27:59.
