data_PCOD9000027
_publ_section_title
;
Structure prediction by ZEFSAII (Michael W. Deem and Ramdas Pophale) SiO2 
 PCOD9000027
Probable space group: P 1
;
_chemical_formula_sum "Si O2"
_cell_formula_units_Z 8
_cell_length_a 5.887203
_cell_length_b 10.335982
_cell_length_c 5.999119
_cell_angle_alpha 72.376587
_cell_angle_beta 89.999388
_cell_angle_gamma 90.000074
_cell_volume 347.913818
_symmetry_space_group_name_H-M "P 1"
_symmetry_group_IT_number 1
_symmetry_cell_setting 'triclinic'
loop_
_space_group_symop_operation_xyz
x,y,z
loop_
_atom_site_type_symbol
_atom_site_label
_atom_site_fract_x
_atom_site_fract_y
_atom_site_fract_z
Si Si1 0.269530 0.482050 0.617690
Si Si2 0.233393 0.232395 0.016697
Si Si3 0.910601 0.105430 0.702442
Si Si4 0.233396 0.978470 0.388180
Si Si5 0.269542 0.728817 0.787184
Si Si6 0.914607 0.358536 0.331489
Si Si7 0.611999 0.605430 0.202435
Si Si8 0.914613 0.852325 0.073397
O O1 0.359687 0.356861 0.833264
O O2 0.178168 0.605434 0.702438
O O3 0.461651 0.545963 0.430957
O O4 0.076197 0.424575 0.484855
O O5 0.073408 0.166828 0.861385
O O6 0.072304 0.301048 0.165947
O O7 0.358300 0.105433 0.202434
O O8 0.787178 0.231455 0.517076
O O9 0.073416 0.044036 0.543500
O O10 0.787182 0.979402 0.887808
O O11 0.359695 0.854006 0.571606
O O12 0.072300 0.909815 0.238940
O O13 0.461667 0.664899 0.973906
O O14 0.076216 0.786290 0.920034
O O15 0.757965 0.478638 0.184260
O O16 0.757965 0.732220 0.220618
#
# Coordination Sequence:
#
# PCOD9000027 Si02
#       8
#     1   1   1   1   1   1   1   1
#     4  11  23  39  59  89 122 156 197 239 292 351
#     4   9  18  38  66  87 112 155 199 242 294 345
#     4   8  18  36  64  88 110 154 200 242 292 344
#     4   9  18  38  66  87 112 155 199 242 294 345
#     4  11  23  39  59  89 122 156 197 239 292 351
#     4  10  21  41  62  85 120 157 196 243 293 347
#     4  12  24  36  58  92 122 156 196 238 292 352
#     4  10  21  41  62  85 120 157 196 243 293 347
#
# _framework density 22.994199999999999
#
# number of rings (size 3 to 8) (size 9 to 14) (size 15 to 20)
#    0.000    2.000    0.000    3.750    0.000    5.000 
#    0.000   10.000    0.000   15.000    0.000    0.000 
#    0.000    0.000    0.000    0.000    0.000    0.000 
#
# Total GULP energy -44704.147194 kJ/mol
# GULP energy per Si atom -5588.018399 kJ/mol
# Density = 2.294186 g / cm^3
# Si number density = 22.994200 Si / 1000 Ang^3
#
#
#
# Elastic Constant Matrix: (Units=GPa)
#
#
# Indices 1 2 3 4 5 6 
#
# 1 31.4637 35.7431 33.7604 -19.2656 0.0199 -0.0154
# 2 35.7431 168.3302 90.8586 -19.7755 0.0307 -0.0247
# 3 33.7604 90.8586 151.3451 -42.3802 0.0294 -0.0221
# 4 -19.2656 -19.7755 -42.3802 95.3149 0.0009 0.0001
# 5 0.0199 0.0307 0.0294 0.0009 -79.7707 74.5857
# 6 -0.0154 -0.0247 -0.0221 0.0001 74.5857 -47.3516
#
#
#
# Elastic Compliance Matrix: (Units=1/GPa)
#
#
# Indices 1 2 3 4 5 6 
#
# 1 0.048825 -0.006950 -0.004979 0.006213 0.000003 -0.000005
# 2 -0.006950 0.009808 -0.004753 -0.001483 0.000001 0.000000
# 3 -0.004979 -0.004753 0.011438 0.003093 0.000000 -0.000001
# 4 0.006213 -0.001483 0.003093 0.012815 0.000000 -0.000002
# 5 0.000003 0.000001 0.000000 0.000000 0.026516 0.041767
# 6 -0.000005 0.000000 -0.000001 -0.000002 0.041767 0.044671
#
#
# Mechanical properties :
#
#
# Convention : Reuss Voigt Hill
#
# Bulk Modulus (GPa) = 27.24360 74.65147 50.94754
# Shear Modulus (GPa) = 25.04117 6.35699 15.69908
#
# Velocity S-wave (km/s) = 3.30361 1.66451 2.61577
# Velocity P-wave (km/s) = 5.14058 6.01913 5.59712
#
# Compressibility (1/GPa) = 0.03670586
#
# Stress axis : x y z
#
# Youngs Moduli (GPa) = 20.48141 101.96093 87.43061
#
# Poissons Ratio (x) = 0.70862 0.43534
# Poissons Ratio (y) = 0.14234 0.41556
# Poissons Ratio (z) = 0.10198 0.48462
#
# Static dielectric constant tensor:
#      x y z
#    x 1.849840 0.000000 0.000010 
#    y 0.000000 1.885190 -0.054930 
#    z 0.000010 -0.054930 1.885740 
# 
# From -- ./inp_files/339.got.cif
#   From: 2010.05.17/outbox.cif.g08.bks.cpg/sg1_1_cif.got.tgz:339.got - 2010.05.17 20:27:59.
