data_PCOD9000262
_publ_section_title
;
Structure prediction by ZEFSAII (Michael W. Deem and Ramdas Pophale) SiO2 
 PCOD9000262
Probable space group: P 1
;
_chemical_formula_sum "Si O2"
_cell_formula_units_Z 6
_cell_length_a 5.177217
_cell_length_b 9.736594
_cell_length_c 7.519525
_cell_angle_alpha 70.125274
_cell_angle_beta 107.158584
_cell_angle_gamma 136.719554
_cell_volume 243.721014
_symmetry_space_group_name_H-M "P 1"
_symmetry_group_IT_number 1
_symmetry_cell_setting 'triclinic'
loop_
_space_group_symop_operation_xyz
x,y,z
loop_
_atom_site_type_symbol
_atom_site_label
_atom_site_fract_x
_atom_site_fract_y
_atom_site_fract_z
Si Si1 0.270200 0.290220 0.791290
Si Si2 0.146053 0.654035 0.110253
Si Si3 0.411812 0.897334 0.699531
Si Si4 0.450412 0.220688 0.531732
Si Si5 0.316336 0.613484 0.513950
Si Si6 0.313057 0.399657 0.147301
O O1 0.490874 0.252558 0.739744
O O2 0.462275 0.514200 0.662839
O O3 0.234433 0.287216 0.995862
O O4 0.853601 0.101079 0.716571
O O5 0.429724 0.728236 0.299081
O O6 0.103162 0.474522 0.095316
O O7 0.768704 0.589913 0.136743
O O8 0.283636 0.803340 0.910140
O O9 0.342185 0.742281 0.615816
O O10 0.251319 0.991659 0.558710
O O11 0.880530 0.403754 0.476000
O O12 0.242488 0.271328 0.360668
#
# Coordination Sequence:
#
# PCOD9000262 Si02
#       6
#     1   1   1   1   1   1
#     4  11  23  41  69  95 135 175 218 275 335 391
#     4  11  24  45  70  98 131 181 221 271 334 392
#     4  11  25  41  67 103 130 173 226 275 329 394
#     4  10  24  43  65  97 132 179 220 272 334 392
#     4  10  22  45  66  91 137 176 219 272 333 395
#     4  11  24  45  71  94 137 178 220 271 335 396
#
# _framework density 24.618313000000001
#
# number of rings (size 3 to 8) (size 9 to 14) (size 15 to 20)
#    0.000    1.333    3.333    1.000    4.667    4.000 
#    3.000    0.000    0.000    0.000    0.000    0.000 
#    0.000    0.000    0.000    0.000    0.000    0.000 
#
# Total GULP energy -33499.977594 kJ/mol
# GULP energy per Si atom -5583.329599 kJ/mol
# Density = 2.456228 g / cm^3
# Si number density = 24.618313 Si / 1000 Ang^3
#
#
#
# Elastic Constant Matrix: (Units=GPa)
#
#
# Indices 1 2 3 4 5 6 
#
# 1 60.5304 10.1345 9.4097 -3.3619 -11.4204 -16.0595
# 2 10.1345 94.4590 42.0973 -10.7485 -3.4475 -20.3499
# 3 9.4097 42.0973 129.5337 0.3351 -27.1650 1.6747
# 4 -3.3619 -10.7485 0.3351 42.5962 -13.4531 0.7072
# 5 -11.4204 -3.4475 -27.1650 -13.4531 36.0157 6.3978
# 6 -16.0595 -20.3499 1.6747 0.7072 6.3978 29.7197
#
#
#
# Elastic Compliance Matrix: (Units=1/GPa)
#
#
# Indices 1 2 3 4 5 6 
#
# 1 0.020488 0.001051 -0.000857 0.003398 0.005336 0.010609
# 2 0.001051 0.016275 -0.006432 0.002682 -0.004255 0.012926
# 3 -0.000857 -0.006432 0.012112 0.001570 0.010218 -0.007787
# 4 0.003398 0.002682 0.001570 0.028570 0.013179 0.000067
# 5 0.005336 -0.004255 0.010218 0.013179 0.043507 -0.010285
# 6 0.010609 0.012926 -0.007787 0.000067 -0.010285 0.050883
#
#
# Mechanical properties :
#
#
# Convention : Reuss Voigt Hill
#
# Bulk Modulus (GPa) = 27.47314 45.31179 36.39246
# Shear Modulus (GPa) = 25.45254 36.52509 30.98882
#
# Velocity S-wave (km/s) = 3.21890 3.85600 3.55177
# Velocity P-wave (km/s) = 4.99989 6.18633 5.62448
#
# Compressibility (1/GPa) = 0.03639919
#
# Stress axis : x y z
#
# Youngs Moduli (GPa) = 48.80887 61.44371 82.56270
#
# Poissons Ratio (x) = -0.06456 0.07074
# Poissons Ratio (y) = -0.05128 0.53103
# Poissons Ratio (z) = 0.04182 0.39520
#
# Static dielectric constant tensor:
#      x y z
#    x 2.124630 0.017640 0.043020 
#    y 0.017640 1.935280 0.014090 
#    z 0.043020 0.014090 1.968980 
# 
# From -- ./inp_files/2914.got.cif
#   From: 2010.05.17/outbox.cif.g08.bks.cpg/sg1_2_cif.got.tgz:2914.got - 2010.05.17 20:27:59.
