data_PCOD9000551
_publ_section_title
;
Structure prediction by ZEFSAII (Michael W. Deem and Ramdas Pophale) SiO2 
 PCOD9000551
Probable space group: P 1
;
_chemical_formula_sum "Si O2"
_cell_formula_units_Z 8
_cell_length_a 10.880332
_cell_length_b 14.474954
_cell_length_c 7.593397
_cell_angle_alpha 142.749141
_cell_angle_beta 150.061655
_cell_angle_gamma 30.251473
_cell_volume 295.283731
_symmetry_space_group_name_H-M "P 1"
_symmetry_group_IT_number 1
_symmetry_cell_setting 'triclinic'
loop_
_space_group_symop_operation_xyz
x,y,z
loop_
_atom_site_type_symbol
_atom_site_label
_atom_site_fract_x
_atom_site_fract_y
_atom_site_fract_z
Si Si1 0.241070 0.253840 0.727240
Si Si2 0.401579 0.767840 0.755589
Si Si3 0.249560 0.094123 0.860756
Si Si4 0.594741 0.376448 0.499727
Si Si5 0.821226 0.046188 0.686661
Si Si6 0.437955 0.462262 0.810695
Si Si7 0.863862 0.596970 0.557770
Si Si8 0.659044 0.904637 0.550472
O O1 0.176796 0.179509 0.706265
O O2 0.011420 0.469576 0.719502
O O3 0.340589 0.104854 0.470562
O O4 0.544563 0.240869 0.124862
O O5 0.509682 0.556578 0.557700
O O6 0.345427 0.883516 0.684234
O O7 0.629236 0.775388 0.180772
O O8 0.088876 0.901584 0.673114
O O9 0.934779 0.249364 0.800483
O O10 0.522601 0.083606 0.278208
O O11 0.377588 0.447136 0.507481
O O12 0.712573 0.256771 0.904742
O O13 0.880770 0.941568 0.787280
O O14 0.152478 0.518228 0.662011
O O15 0.586339 0.578216 0.156017
O O16 0.731906 0.813254 0.694561
#
# Coordination Sequence:
#
# PCOD9000551 Si02
#       8
#     1   1   1   1   1   1   1   1
#     4  12  28  45  69 107 153 193 238 311 385 434
#     4  11  24  45  75 106 136 196 257 305 362 456
#     4  11  25  45  69 105 151 196 245 308 375 444
#     4  12  26  45  75 107 147 195 252 307 373 445
#     4  11  22  44  78 103 145 192 258 307 370 442
#     4  12  23  49  78 106 146 198 256 300 370 446
#     4  12  28  48  76 111 151 197 250 313 372 452
#     4  11  26  45  72 107 145 193 250 309 375 441
#
# _framework density 27.092590000000001
#
# number of rings (size 3 to 8) (size 9 to 14) (size 15 to 20)
#    0.000    0.500    5.000    2.250    1.750    6.000 
#    0.000    0.000    0.000    0.000    0.000    0.000 
#    0.000    0.000    0.000    0.000    0.000    0.000 
#
# Total GULP energy -44748.758412 kJ/mol
# GULP energy per Si atom -5593.594802 kJ/mol
# Density = 2.703093 g / cm^3
# Si number density = 27.092590 Si / 1000 Ang^3
#
#
#
# Elastic Constant Matrix: (Units=GPa)
#
#
# Indices 1 2 3 4 5 6 
#
# 1 133.8273 44.6811 11.7478 -3.9794 7.9851 40.5327
# 2 44.6811 160.4034 26.0857 -6.5058 22.0744 44.1085
# 3 11.7478 26.0857 54.5507 -5.6527 10.4816 -5.6552
# 4 -3.9794 -6.5058 -5.6527 44.8166 2.2740 10.5574
# 5 7.9851 22.0744 10.4816 2.2740 29.9259 -5.4983
# 6 40.5327 44.1085 -5.6552 10.5574 -5.4983 70.6857
#
#
#
# Elastic Compliance Matrix: (Units=1/GPa)
#
#
# Indices 1 2 3 4 5 6 
#
# 1 0.009848 -0.000201 -0.001833 0.002246 -0.003156 -0.006249
# 2 -0.000201 0.010212 -0.003806 0.003180 -0.007792 -0.007643
# 3 -0.001833 -0.003806 0.021837 0.001106 -0.003567 0.004730
# 4 0.002246 0.003180 0.001106 0.025208 -0.006619 -0.007464
# 5 -0.003156 -0.007792 -0.003567 -0.006619 0.043738 0.010778
# 6 -0.006249 -0.007643 0.004730 -0.007464 0.010778 0.024831
#
#
# Mechanical properties :
#
#
# Convention : Reuss Voigt Hill
#
# Bulk Modulus (GPa) = 33.09425 57.09008 45.09216
# Shear Modulus (GPa) = 31.76074 46.83676 39.29875
#
# Velocity S-wave (km/s) = 3.42761 4.16235 3.81272
# Velocity P-wave (km/s) = 5.28265 6.64968 6.00519
#
# Compressibility (1/GPa) = 0.03021673
#
# Stress axis : x y z
#
# Youngs Moduli (GPa) = 101.54036 97.92242 45.79488
#
# Poissons Ratio (x) = 0.01970 0.08396
# Poissons Ratio (y) = 0.02043 0.17428
# Poissons Ratio (z) = 0.18616 0.37265
#
# Static dielectric constant tensor:
#      x y z
#    x 2.171380 0.008160 0.042670 
#    y 0.008160 2.125270 -0.002000 
#    z 0.042670 -0.002000 2.143290 
# 
# From -- ./inp_files/2241.got.cif
#   From: 2010.05.17/outbox.cif.g08.bks.cpg/sg1_2_cif.got.tgz:2241.got - 2010.05.17 20:27:59.
