data_PCOD9000684
_publ_section_title
;
Structure prediction by ZEFSAII (Michael W. Deem and Ramdas Pophale) SiO2 
 PCOD9000684
Probable space group: P 1
;
_chemical_formula_sum "Si O2"
_cell_formula_units_Z 8
_cell_length_a 13.270242
_cell_length_b 14.514055
_cell_length_c 9.222334
_cell_angle_alpha 150.458898
_cell_angle_beta 33.231323
_cell_angle_gamma 150.969122
_cell_volume 403.127788
_symmetry_space_group_name_H-M "P 1"
_symmetry_group_IT_number 1
_symmetry_cell_setting 'triclinic'
loop_
_space_group_symop_operation_xyz
x,y,z
loop_
_atom_site_type_symbol
_atom_site_label
_atom_site_fract_x
_atom_site_fract_y
_atom_site_fract_z
Si Si1 0.981280 0.162100 0.120860
Si Si2 0.971567 0.849911 0.474910
Si Si3 0.525701 0.035706 0.549056
Si Si4 0.906859 0.779756 0.911940
Si Si5 0.216277 0.777489 0.339782
Si Si6 0.460999 0.523079 0.658656
Si Si7 0.451276 0.554361 0.043141
Si Si8 0.216290 0.054935 0.172082
O O1 0.216277 0.382854 0.155885
O O2 0.783311 0.194182 0.432571
O O3 0.964618 0.053716 0.834916
O O4 0.950269 0.972532 0.009502
O O5 0.716281 0.663363 0.497391
O O6 0.086717 0.784925 0.368843
O O7 0.125416 0.922057 0.249190
O O8 0.396712 0.009746 0.519511
O O9 0.482268 0.791120 0.296115
O O10 0.418694 0.076477 0.870534
O O11 0.035828 0.673123 0.543759
O O12 0.649246 0.603939 0.976413
O O13 0.013903 0.912710 0.111540
O O14 0.345852 0.662136 0.986927
O O15 0.307145 0.306913 0.452328
O O16 0.467957 0.468540 0.746417
#
# Coordination Sequence:
#
# PCOD9000684 Si02
#       8
#     1   1   1   1   1   1   1   1
#     4  10  18  38  67  88 116 168 210 240 298 376
#     4  11  21  40  63  94 125 159 205 257 299 364
#     4   9  20  40  59  89 128 157 202 257 298 364
#     4   9  20  40  59  89 128 157 202 257 298 364
#     4   9  18  40  66  83 122 168 202 245 296 370
#     4  11  21  40  63  94 125 159 205 257 299 364
#     4  10  18  38  67  88 116 168 210 240 298 376
#     4  11  24  40  60  93 130 156 198 265 318 338
#
# _framework density 19.844825
#
# number of rings (size 3 to 8) (size 9 to 14) (size 15 to 20)
#    0.000    2.000    6.250    0.000    0.000    2.000 
#   11.250   15.000    0.000    0.000    0.000    0.000 
#    0.000    0.000    0.000    0.000    0.000    0.000 
#
# Total GULP energy -44574.359853 kJ/mol
# GULP energy per Si atom -5571.794982 kJ/mol
# Density = 1.979966 g / cm^3
# Si number density = 19.844825 Si / 1000 Ang^3
#
#
#
# Elastic Constant Matrix: (Units=GPa)
#
#
# Indices 1 2 3 4 5 6 
#
# 1 78.7871 41.5140 46.5470 -14.1109 11.8895 24.3718
# 2 41.5140 155.7324 39.2846 -17.4171 2.4159 34.4953
# 3 46.5470 39.2846 96.7312 -15.2760 20.2434 12.3671
# 4 -14.1109 -17.4171 -15.2760 19.5799 5.0339 -7.5350
# 5 11.8895 2.4159 20.2434 5.0339 28.4395 -8.1887
# 6 24.3718 34.4953 12.3671 -7.5350 -8.1887 28.3146
#
#
#
# Elastic Compliance Matrix: (Units=1/GPa)
#
#
# Indices 1 2 3 4 5 6 
#
# 1 0.027324 0.000921 -0.005043 0.011601 -0.016949 -0.024253
# 2 0.000921 0.009827 -0.000989 0.005143 -0.004999 -0.012409
# 3 -0.005043 -0.000989 0.018473 0.012234 -0.014084 -0.003341
# 4 0.011601 0.005143 0.012234 0.077649 -0.030551 -0.009766
# 5 -0.016949 -0.004999 -0.014084 -0.030551 0.069257 0.038730
# 6 -0.024253 -0.012409 -0.003341 -0.009766 0.038730 0.081372
#
#
# Mechanical properties :
#
#
# Convention : Reuss Voigt Hill
#
# Bulk Modulus (GPa) = 22.02557 65.10465 43.56511
# Shear Modulus (GPa) = 16.16777 28.86048 22.51413
#
# Velocity S-wave (km/s) = 2.85741 3.81768 3.37190
# Velocity P-wave (km/s) = 4.69141 7.23263 6.09591
#
# Compressibility (1/GPa) = 0.04540178
#
# Stress axis : x y z
#
# Youngs Moduli (GPa) = 36.59762 101.76238 54.13436
#
# Poissons Ratio (x) = -0.09368 0.27297
# Poissons Ratio (y) = -0.03369 0.05354
# Poissons Ratio (z) = 0.18454 0.10064
#
# Static dielectric constant tensor:
#      x y z
#    x 1.742150 0.014420 -0.021890 
#    y 0.014420 1.732290 -0.008140 
#    z -0.021890 -0.008140 1.723020 
# 
# From -- ./inp_files/3914.got.cif
#   From: 2010.05.17/outbox.cif.g08.bks.cpg/sg1_2_cif.got.tgz:3914.got - 2010.05.17 20:27:59.
