data_PCOD9000762
_publ_section_title
;
Structure prediction by ZEFSAII (Michael W. Deem and Ramdas Pophale) SiO2 
 PCOD9000762
Probable space group: P 1
;
_chemical_formula_sum "Si O2"
_cell_formula_units_Z 6
_cell_length_a 8.962224
_cell_length_b 9.615568
_cell_length_c 14.628419
_cell_angle_alpha 153.043859
_cell_angle_beta 154.509307
_cell_angle_gamma 40.850624
_cell_volume 238.319763
_symmetry_space_group_name_H-M "P 1"
_symmetry_group_IT_number 1
_symmetry_cell_setting 'triclinic'
loop_
_space_group_symop_operation_xyz
x,y,z
loop_
_atom_site_type_symbol
_atom_site_label
_atom_site_fract_x
_atom_site_fract_y
_atom_site_fract_z
Si Si1 0.643210 0.667180 0.590470
Si Si2 0.190130 0.296682 0.277889
Si Si3 0.549903 0.564380 0.005403
Si Si4 0.310458 0.431592 0.091743
Si Si5 0.143517 0.102599 0.626605
Si Si6 0.504257 0.167591 0.564412
O O1 0.524598 0.493265 0.519361
O O2 0.562910 0.445416 0.327251
O O3 0.332153 0.873113 0.538899
O O4 0.996509 0.943914 0.930991
O O5 0.275437 0.255771 0.406475
O O6 0.873904 0.473791 0.188996
O O7 0.203404 0.426273 0.793146
O O8 0.489679 0.380145 0.769350
O O9 0.730961 0.929735 0.307285
O O10 0.387336 0.793456 0.306910
O O11 0.338313 0.200405 0.887983
O O12 0.911546 0.282988 0.821639
#
# Coordination Sequence:
#
# PCOD9000762 Si02
#       6
#     1   1   1   1   1   1
#     4  10  19  40  59  85 116 156 189 241 288 335
#     4  10  20  35  64  83 115 154 195 233 288 347
#     4  10  19  40  59  85 116 156 189 241 288 335
#     4  12  21  37  65  88 113 160 192 234 298 342
#     4  10  20  35  64  83 115 154 195 233 288 347
#     4  12  21  37  65  88 113 160 192 234 298 342
#
# _framework density 25.176259999999999
#
# number of rings (size 3 to 8) (size 9 to 14) (size 15 to 20)
#    0.000    1.333    6.667    2.000    0.000    0.000 
#    0.000    0.000   44.000    0.000    0.000    0.000 
#    0.000    0.000    0.000    0.000    0.000    0.000 
#
# Total GULP energy -33553.445662 kJ/mol
# GULP energy per Si atom -5592.240944 kJ/mol
# Density = 2.511896 g / cm^3
# Si number density = 25.176260 Si / 1000 Ang^3
#
#
#
# Elastic Constant Matrix: (Units=GPa)
#
#
# Indices 1 2 3 4 5 6 
#
# 1 105.7853 9.4976 63.2454 0.7049 20.4814 40.2695
# 2 9.4976 80.3475 10.7362 15.1210 4.2060 22.0823
# 3 63.2454 10.7362 157.0647 7.8196 11.8923 24.0811
# 4 0.7049 15.1210 7.8196 58.0250 22.3850 -3.1331
# 5 20.4814 4.2060 11.8923 22.3850 73.0360 1.0660
# 6 40.2695 22.0823 24.0811 -3.1331 1.0660 41.6940
#
#
#
# Elastic Compliance Matrix: (Units=1/GPa)
#
#
# Indices 1 2 3 4 5 6 
#
# 1 0.020054 0.003449 -0.005202 0.000457 -0.004852 -0.018033
# 2 0.003449 0.016339 -0.000393 -0.004829 -0.000187 -0.012115
# 3 -0.005202 -0.000393 0.008474 -0.001135 0.000446 0.000241
# 4 0.000457 -0.004829 -0.001135 0.021299 -0.006259 0.004532
# 5 -0.004852 -0.000187 0.000446 -0.006259 0.016856 0.003627
# 6 -0.018033 -0.012115 0.000241 0.004532 0.003627 0.047926
#
#
# Mechanical properties :
#
#
# Convention : Reuss Voigt Hill
#
# Bulk Modulus (GPa) = 24.64587 56.68400 40.66493
# Shear Modulus (GPa) = 33.60958 51.86556 42.73757
#
# Velocity S-wave (km/s) = 3.65769 4.54375 4.12458
# Velocity P-wave (km/s) = 5.25822 7.07752 6.23459
#
# Compressibility (1/GPa) = 0.04057475
#
# Stress axis : x y z
#
# Youngs Moduli (GPa) = 49.86426 61.20286 118.00803
#
# Poissons Ratio (x) = -0.21107 0.61383
# Poissons Ratio (y) = -0.17196 0.04643
# Poissons Ratio (z) = 0.25937 0.02408
#
# Static dielectric constant tensor:
#      x y z
#    x 1.983710 -0.043380 0.074550 
#    y -0.043380 2.086630 0.016960 
#    z 0.074550 0.016960 1.994940 
# 
# From -- ./inp_files/146.got.cif
#   From: 2010.05.17/outbox.cif.g08.bks.cpg/sg1_1_cif.got.tgz:146.got - 2010.05.17 20:27:59.
