data_PCOD9000629
_publ_section_title
;
Structure prediction by ZEFSAII (Michael W. Deem and Ramdas Pophale) SiO2 
 PCOD9000629
Probable space group: P 1
;
_chemical_formula_sum "Si O2"
_cell_formula_units_Z 6
_cell_length_a 8.379714
_cell_length_b 7.656129
_cell_length_c 5.305389
_cell_angle_alpha 84.375113
_cell_angle_beta 60.480919
_cell_angle_gamma 55.262805
_cell_volume 235.319926
_symmetry_space_group_name_H-M "P 1"
_symmetry_group_IT_number 1
_symmetry_cell_setting 'triclinic'
loop_
_space_group_symop_operation_xyz
x,y,z
loop_
_atom_site_type_symbol
_atom_site_label
_atom_site_fract_x
_atom_site_fract_y
_atom_site_fract_z
Si Si1 0.110150 0.457320 0.726370
Si Si2 0.543497 0.109093 0.741687
Si Si3 0.266568 0.047520 0.343502
Si Si4 0.534958 0.467118 0.917660
Si Si5 0.043555 0.822508 0.377979
Si Si6 0.656656 0.602472 0.313646
O O1 0.359564 0.303322 0.676681
O O2 0.128765 0.291156 0.527604
O O3 0.058980 0.672303 0.611130
O O4 0.908901 0.529083 0.067919
O O5 0.588675 0.230790 0.902937
O O6 0.790590 0.941674 0.448364
O O7 0.422041 0.017891 0.989367
O O8 0.453571 0.864576 0.423042
O O9 0.098129 0.987515 0.405223
O O10 0.650591 0.501564 0.591896
O O11 0.595882 0.515149 0.132134
O O12 0.261263 0.649945 0.062722
#
# Coordination Sequence:
#
# PCOD9000629 Si02
#       6
#     1   1   1   1   1   1
#     4  12  27  49  77 114 154 203 255 320 381 458
#     4  12  26  47  79 113 151 204 259 309 391 454
#     4  11  26  48  75 113 150 203 257 310 389 450
#     4  11  26  50  79 116 152 206 255 318 383 454
#     4  11  26  53  73 111 157 195 259 319 378 458
#     4  11  27  49  81 113 158 199 259 318 382 456
#
# _framework density 25.497207
#
# number of rings (size 3 to 8) (size 9 to 14) (size 15 to 20)
#    0.000    0.667    3.333    3.000    9.333    1.333 
#    6.000    0.000    0.000    0.000    0.000    0.000 
#    0.000    0.000    0.000    0.000    0.000    0.000 
#
# Total GULP energy -33663.021134 kJ/mol
# GULP energy per Si atom -5610.503522 kJ/mol
# Density = 2.543917 g / cm^3
# Si number density = 25.497207 Si / 1000 Ang^3
#
#
#
# Elastic Constant Matrix: (Units=GPa)
#
#
# Indices 1 2 3 4 5 6 
#
# 1 109.2695 49.9874 63.0458 6.7651 -27.3932 -5.0920
# 2 49.9874 72.3042 30.7206 -4.6475 -20.4965 -2.6447
# 3 63.0458 30.7206 157.7468 -3.4273 -34.8104 6.0038
# 4 6.7651 -4.6475 -3.4273 41.7896 -2.7339 -8.7231
# 5 -27.3932 -20.4965 -34.8104 -2.7339 58.4259 10.9210
# 6 -5.0920 -2.6447 6.0038 -8.7231 10.9210 57.7380
#
#
#
# Elastic Compliance Matrix: (Units=1/GPa)
#
#
# Indices 1 2 3 4 5 6 
#
# 1 0.016808 -0.009447 -0.004661 -0.003919 0.001482 0.000662
# 2 -0.009447 0.021441 0.000475 0.004198 0.003561 0.000060
# 3 -0.004661 0.000475 0.009044 0.001414 0.003778 -0.001831
# 4 -0.003919 0.004198 0.001414 0.025929 0.001052 0.003418
# 5 0.001482 0.003561 0.003778 0.001052 0.022131 -0.004126
# 6 0.000662 0.000060 -0.001831 0.003418 -0.004126 0.018868
#
#
# Mechanical properties :
#
#
# Convention : Reuss Voigt Hill
#
# Bulk Modulus (GPa) = 49.93494 69.64755 59.79125
# Shear Modulus (GPa) = 33.74663 44.62847 39.18755
#
# Velocity S-wave (km/s) = 3.64200 4.18823 3.92463
# Velocity P-wave (km/s) = 6.10840 7.12485 6.63611
#
# Compressibility (1/GPa) = 0.02002606
#
# Stress axis : x y z
#
# Youngs Moduli (GPa) = 59.49649 46.63862 110.57429
#
# Poissons Ratio (x) = 0.44060 0.51538
# Poissons Ratio (y) = 0.56207 -0.05249
# Poissons Ratio (z) = 0.27731 -0.02214
#
# Static dielectric constant tensor:
#      x y z
#    x 2.066010 0.048600 0.037480 
#    y 0.048600 2.016640 0.066300 
#    z 0.037480 0.066300 1.964760 
# 
# From -- ./inp_files/1056.got.cif
#   From: 2010.05.17/outbox.cif.g08.bks.cpg/sg1_1_cif.got.tgz:1056.got - 2010.05.17 20:27:59.
