data_PCOD9000137
_publ_section_title
;
Structure prediction by ZEFSAII (Michael W. Deem and Ramdas Pophale) SiO2 
 PCOD9000137
Probable space group: P 1
;
_chemical_formula_sum "Si O2"
_cell_formula_units_Z 8
_cell_length_a 14.213905
_cell_length_b 4.825540
_cell_length_c 5.937881
_cell_angle_alpha 97.478371
_cell_angle_beta 95.840863
_cell_angle_gamma 124.493984
_cell_volume 325.053768
_symmetry_space_group_name_H-M "P 1"
_symmetry_group_IT_number 1
_symmetry_cell_setting 'triclinic'
loop_
_space_group_symop_operation_xyz
x,y,z
loop_
_atom_site_type_symbol
_atom_site_label
_atom_site_fract_x
_atom_site_fract_y
_atom_site_fract_z
Si Si1 0.898360 0.358370 0.211700
Si Si2 0.056310 0.924016 0.929207
Si Si3 0.509128 0.803432 0.453669
Si Si4 0.234158 0.275443 0.376889
Si Si5 0.113194 0.575372 0.524210
Si Si6 0.686976 0.154858 0.901352
Si Si7 0.630093 0.503505 0.306349
Si Si8 0.844925 0.720514 0.618866
O O1 0.871643 0.539447 0.415279
O O2 0.986915 0.297397 0.346074
O O3 0.773211 0.081747 0.037614
O O4 0.975876 0.641132 0.070006
O O5 0.970075 0.997129 0.792950
O O6 0.092542 0.744218 0.745905
O O7 0.168553 0.229725 0.121218
O O8 0.371643 0.539436 0.415278
O O9 0.561837 0.671816 0.275303
O O10 0.574731 0.849149 0.709343
O O11 0.550887 0.179839 0.422376
O O12 0.181450 0.407060 0.555255
O O13 0.192400 0.899038 0.408184
O O14 0.767410 0.437738 0.760552
O O15 0.650746 0.334660 0.084656
O O16 0.756369 0.781485 0.484492
#
# Coordination Sequence:
#
# PCOD9000137 Si02
#       8
#     1   1   1   1   1   1   1   1
#     4   8  16  36  61  89 117 149 191 237 292 349
#     4   9  19  37  61  87 120 154 188 241 293 340
#     4  11  24  40  59  86 118 155 199 239 283 344
#     4  11  24  40  59  86 118 155 199 239 283 344
#     4  10  22  39  61  88 116 152 196 239 289 345
#     4   9  19  37  61  87 120 154 188 241 293 340
#     4  10  22  39  61  88 116 152 196 239 289 345
#     4   8  16  36  61  89 117 149 191 237 292 349
#
# _framework density 24.611312999999999
#
# number of rings (size 3 to 8) (size 9 to 14) (size 15 to 20)
#    0.000    2.500    0.000    0.750    0.000    7.000 
#    0.000   42.500    0.000    0.000    0.000    0.000 
#    0.000    0.000    0.000    0.000    0.000    0.000 
#
# Total GULP energy -44788.198244 kJ/mol
# GULP energy per Si atom -5598.524781 kJ/mol
# Density = 2.455530 g / cm^3
# Si number density = 24.611313 Si / 1000 Ang^3
#
#
#
# Elastic Constant Matrix: (Units=GPa)
#
#
# Indices 1 2 3 4 5 6 
#
# 1 153.1145 61.9547 44.8172 20.0688 1.5566 30.8241
# 2 61.9547 114.2880 34.3544 16.6693 8.7740 14.1009
# 3 44.8172 34.3544 123.3347 12.4674 -0.9799 28.2589
# 4 20.0688 16.6693 12.4674 30.8878 7.1599 11.3241
# 5 1.5566 8.7740 -0.9799 7.1599 32.4462 11.8247
# 6 30.8241 14.1009 28.2589 11.3241 11.8247 56.2557
#
#
#
# Elastic Compliance Matrix: (Units=1/GPa)
#
#
# Indices 1 2 3 4 5 6 
#
# 1 0.009656 -0.004218 -0.001205 -0.002784 0.002570 -0.003608
# 2 -0.004218 0.012075 -0.001899 -0.002839 -0.003020 0.001445
# 3 -0.001205 -0.001899 0.010221 -0.001380 0.002751 -0.004299
# 4 -0.002784 -0.002839 -0.001380 0.039083 -0.006460 -0.003579
# 5 0.002570 -0.003020 0.002751 -0.006460 0.036051 -0.008310
# 6 -0.003608 0.001445 -0.004299 -0.003579 -0.008310 0.024017
#
#
# Mechanical properties :
#
#
# Convention : Reuss Voigt Hill
#
# Bulk Modulus (GPa) = 57.77849 74.77661 66.27755
# Shear Modulus (GPa) = 32.99985 40.55868 36.77926
#
# Velocity S-wave (km/s) = 3.66572 4.06392 3.86995
# Velocity P-wave (km/s) = 6.43771 7.24359 6.85251
#
# Compressibility (1/GPa) = 0.01730748
#
# Stress axis : x y z
#
# Youngs Moduli (GPa) = 103.56618 82.81665 97.83718
#
# Poissons Ratio (x) = 0.34933 0.11792
# Poissons Ratio (y) = 0.43686 0.18576
# Poissons Ratio (z) = 0.12483 0.15724
#
# Static dielectric constant tensor:
#      x y z
#    x 1.934460 -0.017500 0.033980 
#    y -0.017500 1.934430 -0.044450 
#    z 0.033980 -0.044450 2.023230 
# 
# From -- ./inp_files/2626.got.cif
#   From: 2010.05.17/outbox.cif.g08.bks.cpg/sg1_2_cif.got.tgz:2626.got - 2010.05.17 20:27:59.
