data_PCOD9000873
_publ_section_title
;
Structure prediction by ZEFSAII (Michael W. Deem and Ramdas Pophale) SiO2 
 PCOD9000873
Probable space group: P 1
;
_chemical_formula_sum "Si O2"
_cell_formula_units_Z 8
_cell_length_a 16.708693
_cell_length_b 5.413528
_cell_length_c 4.983836
_cell_angle_alpha 90.679034
_cell_angle_beta 138.586645
_cell_angle_gamma 90.801903
_cell_volume 298.000617
_symmetry_space_group_name_H-M "P 1"
_symmetry_group_IT_number 1
_symmetry_cell_setting 'triclinic'
loop_
_space_group_symop_operation_xyz
x,y,z
loop_
_atom_site_type_symbol
_atom_site_label
_atom_site_fract_x
_atom_site_fract_y
_atom_site_fract_z
Si Si1 0.185160 0.095310 0.349190
Si Si2 0.819636 0.609454 0.690438
Si Si3 0.601755 0.088551 0.775157
Si Si4 0.146877 0.467007 0.646458
Si Si5 0.536384 0.586877 0.849491
Si Si6 0.774256 0.103930 0.712207
Si Si7 0.011308 0.704383 0.793980
Si Si8 0.324128 0.599245 0.716682
O O1 0.156036 0.179412 0.584064
O O2 0.256022 0.344092 0.429131
O O3 0.272075 0.867448 0.524090
O O4 0.057111 0.991202 0.910083
O O5 0.850993 0.357528 0.910985
O O6 0.874114 0.642049 0.531066
O O7 0.851812 0.861589 0.931842
O O8 0.674561 0.596607 0.306485
O O9 0.527416 0.330945 0.657417
O O10 0.663444 0.099154 0.640823
O O11 0.529048 0.833583 0.653130
O O12 0.714873 0.095381 0.266804
O O13 0.285037 0.569747 0.933541
O O14 0.075034 0.564067 0.715560
O O15 0.074292 0.592759 0.219586
O O16 0.452301 0.592301 0.897809
#
# Coordination Sequence:
#
# PCOD9000873 Si02
#       8
#     1   1   1   1   1   1   1   1
#     4   9  21  42  66 100 129 182 224 286 330 399
#     4  10  24  40  66  99 136 176 217 278 333 412
#     4  10  21  38  63  86 132 168 215 261 316 397
#     4   9  24  42  70  97 134 181 225 286 331 400
#     4  10  20  40  67 101 134 175 221 271 340 403
#     4  10  22  41  58  90 128 174 213 258 323 389
#     4  11  23  45  68 103 134 181 228 280 343 400
#     4   9  19  42  68  98 135 177 225 282 338 400
#
# _framework density 26.845576999999999
#
# number of rings (size 3 to 8) (size 9 to 14) (size 15 to 20)
#    0.750    1.500    0.000    1.500    1.750    6.000 
#    0.000   12.500    0.000    0.000    0.000    0.000 
#    0.000    0.000    0.000    0.000    0.000    0.000 
#
# Total GULP energy -44691.907371 kJ/mol
# GULP energy per Si atom -5586.488421 kJ/mol
# Density = 2.678448 g / cm^3
# Si number density = 26.845577 Si / 1000 Ang^3
#
#
#
# Elastic Constant Matrix: (Units=GPa)
#
#
# Indices 1 2 3 4 5 6 
#
# 1 258.6871 81.6478 51.7777 25.5481 17.3355 -7.9804
# 2 81.6478 245.1301 19.8272 34.8328 6.7794 -7.9335
# 3 51.7777 19.8272 49.4086 16.2914 4.9587 1.5051
# 4 25.5481 34.8328 16.2914 32.1745 5.9844 -0.7079
# 5 17.3355 6.7794 4.9587 5.9844 41.5364 4.7968
# 6 -7.9804 -7.9335 1.5051 -0.7079 4.7968 48.7739
#
#
#
# Elastic Compliance Matrix: (Units=1/GPa)
#
#
# Indices 1 2 3 4 5 6 
#
# 1 0.005425 -0.001323 -0.005020 -0.000022 -0.001559 0.000980
# 2 -0.001323 0.005172 0.000938 -0.005063 0.000268 0.000496
# 3 -0.005020 0.000938 0.029046 -0.011847 0.000387 -0.001775
# 4 -0.000022 -0.005063 -0.011847 0.043346 -0.004061 0.000567
# 5 -0.001559 0.000268 0.000387 -0.004061 0.025544 -0.002795
# 6 0.000980 0.000496 -0.001775 0.000567 -0.002795 0.021082
#
#
# Mechanical properties :
#
#
# Convention : Reuss Voigt Hill
#
# Bulk Modulus (GPa) = 34.68267 95.52569 65.10418
# Shear Modulus (GPa) = 33.32537 51.16182 42.24359
#
# Velocity S-wave (km/s) = 3.52713 4.37026 3.97114
# Velocity P-wave (km/s) = 5.43461 7.81833 6.73280
#
# Compressibility (1/GPa) = 0.02883284
#
# Stress axis : x y z
#
# Youngs Moduli (GPa) = 184.33340 193.33606 34.42845
#
# Poissons Ratio (x) = 0.25577 0.17284
# Poissons Ratio (y) = 0.24386 -0.03230
# Poissons Ratio (z) = 0.92543 -0.18139
#
# Static dielectric constant tensor:
#      x y z
#    x 2.111290 0.009540 -0.023210 
#    y 0.009540 2.185560 -0.008980 
#    z -0.023210 -0.008980 2.313090 
# 
# From -- ./inp_files/2636.got.cif
#   From: 2010.05.17/outbox.cif.g08.bks.cpg/sg1_2_cif.got.tgz:2636.got - 2010.05.17 20:27:59.
