data_PCOD9000158
_publ_section_title
;
Structure prediction by ZEFSAII (Michael W. Deem and Ramdas Pophale) SiO2 
 PCOD9000158
Probable space group: P 1
;
_chemical_formula_sum "Si O2"
_cell_formula_units_Z 8
_cell_length_a 5.050750
_cell_length_b 12.109658
_cell_length_c 4.790991
_cell_angle_alpha 90.314701
_cell_angle_beta 89.849046
_cell_angle_gamma 74.097528
_cell_volume 281.809393
_symmetry_space_group_name_H-M "P 1"
_symmetry_group_IT_number 1
_symmetry_cell_setting 'triclinic'
loop_
_space_group_symop_operation_xyz
x,y,z
loop_
_atom_site_type_symbol
_atom_site_label
_atom_site_fract_x
_atom_site_fract_y
_atom_site_fract_z
Si Si1 0.337190 0.001750 0.606850
Si Si2 0.092359 0.605640 0.508129
Si Si3 0.814693 0.843288 0.426568
Si Si4 0.962503 0.380667 0.449685
Si Si5 0.430420 0.173609 0.194857
Si Si6 0.622791 0.577418 0.172870
Si Si7 0.327736 0.810117 0.021049
Si Si8 0.795785 0.184278 0.689146
O O1 0.326079 0.066696 0.305938
O O2 0.089960 0.097938 0.755340
O O3 0.673828 0.953522 0.617277
O O4 0.288734 0.886389 0.745829
O O5 0.927987 0.730603 0.618796
O O6 0.055338 0.484025 0.608950
O O7 0.909635 0.608903 0.222884
O O8 0.400044 0.599314 0.425580
O O9 0.562293 0.833450 0.227335
O O10 0.056304 0.846232 0.213731
O O11 0.739990 0.441087 0.213936
O O12 0.836236 0.310712 0.668615
O O13 0.211223 0.290186 0.294338
O O14 0.702024 0.164869 0.377952
O O15 0.545066 0.176341 0.885845
O O16 0.442078 0.672103 0.966737
#
# Coordination Sequence:
#
# PCOD9000158 Si02
#       8
#     1   1   1   1   1   1   1   1
#     4  11  26  38  68 100 138 191 230 298 346 433
#     4   8  16  35  64  97 136 177 225 284 349 423
#     4  10  22  40  65  98 141 178 229 284 352 424
#     4   9  20  40  70 100 136 185 230 300 348 431
#     4  11  26  46  70 102 140 189 243 298 354 418
#     4   8  16  35  64  97 136 177 225 284 349 423
#     4  10  22  40  65  98 141 178 229 284 352 424
#     4  11  26  46  70 102 140 189 243 298 354 418
#
# _framework density 28.387981
#
# number of rings (size 3 to 8) (size 9 to 14) (size 15 to 20)
#    0.750    1.500    0.000    1.500    7.000    3.000 
#    0.000    7.500    0.000    0.000    0.000    0.000 
#    0.000    0.000    0.000    0.000    0.000    0.000 
#
# Total GULP energy -44593.234194 kJ/mol
# GULP energy per Si atom -5574.154274 kJ/mol
# Density = 2.832337 g / cm^3
# Si number density = 28.387981 Si / 1000 Ang^3
#
#
#
# Elastic Constant Matrix: (Units=GPa)
#
#
# Indices 1 2 3 4 5 6 
#
# 1 134.1605 39.2787 65.2075 5.5921 -32.4972 -24.0515
# 2 39.2787 254.1072 60.0743 -33.1163 -22.5781 -33.7124
# 3 65.2075 60.0743 117.1262 -16.6829 -21.8424 -8.8579
# 4 5.5921 -33.1163 -16.6829 47.5911 5.0768 -9.7384
# 5 -32.4972 -22.5781 -21.8424 5.0768 47.7153 3.6242
# 6 -24.0515 -33.7124 -8.8579 -9.7384 3.6242 49.5839
#
#
#
# Elastic Compliance Matrix: (Units=1/GPa)
#
#
# Indices 1 2 3 4 5 6 
#
# 1 0.012757 0.000125 -0.006235 -0.003402 0.005947 0.004057
# 2 0.000125 0.005508 -0.001811 0.003915 0.001129 0.004169
# 3 -0.006235 -0.001811 0.013554 0.003912 0.000770 -0.001123
# 4 -0.003402 0.003915 0.003912 0.027209 -0.002116 0.007209
# 5 0.005947 0.001129 0.000770 -0.002116 0.026008 0.001474
# 6 0.004057 0.004169 -0.001123 0.007209 0.001474 0.026078
#
#
# Mechanical properties :
#
#
# Convention : Reuss Voigt Hill
#
# Bulk Modulus (GPa) = 62.59046 92.72387 77.65717
# Shear Modulus (GPa) = 37.79806 51.70026 44.74916
#
# Velocity S-wave (km/s) = 3.65291 4.27218 3.97462
# Velocity P-wave (km/s) = 6.31567 7.55443 6.96265
#
# Compressibility (1/GPa) = 0.01597687
#
# Stress axis : x y z
#
# Youngs Moduli (GPa) = 78.38607 181.55987 73.77865
#
# Poissons Ratio (x) = -0.02278 0.46004
# Poissons Ratio (y) = -0.00983 0.13363
# Poissons Ratio (z) = 0.48877 0.32885
#
# Static dielectric constant tensor:
#      x y z
#    x 2.294220 0.194660 0.084700 
#    y 0.194660 2.387250 0.041110 
#    z 0.084700 0.041110 2.169460 
# 
# From -- ./inp_files/559.got.cif
#   From: 2010.05.17/outbox.cif.g08.bks.cpg/sg1_1_cif.got.tgz:559.got - 2010.05.17 20:27:59.
