data_PCOD9000624
_publ_section_title
;
Structure prediction by ZEFSAII (Michael W. Deem and Ramdas Pophale) SiO2 
 PCOD9000624
Probable space group: P 1
;
_chemical_formula_sum "Si O2"
_cell_formula_units_Z 8
_cell_length_a 14.890739
_cell_length_b 5.491846
_cell_length_c 5.086094
_cell_angle_alpha 83.858507
_cell_angle_beta 57.278870
_cell_angle_gamma 106.177683
_cell_volume 318.533825
_symmetry_space_group_name_H-M "P 1"
_symmetry_group_IT_number 1
_symmetry_cell_setting 'triclinic'
loop_
_space_group_symop_operation_xyz
x,y,z
loop_
_atom_site_type_symbol
_atom_site_label
_atom_site_fract_x
_atom_site_fract_y
_atom_site_fract_z
Si Si1 0.613740 0.161550 0.410440
Si Si2 0.864698 0.192927 0.952592
Si Si3 0.584903 0.600852 0.765061
Si Si4 0.828192 0.838370 0.562149
Si Si5 0.183673 0.667456 0.659980
Si Si6 0.014349 0.675359 0.357922
Si Si7 0.401004 0.131065 0.395072
Si Si8 0.167892 0.134832 0.767534
O O1 0.627348 0.427373 0.518466
O O2 0.506895 0.119339 0.391650
O O3 0.578818 0.875990 0.648585
O O4 0.740805 0.210803 0.095755
O O5 0.967308 0.481278 0.703093
O O6 0.871109 0.979927 0.756270
O O7 0.860112 0.063794 0.259282
O O8 0.688080 0.692913 0.806171
O O9 0.462150 0.377236 0.074278
O O10 0.890189 0.637092 0.424607
O O11 0.162144 0.386843 0.611764
O O12 0.323098 0.834953 0.444352
O O13 0.149846 0.909147 0.597758
O O14 0.109343 0.597596 0.059715
O O15 0.077563 0.993042 0.156856
O O16 0.295368 0.191657 0.680754
#
# Coordination Sequence:
#
# PCOD9000624 Si02
#       8
#     1   1   1   1   1   1   1   1
#     4  11  27  41  65 103 134 183 232 276 345 412
#     4  11  26  43  70 102 145 182 232 281 347 412
#     4  11  27  41  65 103 134 183 232 276 345 412
#     4  11  26  43  70 102 145 182 232 281 347 412
#     4   8  19  37  66  99 124 176 227 282 339 408
#     4   9  21  40  72  92 143 173 234 280 352 401
#     4   9  23  40  74  84 147 169 226 286 342 399
#     4   8  19  37  66  99 124 176 227 282 339 408
#
# _framework density 25.115072999999999
#
# number of rings (size 3 to 8) (size 9 to 14) (size 15 to 20)
#    1.500    0.500    0.000    1.500   17.500    0.000 
#    0.000    5.000   22.000    0.000    0.000    0.000 
#    0.000    0.000    0.000    0.000    0.000    0.000 
#
# Total GULP energy -44543.117575 kJ/mol
# GULP energy per Si atom -5567.889697 kJ/mol
# Density = 2.505791 g / cm^3
# Si number density = 25.115073 Si / 1000 Ang^3
#
#
#
# Elastic Constant Matrix: (Units=GPa)
#
#
# Indices 1 2 3 4 5 6 
#
# 1 94.9992 32.5097 37.1678 -21.0718 -15.2615 -21.3788
# 2 32.5097 156.6808 7.6381 -20.6488 7.7047 -6.2388
# 3 37.1678 7.6381 96.4788 -21.8906 -30.3992 1.0617
# 4 -21.0718 -20.6488 -21.8906 30.7418 2.4763 2.0115
# 5 -15.2615 7.7047 -30.3992 2.4763 30.6871 -6.5760
# 6 -21.3788 -6.2388 1.0617 2.0115 -6.5760 28.5515
#
#
#
# Elastic Compliance Matrix: (Units=1/GPa)
#
#
# Indices 1 2 3 4 5 6 
#
# 1 0.019486 -0.002787 -0.002172 0.008000 0.011030 0.016039
# 2 -0.002787 0.007562 0.000132 0.003671 -0.003786 -0.001570
# 3 -0.002172 0.000132 0.018956 0.010674 0.016988 0.000858
# 4 0.008000 0.003671 0.010674 0.046818 0.011062 0.005645
# 5 0.011030 -0.003786 0.016988 0.011062 0.059170 0.019649
# 6 0.016039 -0.001570 0.000858 0.005645 0.019649 0.050787
#
#
# Mechanical properties :
#
#
# Convention : Reuss Voigt Hill
#
# Bulk Modulus (GPa) = 27.50988 55.86556 41.68772
# Shear Modulus (GPa) = 22.26687 36.05229 29.15958
#
# Velocity S-wave (km/s) = 2.98080 3.79289 3.41110
# Velocity P-wave (km/s) = 4.77747 6.43999 5.67000
#
# Compressibility (1/GPa) = 0.03635058
#
# Stress axis : x y z
#
# Youngs Moduli (GPa) = 51.31922 132.24735 52.75314
#
# Poissons Ratio (x) = 0.36853 0.11458
# Poissons Ratio (y) = 0.14301 -0.00697
# Poissons Ratio (z) = 0.11146 -0.01746
#
# Static dielectric constant tensor:
#      x y z
#    x 2.031600 0.033970 0.019910 
#    y 0.033970 2.024160 0.024360 
#    z 0.019910 0.024360 2.000870 
# 
# From -- ./inp_files/2608.got.cif
#   From: 2010.05.17/outbox.cif.g08.bks.cpg/sg1_2_cif.got.tgz:2608.got - 2010.05.17 20:27:59.
