data_PCOD9000678
_publ_section_title
;
Structure prediction by ZEFSAII (Michael W. Deem and Ramdas Pophale) SiO2 
 PCOD9000678
Probable space group: P 1
;
_chemical_formula_sum "Si O2"
_cell_formula_units_Z 8
_cell_length_a 5.263279
_cell_length_b 5.356447
_cell_length_c 14.379832
_cell_angle_alpha 64.402154
_cell_angle_beta 115.931245
_cell_angle_gamma 90.493333
_cell_volume 320.572584
_symmetry_space_group_name_H-M "P 1"
_symmetry_group_IT_number 1
_symmetry_cell_setting 'triclinic'
loop_
_space_group_symop_operation_xyz
x,y,z
loop_
_atom_site_type_symbol
_atom_site_label
_atom_site_fract_x
_atom_site_fract_y
_atom_site_fract_z
Si Si1 0.902900 0.250000 0.206550
Si Si2 0.070313 0.511994 0.804524
Si Si3 0.919839 0.451441 0.978536
Si Si4 0.767253 0.924920 0.530453
Si Si5 0.453387 0.898140 0.150070
Si Si6 0.138491 0.289486 0.432005
Si Si7 0.417045 0.759713 0.354487
Si Si8 0.289859 0.856587 0.936230
O O1 0.709173 0.018977 0.215650
O O2 0.932237 0.363465 0.295916
O O3 0.797598 0.398626 0.067424
O O4 0.230992 0.079673 0.269493
O O5 0.828155 0.486160 0.849735
O O6 0.222702 0.191638 0.851789
O O7 0.929378 0.702466 0.666974
O O8 0.285721 0.678400 0.868329
O O9 0.028997 0.743039 0.963262
O O10 0.184720 0.172664 0.055199
O O11 0.445052 0.069786 0.493253
O O12 0.956161 0.154296 0.498687
O O13 0.712787 0.767733 0.451812
O O14 0.402459 0.677373 0.256361
O O15 0.511988 0.805832 0.067353
O O16 0.253779 0.572398 0.422112
#
# Coordination Sequence:
#
# PCOD9000678 Si02
#       8
#     1   1   1   1   1   1   1   1
#     4  10  20  38  61 100 135 170 233 285 352 417
#     4   9  21  42  67  93 136 180 232 291 346 421
#     4   8  19  37  59  93 129 175 217 284 340 412
#     4  11  25  46  66 101 139 181 241 287 354 419
#     4  10  18  36  64  97 137 173 227 287 352 418
#     4  11  25  42  70 100 136 184 234 290 356 419
#     4  10  23  39  66  98 135 182 226 291 352 421
#     4   9  19  40  67  92 131 179 228 289 350 417
#
# _framework density 24.955345999999999
#
# number of rings (size 3 to 8) (size 9 to 14) (size 15 to 20)
#    0.750    1.500    1.250    0.750    3.500    1.000 
#    4.500    0.000    2.750    0.000    0.000    0.000 
#    0.000    0.000    0.000    0.000    0.000    0.000 
#
# Total GULP energy -44553.820696 kJ/mol
# GULP energy per Si atom -5569.227587 kJ/mol
# Density = 2.489855 g / cm^3
# Si number density = 24.955346 Si / 1000 Ang^3
#
#
#
# Elastic Constant Matrix: (Units=GPa)
#
#
# Indices 1 2 3 4 5 6 
#
# 1 68.6502 24.5050 37.9001 -7.3508 -12.5314 -6.8942
# 2 24.5050 116.3101 31.2044 1.7140 -7.4325 8.9758
# 3 37.9001 31.2044 213.9238 -10.6033 -12.5784 9.2333
# 4 -7.3508 1.7140 -10.6033 24.8394 8.7284 -5.7227
# 5 -12.5314 -7.4325 -12.5784 8.7284 29.9211 -0.8135
# 6 -6.8942 8.9758 9.2333 -5.7227 -0.8135 40.8536
#
#
#
# Elastic Compliance Matrix: (Units=1/GPa)
#
#
# Indices 1 2 3 4 5 6 
#
# 1 0.019143 -0.003488 -0.002608 0.004269 0.004953 0.005283
# 2 -0.003488 0.009920 -0.000770 -0.003289 0.001557 -0.003024
# 3 -0.002608 -0.000770 0.005396 0.001053 0.000642 -0.001330
# 4 0.004269 -0.003289 0.001053 0.048367 -0.012485 0.007732
# 5 0.004953 0.001557 0.000642 -0.012485 0.039778 -0.000608
# 6 0.005283 -0.003024 -0.001330 0.007732 -0.000608 0.027405
#
#
# Mechanical properties :
#
#
# Convention : Reuss Voigt Hill
#
# Bulk Modulus (GPa) = 48.24304 65.12258 56.68281
# Shear Modulus (GPa) = 29.29965 39.47445 34.38705
#
# Velocity S-wave (km/s) = 3.43021 3.98150 3.71609
# Velocity P-wave (km/s) = 5.92133 6.87668 6.41681
#
# Compressibility (1/GPa) = 0.02072838
#
# Stress axis : x y z
#
# Youngs Moduli (GPa) = 52.23828 100.80197 185.31301
#
# Poissons Ratio (x) = 0.35156 0.48329
# Poissons Ratio (y) = 0.18219 0.14272
# Poissons Ratio (z) = 0.13624 0.07763
#
# Static dielectric constant tensor:
#      x y z
#    x 2.142380 -0.084680 -0.021340 
#    y -0.084680 2.082800 0.004340 
#    z -0.021340 0.004340 1.926660 
# 
# From -- ./inp_files/535.got.cif
#   From: 2010.05.17/outbox.cif.g08.bks.cpg/sg1_1_cif.got.tgz:535.got - 2010.05.17 20:27:59.
