data_PCOD9000864
_publ_section_title
;
Structure prediction by ZEFSAII (Michael W. Deem and Ramdas Pophale) SiO2 
 PCOD9000864
Probable space group: P 1
;
_chemical_formula_sum "Si O2"
_cell_formula_units_Z 8
_cell_length_a 9.046764
_cell_length_b 7.608258
_cell_length_c 11.963357
_cell_angle_alpha 127.554705
_cell_angle_beta 147.861942
_cell_angle_gamma 64.430559
_cell_volume 340.218820
_symmetry_space_group_name_H-M "P 1"
_symmetry_group_IT_number 1
_symmetry_cell_setting 'triclinic'
loop_
_space_group_symop_operation_xyz
x,y,z
loop_
_atom_site_type_symbol
_atom_site_label
_atom_site_fract_x
_atom_site_fract_y
_atom_site_fract_z
Si Si1 0.864590 0.848890 0.829610
Si Si2 0.375140 0.498237 0.732041
Si Si3 0.103905 0.567474 0.371206
Si Si4 0.494138 0.426813 0.007653
Si Si5 0.860232 0.463198 0.863625
Si Si6 0.311548 0.039176 0.605792
Si Si7 0.443767 0.206811 0.344964
Si Si8 0.521038 0.495239 0.310575
O O1 0.860146 0.665115 0.853687
O O2 0.622776 0.991897 0.758270
O O3 0.733819 0.707771 0.582244
O O4 0.183743 0.994899 0.087277
O O5 0.229471 0.630188 0.600214
O O6 0.677788 0.496758 0.867954
O O7 0.237165 0.226488 0.545224
O O8 0.370501 0.569743 0.886794
O O9 0.117101 0.795607 0.399096
O O10 0.294195 0.406934 0.376030
O O11 0.797169 0.430028 0.148627
O O12 0.537278 0.496033 0.188297
O O13 0.319851 0.173912 0.780420
O O14 0.703280 0.231843 0.609734
O O15 0.184980 0.478102 0.107583
O O16 0.573012 0.281981 0.334901
#
# Coordination Sequence:
#
# PCOD9000864 Si02
#       8
#     1   1   1   1   1   1   1   1
#     4  11  21  39  68  97 124 167 215 269 315 369
#     4   9  21  38  62  96 122 161 213 265 311 370
#     4  11  19  42  64  90 128 163 215 270 306 371
#     4  10  24  40  59  93 133 165 207 265 319 379
#     4  10  21  39  65  97 124 166 218 262 315 377
#     4  10  20  40  62  94 122 162 215 258 312 371
#     4  10  21  40  64  94 125 163 218 267 309 371
#     4  11  23  40  62  93 138 167 203 266 323 382
#
# _framework density 23.514278999999998
#
# number of rings (size 3 to 8) (size 9 to 14) (size 15 to 20)
#    0.750    1.000    5.000    1.500    0.000    6.000 
#    2.250    0.000    0.000    0.000    0.000    0.000 
#    0.000    0.000    0.000    0.000    0.000    0.000 
#
# Total GULP energy -44583.090090 kJ/mol
# GULP energy per Si atom -5572.886261 kJ/mol
# Density = 2.346076 g / cm^3
# Si number density = 23.514279 Si / 1000 Ang^3
#
#
#
# Elastic Constant Matrix: (Units=GPa)
#
#
# Indices 1 2 3 4 5 6 
#
# 1 82.4611 22.6308 54.3397 4.9063 -34.4995 32.1439
# 2 22.6308 46.6014 27.2631 9.5632 -5.3838 26.1722
# 3 54.3397 27.2631 159.3168 20.2411 -15.5617 20.0545
# 4 4.9063 9.5632 20.2411 36.1227 9.9386 3.8080
# 5 -34.4995 -5.3838 -15.5617 9.9386 44.0827 -12.9624
# 6 32.1439 26.1722 20.0545 3.8080 -12.9624 28.9891
#
#
#
# Elastic Compliance Matrix: (Units=1/GPa)
#
#
# Indices 1 2 3 4 5 6 
#
# 1 0.034619 0.008896 -0.006920 -0.004277 0.016839 -0.033539
# 2 0.008896 0.050056 -0.004549 -0.005664 -0.002646 -0.052348
# 3 -0.006920 -0.004549 0.009102 -0.003500 -0.000255 0.005830
# 4 -0.004277 -0.005664 -0.003500 0.034958 -0.012545 0.002076
# 5 0.016839 -0.002646 -0.000255 -0.012545 0.039178 0.003061
# 6 -0.033539 -0.052348 0.005830 0.002076 0.003061 0.116009
#
#
# Mechanical properties :
#
#
# Convention : Reuss Voigt Hill
#
# Bulk Modulus (GPa) = 11.28292 55.20516 33.24404
# Shear Modulus (GPa) = 15.69306 34.11530 24.90418
#
# Velocity S-wave (km/s) = 2.58618 3.81311 3.25793
# Velocity P-wave (km/s) = 3.70493 6.55093 5.32171
#
# Compressibility (1/GPa) = 0.08862952
#
# Stress axis : x y z
#
# Youngs Moduli (GPa) = 28.88595 19.97749 109.87154
#
# Poissons Ratio (x) = -0.17772 0.76032
# Poissons Ratio (y) = -0.25697 0.49986
# Poissons Ratio (z) = 0.19989 0.09089
#
# Static dielectric constant tensor:
#      x y z
#    x 1.914310 -0.013880 -0.005160 
#    y -0.013880 1.915030 -0.078140 
#    z -0.005160 -0.078140 2.004680 
# 
# From -- ./inp_files/6384.got.cif
#   From: 2010.05.17/outbox.cif.g08.bks.cpg/sg1_4_cif.got.tgz:6384.got - 2010.05.17 20:27:59.
