data_PCOD9000347
_publ_section_title
;
Structure prediction by ZEFSAII (Michael W. Deem and Ramdas Pophale) SiO2 
 PCOD9000347
Probable space group: P 1
;
_chemical_formula_sum "Si O2"
_cell_formula_units_Z 8
_cell_length_a 6.652375
_cell_length_b 7.765345
_cell_length_c 10.957165
_cell_angle_alpha 137.633514
_cell_angle_beta 84.695187
_cell_angle_gamma 76.475243
_cell_volume 339.100412
_symmetry_space_group_name_H-M "P 1"
_symmetry_group_IT_number 1
_symmetry_cell_setting 'triclinic'
loop_
_space_group_symop_operation_xyz
x,y,z
loop_
_atom_site_type_symbol
_atom_site_label
_atom_site_fract_x
_atom_site_fract_y
_atom_site_fract_z
Si Si1 0.622710 0.961090 0.245070
Si Si2 0.091226 0.624152 0.173281
Si Si3 0.369601 0.690312 0.983725
Si Si4 0.268261 0.293696 0.620199
Si Si5 0.906420 0.762892 0.710707
Si Si6 0.151551 0.912718 0.557390
Si Si7 0.095128 0.061283 0.990160
Si Si8 0.511168 0.622629 0.568663
O O1 0.871816 0.777404 0.182581
O O2 0.446025 0.015913 0.394626
O O3 0.578292 0.286463 0.391094
O O4 0.556953 0.795484 0.057533
O O5 0.092311 0.826140 0.387033
O O6 0.997406 0.857750 0.635640
O O7 0.300013 0.578186 0.050426
O O8 0.408335 0.442162 0.754187
O O9 0.164188 0.968898 0.077550
O O10 0.134245 0.224358 0.698404
O O11 0.085697 0.354755 0.099930
O O12 0.709958 0.692074 0.638894
O O13 0.089242 0.486750 0.629289
O O14 0.877802 0.015075 0.940046
O O15 0.406456 0.730154 0.497304
O O16 0.303339 0.826528 0.775290
#
# Coordination Sequence:
#
# PCOD9000347 Si02
#       8
#     1   1   1   1   1   1   1   1
#     4  12  25  46  70 107 135 187 232 281 345 414
#     4  12  27  42  68 108 143 177 235 284 347 409
#     4  11  24  47  71  97 148 180 227 292 339 411
#     4  11  23  49  71 101 144 181 231 289 345 409
#     4  10  23  44  70  98 137 185 227 282 345 406
#     4  11  23  43  68 101 141 179 228 286 339 411
#     4  10  24  46  66 102 142 181 229 289 341 413
#     4  11  23  45  74 100 136 190 231 279 355 407
#
# _framework density 23.591830000000002
#
# number of rings (size 3 to 8) (size 9 to 14) (size 15 to 20)
#    0.000    1.000    5.000    3.000    1.750    4.000 
#    4.500    0.000    0.000    0.000    0.000    0.000 
#    0.000    0.000    0.000    0.000    0.000    0.000 
#
# Total GULP energy -44668.602277 kJ/mol
# GULP energy per Si atom -5583.575285 kJ/mol
# Density = 2.353813 g / cm^3
# Si number density = 23.591830 Si / 1000 Ang^3
#
#
#
# Elastic Constant Matrix: (Units=GPa)
#
#
# Indices 1 2 3 4 5 6 
#
# 1 137.7764 16.8585 29.6658 5.5481 56.2507 6.1068
# 2 16.8585 97.3745 -0.4153 6.5526 13.8404 17.3729
# 3 29.6658 -0.4153 59.4882 7.3373 31.5876 -0.9790
# 4 5.5481 6.5526 7.3373 36.5436 1.3175 12.9608
# 5 56.2507 13.8404 31.5876 1.3175 48.5397 -2.3411
# 6 6.1068 17.3729 -0.9790 12.9608 -2.3411 30.9200
#
#
#
# Elastic Compliance Matrix: (Units=1/GPa)
#
#
# Indices 1 2 3 4 5 6 
#
# 1 0.014655 0.001116 0.003064 -0.000704 -0.019498 -0.004606
# 2 0.001116 0.012519 0.003353 -0.000101 -0.007412 -0.007667
# 3 0.003064 0.003353 0.027975 -0.005512 -0.022610 -0.001005
# 4 -0.000704 -0.000101 -0.005512 0.033369 0.002862 -0.013750
# 5 -0.019498 -0.007412 -0.022610 0.002862 0.060462 0.010678
# 6 -0.004606 -0.007667 -0.001005 -0.013750 0.010678 0.044099
#
#
# Mechanical properties :
#
#
# Convention : Reuss Voigt Hill
#
# Bulk Modulus (GPa) = 14.24200 42.98414 28.61307
# Shear Modulus (GPa) = 24.82396 39.76935 32.29665
#
# Velocity S-wave (km/s) = 3.24732 4.11021 3.70398
# Velocity P-wave (km/s) = 4.48443 6.38628 5.51791
#
# Compressibility (1/GPa) = 0.07021487
#
# Stress axis : x y z
#
# Youngs Moduli (GPa) = 68.23600 79.87920 35.74671
#
# Poissons Ratio (x) = -0.08918 -0.10953
# Poissons Ratio (y) = -0.07618 -0.11985
# Poissons Ratio (z) = -0.20908 -0.26781
#
# Static dielectric constant tensor:
#      x y z
#    x 1.928820 0.047850 -0.012140 
#    y 0.047850 1.958460 -0.014630 
#    z -0.012140 -0.014630 1.905780 
# 
# From -- ./inp_files/6019.got.cif
#   From: 2010.05.17/outbox.cif.g08.bks.cpg/sg1_4_cif.got.tgz:6019.got - 2010.05.17 20:27:59.
