data_PCOD9000250
_publ_section_title
;
Structure prediction by ZEFSAII (Michael W. Deem and Ramdas Pophale) SiO2 
 PCOD9000250
Probable space group: P 1
;
_chemical_formula_sum "Si O2"
_cell_formula_units_Z 8
_cell_length_a 5.065002
_cell_length_b 5.344604
_cell_length_c 14.112848
_cell_angle_alpha 87.386655
_cell_angle_beta 55.968893
_cell_angle_gamma 95.615550
_cell_volume 312.749333
_symmetry_space_group_name_H-M "P 1"
_symmetry_group_IT_number 1
_symmetry_cell_setting 'triclinic'
loop_
_space_group_symop_operation_xyz
x,y,z
loop_
_atom_site_type_symbol
_atom_site_label
_atom_site_fract_x
_atom_site_fract_y
_atom_site_fract_z
Si Si1 0.582380 0.075620 0.729020
Si Si2 0.218420 0.309601 0.127982
Si Si3 0.750254 0.467455 0.349394
Si Si4 0.666144 0.141231 0.913340
Si Si5 0.203006 0.551488 0.833649
Si Si6 0.780386 0.753780 0.051755
Si Si7 0.321436 0.913386 0.273787
Si Si8 0.073923 0.233716 0.462396
O O1 0.695791 0.006334 0.811527
O O2 0.417886 0.327906 0.777814
O O3 0.864940 0.149067 0.596966
O O4 0.356521 0.815141 0.750815
O O5 0.464158 0.569066 0.080689
O O6 0.868715 0.358011 0.228093
O O7 0.320232 0.145086 0.197679
O O8 0.304997 0.163762 0.019691
O O9 0.368102 0.459543 0.420223
O O10 0.837018 0.300438 0.425192
O O11 0.001524 0.719606 0.314013
O O12 0.868615 0.419089 0.857715
O O13 0.808411 0.996136 0.973088
O O14 0.085002 0.617809 0.963356
O O15 0.654873 0.812301 0.180786
O O16 0.261253 0.014063 0.387846
#
# Coordination Sequence:
#
# PCOD9000250 Si02
#       8
#     1   1   1   1   1   1   1   1
#     4  12  29  43  70 105 141 196 242 292 361 434
#     4   8  18  39  67 103 140 178 237 295 369 429
#     4  10  23  46  69 104 138 189 242 301 362 428
#     4  10  22  44  70 103 145 186 233 304 360 434
#     4  11  25  46  67 104 139 188 237 297 358 428
#     4   9  18  42  75 101 145 180 237 300 366 434
#     4   9  20  43  71 104 141 186 234 304 366 431
#     4  11  27  45  71 102 141 193 246 295 358 432
#
# _framework density 25.579591000000001
#
# number of rings (size 3 to 8) (size 9 to 14) (size 15 to 20)
#    0.000    2.000    1.250    0.000    7.000    3.000 
#    6.750    0.000    0.000    0.000    0.000    0.000 
#    0.000    0.000    0.000    0.000    0.000    0.000 
#
# Total GULP energy -44707.707930 kJ/mol
# GULP energy per Si atom -5588.463491 kJ/mol
# Density = 2.552137 g / cm^3
# Si number density = 25.579591 Si / 1000 Ang^3
#
#
#
# Elastic Constant Matrix: (Units=GPa)
#
#
# Indices 1 2 3 4 5 6 
#
# 1 83.9482 37.6736 53.0992 -2.5724 -9.2105 -5.2872
# 2 37.6736 122.0077 60.7269 -8.6461 -17.9720 -0.3138
# 3 53.0992 60.7269 217.0228 5.1212 -27.1923 11.5610
# 4 -2.5724 -8.6461 5.1212 28.2109 5.6528 -6.4565
# 5 -9.2105 -17.9720 -27.1923 5.6528 36.0156 -1.1684
# 6 -5.2872 -0.3138 11.5610 -6.4565 -1.1684 39.3139
#
#
#
# Elastic Compliance Matrix: (Units=1/GPa)
#
#
# Indices 1 2 3 4 5 6 
#
# 1 0.015563 -0.003109 -0.003175 0.001827 -0.000149 0.003298
# 2 -0.003109 0.010776 -0.002049 0.003069 0.002581 0.000851
# 3 -0.003175 -0.002049 0.006650 -0.003511 0.003645 -0.002867
# 4 0.001827 0.003069 -0.003511 0.040307 -0.006728 0.007722
# 5 -0.000149 0.002581 0.003645 -0.006728 0.032785 -0.001202
# 6 0.003298 0.000851 -0.002867 0.007722 -0.001202 0.027962
#
#
# Mechanical properties :
#
#
# Convention : Reuss Voigt Hill
#
# Bulk Modulus (GPa) = 61.26398 80.66424 70.96411
# Shear Modulus (GPa) = 32.02024 38.80669 35.41346
#
# Velocity S-wave (km/s) = 3.54190 3.89922 3.72485
# Velocity P-wave (km/s) = 6.38193 7.20242 6.80456
#
# Compressibility (1/GPa) = 0.01632280
#
# Stress axis : x y z
#
# Youngs Moduli (GPa) = 64.25413 92.79965 150.36896
#
# Poissons Ratio (x) = 0.28852 0.47746
# Poissons Ratio (y) = 0.19977 0.30810
# Poissons Ratio (z) = 0.20402 0.19014
#
# Static dielectric constant tensor:
#      x y z
#    x 2.072280 0.004680 0.004630 
#    y 0.004680 2.124720 0.059620 
#    z 0.004630 0.059620 1.965190 
# 
# From -- ./inp_files/6953.got.cif
#   From: 2010.05.17/outbox.cif.g08.bks.cpg/sg1_4_cif.got.tgz:6953.got - 2010.05.17 20:27:59.
