data_PCOD9000221
_publ_section_title
;
Structure prediction by ZEFSAII (Michael W. Deem and Ramdas Pophale) SiO2 
 PCOD9000221
Probable space group: P 1
;
_chemical_formula_sum "Si O2"
_cell_formula_units_Z 8
_cell_length_a 14.505817
_cell_length_b 7.339798
_cell_length_c 4.941625
_cell_angle_alpha 44.817679
_cell_angle_beta 58.520073
_cell_angle_gamma 52.067229
_cell_volume 288.967071
_symmetry_space_group_name_H-M "P 1"
_symmetry_group_IT_number 1
_symmetry_cell_setting 'triclinic'
loop_
_space_group_symop_operation_xyz
x,y,z
loop_
_atom_site_type_symbol
_atom_site_label
_atom_site_fract_x
_atom_site_fract_y
_atom_site_fract_z
Si Si1 0.956100 0.315220 0.761690
Si Si2 0.983372 0.801280 0.895663
Si Si3 0.318952 0.412258 0.689994
Si Si4 0.122965 0.320984 0.860605
Si Si5 0.290392 0.809582 0.802752
Si Si6 0.551053 0.660678 0.637175
Si Si7 0.745212 0.817857 0.355452
Si Si8 0.579708 0.287567 0.493599
O O1 0.012645 0.522418 0.332537
O O2 0.818766 0.510020 0.707153
O O3 0.998314 0.281486 0.044929
O O4 0.995520 0.033914 0.823758
O O5 0.843812 0.887669 0.970722
O O6 0.063977 0.659819 0.661916
O O7 0.236108 0.241616 0.973638
O O8 0.308130 0.566658 0.256257
O O9 0.457751 0.242340 0.713993
O O10 0.270089 0.661642 0.722172
O O11 0.193137 0.102467 0.746966
O O12 0.415824 0.835428 0.578299
O O13 0.552616 0.554048 0.052628
O O14 0.641734 0.806885 0.339951
O O15 0.595980 0.393392 0.650311
O O16 0.686919 0.035906 0.455587
#
# Coordination Sequence:
#
# PCOD9000221 Si02
#       8
#     1   1   1   1   1   1   1   1
#     4  10  26  44  65 102 140 184 242 289 352 418
#     4  10  26  44  65 102 140 184 242 289 352 418
#     4  10  24  42  69 102 139 183 235 292 357 425
#     4  12  25  40  72  92 147 184 240 290 356 424
#     4  10  24  42  69 102 139 183 235 292 357 425
#     4  10  22  43  69 102 139 181 234 292 356 424
#     4  10  23  42  70  96 139 184 236 292 354 424
#     4  10  22  43  69 102 139 181 234 292 356 424
#
# _framework density 27.684815
#
# number of rings (size 3 to 8) (size 9 to 14) (size 15 to 20)
#    0.750    1.000    0.000    2.250    7.000    5.000 
#    0.000    7.500    0.000    0.000    0.000    0.000 
#    0.000    0.000    0.000    0.000    0.000    0.000 
#
# Total GULP energy -44726.320133 kJ/mol
# GULP energy per Si atom -5590.790017 kJ/mol
# Density = 2.762180 g / cm^3
# Si number density = 27.684815 Si / 1000 Ang^3
#
#
#
# Elastic Constant Matrix: (Units=GPa)
#
#
# Indices 1 2 3 4 5 6 
#
# 1 161.0635 58.4983 2.5294 3.4609 -25.0299 24.2998
# 2 58.4983 184.7780 12.7550 -16.1865 -14.0991 -2.4830
# 3 2.5294 12.7550 76.8911 -2.8170 0.2079 19.9057
# 4 3.4609 -16.1865 -2.8170 36.1802 -2.5049 -4.4865
# 5 -25.0299 -14.0991 0.2079 -2.5049 27.6451 3.9695
# 6 24.2998 -2.4830 19.9057 -4.4865 3.9695 59.7759
#
#
#
# Elastic Compliance Matrix: (Units=1/GPa)
#
#
# Indices 1 2 3 4 5 6 
#
# 1 0.009074 -0.002645 0.001308 -0.002044 0.007372 -0.004877
# 2 -0.002645 0.006765 -0.001434 0.003494 0.001092 0.002024
# 3 0.001308 -0.001434 0.014626 -0.000239 0.001119 -0.005554
# 4 -0.002044 0.003494 -0.000239 0.029923 0.002191 0.003156
# 5 0.007372 0.001092 0.001119 0.002191 0.044472 -0.006113
# 6 -0.004877 0.002024 -0.005554 0.003156 -0.006113 0.021288
#
#
# Mechanical properties :
#
#
# Convention : Reuss Voigt Hill
#
# Bulk Modulus (GPa) = 40.12276 63.36645 51.74460
# Shear Modulus (GPa) = 35.71452 47.98357 41.84904
#
# Velocity S-wave (km/s) = 3.59561 4.16770 3.89218
# Velocity P-wave (km/s) = 5.63578 6.78954 6.23939
#
# Compressibility (1/GPa) = 0.02492351
#
# Stress axis : x y z
#
# Youngs Moduli (GPa) = 110.20077 147.82062 68.36978
#
# Poissons Ratio (x) = 0.39101 -0.08944
# Poissons Ratio (y) = 0.29150 0.09804
# Poissons Ratio (z) = -0.14415 0.21197
#
# Static dielectric constant tensor:
#      x y z
#    x 2.196120 -0.009030 0.080950 
#    y -0.009030 2.047400 0.060280 
#    z 0.080950 0.060280 2.472850 
# 
# From -- ./inp_files/634.got.cif
#   From: 2010.05.17/outbox.cif.g08.bks.cpg/sg1_1_cif.got.tgz:634.got - 2010.05.17 20:27:59.
