data_PCOD9000668
_publ_section_title
;
Structure prediction by ZEFSAII (Michael W. Deem and Ramdas Pophale) SiO2 
 PCOD9000668
Probable space group: P 1
;
_chemical_formula_sum "Si O2"
_cell_formula_units_Z 8
_cell_length_a 6.681896
_cell_length_b 9.503625
_cell_length_c 8.632350
_cell_angle_alpha 129.787201
_cell_angle_beta 123.666949
_cell_angle_gamma 49.604314
_cell_volume 311.537281
_symmetry_space_group_name_H-M "P 1"
_symmetry_group_IT_number 1
_symmetry_cell_setting 'triclinic'
loop_
_space_group_symop_operation_xyz
x,y,z
loop_
_atom_site_type_symbol
_atom_site_label
_atom_site_fract_x
_atom_site_fract_y
_atom_site_fract_z
Si Si1 0.434710 0.040820 0.901790
Si Si2 0.722055 0.701771 0.998083
Si Si3 0.383148 0.698472 0.452250
Si Si4 0.168956 0.611612 0.869693
Si Si5 0.907471 0.067780 0.614296
Si Si6 0.717350 0.495995 0.152900
Si Si7 0.404720 0.451206 0.568455
Si Si8 0.910407 0.060471 0.966853
O O1 0.119350 0.163807 0.806419
O O2 0.511034 0.828720 0.688601
O O3 0.630812 0.126018 0.984931
O O4 0.525555 0.942618 0.041931
O O5 0.782450 0.631263 0.152764
O O6 0.981129 0.623737 0.941243
O O7 0.552422 0.585239 0.784751
O O8 0.557787 0.619007 0.319949
O O9 0.367078 0.519460 0.421871
O O10 0.075099 0.879641 0.438085
O O11 0.477397 0.463389 0.943676
O O12 0.150967 0.524317 0.629415
O O13 0.114439 0.848146 0.986946
O O14 0.624073 0.219952 0.530116
O O15 0.948493 0.266589 0.128124
O O16 0.890700 0.001187 0.736831
#
# Coordination Sequence:
#
# PCOD9000668 Si02
#       8
#     1   1   1   1   1   1   1   1
#     4   8  20  37  59  80 111 147 195 222 273 334
#     4   9  18  36  57  82 114 148 186 232 276 333
#     4   9  21  39  53  83 124 142 179 240 286 326
#     4  10  20  35  57  86 113 147 191 231 273 338
#     4  10  18  34  59  82 108 147 187 231 271 331
#     4  11  22  36  57  88 118 144 184 234 295 324
#     4  10  18  34  59  82 107 152 195 224 269 338
#     4  11  19  35  63  85 105 149 195 232 265 340
#
# _framework density 25.679112
#
# number of rings (size 3 to 8) (size 9 to 14) (size 15 to 20)
#    0.750    1.500    3.750    0.750    1.750    1.000 
#    2.250    0.000    0.000    0.000    0.000    0.000 
#    0.000    0.000    0.000    0.000    0.000    0.000 
#
# Total GULP energy -44602.479150 kJ/mol
# GULP energy per Si atom -5575.309894 kJ/mol
# Density = 2.562067 g / cm^3
# Si number density = 25.679112 Si / 1000 Ang^3
#
#
#
# Elastic Constant Matrix: (Units=GPa)
#
#
# Indices 1 2 3 4 5 6 
#
# 1 106.0607 35.8715 31.0277 -8.9543 -39.2278 -0.0341
# 2 35.8715 167.1238 32.5473 -6.1958 -32.2757 1.8506
# 3 31.0277 32.5473 95.3855 -0.0597 -44.0761 11.5524
# 4 -8.9543 -6.1958 -0.0597 22.6997 2.6630 -11.9084
# 5 -39.2278 -32.2757 -44.0761 2.6630 55.4474 -7.2726
# 6 -0.0341 1.8506 11.5524 -11.9084 -7.2726 38.6555
#
#
#
# Elastic Compliance Matrix: (Units=1/GPa)
#
#
# Indices 1 2 3 4 5 6 
#
# 1 0.013721 -0.000936 -0.000423 0.006064 0.009026 0.003750
# 2 -0.000936 0.006938 -0.000947 0.001725 0.002669 0.000984
# 3 -0.000423 -0.000947 0.017189 -0.003917 0.012483 -0.003950
# 4 0.006064 0.001725 -0.003917 0.056589 0.001940 0.018891
# 5 0.009026 0.002669 0.012483 0.001940 0.036273 0.003572
# 6 0.003750 0.000984 -0.003950 0.018891 0.003572 0.033498
#
#
# Mechanical properties :
#
#
# Convention : Reuss Voigt Hill
#
# Bulk Modulus (GPa) = 30.09007 63.05144 46.57076
# Shear Modulus (GPa) = 27.79362 41.30210 34.54786
#
# Velocity S-wave (km/s) = 3.29347 4.01483 3.67191
# Velocity P-wave (km/s) = 5.11915 6.78960 6.01267
#
# Compressibility (1/GPa) = 0.03323355
#
# Stress axis : x y z
#
# Youngs Moduli (GPa) = 72.88316 144.14332 58.17761
#
# Poissons Ratio (x) = 0.13493 0.02462
# Poissons Ratio (y) = 0.06823 0.05512
# Poissons Ratio (z) = 0.03084 0.13656
#
# Static dielectric constant tensor:
#      x y z
#    x 2.078470 -0.017810 0.016280 
#    y -0.017810 2.042460 -0.054700 
#    z 0.016280 -0.054700 2.134140 
# 
# From -- ./inp_files/3951.got.cif
#   From: 2010.05.17/outbox.cif.g08.bks.cpg/sg1_2_cif.got.tgz:3951.got - 2010.05.17 20:27:59.
