data_PCOD9000328
_publ_section_title
;
Structure prediction by ZEFSAII (Michael W. Deem and Ramdas Pophale) SiO2 
 PCOD9000328
Probable space group: P 1
;
_chemical_formula_sum "Si O2"
_cell_formula_units_Z 8
_cell_length_a 7.060372
_cell_length_b 6.526428
_cell_length_c 8.435830
_cell_angle_alpha 67.767190
_cell_angle_beta 112.853626
_cell_angle_gamma 93.177862
_cell_volume 329.656036
_symmetry_space_group_name_H-M "P 1"
_symmetry_group_IT_number 1
_symmetry_cell_setting 'triclinic'
loop_
_space_group_symop_operation_xyz
x,y,z
loop_
_atom_site_type_symbol
_atom_site_label
_atom_site_fract_x
_atom_site_fract_y
_atom_site_fract_z
Si Si1 0.792160 0.132150 0.354180
Si Si2 0.465425 0.037892 0.734808
Si Si3 0.857171 0.982559 0.094465
Si Si4 0.659104 0.595473 0.326680
Si Si5 0.519369 0.846361 0.474198
Si Si6 0.164170 0.669431 0.107141
Si Si7 0.195887 0.512368 0.494014
Si Si8 0.098404 0.734685 0.718575
O O1 0.876591 0.146940 0.199515
O O2 0.755639 0.356606 0.373394
O O3 0.566144 0.035549 0.308295
O O4 0.940370 0.946708 0.551642
O O5 0.335875 0.278109 0.617358
O O6 0.560625 0.955441 0.621384
O O7 0.313133 0.849220 0.776605
O O8 0.653843 0.053750 0.908267
O O9 0.795289 0.766096 0.235380
O O10 0.047697 0.906356 0.062820
O O11 0.655305 0.633810 0.503899
O O12 0.415632 0.643190 0.187921
O O13 0.304159 0.745103 0.450730
O O14 0.120704 0.508301 0.286938
O O15 0.069458 0.634476 0.913267
O O16 0.104041 0.556605 0.628532
#
# Coordination Sequence:
#
# PCOD9000328 Si02
#       8
#     1   1   1   1   1   1   1   1
#     4  11  23  42  69 101 138 184 227 282 351 404
#     4  11  23  42  69 101 138 184 227 282 351 404
#     4  11  24  43  67 101 143 177 233 287 335 416
#     4  10  23  43  67 101 139 180 225 288 343 407
#     4   9  20  39  65  91 133 172 226 277 330 403
#     4  11  22  43  69  97 139 176 226 285 340 397
#     4  10  23  43  67 101 139 180 225 288 343 407
#     4  11  24  43  67 101 143 177 233 287 335 416
#
# _framework density 24.267721000000002
#
# number of rings (size 3 to 8) (size 9 to 14) (size 15 to 20)
#    0.000    1.500    2.500    2.250    3.500    0.000 
#    0.000    1.250    0.000    0.000    0.000    0.000 
#    0.000    0.000    0.000    0.000    0.000    0.000 
#
# Total GULP energy -44573.369740 kJ/mol
# GULP energy per Si atom -5571.671217 kJ/mol
# Density = 2.421249 g / cm^3
# Si number density = 24.267721 Si / 1000 Ang^3
#
#
#
# Elastic Constant Matrix: (Units=GPa)
#
#
# Indices 1 2 3 4 5 6 
#
# 1 77.2528 26.5637 21.0032 14.4604 0.6193 -19.4690
# 2 26.5637 186.6312 81.8713 34.3596 -5.6404 -34.3376
# 3 21.0032 81.8713 170.7885 36.8045 0.6653 -34.2492
# 4 14.4604 34.3596 36.8045 31.2147 -8.4255 -7.7214
# 5 0.6193 -5.6404 0.6653 -8.4255 29.2927 5.6815
# 6 -19.4690 -34.3376 -34.2492 -7.7214 5.6815 47.8902
#
#
#
# Elastic Compliance Matrix: (Units=1/GPa)
#
#
# Indices 1 2 3 4 5 6 
#
# 1 0.015806 -0.000272 0.001155 -0.007890 -0.003894 0.006246
# 2 -0.000272 0.007848 -0.001809 -0.005746 -0.000751 0.003386
# 3 0.001155 -0.001809 0.009774 -0.010017 -0.004461 0.005077
# 4 -0.007890 -0.005746 -0.010017 0.056588 0.016996 -0.007384
# 5 -0.003894 -0.000751 -0.004461 0.016996 0.040496 -0.007376
# 6 0.006246 0.003386 0.005077 -0.007384 -0.007376 0.029164
#
#
# Mechanical properties :
#
#
# Convention : Reuss Voigt Hill
#
# Bulk Modulus (GPa) = 31.66874 77.06101 54.36487
# Shear Modulus (GPa) = 29.06050 42.02846 35.54448
#
# Velocity S-wave (km/s) = 3.46424 4.16609 3.83127
# Velocity P-wave (km/s) = 5.39253 7.41385 6.48246
#
# Compressibility (1/GPa) = 0.03157688
#
# Stress axis : x y z
#
# Youngs Moduli (GPa) = 63.26524 127.41422 102.30898
#
# Poissons Ratio (x) = 0.03467 -0.11814
# Poissons Ratio (y) = 0.01722 0.18505
# Poissons Ratio (z) = -0.07305 0.23046
#
# Static dielectric constant tensor:
#      x y z
#    x 2.150040 0.001920 0.052770 
#    y 0.001920 1.964500 0.039560 
#    z 0.052770 0.039560 1.974930 
# 
# From -- ./inp_files/3067.got.cif
#   From: 2010.05.17/outbox.cif.g08.bks.cpg/sg1_2_cif.got.tgz:3067.got - 2010.05.17 20:27:59.
