data_PCOD9000625
_publ_section_title
;
Structure prediction by ZEFSAII (Michael W. Deem and Ramdas Pophale) SiO2 
 PCOD9000625
Probable space group: P 1
;
_chemical_formula_sum "Si O2"
_cell_formula_units_Z 8
_cell_length_a 4.967443
_cell_length_b 10.688860
_cell_length_c 9.702606
_cell_angle_alpha 39.579481
_cell_angle_beta 108.225775
_cell_angle_gamma 102.126705
_cell_volume 311.364860
_symmetry_space_group_name_H-M "P 1"
_symmetry_group_IT_number 1
_symmetry_cell_setting 'triclinic'
loop_
_space_group_symop_operation_xyz
x,y,z
loop_
_atom_site_type_symbol
_atom_site_label
_atom_site_fract_x
_atom_site_fract_y
_atom_site_fract_z
Si Si1 0.913170 0.132900 0.794890
Si Si2 0.610188 0.524893 0.529001
Si Si3 0.153709 0.556006 0.214066
Si Si4 0.496580 0.641366 0.703272
Si Si5 0.856949 0.010576 0.450046
Si Si6 0.553967 0.402569 0.184158
Si Si7 0.970553 0.894104 0.275775
Si Si8 0.313426 0.979461 0.764982
O O1 0.792530 0.345745 0.642846
O O2 0.643216 0.018894 0.791826
O O3 0.146254 0.128081 0.717426
O O4 0.032571 0.016414 0.046661
O O5 0.299681 0.537741 0.401241
O O6 0.603740 0.504300 0.710257
O O7 0.741065 0.734419 0.342224
O O8 0.320878 0.407386 0.261621
O O9 0.823918 0.516578 0.187220
O O10 0.233568 0.767733 0.989524
O O11 0.233566 0.767735 0.489524
O O12 0.167459 0.997724 0.577809
O O13 0.726067 0.801051 0.636821
O O14 0.674615 0.189726 0.336203
O O15 0.863393 0.031172 0.268787
O O16 0.434567 0.519053 0.932388
#
# Coordination Sequence:
#
# PCOD9000625 Si02
#       8
#     1   1   1   1   1   1   1   1
#     4  12  27  46  74 102 137 183 230 285 340 410
#     4  11  26  45  69 105 136 182 231 280 346 405
#     4  12  25  47  74 101 140 179 230 288 343 401
#     4  11  26  45  71  98 144 183 225 286 338 413
#     4  11  26  45  69 105 136 182 231 280 346 405
#     4  12  27  46  74 102 137 183 230 285 340 410
#     4  11  26  45  71  98 144 183 225 286 338 413
#     4  12  25  47  74 101 140 179 230 288 343 401
#
# _framework density 25.693328000000001
#
# number of rings (size 3 to 8) (size 9 to 14) (size 15 to 20)
#    0.000    0.500    2.500    4.500   10.500    1.000 
#    0.000    0.000    0.000    0.000    0.000    0.000 
#    0.000    0.000    0.000    0.000    0.000    0.000 
#
# Total GULP energy -44951.330531 kJ/mol
# GULP energy per Si atom -5618.916316 kJ/mol
# Density = 2.563485 g / cm^3
# Si number density = 25.693328 Si / 1000 Ang^3
#
#
#
# Elastic Constant Matrix: (Units=GPa)
#
#
# Indices 1 2 3 4 5 6 
#
# 1 93.4465 26.9392 11.1217 7.0036 -4.3918 1.5709
# 2 26.9392 137.1892 59.4127 6.0838 -4.8987 -3.4969
# 3 11.1217 59.4127 95.6026 8.8256 2.8920 6.7091
# 4 7.0036 6.0838 8.8256 47.2761 -5.1829 7.2862
# 5 -4.3918 -4.8987 2.8920 -5.1829 38.8290 -1.5423
# 6 1.5709 -3.4969 6.7091 7.2862 -1.5423 35.8250
#
#
#
# Elastic Compliance Matrix: (Units=1/GPa)
#
#
# Indices 1 2 3 4 5 6 
#
# 1 0.011473 -0.002266 0.000200 -0.001285 0.000807 -0.000466
# 2 -0.002266 0.010727 -0.006626 -0.000002 0.001688 0.002460
# 3 0.000200 -0.006626 0.015009 -0.001735 -0.002290 -0.003212
# 4 -0.001285 -0.000002 -0.001735 0.022609 0.002839 -0.004095
# 5 0.000807 0.001688 -0.002290 0.002839 0.026653 0.001128
# 6 -0.000466 0.002460 -0.003212 -0.004095 0.001128 0.029657
#
#
# Mechanical properties :
#
#
# Convention : Reuss Voigt Hill
#
# Bulk Modulus (GPa) = 50.43943 57.90949 54.17446
# Shear Modulus (GPa) = 35.68384 39.63700 37.66042
#
# Velocity S-wave (km/s) = 3.73075 3.93198 3.83269
# Velocity P-wave (km/s) = 6.18320 6.57279 6.38097
#
# Compressibility (1/GPa) = 0.01982576
#
# Stress axis : x y z
#
# Youngs Moduli (GPa) = 87.16355 93.22459 66.62477
#
# Poissons Ratio (x) = 0.21121 -0.01334
# Poissons Ratio (y) = 0.19748 0.44147
# Poissons Ratio (z) = -0.01745 0.61772
#
# Static dielectric constant tensor:
#      x y z
#    x 2.001820 -0.023380 0.017850 
#    y -0.023380 2.005530 -0.033470 
#    z 0.017850 -0.033470 2.028450 
# 
# From -- ./inp_files/7017.got.cif
#   From: 2010.05.17/outbox.cif.g08.bks.cpg/sg1_4_cif.got.tgz:7017.got - 2010.05.17 20:27:59.
