data_PCOD9000458
_publ_section_title
;
Structure prediction by ZEFSAII (Michael W. Deem and Ramdas Pophale) SiO2 
 PCOD9000458
Probable space group: P 1
;
_chemical_formula_sum "Si O2"
_cell_formula_units_Z 8
_cell_length_a 8.045665
_cell_length_b 10.073522
_cell_length_c 12.223660
_cell_angle_alpha 145.492807
_cell_angle_beta 36.046985
_cell_angle_gamma 128.752735
_cell_volume 327.839167
_symmetry_space_group_name_H-M "P 1"
_symmetry_group_IT_number 1
_symmetry_cell_setting 'triclinic'
loop_
_space_group_symop_operation_xyz
x,y,z
loop_
_atom_site_type_symbol
_atom_site_label
_atom_site_fract_x
_atom_site_fract_y
_atom_site_fract_z
Si Si1 0.047870 0.144440 0.455870
Si Si2 0.881780 0.223524 0.976150
Si Si3 0.638693 0.099548 0.244262
Si Si4 0.214893 0.765822 0.493391
Si Si5 0.380305 0.969552 0.973106
Si Si6 0.631169 0.763837 0.474745
Si Si7 0.624630 0.552614 0.704385
Si Si8 0.631519 0.591377 0.974455
O O1 0.338677 0.103875 0.342677
O O2 0.890315 0.401766 0.741848
O O3 0.842857 0.955794 0.470347
O O4 0.110642 0.125338 0.278109
O O5 0.630942 0.131656 0.974720
O O6 0.852810 0.142015 0.061716
O O7 0.151525 0.039251 0.671107
O O8 0.631891 0.312097 0.474190
O O9 0.719842 0.852442 0.092597
O O10 0.420136 0.753803 0.479121
O O11 0.372512 0.608514 0.207303
O O12 0.924445 0.660431 0.606293
O O13 0.443976 0.854492 0.742558
O O14 0.410144 0.745811 0.886975
O O15 0.817833 0.505829 0.206897
O O16 0.543396 0.527672 0.856081
#
# Coordination Sequence:
#
# PCOD9000458 Si02
#       8
#     1   1   1   1   1   1   1   1
#     4  11  29  48  73 113 149 195 244 301 368 438
#     4  10  24  50  77 109 143 196 246 301 370 430
#     4  11  25  51  77 105 147 197 243 306 367 426
#     4  11  29  48  73 113 149 195 244 301 368 438
#     4  10  24  50  77 109 143 196 246 301 370 430
#     4  12  28  50  74 112 150 194 242 306 370 432
#     4  11  25  51  77 105 147 197 243 306 367 426
#     4  12  28  50  72 114 152 192 248 300 368 438
#
# _framework density 24.40221
#
# number of rings (size 3 to 8) (size 9 to 14) (size 15 to 20)
#    0.000    1.000    5.000    0.000   10.500    6.000 
#    0.000    0.000    0.000    0.000    0.000    0.000 
#    0.000    0.000    0.000    0.000    0.000    0.000 
#
# Total GULP energy -44803.558262 kJ/mol
# GULP energy per Si atom -5600.444783 kJ/mol
# Density = 2.434667 g / cm^3
# Si number density = 24.402210 Si / 1000 Ang^3
#
#
#
# Elastic Constant Matrix: (Units=GPa)
#
#
# Indices 1 2 3 4 5 6 
#
# 1 58.9693 36.5182 49.4339 2.0172 -5.2249 -7.5606
# 2 36.5182 81.4279 45.0366 31.8609 -6.4244 -10.3447
# 3 49.4339 45.0366 202.1836 15.0064 6.5003 -2.3861
# 4 2.0172 31.8609 15.0064 55.6904 -5.1798 -3.1507
# 5 -5.2249 -6.4244 6.5003 -5.1798 54.1970 13.2127
# 6 -7.5606 -10.3447 -2.3861 -3.1507 13.2127 22.1265
#
#
#
# Elastic Compliance Matrix: (Units=1/GPa)
#
#
# Indices 1 2 3 4 5 6 
#
# 1 0.029537 -0.013117 -0.004920 0.008127 0.001804 0.003510
# 2 -0.013117 0.024557 -0.001207 -0.013012 -0.000790 0.005488
# 3 -0.004920 -0.001207 0.006526 -0.001061 -0.001274 -0.000932
# 4 0.008127 -0.013012 -0.001061 0.025526 0.002055 -0.001013
# 5 0.001804 -0.000790 -0.001274 0.002055 0.021983 -0.012725
# 6 0.003510 0.005488 -0.000932 -0.001013 -0.012725 0.056314
#
#
# Mechanical properties :
#
#
# Convention : Reuss Voigt Hill
#
# Bulk Modulus (GPa) = 45.18127 67.17314 56.17721
# Shear Modulus (GPa) = 23.77457 40.50891 32.14174
#
# Velocity S-wave (km/s) = 3.12473 4.07879 3.63321
# Velocity P-wave (km/s) = 5.61908 7.05474 6.37743
#
# Compressibility (1/GPa) = 0.02213307
#
# Stress axis : x y z
#
# Youngs Moduli (GPa) = 33.85570 40.72117 153.22200
#
# Poissons Ratio (x) = 0.53414 0.75381
# Poissons Ratio (y) = 0.44409 0.18495
# Poissons Ratio (z) = 0.16656 0.04915
#
# Static dielectric constant tensor:
#      x y z
#    x 1.975880 0.011070 -0.079750 
#    y 0.011070 1.930940 -0.030330 
#    z -0.079750 -0.030330 2.053610 
# 
# From -- ./inp_files/6603.got.cif
#   From: 2010.05.17/outbox.cif.g08.bks.cpg/sg1_4_cif.got.tgz:6603.got - 2010.05.17 20:27:59.
