data_PCOD9000430
_publ_section_title
;
Structure prediction by ZEFSAII (Michael W. Deem and Ramdas Pophale) SiO2 
 PCOD9000430
Probable space group: P 1
;
_chemical_formula_sum "Si O2"
_cell_formula_units_Z 8
_cell_length_a 5.040919
_cell_length_b 5.118357
_cell_length_c 12.077424
_cell_angle_alpha 73.488931
_cell_angle_beta 108.414400
_cell_angle_gamma 86.684881
_cell_volume 279.708829
_symmetry_space_group_name_H-M "P 1"
_symmetry_group_IT_number 1
_symmetry_cell_setting 'triclinic'
loop_
_space_group_symop_operation_xyz
x,y,z
loop_
_atom_site_type_symbol
_atom_site_label
_atom_site_fract_x
_atom_site_fract_y
_atom_site_fract_z
Si Si1 0.467880 0.298160 0.300130
Si Si2 0.645533 0.810799 0.271276
Si Si3 0.531295 0.180707 0.945774
Si Si4 0.833331 0.869146 0.703090
Si Si5 0.178919 0.680122 0.979606
Si Si6 0.018409 0.213760 0.163452
Si Si7 0.346957 0.529247 0.670111
Si Si8 0.871687 0.354638 0.515284
O O1 0.555121 0.562778 0.220170
O O2 0.722189 0.179285 0.426584
O O3 0.156142 0.342990 0.297799
O O4 0.378872 0.065186 0.226438
O O5 0.699045 0.644717 0.413386
O O6 0.870424 0.988424 0.240891
O O7 0.382219 0.432048 0.972744
O O8 0.481002 0.289910 0.801196
O O9 0.365582 0.927104 0.978827
O O10 0.854288 0.129574 0.035859
O O11 0.815365 0.194656 0.638467
O O12 0.561177 0.738587 0.649672
O O13 0.920683 0.790975 0.848921
O O14 0.089161 0.716127 0.679502
O O15 0.045804 0.522486 0.080013
O O16 0.192572 0.403048 0.562907
#
# Coordination Sequence:
#
# PCOD9000430 Si02
#       8
#     1   1   1   1   1   1   1   1
#     4  10  25  45  67 104 137 190 238 297 358 431
#     4  10  25  45  67 104 137 190 238 297 358 431
#     4  11  25  45  70 107 144 184 240 300 370 437
#     4  11  24  47  73 111 147 192 242 306 373 440
#     4  11  25  45  70 107 144 184 240 300 370 437
#     4  12  24  46  72 102 142 190 240 298 366 432
#     4  11  24  47  73 111 147 192 242 306 373 440
#     4  10  24  46  70 100 148 186 248 300 364 442
#
# _framework density 28.601171999999998
#
# number of rings (size 3 to 8) (size 9 to 14) (size 15 to 20)
#    0.750    0.500    2.500    2.250    1.750    5.000 
#    4.500    0.000    0.000    0.000    0.000    0.000 
#    0.000    0.000    0.000    0.000    0.000    0.000 
#
# Total GULP energy -44582.228287 kJ/mol
# GULP energy per Si atom -5572.778536 kJ/mol
# Density = 2.853607 g / cm^3
# Si number density = 28.601172 Si / 1000 Ang^3
#
#
#
# Elastic Constant Matrix: (Units=GPa)
#
#
# Indices 1 2 3 4 5 6 
#
# 1 137.2090 54.7914 41.9026 -0.0607 18.9109 44.1420
# 2 54.7914 215.5975 58.3029 -9.7530 16.5335 41.9091
# 3 41.9026 58.3029 205.6982 -14.3109 16.5107 26.4713
# 4 -0.0607 -9.7530 -14.3109 60.3735 15.6210 9.8471
# 5 18.9109 16.5335 16.5107 15.6210 42.8248 5.4054
# 6 44.1420 41.9091 26.4713 9.8471 5.4054 65.6857
#
#
#
# Elastic Compliance Matrix: (Units=1/GPa)
#
#
# Indices 1 2 3 4 5 6 
#
# 1 0.010313 -0.000906 -0.000645 0.001680 -0.003807 -0.006031
# 2 -0.000906 0.005875 -0.000846 0.001684 -0.001790 -0.002904
# 3 -0.000645 -0.000846 0.005734 0.002017 -0.002150 -0.001463
# 4 0.001680 0.001684 0.002017 0.020511 -0.008975 -0.005352
# 5 -0.003807 -0.001790 -0.002150 -0.008975 0.029385 0.003494
# 6 -0.006031 -0.002904 -0.001463 -0.005352 0.003494 0.022234
#
#
# Mechanical properties :
#
#
# Convention : Reuss Voigt Hill
#
# Bulk Modulus (GPa) = 58.38971 96.49984 77.44477
# Shear Modulus (GPa) = 47.82169 60.67733 54.24951
#
# Velocity S-wave (km/s) = 4.09347 4.61097 4.35990
# Velocity P-wave (km/s) = 6.54228 7.88423 7.24440
#
# Compressibility (1/GPa) = 0.01712631
#
# Stress axis : x y z
#
# Youngs Moduli (GPa) = 96.96859 170.20424 174.40150
#
# Poissons Ratio (x) = 0.15422 0.11257
# Poissons Ratio (y) = 0.08786 0.14757
# Poissons Ratio (z) = 0.06259 0.14402
#
# Static dielectric constant tensor:
#      x y z
#    x 2.280450 -0.263890 -0.005260 
#    y -0.263890 2.536000 0.280440 
#    z -0.005260 0.280440 2.323100 
# 
# From -- ./inp_files/2639.got.cif
#   From: 2010.05.17/outbox.cif.g08.bks.cpg/sg1_2_cif.got.tgz:2639.got - 2010.05.17 20:27:59.
