data_PCOD9000229
_publ_section_title
;
Structure prediction by ZEFSAII (Michael W. Deem and Ramdas Pophale) SiO2 
 PCOD9000229
Probable space group: P 1
;
_chemical_formula_sum "Si O2"
_cell_formula_units_Z 6
_cell_length_a 5.351183
_cell_length_b 4.980503
_cell_length_c 11.835400
_cell_angle_alpha 70.330434
_cell_angle_beta 127.271757
_cell_angle_gamma 99.758137
_cell_volume 236.116918
_symmetry_space_group_name_H-M "P 1"
_symmetry_group_IT_number 1
_symmetry_cell_setting 'triclinic'
loop_
_space_group_symop_operation_xyz
x,y,z
loop_
_atom_site_type_symbol
_atom_site_label
_atom_site_fract_x
_atom_site_fract_y
_atom_site_fract_z
Si Si1 0.607650 0.555960 0.768260
Si Si2 0.720275 0.914931 0.956122
Si Si3 0.876600 0.723944 0.578500
Si Si4 0.953221 0.997039 0.235155
Si Si5 0.561715 0.521073 0.148721
Si Si6 0.520996 0.287671 0.393057
O O1 0.773689 0.689965 0.903705
O O2 0.785049 0.665567 0.691604
O O3 0.239971 0.649181 0.663348
O O4 0.621747 0.213952 0.831142
O O5 0.478568 0.763409 0.998402
O O6 0.993016 0.978854 0.111979
O O7 0.645018 0.520620 0.476719
O O8 0.798682 0.052809 0.478810
O O9 0.241639 0.084185 0.377122
O O10 0.682107 0.238273 0.155433
O O11 0.845851 0.677216 0.270367
O O12 0.374191 0.430899 0.219043
#
# Coordination Sequence:
#
# PCOD9000229 Si02
#       6
#     1   1   1   1   1   1
#     4  12  26  51  68 107 144 198 242 284 354 434
#     4  10  22  47  72 103 144 178 248 296 362 420
#     4  12  30  45  76 101 150 202 232 296 344 444
#     4  10  22  43  70 108 135 181 226 316 359 410
#     4  10  22  43  70 108 135 181 226 316 359 410
#     4  12  26  45  72 109 140 188 246 290 372 426
#
# _framework density 25.411138999999999
#
# number of rings (size 3 to 8) (size 9 to 14) (size 15 to 20)
#    1.000    0.000    1.667    4.000    7.000    1.333 
#    6.000    0.000    0.000    0.000    0.000    0.000 
#    0.000    0.000    0.000    0.000    0.000    0.000 
#
# Total GULP energy -33507.855108 kJ/mol
# GULP energy per Si atom -5584.642518 kJ/mol
# Density = 2.535330 g / cm^3
# Si number density = 25.411139 Si / 1000 Ang^3
#
#
#
# Elastic Constant Matrix: (Units=GPa)
#
#
# Indices 1 2 3 4 5 6 
#
# 1 79.8984 17.0939 39.3324 -1.8471 -14.6828 5.6155
# 2 17.0939 152.7796 43.6403 14.8844 -16.9241 -29.0078
# 3 39.3324 43.6403 100.0370 2.0391 -23.5789 9.2505
# 4 -1.8471 14.8844 2.0391 62.0475 -6.3214 4.3923
# 5 -14.6828 -16.9241 -23.5789 -6.3214 35.7570 -6.6845
# 6 5.6155 -29.0078 9.2505 4.3923 -6.6845 30.0498
#
#
#
# Elastic Compliance Matrix: (Units=1/GPa)
#
#
# Indices 1 2 3 4 5 6 
#
# 1 0.015834 -0.000218 -0.005387 0.001063 0.002841 -0.001035
# 2 -0.000218 0.011488 -0.005227 -0.003183 0.003972 0.014088
# 3 -0.005387 -0.005227 0.016248 0.001628 0.004780 -0.008216
# 4 0.001063 -0.003183 0.001628 0.017478 0.001994 -0.005884
# 5 0.002841 0.003972 0.004780 0.001994 0.036315 0.009618
# 6 -0.001035 0.014088 -0.008216 -0.005884 0.009618 0.052600
#
#
# Mechanical properties :
#
#
# Convention : Reuss Voigt Hill
#
# Bulk Modulus (GPa) = 45.65220 59.20534 52.42877
# Shear Modulus (GPa) = 27.94397 41.08075 34.51236
#
# Velocity S-wave (km/s) = 3.31973 4.02511 3.68932
# Velocity P-wave (km/s) = 5.71827 6.70459 6.23098
#
# Compressibility (1/GPa) = 0.02190475
#
# Stress axis : x y z
#
# Youngs Moduli (GPa) = 63.15638 87.04767 61.54669
#
# Poissons Ratio (x) = 0.01901 0.33153
# Poissons Ratio (y) = 0.01379 0.32173
# Poissons Ratio (z) = 0.34020 0.45504
#
# Static dielectric constant tensor:
#      x y z
#    x 2.113790 0.069630 0.003860 
#    y 0.069630 1.971450 -0.020170 
#    z 0.003860 -0.020170 2.038470 
# 
# From -- ./inp_files/97.got.cif
#   From: 2010.05.17/outbox.cif.g08.bks.cpg/sg1_1_cif.got.tgz:97.got - 2010.05.17 20:27:59.
