data_PCOD9000835
_publ_section_title
;
Structure prediction by ZEFSAII (Michael W. Deem and Ramdas Pophale) SiO2 
 PCOD9000835
Probable space group: P 1
;
_chemical_formula_sum "Si O2"
_cell_formula_units_Z 8
_cell_length_a 5.370592
_cell_length_b 5.532937
_cell_length_c 12.367174
_cell_angle_alpha 108.111392
_cell_angle_beta 125.621789
_cell_angle_gamma 89.648099
_cell_volume 276.554037
_symmetry_space_group_name_H-M "P 1"
_symmetry_group_IT_number 1
_symmetry_cell_setting 'triclinic'
loop_
_space_group_symop_operation_xyz
x,y,z
loop_
_atom_site_type_symbol
_atom_site_label
_atom_site_fract_x
_atom_site_fract_y
_atom_site_fract_z
Si Si1 0.353460 0.637270 0.972190
Si Si2 0.748456 0.994124 0.844891
Si Si3 0.719111 0.121231 0.221158
Si Si4 0.084230 0.550152 0.482231
Si Si5 0.358702 0.417763 0.731860
Si Si6 0.740255 0.870154 0.598599
Si Si7 0.012276 0.467837 0.088487
Si Si8 0.377015 0.955366 0.337557
O O1 0.182729 0.503511 0.803383
O O2 0.677348 0.534463 0.039548
O O3 0.149130 0.558011 0.016317
O O4 0.483502 0.951088 0.052044
O O5 0.593386 0.701026 0.803316
O O6 0.912067 0.974763 0.767580
O O7 0.513556 0.181705 0.775676
O O8 0.948331 0.156894 0.015122
O O9 0.557136 0.036291 0.283288
O O10 0.055801 0.050375 0.279949
O O11 0.832646 0.430908 0.309871
O O12 0.942242 0.737483 0.550631
O O13 0.162912 0.348799 0.563559
O O14 0.416171 0.682874 0.532654
O O15 0.600631 0.055591 0.508839
O O16 0.260535 0.639190 0.255839
#
# Coordination Sequence:
#
# PCOD9000835 Si02
#       8
#     1   1   1   1   1   1   1   1
#     4   9  20  38  62  92 128 168 215 265 322 384
#     4  10  23  44  68  98 132 172 217 268 324 386
#     4  10  20  38  63  91 125 169 215 266 322 384
#     4  11  24  40  60  93 130 171 217 267 322 384
#     4  10  23  44  68  98 132 172 217 268 324 386
#     4  11  24  40  60  93 130 171 217 267 322 384
#     4   9  20  38  62  92 128 168 215 265 322 384
#     4  10  20  38  63  91 125 169 215 266 322 384
#
# _framework density 28.927436
#
# number of rings (size 3 to 8) (size 9 to 14) (size 15 to 20)
#    0.000    2.000    0.000    2.250    0.000   12.000 
#    0.000    6.250    0.000    0.000    0.000    0.000 
#    0.000    0.000    0.000    0.000    0.000    0.000 
#
# Total GULP energy -44780.460132 kJ/mol
# GULP energy per Si atom -5597.557516 kJ/mol
# Density = 2.886160 g / cm^3
# Si number density = 28.927436 Si / 1000 Ang^3
#
#
#
# Elastic Constant Matrix: (Units=GPa)
#
#
# Indices 1 2 3 4 5 6 
#
# 1 202.3921 71.8890 42.5051 -3.3790 -13.8423 6.1943
# 2 71.8890 108.1852 31.8077 6.1307 1.1845 -13.1973
# 3 42.5051 31.8077 153.8364 19.4893 -16.2333 4.8500
# 4 -3.3790 6.1307 19.4893 55.2773 9.8177 1.9888
# 5 -13.8423 1.1845 -16.2333 9.8177 44.9509 0.4389
# 6 6.1943 -13.1973 4.8500 1.9888 0.4389 73.5944
#
#
#
# Elastic Compliance Matrix: (Units=1/GPa)
#
#
# Indices 1 2 3 4 5 6 
#
# 1 0.006933 -0.004598 -0.000861 0.000977 0.001745 -0.001388
# 2 -0.004598 0.013220 -0.001678 -0.000868 -0.002209 0.002905
# 3 -0.000861 -0.001678 0.007864 -0.003205 0.003326 -0.000680
# 4 0.000977 -0.000868 -0.003205 0.020332 -0.005269 -0.000545
# 5 0.001745 -0.002209 0.003326 -0.005269 0.025202 -0.000770
# 6 -0.001388 0.002905 -0.000680 -0.000545 -0.000770 0.014290
#
#
# Mechanical properties :
#
#
# Convention : Reuss Voigt Hill
#
# Bulk Modulus (GPa) = 72.76047 84.09081 78.42564
# Shear Modulus (GPa) = 46.86342 55.97863 51.42103
#
# Velocity S-wave (km/s) = 4.02933 4.40379 4.22072
# Velocity P-wave (km/s) = 6.84505 7.41556 7.13601
#
# Compressibility (1/GPa) = 0.01374373
#
# Stress axis : x y z
#
# Youngs Moduli (GPa) = 144.23925 75.64572 127.16875
#
# Poissons Ratio (x) = 0.34779 0.10947
# Poissons Ratio (y) = 0.66316 0.21335
# Poissons Ratio (z) = 0.12416 0.12691
#
# Static dielectric constant tensor:
#      x y z
#    x 2.218750 0.000350 0.044880 
#    y 0.000350 2.356830 0.022090 
#    z 0.044880 0.022090 2.289500 
# 
# From -- ./inp_files/408.got.cif
#   From: 2010.05.17/outbox.cif.g08.bks.cpg/sg1_1_cif.got.tgz:408.got - 2010.05.17 20:27:59.
