data_PCOD9000557
_publ_section_title
;
Structure prediction by ZEFSAII (Michael W. Deem and Ramdas Pophale) SiO2 
 PCOD9000557
Probable space group: P 1
;
_chemical_formula_sum "Si O2"
_cell_formula_units_Z 8
_cell_length_a 6.654779
_cell_length_b 11.242680
_cell_length_c 5.624307
_cell_angle_alpha 116.143572
_cell_angle_beta 72.481171
_cell_angle_gamma 96.417906
_cell_volume 360.118782
_symmetry_space_group_name_H-M "P 1"
_symmetry_group_IT_number 1
_symmetry_cell_setting 'triclinic'
loop_
_space_group_symop_operation_xyz
x,y,z
loop_
_atom_site_type_symbol
_atom_site_label
_atom_site_fract_x
_atom_site_fract_y
_atom_site_fract_z
Si Si1 0.433100 0.601690 0.875000
Si Si2 0.527043 0.172774 0.557077
Si Si3 0.837964 0.538528 0.389655
Si Si4 0.720505 0.747390 0.245140
Si Si5 0.521641 0.215483 0.089941
Si Si6 0.224603 0.373089 0.045752
Si Si7 0.094834 0.748144 0.790805
Si Si8 0.419541 0.945773 0.686301
O O1 0.623581 0.527506 0.602806
O O2 0.270055 0.665804 0.804633
O O3 0.538835 0.715665 0.093698
O O4 0.321560 0.502702 0.006919
O O5 0.621944 0.210505 0.306810
O O6 0.475274 0.019825 0.484709
O O7 0.648198 0.217220 0.794932
O O8 0.303695 0.253302 0.741339
O O9 0.784797 0.607293 0.218207
O O10 0.980648 0.407168 0.195291
O O11 0.977193 0.645632 0.573894
O O12 0.617114 0.844304 0.563065
O O13 0.920920 0.802145 0.086701
O O14 0.345161 0.330789 0.209336
O O15 0.414592 0.071075 0.975174
O O16 0.211089 0.862457 0.708019
#
# Coordination Sequence:
#
# PCOD9000557 Si02
#       8
#     1   1   1   1   1   1   1   1
#     4  11  23  36  61  92 127 163 200 255 319 368
#     4   8  20  36  64  87 116 170 208 258 306 363
#     4  11  23  36  58  96 123 162 204 250 313 385
#     4  11  23  36  58  96 123 162 204 250 313 385
#     4   8  20  36  64  87 116 170 208 258 306 363
#     4   9  21  38  60  87 126 160 206 257 308 369
#     4  11  23  36  61  92 127 163 200 255 319 368
#     4   9  21  38  60  87 126 160 206 257 308 369
#
# _framework density 22.214891999999999
#
# number of rings (size 3 to 8) (size 9 to 14) (size 15 to 20)
#    1.500    0.500    2.500    0.750    3.500    0.000 
#    0.000    5.000    0.000    9.000    0.000    0.000 
#    0.000    0.000    0.000    0.000    0.000    0.000 
#
# Total GULP energy -44577.353386 kJ/mol
# GULP energy per Si atom -5572.169173 kJ/mol
# Density = 2.216433 g / cm^3
# Si number density = 22.214892 Si / 1000 Ang^3
#
#
#
# Elastic Constant Matrix: (Units=GPa)
#
#
# Indices 1 2 3 4 5 6 
#
# 1 73.7992 22.1937 25.6389 -1.1079 -7.0151 8.2738
# 2 22.1937 80.0785 18.9488 -1.4035 -3.8838 4.0725
# 3 25.6389 18.9488 74.5815 -25.4067 -4.6839 4.1334
# 4 -1.1079 -1.4035 -25.4067 39.9632 -7.6580 1.1966
# 5 -7.0151 -3.8838 -4.6839 -7.6580 38.1121 -9.3416
# 6 8.2738 4.0725 4.1334 1.1966 -9.3416 12.6867
#
#
#
# Elastic Compliance Matrix: (Units=1/GPa)
#
#
# Indices 1 2 3 4 5 6 
#
# 1 0.017360 -0.003079 -0.005834 -0.003189 -0.000573 -0.008553
# 2 -0.003079 0.014081 -0.002934 -0.001441 -0.000159 -0.001537
# 3 -0.005834 -0.002934 0.021199 0.013976 0.003890 -0.000614
# 4 -0.003189 -0.001441 0.013976 0.035331 0.008265 0.000742
# 5 -0.000573 -0.000159 0.003890 0.008265 0.033993 0.023408
# 6 -0.008553 -0.001537 -0.000614 0.000742 0.023408 0.102260
#
#
# Mechanical properties :
#
#
# Convention : Reuss Voigt Hill
#
# Bulk Modulus (GPa) = 34.55002 40.22466 37.38734
# Shear Modulus (GPa) = 19.41250 28.93091 24.17170
#
# Velocity S-wave (km/s) = 2.95930 3.61268 3.30219
# Velocity P-wave (km/s) = 5.22140 5.96224 5.60408
#
# Compressibility (1/GPa) = 0.02894354
#
# Stress axis : x y z
#
# Youngs Moduli (GPa) = 57.60458 71.01873 47.17291
#
# Poissons Ratio (x) = 0.21870 0.27520
# Poissons Ratio (y) = 0.17739 0.13843
# Poissons Ratio (z) = 0.33605 0.20840
#
# Static dielectric constant tensor:
#      x y z
#    x 1.775110 -0.020330 0.019370 
#    y -0.020330 1.831360 0.027040 
#    z 0.019370 0.027040 1.904800 
# 
# From -- ./inp_files/438.got.cif
#   From: 2010.05.17/outbox.cif.g08.bks.cpg/sg1_1_cif.got.tgz:438.got - 2010.05.17 20:27:59.
