data_PCOD9000561
_publ_section_title
;
Structure prediction by ZEFSAII (Michael W. Deem and Ramdas Pophale) SiO2 
 PCOD9000561
Probable space group: P 1
;
_chemical_formula_sum "Si O2"
_cell_formula_units_Z 8
_cell_length_a 4.961319
_cell_length_b 5.462982
_cell_length_c 13.849970
_cell_angle_alpha 66.766966
_cell_angle_beta 122.832918
_cell_angle_gamma 90.004539
_cell_volume 278.507293
_symmetry_space_group_name_H-M "P 1"
_symmetry_group_IT_number 1
_symmetry_cell_setting 'triclinic'
loop_
_space_group_symop_operation_xyz
x,y,z
loop_
_atom_site_type_symbol
_atom_site_label
_atom_site_fract_x
_atom_site_fract_y
_atom_site_fract_z
Si Si1 0.039140 0.925020 0.238340
Si Si2 0.232204 0.771875 0.664548
Si Si3 0.306694 0.447785 0.488662
Si Si4 0.923345 0.169863 0.988247
Si Si5 0.615596 0.493128 0.164984
Si Si6 0.685257 0.255156 0.412350
Si Si7 0.853604 0.426645 0.740858
Si Si8 0.499824 0.748407 0.914891
O O1 0.290231 0.749366 0.394032
O O2 0.819049 0.713071 0.200725
O O3 0.834898 0.209679 0.203033
O O4 0.162696 0.007985 0.145375
O O5 0.594535 0.693885 0.699131
O O6 0.248737 0.884155 0.759200
O O7 0.111110 0.503310 0.707656
O O8 0.956176 0.959498 0.512595
O O9 0.427748 0.265461 0.445543
O O10 0.582687 0.331435 0.640625
O O11 0.944335 0.438981 0.454065
O O12 0.038837 0.246892 0.894293
O O13 0.719870 0.461253 0.952501
O O14 0.704077 0.962468 0.950204
O O15 0.500059 0.382215 0.258923
O O16 0.376254 0.645470 0.007854
#
# Coordination Sequence:
#
# PCOD9000561 Si02
#       8
#     1   1   1   1   1   1   1   1
#     4   9  19  39  66  96 130 169 214 265 322 384
#     4  11  23  41  64  96 131 173 218 269 324 386
#     4  11  23  41  64  96 131 173 218 269 324 386
#     4   9  19  39  66  96 130 169 214 265 322 384
#     4   9  19  39  66  96 130 169 214 265 322 384
#     4  11  23  41  64  96 131 173 218 269 324 386
#     4  11  23  41  64  96 131 173 218 269 324 386
#     4   9  19  39  66  96 130 169 214 265 322 384
#
# _framework density 28.724561999999999
#
# number of rings (size 3 to 8) (size 9 to 14) (size 15 to 20)
#    0.000    2.000    0.000    3.000    0.000    4.000 
#    0.000   22.500    0.000    0.000    0.000    0.000 
#    0.000    0.000    0.000    0.000    0.000    0.000 
#
# Total GULP energy -44781.153568 kJ/mol
# GULP energy per Si atom -5597.644196 kJ/mol
# Density = 2.865918 g / cm^3
# Si number density = 28.724562 Si / 1000 Ang^3
#
#
#
# Elastic Constant Matrix: (Units=GPa)
#
#
# Indices 1 2 3 4 5 6 
#
# 1 99.2523 45.7885 53.7223 -2.6462 -7.2957 -2.2597
# 2 45.7885 166.3953 64.8421 3.2648 10.9180 -3.0417
# 3 53.7223 64.8421 119.3095 -5.0020 -50.5044 -1.8621
# 4 -2.6462 3.2648 -5.0020 58.4719 -1.8452 12.4930
# 5 -7.2957 10.9180 -50.5044 -1.8452 47.6804 -2.5077
# 6 -2.2597 -3.0417 -1.8621 12.4930 -2.5077 39.5912
#
#
#
# Elastic Compliance Matrix: (Units=1/GPa)
#
#
# Indices 1 2 3 4 5 6 
#
# 1 0.015296 0.001331 -0.012321 -0.000772 -0.011048 -0.000060
# 2 0.001331 0.013854 -0.017324 -0.002843 -0.021436 -0.000135
# 3 -0.012321 -0.017324 0.044598 0.005475 0.049611 0.001478
# 4 -0.000772 -0.002843 0.005475 0.019106 0.006776 -0.005605
# 5 -0.011048 -0.021436 0.049611 0.006776 0.077150 0.002804
# 6 -0.000060 -0.000135 0.001478 -0.005605 0.002804 0.027260
#
#
# Mechanical properties :
#
#
# Convention : Reuss Voigt Hill
#
# Bulk Modulus (GPa) = 58.41083 79.29589 68.85336
# Shear Modulus (GPa) = 19.26048 43.85563 31.55806
#
# Velocity S-wave (km/s) = 2.59225 3.91162 3.31818
# Velocity P-wave (km/s) = 5.41652 6.93301 6.22114
#
# Compressibility (1/GPa) = 0.01712011
#
# Stress axis : x y z
#
# Youngs Moduli (GPa) = 65.37607 72.17896 22.42260
#
# Poissons Ratio (x) = -0.09607 0.27626
# Poissons Ratio (y) = -0.08702 0.38846
# Poissons Ratio (z) = 0.80549 1.25046
#
# Static dielectric constant tensor:
#      x y z
#    x 2.115380 -0.013300 0.020430 
#    y -0.013300 2.277570 0.002140 
#    z 0.020430 0.002140 2.309670 
# 
# From -- ./inp_files/623.got.cif
#   From: 2010.05.17/outbox.cif.g08.bks.cpg/sg1_1_cif.got.tgz:623.got - 2010.05.17 20:27:59.
