data_PCOD9000054
_publ_section_title
;
Structure prediction by ZEFSAII (Michael W. Deem and Ramdas Pophale) SiO2 
 PCOD9000054
Probable space group: P 1
;
_chemical_formula_sum "Si O2"
_cell_formula_units_Z 8
_cell_length_a 10.188343
_cell_length_b 7.039839
_cell_length_c 7.042389
_cell_angle_alpha 101.405839
_cell_angle_beta 120.931479
_cell_angle_gamma 46.922791
_cell_volume 306.859054
_symmetry_space_group_name_H-M "P 1"
_symmetry_group_IT_number 1
_symmetry_cell_setting 'triclinic'
loop_
_space_group_symop_operation_xyz
x,y,z
loop_
_atom_site_type_symbol
_atom_site_label
_atom_site_fract_x
_atom_site_fract_y
_atom_site_fract_z
Si Si1 0.033000 0.949310 0.517630
Si Si2 0.050556 0.512115 0.625185
Si Si3 0.512420 0.185968 0.019014
Si Si4 0.385456 0.880677 0.307698
Si Si5 0.688901 0.916836 0.734292
Si Si6 0.618949 0.301701 0.485783
Si Si7 0.477076 0.656171 0.931782
Si Si8 0.934083 0.290662 0.187367
O O1 0.257349 0.855702 0.697818
O O2 0.054657 0.705982 0.541329
O O3 0.846730 0.184885 0.567055
O O4 0.956504 0.067314 0.273665
O O5 0.898443 0.675400 0.726621
O O6 0.968424 0.416574 0.406445
O O7 0.288873 0.279596 0.832624
O O8 0.482259 0.435497 0.979921
O O9 0.684078 0.935424 0.961125
O O10 0.573624 0.164674 0.277552
O O11 0.502944 0.938137 0.530269
O O12 0.447007 0.618587 0.393447
O O13 0.469084 0.799214 0.139557
O O14 0.134126 0.130844 0.168553
O O15 0.629727 0.184318 0.668949
O O16 0.700675 0.502672 0.968722
#
# Coordination Sequence:
#
# PCOD9000054 Si02
#       8
#     1   1   1   1   1   1   1   1
#     4  10  22  44  68  91 134 178 217 280 340 389
#     4  10  22  40  66  96 134 173 224 283 326 402
#     4  10  21  42  65 101 132 172 226 278 334 400
#     4  11  23  41  66  98 134 178 220 277 341 400
#     4  11  22  42  70  92 137 180 220 281 340 396
#     4  10  23  44  69  99 136 176 230 275 341 406
#     4  10  23  43  65  98 138 168 227 284 327 402
#     4  12  22  42  69  93 137 175 218 280 335 401
#
# _framework density 26.070602999999998
#
# number of rings (size 3 to 8) (size 9 to 14) (size 15 to 20)
#    0.000    1.500    5.000    0.000    3.500    5.000 
#    0.000    0.000    5.500    0.000    0.000    0.000 
#    0.000    0.000    0.000    0.000    0.000    0.000 
#
# Total GULP energy -44844.047905 kJ/mol
# GULP energy per Si atom -5605.505988 kJ/mol
# Density = 2.601127 g / cm^3
# Si number density = 26.070603 Si / 1000 Ang^3
#
#
#
# Elastic Constant Matrix: (Units=GPa)
#
#
# Indices 1 2 3 4 5 6 
#
# 1 84.2357 47.8738 30.0435 -2.7798 20.7411 -6.1896
# 2 47.8738 104.1240 42.6478 5.7862 19.2709 -19.7916
# 3 30.0435 42.6478 125.3199 -4.9482 32.1104 -19.7538
# 4 -2.7798 5.7862 -4.9482 40.0143 -8.5886 1.2945
# 5 20.7411 19.2709 32.1104 -8.5886 53.6714 -9.8688
# 6 -6.1896 -19.7916 -19.7538 1.2945 -9.8688 52.4301
#
#
#
# Elastic Compliance Matrix: (Units=1/GPa)
#
#
# Indices 1 2 3 4 5 6 
#
# 1 0.017114 -0.007237 -0.000956 0.001414 -0.003543 -0.001773
# 2 -0.007237 0.015101 -0.002731 -0.003324 -0.000835 0.003742
# 3 -0.000956 -0.002731 0.010643 0.000603 -0.004554 0.001994
# 4 0.001414 -0.003324 0.000603 0.026615 0.004419 -0.000686
# 5 -0.003543 -0.000835 -0.004554 0.004419 0.024097 0.001977
# 6 -0.001773 0.003742 0.001994 -0.000686 0.001977 0.021416
#
#
# Mechanical properties :
#
#
# Convention : Reuss Voigt Hill
#
# Bulk Modulus (GPa) = 47.59786 61.64553 54.62170
# Shear Modulus (GPa) = 34.76119 42.09746 38.42933
#
# Velocity S-wave (km/s) = 3.65547 4.02275 3.84350
# Velocity P-wave (km/s) = 6.00945 6.72857 6.37915
#
# Compressibility (1/GPa) = 0.02100935
#
# Stress axis : x y z
#
# Youngs Moduli (GPa) = 58.43087 66.22231 93.95531
#
# Poissons Ratio (x) = 0.47926 0.08981
# Poissons Ratio (y) = 0.42287 0.25663
# Poissons Ratio (z) = 0.05585 0.18088
#
# Static dielectric constant tensor:
#      x y z
#    x 2.031650 0.014430 0.004280 
#    y 0.014430 2.045430 -0.002910 
#    z 0.004280 -0.002910 1.996820 
# 
# From -- ./inp_files/4170.got.cif
#   From: 2010.05.17/outbox.cif.g08.bks.cpg/sg1_3_cif.got.tgz:4170.got - 2010.05.17 20:27:59.
