data_PCOD9000606
_publ_section_title
;
Structure prediction by ZEFSAII (Michael W. Deem and Ramdas Pophale) SiO2 
 PCOD9000606
Probable space group: P 1
;
_chemical_formula_sum "Si O2"
_cell_formula_units_Z 8
_cell_length_a 10.239466
_cell_length_b 6.719162
_cell_length_c 8.182430
_cell_angle_alpha 96.904780
_cell_angle_beta 42.969881
_cell_angle_gamma 76.531045
_cell_volume 335.380134
_symmetry_space_group_name_H-M "P 1"
_symmetry_group_IT_number 1
_symmetry_cell_setting 'triclinic'
loop_
_space_group_symop_operation_xyz
x,y,z
loop_
_atom_site_type_symbol
_atom_site_label
_atom_site_fract_x
_atom_site_fract_y
_atom_site_fract_z
Si Si1 0.017220 0.994050 0.455760
Si Si2 0.959445 0.817748 0.948531
Si Si3 0.235585 0.532890 0.402083
Si Si4 0.292735 0.781142 0.893030
Si Si5 0.214847 0.366496 0.060774
Si Si6 0.741046 0.278909 0.002227
Si Si7 0.683935 0.030655 0.511260
Si Si8 0.761808 0.445309 0.343509
O O1 0.163112 0.784597 0.420040
O O2 0.175904 0.969918 0.158462
O O3 0.823375 0.959610 0.543926
O O4 0.892145 0.222783 0.698340
O O5 0.084506 0.589016 0.705961
O O6 0.153299 0.852173 0.860355
O O7 0.813554 0.027205 0.984256
O O8 0.800757 0.841886 0.245832
O O9 0.205569 0.395916 0.267185
O O10 0.488320 0.405875 0.202138
O O11 0.549029 0.670496 0.621163
O O12 0.254895 0.572433 0.974433
O O13 0.988345 0.405890 0.202101
O O14 0.427644 0.141304 0.783133
O O15 0.771011 0.415926 0.137167
O O16 0.721774 0.239368 0.429857
#
# Coordination Sequence:
#
# PCOD9000606 Si02
#       8
#     1   1   1   1   1   1   1   1
#     4   9  18  33  58  81 106 145 184 219 269 323
#     4   9  18  33  58  81 106 145 184 219 269 323
#     4  10  18  33  58  83 108 144 180 222 274 319
#     4   9  18  36  57  79 111 143 181 224 266 321
#     4  10  20  35  58  82 109 146 181 220 272 323
#     4  10  18  33  58  83 108 144 180 222 274 319
#     4   9  18  36  57  79 111 143 181 224 266 321
#     4  10  20  35  58  82 109 146 181 220 272 323
#
# _framework density 23.853529000000002
#
# number of rings (size 3 to 8) (size 9 to 14) (size 15 to 20)
#    0.000    2.500    2.500    0.000    0.000    0.000 
#    0.000   13.750    0.000    0.000    0.000    0.000 
#    0.000    0.000    0.000    0.000    0.000    0.000 
#
# Total GULP energy -44729.172613 kJ/mol
# GULP energy per Si atom -5591.146577 kJ/mol
# Density = 2.379924 g / cm^3
# Si number density = 23.853529 Si / 1000 Ang^3
#
#
#
# Elastic Constant Matrix: (Units=GPa)
#
#
# Indices 1 2 3 4 5 6 
#
# 1 188.8155 26.5267 133.5594 13.2142 -5.7141 -10.5466
# 2 26.5267 61.2611 50.5845 12.9890 -7.2188 -8.0237
# 3 133.5594 50.5845 289.9367 26.7933 -10.1092 2.5091
# 4 13.2142 12.9890 26.7933 46.9075 4.9714 -3.7299
# 5 -5.7141 -7.2188 -10.1092 4.9714 55.2918 8.9932
# 6 -10.5466 -8.0237 2.5091 -3.7299 8.9932 34.0246
#
#
#
# Elastic Compliance Matrix: (Units=1/GPa)
#
#
# Indices 1 2 3 4 5 6 
#
# 1 0.008119 -0.000096 -0.003775 0.000162 -0.000347 0.002882
# 2 -0.000096 0.020518 -0.003169 -0.003697 0.001742 0.004177
# 3 -0.003775 -0.003169 0.005961 -0.001781 0.000900 -0.002790
# 4 0.000162 -0.003697 -0.001781 0.023899 -0.003400 0.002828
# 5 -0.000347 0.001742 0.000900 -0.003400 0.019613 -0.005320
# 6 0.002882 0.004177 -0.002790 0.002828 -0.005320 0.033191
#
#
# Mechanical properties :
#
#
# Convention : Reuss Voigt Hill
#
# Bulk Modulus (GPa) = 48.73903 106.81715 77.77809
# Shear Modulus (GPa) = 37.81494 49.20094 43.50794
#
# Velocity S-wave (km/s) = 3.98590 4.54654 4.27542
# Velocity P-wave (km/s) = 6.45447 8.51111 7.55312
#
# Compressibility (1/GPa) = 0.02051744
#
# Stress axis : x y z
#
# Youngs Moduli (GPa) = 123.16183 48.73688 167.75011
#
# Poissons Ratio (x) = 0.00468 0.63333
# Poissons Ratio (y) = 0.01183 0.53165
# Poissons Ratio (z) = 0.46499 0.15446
#
# Static dielectric constant tensor:
#      x y z
#    x 1.872080 0.018980 0.061350 
#    y 0.018980 2.044040 -0.014530 
#    z 0.061350 -0.014530 1.906480 
# 
# From -- ./inp_files/1699.got.cif
#   From: 2010.05.17/outbox.cif.g08.bks.cpg/sg1_1_cif.got.tgz:1699.got - 2010.05.17 20:27:59.
