data_PCOD9000464
_publ_section_title
;
Structure prediction by ZEFSAII (Michael W. Deem and Ramdas Pophale) SiO2 
 PCOD9000464
Probable space group: P 1
;
_chemical_formula_sum "Si O2"
_cell_formula_units_Z 8
_cell_length_a 5.304611
_cell_length_b 13.935107
_cell_length_c 5.357870
_cell_angle_alpha 98.321899
_cell_angle_beta 58.752334
_cell_angle_gamma 86.184165
_cell_volume 330.306593
_symmetry_space_group_name_H-M "P 1"
_symmetry_group_IT_number 1
_symmetry_cell_setting 'triclinic'
loop_
_space_group_symop_operation_xyz
x,y,z
loop_
_atom_site_type_symbol
_atom_site_label
_atom_site_fract_x
_atom_site_fract_y
_atom_site_fract_z
Si Si1 0.061620 0.506940 0.878510
Si Si2 0.804117 0.324510 0.057039
Si Si3 0.516551 0.253705 0.677550
Si Si4 0.035514 0.014825 0.969842
Si Si5 0.633772 0.901629 0.451836
Si Si6 0.664305 0.671339 0.325111
Si Si7 0.163789 0.559928 0.347804
Si Si8 0.584670 0.066790 0.858438
O O1 0.163314 0.480628 0.537664
O O2 0.827863 0.440090 0.066413
O O3 0.279369 0.510459 0.003696
O O4 0.905946 0.621088 0.979338
O O5 0.627225 0.295551 0.895884
O O6 0.157925 0.278301 0.844916
O O7 0.666166 0.295863 0.377980
O O8 0.599182 0.136551 0.641180
O O9 0.234889 0.066285 0.081726
O O10 0.295424 0.961657 0.628615
O O11 0.790657 0.091657 0.982159
O O12 0.865169 0.935133 0.153496
O O13 0.639001 0.786783 0.408228
O O14 0.710488 0.952433 0.689814
O O15 0.363480 0.636980 0.375008
O O16 0.830649 0.615064 0.459302
#
# Coordination Sequence:
#
# PCOD9000464 Si02
#       8
#     1   1   1   1   1   1   1   1
#     4  10  26  44  73  96 146 173 240 278 361 400
#     4  12  28  47  75 108 140 190 234 300 347 434
#     4  12  28  46  76 105 145 183 244 285 367 407
#     4  10  25  40  71  95 140 178 229 281 347 408
#     4  10  26  43  69 101 139 180 233 279 351 408
#     4  10  26  40  70  98 139 182 228 285 342 420
#     4  10  25  41  69  99 136 184 225 288 341 417
#     4  10  26  43  71  98 141 180 229 292 340 424
#
# _framework density 24.219923999999999
#
# number of rings (size 3 to 8) (size 9 to 14) (size 15 to 20)
#    1.500    0.000    0.000    2.250   14.000    0.000 
#    0.000    0.000    0.000    0.000    0.000    0.000 
#    0.000    0.000    0.000    0.000    0.000    0.000 
#
# Total GULP energy -44606.094613 kJ/mol
# GULP energy per Si atom -5575.761827 kJ/mol
# Density = 2.416480 g / cm^3
# Si number density = 24.219924 Si / 1000 Ang^3
#
#
#
# Elastic Constant Matrix: (Units=GPa)
#
#
# Indices 1 2 3 4 5 6 
#
# 1 185.3938 40.0139 66.6462 -13.4320 7.7863 12.5578
# 2 40.0139 92.1043 21.2561 -2.8690 8.5469 12.1610
# 3 66.6462 21.2561 120.3055 -35.0261 10.1393 7.2426
# 4 -13.4320 -2.8690 -35.0261 37.8750 -1.2214 -3.0207
# 5 7.7863 8.5469 10.1393 -1.2214 42.1566 -1.3779
# 6 12.5578 12.1610 7.2426 -3.0207 -1.3779 26.9444
#
#
#
# Elastic Compliance Matrix: (Units=1/GPa)
#
#
# Indices 1 2 3 4 5 6 
#
# 1 0.007275 -0.002079 -0.003963 -0.001367 -0.000059 -0.001543
# 2 -0.002079 0.012779 -0.000958 -0.001106 -0.002164 -0.004776
# 3 -0.003963 -0.000958 0.014264 0.011613 -0.002180 -0.000364
# 4 -0.001367 -0.001106 0.011613 0.036701 -0.001185 0.002069
# 5 -0.000059 -0.002164 -0.002180 -0.001185 0.024750 0.002723
# 6 -0.001543 -0.004776 -0.000364 0.002069 0.002723 0.040457
#
#
# Mechanical properties :
#
#
# Convention : Reuss Voigt Hill
#
# Bulk Modulus (GPa) = 49.22079 72.62621 60.92350
# Shear Modulus (GPa) = 31.84740 39.38769 35.61754
#
# Velocity S-wave (km/s) = 3.63012 4.03706 3.83899
# Velocity P-wave (km/s) = 6.15930 7.19595 6.69771
#
# Compressibility (1/GPa) = 0.02031662
#
# Stress axis : x y z
#
# Youngs Moduli (GPa) = 137.44967 78.25547 70.10775
#
# Poissons Ratio (x) = 0.16273 0.27785
# Poissons Ratio (y) = 0.28582 0.06716
# Poissons Ratio (z) = 0.54474 0.07496
#
# Static dielectric constant tensor:
#      x y z
#    x 1.983760 -0.005980 0.011870 
#    y -0.005980 1.939350 0.047230 
#    z 0.011870 0.047230 1.984910 
# 
# From -- ./inp_files/676.got.cif
#   From: 2010.05.17/outbox.cif.g08.bks.cpg/sg1_1_cif.got.tgz:676.got - 2010.05.17 20:27:59.
