data_PCOD9000739
_publ_section_title
;
Structure prediction by ZEFSAII (Michael W. Deem and Ramdas Pophale) SiO2 
 PCOD9000739
Probable space group: P 1
;
_chemical_formula_sum "Si O2"
_cell_formula_units_Z 8
_cell_length_a 14.327340
_cell_length_b 8.778150
_cell_length_c 11.139240
_cell_angle_alpha 120.986613
_cell_angle_beta 40.347692
_cell_angle_gamma 148.911562
_cell_volume 426.688647
_symmetry_space_group_name_H-M "P 1"
_symmetry_group_IT_number 1
_symmetry_cell_setting 'triclinic'
loop_
_space_group_symop_operation_xyz
x,y,z
loop_
_atom_site_type_symbol
_atom_site_label
_atom_site_fract_x
_atom_site_fract_y
_atom_site_fract_z
Si Si1 0.154490 0.904090 0.569860
Si Si2 0.223544 0.828109 0.068518
Si Si3 0.488623 0.898158 0.616942
Si Si4 0.313696 0.381770 0.449295
Si Si5 0.447154 0.671468 0.196252
Si Si6 0.625525 0.219863 0.364774
Si Si7 0.083184 0.483223 0.306991
Si Si8 0.662013 0.559338 0.017448
O O1 0.096806 0.662227 0.459266
O O2 0.156893 0.060495 0.531049
O O3 0.431137 0.160378 0.469573
O O4 0.925445 0.720300 0.811950
O O5 0.178130 0.648679 0.151878
O O6 0.930447 0.587073 0.220726
O O7 0.416990 0.182052 0.068337
O O8 0.361190 0.870125 0.840436
O O9 0.324897 0.558824 0.598488
O O10 0.528248 0.069516 0.533302
O O11 0.778359 0.122632 0.452893
O O12 0.255248 0.405308 0.384823
O O13 0.595872 0.580267 0.219227
O O14 0.277691 0.538059 0.192272
O O15 0.650410 0.718958 0.006129
O O16 0.589417 0.996709 0.235893
#
# Coordination Sequence:
#
# PCOD9000739 Si02
#       8
#     1   1   1   1   1   1   1   1
#     4  11  20  38  62  88 113 157 192 235 288 345
#     4  11  21  38  62  86 117 155 188 240 292 335
#     4  10  21  38  58  88 118 153 188 243 289 338
#     4   9  21  38  57  84 121 149 188 241 286 336
#     4   8  19  40  56  85 117 152 187 244 278 341
#     4   9  22  38  59  85 120 148 197 237 283 346
#     4  10  19  38  60  86 120 148 196 237 284 347
#     4  10  21  38  60  86 116 152 192 235 286 338
#
# _framework density 18.749036
#
# number of rings (size 3 to 8) (size 9 to 14) (size 15 to 20)
#    0.750    1.500    2.500    0.000    1.750    2.000 
#    2.250    1.250    0.000    0.000    0.000    0.000 
#    0.000    0.000    0.000    0.000    0.000    0.000 
#
# Total GULP energy -44535.001021 kJ/mol
# GULP energy per Si atom -5566.875128 kJ/mol
# Density = 1.870636 g / cm^3
# Si number density = 18.749036 Si / 1000 Ang^3
#
#
#
# Elastic Constant Matrix: (Units=GPa)
#
#
# Indices 1 2 3 4 5 6 
#
# 1 59.9367 15.6454 17.1991 -6.8894 -14.7081 14.2220
# 2 15.6454 35.3180 12.5646 0.7971 -11.4221 -4.4217
# 3 17.1991 12.5646 81.5285 7.5150 -5.5932 3.8238
# 4 -6.8894 0.7971 7.5150 26.8824 7.7761 -0.8177
# 5 -14.7081 -11.4221 -5.5932 7.7761 18.4259 1.1225
# 6 14.2220 -4.4217 3.8238 -0.8177 1.1225 20.5709
#
#
#
# Elastic Compliance Matrix: (Units=1/GPa)
#
#
# Indices 1 2 3 4 5 6 
#
# 1 0.030155 -0.009730 -0.002876 0.003120 0.017264 -0.023223
# 2 -0.009730 0.042251 -0.003021 -0.008256 0.020081 0.014946
# 3 -0.002876 -0.003021 0.014075 -0.005342 0.002458 -0.001624
# 4 0.003120 -0.008256 -0.005342 0.046675 -0.023960 0.000224
# 5 0.017264 0.020081 0.002458 -0.023960 0.092214 -0.014060
# 6 -0.023223 0.014946 -0.001624 0.000224 -0.014060 0.068958
#
#
# Mechanical properties :
#
#
# Convention : Reuss Voigt Hill
#
# Bulk Modulus (GPa) = 18.10702 29.73351 23.92027
# Shear Modulus (GPa) = 14.53527 21.93413 18.23470
#
# Velocity S-wave (km/s) = 2.78736 3.42406 3.12198
# Velocity P-wave (km/s) = 4.47635 5.61475 5.07755
#
# Compressibility (1/GPa) = 0.05522719
#
# Stress axis : x y z
#
# Youngs Moduli (GPa) = 33.16220 23.66807 71.04702
#
# Poissons Ratio (x) = 0.23028 0.20433
# Poissons Ratio (y) = 0.32266 0.21465
# Poissons Ratio (z) = 0.09537 0.07151
#
# Static dielectric constant tensor:
#      x y z
#    x 1.665040 0.001850 0.001650 
#    y 0.001850 1.648460 -0.010220 
#    z 0.001650 -0.010220 1.649780 
# 
# From -- ./inp_files/1109.got.cif
#   From: 2010.05.17/outbox.cif.g08.bks.cpg/sg1_1_cif.got.tgz:1109.got - 2010.05.17 20:27:59.
