data_PCOD9000277
_publ_section_title
;
Structure prediction by ZEFSAII (Michael W. Deem and Ramdas Pophale) SiO2 
 PCOD9000277
Probable space group: P 1
;
_chemical_formula_sum "Si O2"
_cell_formula_units_Z 8
_cell_length_a 7.440894
_cell_length_b 10.446852
_cell_length_c 8.773310
_cell_angle_alpha 151.702683
_cell_angle_beta 84.607395
_cell_angle_gamma 97.293463
_cell_volume 320.446689
_symmetry_space_group_name_H-M "P 1"
_symmetry_group_IT_number 1
_symmetry_cell_setting 'triclinic'
loop_
_space_group_symop_operation_xyz
x,y,z
loop_
_atom_site_type_symbol
_atom_site_label
_atom_site_fract_x
_atom_site_fract_y
_atom_site_fract_z
Si Si1 0.375000 0.231520 0.147110
Si Si2 0.816271 0.116182 0.115385
Si Si3 0.495602 0.798598 0.266295
Si Si4 0.834772 0.858581 0.126471
Si Si5 0.572760 0.733587 0.541179
Si Si6 0.045259 0.376895 0.119811
Si Si7 0.086289 0.869151 0.398255
Si Si8 0.532543 0.398412 0.594892
O O1 0.546823 0.423361 0.269132
O O2 0.225448 0.300101 0.110916
O O3 0.364094 0.367320 0.457637
O O4 0.412044 0.916943 0.802985
O O5 0.630025 0.148455 0.257068
O O6 0.911457 0.346408 0.242609
O O7 0.932201 0.030895 0.161808
O O8 0.752532 0.881969 0.754921
O O9 0.666995 0.971433 0.354044
O O10 0.560154 0.749368 0.378696
O O11 0.302450 0.917767 0.400034
O O12 0.466286 0.510128 0.876381
O O13 0.975685 0.779963 0.160357
O O14 0.715865 0.610088 0.792314
O O15 0.065652 0.649322 0.305643
O O16 0.008747 0.140938 0.749806
#
# Coordination Sequence:
#
# PCOD9000277 Si02
#       8
#     1   1   1   1   1   1   1   1
#     4  11  21  45  67 103 138 187 242 295 356 431
#     4  11  25  46  74 108 146 199 246 303 370 440
#     4  10  22  46  71 103 145 191 242 298 369 433
#     4  10  25  46  70 106 150 191 241 302 371 436
#     4  11  21  42  73  96 143 184 247 289 355 438
#     4  12  27  46  75 107 151 188 254 303 366 435
#     4  12  27  48  72 114 145 198 242 308 369 441
#     4   9  24  43  70 103 142 194 238 296 372 428
#
# _framework density 24.965152
#
# number of rings (size 3 to 8) (size 9 to 14) (size 15 to 20)
#    0.750    0.500    3.750    0.750    3.500    5.000 
#    6.750    0.000    0.000    0.000    0.000    0.000 
#    0.000    0.000    0.000    0.000    0.000    0.000 
#
# Total GULP energy -44548.333749 kJ/mol
# GULP energy per Si atom -5568.541719 kJ/mol
# Density = 2.490833 g / cm^3
# Si number density = 24.965152 Si / 1000 Ang^3
#
#
#
# Elastic Constant Matrix: (Units=GPa)
#
#
# Indices 1 2 3 4 5 6 
#
# 1 89.5383 46.6963 2.3812 -6.8858 5.1972 -4.1547
# 2 46.6963 86.4322 35.5747 -23.4946 10.7089 -10.8551
# 3 2.3812 35.5747 95.4512 -31.7106 0.9977 -12.9414
# 4 -6.8858 -23.4946 -31.7106 50.6260 -6.7838 4.0144
# 5 5.1972 10.7089 0.9977 -6.7838 33.4993 -8.5513
# 6 -4.1547 -10.8551 -12.9414 4.0144 -8.5513 26.4310
#
#
#
# Elastic Compliance Matrix: (Units=1/GPa)
#
#
# Indices 1 2 3 4 5 6 
#
# 1 0.016470 -0.010454 0.003364 -0.000434 0.000655 0.000220
# 2 -0.010454 0.021586 -0.006041 0.004130 -0.003634 0.002461
# 3 0.003364 -0.006041 0.015984 0.007730 0.004031 0.006004
# 4 -0.000434 0.004130 0.007730 0.026854 0.004682 0.002849
# 5 0.000655 -0.003634 0.004031 0.004682 0.034562 0.011055
# 6 0.000220 0.002461 0.006004 0.002849 0.011055 0.044964
#
#
# Mechanical properties :
#
#
# Convention : Reuss Voigt Hill
#
# Bulk Modulus (GPa) = 35.99840 48.96958 42.48399
# Shear Modulus (GPa) = 25.51805 34.56256 30.04030
#
# Velocity S-wave (km/s) = 3.20057 3.72483 3.47261
# Velocity P-wave (km/s) = 5.30179 6.17713 5.75612
#
# Compressibility (1/GPa) = 0.02777902
#
# Stress axis : x y z
#
# Youngs Moduli (GPa) = 60.71668 46.32601 62.56249
#
# Poissons Ratio (x) = 0.48431 -0.21048
# Poissons Ratio (y) = 0.63475 0.37792
# Poissons Ratio (z) = -0.20427 0.27984
#
# Static dielectric constant tensor:
#      x y z
#    x 2.210010 -0.095980 0.002990 
#    y -0.095980 2.106720 -0.012030 
#    z 0.002990 -0.012030 1.970260 
# 
# From -- ./inp_files/4908.got.cif
#   From: 2010.05.17/outbox.cif.g08.bks.cpg/sg1_3_cif.got.tgz:4908.got - 2010.05.17 20:27:59.
