data_PCOD9000509
_publ_section_title
;
Structure prediction by ZEFSAII (Michael W. Deem and Ramdas Pophale) SiO2 
 PCOD9000509
Probable space group: P 1
;
_chemical_formula_sum "Si O2"
_cell_formula_units_Z 8
_cell_length_a 5.653686
_cell_length_b 12.905983
_cell_length_c 4.931902
_cell_angle_alpha 92.652807
_cell_angle_beta 99.744112
_cell_angle_gamma 60.248265
_cell_volume 307.620897
_symmetry_space_group_name_H-M "P 1"
_symmetry_group_IT_number 1
_symmetry_cell_setting 'triclinic'
loop_
_space_group_symop_operation_xyz
x,y,z
loop_
_atom_site_type_symbol
_atom_site_label
_atom_site_fract_x
_atom_site_fract_y
_atom_site_fract_z
Si Si1 0.919180 0.525550 0.057070
Si Si2 0.740518 0.721890 0.648279
Si Si3 0.852572 0.910062 0.912896
Si Si4 0.645735 0.327318 0.691281
Si Si5 0.432519 0.861534 0.085157
Si Si6 0.167394 0.239077 0.088400
Si Si7 0.487054 0.142801 0.615937
Si Si8 0.471076 0.493466 0.191167
O O1 0.620462 0.566518 0.139129
O O2 0.050679 0.382220 0.085089
O O3 0.151900 0.552976 0.229680
O O4 0.865803 0.586701 0.757630
O O5 0.927259 0.779515 0.793686
O O6 0.630881 0.769856 0.337696
O O7 0.473595 0.793956 0.799530
O O8 0.728448 0.008363 0.662565
O O9 0.584945 0.937716 0.051943
O O10 0.111217 0.913981 0.094930
O O11 0.535803 0.247205 0.522787
O O12 0.652921 0.407992 0.460338
O O13 0.481762 0.417954 0.915863
O O14 0.926090 0.233078 0.878264
O O15 0.233502 0.168724 0.374424
O O16 0.416649 0.182368 0.918362
#
# Coordination Sequence:
#
# PCOD9000509 Si02
#       8
#     1   1   1   1   1   1   1   1
#     4  11  24  46  69 104 140 179 226 280 343 411
#     4  10  27  45  75 100 139 181 228 286 342 404
#     4  10  28  46  72 102 137 180 236 281 344 398
#     4  11  23  43  63  98 140 179 223 273 336 403
#     4  10  26  47  69 102 136 178 236 281 339 400
#     4  11  25  42  65 103 135 181 223 277 341 411
#     4  12  24  42  71  96 139 180 225 281 341 407
#     4  11  25  41  68  97 140 180 223 273 336 406
#
# _framework density 26.006036000000002
#
# number of rings (size 3 to 8) (size 9 to 14) (size 15 to 20)
#    0.750    0.500    2.500    1.500    7.000    4.000 
#    0.000    0.000    0.000    0.000    0.000    0.000 
#    0.000    0.000    0.000    0.000    0.000    0.000 
#
# Total GULP energy -44617.110272 kJ/mol
# GULP energy per Si atom -5577.138784 kJ/mol
# Density = 2.594685 g / cm^3
# Si number density = 26.006036 Si / 1000 Ang^3
#
#
#
# Elastic Constant Matrix: (Units=GPa)
#
#
# Indices 1 2 3 4 5 6 
#
# 1 165.8768 14.0972 29.5132 -10.1558 9.8147 11.3969
# 2 14.0972 70.0530 29.0057 -17.5813 -6.2247 7.9768
# 3 29.5132 29.0057 140.7434 -25.0904 -1.5147 2.2402
# 4 -10.1558 -17.5813 -25.0904 36.3896 -5.5777 0.5743
# 5 9.8147 -6.2247 -1.5147 -5.5777 36.3170 -5.5048
# 6 11.3969 7.9768 2.2402 0.5743 -5.5048 18.4565
#
#
#
# Elastic Compliance Matrix: (Units=1/GPa)
#
#
# Indices 1 2 3 4 5 6 
#
# 1 0.006782 -0.000438 -0.001190 0.000539 -0.002578 -0.004640
# 2 -0.000438 0.018268 -0.002132 0.007854 0.003365 -0.006607
# 3 -0.001190 -0.002132 0.008643 0.004764 0.001171 0.000808
# 4 0.000539 0.007854 0.004764 0.035740 0.006354 -0.003522
# 5 -0.002578 0.003365 0.001171 0.006354 0.031214 0.009107
# 6 -0.004640 -0.006607 0.000808 -0.003522 0.009107 0.062630
#
#
# Mechanical properties :
#
#
# Convention : Reuss Voigt Hill
#
# Bulk Modulus (GPa) = 38.20416 57.98950 48.09683
# Shear Modulus (GPa) = 27.85212 38.50309 33.17761
#
# Velocity S-wave (km/s) = 3.27614 3.85196 3.57566
# Velocity P-wave (km/s) = 5.38825 6.49079 5.96505
#
# Compressibility (1/GPa) = 0.02617516
#
# Stress axis : x y z
#
# Youngs Moduli (GPa) = 147.45427 54.74025 115.70149
#
# Poissons Ratio (x) = 0.02395 0.13765
# Poissons Ratio (y) = 0.06452 0.24662
# Poissons Ratio (z) = 0.17543 0.11668
#
# Static dielectric constant tensor:
#      x y z
#    x 2.173020 -0.040080 -0.018590 
#    y -0.040080 2.059090 0.053420 
#    z -0.018590 0.053420 1.958600 
# 
# From -- ./inp_files/504.got.cif
#   From: 2010.05.17/outbox.cif.g08.bks.cpg/sg1_1_cif.got.tgz:504.got - 2010.05.17 20:27:59.
