data_PCOD9000009
_publ_section_title
;
Structure prediction by ZEFSAII (Michael W. Deem and Ramdas Pophale) SiO2 
 PCOD9000009
Probable space group: P 1
;
_chemical_formula_sum "Si O2"
_cell_formula_units_Z 8
_cell_length_a 7.339596
_cell_length_b 9.772485
_cell_length_c 7.453690
_cell_angle_alpha 119.502955
_cell_angle_beta 98.300829
_cell_angle_gamma 45.795481
_cell_volume 316.132377
_symmetry_space_group_name_H-M "P 1"
_symmetry_group_IT_number 1
_symmetry_cell_setting 'triclinic'
loop_
_space_group_symop_operation_xyz
x,y,z
loop_
_atom_site_type_symbol
_atom_site_label
_atom_site_fract_x
_atom_site_fract_y
_atom_site_fract_z
Si Si1 0.109230 0.906460 0.489770
Si Si2 0.994184 0.532673 0.685574
Si Si3 0.592943 0.213020 0.437178
Si Si4 0.346670 0.451004 0.190826
Si Si5 0.646518 0.809489 0.122649
Si Si6 0.166269 0.026777 0.931940
Si Si7 0.864268 0.517138 0.272766
Si Si8 0.820939 0.970347 0.820265
O O1 0.284729 0.666528 0.259813
O O2 0.937228 0.896668 0.590789
O O3 0.244205 0.934473 0.677065
O O4 0.859801 0.133711 0.495625
O O5 0.313292 0.365793 0.606725
O O6 0.895164 0.488792 0.475206
O O7 0.887703 0.570939 0.895333
O O8 0.835414 0.791805 0.786191
O O9 0.502144 0.362626 0.344770
O O10 0.675987 0.980071 0.254681
O O11 0.098820 0.492290 0.229443
O O12 0.539619 0.231048 0.949987
O O13 0.392511 0.939602 0.043128
O O14 0.619110 0.747388 0.275770
O O15 0.939004 0.300064 0.070132
O O16 0.032204 0.951236 0.938390
#
# Coordination Sequence:
#
# PCOD9000009 Si02
#       8
#     1   1   1   1   1   1   1   1
#     4  10  23  39  63  91 125 166 206 265 317 367
#     4  11  22  42  71  96 126 172 219 266 315 381
#     4  11  20  39  66  94 123 161 224 260 303 391
#     4  11  20  40  65  90 125 162 218 262 301 387
#     4  12  23  41  69  93 130 174 213 261 328 375
#     4  10  23  43  59  96 138 157 211 276 313 384
#     4  11  22  42  64  97 130 166 217 265 312 389
#     4  10  21  40  63  89 129 166 204 265 323 362
#
# _framework density 25.305855000000001
#
# number of rings (size 3 to 8) (size 9 to 14) (size 15 to 20)
#    0.750    0.500    7.500    0.000    1.750    3.000 
#    2.250    1.250    0.000    0.000    0.000    0.000 
#    0.000    0.000    0.000    0.000    0.000    0.000 
#
# Total GULP energy -44648.371602 kJ/mol
# GULP energy per Si atom -5581.046450 kJ/mol
# Density = 2.524826 g / cm^3
# Si number density = 25.305855 Si / 1000 Ang^3
#
#
#
# Elastic Constant Matrix: (Units=GPa)
#
#
# Indices 1 2 3 4 5 6 
#
# 1 33.7061 0.5334 7.4841 -2.1923 6.9184 -4.2313
# 2 0.5334 113.4671 16.6670 -16.0801 9.6880 -22.5639
# 3 7.4841 16.6670 102.7149 15.3908 0.2051 -5.2527
# 4 -2.1923 -16.0801 15.3908 47.5984 -2.1446 5.9146
# 5 6.9184 9.6880 0.2051 -2.1446 36.7945 -1.8511
# 6 -4.2313 -22.5639 -5.2527 5.9146 -1.8511 31.8935
#
#
#
# Elastic Compliance Matrix: (Units=1/GPa)
#
#
# Indices 1 2 3 4 5 6 
#
# 1 0.032229 0.001984 -0.002762 0.002214 -0.006214 0.004453
# 2 0.001984 0.011266 -0.002144 0.003590 -0.002763 0.007055
# 3 -0.002762 -0.002144 0.010994 -0.004470 0.000802 0.000803
# 4 0.002214 0.003590 -0.004470 0.024061 -0.000053 -0.002368
# 5 -0.006214 -0.002763 0.000802 -0.000053 0.029018 -0.000953
# 6 0.004453 0.007055 0.000803 -0.002368 -0.000953 0.037452
#
#
# Mechanical properties :
#
#
# Convention : Reuss Voigt Hill
#
# Bulk Modulus (GPa) = 20.55712 33.25079 26.90395
# Shear Modulus (GPa) = 29.92582 38.27085 34.09833
#
# Velocity S-wave (km/s) = 3.44257 3.89309 3.67474
# Velocity P-wave (km/s) = 4.89314 5.77722 5.35346
#
# Compressibility (1/GPa) = 0.04864496
#
# Stress axis : x y z
#
# Youngs Moduli (GPa) = 31.02832 88.76027 90.95766
#
# Poissons Ratio (x) = -0.17611 0.25122
# Poissons Ratio (y) = -0.06156 0.19504
# Poissons Ratio (z) = 0.08570 0.19033
#
# Static dielectric constant tensor:
#      x y z
#    x 2.016270 -0.044610 -0.064000 
#    y -0.044610 2.136050 -0.031590 
#    z -0.064000 -0.031590 2.069490 
# 
# From -- ./inp_files/4090.got.cif
#   From: 2010.05.17/outbox.cif.g08.bks.cpg/sg1_3_cif.got.tgz:4090.got - 2010.05.17 20:27:59.
