data_PCOD9000493
_publ_section_title
;
Structure prediction by ZEFSAII (Michael W. Deem and Ramdas Pophale) SiO2 
 PCOD9000493
Probable space group: P 1
;
_chemical_formula_sum "Si O2"
_cell_formula_units_Z 8
_cell_length_a 13.148187
_cell_length_b 5.234563
_cell_length_c 4.869058
_cell_angle_alpha 83.779734
_cell_angle_beta 117.881719
_cell_angle_gamma 86.096467
_cell_volume 291.766270
_symmetry_space_group_name_H-M "P 1"
_symmetry_group_IT_number 1
_symmetry_cell_setting 'triclinic'
loop_
_space_group_symop_operation_xyz
x,y,z
loop_
_atom_site_type_symbol
_atom_site_label
_atom_site_fract_x
_atom_site_fract_y
_atom_site_fract_z
Si Si1 0.433690 0.751470 0.273810
Si Si2 0.028329 0.603643 0.275071
Si Si3 0.399399 0.082781 0.676800
Si Si4 0.792490 0.620446 0.232531
Si Si5 0.577430 0.370274 0.086727
Si Si6 0.207218 0.827666 0.214813
Si Si7 0.750445 0.970207 0.632161
Si Si8 0.984196 0.140911 0.900811
O O1 0.471466 0.864184 0.597163
O O2 0.523092 0.565829 0.229972
O O3 0.307107 0.663901 0.182909
O O4 0.397139 0.995743 0.997937
O O5 0.985718 0.912484 0.161018
O O6 0.015963 0.406157 0.031100
O O7 0.928846 0.517241 0.357007
O O8 0.164106 0.638964 0.416114
O O9 0.272148 0.054039 0.403638
O O10 0.474598 0.316764 0.758301
O O11 0.688894 0.453471 0.063946
O O12 0.781931 0.713569 0.520450
O O13 0.756406 0.872688 0.961909
O O14 0.630780 0.114746 0.352226
O O15 0.094135 0.979220 0.896619
O O16 0.850499 0.145691 0.653829
#
# Coordination Sequence:
#
# PCOD9000493 Si02
#       8
#     1   1   1   1   1   1   1   1
#     4  10  25  49  70 115 149 206 262 320 392 473
#     4   9  21  46  76 112 151 200 256 328 397 470
#     4  10  25  49  70 115 149 206 262 320 392 473
#     4  11  28  49  73 116 157 202 263 326 402 480
#     4  12  28  46  84 108 164 214 258 328 408 482
#     4   8  22  46  76 104 156 196 266 332 388 474
#     4  11  28  49  73 116 157 202 263 326 402 480
#     4   9  21  46  76 112 151 200 256 328 397 470
#
# _framework density 27.419205999999999
#
# number of rings (size 3 to 8) (size 9 to 14) (size 15 to 20)
#    1.500    0.500    0.000    0.750    7.000   10.000 
#    0.000    0.000    0.000    0.000    0.000    0.000 
#    0.000    0.000    0.000    0.000    0.000    0.000 
#
# Total GULP energy -44579.191334 kJ/mol
# GULP energy per Si atom -5572.398917 kJ/mol
# Density = 2.735680 g / cm^3
# Si number density = 27.419206 Si / 1000 Ang^3
#
#
#
# Elastic Constant Matrix: (Units=GPa)
#
#
# Indices 1 2 3 4 5 6 
#
# 1 180.2897 32.2143 38.7919 10.4591 19.9748 24.1630
# 2 32.2143 77.9614 29.9560 27.2922 7.5355 12.1988
# 3 38.7919 29.9560 91.7234 18.8957 13.2687 5.9443
# 4 10.4591 27.2922 18.8957 38.1755 5.8022 14.6481
# 5 19.9748 7.5355 13.2687 5.8022 45.2722 9.3610
# 6 24.1630 12.1988 5.9443 14.6481 9.3610 55.3801
#
#
#
# Elastic Compliance Matrix: (Units=1/GPa)
#
#
# Indices 1 2 3 4 5 6 
#
# 1 0.006804 -0.002092 -0.002178 0.001930 -0.001748 -0.002489
# 2 -0.002092 0.018805 -0.002912 -0.011484 0.000097 0.000104
# 3 -0.002178 -0.002912 0.013942 -0.004506 -0.002414 0.001695
# 4 0.001930 -0.011484 -0.004506 0.039354 -0.000994 -0.008070
# 5 -0.001748 0.000097 -0.002414 -0.000994 0.024266 -0.002838
# 6 -0.002489 0.000104 0.001695 -0.008070 -0.002838 0.021552
#
#
# Mechanical properties :
#
#
# Convention : Reuss Voigt Hill
#
# Bulk Modulus (GPa) = 39.70151 61.32209 50.51180
# Shear Modulus (GPa) = 33.90237 44.36636 39.13437
#
# Velocity S-wave (km/s) = 3.52013 4.02690 3.78201
# Velocity P-wave (km/s) = 5.57069 6.63584 6.12646
#
# Compressibility (1/GPa) = 0.02518796
#
# Stress axis : x y z
#
# Youngs Moduli (GPa) = 146.96400 53.17825 71.72607
#
# Poissons Ratio (x) = 0.11125 0.15621
# Poissons Ratio (y) = 0.30745 0.20884
# Poissons Ratio (z) = 0.32007 0.15483
#
# Static dielectric constant tensor:
#      x y z
#    x 2.219790 0.067810 0.055130 
#    y 0.067810 2.218540 -0.079360 
#    z 0.055130 -0.079360 2.087030 
# 
# From -- ./inp_files/2575.got.cif
#   From: 2010.05.17/outbox.cif.g08.bks.cpg/sg1_2_cif.got.tgz:2575.got - 2010.05.17 20:27:59.
