data_PCOD9000331
_publ_section_title
;
Structure prediction by ZEFSAII (Michael W. Deem and Ramdas Pophale) SiO2 
 PCOD9000331
Probable space group: P 1
;
_chemical_formula_sum "Si O2"
_cell_formula_units_Z 6
_cell_length_a 4.906915
_cell_length_b 8.124443
_cell_length_c 6.153736
_cell_angle_alpha 117.150509
_cell_angle_beta 96.724439
_cell_angle_gamma 86.123612
_cell_volume 216.762889
_symmetry_space_group_name_H-M "P 1"
_symmetry_group_IT_number 1
_symmetry_cell_setting 'triclinic'
loop_
_space_group_symop_operation_xyz
x,y,z
loop_
_atom_site_type_symbol
_atom_site_label
_atom_site_fract_x
_atom_site_fract_y
_atom_site_fract_z
Si Si1 0.515350 0.538510 0.569620
Si Si2 0.445644 0.264000 0.042640
Si Si3 0.013302 0.724544 0.523181
Si Si4 0.817215 0.553469 0.019496
Si Si5 0.617779 0.981406 0.205054
Si Si6 0.135735 0.096855 0.552504
O O1 0.390520 0.363838 0.327715
O O2 0.238376 0.652154 0.671740
O O3 0.734639 0.475189 0.730260
O O4 0.705520 0.670583 0.521450
O O5 0.523822 0.057997 0.007127
O O6 0.228619 0.259256 0.821420
O O7 0.688667 0.390141 0.053390
O O8 0.038607 0.938634 0.614089
O O9 0.070970 0.622870 0.232663
O O10 0.683037 0.762137 0.091788
O O11 0.399134 0.027637 0.400247
O O12 0.890686 0.096160 0.356426
#
# Coordination Sequence:
#
# PCOD9000331 Si02
#       6
#     1   1   1   1   1   1
#     4  11  24  42  67  99 132 172 218 267 326 388
#     4  11  25  43  69  99 133 172 217 270 326 387
#     4  10  23  43  68  97 131 175 219 265 325 387
#     4  10  24  45  69  96 133 173 218 269 324 387
#     4  11  26  45  68  97 131 174 219 268 324 385
#     4  11  24  44  67  98 134 170 219 271 323 386
#
# _framework density 27.680015999999998
#
# number of rings (size 3 to 8) (size 9 to 14) (size 15 to 20)
#    0.000    1.333    0.000    5.000    0.000   18.667 
#    0.000    0.000    0.000    0.000    0.000    0.000 
#    0.000    0.000    0.000    0.000    0.000    0.000 
#
# Total GULP energy -33501.581083 kJ/mol
# GULP energy per Si atom -5583.596847 kJ/mol
# Density = 2.761702 g / cm^3
# Si number density = 27.680016 Si / 1000 Ang^3
#
#
#
# Elastic Constant Matrix: (Units=GPa)
#
#
# Indices 1 2 3 4 5 6 
#
# 1 112.8780 -8.6401 6.4356 5.1435 29.3295 6.5429
# 2 -8.6401 109.4225 -6.3055 -14.7785 -1.6051 13.3290
# 3 6.4356 -6.3055 85.3240 6.3815 42.6556 -5.4982
# 4 5.1435 -14.7785 6.3815 54.4440 -3.9028 17.0402
# 5 29.3295 -1.6051 42.6556 -3.9028 57.4772 -7.4076
# 6 6.5429 13.3290 -5.4982 17.0402 -7.4076 40.1655
#
#
#
# Elastic Compliance Matrix: (Units=1/GPa)
#
#
# Indices 1 2 3 4 5 6 
#
# 1 0.011231 0.001216 0.003465 -0.000817 -0.008713 -0.003019
# 2 0.001216 0.010534 0.000596 0.004369 -0.001205 -0.005688
# 3 0.003465 0.000596 0.020362 -0.003949 -0.017060 0.000554
# 4 -0.000817 0.004369 -0.003949 0.023899 0.003632 -0.011326
# 5 -0.008713 -0.001205 -0.017060 0.003632 0.035292 0.004452
# 6 -0.003019 -0.005688 0.000554 -0.011326 0.004452 0.032978
#
#
# Mechanical properties :
#
#
# Convention : Reuss Voigt Hill
#
# Bulk Modulus (GPa) = 18.98171 32.28940 25.63556
# Shear Modulus (GPa) = 35.38503 51.49298 43.43901
#
# Velocity S-wave (km/s) = 3.57930 4.31779 3.96577
# Velocity P-wave (km/s) = 4.89431 6.04552 5.50012
#
# Compressibility (1/GPa) = 0.05268229
#
# Stress axis : x y z
#
# Youngs Moduli (GPa) = 89.04069 94.92625 49.11020
#
# Poissons Ratio (x) = -0.11544 -0.17018
# Poissons Ratio (y) = -0.10829 -0.02927
# Poissons Ratio (z) = -0.30854 -0.05657
#
# Static dielectric constant tensor:
#      x y z
#    x 2.133710 -0.091720 -0.095260 
#    y -0.091720 2.135390 0.026380 
#    z -0.095260 0.026380 2.341500 
# 
# From -- ./inp_files/195.got.cif
#   From: 2010.05.17/outbox.cif.g08.bks.cpg/sg1_1_cif.got.tgz:195.got - 2010.05.17 20:27:59.
