data_PCOD9000031
_publ_section_title
;
Structure prediction by ZEFSAII (Michael W. Deem and Ramdas Pophale) SiO2 
 PCOD9000031
Probable space group: P 1
;
_chemical_formula_sum "Si O2"
_cell_formula_units_Z 8
_cell_length_a 11.596012
_cell_length_b 5.186437
_cell_length_c 9.913985
_cell_angle_alpha 107.134802
_cell_angle_beta 49.677203
_cell_angle_gamma 80.112300
_cell_volume 376.867140
_symmetry_space_group_name_H-M "P 1"
_symmetry_group_IT_number 1
_symmetry_cell_setting 'triclinic'
loop_
_space_group_symop_operation_xyz
x,y,z
loop_
_atom_site_type_symbol
_atom_site_label
_atom_site_fract_x
_atom_site_fract_y
_atom_site_fract_z
Si Si1 0.447230 0.212070 0.406070
Si Si2 0.055534 0.656717 0.827560
Si Si3 0.486488 0.794074 0.072491
Si Si4 0.139223 0.818086 0.399389
Si Si5 0.638508 0.586877 0.311871
Si Si6 0.834242 0.399062 0.850875
Si Si7 0.180734 0.173173 0.193577
Si Si8 0.004623 0.310541 0.062930
O O1 0.242962 0.444772 0.588301
O O2 0.543202 0.401986 0.398412
O O3 0.502812 0.041608 0.193369
O O4 0.502790 0.942042 0.433538
O O5 0.911031 0.633871 0.843321
O O6 0.053846 0.490427 0.943322
O O7 0.027820 0.991383 0.934759
O O8 0.387032 0.948543 0.033077
O O9 0.340692 0.738818 0.252707
O O10 0.680049 0.505171 0.874924
O O11 0.095808 0.006309 0.318924
O O12 0.001192 0.064062 0.645701
O O13 0.132164 0.504980 0.345030
O O14 0.797273 0.528564 0.279509
O O15 0.735223 0.440492 0.073247
O O16 0.120450 0.225857 0.094897
#
# Coordination Sequence:
#
# PCOD9000031 Si02
#       8
#     1   1   1   1   1   1   1   1
#     4  11  21  39  60  93 125 149 199 253 316 346
#     4  11  22  38  65  91 120 158 201 253 300 364
#     4   9  22  37  63  88 126 153 193 256 296 359
#     4  10  22  39  61  92 118 163 196 252 296 361
#     4  10  23  36  63  88 124 159 189 259 300 360
#     4  10  21  41  63 100 116 157 201 251 315 354
#     4  10  23  41  60  82 123 169 200 242 300 349
#     4  11  22  41  61  86 120 166 207 238 299 361
#
# _framework density 21.227640000000001
#
# number of rings (size 3 to 8) (size 9 to 14) (size 15 to 20)
#    0.750    1.000    1.250    3.750    3.500    6.000 
#    0.000    3.750    0.000    0.000    0.000    0.000 
#    0.000    0.000    0.000    0.000    0.000    0.000 
#
# Total GULP energy -44658.427888 kJ/mol
# GULP energy per Si atom -5582.303486 kJ/mol
# Density = 2.117932 g / cm^3
# Si number density = 21.227640 Si / 1000 Ang^3
#
#
#
# Elastic Constant Matrix: (Units=GPa)
#
#
# Indices 1 2 3 4 5 6 
#
# 1 118.3214 2.1687 18.7483 8.7609 -19.3321 -21.5129
# 2 2.1687 63.7468 -4.8147 12.8996 7.8850 -8.8695
# 3 18.7483 -4.8147 53.0367 11.5881 -22.3770 3.6541
# 4 8.7609 12.8996 11.5881 29.2294 -3.1641 0.2922
# 5 -19.3321 7.8850 -22.3770 -3.1641 24.8562 1.0721
# 6 -21.5129 -8.8695 3.6541 0.2922 1.0721 23.6098
#
#
#
# Elastic Compliance Matrix: (Units=1/GPa)
#
#
# Indices 1 2 3 4 5 6 
#
# 1 0.012045 0.000718 -0.001387 -0.002724 0.007063 0.011173
# 2 0.000718 0.019737 0.000009 -0.009806 -0.007311 0.008520
# 3 -0.001387 0.000009 0.034189 -0.009952 0.028764 -0.007735
# 4 -0.002724 -0.009806 -0.009952 0.043107 -0.002262 -0.005056
# 5 0.007063 -0.007311 0.028764 -0.002262 0.073827 -0.004087
# 6 0.011173 0.008520 -0.007735 -0.005056 -0.004087 0.057182
#
#
# Mechanical properties :
#
#
# Convention : Reuss Voigt Hill
#
# Bulk Modulus (GPa) = 15.46775 29.70104 22.58440
# Shear Modulus (GPa) = 19.01427 30.13928 24.57678
#
# Velocity S-wave (km/s) = 2.99612 3.77213 3.40630
# Velocity P-wave (km/s) = 4.38993 5.74404 5.11202
#
# Compressibility (1/GPa) = 0.06465063
#
# Stress axis : x y z
#
# Youngs Moduli (GPa) = 83.01954 50.66536 29.24877
#
# Poissons Ratio (x) = -0.03636 0.04058
# Poissons Ratio (y) = -0.05957 -0.00027
# Poissons Ratio (z) = 0.11519 -0.00046
#
# Static dielectric constant tensor:
#      x y z
#    x 1.804770 -0.042460 -0.029760 
#    y -0.042460 1.807840 0.000520 
#    z -0.029760 0.000520 1.777680 
# 
# From -- ./inp_files/6184.got.cif
#   From: 2010.05.17/outbox.cif.g08.bks.cpg/sg1_4_cif.got.tgz:6184.got - 2010.05.17 20:27:59.
