data_PCOD9000109
_publ_section_title
;
Structure prediction by ZEFSAII (Michael W. Deem and Ramdas Pophale) SiO2 
 PCOD9000109
Probable space group: P 1
;
_chemical_formula_sum "Si O2"
_cell_formula_units_Z 8
_cell_length_a 7.249651
_cell_length_b 7.543890
_cell_length_c 11.428804
_cell_angle_alpha 70.389865
_cell_angle_beta 107.249389
_cell_angle_gamma 59.237789
_cell_volume 412.728499
_symmetry_space_group_name_H-M "P 1"
_symmetry_group_IT_number 1
_symmetry_cell_setting 'triclinic'
loop_
_space_group_symop_operation_xyz
x,y,z
loop_
_atom_site_type_symbol
_atom_site_label
_atom_site_fract_x
_atom_site_fract_y
_atom_site_fract_z
Si Si1 0.205730 0.425550 0.517430
Si Si2 0.093239 0.866977 0.509736
Si Si3 0.510630 0.860222 0.688575
Si Si4 0.596853 0.618719 0.009711
Si Si5 0.038939 0.555773 0.190902
Si Si6 0.499730 0.044653 0.017576
Si Si7 0.537207 0.267759 0.188709
Si Si8 0.013590 0.567483 0.691051
O O1 0.259544 0.607879 0.519554
O O2 0.444751 0.122473 0.639786
O O3 0.092244 0.491558 0.351877
O O4 0.003809 0.506269 0.566988
O O5 0.030767 0.781862 0.631669
O O6 0.262560 0.934560 0.558423
O O7 0.818459 0.085357 0.345632
O O8 0.542962 0.728940 0.845460
O O9 0.769734 0.671678 0.700716
O O10 0.525188 0.453519 0.058539
O O11 0.903153 0.460131 0.131403
O O12 0.450396 0.857888 0.019809
O O13 0.302249 0.432240 0.200714
O O14 0.800619 0.865071 0.066913
O O15 0.505534 0.103014 0.139972
O O16 0.281973 0.309711 0.852030
#
# Coordination Sequence:
#
# PCOD9000109 Si02
#       8
#     1   1   1   1   1   1   1   1
#     4  10  21  45  60  93 129 152 215 258 291 380
#     4  10  23  41  62  96 123 161 210 250 302 379
#     4  12  22  43  66  90 128 165 202 257 315 358
#     4  10  23  41  62  96 123 161 210 250 302 379
#     4  10  22  43  64  91 124 166 201 257 312 355
#     4  10  21  45  60  93 129 152 215 258 291 380
#     4  12  22  43  66  90 128 165 202 257 315 358
#     4  10  22  43  64  91 124 166 201 257 312 355
#
# _framework density 19.383201
#
# number of rings (size 3 to 8) (size 9 to 14) (size 15 to 20)
#    1.500    0.000    2.500    3.000    0.000    0.000 
#   13.500    0.000    0.000    0.000    0.000    0.000 
#    0.000    0.000    0.000    0.000    0.000    0.000 
#
# Total GULP energy -44548.875612 kJ/mol
# GULP energy per Si atom -5568.609451 kJ/mol
# Density = 1.933908 g / cm^3
# Si number density = 19.383201 Si / 1000 Ang^3
#
#
#
# Elastic Constant Matrix: (Units=GPa)
#
#
# Indices 1 2 3 4 5 6 
#
# 1 57.2400 42.9583 38.1958 3.7657 0.0066 -17.2511
# 2 42.9583 92.8756 34.4398 2.5363 -3.0728 -26.9603
# 3 38.1958 34.4398 74.6885 0.6898 0.9037 -22.4592
# 4 3.7657 2.5363 0.6898 27.9034 11.0579 -0.4277
# 5 0.0066 -3.0728 0.9037 11.0579 13.8072 1.0625
# 6 -17.2511 -26.9603 -22.4592 -0.4277 1.0625 24.8426
#
#
#
# Elastic Compliance Matrix: (Units=1/GPa)
#
#
# Indices 1 2 3 4 5 6 
#
# 1 0.034385 -0.010988 -0.012281 -0.003879 0.001393 0.000723
# 2 -0.010988 0.020013 0.000703 -0.002108 0.004988 0.014475
# 3 -0.012281 0.000703 0.023515 0.003206 -0.005004 0.013762
# 4 -0.003879 -0.002108 0.003206 0.053874 -0.043880 0.000721
# 5 0.001393 0.004988 -0.005004 -0.043880 0.109280 -0.003572
# 6 0.000723 0.014475 0.013762 0.000721 -0.003572 0.069071
#
#
# Mechanical properties :
#
#
# Convention : Reuss Voigt Hill
#
# Bulk Modulus (GPa) = 30.50671 50.66578 40.58625
# Shear Modulus (GPa) = 13.65376 20.59131 17.12253
#
# Velocity S-wave (km/s) = 2.65696 3.26287 2.97538
# Velocity P-wave (km/s) = 5.01851 6.35538 5.72610
#
# Compressibility (1/GPa) = 0.03277967
#
# Stress axis : x y z
#
# Youngs Moduli (GPa) = 29.08228 49.96666 42.52616
#
# Poissons Ratio (x) = 0.54905 0.52228
# Poissons Ratio (y) = 0.31956 -0.02988
# Poissons Ratio (z) = 0.35717 -0.03511
#
# Static dielectric constant tensor:
#      x y z
#    x 1.653000 0.021220 0.004770 
#    y 0.021220 1.701420 -0.001560 
#    z 0.004770 -0.001560 1.694090 
# 
# From -- ./inp_files/5955.got.cif
#   From: 2010.05.17/outbox.cif.g08.bks.cpg/sg1_3_cif.got.tgz:5955.got - 2010.05.17 20:27:59.
