data_PCOD9000880
_publ_section_title
;
Structure prediction by ZEFSAII (Michael W. Deem and Ramdas Pophale) SiO2 
 PCOD9000880
Probable space group: P 1
;
_chemical_formula_sum "Si O2"
_cell_formula_units_Z 6
_cell_length_a 9.519597
_cell_length_b 7.681890
_cell_length_c 5.402677
_cell_angle_alpha 58.831750
_cell_angle_beta 48.177092
_cell_angle_gamma 45.497522
_cell_volume 209.052846
_symmetry_space_group_name_H-M "P 1"
_symmetry_group_IT_number 1
_symmetry_cell_setting 'triclinic'
loop_
_space_group_symop_operation_xyz
x,y,z
loop_
_atom_site_type_symbol
_atom_site_label
_atom_site_fract_x
_atom_site_fract_y
_atom_site_fract_z
Si Si1 0.514220 0.466020 0.737110
Si Si2 0.514929 0.938681 0.946988
Si Si3 0.658512 0.823640 0.365703
Si Si4 0.916304 0.431553 0.714604
Si Si5 0.262279 0.505459 0.511258
Si Si6 0.020059 0.066080 0.498499
O O1 0.497116 0.723544 0.585318
O O2 0.376615 0.447114 0.690519
O O3 0.781032 0.271037 0.509985
O O4 0.418268 0.456651 0.123730
O O5 0.620798 0.964871 0.052883
O O6 0.251639 0.050446 0.188564
O O7 0.572915 0.002048 0.568802
O O8 0.668765 0.637989 0.960792
O O9 0.891896 0.584913 0.374302
O O10 0.104569 0.412500 0.681343
O O11 0.963817 0.172824 0.769326
O O12 0.087772 0.801127 0.533128
#
# Coordination Sequence:
#
# PCOD9000880 Si02
#       6
#     1   1   1   1   1   1
#     4  11  24  42  67 101 131 170 223 267 324 393
#     4  10  20  41  63  97 124 168 219 264 313 387
#     4   9  18  41  62  88 132 158 213 266 307 375
#     4   9  25  42  68  98 131 171 220 269 321 395
#     4  12  25  46  63 102 137 163 222 277 314 398
#     4  11  22  46  71  92 131 186 205 273 335 376
#
# _framework density 28.700879
#
# number of rings (size 3 to 8) (size 9 to 14) (size 15 to 20)
#    1.000    0.667    3.333    0.000    2.333    4.000 
#    9.000    0.000    0.000    0.000    0.000    0.000 
#    0.000    0.000    0.000    0.000    0.000    0.000 
#
# Total GULP energy -33553.029956 kJ/mol
# GULP energy per Si atom -5592.171659 kJ/mol
# Density = 2.863555 g / cm^3
# Si number density = 28.700879 Si / 1000 Ang^3
#
#
#
# Elastic Constant Matrix: (Units=GPa)
#
#
# Indices 1 2 3 4 5 6 
#
# 1 209.3786 41.2970 70.8133 -3.2935 40.1769 -29.7384
# 2 41.2970 115.7489 50.0643 30.1364 16.2515 -12.5775
# 3 70.8133 50.0643 159.5180 19.0349 29.7606 -27.8609
# 4 -3.2935 30.1364 19.0349 55.4264 -8.7167 6.9104
# 5 40.1769 16.2515 29.7606 -8.7167 65.1170 7.5768
# 6 -29.7384 -12.5775 -27.8609 6.9104 7.5768 74.6222
#
#
#
# Elastic Compliance Matrix: (Units=1/GPa)
#
#
# Indices 1 2 3 4 5 6 
#
# 1 0.006453 -0.001156 -0.001696 0.000873 -0.003030 0.001970
# 2 -0.001156 0.012096 -0.001661 -0.006725 -0.002662 0.001851
# 3 -0.001696 -0.001661 0.009134 -0.003275 -0.003514 0.003114
# 4 0.000873 -0.006725 -0.003275 0.024512 0.006493 -0.004938
# 5 -0.003030 -0.002662 -0.003514 0.006493 0.021030 -0.005705
# 6 0.001970 0.001851 0.003114 -0.004938 -0.005705 0.016697
#
#
# Mechanical properties :
#
#
# Convention : Reuss Voigt Hill
#
# Bulk Modulus (GPa) = 53.60285 89.88830 71.74558
# Shear Modulus (GPa) = 47.54404 60.53119 54.03762
#
# Velocity S-wave (km/s) = 4.07447 4.59741 4.34382
# Velocity P-wave (km/s) = 6.39156 7.71806 7.08592
#
# Compressibility (1/GPa) = 0.01865572
#
# Stress axis : x y z
#
# Youngs Moduli (GPa) = 154.97272 82.67294 109.48690
#
# Poissons Ratio (x) = 0.09558 0.18573
# Poissons Ratio (y) = 0.17917 0.18182
# Poissons Ratio (z) = 0.26289 0.13729
#
# Static dielectric constant tensor:
#      x y z
#    x 2.153690 -0.018040 0.084580 
#    y -0.018040 2.402520 -0.102900 
#    z 0.084580 -0.102900 2.333410 
# 
# From -- ./inp_files/1057.got.cif
#   From: 2010.05.17/outbox.cif.g08.bks.cpg/sg1_1_cif.got.tgz:1057.got - 2010.05.17 20:27:59.
