data_PCOD9000532
_publ_section_title
;
Structure prediction by ZEFSAII (Michael W. Deem and Ramdas Pophale) SiO2 
 PCOD9000532
Probable space group: P 1
;
_chemical_formula_sum "Si O2"
_cell_formula_units_Z 6
_cell_length_a 5.173747
_cell_length_b 9.204613
_cell_length_c 7.176064
_cell_angle_alpha 122.986550
_cell_angle_beta 70.297722
_cell_angle_gamma 133.792257
_cell_volume 206.476606
_symmetry_space_group_name_H-M "P 1"
_symmetry_group_IT_number 1
_symmetry_cell_setting 'triclinic'
loop_
_space_group_symop_operation_xyz
x,y,z
loop_
_atom_site_type_symbol
_atom_site_label
_atom_site_fract_x
_atom_site_fract_y
_atom_site_fract_z
Si Si1 0.266500 0.357220 0.353460
Si Si2 0.766610 0.665900 0.103737
Si Si3 0.250126 0.874578 0.457134
Si Si4 0.809549 0.333038 0.202462
Si Si5 0.311733 0.627465 0.852441
Si Si6 0.805758 0.028577 0.733251
O O1 0.487887 0.540267 0.257453
O O2 0.398089 0.218320 0.197379
O O3 0.330243 0.457227 0.611005
O O4 0.873411 0.248932 0.312485
O O5 0.903222 0.534087 0.904787
O O6 0.136626 0.856286 0.256857
O O7 0.576306 0.704316 0.019367
O O8 0.624251 0.982880 0.543444
O O9 0.003628 0.600334 0.368002
O O10 0.096224 0.993742 0.657021
O O11 0.490010 0.836624 0.812571
O O12 0.931835 0.261486 0.951852
#
# Coordination Sequence:
#
# PCOD9000532 Si02
#       6
#     1   1   1   1   1   1
#     4  11  22  44  67  96 134 174 215 276 326 379
#     4  11  23  38  72  98 126 177 223 259 334 394
#     4  11  21  44  65  95 135 173 215 275 324 382
#     4  11  21  40  71  97 126 178 222 259 333 395
#     4  12  22  39  71  98 128 178 216 266 335 386
#     4  12  23  39  74  96 127 182 215 263 340 384
#
# _framework density 29.058980999999999
#
# number of rings (size 3 to 8) (size 9 to 14) (size 15 to 20)
#    0.000    0.667    5.000    6.000    0.000    0.000 
#    0.000    0.000   58.667    0.000    0.000    0.000 
#    0.000    0.000    0.000    0.000    0.000    0.000 
#
# Total GULP energy -33536.229534 kJ/mol
# GULP energy per Si atom -5589.371589 kJ/mol
# Density = 2.899284 g / cm^3
# Si number density = 29.058981 Si / 1000 Ang^3
#
#
#
# Elastic Constant Matrix: (Units=GPa)
#
#
# Indices 1 2 3 4 5 6 
#
# 1 239.5727 38.7749 62.6179 2.1380 5.1045 -41.4729
# 2 38.7749 110.1452 22.7851 -2.9651 17.3421 -15.2128
# 3 62.6179 22.7851 163.6037 -8.8226 18.7600 -14.1848
# 4 2.1380 -2.9651 -8.8226 53.3219 -10.7333 7.4144
# 5 5.1045 17.3421 18.7600 -10.7333 80.3526 -4.0348
# 6 -41.4729 -15.2128 -14.1848 7.4144 -4.0348 44.5723
#
#
#
# Elastic Compliance Matrix: (Units=1/GPa)
#
#
# Indices 1 2 3 4 5 6 
#
# 1 0.005572 -0.001075 -0.001693 -0.001118 0.000350 0.004496
# 2 -0.001075 0.010173 -0.000612 -0.000172 -0.001900 0.002134
# 3 -0.001693 -0.000612 0.007058 0.000918 -0.001276 0.000194
# 4 -0.001118 -0.000172 0.000918 0.019961 0.002364 -0.003913
# 5 0.000350 -0.001900 -0.001276 0.002364 0.013451 0.000095
# 6 0.004496 0.002134 0.000194 -0.003913 0.000095 0.028068
#
#
# Mechanical properties :
#
#
# Convention : Reuss Voigt Hill
#
# Bulk Modulus (GPa) = 62.33446 84.63082 73.48264
# Shear Modulus (GPa) = 51.87166 61.59227 56.73197
#
# Velocity S-wave (km/s) = 4.22957 4.60886 4.42328
# Velocity P-wave (km/s) = 6.73423 7.58348 7.17144
#
# Compressibility (1/GPa) = 0.01604249
#
# Stress axis : x y z
#
# Youngs Moduli (GPa) = 179.48353 98.29696 141.67871
#
# Poissons Ratio (x) = 0.10570 0.23991
# Poissons Ratio (y) = 0.19300 0.08665
# Poissons Ratio (z) = 0.30392 0.06012
#
# Static dielectric constant tensor:
#      x y z
#    x 2.434740 0.059340 -0.067700 
#    y 0.059340 2.396940 0.073660 
#    z -0.067700 0.073660 2.369010 
# 
# From -- ./inp_files/3012.got.cif
#   From: 2010.05.17/outbox.cif.g08.bks.cpg/sg1_2_cif.got.tgz:3012.got - 2010.05.17 20:27:59.
