data_PCOD9000777
_publ_section_title
;
Structure prediction by ZEFSAII (Michael W. Deem and Ramdas Pophale) SiO2 
 PCOD9000777
Probable space group: P 1
;
_chemical_formula_sum "Si O2"
_cell_formula_units_Z 8
_cell_length_a 7.229241
_cell_length_b 7.881098
_cell_length_c 9.842643
_cell_angle_alpha 42.198632
_cell_angle_beta 113.119225
_cell_angle_gamma 98.394828
_cell_volume 336.762763
_symmetry_space_group_name_H-M "P 1"
_symmetry_group_IT_number 1
_symmetry_cell_setting 'triclinic'
loop_
_space_group_symop_operation_xyz
x,y,z
loop_
_atom_site_type_symbol
_atom_site_label
_atom_site_fract_x
_atom_site_fract_y
_atom_site_fract_z
Si Si1 0.835870 0.160560 0.330110
Si Si2 0.252692 0.366341 0.971055
Si Si3 0.884257 0.171769 0.854185
Si Si4 0.277210 0.949309 0.697216
Si Si5 0.461699 0.226941 0.379013
Si Si6 0.626527 0.353719 0.899382
Si Si7 0.640952 0.698561 0.453638
Si Si8 0.276264 0.807239 0.076980
O O1 0.680118 0.230142 0.371030
O O2 0.065231 0.124854 0.471911
O O3 0.784380 0.900724 0.400608
O O4 0.771016 0.360344 0.068321
O O5 0.040498 0.314453 0.892665
O O6 0.413124 0.327885 0.916325
O O7 0.248006 0.659786 0.838125
O O8 0.333377 0.188066 0.229940
O O9 0.733064 0.127212 0.957973
O O10 0.753060 0.417523 0.585120
O O11 0.035961 0.924720 0.978032
O O12 0.458628 0.018413 0.619058
O O13 0.306871 0.967859 0.855423
O O14 0.340208 0.504576 0.236740
O O15 0.593175 0.605050 0.645574
O O16 0.433862 0.813204 0.242261
#
# Coordination Sequence:
#
# PCOD9000777 Si02
#       8
#     1   1   1   1   1   1   1   1
#     4  11  21  42  72  98 123 170 228 273 322 382
#     4  10  19  41  67  96 127 162 224 279 317 378
#     4  10  22  43  66  94 134 167 217 270 324 384
#     4  11  23  41  68  96 130 179 217 263 334 385
#     4  10  24  40  67  95 137 170 215 273 321 395
#     4   9  21  36  64  99 123 161 213 270 328 369
#     4  10  23  43  67  96 133 166 219 280 315 382
#     4  11  25  44  63  98 141 177 211 264 333 401
#
# _framework density 23.755593999999999
#
# number of rings (size 3 to 8) (size 9 to 14) (size 15 to 20)
#    0.750    1.000    1.250    3.000    1.750    3.000 
#    2.250    1.250    0.000    0.000    0.000    0.000 
#    0.000    0.000    0.000    0.000    0.000    0.000 
#
# Total GULP energy -44653.800013 kJ/mol
# GULP energy per Si atom -5581.725002 kJ/mol
# Density = 2.370153 g / cm^3
# Si number density = 23.755594 Si / 1000 Ang^3
#
#
#
# Elastic Constant Matrix: (Units=GPa)
#
#
# Indices 1 2 3 4 5 6 
#
# 1 77.1783 21.7775 32.9148 17.3530 11.4163 -23.4474
# 2 21.7775 87.6446 19.6853 7.5357 3.3745 -15.5586
# 3 32.9148 19.6853 148.0712 30.8248 -1.4766 2.9018
# 4 17.3530 7.5357 30.8248 35.1960 -12.7638 -2.2851
# 5 11.4163 3.3745 -1.4766 -12.7638 32.6281 -1.2638
# 6 -23.4474 -15.5586 2.9018 -2.2851 -1.2638 28.7637
#
#
#
# Elastic Compliance Matrix: (Units=1/GPa)
#
#
# Indices 1 2 3 4 5 6 
#
# 1 0.025141 -0.000515 -0.003331 -0.012932 -0.013219 0.018944
# 2 -0.000515 0.013247 -0.001505 -0.001386 -0.001540 0.006720
# 3 -0.003331 -0.001505 0.009205 -0.006835 -0.001132 -0.005051
# 4 -0.012932 -0.001386 -0.006835 0.049182 0.023379 -0.005668
# 5 -0.013219 -0.001540 -0.001132 0.023379 0.044229 -0.007694
# 6 0.018944 0.006720 -0.005051 -0.005668 -0.007694 0.053565
#
#
# Mechanical properties :
#
#
# Convention : Reuss Voigt Hill
#
# Bulk Modulus (GPa) = 27.10707 51.29435 39.20071
# Shear Modulus (GPa) = 22.98124 35.21866 29.09995
#
# Velocity S-wave (km/s) = 3.11369 3.85456 3.50376
# Velocity P-wave (km/s) = 4.93582 6.43813 5.73637
#
# Compressibility (1/GPa) = 0.03689074
#
# Stress axis : x y z
#
# Youngs Moduli (GPa) = 39.77493 75.48818 108.63995
#
# Poissons Ratio (x) = 0.03888 0.36190
# Poissons Ratio (y) = 0.02049 0.16351
# Poissons Ratio (z) = 0.13250 0.11362
#
# Static dielectric constant tensor:
#      x y z
#    x 1.883080 -0.025030 0.026260 
#    y -0.025030 2.014900 -0.049040 
#    z 0.026260 -0.049040 1.924660 
# 
# From -- ./inp_files/3759.got.cif
#   From: 2010.05.17/outbox.cif.g08.bks.cpg/sg1_2_cif.got.tgz:3759.got - 2010.05.17 20:27:59.
