data_PCOD9000946
_publ_section_title
;
Structure prediction by ZEFSAII (Michael W. Deem and Ramdas Pophale) SiO2 
 PCOD9000946
Probable space group: P 1
;
_chemical_formula_sum "Si O2"
_cell_formula_units_Z 8
_cell_length_a 12.179647
_cell_length_b 9.246192
_cell_length_c 5.026506
_cell_angle_alpha 105.738520
_cell_angle_beta 75.476652
_cell_angle_gamma 140.486180
_cell_volume 345.864736
_symmetry_space_group_name_H-M "P 1"
_symmetry_group_IT_number 1
_symmetry_cell_setting 'triclinic'
loop_
_space_group_symop_operation_xyz
x,y,z
loop_
_atom_site_type_symbol
_atom_site_label
_atom_site_fract_x
_atom_site_fract_y
_atom_site_fract_z
Si Si1 0.102970 0.296930 0.052870
Si Si2 0.715066 0.975079 0.297586
Si Si3 0.980706 0.625319 0.924411
Si Si4 0.841681 0.633920 0.495264
Si Si5 0.198398 0.559791 0.626751
Si Si6 0.543782 0.870154 0.844960
Si Si7 0.531879 0.536216 0.484626
Si Si8 0.170840 0.077783 0.242486
O O1 0.209353 0.516225 0.294491
O O2 0.145527 0.177394 0.082289
O O3 0.136975 0.362150 0.756678
O O4 0.904499 0.136174 0.156149
O O5 0.701552 0.039471 0.625093
O O6 0.625718 0.723024 0.281909
O O7 0.606325 0.962451 0.146757
O O8 0.868859 0.525548 0.212163
O O9 0.665543 0.548343 0.520471
O O10 0.873203 0.602079 0.751245
O O11 0.149874 0.895609 0.024904
O O12 0.057643 0.547190 0.742014
O O13 0.002004 0.904560 0.451636
O O14 0.381540 0.785689 0.761004
O O15 0.501171 0.647283 0.754321
O O16 0.351889 0.285243 0.379219
#
# Coordination Sequence:
#
# PCOD9000946 Si02
#       8
#     1   1   1   1   1   1   1   1
#     4  12  23  39  70  97 129 169 226 266 323 386
#     4  10  21  37  58  99 133 158 207 280 327 367
#     4  10  25  45  64  87 139 176 210 258 334 390
#     4  10  23  41  66  90 133 169 218 259 324 381
#     4  12  24  43  66  96 132 176 213 268 331 391
#     4  10  21  36  61  94 129 163 207 271 326 369
#     4  10  21  38  65 100 129 159 220 275 325 366
#     4  10  22  41  66 101 120 174 215 267 322 382
#
# _framework density 23.130428999999999
#
# number of rings (size 3 to 8) (size 9 to 14) (size 15 to 20)
#    1.500    0.000    2.500    3.000    5.250    1.000 
#    0.000    3.750    0.000    0.000    0.000    0.000 
#    0.000    0.000    0.000    0.000    0.000    0.000 
#
# Total GULP energy -44676.921193 kJ/mol
# GULP energy per Si atom -5584.615149 kJ/mol
# Density = 2.307778 g / cm^3
# Si number density = 23.130429 Si / 1000 Ang^3
#
#
#
# Elastic Constant Matrix: (Units=GPa)
#
#
# Indices 1 2 3 4 5 6 
#
# 1 97.9914 28.2282 -6.0262 17.0097 11.1842 17.9951
# 2 28.2282 63.4312 4.3161 3.0924 13.0150 20.2082
# 3 -6.0262 4.3161 80.2015 13.6762 14.9082 3.7213
# 4 17.0097 3.0924 13.6762 16.9103 7.9520 -7.2156
# 5 11.1842 13.0150 14.9082 7.9520 29.2667 11.4908
# 6 17.9951 20.2082 3.7213 -7.2156 11.4908 34.0644
#
#
#
# Elastic Compliance Matrix: (Units=1/GPa)
#
#
# Indices 1 2 3 4 5 6 
#
# 1 0.022194 -0.002887 0.008494 -0.042858 0.009198 -0.023121
# 2 -0.002887 0.021458 0.000534 -0.004893 -0.002943 -0.011307
# 3 0.008494 0.000534 0.018676 -0.029417 0.000150 -0.013126
# 4 -0.042858 -0.004893 -0.029417 0.187506 -0.051055 0.085697
# 5 0.009198 -0.002943 0.000150 -0.051055 0.059054 -0.033865
# 6 -0.023121 -0.011307 -0.013126 0.085697 -0.033865 0.079287
#
#
# Mechanical properties :
#
#
# Convention : Reuss Voigt Hill
#
# Bulk Modulus (GPa) = 13.40277 32.74004 23.07140
# Shear Modulus (GPa) = 12.47621 30.38869 21.43245
#
# Velocity S-wave (km/s) = 2.32499 3.62857 3.04730
# Velocity P-wave (km/s) = 3.60755 5.63388 4.73049
#
# Compressibility (1/GPa) = 0.07461146
#
# Stress axis : x y z
#
# Youngs Moduli (GPa) = 45.05621 46.60281 53.54575
#
# Poissons Ratio (x) = 0.13454 -0.45483
# Poissons Ratio (y) = 0.13007 -0.02861
# Poissons Ratio (z) = -0.38272 -0.02490
#
# Static dielectric constant tensor:
#      x y z
#    x 1.814070 -0.007320 -0.029530 
#    y -0.007320 1.928530 0.021120 
#    z -0.029530 0.021120 1.867480 
# 
# From -- ./inp_files/2203.got.cif
#   From: 2010.05.17/outbox.cif.g08.bks.cpg/sg1_2_cif.got.tgz:2203.got - 2010.05.17 20:27:59.
