data_PCOD9000064
_publ_section_title
;
Structure prediction by ZEFSAII (Michael W. Deem and Ramdas Pophale) SiO2 
 PCOD9000064
Probable space group: P 1
;
_chemical_formula_sum "Si O2"
_cell_formula_units_Z 8
_cell_length_a 10.845533
_cell_length_b 7.457626
_cell_length_c 7.487166
_cell_angle_alpha 122.342618
_cell_angle_beta 39.306497
_cell_angle_gamma 112.028776
_cell_volume 323.245110
_symmetry_space_group_name_H-M "P 1"
_symmetry_group_IT_number 1
_symmetry_cell_setting 'triclinic'
loop_
_space_group_symop_operation_xyz
x,y,z
loop_
_atom_site_type_symbol
_atom_site_label
_atom_site_fract_x
_atom_site_fract_y
_atom_site_fract_z
Si Si1 0.292180 0.861190 0.791090
Si Si2 0.781553 0.060351 0.797784
Si Si3 0.538637 0.445755 0.386064
Si Si4 0.076003 0.721267 0.284894
Si Si5 0.941585 0.132700 0.269137
Si Si6 0.206836 0.478457 0.327401
Si Si7 0.534842 0.259548 0.668003
Si Si8 0.973740 0.435744 0.924865
O O1 0.406944 0.630192 0.536127
O O2 0.443883 0.031932 0.658851
O O3 0.205133 0.872675 0.098441
O O4 0.092890 0.934154 0.945264
O O5 0.822518 0.080594 0.553069
O O6 0.937119 0.187678 0.807208
O O7 0.581653 0.203162 0.134449
O O8 0.853592 0.817623 0.624201
O O9 0.474837 0.397799 0.633900
O O10 0.753244 0.535017 0.198501
O O11 0.176731 0.679272 0.338697
O O12 0.054834 0.526355 0.064600
O O13 0.767917 0.220204 0.383305
O O14 0.083335 0.310609 0.265983
O O15 0.103947 0.485394 0.635828
O O16 0.432179 0.390123 0.016749
#
# Coordination Sequence:
#
# PCOD9000064 Si02
#       8
#     1   1   1   1   1   1   1   1
#     4  10  23  38  68  99 134 184 230 283 351 417
#     4   8  21  39  62 100 133 174 233 279 337 422
#     4  10  21  43  65 102 138 177 229 292 344 410
#     4  11  20  43  70  98 143 187 223 291 359 404
#     4   9  20  41  65  96 136 180 225 288 350 400
#     4  10  21  42  68 105 139 182 238 287 344 430
#     4  11  22  41  72 100 141 184 231 294 348 418
#     4   9  22  41  70 100 140 186 225 294 349 411
#
# _framework density 24.749020999999999
#
# number of rings (size 3 to 8) (size 9 to 14) (size 15 to 20)
#    0.750    1.500    1.250    1.500    3.500    2.000 
#    0.000    0.000    5.500    0.000    0.000    0.000 
#    0.000    0.000    0.000    0.000    0.000    0.000 
#
# Total GULP energy -44562.650432 kJ/mol
# GULP energy per Si atom -5570.331304 kJ/mol
# Density = 2.469269 g / cm^3
# Si number density = 24.749021 Si / 1000 Ang^3
#
#
#
# Elastic Constant Matrix: (Units=GPa)
#
#
# Indices 1 2 3 4 5 6 
#
# 1 81.8221 28.6855 53.0314 6.8394 -9.0301 -4.8811
# 2 28.6855 70.2501 35.5521 -2.2266 -0.6704 -10.9589
# 3 53.0314 35.5521 148.7517 7.5318 -7.0760 -8.9611
# 4 6.8394 -2.2266 7.5318 42.3418 -3.7046 -1.1668
# 5 -9.0301 -0.6704 -7.0760 -3.7046 50.5625 1.2321
# 6 -4.8811 -10.9589 -8.9611 -1.1668 1.2321 26.2098
#
#
#
# Elastic Compliance Matrix: (Units=1/GPa)
#
#
# Indices 1 2 3 4 5 6 
#
# 1 0.017460 -0.004784 -0.004910 -0.002020 0.002235 -0.000623
# 2 -0.004784 0.018472 -0.002500 0.002275 -0.000942 0.006123
# 3 -0.004910 -0.002500 0.009199 -0.000919 0.000282 0.001131
# 4 -0.002020 0.002275 -0.000919 0.024375 0.001295 0.001285
# 5 0.002235 -0.000942 0.000282 0.001295 0.020318 -0.000779
# 6 -0.000623 0.006123 0.001131 0.001285 -0.000779 0.041078
#
#
# Mechanical properties :
#
#
# Convention : Reuss Voigt Hill
#
# Bulk Modulus (GPa) = 48.21322 59.48464 53.84893
# Shear Modulus (GPa) = 30.82517 36.05982 33.44249
#
# Velocity S-wave (km/s) = 3.53301 3.82123 3.67994
# Velocity P-wave (km/s) = 6.01382 6.59973 6.31357
#
# Compressibility (1/GPa) = 0.02074120
#
# Stress axis : x y z
#
# Youngs Moduli (GPa) = 57.27512 54.13538 108.71053
#
# Poissons Ratio (x) = 0.25900 0.53376
# Poissons Ratio (y) = 0.27402 0.27182
# Poissons Ratio (z) = 0.28122 0.13536
#
# Static dielectric constant tensor:
#      x y z
#    x 1.979040 0.007570 -0.014470 
#    y 0.007570 2.055130 0.082840 
#    z -0.014470 0.082840 2.026000 
# 
# From -- ./inp_files/5300.got.cif
#   From: 2010.05.17/outbox.cif.g08.bks.cpg/sg1_3_cif.got.tgz:5300.got - 2010.05.17 20:27:59.
