data_PCOD9000660
_publ_section_title
;
Structure prediction by ZEFSAII (Michael W. Deem and Ramdas Pophale) SiO2 
 PCOD9000660
Probable space group: P 1
;
_chemical_formula_sum "Si O2"
_cell_formula_units_Z 6
_cell_length_a 4.966614
_cell_length_b 7.850057
_cell_length_c 8.379873
_cell_angle_alpha 127.703664
_cell_angle_beta 94.241713
_cell_angle_gamma 66.026189
_cell_volume 229.206372
_symmetry_space_group_name_H-M "P 1"
_symmetry_group_IT_number 1
_symmetry_cell_setting 'triclinic'
loop_
_space_group_symop_operation_xyz
x,y,z
loop_
_atom_site_type_symbol
_atom_site_label
_atom_site_fract_x
_atom_site_fract_y
_atom_site_fract_z
Si Si1 0.434780 0.321270 0.902130
Si Si2 0.263402 0.549339 0.591715
Si Si3 0.622953 0.851658 0.858298
Si Si4 0.955448 0.202694 0.631631
Si Si5 0.992748 0.701631 0.340678
Si Si6 0.428605 0.027950 0.306436
O O1 0.654157 0.367289 0.816193
O O2 0.206953 0.260535 0.756039
O O3 0.587004 0.085846 0.890020
O O4 0.238671 0.551428 0.133768
O O5 0.453944 0.702378 0.691921
O O6 0.485529 0.264951 0.463683
O O7 0.983192 0.673341 0.773287
O O8 0.088501 0.548573 0.418835
O O9 0.488772 0.938394 0.077587
O O10 0.085637 0.139607 0.419575
O O11 0.007489 0.939583 0.536157
O O12 0.661159 0.814148 0.309634
#
# Coordination Sequence:
#
# PCOD9000660 Si02
#       6
#     1   1   1   1   1   1
#     4  12  26  49  82 112 154 209 254 316 392 462
#     4  12  29  52  80 113 163 203 258 327 384 466
#     4  12  27  51  80 118 154 206 265 318 389 461
#     4  12  27  49  75 118 155 200 260 313 390 460
#     4  12  28  51  81 114 158 207 255 320 394 460
#     4  12  31  50  82 121 152 207 266 320 389 463
#
# _framework density 26.177285000000001
#
# number of rings (size 3 to 8) (size 9 to 14) (size 15 to 20)
#    0.000    0.000    6.667    0.000    9.333    0.000 
#    0.000    0.000    0.000    0.000    0.000    0.000 
#    0.000    0.000    0.000    0.000    0.000    0.000 
#
# Total GULP energy -33556.706836 kJ/mol
# GULP energy per Si atom -5592.784473 kJ/mol
# Density = 2.611770 g / cm^3
# Si number density = 26.177285 Si / 1000 Ang^3
#
#
#
# Elastic Constant Matrix: (Units=GPa)
#
#
# Indices 1 2 3 4 5 6 
#
# 1 172.3756 15.8263 55.9424 -6.7127 -46.4275 -12.8380
# 2 15.8263 81.8863 24.9193 3.7923 -17.0566 -4.9925
# 3 55.9424 24.9193 167.8767 -4.5469 -48.8109 -4.7083
# 4 -6.7127 3.7923 -4.5469 50.8294 7.5714 -15.5009
# 5 -46.4275 -17.0566 -48.8109 7.5714 55.3969 2.5522
# 6 -12.8380 -4.9925 -4.7083 -15.5009 2.5522 17.0657
#
#
#
# Elastic Compliance Matrix: (Units=1/GPa)
#
#
# Indices 1 2 3 4 5 6 
#
# 1 0.008186 0.000162 -0.000895 0.002413 0.005454 0.007335
# 2 0.000162 0.013379 -0.001016 -0.000795 0.003352 0.002532
# 3 -0.000895 -0.001016 0.008204 -0.000161 0.006177 0.000223
# 4 0.002413 -0.000795 -0.000161 0.029359 -0.003701 0.028759
# 5 0.005454 0.003352 0.006177 -0.003701 0.029650 -0.001008
# 6 0.007335 0.002532 0.000223 0.028759 -0.001008 0.091191
#
#
# Mechanical properties :
#
#
# Convention : Reuss Voigt Hill
#
# Bulk Modulus (GPa) = 38.06470 68.39051 53.22761
# Shear Modulus (GPa) = 26.01131 46.35509 36.18320
#
# Velocity S-wave (km/s) = 3.15566 4.21267 3.72188
# Velocity P-wave (km/s) = 5.27733 7.06008 6.23277
#
# Compressibility (1/GPa) = 0.02627106
#
# Stress axis : x y z
#
# Youngs Moduli (GPa) = 122.15673 74.74225 121.89527
#
# Poissons Ratio (x) = -0.01209 0.10910
# Poissons Ratio (y) = -0.01976 0.12382
# Poissons Ratio (z) = 0.10933 0.07592
#
# Static dielectric constant tensor:
#      x y z
#    x 2.233980 0.046360 0.066000 
#    y 0.046360 2.154110 0.001700 
#    z 0.066000 0.001700 2.002560 
# 
# From -- ./inp_files/3027.got.cif
#   From: 2010.05.17/outbox.cif.g08.bks.cpg/sg1_2_cif.got.tgz:3027.got - 2010.05.17 20:27:59.
