data_PCOD9000381
_publ_section_title
;
Structure prediction by ZEFSAII (Michael W. Deem and Ramdas Pophale) SiO2 
 PCOD9000381
Probable space group: P 1
;
_chemical_formula_sum "Si O2"
_cell_formula_units_Z 8
_cell_length_a 6.575474
_cell_length_b 4.958374
_cell_length_c 15.176595
_cell_angle_alpha 74.624347
_cell_angle_beta 134.671569
_cell_angle_gamma 104.098042
_cell_volume 338.109084
_symmetry_space_group_name_H-M "P 1"
_symmetry_group_IT_number 1
_symmetry_cell_setting 'triclinic'
loop_
_space_group_symop_operation_xyz
x,y,z
loop_
_atom_site_type_symbol
_atom_site_label
_atom_site_fract_x
_atom_site_fract_y
_atom_site_fract_z
Si Si1 0.864720 0.050560 0.056480
Si Si2 0.851014 0.963560 0.519214
Si Si3 0.708639 0.834361 0.199176
Si Si4 0.410803 0.378625 0.281959
Si Si5 0.309771 0.640642 0.422619
Si Si6 0.158071 0.975295 0.984620
Si Si7 0.216807 0.486170 0.594894
Si Si8 0.821410 0.456625 0.858477
O O1 0.115376 0.227545 0.170579
O O2 0.713445 0.821254 0.095249
O O3 0.724911 0.285508 0.934519
O O4 0.010620 0.882962 0.039979
O O5 0.615285 0.802572 0.523723
O O6 0.019217 0.735599 0.537682
O O7 0.642361 0.146403 0.381873
O O8 0.070555 0.192671 0.612159
O O9 0.550194 0.601766 0.234200
O O10 0.043172 0.837248 0.324409
O O11 0.481890 0.074230 0.106775
O O12 0.353157 0.509941 0.350011
O O13 0.234231 0.437367 0.498967
O O14 0.071672 0.703375 0.925003
O O15 0.979717 0.222548 0.873772
O O16 0.534308 0.553067 0.721885
#
# Coordination Sequence:
#
# PCOD9000381 Si02
#       8
#     1   1   1   1   1   1   1   1
#     4  10  25  42  74 101 147 184 235 296 363 423
#     4  12  26  48  70 107 146 189 248 294 349 436
#     4  12  22  42  73 105 144 187 224 294 382 412
#     4  12  25  45  70 111 153 178 242 301 359 440
#     4  12  27  43  75 108 150 187 239 293 368 427
#     4  10  23  47  68 108 142 182 240 300 346 439
#     4  12  28  50  75 101 148 201 240 296 358 415
#     4  10  24  51  71  99 150 184 246 300 343 426
#
# _framework density 23.661003000000001
#
# number of rings (size 3 to 8) (size 9 to 14) (size 15 to 20)
#    0.750    0.000    5.000    1.500    3.500    3.000 
#    4.500    0.000    0.000    0.000    0.000    0.000 
#    0.000    0.000    0.000    0.000    0.000    0.000 
#
# Total GULP energy -44535.775030 kJ/mol
# GULP energy per Si atom -5566.971879 kJ/mol
# Density = 2.360715 g / cm^3
# Si number density = 23.661003 Si / 1000 Ang^3
#
#
#
# Elastic Constant Matrix: (Units=GPa)
#
#
# Indices 1 2 3 4 5 6 
#
# 1 102.8385 35.2814 45.6594 -7.7491 25.9117 3.4691
# 2 35.2814 93.8620 15.7196 5.7909 17.4649 -6.2614
# 3 45.6594 15.7196 94.5317 -1.7231 26.4671 -1.1192
# 4 -7.7491 5.7909 -1.7231 29.5014 0.1181 7.8469
# 5 25.9117 17.4649 26.4671 0.1181 29.9524 -5.7954
# 6 3.4691 -6.2614 -1.1192 7.8469 -5.7954 23.0863
#
#
#
# Elastic Compliance Matrix: (Units=1/GPa)
#
#
# Indices 1 2 3 4 5 6 
#
# 1 0.016601 -0.004800 -0.004603 0.007428 -0.009240 -0.008864
# 2 -0.004800 0.013650 0.001044 -0.005287 -0.003674 0.005349
# 3 -0.004603 0.001044 0.015565 -0.000240 -0.010541 -0.000835
# 4 0.007428 -0.005287 -0.000240 0.041821 -0.006876 -0.018502
# 5 -0.009240 -0.003674 -0.010541 -0.006876 0.056014 0.016279
# 6 -0.008864 0.005349 -0.000835 -0.018502 0.016279 0.056433
#
#
# Mechanical properties :
#
#
# Convention : Reuss Voigt Hill
#
# Bulk Modulus (GPa) = 34.36529 53.83922 44.10225
# Shear Modulus (GPa) = 22.07503 29.47947 25.77725
#
# Velocity S-wave (km/s) = 3.05777 3.53357 3.30425
# Velocity P-wave (km/s) = 5.19829 6.28108 5.76516
#
# Compressibility (1/GPa) = 0.02909913
#
# Stress axis : x y z
#
# Youngs Moduli (GPa) = 60.23686 73.26137 64.24585
#
# Poissons Ratio (x) = 0.35162 0.29571
# Poissons Ratio (y) = 0.28911 -0.06707
# Poissons Ratio (z) = 0.27726 -0.07648
#
# Static dielectric constant tensor:
#      x y z
#    x 2.005820 -0.012560 0.042500 
#    y -0.012560 1.917970 -0.021860 
#    z 0.042500 -0.021860 1.919710 
# 
# From -- ./inp_files/6948.got.cif
#   From: 2010.05.17/outbox.cif.g08.bks.cpg/sg1_4_cif.got.tgz:6948.got - 2010.05.17 20:27:59.
