data_PCOD9000015
_publ_section_title
;
Structure prediction by ZEFSAII (Michael W. Deem and Ramdas Pophale) SiO2 
 PCOD9000015
Probable space group: P 1
;
_chemical_formula_sum "Si O2"
_cell_formula_units_Z 8
_cell_length_a 11.866789
_cell_length_b 4.965385
_cell_length_c 5.371939
_cell_angle_alpha 88.199987
_cell_angle_beta 103.180312
_cell_angle_gamma 94.414379
_cell_volume 307.247822
_symmetry_space_group_name_H-M "P 1"
_symmetry_group_IT_number 1
_symmetry_cell_setting 'triclinic'
loop_
_space_group_symop_operation_xyz
x,y,z
loop_
_atom_site_type_symbol
_atom_site_label
_atom_site_fract_x
_atom_site_fract_y
_atom_site_fract_z
Si Si1 0.458070 0.779590 0.150680
Si Si2 0.678064 0.969875 0.394191
Si Si3 0.903543 0.126995 0.781800
Si Si4 0.616375 0.406140 0.923205
Si Si5 0.408968 0.160183 0.504502
Si Si6 0.842247 0.686880 0.138085
Si Si7 0.289010 0.623156 0.704987
Si Si8 0.016308 0.636130 0.607947
O O1 0.559687 0.793991 0.415594
O O2 0.411934 0.066058 0.219375
O O3 0.540194 0.643175 0.988075
O O4 0.339942 0.614470 0.012341
O O5 0.771117 0.115851 0.618011
O O6 0.758481 0.757160 0.318569
O O7 0.638861 0.181044 0.156356
O O8 0.979839 0.932250 0.657892
O O9 0.966413 0.422669 0.794797
O O10 0.892703 0.965893 0.037778
O O11 0.536334 0.254556 0.677157
O O12 0.744830 0.535626 0.919556
O O13 0.331545 0.398161 0.546856
O O14 0.351954 0.902641 0.629908
O O15 0.945495 0.546788 0.325841
O O16 0.152056 0.628575 0.642022
#
# Coordination Sequence:
#
# PCOD9000015 Si02
#       8
#     1   1   1   1   1   1   1   1
#     4  10  24  41  68 104 141 181 237 290 353 433
#     4  10  21  40  65 103 149 178 225 300 353 424
#     4  11  25  42  73 102 136 193 238 286 367 428
#     4  10  21  44  69 104 153 180 226 306 356 427
#     4  11  25  42  73 102 135 191 240 285 368 428
#     4  10  24  43  69 106 146 184 237 295 358 433
#     4  11  25  47  68 100 142 187 240 304 347 414
#     4  11  25  47  69 101 142 188 241 302 350 413
#
# _framework density 26.037613
#
# number of rings (size 3 to 8) (size 9 to 14) (size 15 to 20)
#    0.000    1.500    2.500    0.750    5.250    1.000 
#    0.000    2.500    0.000    0.000    0.000    0.000 
#    0.000    0.000    0.000    0.000    0.000    0.000 
#
# Total GULP energy -44624.463802 kJ/mol
# GULP energy per Si atom -5578.057975 kJ/mol
# Density = 2.597835 g / cm^3
# Si number density = 26.037613 Si / 1000 Ang^3
#
#
#
# Elastic Constant Matrix: (Units=GPa)
#
#
# Indices 1 2 3 4 5 6 
#
# 1 200.6395 47.7004 60.4015 5.7741 50.0426 -3.8401
# 2 47.7004 152.4992 64.5300 15.5375 2.1327 -3.2036
# 3 60.4015 64.5300 94.3613 21.9233 1.6807 -15.2991
# 4 5.7741 15.5375 21.9233 59.6042 -1.5145 -20.5914
# 5 50.0426 2.1327 1.6807 -1.5145 32.6252 -5.2092
# 6 -3.8401 -3.2036 -15.2991 -20.5914 -5.2092 44.4374
#
#
#
# Elastic Compliance Matrix: (Units=1/GPa)
#
#
# Indices 1 2 3 4 5 6 
#
# 1 0.011902 -0.000278 -0.007712 -0.000034 -0.018453 -0.003826
# 2 -0.000278 0.009377 -0.006368 -0.000738 -0.000196 -0.001906
# 3 -0.007712 -0.006368 0.021385 -0.002992 0.012004 0.006258
# 4 -0.000034 -0.000738 -0.002992 0.021283 0.002695 0.009092
# 5 -0.018453 -0.000196 0.012004 0.002695 0.060205 0.010830
# 6 -0.003826 -0.001906 0.006258 0.009092 0.010830 0.029673
#
#
# Mechanical properties :
#
#
# Convention : Reuss Voigt Hill
#
# Bulk Modulus (GPa) = 71.70039 88.08488 79.89263
# Shear Modulus (GPa) = 26.71064 45.65792 36.18428
#
# Velocity S-wave (km/s) = 3.20636 4.19207 3.73190
# Velocity P-wave (km/s) = 6.42687 7.57196 7.02279
#
# Compressibility (1/GPa) = 0.01394693
#
# Stress axis : x y z
#
# Youngs Moduli (GPa) = 84.01813 106.64102 46.76163
#
# Poissons Ratio (x) = 0.02969 0.36062
# Poissons Ratio (y) = 0.02339 0.29780
# Poissons Ratio (z) = 0.64794 0.67914
#
# Static dielectric constant tensor:
#      x y z
#    x 2.046910 0.009620 -0.122710 
#    y 0.009620 2.183050 -0.038750 
#    z -0.122710 -0.038750 2.366190 
# 
# From -- ./inp_files/1993.got.cif
#   From: 2010.05.17/outbox.cif.g08.bks.cpg/sg1_1_cif.got.tgz:1993.got - 2010.05.17 20:27:59.
