data_PCOD9000924
_publ_section_title
;
Structure prediction by ZEFSAII (Michael W. Deem and Ramdas Pophale) SiO2 
 PCOD9000924
Probable space group: P 1
;
_chemical_formula_sum "Si O2"
_cell_formula_units_Z 8
_cell_length_a 10.890499
_cell_length_b 6.643624
_cell_length_c 5.210119
_cell_angle_alpha 74.623077
_cell_angle_beta 108.575323
_cell_angle_gamma 91.185745
_cell_volume 343.695519
_symmetry_space_group_name_H-M "P 1"
_symmetry_group_IT_number 1
_symmetry_cell_setting 'triclinic'
loop_
_space_group_symop_operation_xyz
x,y,z
loop_
_atom_site_type_symbol
_atom_site_label
_atom_site_fract_x
_atom_site_fract_y
_atom_site_fract_z
Si Si1 0.961550 0.694520 0.258200
Si Si2 0.633857 0.256482 0.486870
Si Si3 0.311964 0.873119 0.056388
Si Si4 0.047430 0.105314 0.878011
Si Si5 0.838749 0.018052 0.399650
Si Si6 0.469586 0.232437 0.897281
Si Si7 0.845928 0.386034 0.905952
Si Si8 0.256306 0.605283 0.603179
O O1 0.102376 0.585541 0.461179
O O2 0.878477 0.786530 0.411487
O O3 0.872903 0.562079 0.065982
O O4 0.998674 0.902611 0.061447
O O5 0.728905 0.055847 0.528803
O O6 0.536987 0.223224 0.667225
O O7 0.736283 0.416336 0.605476
O O8 0.554421 0.320511 0.156002
O O9 0.312712 0.733209 0.358772
O O10 0.273768 0.735907 0.832585
O O11 0.436859 0.998941 0.036982
O O12 0.198193 0.055013 0.969629
O O13 0.973443 0.101460 0.561609
O O14 0.986150 0.310327 0.907124
O O15 0.799430 0.180595 0.092940
O O16 0.341153 0.387877 0.740092
#
# Coordination Sequence:
#
# PCOD9000924 Si02
#       8
#     1   1   1   1   1   1   1   1
#     4  10  22  40  70 108 137 173 226 296 369 404
#     4  11  24  48  68 101 139 190 246 278 334 433
#     4  11  24  46  71 105 142 185 232 291 360 409
#     4   9  21  38  65 102 142 163 229 293 349 426
#     4  10  20  43  69  96 142 173 232 295 340 415
#     4  12  26  47  75  96 147 197 232 286 351 408
#     4  10  22  41  70 103 136 184 225 293 355 408
#     4  11  25  45  70 113 141 173 242 294 344 443
#
# _framework density 23.276416999999999
#
# number of rings (size 3 to 8) (size 9 to 14) (size 15 to 20)
#    0.000    1.500    2.500    1.500    1.750    5.000 
#    2.250    6.250    0.000    0.000    0.000    0.000 
#    0.000    0.000    0.000    0.000    0.000    0.000 
#
# Total GULP energy -44722.150770 kJ/mol
# GULP energy per Si atom -5590.268846 kJ/mol
# Density = 2.322344 g / cm^3
# Si number density = 23.276417 Si / 1000 Ang^3
#
#
#
# Elastic Constant Matrix: (Units=GPa)
#
#
# Indices 1 2 3 4 5 6 
#
# 1 98.0395 65.5837 34.8984 0.9842 -19.0423 -7.7610
# 2 65.5837 82.2914 36.7377 19.5885 -6.7964 -10.8322
# 3 34.8984 36.7377 116.5060 8.5704 -10.4127 -3.3049
# 4 0.9842 19.5885 8.5704 45.0176 -5.1126 -9.4041
# 5 -19.0423 -6.7964 -10.4127 -5.1126 43.3807 -0.6526
# 6 -7.7610 -10.8322 -3.3049 -9.4041 -0.6526 18.7162
#
#
#
# Elastic Compliance Matrix: (Units=1/GPa)
#
#
# Indices 1 2 3 4 5 6 
#
# 1 0.028728 -0.023948 -0.000911 0.012009 0.010119 0.004278
# 2 -0.023948 0.036158 -0.003730 -0.014793 -0.007446 0.002645
# 3 -0.000911 -0.003730 0.010157 -0.000308 0.001404 -0.000849
# 4 0.012009 -0.014793 -0.000308 0.031855 0.006824 0.012608
# 5 0.010119 -0.007446 0.001404 0.006824 0.027536 0.004523
# 6 0.004278 0.002645 -0.000849 0.012608 0.004523 0.063077
#
#
# Mechanical properties :
#
#
# Convention : Reuss Voigt Hill
#
# Bulk Modulus (GPa) = 55.98309 63.47519 59.72914
# Shear Modulus (GPa) = 19.18311 32.06403 25.62357
#
# Velocity S-wave (km/s) = 2.87390 3.71554 3.32149
# Velocity P-wave (km/s) = 5.92588 6.76287 6.35816
#
# Compressibility (1/GPa) = 0.01786254
#
# Stress axis : x y z
#
# Youngs Moduli (GPa) = 34.80882 27.65649 98.45784
#
# Poissons Ratio (x) = 0.66233 0.08973
# Poissons Ratio (y) = 0.83362 0.36729
# Poissons Ratio (z) = 0.03172 0.10317
#
# Static dielectric constant tensor:
#      x y z
#    x 1.901200 0.003960 -0.022970 
#    y 0.003960 1.863540 -0.040640 
#    z -0.022970 -0.040640 1.923550 
# 
# From -- ./inp_files/602.got.cif
#   From: 2010.05.17/outbox.cif.g08.bks.cpg/sg1_1_cif.got.tgz:602.got - 2010.05.17 20:27:59.
