data_PCOD9000912
_publ_section_title
;
Structure prediction by ZEFSAII (Michael W. Deem and Ramdas Pophale) SiO2 
 PCOD9000912
Probable space group: P 1
;
_chemical_formula_sum "Si O2"
_cell_formula_units_Z 8
_cell_length_a 6.477745
_cell_length_b 11.087546
_cell_length_c 5.469971
_cell_angle_alpha 61.447340
_cell_angle_beta 101.327616
_cell_angle_gamma 92.930453
_cell_volume 337.945369
_symmetry_space_group_name_H-M "P 1"
_symmetry_group_IT_number 1
_symmetry_cell_setting 'triclinic'
loop_
_space_group_symop_operation_xyz
x,y,z
loop_
_atom_site_type_symbol
_atom_site_label
_atom_site_fract_x
_atom_site_fract_y
_atom_site_fract_z
Si Si1 0.546780 0.640480 0.293340
Si Si2 0.993041 0.544655 0.737384
Si Si3 0.274648 0.800704 0.459442
Si Si4 0.620795 0.203178 0.670082
Si Si5 0.696077 0.457414 0.127041
Si Si6 0.856492 0.958384 0.183092
Si Si7 0.638092 0.932510 0.668950
Si Si8 0.344975 0.388853 0.712545
O O1 0.770722 0.603481 0.516353
O O2 0.415690 0.758591 0.296564
O O3 0.611496 0.606286 0.062678
O O4 0.390617 0.514845 0.421950
O O5 0.148889 0.670169 0.649057
O O6 0.118177 0.422549 0.740367
O O7 0.919774 0.482784 0.034862
O O8 0.425017 0.859900 0.639500
O O9 0.100218 0.920155 0.245119
O O10 0.711380 0.340424 0.449728
O O11 0.587935 0.094101 0.553090
O O12 0.407745 0.249788 0.718331
O O13 0.779664 0.116677 0.969199
O O14 0.523966 0.404797 0.947662
O O15 0.781027 0.916151 0.475809
O O16 0.747991 0.884677 0.995728
#
# Coordination Sequence:
#
# PCOD9000912 Si02
#       8
#     1   1   1   1   1   1   1   1
#     4   9  21  42  62 101 139 181 238 296 354 434
#     4  10  22  42  67 105 141 183 240 295 376 421
#     4  11  23  48  71 106 148 193 242 295 368 440
#     4   9  21  44  73  97 149 187 241 306 357 433
#     4  10  20  42  71 100 140 185 238 304 362 432
#     4  10  24  48  73 108 145 197 241 298 367 422
#     4  10  24  48  72 110 146 190 248 299 356 436
#     4   9  19  40  67  97 138 186 234 295 366 422
#
# _framework density 23.672464999999999
#
# number of rings (size 3 to 8) (size 9 to 14) (size 15 to 20)
#    0.750    1.500    0.000    1.500    0.000    4.000 
#   29.250   16.250    0.000    0.000    0.000    0.000 
#    0.000    0.000    0.000    0.000    0.000    0.000 
#
# Total GULP energy -44663.482246 kJ/mol
# GULP energy per Si atom -5582.935281 kJ/mol
# Density = 2.361859 g / cm^3
# Si number density = 23.672465 Si / 1000 Ang^3
#
#
#
# Elastic Constant Matrix: (Units=GPa)
#
#
# Indices 1 2 3 4 5 6 
#
# 1 159.2655 62.9636 53.1049 6.4977 -15.6214 -37.1988
# 2 62.9636 120.6135 27.0030 16.3414 -3.4584 -33.0828
# 3 53.1049 27.0030 91.9248 6.1417 -16.9360 -12.5014
# 4 6.4977 16.3414 6.1417 43.6743 -4.7525 1.4279
# 5 -15.6214 -3.4584 -16.9360 -4.7525 36.3085 7.4098
# 6 -37.1988 -33.0828 -12.5014 1.4279 7.4098 52.6371
#
#
#
# Elastic Compliance Matrix: (Units=1/GPa)
#
#
# Indices 1 2 3 4 5 6 
#
# 1 0.009910 -0.003228 -0.004032 0.000321 0.001338 0.003820
# 2 -0.003228 0.012311 -0.001145 -0.004420 -0.002482 0.005654
# 3 -0.004032 -0.001145 0.014375 -0.000424 0.004978 -0.000844
# 4 0.000321 -0.004420 -0.000424 0.025078 0.003585 -0.003837
# 5 0.001338 -0.002482 0.004978 0.003585 0.031481 -0.003961
# 6 0.003820 0.005654 -0.000844 -0.003837 -0.003961 0.025712
#
#
# Mechanical properties :
#
#
# Convention : Reuss Voigt Hill
#
# Bulk Modulus (GPa) = 50.54157 73.10520 61.82339
# Shear Modulus (GPa) = 35.14441 41.77280 38.45860
#
# Velocity S-wave (km/s) = 3.85725 4.20529 4.03502
# Velocity P-wave (km/s) = 6.42141 7.38433 6.91964
#
# Compressibility (1/GPa) = 0.01978569
#
# Stress axis : x y z
#
# Youngs Moduli (GPa) = 100.91175 81.23053 69.56648
#
# Poissons Ratio (x) = 0.26220 0.28050
# Poissons Ratio (y) = 0.32572 0.07963
# Poissons Ratio (z) = 0.40689 0.09299
#
# Static dielectric constant tensor:
#      x y z
#    x 1.843910 0.017030 0.000400 
#    y 0.017030 1.967630 -0.028780 
#    z 0.000400 -0.028780 2.022770 
# 
# From -- ./inp_files/345.got.cif
#   From: 2010.05.17/outbox.cif.g08.bks.cpg/sg1_1_cif.got.tgz:345.got - 2010.05.17 20:27:59.
