data_PCOD9000335
_publ_section_title
;
Structure prediction by ZEFSAII (Michael W. Deem and Ramdas Pophale) SiO2 
 PCOD9000335
Probable space group: P 1
;
_chemical_formula_sum "Si O2"
_cell_formula_units_Z 8
_cell_length_a 5.557154
_cell_length_b 10.743993
_cell_length_c 12.768620
_cell_angle_alpha 148.923817
_cell_angle_beta 114.374499
_cell_angle_gamma 51.769418
_cell_volume 295.895130
_symmetry_space_group_name_H-M "P 1"
_symmetry_group_IT_number 1
_symmetry_cell_setting 'triclinic'
loop_
_space_group_symop_operation_xyz
x,y,z
loop_
_atom_site_type_symbol
_atom_site_label
_atom_site_fract_x
_atom_site_fract_y
_atom_site_fract_z
Si Si1 0.380500 0.219730 0.968060
Si Si2 0.923466 0.655953 0.386123
Si Si3 0.667018 0.621428 0.706530
Si Si4 0.250342 0.142012 0.232401
Si Si5 0.350750 0.426595 0.652173
Si Si6 0.460557 0.631434 0.167229
Si Si7 0.883020 0.218651 0.764721
Si Si8 0.871810 0.019780 0.208680
O O1 0.199992 0.214097 0.827615
O O2 0.554639 0.905240 0.822778
O O3 0.150268 0.449326 0.182280
O O4 0.570759 0.349644 0.054636
O O5 0.008761 0.442514 0.344934
O O6 0.571092 0.798274 0.376715
O O7 0.969281 0.911193 0.603462
O O8 0.388529 0.654279 0.754955
O O9 0.035604 0.509527 0.721877
O O10 0.718709 0.358459 0.452224
O O11 0.353194 0.212866 0.411678
O O12 0.087076 0.977081 0.116669
O O13 0.584971 0.980601 0.113351
O O14 0.682947 0.269377 0.661946
O O15 0.095102 0.829278 0.208580
O O16 0.647618 0.493147 0.993981
#
# Coordination Sequence:
#
# PCOD9000335 Si02
#       8
#     1   1   1   1   1   1   1   1
#     4  11  28  46  73 110 148 192 251 304 370 447
#     4  11  26  47  75 106 149 198 243 307 375 441
#     4  10  23  44  72 101 147 191 241 301 364 437
#     4  10  23  43  73 104 141 192 247 296 367 436
#     4  10  23  43  73 104 141 192 247 296 367 436
#     4  11  28  46  73 110 148 192 251 304 370 447
#     4  11  26  47  75 106 149 198 243 307 375 441
#     4  10  23  44  72 101 147 191 241 301 364 437
#
# _framework density 27.036605000000002
#
# number of rings (size 3 to 8) (size 9 to 14) (size 15 to 20)
#    0.000    1.500    0.000    3.000   17.500    3.000 
#    0.000    0.000    0.000    0.000    0.000    0.000 
#    0.000    0.000    0.000    0.000    0.000    0.000 
#
# Total GULP energy -44768.054289 kJ/mol
# GULP energy per Si atom -5596.006786 kJ/mol
# Density = 2.697507 g / cm^3
# Si number density = 27.036605 Si / 1000 Ang^3
#
#
#
# Elastic Constant Matrix: (Units=GPa)
#
#
# Indices 1 2 3 4 5 6 
#
# 1 120.9113 -0.2407 24.0226 -2.2957 15.2318 1.2847
# 2 -0.2407 96.3449 4.5940 -2.6795 -12.7123 -3.2653
# 3 24.0226 4.5940 92.2696 -5.7633 12.0045 -5.3022
# 4 -2.2957 -2.6795 -5.7633 51.0439 -0.1603 6.3980
# 5 15.2318 -12.7123 12.0045 -0.1603 45.8534 -4.0617
# 6 1.2847 -3.2653 -5.3022 6.3980 -4.0617 36.9452
#
#
#
# Elastic Compliance Matrix: (Units=1/GPa)
#
#
# Indices 1 2 3 4 5 6 
#
# 1 0.009019 -0.000251 -0.002033 0.000275 -0.002618 -0.000963
# 2 -0.000251 0.010921 -0.000837 0.000331 0.003435 0.001174
# 3 -0.002033 -0.000837 0.011877 0.001042 -0.002553 0.001240
# 4 0.000275 0.000331 0.001042 0.020160 -0.000501 -0.003377
# 5 -0.002618 0.003435 -0.002553 -0.000501 0.024546 0.002814
# 6 -0.000963 0.001174 0.001240 -0.003377 0.002814 0.028277
#
#
# Mechanical properties :
#
#
# Convention : Reuss Voigt Hill
#
# Bulk Modulus (GPa) = 39.10104 40.69751 39.89927
# Shear Modulus (GPa) = 41.81714 45.51182 43.66448
#
# Velocity S-wave (km/s) = 3.93706 4.10730 4.02308
# Velocity P-wave (km/s) = 5.92966 6.13015 6.03074
#
# Compressibility (1/GPa) = 0.02557477
#
# Stress axis : x y z
#
# Youngs Moduli (GPa) = 110.87451 91.56703 84.19400
#
# Poissons Ratio (x) = 0.02297 0.17119
# Poissons Ratio (y) = 0.02782 0.07049
# Poissons Ratio (z) = 0.22544 0.07666
#
# Static dielectric constant tensor:
#      x y z
#    x 2.181330 -0.020000 -0.074510 
#    y -0.020000 2.089160 -0.006580 
#    z -0.074510 -0.006580 2.065740 
# 
# From -- ./inp_files/3227.got.cif
#   From: 2010.05.17/outbox.cif.g08.bks.cpg/sg1_2_cif.got.tgz:3227.got - 2010.05.17 20:27:59.
