data_PCOD9000472
_publ_section_title
;
Structure prediction by ZEFSAII (Michael W. Deem and Ramdas Pophale) SiO2 
 PCOD9000472
Probable space group: P 1
;
_chemical_formula_sum "Si O2"
_cell_formula_units_Z 8
_cell_length_a 8.798875
_cell_length_b 11.688375
_cell_length_c 4.749395
_cell_angle_alpha 73.895712
_cell_angle_beta 98.479921
_cell_angle_gamma 143.038983
_cell_volume 279.829678
_symmetry_space_group_name_H-M "P 1"
_symmetry_group_IT_number 1
_symmetry_cell_setting 'triclinic'
loop_
_space_group_symop_operation_xyz
x,y,z
loop_
_atom_site_type_symbol
_atom_site_label
_atom_site_fract_x
_atom_site_fract_y
_atom_site_fract_z
Si Si1 0.417220 0.761930 0.979980
Si Si2 0.875586 0.891637 0.972938
Si Si3 0.069425 0.404481 0.725520
Si Si4 0.935453 0.545199 0.359050
Si Si5 0.225579 0.944037 0.393767
Si Si6 0.583027 0.485902 0.941913
Si Si7 0.233088 0.290546 0.484875
Si Si8 0.583049 0.118865 0.851693
O O1 0.289653 0.610280 0.794871
O O2 0.511422 0.949055 0.786722
O O3 0.644493 0.819515 0.106416
O O4 0.183769 0.644787 0.206887
O O5 0.755664 0.707854 0.890254
O O6 0.061387 0.949389 0.213523
O O7 0.014799 0.068276 0.681516
O O8 0.836629 0.362396 0.612856
O O9 0.161254 0.375719 0.529417
O O10 0.860117 0.222045 0.994990
O O11 0.741321 0.475590 0.126645
O O12 0.036607 0.711202 0.478393
O O13 0.354376 0.051989 0.650257
O O14 0.450877 0.059476 0.157101
O O15 0.328016 0.349279 0.151886
O O16 0.487789 0.411766 0.650865
#
# Coordination Sequence:
#
# PCOD9000472 Si02
#       8
#     1   1   1   1   1   1   1   1
#     4  11  23  49  67 107 144 188 234 299 361 428
#     4  11  25  49  74 106 152 191 237 306 360 434
#     4  12  25  43  73 103 140 190 234 296 354 427
#     4  10  25  44  75 101 142 190 236 298 362 417
#     4  10  25  46  70 104 139 188 232 293 359 419
#     4  11  28  49  74 106 150 186 249 299 358 434
#     4  12  28  47  74 111 141 200 240 292 371 431
#     4  11  25  45  69 104 140 181 242 287 353 428
#
# _framework density 28.588818
#
# number of rings (size 3 to 8) (size 9 to 14) (size 15 to 20)
#    0.000    1.000    3.750    0.750    7.000    4.000 
#    4.500    0.000    0.000    0.000    0.000    0.000 
#    0.000    0.000    0.000    0.000    0.000    0.000 
#
# Total GULP energy -44849.894342 kJ/mol
# GULP energy per Si atom -5606.236793 kJ/mol
# Density = 2.852375 g / cm^3
# Si number density = 28.588818 Si / 1000 Ang^3
#
#
#
# Elastic Constant Matrix: (Units=GPa)
#
#
# Indices 1 2 3 4 5 6 
#
# 1 169.4510 48.6056 16.8155 -12.1662 -6.2968 13.6640
# 2 48.6056 166.6426 32.5528 -23.6494 5.6445 -16.7891
# 3 16.8155 32.5528 110.8041 -3.8859 -15.1392 -4.3255
# 4 -12.1662 -23.6494 -3.8859 50.3010 7.5177 4.2839
# 5 -6.2968 5.6445 -15.1392 7.5177 42.3539 -7.1048
# 6 13.6640 -16.7891 -4.3255 4.2839 -7.1048 62.0045
#
#
#
# Elastic Compliance Matrix: (Units=1/GPa)
#
#
# Indices 1 2 3 4 5 6 
#
# 1 0.006761 -0.002019 -0.000397 0.000730 0.000661 -0.002039
# 2 -0.002019 0.007718 -0.002093 0.003163 -0.002319 0.001904
# 3 -0.000397 -0.002093 0.010270 -0.000981 0.004197 0.000786
# 4 0.000730 0.003163 -0.000981 0.022322 -0.004873 -0.001473
# 5 0.000661 -0.002319 0.004197 -0.004873 0.026875 0.002935
# 6 -0.002039 0.001904 0.000786 -0.001473 0.002935 0.017586
#
#
# Mechanical properties :
#
#
# Convention : Reuss Voigt Hill
#
# Bulk Modulus (GPa) = 63.56227 71.42728 67.49477
# Shear Modulus (GPa) = 47.26265 54.19347 50.72806
#
# Velocity S-wave (km/s) = 4.07035 4.35859 4.21694
# Velocity P-wave (km/s) = 6.66122 7.09707 6.88259
#
# Compressibility (1/GPa) = 0.01573260
#
# Stress axis : x y z
#
# Youngs Moduli (GPa) = 147.90148 129.57173 97.37510
#
# Poissons Ratio (x) = 0.26157 0.03863
# Poissons Ratio (y) = 0.29858 0.20376
# Poissons Ratio (z) = 0.05867 0.27113
#
# Static dielectric constant tensor:
#      x y z
#    x 2.440800 0.021380 0.227580 
#    y 0.021380 2.246790 -0.080480 
#    z 0.227580 -0.080480 2.297760 
# 
# From -- ./inp_files/1673.got.cif
#   From: 2010.05.17/outbox.cif.g08.bks.cpg/sg1_1_cif.got.tgz:1673.got - 2010.05.17 20:27:59.
