data_PCOD9000760
_publ_section_title
;
Structure prediction by ZEFSAII (Michael W. Deem and Ramdas Pophale) SiO2 
 PCOD9000760
Probable space group: P 1
;
_chemical_formula_sum "Si O2"
_cell_formula_units_Z 8
_cell_length_a 5.519484
_cell_length_b 8.308234
_cell_length_c 12.098639
_cell_angle_alpha 45.164041
_cell_angle_beta 69.146405
_cell_angle_gamma 60.713859
_cell_volume 343.090614
_symmetry_space_group_name_H-M "P 1"
_symmetry_group_IT_number 1
_symmetry_cell_setting 'triclinic'
loop_
_space_group_symop_operation_xyz
x,y,z
loop_
_atom_site_type_symbol
_atom_site_label
_atom_site_fract_x
_atom_site_fract_y
_atom_site_fract_z
Si Si1 0.547050 0.536140 0.488930
Si Si2 0.577829 0.060556 0.794319
Si Si3 0.145893 0.705280 0.806216
Si Si4 0.019601 0.929398 0.470263
Si Si5 0.282578 0.758630 0.070595
Si Si6 0.711847 0.602138 0.676014
Si Si7 0.148630 0.246611 0.934819
Si Si8 0.855470 0.496595 0.236114
O O1 0.671289 0.525716 0.596226
O O2 0.748791 0.550025 0.353701
O O3 0.258462 0.761865 0.431075
O O4 0.510039 0.275908 0.612983
O O5 0.900410 0.901433 0.816789
O O6 0.471039 0.167112 0.882306
O O7 0.391450 0.893940 0.891100
O O8 0.474942 0.631022 0.791575
O O9 0.091874 0.448905 0.939896
O O10 0.102590 0.823636 0.631805
O O11 0.748789 0.860810 0.528790
O O12 0.977406 0.208407 0.336214
O O13 0.571732 0.604397 0.158602
O O14 0.094641 0.612044 0.131153
O O15 0.112471 0.987420 0.068411
O O16 0.980723 0.400759 0.783329
#
# Coordination Sequence:
#
# PCOD9000760 Si02
#       8
#     1   1   1   1   1   1   1   1
#     4  11  23  42  74  98 127 182 234 283 337 402
#     4  10  20  43  67  96 130 176 236 274 340 398
#     4  10  19  39  66 103 127 174 227 295 329 397
#     4  10  22  41  63 101 136 173 227 285 339 402
#     4  10  27  47  66  97 145 182 223 279 345 413
#     4  10  19  39  71 102 132 168 234 299 328 395
#     4   9  21  42  63  94 137 171 228 277 341 393
#     4  12  27  47  66 101 144 182 221 286 343 414
#
# _framework density 23.317457999999998
#
# number of rings (size 3 to 8) (size 9 to 14) (size 15 to 20)
#    0.750    1.000    5.000    0.000    8.750    0.000 
#   13.500    0.000    0.000    0.000    0.000    0.000 
#    0.000    0.000    0.000    0.000    0.000    0.000 
#
# Total GULP energy -44594.108058 kJ/mol
# GULP energy per Si atom -5574.263507 kJ/mol
# Density = 2.326439 g / cm^3
# Si number density = 23.317458 Si / 1000 Ang^3
#
#
#
# Elastic Constant Matrix: (Units=GPa)
#
#
# Indices 1 2 3 4 5 6 
#
# 1 105.6753 42.1973 51.8511 -18.1036 -21.1745 -6.6800
# 2 42.1973 114.6760 33.0280 -28.8738 5.1857 -21.7890
# 3 51.8511 33.0280 92.2095 -37.5170 -19.3074 8.8095
# 4 -18.1036 -28.8738 -37.5170 49.5446 3.9971 -2.5104
# 5 -21.1745 5.1857 -19.3074 3.9971 31.6409 -4.3496
# 6 -6.6800 -21.7890 8.8095 -2.5104 -4.3496 30.0185
#
#
#
# Elastic Compliance Matrix: (Units=1/GPa)
#
#
# Indices 1 2 3 4 5 6 
#
# 1 0.016029 -0.004080 -0.007283 -0.002477 0.007767 0.003661
# 2 -0.004080 0.014780 -0.002849 0.005988 -0.006238 0.010253
# 3 -0.007283 -0.002849 0.023245 0.012282 0.007063 -0.008460
# 4 -0.002477 0.005988 0.012282 0.032125 0.001217 0.003054
# 5 0.007767 -0.006238 0.007063 0.001217 0.042165 0.001339
# 6 0.003661 0.010253 -0.008460 0.003054 0.001339 0.044502
#
#
# Mechanical properties :
#
#
# Convention : Reuss Voigt Hill
#
# Bulk Modulus (GPa) = 39.01747 62.96819 50.99283
# Shear Modulus (GPa) = 23.83047 34.60643 29.21845
#
# Velocity S-wave (km/s) = 3.20034 3.85664 3.54372
# Velocity P-wave (km/s) = 5.51595 6.84798 6.21774
#
# Compressibility (1/GPa) = 0.02562955
#
# Stress axis : x y z
#
# Youngs Moduli (GPa) = 62.38575 67.65866 43.01966
#
# Poissons Ratio (x) = 0.27603 0.31333
# Poissons Ratio (y) = 0.25452 0.12257
# Poissons Ratio (z) = 0.45438 0.19278
#
# Static dielectric constant tensor:
#      x y z
#    x 1.983900 0.049710 -0.054500 
#    y 0.049710 1.929470 -0.018670 
#    z -0.054500 -0.018670 1.903840 
# 
# From -- ./inp_files/2443.got.cif
#   From: 2010.05.17/outbox.cif.g08.bks.cpg/sg1_2_cif.got.tgz:2443.got - 2010.05.17 20:27:59.
