data_PCOD9000866
_publ_section_title
;
Structure prediction by ZEFSAII (Michael W. Deem and Ramdas Pophale) SiO2 
 PCOD9000866
Probable space group: P 1
;
_chemical_formula_sum "Si O2"
_cell_formula_units_Z 8
_cell_length_a 8.391044
_cell_length_b 10.693335
_cell_length_c 7.357789
_cell_angle_alpha 60.220175
_cell_angle_beta 77.386081
_cell_angle_gamma 40.599850
_cell_volume 357.875799
_symmetry_space_group_name_H-M "P 1"
_symmetry_group_IT_number 1
_symmetry_cell_setting 'triclinic'
loop_
_space_group_symop_operation_xyz
x,y,z
loop_
_atom_site_type_symbol
_atom_site_label
_atom_site_fract_x
_atom_site_fract_y
_atom_site_fract_z
Si Si1 0.896300 0.816670 0.778360
Si Si2 0.213628 0.864588 0.517272
Si Si3 0.526266 0.100167 0.383639
Si Si4 0.642448 0.571173 0.881595
Si Si5 0.012483 0.287671 0.276318
Si Si6 0.728692 0.385394 0.640402
Si Si7 0.810055 0.002448 0.019554
Si Si8 0.325119 0.523253 0.142683
O O1 0.000866 0.898769 0.613861
O O2 0.721380 0.875806 0.619661
O O3 0.731206 0.957561 0.898813
O O4 0.160798 0.577108 0.968927
O O5 0.427856 0.630468 0.524010
O O6 0.095241 0.084908 0.297099
O O7 0.377950 0.810734 0.691027
O O8 0.269378 0.193915 0.329981
O O9 0.443501 0.302935 0.362854
O O10 0.669907 0.055286 0.199369
O O11 0.537881 0.489074 0.046097
O O12 0.817373 0.512034 0.040295
O O13 0.807540 0.430283 0.761139
O O14 0.868840 0.332553 0.460588
O O15 0.769374 0.193920 0.829979
O O16 0.110890 0.757374 0.135945
#
# Coordination Sequence:
#
# PCOD9000866 Si02
#       8
#     1   1   1   1   1   1   1   1
#     4   9  20  41  61  86 118 144 207 244 266 358
#     4   9  20  41  59  89 114 145 208 241 272 350
#     4  12  24  38  59  89 123 156 185 237 302 343
#     4   9  20  41  61  86 118 144 207 244 266 358
#     4  12  24  38  59  89 123 156 185 237 302 343
#     4  10  20  40  64  86 112 156 197 238 294 330
#     4  10  20  40  64  86 112 156 197 238 294 330
#     4   9  20  41  59  89 114 145 208 241 272 350
#
# _framework density 22.354125
#
# number of rings (size 3 to 8) (size 9 to 14) (size 15 to 20)
#    1.500    0.500    2.500    0.750    0.000    4.000 
#    4.500    0.000    0.000    0.000    0.000    0.000 
#    0.000    0.000    0.000    0.000    0.000    0.000 
#
# Total GULP energy -44555.790141 kJ/mol
# GULP energy per Si atom -5569.473768 kJ/mol
# Density = 2.230325 g / cm^3
# Si number density = 22.354125 Si / 1000 Ang^3
#
#
#
# Elastic Constant Matrix: (Units=GPa)
#
#
# Indices 1 2 3 4 5 6 
#
# 1 38.8800 13.1140 29.6883 -9.6652 15.8430 -17.4586
# 2 13.1140 111.6400 31.9803 -5.5401 -7.5723 -12.2210
# 3 29.6883 31.9803 112.5938 -8.7224 15.8014 -20.2840
# 4 -9.6652 -5.5401 -8.7224 36.1151 1.9056 -0.5779
# 5 15.8430 -7.5723 15.8014 1.9056 39.5357 -14.7615
# 6 -17.4586 -12.2210 -20.2840 -0.5779 -14.7615 17.3923
#
#
#
# Elastic Compliance Matrix: (Units=1/GPa)
#
#
# Indices 1 2 3 4 5 6 
#
# 1 0.056067 0.000708 -0.004482 0.014969 -0.002677 0.049776
# 2 0.000708 0.011417 -0.002101 0.001245 0.007384 0.012591
# 3 -0.004482 -0.002101 0.012292 0.001608 -0.000666 0.007848
# 4 0.014969 0.001245 0.001608 0.032630 -0.001366 0.017700
# 5 -0.002677 0.007384 -0.000666 -0.001366 0.042072 0.037386
# 6 0.049776 0.012591 0.007848 0.017700 0.037386 0.157781
#
#
# Mechanical properties :
#
#
# Convention : Reuss Voigt Hill
#
# Bulk Modulus (GPa) = 14.70030 45.85322 30.27676
# Shear Modulus (GPa) = 14.42236 31.16403 22.79320
#
# Velocity S-wave (km/s) = 2.54279 3.73782 3.19665
# Velocity P-wave (km/s) = 3.90018 6.25981 5.21520
#
# Compressibility (1/GPa) = 0.06802582
#
# Stress axis : x y z
#
# Youngs Moduli (GPa) = 17.83580 87.58911 81.35404
#
# Poissons Ratio (x) = -0.06201 0.36464
# Poissons Ratio (y) = -0.01263 0.17092
# Poissons Ratio (z) = 0.07994 0.18402
#
# Static dielectric constant tensor:
#      x y z
#    x 1.833610 0.060740 0.054170 
#    y 0.060740 1.814690 0.007440 
#    z 0.054170 0.007440 1.844830 
# 
# From -- ./inp_files/4680.got.cif
#   From: 2010.05.17/outbox.cif.g08.bks.cpg/sg1_3_cif.got.tgz:4680.got - 2010.05.17 20:27:59.
