data_PCOD9000176
_publ_section_title
;
Structure prediction by ZEFSAII (Michael W. Deem and Ramdas Pophale) SiO2 
 PCOD9000176
Probable space group: P 1
;
_chemical_formula_sum "Si O2"
_cell_formula_units_Z 6
_cell_length_a 8.847035
_cell_length_b 6.825296
_cell_length_c 5.040652
_cell_angle_alpha 82.901384
_cell_angle_beta 85.564407
_cell_angle_gamma 52.797936
_cell_volume 240.575866
_symmetry_space_group_name_H-M "P 1"
_symmetry_group_IT_number 1
_symmetry_cell_setting 'triclinic'
loop_
_space_group_symop_operation_xyz
x,y,z
loop_
_atom_site_type_symbol
_atom_site_label
_atom_site_fract_x
_atom_site_fract_y
_atom_site_fract_z
Si Si1 0.622740 0.616920 0.660090
Si Si2 0.256416 0.319585 0.788233
Si Si3 0.875977 0.680452 0.961977
Si Si4 0.604649 0.232024 0.940115
Si Si5 0.393308 0.711197 0.168407
Si Si6 0.131126 0.196034 0.306120
O O1 0.758634 0.679691 0.735073
O O2 0.711999 0.333380 0.771423
O O3 0.538706 0.685791 0.368952
O O4 0.442573 0.755236 0.862361
O O5 0.455798 0.267184 0.736929
O O6 0.180070 0.239885 0.579158
O O7 0.077434 0.600742 0.835377
O O8 0.277046 0.184992 0.083336
O O9 0.749650 0.951282 0.055297
O O10 0.937555 0.448151 0.183308
O O11 0.467019 0.430979 0.152075
O O12 0.185614 0.926818 0.276487
#
# Coordination Sequence:
#
# PCOD9000176 Si02
#       6
#     1   1   1   1   1   1
#     4  10  24  40  66  91 126 164 209 250 311 369
#     4  10  24  40  66  91 126 164 209 250 311 369
#     4  10  24  43  65  94 126 164 208 258 309 368
#     4  10  24  43  65  94 126 164 208 258 309 368
#     4  10  22  41  65  93 124 166 207 254 310 369
#     4  10  22  41  65  93 124 166 207 254 310 369
#
# _framework density 24.940156000000002
#
# number of rings (size 3 to 8) (size 9 to 14) (size 15 to 20)
#    2.000    0.000    0.000    3.000    4.667    2.667 
#    0.000    0.000    0.000    0.000    0.000    0.000 
#    0.000    0.000    0.000    0.000    0.000    0.000 
#
# Total GULP energy -33406.517205 kJ/mol
# GULP energy per Si atom -5567.752868 kJ/mol
# Density = 2.488339 g / cm^3
# Si number density = 24.940156 Si / 1000 Ang^3
#
#
#
# Elastic Constant Matrix: (Units=GPa)
#
#
# Indices 1 2 3 4 5 6 
#
# 1 26.8804 12.8697 -5.7947 -3.7673 3.6775 -2.6510
# 2 12.8697 247.3356 42.0642 4.4139 14.6753 -15.0880
# 3 -5.7947 42.0642 122.6666 -6.6727 3.9726 -3.0972
# 4 -3.7673 4.4139 -6.6727 29.0458 -2.5966 -5.3021
# 5 3.6775 14.6753 3.9726 -2.5966 24.0441 -0.2469
# 6 -2.6510 -15.0880 -3.0972 -5.3021 -0.2469 12.2864
#
#
#
# Elastic Compliance Matrix: (Units=1/GPa)
#
#
# Indices 1 2 3 4 5 6 
#
# 1 0.041761 -0.001968 0.003517 0.008080 -0.004783 0.010871
# 2 -0.001968 0.004867 -0.001600 -0.000705 -0.002432 0.004796
# 3 0.003517 -0.001600 0.009125 0.003181 -0.000700 0.002452
# 4 0.008080 -0.000705 0.003181 0.040075 0.003192 0.019038
# 5 -0.004783 -0.002432 -0.000700 0.003192 0.044247 -0.001928
# 6 0.010871 0.004796 0.002452 0.019038 -0.001928 0.098421
#
#
# Mechanical properties :
#
#
# Convention : Reuss Voigt Hill
#
# Bulk Modulus (GPa) = 17.96983 55.01789 36.49386
# Shear Modulus (GPa) = 19.44398 36.25817 27.85107
#
# Velocity S-wave (km/s) = 2.79521 3.81702 3.34536
# Velocity P-wave (km/s) = 4.19981 6.44469 5.43932
#
# Compressibility (1/GPa) = 0.05564883
#
# Stress axis : x y z
#
# Youngs Moduli (GPa) = 23.94565 205.45996 109.59235
#
# Poissons Ratio (x) = 0.40441 -0.38540
# Poissons Ratio (y) = 0.04713 0.17540
# Poissons Ratio (z) = -0.08421 0.32883
#
# Static dielectric constant tensor:
#      x y z
#    x 2.000390 0.097600 -0.052050 
#    y 0.097600 2.216920 0.013360 
#    z -0.052050 0.013360 1.903860 
# 
# From -- ./inp_files/254.got.cif
#   From: 2010.05.17/outbox.cif.g08.bks.cpg/sg1_1_cif.got.tgz:254.got - 2010.05.17 20:27:59.
