data_PCOD9000039
_publ_section_title
;
Structure prediction by ZEFSAII (Michael W. Deem and Ramdas Pophale) SiO2 
 PCOD9000039
Probable space group: P 1
;
_chemical_formula_sum "Si O2"
_cell_formula_units_Z 8
_cell_length_a 6.785347
_cell_length_b 7.367699
_cell_length_c 12.771303
_cell_angle_alpha 37.272682
_cell_angle_beta 67.638034
_cell_angle_gamma 60.895494
_cell_volume 337.813412
_symmetry_space_group_name_H-M "P 1"
_symmetry_group_IT_number 1
_symmetry_cell_setting 'triclinic'
loop_
_space_group_symop_operation_xyz
x,y,z
loop_
_atom_site_type_symbol
_atom_site_label
_atom_site_fract_x
_atom_site_fract_y
_atom_site_fract_z
Si Si1 0.644950 0.529010 0.741940
Si Si2 0.721589 0.496561 0.119056
Si Si3 0.778703 0.100175 0.495356
Si Si4 0.739629 0.546863 0.485148
Si Si5 0.634371 0.145974 0.113713
Si Si6 0.381363 0.141406 0.882023
Si Si7 0.232704 0.617324 0.533621
Si Si8 0.193704 0.015084 0.174499
O O1 0.795390 0.487740 0.623653
O O2 0.424022 0.443307 0.791178
O O3 0.618269 0.883686 0.621241
O O4 0.733801 0.302622 0.928044
O O5 0.702425 0.374300 0.296327
O O6 0.575065 0.379926 0.117607
O O7 0.975958 0.308296 0.117751
O O8 0.627167 0.873618 0.955537
O O9 0.793059 0.243604 0.539555
O O10 0.023579 0.866375 0.519653
O O11 0.466118 0.681503 0.481779
O O12 0.795697 0.820112 0.282706
O O13 0.416154 0.085561 0.138487
O O14 0.279784 0.269192 0.731794
O O15 0.228512 0.004378 0.048470
O O16 0.196574 0.698404 0.380987
#
# Coordination Sequence:
#
# PCOD9000039 Si02
#       8
#     1   1   1   1   1   1   1   1
#     4  10  22  38  62  94 124 164 215 258 317 387
#     4  11  22  41  70  94 126 178 213 259 333 379
#     4  11  22  41  69  94 124 173 213 264 331 376
#     4  10  21  44  63  85 133 168 206 274 318 371
#     4  10  21  41  65  93 133 167 216 267 317 388
#     4  10  22  41  61  91 129 165 210 265 317 378
#     4   9  21  38  63  92 124 160 214 262 311 384
#     4   9  21  42  61  89 133 165 213 273 306 383
#
# _framework density 23.681709999999999
#
# number of rings (size 3 to 8) (size 9 to 14) (size 15 to 20)
#    0.000    2.000    1.250    2.250    5.250    0.000 
#    2.250    6.250    0.000    0.000    0.000    0.000 
#    0.000    0.000    0.000    0.000    0.000    0.000 
#
# Total GULP energy -44621.064568 kJ/mol
# GULP energy per Si atom -5577.633071 kJ/mol
# Density = 2.362781 g / cm^3
# Si number density = 23.681710 Si / 1000 Ang^3
#
#
#
# Elastic Constant Matrix: (Units=GPa)
#
#
# Indices 1 2 3 4 5 6 
#
# 1 47.2401 8.5602 13.1249 -2.0873 19.6678 -6.8594
# 2 8.5602 97.5958 59.4676 12.0463 5.7618 12.1171
# 3 13.1249 59.4676 202.8963 34.6304 30.3243 -14.8565
# 4 -2.0873 12.0463 34.6304 41.6864 5.0521 3.5214
# 5 19.6678 5.7618 30.3243 5.0521 36.8704 -2.8063
# 6 -6.8594 12.1171 -14.8565 3.5214 -2.8063 28.3133
#
#
#
# Elastic Compliance Matrix: (Units=1/GPa)
#
#
# Indices 1 2 3 4 5 6 
#
# 1 0.029446 -0.004060 0.001908 0.002374 -0.016362 0.007956
# 2 -0.004060 0.014872 -0.005411 0.000408 0.003483 -0.009893
# 3 0.001908 -0.005411 0.008792 -0.005540 -0.006075 0.007478
# 4 0.002374 0.000408 -0.005540 0.029275 -0.001262 -0.006273
# 5 -0.016362 0.003483 -0.006075 -0.001262 0.040132 -0.004508
# 6 0.007956 -0.009893 0.007478 -0.006273 -0.004508 0.045738
#
#
# Mechanical properties :
#
#
# Convention : Reuss Voigt Hill
#
# Bulk Modulus (GPa) = 26.32643 56.67086 41.49865
# Shear Modulus (GPa) = 25.50477 39.14598 32.32538
#
# Velocity S-wave (km/s) = 3.28530 4.07013 3.69859
# Velocity P-wave (km/s) = 5.05290 6.78749 5.98339
#
# Compressibility (1/GPa) = 0.03798463
#
# Stress axis : x y z
#
# Youngs Moduli (GPa) = 33.96020 67.24226 113.73734
#
# Poissons Ratio (x) = 0.27301 -0.21701
# Poissons Ratio (y) = 0.13788 0.61539
# Poissons Ratio (z) = -0.06480 0.36382
#
# Static dielectric constant tensor:
#      x y z
#    x 1.948200 0.008510 -0.018080 
#    y 0.008510 1.886900 0.041590 
#    z -0.018080 0.041590 1.998340 
# 
# From -- ./inp_files/5716.got.cif
#   From: 2010.05.17/outbox.cif.g08.bks.cpg/sg1_3_cif.got.tgz:5716.got - 2010.05.17 20:27:59.
