data_PCOD9000191
_publ_section_title
;
Structure prediction by ZEFSAII (Michael W. Deem and Ramdas Pophale) SiO2 
 PCOD9000191
Probable space group: P 1
;
_chemical_formula_sum "Si O2"
_cell_formula_units_Z 8
_cell_length_a 9.790681
_cell_length_b 9.003977
_cell_length_c 10.082905
_cell_angle_alpha 100.971690
_cell_angle_beta 47.398404
_cell_angle_gamma 136.259059
_cell_volume 366.240403
_symmetry_space_group_name_H-M "P 1"
_symmetry_group_IT_number 1
_symmetry_cell_setting 'triclinic'
loop_
_space_group_symop_operation_xyz
x,y,z
loop_
_atom_site_type_symbol
_atom_site_label
_atom_site_fract_x
_atom_site_fract_y
_atom_site_fract_z
Si Si1 0.383700 0.837350 0.957480
Si Si2 0.831124 0.582056 0.091741
Si Si3 0.257894 0.021481 0.237420
Si Si4 0.318185 0.487129 0.083443
Si Si5 0.919113 0.376521 0.526704
Si Si6 0.022291 0.009816 0.114569
Si Si7 0.958028 0.744551 0.644300
Si Si8 0.358485 0.085370 0.670058
O O1 0.675744 0.103661 0.721995
O O2 0.405082 0.678839 0.957668
O O3 0.035605 0.636900 0.082093
O O4 0.385829 0.940200 0.105776
O O5 0.534383 0.300122 0.175287
O O6 0.749264 0.700759 0.209612
O O7 0.113524 0.789982 0.830892
O O8 0.169068 0.036217 0.157851
O O9 0.969961 0.809223 0.495584
O O10 0.229636 0.497605 0.286143
O O11 0.013939 0.180455 0.181057
O O12 0.629902 0.586461 0.899280
O O13 0.720465 0.288601 0.508263
O O14 0.978251 0.575044 0.596568
O O15 0.249815 0.143093 0.856155
O O16 0.256534 0.024645 0.574942
#
# Coordination Sequence:
#
# PCOD9000191 Si02
#       8
#     1   1   1   1   1   1   1   1
#     4  10  22  42  64 101 130 168 224 274 332 388
#     4   8  18  39  67  87 128 174 217 262 324 391
#     4  11  20  40  70  95 131 178 218 272 330 391
#     4  12  24  43  68 100 138 170 223 275 332 396
#     4  11  23  46  70  91 135 181 216 276 331 389
#     4   9  21  41  65  91 134 174 211 272 330 386
#     4  12  24  41  68  99 134 176 222 271 330 397
#     4   9  20  42  68  88 126 181 215 264 331 386
#
# _framework density 21.843575000000001
#
# number of rings (size 3 to 8) (size 9 to 14) (size 15 to 20)
#    0.750    1.000    3.750    1.500    3.500    0.000 
#    4.500    0.000    2.750    0.000    0.000    0.000 
#    0.000    0.000    0.000    0.000    0.000    0.000 
#
# Total GULP energy -44558.741787 kJ/mol
# GULP energy per Si atom -5569.842723 kJ/mol
# Density = 2.179386 g / cm^3
# Si number density = 21.843575 Si / 1000 Ang^3
#
#
#
# Elastic Constant Matrix: (Units=GPa)
#
#
# Indices 1 2 3 4 5 6 
#
# 1 43.2317 46.2281 29.5768 13.3330 11.9199 -6.1139
# 2 46.2281 142.2604 29.3327 24.3779 3.6668 -2.1151
# 3 29.5768 29.3327 100.1668 18.0028 -4.8286 -4.7417
# 4 13.3330 24.3779 18.0028 33.2621 -3.2687 -1.3845
# 5 11.9199 3.6668 -4.8286 -3.2687 29.5995 2.6941
# 6 -6.1139 -2.1151 -4.7417 -1.3845 2.6941 35.1633
#
#
#
# Elastic Compliance Matrix: (Units=1/GPa)
#
#
# Indices 1 2 3 4 5 6 
#
# 1 0.056728 -0.013778 -0.012012 -0.008205 -0.024822 0.008994
# 2 -0.013778 0.011680 0.001375 -0.003459 0.004122 -0.001960
# 3 -0.012012 0.001375 0.013976 -0.003134 0.006670 -0.000756
# 4 -0.008205 -0.003459 -0.003134 0.038279 0.007551 -0.001129
# 5 -0.024822 0.004122 0.006670 0.007551 0.045772 -0.006378
# 6 0.008994 -0.001960 -0.000756 -0.001129 -0.006378 0.030227
#
#
# Mechanical properties :
#
#
# Convention : Reuss Voigt Hill
#
# Bulk Modulus (GPa) = 29.80076 55.10379 42.45227
# Shear Modulus (GPa) = 19.47972 31.63976 25.55974
#
# Velocity S-wave (km/s) = 2.98951 3.81001 3.42442
# Velocity P-wave (km/s) = 5.05852 6.68103 5.92557
#
# Compressibility (1/GPa) = 0.03355619
#
# Stress axis : x y z
#
# Youngs Moduli (GPa) = 17.62788 85.61502 71.54933
#
# Poissons Ratio (x) = 1.17959 0.85945
# Poissons Ratio (y) = 0.24287 -0.09841
# Poissons Ratio (z) = 0.21175 -0.11775
#
# Static dielectric constant tensor:
#      x y z
#    x 1.835480 0.004810 0.016430 
#    y 0.004810 1.837480 0.004640 
#    z 0.016430 0.004640 1.839800 
# 
# From -- ./inp_files/5393.got.cif
#   From: 2010.05.17/outbox.cif.g08.bks.cpg/sg1_3_cif.got.tgz:5393.got - 2010.05.17 20:27:59.
