data_PCOD9000615
_publ_section_title
;
Structure prediction by ZEFSAII (Michael W. Deem and Ramdas Pophale) SiO2 
 PCOD9000615
Probable space group: P 1
;
_chemical_formula_sum "Si O2"
_cell_formula_units_Z 6
_cell_length_a 11.642874
_cell_length_b 5.221029
_cell_length_c 5.033669
_cell_angle_alpha 89.095848
_cell_angle_beta 62.529661
_cell_angle_gamma 124.393539
_cell_volume 207.452142
_symmetry_space_group_name_H-M "P 1"
_symmetry_group_IT_number 1
_symmetry_cell_setting 'triclinic'
loop_
_space_group_symop_operation_xyz
x,y,z
loop_
_atom_site_type_symbol
_atom_site_label
_atom_site_fract_x
_atom_site_fract_y
_atom_site_fract_z
Si Si1 0.594350 0.292120 0.692300
Si Si2 0.963147 0.084102 0.974850
Si Si3 0.155102 0.951766 0.424796
Si Si4 0.870787 0.234075 0.569936
Si Si5 0.501991 0.442092 0.287386
Si Si6 0.310036 0.574429 0.837440
O O1 0.732568 0.263096 0.631119
O O2 0.611318 0.414239 0.373721
O O3 0.410633 0.917096 0.886442
O O4 0.579158 0.506099 0.913591
O O5 0.009339 0.884251 0.774861
O O6 0.232568 0.263098 0.131119
O O7 0.853821 0.111959 0.888512
O O8 0.885979 0.020096 0.348646
O O9 0.312004 0.091559 0.447312
O O10 0.153134 0.434637 0.814922
O O11 0.054504 0.609101 0.375793
O O12 0.455799 0.641945 0.487375
#
# Coordination Sequence:
#
# PCOD9000615 Si02
#       6
#     1   1   1   1   1   1
#     4  12  27  44  67  99 138 173 213 273 335 387
#     4  11  25  45  69  97 133 175 222 268 324 395
#     4  11  25  44  73  98 127 176 227 270 320 388
#     4  12  27  44  67  99 138 173 213 273 335 387
#     4  11  25  45  69  97 133 175 222 268 324 395
#     4  11  25  44  73  98 127 176 227 270 320 388
#
# _framework density 28.922332999999998
#
# number of rings (size 3 to 8) (size 9 to 14) (size 15 to 20)
#    0.000    0.667    3.333    3.000    9.333    2.667 
#    0.000    0.000    0.000    0.000    0.000    0.000 
#    0.000    0.000    0.000    0.000    0.000    0.000 
#
# Total GULP energy -33665.128817 kJ/mol
# GULP energy per Si atom -5610.854803 kJ/mol
# Density = 2.885650 g / cm^3
# Si number density = 28.922333 Si / 1000 Ang^3
#
#
#
# Elastic Constant Matrix: (Units=GPa)
#
#
# Indices 1 2 3 4 5 6 
#
# 1 190.8471 12.0503 24.8879 26.0038 3.6246 40.1845
# 2 12.0503 134.9462 42.4508 23.6201 6.8304 17.0756
# 3 24.8879 42.4508 160.4497 22.1198 -3.3027 -4.3808
# 4 26.0038 23.6201 22.1198 65.5556 -1.3840 -10.3248
# 5 3.6246 6.8304 -3.3027 -1.3840 54.3157 12.1211
# 6 40.1845 17.0756 -4.3808 -10.3248 12.1211 46.7537
#
#
#
# Elastic Compliance Matrix: (Units=1/GPa)
#
#
# Indices 1 2 3 4 5 6 
#
# 1 0.007691 0.001503 -0.001180 -0.004516 0.001015 -0.008530
# 2 0.001503 0.009487 -0.002335 -0.004150 -0.000240 -0.005830
# 3 -0.001180 -0.002335 0.007206 -0.000753 0.000277 0.002304
# 4 -0.004516 -0.004150 -0.000753 0.020361 -0.000951 0.010069
# 5 0.001015 -0.000240 0.000277 -0.000951 0.019723 -0.006082
# 6 -0.008530 -0.005830 0.002304 0.010069 -0.006082 0.034866
#
#
# Mechanical properties :
#
#
# Convention : Reuss Voigt Hill
#
# Bulk Modulus (GPa) = 49.11800 71.66900 60.39350
# Shear Modulus (GPa) = 45.39514 60.44861 52.92188
#
# Velocity S-wave (km/s) = 3.96606 4.57665 4.28225
# Velocity P-wave (km/s) = 6.16380 7.26369 6.73623
#
# Compressibility (1/GPa) = 0.02035913
#
# Stress axis : x y z
#
# Youngs Moduli (GPa) = 130.02290 105.40909 138.77739
#
# Poissons Ratio (x) = -0.15842 0.16376
# Poissons Ratio (y) = -0.19541 0.32406
# Poissons Ratio (z) = 0.15343 0.24614
#
# Static dielectric constant tensor:
#      x y z
#    x 2.225150 -0.014680 -0.064220 
#    y -0.014680 2.206170 -0.106350 
#    z -0.064220 -0.106350 2.255750 
# 
# From -- ./inp_files/1943.got.cif
#   From: 2010.05.17/outbox.cif.g08.bks.cpg/sg1_1_cif.got.tgz:1943.got - 2010.05.17 20:27:59.
