data_PCOD9000342
_publ_section_title
;
Structure prediction by ZEFSAII (Michael W. Deem and Ramdas Pophale) SiO2 
 PCOD9000342
Probable space group: P 1
;
_chemical_formula_sum "Si O2"
_cell_formula_units_Z 8
_cell_length_a 6.855278
_cell_length_b 5.661462
_cell_length_c 9.233138
_cell_angle_alpha 82.522563
_cell_angle_beta 107.144860
_cell_angle_gamma 76.400396
_cell_volume 325.056877
_symmetry_space_group_name_H-M "P 1"
_symmetry_group_IT_number 1
_symmetry_cell_setting 'triclinic'
loop_
_space_group_symop_operation_xyz
x,y,z
loop_
_atom_site_type_symbol
_atom_site_label
_atom_site_fract_x
_atom_site_fract_y
_atom_site_fract_z
Si Si1 0.496820 0.598990 0.533560
Si Si2 0.221015 0.005585 0.246692
Si Si3 0.885462 0.120115 0.587598
Si Si4 0.814676 0.880308 0.312607
Si Si5 0.118858 0.387114 0.418421
Si Si6 0.599681 0.642117 0.875010
Si Si7 0.212617 0.972375 0.907315
Si Si8 0.604774 0.112202 0.981146
O O1 0.689249 0.361319 0.552765
O O2 0.285525 0.509762 0.517243
O O3 0.555548 0.698270 0.691382
O O4 0.424295 0.798282 0.373094
O O5 0.216193 0.267453 0.297443
O O6 0.012822 0.955635 0.277465
O O7 0.192098 0.986925 0.072697
O O8 0.813237 0.937835 0.477460
O O9 0.072477 0.189851 0.533451
O O10 0.995977 0.017867 0.769543
O O11 0.624012 0.047056 0.161643
O O12 0.888736 0.585884 0.327432
O O13 0.377232 0.715354 0.909736
O O14 0.710030 0.841914 0.949454
O O15 0.688821 0.345057 0.940802
O O16 0.355375 0.158936 0.882309
#
# Coordination Sequence:
#
# PCOD9000342 Si02
#       8
#     1   1   1   1   1   1   1   1
#     4  11  25  42  72 101 139 191 236 292 362 428
#     4  10  24  42  68 102 142 183 238 293 359 426
#     4  11  25  43  71 102 139 184 242 293 356 430
#     4  10  24  43  68 100 136 195 228 298 355 430
#     4  10  23  44  67  97 143 181 241 292 352 426
#     4  10  24  45  70 101 145 186 234 293 357 420
#     4  10  24  42  69 106 140 184 235 299 355 419
#     4  10  25  41  77  97 146 184 234 294 362 413
#
# _framework density 24.611076000000001
#
# number of rings (size 3 to 8) (size 9 to 14) (size 15 to 20)
#    0.750    1.000    0.000    3.000   12.250    1.000 
#    0.000    1.250    0.000    0.000    0.000    0.000 
#    0.000    0.000    0.000    0.000    0.000    0.000 
#
# Total GULP energy -44694.087082 kJ/mol
# GULP energy per Si atom -5586.760885 kJ/mol
# Density = 2.455506 g / cm^3
# Si number density = 24.611076 Si / 1000 Ang^3
#
#
#
# Elastic Constant Matrix: (Units=GPa)
#
#
# Indices 1 2 3 4 5 6 
#
# 1 59.1755 8.3036 20.4344 1.9601 9.3622 -2.7755
# 2 8.3036 132.0739 63.7987 10.9285 3.2525 -14.2106
# 3 20.4344 63.7987 192.2086 18.1273 3.4347 -13.0850
# 4 1.9601 10.9285 18.1273 33.3656 -7.2318 -7.3759
# 5 9.3622 3.2525 3.4347 -7.2318 37.1892 -2.7336
# 6 -2.7755 -14.2106 -13.0850 -7.3759 -2.7336 43.5702
#
#
#
# Elastic Compliance Matrix: (Units=1/GPa)
#
#
# Indices 1 2 3 4 5 6 
#
# 1 0.018281 -0.000102 -0.001715 -0.001082 -0.004635 0.000142
# 2 -0.000102 0.009255 -0.002805 -0.001210 -0.000618 0.001926
# 3 -0.001715 -0.002805 0.006597 -0.002537 -0.000389 0.000503
# 4 -0.001082 -0.001210 -0.002537 0.034614 0.007720 0.005119
# 5 -0.004635 -0.000618 -0.000389 0.007720 0.029836 0.002565
# 6 0.000142 0.001926 0.000503 0.005119 0.002565 0.024767
#
#
# Mechanical properties :
#
#
# Convention : Reuss Voigt Hill
#
# Bulk Modulus (GPa) = 40.17810 63.17014 51.67412
# Shear Modulus (GPa) = 35.48839 42.21977 38.85408
#
# Velocity S-wave (km/s) = 3.80145 4.14633 3.97763
# Velocity P-wave (km/s) = 5.96897 6.97465 6.49132
#
# Compressibility (1/GPa) = 0.02488918
#
# Stress axis : x y z
#
# Youngs Moduli (GPa) = 54.70085 108.04415 151.59403
#
# Poissons Ratio (x) = 0.01101 0.26001
# Poissons Ratio (y) = 0.00557 0.42522
# Poissons Ratio (z) = 0.09382 0.30306
#
# Static dielectric constant tensor:
#      x y z
#    x 2.010820 0.017290 -0.005390 
#    y 0.017290 2.011770 -0.014950 
#    z -0.005390 -0.014950 1.939070 
# 
# From -- ./inp_files/3454.got.cif
#   From: 2010.05.17/outbox.cif.g08.bks.cpg/sg1_2_cif.got.tgz:3454.got - 2010.05.17 20:27:59.
