data_PCOD9000649
_publ_section_title
;
Structure prediction by ZEFSAII (Michael W. Deem and Ramdas Pophale) SiO2 
 PCOD9000649
Probable space group: P 1
;
_chemical_formula_sum "Si O2"
_cell_formula_units_Z 8
_cell_length_a 9.400704
_cell_length_b 7.843971
_cell_length_c 5.384701
_cell_angle_alpha 74.173860
_cell_angle_beta 78.093526
_cell_angle_gamma 123.487641
_cell_volume 285.368916
_symmetry_space_group_name_H-M "P 1"
_symmetry_group_IT_number 1
_symmetry_cell_setting 'triclinic'
loop_
_space_group_symop_operation_xyz
x,y,z
loop_
_atom_site_type_symbol
_atom_site_label
_atom_site_fract_x
_atom_site_fract_y
_atom_site_fract_z
Si Si1 0.992030 0.934970 0.889260
Si Si2 0.605291 0.772700 0.207268
Si Si3 0.985533 0.648553 0.642335
Si Si4 0.428421 0.491747 0.860768
Si Si5 0.082308 0.303128 0.351267
Si Si6 0.248174 0.831339 0.093426
Si Si7 0.609868 0.287790 0.623531
Si Si8 0.781883 0.231270 0.185485
O O1 0.921493 0.782313 0.725007
O O2 0.802868 0.820322 0.159957
O O3 0.081322 0.185723 0.648335
O O4 0.126694 0.888572 0.971602
O O5 0.467804 0.646294 0.545945
O O6 0.679084 0.031091 0.101063
O O7 0.523003 0.635355 0.029844
O O8 0.825696 0.465457 0.574718
O O9 0.197851 0.839979 0.391684
O O10 0.965050 0.472246 0.910426
O O11 0.508980 0.372876 0.762936
O O12 0.207693 0.301668 0.098169
O O13 0.178592 0.572878 0.226413
O O14 0.866953 0.169698 0.390516
O O15 0.457959 0.014989 0.844255
O O16 0.649828 0.284344 0.318730
#
# Coordination Sequence:
#
# PCOD9000649 Si02
#       8
#     1   1   1   1   1   1   1   1
#     4  12  27  52  82 117 172 228 278 358 432 511
#     4  12  28  49  84 121 170 226 286 355 429 515
#     4  12  24  52  81 116 167 226 279 350 428 516
#     4  12  29  52  79 125 172 222 290 354 429 517
#     4  12  28  53  81 125 171 222 288 356 429 510
#     4  12  28  51  80 124 169 221 285 350 436 511
#     4  12  28  52  81 122 169 229 281 351 436 514
#     4  12  28  51  84 120 170 228 285 354 435 508
#
# _framework density 28.033887
#
# number of rings (size 3 to 8) (size 9 to 14) (size 15 to 20)
#    0.000    0.000    3.750    4.500    8.750    2.000 
#    0.000    0.000    0.000    0.000    0.000    0.000 
#    0.000    0.000    0.000    0.000    0.000    0.000 
#
# Total GULP energy -44758.302816 kJ/mol
# GULP energy per Si atom -5594.787852 kJ/mol
# Density = 2.797008 g / cm^3
# Si number density = 28.033887 Si / 1000 Ang^3
#
#
#
# Elastic Constant Matrix: (Units=GPa)
#
#
# Indices 1 2 3 4 5 6 
#
# 1 133.8049 27.8706 38.6346 5.6080 5.6728 -8.8257
# 2 27.8706 147.1545 27.4836 9.5465 17.6983 -11.5043
# 3 38.6346 27.4836 167.4534 -8.7752 -2.1062 -3.5070
# 4 5.6080 9.5465 -8.7752 55.8055 -13.5757 -9.1325
# 5 5.6728 17.6983 -2.1062 -13.5757 51.6366 -1.7915
# 6 -8.8257 -11.5043 -3.5070 -9.1325 -1.7915 35.4926
#
#
#
# Elastic Compliance Matrix: (Units=1/GPa)
#
#
# Indices 1 2 3 4 5 6 
#
# 1 0.008360 -0.000980 -0.001802 -0.000954 -0.000862 0.001294
# 2 -0.000980 0.007811 -0.001163 -0.001917 -0.003068 0.001525
# 3 -0.001802 -0.001163 0.006699 0.001826 0.001363 0.000376
# 4 -0.000954 -0.001917 0.001826 0.021053 0.006547 0.005069
# 5 -0.000862 -0.003068 0.001363 0.006547 0.022350 0.001739
# 6 0.001294 0.001525 0.000376 0.005069 0.001739 0.030420
#
#
# Mechanical properties :
#
#
# Convention : Reuss Voigt Hill
#
# Bulk Modulus (GPa) = 66.75381 70.71003 68.73192
# Shear Modulus (GPa) = 45.63066 52.21521 48.92293
#
# Velocity S-wave (km/s) = 4.03885 4.32044 4.18201
# Velocity P-wave (km/s) = 6.75376 7.08280 6.92024
#
# Compressibility (1/GPa) = 0.01498042
#
# Stress axis : x y z
#
# Youngs Moduli (GPa) = 119.62036 128.02383 149.27433
#
# Poissons Ratio (x) = 0.12548 0.26893
# Poissons Ratio (y) = 0.11725 0.17361
# Poissons Ratio (z) = 0.21551 0.14889
#
# Static dielectric constant tensor:
#      x y z
#    x 2.211450 0.022390 0.048900 
#    y 0.022390 2.240810 0.029690 
#    z 0.048900 0.029690 2.233100 
# 
# From -- ./inp_files/2184.got.cif
#   From: 2010.05.17/outbox.cif.g08.bks.cpg/sg1_2_cif.got.tgz:2184.got - 2010.05.17 20:27:59.
