data_PCOD9000189
_publ_section_title
;
Structure prediction by ZEFSAII (Michael W. Deem and Ramdas Pophale) SiO2 
 PCOD9000189
Probable space group: P 1
;
_chemical_formula_sum "Si O2"
_cell_formula_units_Z 8
_cell_length_a 8.915068
_cell_length_b 7.808797
_cell_length_c 7.621977
_cell_angle_alpha 117.484495
_cell_angle_beta 70.443726
_cell_angle_gamma 131.430865
_cell_volume 352.584026
_symmetry_space_group_name_H-M "P 1"
_symmetry_group_IT_number 1
_symmetry_cell_setting 'triclinic'
loop_
_space_group_symop_operation_xyz
x,y,z
loop_
_atom_site_type_symbol
_atom_site_label
_atom_site_fract_x
_atom_site_fract_y
_atom_site_fract_z
Si Si1 0.065400 0.939280 0.403840
Si Si2 0.811074 0.705436 0.841834
Si Si3 0.112547 0.212986 0.155392
Si Si4 0.478211 0.063858 0.297479
Si Si5 0.398261 0.580862 0.948201
Si Si6 0.988813 0.260616 0.757418
Si Si7 0.763927 0.431731 0.090283
Si Si8 0.887657 0.384096 0.488257
O O1 0.918076 0.666657 0.260199
O O2 0.121576 0.107710 0.286579
O O3 0.273307 0.003263 0.419618
O O4 0.964821 0.016973 0.612809
O O5 0.911645 0.627738 0.632861
O O6 0.603166 0.641458 0.826064
O O7 0.754899 0.537008 0.959095
O O8 0.958405 0.978061 0.985469
O O9 0.313927 0.388237 0.049698
O O10 0.026845 0.365439 0.293952
O O11 0.562552 0.256491 0.195989
O O12 0.658367 0.186622 0.424529
O O13 0.438234 0.822360 0.122836
O O14 0.218101 0.458083 0.821150
O O15 0.938242 0.322365 0.622840
O O16 0.849620 0.279267 0.951720
#
# Coordination Sequence:
#
# PCOD9000189 Si02
#       8
#     1   1   1   1   1   1   1   1
#     4  10  22  42  65  90 124 161 207 251 306 363
#     4  10  22  42  65  90 124 161 207 251 306 363
#     4  10  22  43  64  90 126 163 199 258 307 357
#     4  12  23  40  66  93 125 161 207 251 305 367
#     4  12  23  40  66  93 125 161 207 251 305 367
#     4  10  22  42  63  90 126 161 204 255 305 359
#     4  10  22  43  64  90 126 163 199 258 307 357
#     4  10  22  42  63  90 126 161 204 255 305 359
#
# _framework density 22.689626000000001
#
# number of rings (size 3 to 8) (size 9 to 14) (size 15 to 20)
#    0.000    1.500    2.500    2.250    0.000    1.000 
#    4.500    2.500    0.000    0.000    0.000    0.000 
#    0.000    0.000    0.000    0.000    0.000    0.000 
#
# Total GULP energy -44749.079319 kJ/mol
# GULP energy per Si atom -5593.634915 kJ/mol
# Density = 2.263798 g / cm^3
# Si number density = 22.689626 Si / 1000 Ang^3
#
#
#
# Elastic Constant Matrix: (Units=GPa)
#
#
# Indices 1 2 3 4 5 6 
#
# 1 103.7872 21.0850 41.6921 10.8006 -21.7651 6.0952
# 2 21.0850 106.9697 22.6426 7.9144 -18.7667 -5.1624
# 3 41.6921 22.6426 114.8998 14.8821 -19.3282 1.7400
# 4 10.8006 7.9144 14.8821 33.5678 -5.3978 -3.9242
# 5 -21.7651 -18.7667 -19.3282 -5.3978 59.7463 -7.4330
# 6 6.0952 -5.1624 1.7400 -3.9242 -7.4330 42.1792
#
#
#
# Elastic Compliance Matrix: (Units=1/GPa)
#
#
# Indices 1 2 3 4 5 6 
#
# 1 0.012073 -0.001129 -0.003465 -0.001839 0.002575 -0.001457
# 2 -0.001129 0.010431 -0.001103 -0.000963 0.002653 0.001863
# 3 -0.003465 -0.001103 0.010863 -0.003194 0.001605 -0.000097
# 4 -0.001839 -0.000963 -0.003194 0.032665 0.001389 0.003563
# 5 0.002575 0.002653 0.001605 0.001389 0.019585 0.003467
# 6 -0.001457 0.001863 -0.000097 0.003563 0.003467 0.025094
#
#
# Mechanical properties :
#
#
# Convention : Reuss Voigt Hill
#
# Bulk Modulus (GPa) = 45.50953 55.16621 50.33787
# Shear Modulus (GPa) = 38.63103 43.11447 40.87275
#
# Velocity S-wave (km/s) = 4.13072 4.36384 4.24888
# Velocity P-wave (km/s) = 6.54610 7.05386 6.80472
#
# Compressibility (1/GPa) = 0.02197342
#
# Stress axis : x y z
#
# Youngs Moduli (GPa) = 82.82728 95.86730 92.05477
#
# Poissons Ratio (x) = 0.10822 0.31897
# Poissons Ratio (y) = 0.09350 0.10156
# Poissons Ratio (z) = 0.28700 0.10576
#
# Static dielectric constant tensor:
#      x y z
#    x 1.828530 -0.056640 0.006760 
#    y -0.056640 1.807060 -0.028730 
#    z 0.006760 -0.028730 1.836920 
# 
# From -- ./inp_files/1315.got.cif
#   From: 2010.05.17/outbox.cif.g08.bks.cpg/sg1_1_cif.got.tgz:1315.got - 2010.05.17 20:27:59.
