data_PCOD9000428
_publ_section_title
;
Structure prediction by ZEFSAII (Michael W. Deem and Ramdas Pophale) SiO2 
 PCOD9000428
Probable space group: P 1
;
_chemical_formula_sum "Si O2"
_cell_formula_units_Z 6
_cell_length_a 5.107983
_cell_length_b 4.954607
_cell_length_c 11.863281
_cell_angle_alpha 62.776363
_cell_angle_beta 65.607891
_cell_angle_gamma 93.303934
_cell_volume 231.606035
_symmetry_space_group_name_H-M "P 1"
_symmetry_group_IT_number 1
_symmetry_cell_setting 'triclinic'
loop_
_space_group_symop_operation_xyz
x,y,z
loop_
_atom_site_type_symbol
_atom_site_label
_atom_site_fract_x
_atom_site_fract_y
_atom_site_fract_z
Si Si1 0.268790 0.015930 0.932890
Si Si2 0.811196 0.584304 0.827159
Si Si3 0.384949 0.475838 0.645018
Si Si4 0.905760 0.355394 0.080818
Si Si5 0.843262 0.186202 0.553445
Si Si6 0.452519 0.057380 0.416631
O O1 0.246673 0.118023 0.786453
O O2 0.582943 0.265423 0.871434
O O3 0.023034 0.100776 0.040658
O O4 0.188635 0.638685 0.023149
O O5 0.159421 0.602569 0.739431
O O6 0.768545 0.890496 0.712466
O O7 0.762671 0.527798 0.978858
O O8 0.732193 0.469891 0.573415
O O9 0.349262 0.670095 0.503234
O O10 0.671788 0.203506 0.248099
O O11 0.638255 0.110473 0.491377
O O12 0.174556 0.197726 0.449896
#
# Coordination Sequence:
#
# PCOD9000428 Si02
#       6
#     1   1   1   1   1   1
#     4  11  24  47  78 107 154 202 257 314 383 463
#     4  10  24  50  78 113 151 202 265 319 377 471
#     4  10  24  45  75 109 143 205 256 314 378 461
#     4  11  28  48  74 117 155 202 259 320 394 458
#     4  11  25  47  79 105 156 203 258 316 388 461
#     4  11  27  49  70 115 153 200 255 323 386 464
#
# _framework density 25.906061000000001
#
# number of rings (size 3 to 8) (size 9 to 14) (size 15 to 20)
#    0.000    1.333    1.667    1.000   11.667    4.000 
#    0.000    0.000    0.000    0.000    0.000    0.000 
#    0.000    0.000    0.000    0.000    0.000    0.000 
#
# Total GULP energy -33444.680507 kJ/mol
# GULP energy per Si atom -5574.113418 kJ/mol
# Density = 2.584710 g / cm^3
# Si number density = 25.906061 Si / 1000 Ang^3
#
#
#
# Elastic Constant Matrix: (Units=GPa)
#
#
# Indices 1 2 3 4 5 6 
#
# 1 153.5444 61.4597 68.1928 25.4927 -0.9250 -44.9888
# 2 61.4597 131.9211 35.5489 13.5859 -9.8152 -32.6686
# 3 68.1928 35.5489 227.9317 -0.5081 -18.9298 -11.9113
# 4 25.4927 13.5859 -0.5081 17.7643 2.2958 -2.3901
# 5 -0.9250 -9.8152 -18.9298 2.2958 29.7467 7.4486
# 6 -44.9888 -32.6686 -11.9113 -2.3901 7.4486 54.1558
#
#
#
# Elastic Compliance Matrix: (Units=1/GPa)
#
#
# Indices 1 2 3 4 5 6 
#
# 1 0.015096 -0.001765 -0.004064 -0.018549 -0.003845 0.010293
# 2 -0.001765 0.010285 -0.000686 -0.005103 0.002282 0.004048
# 3 -0.004064 -0.000686 0.005882 0.005686 0.003639 -0.002746
# 4 -0.018549 -0.005103 0.005686 0.085450 -0.001932 -0.013200
# 5 -0.003845 0.002282 0.003639 -0.001932 0.038311 -0.006372
# 6 0.010293 0.004048 -0.002746 -0.013200 -0.006372 0.029147
#
#
# Mechanical properties :
#
#
# Convention : Reuss Voigt Hill
#
# Bulk Modulus (GPa) = 54.84708 93.75556 74.30132
# Shear Modulus (GPa) = 24.59659 43.54642 34.07151
#
# Velocity S-wave (km/s) = 3.08466 4.10437 3.63050
# Velocity P-wave (km/s) = 5.82274 7.66357 6.80568
#
# Compressibility (1/GPa) = 0.01823251
#
# Stress axis : x y z
#
# Youngs Moduli (GPa) = 66.24068 97.22572 170.02174
#
# Poissons Ratio (x) = 0.17160 0.69098
# Poissons Ratio (y) = 0.11691 0.11670
# Poissons Ratio (z) = 0.26921 0.06673
#
# Static dielectric constant tensor:
#      x y z
#    x 2.225520 0.160250 0.025480 
#    y 0.160250 2.230270 0.001710 
#    z 0.025480 0.001710 1.961320 
# 
# From -- ./inp_files/148.got.cif
#   From: 2010.05.17/outbox.cif.g08.bks.cpg/sg1_1_cif.got.tgz:148.got - 2010.05.17 20:27:59.
