data_PCOD9000465
_publ_section_title
;
Structure prediction by ZEFSAII (Michael W. Deem and Ramdas Pophale) SiO2 
 PCOD9000465
Probable space group: P 1
;
_chemical_formula_sum "Si O2"
_cell_formula_units_Z 6
_cell_length_a 5.191614
_cell_length_b 11.228823
_cell_length_c 8.660930
_cell_angle_alpha 146.829184
_cell_angle_beta 60.118395
_cell_angle_gamma 113.973397
_cell_volume 239.460569
_symmetry_space_group_name_H-M "P 1"
_symmetry_group_IT_number 1
_symmetry_cell_setting 'triclinic'
loop_
_space_group_symop_operation_xyz
x,y,z
loop_
_atom_site_type_symbol
_atom_site_label
_atom_site_fract_x
_atom_site_fract_y
_atom_site_fract_z
Si Si1 0.371830 0.482280 0.533340
Si Si2 0.181450 0.999244 0.673896
Si Si3 0.001472 0.128403 0.402264
Si Si4 0.580768 0.794344 0.583238
Si Si5 0.834012 0.341543 0.999019
Si Si6 0.496006 0.847855 0.115672
O O1 0.097082 0.340728 0.510408
O O2 0.335727 0.677847 0.633896
O O3 0.504616 0.608666 0.778398
O O4 0.606652 0.338499 0.208745
O O5 0.401081 0.953074 0.697537
O O6 0.314380 0.854858 0.337538
O O7 0.852317 0.911729 0.713495
O O8 0.132696 0.245709 0.891159
O O9 0.837191 0.200781 0.688856
O O10 0.303024 0.007077 0.235028
O O11 0.797794 0.966444 0.194057
O O12 0.761852 0.587396 0.229802
#
# Coordination Sequence:
#
# PCOD9000465 Si02
#       6
#     1   1   1   1   1   1
#     4  10  26  50  73 114 146 196 247 310 366 443
#     4  11  22  47  74 105 146 194 245 298 369 443
#     4  11  25  50  73 108 152 192 248 305 370 444
#     4  10  25  42  75 106 146 190 246 299 368 434
#     4   9  24  48  75 108 143 203 239 306 370 435
#     4  11  26  47  76 109 147 197 245 310 369 433
#
# _framework density 25.056319999999999
#
# number of rings (size 3 to 8) (size 9 to 14) (size 15 to 20)
#    1.000    0.667    0.000    3.000    2.333    9.333 
#    3.000    0.000    0.000    0.000    0.000    0.000 
#    0.000    0.000    0.000    0.000    0.000    0.000 
#
# Total GULP energy -33466.984380 kJ/mol
# GULP energy per Si atom -5577.830730 kJ/mol
# Density = 2.499929 g / cm^3
# Si number density = 25.056320 Si / 1000 Ang^3
#
#
#
# Elastic Constant Matrix: (Units=GPa)
#
#
# Indices 1 2 3 4 5 6 
#
# 1 156.1882 62.9221 49.0287 13.4704 -14.1283 3.2156
# 2 62.9221 100.2520 29.0509 -18.5142 -6.6851 26.5138
# 3 49.0287 29.0509 170.0714 -2.5819 -0.9988 2.4509
# 4 13.4704 -18.5142 -2.5819 32.1756 0.6237 -2.8144
# 5 -14.1283 -6.6851 -0.9988 0.6237 24.2395 10.8681
# 6 3.2156 26.5138 2.4509 -2.8144 10.8681 43.0816
#
#
#
# Elastic Compliance Matrix: (Units=1/GPa)
#
#
# Indices 1 2 3 4 5 6 
#
# 1 0.012040 -0.009741 -0.002005 -0.010527 0.002809 0.003814
# 2 -0.009741 0.023545 -0.000721 0.016178 0.006820 -0.014386
# 3 -0.002005 -0.000721 0.006579 0.001036 -0.001411 0.000643
# 4 -0.010527 0.016178 0.001036 0.044321 0.000076 -0.006353
# 5 0.002809 0.006820 -0.001411 0.000076 0.052600 -0.017591
# 6 0.003814 -0.014386 0.000643 -0.006353 -0.017591 0.035766
#
#
# Mechanical properties :
#
#
# Convention : Reuss Voigt Hill
#
# Bulk Modulus (GPa) = 58.03949 78.72390 68.38169
# Shear Modulus (GPa) = 24.32749 38.93333 31.63041
#
# Velocity S-wave (km/s) = 3.11933 3.94614 3.55684
# Velocity P-wave (km/s) = 6.01560 7.22840 6.64971
#
# Compressibility (1/GPa) = 0.01722965
#
# Stress axis : x y z
#
# Youngs Moduli (GPa) = 83.05751 42.47264 151.99341
#
# Poissons Ratio (x) = 0.41373 0.30478
# Poissons Ratio (y) = 0.80908 0.10953
# Poissons Ratio (z) = 0.16655 0.03061
#
# Static dielectric constant tensor:
#      x y z
#    x 1.937390 -0.006850 0.004600 
#    y -0.006850 2.045410 0.002790 
#    z 0.004600 0.002790 1.991460 
# 
# From -- ./inp_files/3123.got.cif
#   From: 2010.05.17/outbox.cif.g08.bks.cpg/sg1_2_cif.got.tgz:3123.got - 2010.05.17 20:27:59.
