data_PCOD9000121
_publ_section_title
;
Structure prediction by ZEFSAII (Michael W. Deem and Ramdas Pophale) SiO2 
 PCOD9000121
Probable space group: P 1
;
_chemical_formula_sum "Si O2"
_cell_formula_units_Z 8
_cell_length_a 8.486604
_cell_length_b 11.619265
_cell_length_c 14.129033
_cell_angle_alpha 30.534021
_cell_angle_beta 30.615901
_cell_angle_gamma 37.033491
_cell_volume 351.621954
_symmetry_space_group_name_H-M "P 1"
_symmetry_group_IT_number 1
_symmetry_cell_setting 'triclinic'
loop_
_space_group_symop_operation_xyz
x,y,z
loop_
_atom_site_type_symbol
_atom_site_label
_atom_site_fract_x
_atom_site_fract_y
_atom_site_fract_z
Si Si1 0.156230 0.944690 0.010980
Si Si2 0.583507 0.509173 0.177620
Si Si3 0.724238 0.010311 0.370464
Si Si4 0.044655 0.979943 0.720393
Si Si5 0.280860 0.719749 0.386452
Si Si6 0.619003 0.250406 0.586894
Si Si7 0.104968 0.464504 0.065572
Si Si8 0.670358 0.085705 0.004018
O O1 0.390918 0.694095 0.074126
O O2 0.983110 0.018240 0.149383
O O3 0.882497 0.951346 0.072406
O O4 0.378690 0.123086 0.747622
O O5 0.421532 0.603464 0.295462
O O6 0.953466 0.501205 0.012756
O O7 0.597690 0.251572 0.318474
O O8 0.408345 0.962222 0.519739
O O9 0.911634 0.823152 0.481881
O O10 0.047741 0.727514 0.942318
O O11 0.792768 0.071429 0.703517
O O12 0.907351 0.146415 0.759859
O O13 0.401800 0.503226 0.548078
O O14 0.434457 0.934673 0.187069
O O15 0.906856 0.311677 0.335018
O O16 0.459807 0.324519 0.981674
#
# Coordination Sequence:
#
# PCOD9000121 Si02
#       8
#     1   1   1   1   1   1   1   1
#     4  11  26  44  70 108 139 182 236 285 349 415
#     4  10  21  46  71  94 141 182 229 284 337 411
#     4  11  25  46  72 102 142 186 233 283 349 413
#     4  12  26  47  70 105 140 186 235 284 345 417
#     4  10  23  45  68 100 140 180 230 285 342 410
#     4  11  24  49  69  98 148 180 231 289 340 417
#     4  11  24  47  72  98 142 185 229 287 347 408
#     4  12  25  44  70 105 142 179 233 289 345 411
#
# _framework density 22.751709000000002
#
# number of rings (size 3 to 8) (size 9 to 14) (size 15 to 20)
#    0.000    1.000    5.000    1.500    7.000    2.000 
#    4.500    0.000    0.000    0.000    0.000    0.000 
#    0.000    0.000    0.000    0.000    0.000    0.000 
#
# Total GULP energy -44620.935895 kJ/mol
# GULP energy per Si atom -5577.616987 kJ/mol
# Density = 2.269992 g / cm^3
# Si number density = 22.751709 Si / 1000 Ang^3
#
#
#
# Elastic Constant Matrix: (Units=GPa)
#
#
# Indices 1 2 3 4 5 6 
#
# 1 93.9359 26.1273 -0.6922 -4.7463 0.2751 -25.9424
# 2 26.1273 85.9322 26.7937 -17.2043 11.2309 -21.4288
# 3 -0.6922 26.7937 55.4066 5.7152 3.3890 -3.5314
# 4 -4.7463 -17.2043 5.7152 19.3154 -3.7004 5.3195
# 5 0.2751 11.2309 3.3890 -3.7004 24.6248 -2.2759
# 6 -25.9424 -21.4288 -3.5314 5.3195 -2.2759 40.6446
#
#
#
# Elastic Compliance Matrix: (Units=1/GPa)
#
#
# Indices 1 2 3 4 5 6 
#
# 1 0.013629 -0.003887 0.002694 -0.002631 0.001530 0.007314
# 2 -0.003887 0.022940 -0.012618 0.020721 -0.005058 0.005522
# 3 0.002694 -0.012618 0.026096 -0.018340 -0.000651 -0.000302
# 4 -0.002631 0.020721 -0.018340 0.076430 0.004394 -0.002105
# 5 0.001530 -0.005058 -0.000651 0.004394 0.043660 0.000123
# 6 0.007314 0.005522 -0.000302 -0.002105 0.000123 0.032439
#
#
# Mechanical properties :
#
#
# Convention : Reuss Voigt Hill
#
# Bulk Modulus (GPa) = 28.53609 37.74803 33.14206
# Shear Modulus (GPa) = 19.64657 29.12002 24.38330
#
# Velocity S-wave (km/s) = 2.94176 3.58146 3.27725
# Velocity P-wave (km/s) = 4.91001 5.80773 5.37764
#
# Compressibility (1/GPa) = 0.03504334
#
# Stress axis : x y z
#
# Youngs Moduli (GPa) = 73.37347 43.59255 38.31983
#
# Poissons Ratio (x) = 0.16943 -0.10322
# Poissons Ratio (y) = 0.28517 0.48351
# Poissons Ratio (z) = -0.19765 0.55004
#
# Static dielectric constant tensor:
#      x y z
#    x 1.898150 0.006680 0.010870 
#    y 0.006680 1.838810 -0.016690 
#    z 0.010870 -0.016690 1.899090 
# 
# From -- ./inp_files/7166.got.cif
#   From: 2010.05.17/outbox.cif.g08.bks.cpg/sg1_4_cif.got.tgz:7166.got - 2010.05.17 20:27:59.
