data_PCOD9000518
_publ_section_title
;
Structure prediction by ZEFSAII (Michael W. Deem and Ramdas Pophale) SiO2 
 PCOD9000518
Probable space group: P 1
;
_chemical_formula_sum "Si O2"
_cell_formula_units_Z 8
_cell_length_a 12.527197
_cell_length_b 11.290787
_cell_length_c 6.141831
_cell_angle_alpha 129.060186
_cell_angle_beta 45.204209
_cell_angle_gamma 145.569910
_cell_volume 345.937912
_symmetry_space_group_name_H-M "P 1"
_symmetry_group_IT_number 1
_symmetry_cell_setting 'triclinic'
loop_
_space_group_symop_operation_xyz
x,y,z
loop_
_atom_site_type_symbol
_atom_site_label
_atom_site_fract_x
_atom_site_fract_y
_atom_site_fract_z
Si Si1 0.513250 0.145210 0.019360
Si Si2 0.665708 0.029610 0.012062
Si Si3 0.739314 0.576179 0.298786
Si Si4 0.110496 0.664896 0.082267
Si Si5 0.636438 0.747665 0.010660
Si Si6 0.208996 0.428087 0.425115
Si Si7 0.889951 0.964144 0.290681
Si Si8 0.924040 0.373260 0.390970
O O1 0.536087 0.342277 0.243290
O O2 0.564231 0.102382 0.129879
O O3 0.287931 0.910786 0.038206
O O4 0.702414 0.243195 0.688095
O O5 0.545731 0.832992 0.117143
O O6 0.854605 0.220726 0.109483
O O7 0.730022 0.964754 0.645930
O O8 0.847472 0.761836 0.184811
O O9 0.906132 0.569077 0.131072
O O10 0.688917 0.653717 0.657902
O O11 0.036471 0.594448 0.360351
O O12 0.189569 0.553638 0.767203
O O13 0.451278 0.566368 0.217821
O O14 0.837139 0.933218 0.076824
O O15 0.083244 0.406449 0.368862
O O16 0.101678 0.188162 0.327388
#
# Coordination Sequence:
#
# PCOD9000518 Si02
#       8
#     1   1   1   1   1   1   1   1
#     4  12  25  46  71 104 140 179 235 288 334 414
#     4  11  19  44  68  98 135 173 225 290 333 396
#     4  11  27  47  61 104 147 181 228 280 342 422
#     4  12  26  45  75 102 135 186 233 283 349 404
#     4  11  26  42  71 101 138 187 221 284 356 397
#     4  12  23  44  71 107 128 180 239 281 341 411
#     4  11  23  43  66  96 145 176 223 283 339 411
#     4  12  21  43  77 100 138 174 232 295 338 393
#
# _framework density 23.125536
#
# number of rings (size 3 to 8) (size 9 to 14) (size 15 to 20)
#    0.000    0.500    6.250    2.250    1.750    3.000 
#    0.000    0.000    0.000    0.000    0.000    0.000 
#    0.000    0.000    0.000    0.000    0.000    0.000 
#
# Total GULP energy -44618.059491 kJ/mol
# GULP energy per Si atom -5577.257436 kJ/mol
# Density = 2.307290 g / cm^3
# Si number density = 23.125536 Si / 1000 Ang^3
#
#
#
# Elastic Constant Matrix: (Units=GPa)
#
#
# Indices 1 2 3 4 5 6 
#
# 1 21.0917 0.1477 -0.4251 -5.2261 0.1605 -6.0222
# 2 0.1477 165.0740 30.1967 9.1611 -4.1345 -1.2318
# 3 -0.4251 30.1967 68.4006 12.8202 11.0951 1.8794
# 4 -5.2261 9.1611 12.8202 33.9154 1.6847 0.5540
# 5 0.1605 -4.1345 11.0951 1.6847 15.2113 0.1570
# 6 -6.0222 -1.2318 1.8794 0.5540 0.1570 38.2187
#
#
#
# Elastic Compliance Matrix: (Units=1/GPa)
#
#
# Indices 1 2 3 4 5 6 
#
# 1 0.051793 -0.000241 -0.001258 0.008425 -0.000711 0.008096
# 2 -0.000241 0.006888 -0.003662 -0.000749 0.004625 0.000356
# 3 -0.001258 -0.003662 0.019759 -0.005924 -0.014726 -0.001142
# 4 0.008425 -0.000749 -0.005924 0.033190 0.000341 0.001112
# 5 -0.000711 0.004625 -0.014726 0.000341 0.077704 0.000437
# 6 0.008096 0.000356 -0.001142 0.001112 0.000437 0.027491
#
#
# Mechanical properties :
#
#
# Convention : Reuss Voigt Hill
#
# Bulk Modulus (GPa) = 14.68040 34.93388 24.80714
# Shear Modulus (GPa) = 20.01185 32.44555 26.22870
#
# Velocity S-wave (km/s) = 2.94489 3.74975 3.37142
# Velocity P-wave (km/s) = 4.23380 5.82121 5.08977
#
# Compressibility (1/GPa) = 0.06811805
#
# Stress axis : x y z
#
# Youngs Moduli (GPa) = 19.30765 145.17909 50.61012
#
# Poissons Ratio (x) = 0.03502 0.06366
# Poissons Ratio (y) = 0.00466 0.18533
# Poissons Ratio (z) = 0.02428 0.53164
#
# Static dielectric constant tensor:
#      x y z
#    x 1.862940 -0.032920 0.028860 
#    y -0.032920 1.955770 -0.018540 
#    z 0.028860 -0.018540 1.873250 
# 
# From -- ./inp_files/1695.got.cif
#   From: 2010.05.17/outbox.cif.g08.bks.cpg/sg1_1_cif.got.tgz:1695.got - 2010.05.17 20:27:59.
