data_PCOD9000151
_publ_section_title
;
Structure prediction by ZEFSAII (Michael W. Deem and Ramdas Pophale) SiO2 
 PCOD9000151
Probable space group: P 1
;
_chemical_formula_sum "Si O2"
_cell_formula_units_Z 8
_cell_length_a 11.428410
_cell_length_b 12.001371
_cell_length_c 5.243667
_cell_angle_alpha 94.931099
_cell_angle_beta 82.095526
_cell_angle_gamma 154.513670
_cell_volume 305.297339
_symmetry_space_group_name_H-M "P 1"
_symmetry_group_IT_number 1
_symmetry_cell_setting 'triclinic'
loop_
_space_group_symop_operation_xyz
x,y,z
loop_
_atom_site_type_symbol
_atom_site_label
_atom_site_fract_x
_atom_site_fract_y
_atom_site_fract_z
Si Si1 0.159390 0.259380 0.844470
Si Si2 0.101526 0.781889 0.489956
Si Si3 0.577972 0.154057 0.079595
Si Si4 0.320679 0.186642 0.498651
Si Si5 0.863230 0.860564 0.221431
Si Si6 0.713458 0.510577 0.957839
Si Si7 0.503366 0.960473 0.553163
Si Si8 0.585015 0.777618 0.613959
O O1 0.341122 0.306662 0.709745
O O2 0.350987 0.530944 0.824475
O O3 0.883604 0.036878 0.712140
O O4 0.040844 0.116590 0.118142
O O5 0.255486 0.913928 0.192108
O O6 0.301346 0.048014 0.608120
O O7 0.193351 0.740441 0.557804
O O8 0.801786 0.556989 0.642629
O O9 0.748509 0.412599 0.038099
O O10 0.656613 0.150670 0.306771
O O11 0.594069 0.089197 0.819304
O O12 0.484888 0.340725 0.216235
O O13 0.011656 0.931304 0.428539
O O14 0.851786 0.751498 0.999929
O O15 0.594288 0.691696 0.372432
O O16 0.522909 0.845243 0.534116
#
# Coordination Sequence:
#
# PCOD9000151 Si02
#       8
#     1   1   1   1   1   1   1   1
#     4  11  25  45  70 109 141 201 244 314 373 452
#     4   9  22  40  65 105 139 192 232 313 372 448
#     4   9  24  44  68 106 142 191 245 310 373 453
#     4  10  22  40  63 106 145 179 249 302 386 445
#     4  11  25  41  71 106 147 191 244 316 379 454
#     4  11  21  40  72 103 145 188 240 307 391 440
#     4  10  24  50  69 103 153 190 259 307 375 448
#     4  11  27  48  74 102 150 196 261 303 377 446
#
# _framework density 26.203963000000002
#
# number of rings (size 3 to 8) (size 9 to 14) (size 15 to 20)
#    0.750    1.000    2.500    0.000    7.000    2.000 
#    0.000    0.000    0.000    0.000    0.000    0.000 
#    0.000    0.000    0.000    0.000    0.000    0.000 
#
# Total GULP energy -44534.777903 kJ/mol
# GULP energy per Si atom -5566.847238 kJ/mol
# Density = 2.614432 g / cm^3
# Si number density = 26.203963 Si / 1000 Ang^3
#
#
#
# Elastic Constant Matrix: (Units=GPa)
#
#
# Indices 1 2 3 4 5 6 
#
# 1 21.3044 -7.7368 42.3030 -15.1831 -5.8034 -46.6448
# 2 -7.7368 90.2096 33.4020 -19.7917 -4.8853 -17.8819
# 3 42.3030 33.4020 143.9863 -17.3038 19.4101 -14.2402
# 4 -15.1831 -19.7917 -17.3038 45.9232 -9.8694 4.1369
# 5 -5.8034 -4.8853 19.4101 -9.8694 23.6468 -6.6962
# 6 -46.6448 -17.8819 -14.2402 4.1369 -6.6962 40.1626
#
#
#
# Elastic Compliance Matrix: (Units=1/GPa)
#
#
# Indices 1 2 3 4 5 6 
#
# 1 -0.010642 -0.008344 0.004714 -0.007279 -0.015858 -0.016298
# 2 -0.008344 0.009524 0.000007 0.001647 -0.001039 -0.005791
# 3 0.004714 0.000007 0.006813 0.003251 -0.000983 0.007395
# 4 -0.007279 0.001647 0.003251 0.022702 0.002979 -0.008409
# 5 -0.015858 -0.001039 -0.000983 0.002979 0.036420 -0.013463
# 6 -0.016298 -0.005791 0.007395 -0.008409 -0.013463 0.004635
#
#
# Mechanical properties :
#
#
# Convention : Reuss Voigt Hill
#
# Bulk Modulus (GPa) = -644.28211 43.49296 -300.39458
# Shear Modulus (GPa) = 65.63292 34.44865 50.04079
#
# Velocity S-wave (km/s) = 5.01012 3.62972 4.37471
# Velocity P-wave (km/s) = 14.59237 5.84811 9.45349
#
# Compressibility (1/GPa) = -0.00155212
#
# Stress axis : x y z
#
# Youngs Moduli (GPa) = -93.96379 104.99765 146.77562
#
# Poissons Ratio (x) = 0.87615 -0.69184
# Poissons Ratio (y) = -0.78408 -0.00109
# Poissons Ratio (z) = 0.44291 -0.00078
#
# Static dielectric constant tensor:
#      x y z
#    x 2.102670 0.165980 0.034230 
#    y 0.165980 2.269740 0.076490 
#    z 0.034230 0.076490 2.104820 
# 
# From -- ./inp_files/2380.got.cif
#   From: 2010.05.17/outbox.cif.g08.bks.cpg/sg1_2_cif.got.tgz:2380.got - 2010.05.17 20:27:59.
