data_PCOD9000622
_publ_section_title
;
Structure prediction by ZEFSAII (Michael W. Deem and Ramdas Pophale) SiO2 
 PCOD9000622
Probable space group: P 1
;
_chemical_formula_sum "Si O2"
_cell_formula_units_Z 8
_cell_length_a 9.340821
_cell_length_b 4.882936
_cell_length_c 11.409353
_cell_angle_alpha 94.973384
_cell_angle_beta 149.924611
_cell_angle_gamma 85.375448
_cell_volume 259.788440
_symmetry_space_group_name_H-M "P 1"
_symmetry_group_IT_number 1
_symmetry_cell_setting 'triclinic'
loop_
_space_group_symop_operation_xyz
x,y,z
loop_
_atom_site_type_symbol
_atom_site_label
_atom_site_fract_x
_atom_site_fract_y
_atom_site_fract_z
Si Si1 0.666040 0.154730 0.146660
Si Si2 0.470178 0.780887 0.824063
Si Si3 0.726938 0.015667 0.793691
Si Si4 0.578507 0.232729 0.352962
Si Si5 0.160060 0.550467 0.775125
Si Si6 0.035427 0.574364 0.948770
Si Si7 0.244989 0.372610 0.467175
Si Si8 0.364656 0.788010 0.365225
O O1 0.554888 0.145939 0.199026
O O2 0.970533 0.280931 0.340837
O O3 0.425306 0.349944 0.924828
O O4 0.665385 0.856275 0.076144
O O5 0.169734 0.769652 0.683811
O O6 0.447554 0.532710 0.707708
O O7 0.577001 0.007868 0.815673
O O8 0.381140 0.097280 0.490390
O O9 0.701681 0.732233 0.681085
O O10 0.889442 0.278410 0.863189
O O11 0.358816 0.481855 0.244298
O O12 0.882475 0.370382 0.576850
O O13 0.540800 0.976217 0.398690
O O14 0.179056 0.641790 0.926451
O O15 0.037069 0.843479 0.054363
O O16 0.195253 0.589596 0.336734
#
# Coordination Sequence:
#
# PCOD9000622 Si02
#       8
#     1   1   1   1   1   1   1   1
#     4  11  26  48  84 120 164 215 274 344 422 486
#     4  11  25  48  82 117 160 220 270 337 415 489
#     4  11  27  48  78 116 166 213 271 341 411 488
#     4  11  25  51  81 120 167 215 274 345 408 499
#     4  11  25  50  81 122 165 208 282 342 413 499
#     4  11  26  48  79 118 161 217 273 337 417 482
#     4  11  26  53  78 125 169 211 277 345 407 499
#     4  11  26  48  77 116 164 217 267 341 415 484
#
# _framework density 30.794287000000001
#
# number of rings (size 3 to 8) (size 9 to 14) (size 15 to 20)
#    0.000    1.000    1.250    3.000    3.500    8.000 
#    4.500    0.000    0.000    0.000    0.000    0.000 
#    0.000    0.000    0.000    0.000    0.000    0.000 
#
# Total GULP energy -44762.216733 kJ/mol
# GULP energy per Si atom -5595.277092 kJ/mol
# Density = 3.072420 g / cm^3
# Si number density = 30.794287 Si / 1000 Ang^3
#
#
#
# Elastic Constant Matrix: (Units=GPa)
#
#
# Indices 1 2 3 4 5 6 
#
# 1 300.7376 120.1123 68.7946 5.4953 -25.3918 33.2384
# 2 120.1123 288.9414 72.5206 0.7186 5.4713 20.5013
# 3 68.7946 72.5206 182.9230 24.4620 -3.5667 -6.1350
# 4 5.4953 0.7186 24.4620 69.6005 1.2789 12.9704
# 5 -25.3918 5.4713 -3.5667 1.2789 89.7418 -2.9455
# 6 33.2384 20.5013 -6.1350 12.9704 -2.9455 71.4165
#
#
#
# Elastic Compliance Matrix: (Units=1/GPa)
#
#
# Indices 1 2 3 4 5 6 
#
# 1 0.004476 -0.001459 -0.001193 0.000391 0.001244 -0.001787
# 2 -0.001459 0.004489 -0.001374 0.000732 -0.000781 -0.000893
# 3 -0.001193 -0.001374 0.006891 -0.002695 0.000125 0.002036
# 4 0.000391 0.000732 -0.002695 0.015942 -0.000384 -0.003535
# 5 0.001244 -0.000781 0.000125 -0.000384 0.011560 0.000203
# 6 -0.001787 -0.000893 0.002036 -0.003535 0.000203 0.015915
#
#
# Mechanical properties :
#
#
# Convention : Reuss Voigt Hill
#
# Bulk Modulus (GPa) = 128.13517 143.93967 136.03742
# Shear Modulus (GPa) = 71.50336 80.23005 75.86670
#
# Velocity S-wave (km/s) = 4.82391 5.10981 4.96891
# Velocity P-wave (km/s) = 8.52802 9.03644 8.78591
#
# Compressibility (1/GPa) = 0.00780426
#
# Stress axis : x y z
#
# Youngs Moduli (GPa) = 223.40831 222.78794 145.11051
#
# Poissons Ratio (x) = 0.32506 0.17310
# Poissons Ratio (y) = 0.32597 0.19937
# Poissons Ratio (z) = 0.26650 0.30609
#
# Static dielectric constant tensor:
#      x y z
#    x 2.359760 -0.225720 -0.189280 
#    y -0.225720 2.577540 -0.042280 
#    z -0.189280 -0.042280 3.018640 
# 
# From -- ./inp_files/6273.got.cif
#   From: 2010.05.17/outbox.cif.g08.bks.cpg/sg1_4_cif.got.tgz:6273.got - 2010.05.17 20:27:59.
