data_PCOD9000966
_publ_section_title
;
Structure prediction by ZEFSAII (Michael W. Deem and Ramdas Pophale) SiO2 
 PCOD9000966
Probable space group: P 1
;
_chemical_formula_sum "Si O2"
_cell_formula_units_Z 8
_cell_length_a 11.795231
_cell_length_b 15.412197
_cell_length_c 6.424604
_cell_angle_alpha 39.401985
_cell_angle_beta 143.764975
_cell_angle_gamma 153.366382
_cell_volume 303.530826
_symmetry_space_group_name_H-M "P 1"
_symmetry_group_IT_number 1
_symmetry_cell_setting 'triclinic'
loop_
_space_group_symop_operation_xyz
x,y,z
loop_
_atom_site_type_symbol
_atom_site_label
_atom_site_fract_x
_atom_site_fract_y
_atom_site_fract_z
Si Si1 0.138720 0.429830 0.021200
Si Si2 0.707508 0.610856 0.346446
Si Si3 0.392898 0.735861 0.137181
Si Si4 0.008793 0.654111 0.373353
Si Si5 0.227911 0.081553 0.268182
Si Si6 0.985804 0.086003 0.256233
Si Si7 0.419676 0.968343 0.088631
Si Si8 0.536795 0.262023 0.967307
O O1 0.424170 0.535552 0.133894
O O2 0.211826 0.510007 0.219096
O O3 0.944822 0.204076 0.103696
O O4 0.009247 0.497006 0.601097
O O5 0.730162 0.560836 0.240424
O O6 0.950824 0.847404 0.259024
O O7 0.732963 0.487276 0.760668
O O8 0.435690 0.829387 0.251520
O O9 0.697750 0.861355 0.268958
O O10 0.241380 0.765389 0.699350
O O11 0.133870 0.806906 0.093557
O O12 0.095734 0.143849 0.075995
O O13 0.404139 0.073335 0.693222
O O14 0.425289 0.212408 0.126712
O O15 0.244296 0.148655 0.633332
O O16 0.612703 0.147739 0.211810
#
# Coordination Sequence:
#
# PCOD9000966 Si02
#       8
#     1   1   1   1   1   1   1   1
#     4   9  22  43  63 100 139 168 233 278 327 418
#     4  11  20  44  70  92 140 175 216 293 333 388
#     4  10  21  38  65  92 140 176 218 281 335 400
#     4  10  22  43  66  96 138 178 222 284 333 405
#     4  11  20  45  66  96 138 173 231 281 337 404
#     4  10  22  41  66  98 136 180 222 279 349 400
#     4  11  21  40  65  98 132 183 223 268 352 397
#     4  10  24  40  67 104 131 173 237 280 326 424
#
# _framework density 26.356465
#
# number of rings (size 3 to 8) (size 9 to 14) (size 15 to 20)
#    0.750    1.000    3.750    0.000    1.750    2.000 
#   11.250    1.250    0.000    0.000    0.000    0.000 
#    0.000    0.000    0.000    0.000    0.000    0.000 
#
# Total GULP energy -44597.145730 kJ/mol
# GULP energy per Si atom -5574.643216 kJ/mol
# Density = 2.629648 g / cm^3
# Si number density = 26.356465 Si / 1000 Ang^3
#
#
#
# Elastic Constant Matrix: (Units=GPa)
#
#
# Indices 1 2 3 4 5 6 
#
# 1 179.7739 53.6726 34.3780 -15.8437 -16.4616 -14.6609
# 2 53.6726 125.9723 22.8334 -14.6801 -11.9442 -13.4861
# 3 34.3780 22.8334 34.7124 -16.8386 -12.4863 -0.4809
# 4 -15.8437 -14.6801 -16.8386 29.6239 9.1949 6.4225
# 5 -16.4616 -11.9442 -12.4863 9.1949 44.3802 -7.7054
# 6 -14.6609 -13.4861 -0.4809 6.4225 -7.7054 60.8504
#
#
#
# Elastic Compliance Matrix: (Units=1/GPa)
#
#
# Indices 1 2 3 4 5 6 
#
# 1 0.007457 -0.001906 -0.006339 -0.001210 0.000994 0.001578
# 2 -0.001906 0.009816 -0.003667 0.001092 0.000971 0.001695
# 3 -0.006339 -0.003667 0.050342 0.022470 0.005543 -0.003612
# 4 -0.001210 0.001092 0.022470 0.049217 -0.005020 -0.005702
# 5 0.000994 0.000971 0.005543 -0.005020 0.026524 0.004387
# 6 0.001578 0.001695 -0.003612 -0.005702 0.004387 0.018318
#
#
# Mechanical properties :
#
#
# Convention : Reuss Voigt Hill
#
# Bulk Modulus (GPa) = 22.83551 62.46963 42.65257
# Shear Modulus (GPa) = 24.98830 42.27587 33.63209
#
# Velocity S-wave (km/s) = 3.08245 4.00935 3.57606
# Velocity P-wave (km/s) = 4.62077 6.72208 5.76793
#
# Compressibility (1/GPa) = 0.04379145
#
# Stress axis : x y z
#
# Youngs Moduli (GPa) = 134.10575 101.87753 19.86426
#
# Poissons Ratio (x) = 0.19418 0.12591
# Poissons Ratio (y) = 0.25561 0.07283
# Poissons Ratio (z) = 0.85006 0.37354
#
# Static dielectric constant tensor:
#      x y z
#    x 2.169420 -0.156340 -0.010280 
#    y -0.156340 2.193520 0.025460 
#    z -0.010280 0.025460 2.072440 
# 
# From -- ./inp_files/1723.got.cif
#   From: 2010.05.17/outbox.cif.g08.bks.cpg/sg1_1_cif.got.tgz:1723.got - 2010.05.17 20:27:59.
