data_PCOD9000900
_publ_section_title
;
Structure prediction by ZEFSAII (Michael W. Deem and Ramdas Pophale) SiO2 
 PCOD9000900
Probable space group: P 1
;
_chemical_formula_sum "Si O2"
_cell_formula_units_Z 8
_cell_length_a 9.627506
_cell_length_b 8.590666
_cell_length_c 7.377331
_cell_angle_alpha 72.108981
_cell_angle_beta 109.716436
_cell_angle_gamma 61.454161
_cell_volume 415.803319
_symmetry_space_group_name_H-M "P 1"
_symmetry_group_IT_number 1
_symmetry_cell_setting 'triclinic'
loop_
_space_group_symop_operation_xyz
x,y,z
loop_
_atom_site_type_symbol
_atom_site_label
_atom_site_fract_x
_atom_site_fract_y
_atom_site_fract_z
Si Si1 0.622640 0.830250 0.583950
Si Si2 0.224682 0.967500 0.348018
Si Si3 0.293153 0.620005 0.269527
Si Si4 0.836967 0.439928 0.059635
Si Si5 0.824076 0.874851 0.367111
Si Si6 0.884472 0.769678 0.018771
Si Si7 0.591847 0.356525 0.183661
Si Si8 0.260284 0.602934 0.664148
O O1 0.720226 0.887079 0.749063
O O2 0.393004 0.978803 0.442329
O O3 0.694342 0.828470 0.418010
O O4 0.711781 0.593309 0.777436
O O5 0.014458 0.197814 0.169647
O O6 0.268764 0.828300 0.237980
O O7 0.237230 0.817885 0.562317
O O8 0.313691 0.518848 0.511041
O O9 0.474969 0.459111 0.280823
O O10 0.086281 0.706979 0.071354
O O11 0.916760 0.551619 0.138175
O O12 0.698805 0.443666 0.134804
O O13 0.745447 0.100346 0.333381
O O14 0.048612 0.686217 0.584438
O O15 0.820484 0.886473 0.142810
O O16 0.425579 0.437200 0.933860
#
# Coordination Sequence:
#
# PCOD9000900 Si02
#       8
#     1   1   1   1   1   1   1   1
#     4  10  23  38  63  91 123 153 201 249 295 356
#     4  10  20  42  61  83 128 157 192 249 300 345
#     4   9  21  38  62  92 119 156 201 247 291 364
#     4  10  21  40  63  83 125 159 193 249 300 344
#     4  11  23  39  63  89 124 156 200 247 298 356
#     4   9  21  42  61  87 127 150 200 252 296 348
#     4  12  21  39  66  89 116 167 199 238 304 359
#     4   9  20  40  59  88 122 150 200 247 286 354
#
# _framework density 19.239865999999999
#
# number of rings (size 3 to 8) (size 9 to 14) (size 15 to 20)
#    1.500    0.500    2.500    0.750    3.500    1.000 
#    2.250    3.750    0.000    0.000    0.000    0.000 
#    0.000    0.000    0.000    0.000    0.000    0.000 
#
# Total GULP energy -44554.336949 kJ/mol
# GULP energy per Si atom -5569.292119 kJ/mol
# Density = 1.919607 g / cm^3
# Si number density = 19.239866 Si / 1000 Ang^3
#
#
#
# Elastic Constant Matrix: (Units=GPa)
#
#
# Indices 1 2 3 4 5 6 
#
# 1 59.8480 19.2202 3.3893 -9.4534 1.7470 -12.5019
# 2 19.2202 87.4560 4.3807 0.3039 5.9027 -18.2555
# 3 3.3893 4.3807 44.6535 -0.6460 13.5062 -8.9963
# 4 -9.4534 0.3039 -0.6460 16.2977 2.5508 6.0142
# 5 1.7470 5.9027 13.5062 2.5508 29.4778 0.8566
# 6 -12.5019 -18.2555 -8.9963 6.0142 0.8566 29.1333
#
#
#
# Elastic Compliance Matrix: (Units=1/GPa)
#
#
# Indices 1 2 3 4 5 6 
#
# 1 0.020481 -0.003478 0.000395 0.010533 -0.001744 0.004609
# 2 -0.003478 0.014244 0.001586 -0.005064 -0.003198 0.009063
# 3 0.000395 0.001586 0.028428 -0.000386 -0.013636 0.010422
# 4 0.010533 -0.005064 -0.000386 0.073477 -0.005391 -0.013782
# 5 -0.001744 -0.003198 -0.013636 -0.005391 0.041587 -0.007073
# 6 0.004609 0.009063 0.010422 -0.013782 -0.007073 0.048253
#
#
# Mechanical properties :
#
#
# Convention : Reuss Voigt Hill
#
# Bulk Modulus (GPa) = 16.62235 27.32644 21.97440
# Shear Modulus (GPa) = 20.03882 25.97957 23.00920
#
# Velocity S-wave (km/s) = 3.23077 3.67863 3.46195
# Velocity P-wave (km/s) = 4.75136 5.68128 5.23700
#
# Compressibility (1/GPa) = 0.06015995
#
# Stress axis : x y z
#
# Youngs Moduli (GPa) = 48.82619 70.20312 35.17714
#
# Poissons Ratio (x) = 0.24415 -0.01389
# Poissons Ratio (y) = 0.16981 -0.05581
# Poissons Ratio (z) = -0.01928 -0.11138
#
# Static dielectric constant tensor:
#      x y z
#    x 1.673660 0.017100 -0.002940 
#    y 0.017100 1.656480 0.026140 
#    z -0.002940 0.026140 1.672320 
# 
# From -- ./inp_files/4140.got.cif
#   From: 2010.05.17/outbox.cif.g08.bks.cpg/sg1_3_cif.got.tgz:4140.got - 2010.05.17 20:27:59.
