data_PCOD9000309
_publ_section_title
;
Structure prediction by ZEFSAII (Michael W. Deem and Ramdas Pophale) SiO2 
 PCOD9000309
Probable space group: P 1
;
_chemical_formula_sum "Si O2"
_cell_formula_units_Z 6
_cell_length_a 10.370523
_cell_length_b 5.232541
_cell_length_c 5.232536
_cell_angle_alpha 94.474970
_cell_angle_beta 118.495603
_cell_angle_gamma 89.318092
_cell_volume 248.676472
_symmetry_space_group_name_H-M "P 1"
_symmetry_group_IT_number 1
_symmetry_cell_setting 'triclinic'
loop_
_space_group_symop_operation_xyz
x,y,z
loop_
_atom_site_type_symbol
_atom_site_label
_atom_site_fract_x
_atom_site_fract_y
_atom_site_fract_z
Si Si1 0.129830 0.472120 0.417820
Si Si2 0.409129 0.601995 0.400411
Si Si3 0.554686 0.107664 0.745234
Si Si4 0.046231 0.881892 0.757627
Si Si5 0.900672 0.081153 0.117737
Si Si6 0.325527 0.178596 0.907039
O O1 0.081342 0.612050 0.640691
O O2 0.227677 0.233252 0.570325
O O3 0.985116 0.348846 0.147242
O O4 0.960120 0.890275 0.942181
O O5 0.504363 0.387325 0.623317
O O6 0.495240 0.872660 0.494908
O O7 0.249983 0.635056 0.386277
O O8 0.374022 0.449954 0.095458
O O9 0.470239 0.052723 0.928477
O O10 0.727679 0.101495 0.938574
O O11 0.205375 0.026909 0.949834
O O12 0.950994 0.009560 0.447721
#
# Coordination Sequence:
#
# PCOD9000309 Si02
#       6
#     1   1   1   1   1   1
#     4  10  23  41  70  99 136 186 237 288 345 422
#     4  11  24  44  72  97 141 184 237 287 350 424
#     4  11  27  44  67 105 139 184 233 293 355 416
#     4  11  24  44  72  97 141 184 237 287 350 424
#     4  11  27  44  67 105 139 184 233 293 355 416
#     4  10  23  41  70  99 136 186 237 288 345 422
#
# _framework density 24.127735000000001
#
# number of rings (size 3 to 8) (size 9 to 14) (size 15 to 20)
#    0.000    1.333    3.333    0.000    9.333    1.333 
#    0.000    0.000    0.000    0.000    0.000    0.000 
#    0.000    0.000    0.000    0.000    0.000    0.000 
#
# Total GULP energy -33534.612917 kJ/mol
# GULP energy per Si atom -5589.102153 kJ/mol
# Density = 2.407282 g / cm^3
# Si number density = 24.127735 Si / 1000 Ang^3
#
#
#
# Elastic Constant Matrix: (Units=GPa)
#
#
# Indices 1 2 3 4 5 6 
#
# 1 163.8104 48.5295 74.9770 14.1245 44.2743 -9.1194
# 2 48.5295 99.7978 41.4628 10.1613 3.7946 -11.7377
# 3 74.9770 41.4628 114.3724 12.8886 15.5520 0.9365
# 4 14.1245 10.1613 12.8886 45.4430 -0.1514 -10.1819
# 5 44.2743 3.7946 15.5520 -0.1514 50.2633 4.8556
# 6 -9.1194 -11.7377 0.9365 -10.1819 4.8556 29.2352
#
#
#
# Elastic Compliance Matrix: (Units=1/GPa)
#
#
# Indices 1 2 3 4 5 6 
#
# 1 0.012384 -0.002667 -0.005846 -0.000664 -0.009316 0.004296
# 2 -0.002667 0.013115 -0.003282 -0.000242 0.001975 0.004127
# 3 -0.005846 -0.003282 0.013866 -0.002427 0.001552 -0.004688
# 4 -0.000664 -0.000242 -0.002427 0.024819 0.000625 0.008314
# 5 -0.009316 0.001975 0.001552 0.000625 0.028112 -0.006614
# 6 0.004296 0.004127 -0.004688 0.008314 -0.006614 0.041346
#
#
# Mechanical properties :
#
#
# Convention : Reuss Voigt Hill
#
# Bulk Modulus (GPa) = 63.37870 78.65769 71.01820
# Shear Modulus (GPa) = 30.77102 39.18903 34.98003
#
# Velocity S-wave (km/s) = 3.57506 4.03455 3.81173
# Velocity P-wave (km/s) = 6.58532 7.37392 6.99075
#
# Compressibility (1/GPa) = 0.01577817
#
# Stress axis : x y z
#
# Youngs Moduli (GPa) = 80.74703 76.24702 72.11908
#
# Poissons Ratio (x) = 0.20332 0.42158
# Poissons Ratio (y) = 0.21532 0.23666
# Poissons Ratio (z) = 0.47201 0.25021
#
# Static dielectric constant tensor:
#      x y z
#    x 1.906090 0.019120 -0.041660 
#    y 0.019120 1.997380 -0.066620 
#    z -0.041660 -0.066620 1.984270 
# 
# From -- ./inp_files/44.got.cif
#   From: 2010.05.17/outbox.cif.g08.bks.cpg/sg1_1_cif.got.tgz:44.got - 2010.05.17 20:27:59.
