data_PCOD9000694
_publ_section_title
;
Structure prediction by ZEFSAII (Michael W. Deem and Ramdas Pophale) SiO2 
 PCOD9000694
Probable space group: P 1
;
_chemical_formula_sum "Si O2"
_cell_formula_units_Z 8
_cell_length_a 11.483874
_cell_length_b 7.729290
_cell_length_c 7.519427
_cell_angle_alpha 123.093318
_cell_angle_beta 56.677926
_cell_angle_gamma 140.189868
_cell_volume 347.345778
_symmetry_space_group_name_H-M "P 1"
_symmetry_group_IT_number 1
_symmetry_cell_setting 'triclinic'
loop_
_space_group_symop_operation_xyz
x,y,z
loop_
_atom_site_type_symbol
_atom_site_label
_atom_site_fract_x
_atom_site_fract_y
_atom_site_fract_z
Si Si1 0.568160 0.593350 0.893030
Si Si2 0.905209 0.867921 0.338995
Si Si3 0.530307 0.691814 0.596568
Si Si4 0.956661 0.877427 0.893894
Si Si5 0.664210 0.286975 0.419701
Si Si6 0.209555 0.095856 0.496639
Si Si7 0.008992 0.517378 0.464653
Si Si8 0.367188 0.662701 0.361322
O O1 0.523668 0.696589 0.818884
O O2 0.574822 0.368381 0.677479
O O3 0.778849 0.815021 0.920388
O O4 0.432020 0.517537 0.126119
O O5 0.750636 0.894873 0.490786
O O6 0.970538 0.917478 0.111641
O O7 0.784423 0.547554 0.328219
O O8 0.075011 0.057187 0.439376
O O9 0.422967 0.369818 0.457026
O O10 0.426301 0.729421 0.558606
O O11 0.939794 0.614984 0.723632
O O12 0.137469 0.113491 0.757246
O O13 0.824894 0.301498 0.382051
O O14 0.497603 0.968496 0.332830
O O15 0.148816 0.798715 0.385361
O O16 0.149910 0.493607 0.414348
#
# Coordination Sequence:
#
# PCOD9000694 Si02
#       8
#     1   1   1   1   1   1   1   1
#     4  10  21  44  63  90 124 169 209 253 312 373
#     4  10  18  40  67  90 118 172 212 246 319 375
#     4  11  22  38  62  96 127 161 215 257 308 379
#     4   9  18  40  66  85 125 168 207 251 315 368
#     4   9  21  43  65  87 130 162 210 262 301 380
#     4   9  20  39  63  87 127 166 204 262 301 374
#     4   8  19  41  57  88 129 156 208 261 302 367
#     4  12  23  41  61  97 130 162 205 266 312 366
#
# _framework density 23.031804999999999
#
# number of rings (size 3 to 8) (size 9 to 14) (size 15 to 20)
#    0.750    1.500    3.750    1.500    0.000    2.000 
#   11.250    0.000    0.000    0.000    0.000    0.000 
#    0.000    0.000    0.000    0.000    0.000    0.000 
#
# Total GULP energy -44555.513903 kJ/mol
# GULP energy per Si atom -5569.439238 kJ/mol
# Density = 2.297938 g / cm^3
# Si number density = 23.031805 Si / 1000 Ang^3
#
#
#
# Elastic Constant Matrix: (Units=GPa)
#
#
# Indices 1 2 3 4 5 6 
#
# 1 166.9045 37.1662 45.9235 -22.5360 5.3757 21.1372
# 2 37.1662 57.3747 14.8271 6.3529 6.0690 12.5006
# 3 45.9235 14.8271 95.1518 -7.9262 21.9426 9.9340
# 4 -22.5360 6.3529 -7.9262 19.1809 -5.6381 -4.4789
# 5 5.3757 6.0690 21.9426 -5.6381 26.2543 -10.4752
# 6 21.1372 12.5006 9.9340 -4.4789 -10.4752 49.9412
#
#
#
# Elastic Compliance Matrix: (Units=1/GPa)
#
#
# Indices 1 2 3 4 5 6 
#
# 1 0.011057 -0.009049 -0.004510 0.016819 0.007863 0.001640
# 2 -0.009049 0.029544 0.002432 -0.026640 -0.016697 -0.009941
# 3 -0.004510 0.002432 0.016369 -0.005731 -0.016955 -0.006026
# 4 0.016819 -0.026640 -0.005731 0.091973 0.033637 0.015994
# 5 0.007863 -0.016697 -0.016955 0.033637 0.070523 0.022033
# 6 0.001640 -0.009941 -0.006026 0.015994 0.022033 0.029072
#
#
# Mechanical properties :
#
#
# Convention : Reuss Voigt Hill
#
# Bulk Modulus (GPa) = 28.80384 57.25163 43.02774
# Shear Modulus (GPa) = 17.70766 33.84290 25.77528
#
# Velocity S-wave (km/s) = 2.77580 3.83743 3.34895
# Velocity P-wave (km/s) = 4.77563 6.67429 5.80314
#
# Compressibility (1/GPa) = 0.03471760
#
# Stress axis : x y z
#
# Youngs Moduli (GPa) = 90.43758 33.84796 61.09198
#
# Poissons Ratio (x) = 0.30627 0.27553
# Poissons Ratio (y) = 0.81833 -0.14860
# Poissons Ratio (z) = 0.40788 -0.08233
#
# Static dielectric constant tensor:
#      x y z
#    x 1.944280 -0.074280 -0.001790 
#    y -0.074280 1.901180 0.010010 
#    z -0.001790 0.010010 1.844040 
# 
# From -- ./inp_files/5306.got.cif
#   From: 2010.05.17/outbox.cif.g08.bks.cpg/sg1_3_cif.got.tgz:5306.got - 2010.05.17 20:27:59.
