data_PCOD9000188
_publ_section_title
;
Structure prediction by ZEFSAII (Michael W. Deem and Ramdas Pophale) SiO2 
 PCOD9000188
Probable space group: P 1
;
_chemical_formula_sum "Si O2"
_cell_formula_units_Z 8
_cell_length_a 9.270636
_cell_length_b 9.270693
_cell_length_c 9.211794
_cell_angle_alpha 48.929656
_cell_angle_beta 48.929272
_cell_angle_gamma 44.415779
_cell_volume 390.395458
_symmetry_space_group_name_H-M "P 1"
_symmetry_group_IT_number 1
_symmetry_cell_setting 'triclinic'
loop_
_space_group_symop_operation_xyz
x,y,z
loop_
_atom_site_type_symbol
_atom_site_label
_atom_site_fract_x
_atom_site_fract_y
_atom_site_fract_z
Si Si1 0.072760 0.718350 0.929510
Si Si2 0.767033 0.278620 0.086217
Si Si3 0.891197 0.452338 0.622298
Si Si4 0.263504 0.502309 0.245686
Si Si5 0.962176 0.828934 0.429503
Si Si6 0.696165 0.647367 0.122308
Si Si7 0.522443 0.523188 0.586227
Si Si8 0.746135 0.019670 0.745687
O O1 0.287511 0.631866 0.746113
O O2 0.149737 0.668502 0.076750
O O3 0.895021 0.963875 0.830288
O O4 0.933993 0.595019 0.065743
O O5 0.519652 0.349421 0.152375
O O6 0.875715 0.043686 0.246095
O O7 0.737630 0.461295 0.102868
O O8 0.897026 0.301383 0.849671
O O9 0.705129 0.493775 0.602876
O O10 0.127947 0.373303 0.443444
O O11 0.838842 0.690175 0.565718
O O12 0.207708 0.651188 0.330291
O O13 0.912323 0.905901 0.576754
O O14 0.545197 0.653193 0.349683
O O15 0.617133 0.884108 0.943454
O O16 0.593238 0.275818 0.652378
#
# Coordination Sequence:
#
# PCOD9000188 Si02
#       8
#     1   1   1   1   1   1   1   1
#     4  10  23  43  63  95 126 161 218 253 302 390
#     4  12  22  42  68  87 132 170 196 265 323 350
#     4  10  22  42  62  95 127 160 212 260 303 379
#     4  10  23  43  63  95 127 159 218 256 300 389
#     4  10  23  43  63  95 126 161 218 253 302 390
#     4  10  22  42  62  95 127 160 212 260 303 379
#     4  12  22  42  68  87 132 170 196 265 323 350
#     4  10  23  43  63  95 127 159 218 256 300 389
#
# _framework density 20.492041
#
# number of rings (size 3 to 8) (size 9 to 14) (size 15 to 20)
#    1.500    0.000    5.000    0.000    3.500    0.000 
#    9.000    0.000    0.000    0.000    0.000    0.000 
#    0.000    0.000    0.000    0.000    0.000    0.000 
#
# Total GULP energy -44596.877067 kJ/mol
# GULP energy per Si atom -5574.609633 kJ/mol
# Density = 2.044540 g / cm^3
# Si number density = 20.492041 Si / 1000 Ang^3
#
#
#
# Elastic Constant Matrix: (Units=GPa)
#
#
# Indices 1 2 3 4 5 6 
#
# 1 47.9672 -0.9308 15.7313 -0.1370 -7.7368 6.0839
# 2 -0.9308 32.0507 23.4892 -3.7364 -11.7408 3.8587
# 3 15.7313 23.4892 162.7728 7.6072 0.1242 -5.4155
# 4 -0.1370 -3.7364 7.6072 31.9266 0.2682 1.0557
# 5 -7.7368 -11.7408 0.1242 0.2682 27.8989 6.4277
# 6 6.0839 3.8587 -5.4155 1.0557 6.4277 23.4263
#
#
#
# Elastic Compliance Matrix: (Units=1/GPa)
#
#
# Indices 1 2 3 4 5 6 
#
# 1 0.027347 0.012762 -0.005147 0.003197 0.016412 -0.015041
# 2 0.012762 0.055019 -0.010442 0.009507 0.032189 -0.024051
# 3 -0.005147 -0.010442 0.008556 -0.003460 -0.007496 0.007247
# 4 0.003197 0.009507 -0.003460 0.033432 0.006047 -0.006362
# 5 0.016412 0.032189 -0.007496 0.006047 0.060400 -0.028142
# 6 -0.015041 -0.024051 0.007247 -0.006362 -0.028142 0.060239
#
#
# Mechanical properties :
#
#
# Convention : Reuss Voigt Hill
#
# Bulk Modulus (GPa) = 11.72763 35.48555 23.60659
# Shear Modulus (GPa) = 17.91657 30.28377 24.10017
#
# Velocity S-wave (km/s) = 2.96010 3.84843 3.43311
# Velocity P-wave (km/s) = 4.17353 6.09110 5.22110
#
# Compressibility (1/GPa) = 0.08526871
#
# Stress axis : x y z
#
# Youngs Moduli (GPa) = 36.56678 18.17538 116.87238
#
# Poissons Ratio (x) = -0.23195 0.60154
# Poissons Ratio (y) = -0.46666 1.22039
# Poissons Ratio (z) = 0.18821 0.18979
#
# Static dielectric constant tensor:
#      x y z
#    x 1.744660 0.022030 -0.002000 
#    y 0.022030 1.718930 0.000820 
#    z -0.002000 0.000820 1.726100 
# 
# From -- ./inp_files/4034.got.cif
#   From: 2010.05.17/outbox.cif.g08.bks.cpg/sg1_3_cif.got.tgz:4034.got - 2010.05.17 20:27:59.
