data_PCOD9000298
_publ_section_title
;
Structure prediction by ZEFSAII (Michael W. Deem and Ramdas Pophale) SiO2 
 PCOD9000298
Probable space group: P 1
;
_chemical_formula_sum "Si O2"
_cell_formula_units_Z 8
_cell_length_a 12.155451
_cell_length_b 5.067188
_cell_length_c 5.406016
_cell_angle_alpha 96.839118
_cell_angle_beta 67.888709
_cell_angle_gamma 111.294934
_cell_volume 287.366414
_symmetry_space_group_name_H-M "P 1"
_symmetry_group_IT_number 1
_symmetry_cell_setting 'triclinic'
loop_
_space_group_symop_operation_xyz
x,y,z
loop_
_atom_site_type_symbol
_atom_site_label
_atom_site_fract_x
_atom_site_fract_y
_atom_site_fract_z
Si Si1 0.926070 0.844340 0.943240
Si Si2 0.706052 0.802772 0.504992
Si Si3 0.185926 0.215630 0.803891
Si Si4 0.400428 0.210151 0.868397
Si Si5 0.247810 0.775885 0.321057
Si Si6 0.019624 0.381632 0.633966
Si Si7 0.510083 0.883169 0.353511
Si Si8 0.652370 0.304456 0.865728
O O1 0.928915 0.546728 0.812175
O O2 0.809831 0.813544 0.213174
O O3 0.055049 0.004398 0.006053
O O4 0.947123 0.054330 0.712251
O O5 0.572995 0.702661 0.451125
O O6 0.715766 0.608356 0.706073
O O7 0.708399 0.108256 0.628321
O O8 0.314367 0.374637 0.854056
O O9 0.138439 0.439306 0.728366
O O10 0.218691 0.009025 0.551699
O O11 0.511369 0.332251 0.981086
O O12 0.470144 0.085373 0.595478
O O13 0.293185 0.949676 0.053335
O O14 0.112107 0.527836 0.349184
O O15 0.377087 0.729270 0.304564
O O16 0.622202 0.100290 0.113938
#
# Coordination Sequence:
#
# PCOD9000298 Si02
#       8
#     1   1   1   1   1   1   1   1
#     4   9  19  36  59  83 111 156 191 236 281 343
#     4  11  22  40  64  83 117 162 195 236 298 339
#     4   8  18  34  57  82 119 148 183 239 284 335
#     4   9  18  38  59  89 115 154 188 233 302 345
#     4   9  17  36  58  90 117 149 188 239 286 358
#     4   9  18  35  60  80 117 147 185 241 285 327
#     4   9  21  40  59  90 121 152 194 246 291 346
#     4  10  23  39  60  91 117 150 200 244 285 353
#
# _framework density 27.839019
#
# number of rings (size 3 to 8) (size 9 to 14) (size 15 to 20)
#    0.750    2.000    0.000    0.750    1.750    2.000 
#   18.000    3.750    0.000    0.000    0.000    0.000 
#    0.000    0.000    0.000    0.000    0.000    0.000 
#
# Total GULP energy -44604.979590 kJ/mol
# GULP energy per Si atom -5575.622449 kJ/mol
# Density = 2.777566 g / cm^3
# Si number density = 27.839019 Si / 1000 Ang^3
#
#
#
# Elastic Constant Matrix: (Units=GPa)
#
#
# Indices 1 2 3 4 5 6 
#
# 1 102.7146 39.4378 24.2320 8.4696 -18.3075 -19.0874
# 2 39.4378 158.0134 38.8336 -3.4508 -14.1871 -11.2375
# 3 24.2320 38.8336 125.2130 -13.6825 -40.1994 2.2546
# 4 8.4696 -3.4508 -13.6825 37.6258 3.8828 -10.9334
# 5 -18.3075 -14.1871 -40.1994 3.8828 44.2665 2.6832
# 6 -19.0874 -11.2375 2.2546 -10.9334 2.6832 46.6166
#
#
#
# Elastic Compliance Matrix: (Units=1/GPa)
#
#
# Indices 1 2 3 4 5 6 
#
# 1 0.012390 -0.002348 -0.000871 -0.002607 0.003583 0.003732
# 2 -0.002348 0.007449 -0.001937 0.000897 -0.000492 0.001167
# 3 -0.000871 -0.001937 0.012337 0.003101 0.010027 -0.001270
# 4 -0.002607 0.000897 0.003101 0.030266 -0.001002 0.006155
# 5 0.003583 -0.000492 0.010027 -0.001002 0.033186 -0.001282
# 6 0.003732 0.001167 -0.001270 0.006155 -0.001282 0.024840
#
#
# Mechanical properties :
#
#
# Convention : Reuss Voigt Hill
#
# Bulk Modulus (GPa) = 45.73907 65.66087 55.69997
# Shear Modulus (GPa) = 36.21436 44.59764 40.40600
#
# Velocity S-wave (km/s) = 3.61064 4.00682 3.81388
# Velocity P-wave (km/s) = 5.81789 6.71143 6.28057
#
# Compressibility (1/GPa) = 0.02186315
#
# Stress axis : x y z
#
# Youngs Moduli (GPa) = 80.71186 134.24660 81.06008
#
# Poissons Ratio (x) = 0.31522 0.07063
# Poissons Ratio (y) = 0.18951 0.15699
# Poissons Ratio (z) = 0.07032 0.26000
#
# Static dielectric constant tensor:
#      x y z
#    x 2.497380 0.205550 -0.033480 
#    y 0.205550 2.271560 -0.148920 
#    z -0.033480 -0.148920 2.294960 
# 
# From -- ./inp_files/449.got.cif
#   From: 2010.05.17/outbox.cif.g08.bks.cpg/sg1_1_cif.got.tgz:449.got - 2010.05.17 20:27:59.
