data_PCOD9000210
_publ_section_title
;
Structure prediction by ZEFSAII (Michael W. Deem and Ramdas Pophale) SiO2 
 PCOD9000210
Probable space group: P 1
;
_chemical_formula_sum "Si O2"
_cell_formula_units_Z 8
_cell_length_a 7.591662
_cell_length_b 6.522204
_cell_length_c 13.637837
_cell_angle_alpha 108.872809
_cell_angle_beta 142.647027
_cell_angle_gamma 63.367313
_cell_volume 365.558585
_symmetry_space_group_name_H-M "P 1"
_symmetry_group_IT_number 1
_symmetry_cell_setting 'triclinic'
loop_
_space_group_symop_operation_xyz
x,y,z
loop_
_atom_site_type_symbol
_atom_site_label
_atom_site_fract_x
_atom_site_fract_y
_atom_site_fract_z
Si Si1 0.199100 0.415690 0.982600
Si Si2 0.398590 0.718180 0.844254
Si Si3 0.788886 0.899703 0.896665
Si Si4 0.864945 0.180115 0.691807
Si Si5 0.715141 0.342611 0.055701
Si Si6 0.471665 0.928867 0.549807
Si Si7 0.824652 0.232618 0.304308
Si Si8 0.904487 0.472398 0.571095
O O1 0.369894 0.373262 0.946454
O O2 0.104849 0.683709 0.005298
O O3 0.894606 0.355380 0.816052
O O4 0.463804 0.251410 0.143436
O O5 0.554184 0.814168 0.842665
O O6 0.671105 0.577271 0.015854
O O7 0.209615 0.546719 0.709368
O O8 0.138984 0.945203 0.804362
O O9 0.642251 0.933761 0.729082
O O10 0.821726 0.124854 0.997398
O O11 0.914499 0.268338 0.619755
O O12 0.554350 0.121916 0.553167
O O13 0.875789 0.307398 0.227218
O O14 0.635709 0.689350 0.531181
O O15 0.105411 0.998675 0.410659
O O16 0.842298 0.402104 0.424282
#
# Coordination Sequence:
#
# PCOD9000210 Si02
#       8
#     1   1   1   1   1   1   1   1
#     4  10  22  43  63  92 131 167 212 262 314 373
#     4  11  20  40  71  93 127 170 215 269 306 383
#     4  12  23  41  71  95 123 174 223 258 312 384
#     4  11  21  45  67  97 124 170 223 261 310 387
#     4  10  23  43  61  93 134 165 214 257 321 376
#     4  11  25  40  70  95 128 168 215 266 318 377
#     4  10  24  42  62  95 136 167 204 268 324 378
#     4  11  22  42  65  94 133 165 214 261 323 380
#
# _framework density 21.884316999999999
#
# number of rings (size 3 to 8) (size 9 to 14) (size 15 to 20)
#    0.750    0.500    3.750    2.250    5.250    0.000 
#    2.250    7.500    0.000    0.000    0.000    0.000 
#    0.000    0.000    0.000    0.000    0.000    0.000 
#
# Total GULP energy -44579.053508 kJ/mol
# GULP energy per Si atom -5572.381689 kJ/mol
# Density = 2.183451 g / cm^3
# Si number density = 21.884317 Si / 1000 Ang^3
#
#
#
# Elastic Constant Matrix: (Units=GPa)
#
#
# Indices 1 2 3 4 5 6 
#
# 1 48.6908 29.7149 36.1409 -6.9102 -17.8670 -5.5029
# 2 29.7149 97.4223 35.9846 -7.1037 -13.7697 -19.7197
# 3 36.1409 35.9846 95.8307 -10.9600 -21.9685 -13.4014
# 4 -6.9102 -7.1037 -10.9600 21.1649 -11.9759 0.3261
# 5 -17.8670 -13.7697 -21.9685 -11.9759 32.3994 1.2345
# 6 -5.5029 -19.7197 -13.4014 0.3261 1.2345 46.6491
#
#
#
# Elastic Compliance Matrix: (Units=1/GPa)
#
#
# Indices 1 2 3 4 5 6 
#
# 1 0.039512 -0.005074 -0.004588 0.022958 0.024994 0.000376
# 2 -0.005074 0.014151 -0.001350 0.004446 0.003759 0.004865
# 3 -0.004588 -0.001350 0.018586 0.016326 0.015392 0.003706
# 4 0.022958 0.004446 0.016326 0.099805 0.062247 0.006933
# 5 0.024994 0.003759 0.015392 0.062247 0.079446 0.006422
# 6 0.000376 0.004865 0.003706 0.006933 0.006422 0.024384
#
#
# Mechanical properties :
#
#
# Convention : Reuss Voigt Hill
#
# Bulk Modulus (GPa) = 19.91016 49.51383 34.71199
# Shear Modulus (GPa) = 15.89068 29.38291 22.63679
#
# Velocity S-wave (km/s) = 2.69759 3.66819 3.21967
# Velocity P-wave (km/s) = 4.33824 6.37301 5.45140
#
# Compressibility (1/GPa) = 0.05022561
#
# Stress axis : x y z
#
# Youngs Moduli (GPa) = 25.30882 70.66634 53.80342
#
# Poissons Ratio (x) = 0.35858 0.24685
# Poissons Ratio (y) = 0.12842 0.07261
# Poissons Ratio (z) = 0.11612 0.09537
#
# Static dielectric constant tensor:
#      x y z
#    x 1.864740 0.013170 0.018430 
#    y 0.013170 1.840300 -0.029230 
#    z 0.018430 -0.029230 1.847870 
# 
# From -- ./inp_files/5287.got.cif
#   From: 2010.05.17/outbox.cif.g08.bks.cpg/sg1_3_cif.got.tgz:5287.got - 2010.05.17 20:27:59.
