data_PCOD9000719
_publ_section_title
;
Structure prediction by ZEFSAII (Michael W. Deem and Ramdas Pophale) SiO2 
 PCOD9000719
Probable space group: P 1
;
_chemical_formula_sum "Si O2"
_cell_formula_units_Z 8
_cell_length_a 8.464266
_cell_length_b 7.280287
_cell_length_c 7.071443
_cell_angle_alpha 120.552758
_cell_angle_beta 82.382919
_cell_angle_gamma 64.128597
_cell_volume 300.269581
_symmetry_space_group_name_H-M "P 1"
_symmetry_group_IT_number 1
_symmetry_cell_setting 'triclinic'
loop_
_space_group_symop_operation_xyz
x,y,z
loop_
_atom_site_type_symbol
_atom_site_label
_atom_site_fract_x
_atom_site_fract_y
_atom_site_fract_z
Si Si1 0.848860 0.224960 0.756560
Si Si2 0.442342 0.696585 0.064515
Si Si3 0.742005 0.015043 0.018424
Si Si4 0.043727 0.133007 0.317333
Si Si5 0.322988 0.412012 0.206794
Si Si6 0.568498 0.036676 0.430523
Si Si7 0.166172 0.485949 0.668904
Si Si8 0.925022 0.493438 0.199168
O O1 0.977716 0.052590 0.468715
O O2 0.806536 0.098797 0.868026
O O3 0.641901 0.456672 0.815284
O O4 0.923846 0.373727 0.936400
O O5 0.389238 0.570052 0.169827
O O6 0.500411 0.872716 0.247948
O O7 0.245154 0.877053 0.067910
O O8 0.955928 0.745551 0.896423
O O9 0.664708 0.114363 0.297405
O O10 0.523379 0.108925 0.026427
O O11 0.903881 0.323361 0.271931
O O12 0.105300 0.304980 0.497939
O O13 0.252602 0.532427 0.492086
O O14 0.135400 0.437938 0.165826
O O15 0.745473 0.803502 0.407886
O O16 0.360633 0.299439 0.672108
#
# Coordination Sequence:
#
# PCOD9000719 Si02
#       8
#     1   1   1   1   1   1   1   1
#     4  10  21  38  61  85 115 154 193 237 287 342
#     4   9  18  36  59  84 115 153 193 233 287 346
#     4  10  19  36  61  84 113 155 193 231 288 346
#     4  10  20  36  59  84 116 153 188 236 291 340
#     4   9  19  34  57  85 116 150 186 239 291 336
#     4   9  19  35  56  84 117 151 190 239 285 336
#     4   9  17  33  57  82 111 152 193 228 282 347
#     4  10  21  38  60  88 119 150 192 243 287 339
#
# _framework density 26.642726
#
# number of rings (size 3 to 8) (size 9 to 14) (size 15 to 20)
#    0.000    2.500    0.000    3.000    0.000    1.000 
#    0.000   15.000    0.000   36.000    0.000    0.000 
#    0.000    0.000    0.000    0.000    0.000    0.000 
#
# Total GULP energy -44614.377107 kJ/mol
# GULP energy per Si atom -5576.797138 kJ/mol
# Density = 2.658209 g / cm^3
# Si number density = 26.642726 Si / 1000 Ang^3
#
#
#
# Elastic Constant Matrix: (Units=GPa)
#
#
# Indices 1 2 3 4 5 6 
#
# 1 117.8202 47.2639 40.6528 -2.1937 -13.1654 -18.5359
# 2 47.2639 151.3597 52.8994 5.8545 -25.3716 -23.2754
# 3 40.6528 52.8994 133.5868 19.5667 -28.5054 -26.1035
# 4 -2.1937 5.8545 19.5667 53.8258 -14.2588 -30.5342
# 5 -13.1654 -25.3716 -28.5054 -14.2588 31.4847 6.6592
# 6 -18.5359 -23.2754 -26.1035 -30.5342 6.6592 56.1552
#
#
#
# Elastic Compliance Matrix: (Units=1/GPa)
#
#
# Indices 1 2 3 4 5 6 
#
# 1 0.010859 -0.001891 -0.001900 0.004185 0.002365 0.003913
# 2 -0.001891 0.009110 -0.001588 0.002907 0.005728 0.003315
# 3 -0.001900 -0.001588 0.010745 -0.000503 0.006872 0.002621
# 4 0.004185 0.002907 -0.000503 0.033042 0.014671 0.018579
# 5 0.002365 0.005728 0.006872 0.014671 0.048417 0.008585
# 6 0.003913 0.003315 0.002621 0.018579 0.008585 0.030776
#
#
# Mechanical properties :
#
#
# Convention : Reuss Voigt Hill
#
# Bulk Modulus (GPa) = 50.10647 76.04432 63.07540
# Shear Modulus (GPa) = 31.18050 45.75652 38.46851
#
# Velocity S-wave (km/s) = 3.42470 4.14866 3.80395
# Velocity P-wave (km/s) = 5.87246 7.18002 6.55891
#
# Compressibility (1/GPa) = 0.01995750
#
# Stress axis : x y z
#
# Youngs Moduli (GPa) = 92.08772 109.77402 93.06808
#
# Poissons Ratio (x) = 0.20756 0.17680
# Poissons Ratio (y) = 0.17412 0.14776
# Poissons Ratio (z) = 0.17494 0.17428
#
# Static dielectric constant tensor:
#      x y z
#    x 2.188200 -0.007050 0.002410 
#    y -0.007050 2.173960 0.054900 
#    z 0.002410 0.054900 2.056550 
# 
# From -- ./inp_files/3869.got.cif
#   From: 2010.05.17/outbox.cif.g08.bks.cpg/sg1_2_cif.got.tgz:3869.got - 2010.05.17 20:27:59.
