data_PCOD9000330
_publ_section_title
;
Structure prediction by ZEFSAII (Michael W. Deem and Ramdas Pophale) SiO2 
 PCOD9000330
Probable space group: P 1
;
_chemical_formula_sum "Si O2"
_cell_formula_units_Z 8
_cell_length_a 7.951232
_cell_length_b 7.828023
_cell_length_c 8.848956
_cell_angle_alpha 68.365456
_cell_angle_beta 103.113117
_cell_angle_gamma 54.221857
_cell_volume 336.373088
_symmetry_space_group_name_H-M "P 1"
_symmetry_group_IT_number 1
_symmetry_cell_setting 'triclinic'
loop_
_space_group_symop_operation_xyz
x,y,z
loop_
_atom_site_type_symbol
_atom_site_label
_atom_site_fract_x
_atom_site_fract_y
_atom_site_fract_z
Si Si1 0.835010 0.780190 0.944420
Si Si2 0.447715 0.788659 0.749974
Si Si3 0.295432 0.226278 0.393296
Si Si4 0.875523 0.240619 0.543380
Si Si5 0.611078 0.341086 0.766925
Si Si6 0.207675 0.526165 0.832878
Si Si7 0.671089 0.131204 0.288359
Si Si8 0.036252 0.518555 0.523554
O O1 0.603256 0.821016 0.861401
O O2 0.969031 0.738659 0.827252
O O3 0.747358 0.038407 0.920851
O O4 0.050067 0.493262 0.167822
O O5 0.662262 0.473600 0.844882
O O6 0.337477 0.978740 0.515522
O O7 0.179020 0.947378 0.727073
O O8 0.534662 0.114409 0.391761
O O9 0.272604 0.337092 0.516294
O O10 0.694414 0.331529 0.618316
O O11 0.780519 0.217105 0.377422
O O12 0.883780 0.455052 0.462783
O O13 0.316033 0.552532 0.698532
O O14 0.116582 0.425386 0.744944
O O15 0.452146 0.340756 0.052419
O O16 0.874723 0.828552 0.364304
#
# Coordination Sequence:
#
# PCOD9000330 Si02
#       8
#     1   1   1   1   1   1   1   1
#     4  11  24  44  66  97 133 171 219 271 324 387
#     4  11  24  42  67  97 134 171 216 273 325 387
#     4  10  23  43  68  94 130 174 218 269 325 385
#     4  11  24  40  67 100 129 170 219 266 327 389
#     4  12  22  40  68  95 128 173 215 263 326 387
#     4  11  24  42  68  97 130 172 218 268 325 387
#     4  11  23  43  65  94 132 168 215 272 323 384
#     4  11  22  42  65  92 130 173 214 262 327 388
#
# _framework density 23.783117000000001
#
# number of rings (size 3 to 8) (size 9 to 14) (size 15 to 20)
#    0.000    1.000    0.000    8.250    0.000    2.000 
#    0.000   13.750    0.000    1.500    0.000    0.000 
#    0.000    0.000    0.000    0.000    0.000    0.000 
#
# Total GULP energy -44571.321681 kJ/mol
# GULP energy per Si atom -5571.415210 kJ/mol
# Density = 2.372899 g / cm^3
# Si number density = 23.783117 Si / 1000 Ang^3
#
#
#
# Elastic Constant Matrix: (Units=GPa)
#
#
# Indices 1 2 3 4 5 6 
#
# 1 70.8624 6.2984 9.6117 16.3783 -6.4729 -8.7652
# 2 6.2984 123.6188 14.6871 15.0299 -2.6600 0.7055
# 3 9.6117 14.6871 104.3052 -3.0925 13.0838 5.3959
# 4 16.3783 15.0299 -3.0925 33.3607 -6.1709 -2.6664
# 5 -6.4729 -2.6600 13.0838 -6.1709 32.2549 5.9126
# 6 -8.7652 0.7055 5.3959 -2.6664 5.9126 45.2719
#
#
#
# Elastic Compliance Matrix: (Units=1/GPa)
#
#
# Indices 1 2 3 4 5 6 
#
# 1 0.016779 0.000421 -0.002272 -0.007995 0.002291 0.002743
# 2 0.000421 0.008767 -0.001467 -0.004191 0.000639 -0.000211
# 3 -0.002272 -0.001467 0.010657 0.001878 -0.004356 -0.001008
# 4 -0.007995 -0.004191 0.001878 0.036757 0.004340 -0.000108
# 5 0.002291 0.000639 -0.004356 0.004340 0.034723 -0.003326
# 6 0.002743 -0.000211 -0.001008 -0.000108 -0.003326 0.023171
#
#
# Mechanical properties :
#
#
# Convention : Reuss Voigt Hill
#
# Bulk Modulus (GPa) = 33.82103 39.99787 36.90945
# Shear Modulus (GPa) = 33.93403 40.05677 36.99540
#
# Velocity S-wave (km/s) = 3.78141 4.10842 3.94830
# Velocity P-wave (km/s) = 5.77208 6.27373 6.02813
#
# Compressibility (1/GPa) = 0.02956740
#
# Stress axis : x y z
#
# Youngs Moduli (GPa) = 59.59857 114.06811 93.83232
#
# Poissons Ratio (x) = -0.04799 0.21316
# Poissons Ratio (y) = -0.02507 0.13763
# Poissons Ratio (z) = 0.13539 0.16731
#
# Static dielectric constant tensor:
#      x y z
#    x 2.110080 0.145050 0.028280 
#    y 0.145050 1.999440 0.023540 
#    z 0.028280 0.023540 1.999730 
# 
# From -- ./inp_files/4261.got.cif
#   From: 2010.05.17/outbox.cif.g08.bks.cpg/sg1_3_cif.got.tgz:4261.got - 2010.05.17 20:27:59.
