data_PCOD9000248
_publ_section_title
;
Structure prediction by ZEFSAII (Michael W. Deem and Ramdas Pophale) SiO2 
 PCOD9000248
Probable space group: P 1
;
_chemical_formula_sum "Si O2"
_cell_formula_units_Z 8
_cell_length_a 14.786981
_cell_length_b 11.694837
_cell_length_c 7.975504
_cell_angle_alpha 144.616977
_cell_angle_beta 138.727111
_cell_angle_gamma 27.405092
_cell_volume 365.586252
_symmetry_space_group_name_H-M "P 1"
_symmetry_group_IT_number 1
_symmetry_cell_setting 'triclinic'
loop_
_space_group_symop_operation_xyz
x,y,z
loop_
_atom_site_type_symbol
_atom_site_label
_atom_site_fract_x
_atom_site_fract_y
_atom_site_fract_z
Si Si1 0.054830 0.133670 0.858810
Si Si2 0.637198 0.130160 0.146637
Si Si3 0.835760 0.051154 0.656005
Si Si4 0.937649 0.597561 0.491947
Si Si5 0.881782 0.145449 0.310867
Si Si6 0.309158 0.801882 0.515563
Si Si7 0.636757 0.598578 0.216203
Si Si8 0.338264 0.088481 0.612222
O O1 0.018421 0.994198 0.773822
O O2 0.891939 0.256166 0.633274
O O3 0.252913 0.917667 0.766123
O O4 0.012731 0.382333 0.184807
O O5 0.754834 0.001908 0.332035
O O6 0.788353 0.032764 0.093723
O O7 0.490309 0.468509 0.357352
O O8 0.502942 0.083931 0.864031
O O9 0.671998 0.382615 0.878373
O O10 0.889516 0.858773 0.657543
O O11 0.122204 0.395179 0.634527
O O12 0.747880 0.675904 0.391453
O O13 0.759859 0.393852 0.304161
O O14 0.111463 0.896564 0.287050
O O15 0.331984 0.964869 0.622796
O O16 0.420907 0.871852 0.312769
#
# Coordination Sequence:
#
# PCOD9000248 Si02
#       8
#     1   1   1   1   1   1   1   1
#     4   8  21  42  68  91 126 182 213 261 329 390
#     4  11  25  42  67 103 129 173 227 270 325 392
#     4  10  25  45  68  92 139 176 215 272 332 392
#     4  11  24  44  65 100 137 172 218 272 334 390
#     4   9  20  44  67  87 134 176 213 268 323 387
#     4  10  22  44  69  93 134 175 218 271 327 390
#     4  11  24  43  68  95 134 178 219 267 333 389
#     4  12  27  40  72 103 131 170 227 275 327 392
#
# _framework density 21.882660000000001
#
# number of rings (size 3 to 8) (size 9 to 14) (size 15 to 20)
#    0.750    1.000    2.500    0.000    7.000    2.000 
#    2.250    0.000    0.000    0.000    0.000    0.000 
#    0.000    0.000    0.000    0.000    0.000    0.000 
#
# Total GULP energy -44688.900322 kJ/mol
# GULP energy per Si atom -5586.112540 kJ/mol
# Density = 2.183285 g / cm^3
# Si number density = 21.882660 Si / 1000 Ang^3
#
#
#
# Elastic Constant Matrix: (Units=GPa)
#
#
# Indices 1 2 3 4 5 6 
#
# 1 132.4509 33.7323 28.1600 10.6461 11.7567 11.2113
# 2 33.7323 78.1351 0.8071 13.5661 9.1960 3.1395
# 3 28.1600 0.8071 76.7019 1.7564 12.0171 6.7041
# 4 10.6461 13.5661 1.7564 25.3843 -1.0508 -0.3782
# 5 11.7567 9.1960 12.0171 -1.0508 30.2097 0.1256
# 6 11.2113 3.1395 6.7041 -0.3782 0.1256 35.5230
#
#
#
# Elastic Compliance Matrix: (Units=1/GPa)
#
#
# Indices 1 2 3 4 5 6 
#
# 1 0.009554 -0.003473 -0.002996 -0.002039 -0.001531 -0.002159
# 2 -0.003473 0.016163 0.002075 -0.007529 -0.004653 -0.000788
# 3 -0.002996 0.002075 0.015194 -0.001165 -0.005542 -0.002098
# 4 -0.002039 -0.007529 -0.001165 0.044595 0.005092 0.001986
# 5 -0.001531 -0.004653 -0.005542 0.005092 0.037488 0.001862
# 6 -0.002159 -0.000788 -0.002098 0.001986 0.001862 0.029312
#
#
# Mechanical properties :
#
#
# Convention : Reuss Voigt Hill
#
# Bulk Modulus (GPa) = 31.12958 45.85406 38.49182
# Shear Modulus (GPa) = 29.10372 33.19597 31.14984
#
# Velocity S-wave (km/s) = 3.65086 3.89909 3.77702
# Velocity P-wave (km/s) = 5.65935 6.42422 6.05388
#
# Compressibility (1/GPa) = 0.03212379
#
# Stress axis : x y z
#
# Youngs Moduli (GPa) = 104.66962 61.87127 65.81663
#
# Poissons Ratio (x) = 0.21485 0.19717
# Poissons Ratio (y) = 0.36347 -0.13657
# Poissons Ratio (z) = 0.31356 -0.12839
#
# Static dielectric constant tensor:
#      x y z
#    x 1.799840 -0.019580 -0.032810 
#    y -0.019580 1.782760 -0.040120 
#    z -0.032810 -0.040120 1.834480 
# 
# From -- ./inp_files/5776.got.cif
#   From: 2010.05.17/outbox.cif.g08.bks.cpg/sg1_3_cif.got.tgz:5776.got - 2010.05.17 20:27:59.
