data_PCOD9000582
_publ_section_title
;
Structure prediction by ZEFSAII (Michael W. Deem and Ramdas Pophale) SiO2 
 PCOD9000582
Probable space group: P 1
;
_chemical_formula_sum "Si O2"
_cell_formula_units_Z 8
_cell_length_a 11.381429
_cell_length_b 14.420694
_cell_length_c 5.083986
_cell_angle_alpha 47.365445
_cell_angle_beta 56.328925
_cell_angle_gamma 31.006964
_cell_volume 315.482644
_symmetry_space_group_name_H-M "P 1"
_symmetry_group_IT_number 1
_symmetry_cell_setting 'triclinic'
loop_
_space_group_symop_operation_xyz
x,y,z
loop_
_atom_site_type_symbol
_atom_site_label
_atom_site_fract_x
_atom_site_fract_y
_atom_site_fract_z
Si Si1 0.315440 0.137300 0.233110
Si Si2 0.805082 0.721284 0.615508
Si Si3 0.410224 0.578894 0.426079
Si Si4 0.768420 0.127928 0.722753
Si Si5 0.665917 0.594404 0.386927
Si Si6 0.232471 0.931331 0.602438
Si Si7 0.897121 0.883156 0.554323
Si Si8 0.095609 0.389928 0.511776
O O1 0.222261 0.303161 0.242220
O O2 0.575871 0.929121 0.368572
O O3 0.195838 0.084279 0.520134
O O4 0.263190 0.212053 0.858221
O O5 0.856097 0.774455 0.695637
O O6 0.000393 0.577075 0.429166
O O7 0.755241 0.617665 0.992234
O O8 0.542365 0.370949 0.528669
O O9 0.588425 0.512743 0.540269
O O10 0.168894 0.707590 0.598987
O O11 0.338592 0.742732 0.004491
O O12 0.994480 0.054725 0.536583
O O13 0.770305 0.019326 0.708676
O O14 0.812431 0.034489 0.132005
O O15 0.431777 0.817844 0.361947
O O16 0.869149 0.464257 0.594322
#
# Coordination Sequence:
#
# PCOD9000582 Si02
#       8
#     1   1   1   1   1   1   1   1
#     4  12  26  43  72 108 152 187 243 299 373 438
#     4  12  28  50  75 109 158 193 246 310 371 438
#     4  11  25  49  76 107 150 193 244 312 371 431
#     4  11  27  47  76 106 146 196 249 300 364 441
#     4  12  22  48  77 111 149 193 238 315 375 427
#     4  11  24  42  74 111 148 189 244 305 372 436
#     4  11  29  49  75 107 147 199 250 296 364 449
#     4  12  27  44  69 113 144 198 238 301 368 440
#
# _framework density 25.357975
#
# number of rings (size 3 to 8) (size 9 to 14) (size 15 to 20)
#    0.000    0.500    5.000    1.500    5.250    2.000 
#    0.000    0.000    0.000    0.000    0.000    0.000 
#    0.000    0.000    0.000    0.000    0.000    0.000 
#
# Total GULP energy -44849.130914 kJ/mol
# GULP energy per Si atom -5606.141364 kJ/mol
# Density = 2.530026 g / cm^3
# Si number density = 25.357975 Si / 1000 Ang^3
#
#
#
# Elastic Constant Matrix: (Units=GPa)
#
#
# Indices 1 2 3 4 5 6 
#
# 1 123.2490 14.7839 32.0449 -5.5719 4.2421 22.0516
# 2 14.7839 79.4693 20.9629 -18.5253 3.4516 33.5929
# 3 32.0449 20.9629 65.0046 4.7625 21.5923 -2.1746
# 4 -5.5719 -18.5253 4.7625 34.1055 1.3650 3.5931
# 5 4.2421 3.4516 21.5923 1.3650 38.1083 -3.7333
# 6 22.0516 33.5929 -2.1746 3.5931 -3.7333 43.0013
#
#
#
# Elastic Compliance Matrix: (Units=1/GPa)
#
#
# Indices 1 2 3 4 5 6 
#
# 1 0.013120 0.009402 -0.011558 0.010384 0.002364 -0.015320
# 2 0.009402 0.040787 -0.022355 0.030926 0.002885 -0.040149
# 3 -0.011558 -0.022355 0.035120 -0.021118 -0.013306 0.025777
# 4 0.010384 0.030926 -0.021118 0.054332 0.002647 -0.034863
# 5 0.002364 0.002885 -0.013306 0.002647 0.033015 -0.001494
# 6 -0.015320 -0.040149 0.025777 -0.034863 -0.001494 0.066563
#
#
# Mechanical properties :
#
#
# Convention : Reuss Voigt Hill
#
# Bulk Modulus (GPa) = 24.99741 44.81181 34.90461
# Shear Modulus (GPa) = 16.37773 36.37176 26.37475
#
# Velocity S-wave (km/s) = 2.54414 3.79137 3.22855
# Velocity P-wave (km/s) = 4.30225 6.07256 5.26238
#
# Compressibility (1/GPa) = 0.04000414
#
# Stress axis : x y z
#
# Youngs Moduli (GPa) = 76.21868 24.51777 28.47399
#
# Poissons Ratio (x) = -0.23052 0.32911
# Poissons Ratio (y) = -0.71661 0.63654
# Poissons Ratio (z) = 0.88096 0.54810
#
# Static dielectric constant tensor:
#      x y z
#    x 1.994980 0.033210 -0.029550 
#    y 0.033210 1.990220 0.010510 
#    z -0.029550 0.010510 1.995380 
# 
# From -- ./inp_files/2492.got.cif
#   From: 2010.05.17/outbox.cif.g08.bks.cpg/sg1_2_cif.got.tgz:2492.got - 2010.05.17 20:27:59.
