data_PCOD9000429
_publ_section_title
;
Structure prediction by ZEFSAII (Michael W. Deem and Ramdas Pophale) SiO2 
 PCOD9000429
Probable space group: P 1
;
_chemical_formula_sum "Si O2"
_cell_formula_units_Z 8
_cell_length_a 9.135367
_cell_length_b 7.694486
_cell_length_c 9.457279
_cell_angle_alpha 104.047362
_cell_angle_beta 141.469392
_cell_angle_gamma 96.933798
_cell_volume 344.599707
_symmetry_space_group_name_H-M "P 1"
_symmetry_group_IT_number 1
_symmetry_cell_setting 'triclinic'
loop_
_space_group_symop_operation_xyz
x,y,z
loop_
_atom_site_type_symbol
_atom_site_label
_atom_site_fract_x
_atom_site_fract_y
_atom_site_fract_z
Si Si1 0.116030 0.350840 0.365810
Si Si2 0.685522 0.601461 0.726564
Si Si3 0.638753 0.263726 0.184482
Si Si4 0.776406 0.222965 0.795208
Si Si5 0.158061 0.942354 0.330663
Si Si6 0.123876 0.907374 0.603065
Si Si7 0.644408 0.635090 0.370323
Si Si8 0.760106 0.048429 0.466885
O O1 0.419473 0.547179 0.608474
O O2 0.930322 0.372008 0.347696
O O3 0.148064 0.152597 0.383675
O O4 0.958847 0.295765 0.086238
O O5 0.738891 0.411904 0.753367
O O6 0.624990 0.610396 0.517968
O O7 0.951877 0.807968 0.024965
O O8 0.527512 0.420552 0.154956
O O9 0.644974 0.174566 0.325549
O O10 0.440629 0.061835 0.901492
O O11 0.886630 0.151391 0.733109
O O12 0.474404 0.024641 0.556348
O O13 0.071367 0.816480 0.388361
O O14 0.984239 0.048655 0.534794
O O15 0.963416 0.754084 0.581480
O O16 0.555310 0.799361 0.287625
#
# Coordination Sequence:
#
# PCOD9000429 Si02
#       8
#     1   1   1   1   1   1   1   1
#     4  11  25  43  69 101 135 187 223 285 345 398
#     4  11  26  43  68 104 139 180 230 278 342 420
#     4  12  23  49  72  96 142 180 228 288 345 395
#     4  11  24  43  70  98 143 183 223 283 347 401
#     4  11  24  46  66 101 142 176 234 282 334 419
#     4  10  25  45  69 101 135 180 233 284 332 416
#     4  10  25  45  66 104 134 177 231 281 333 421
#     4  10  24  46  66 103 134 181 224 285 344 398
#
# _framework density 23.215340999999999
#
# number of rings (size 3 to 8) (size 9 to 14) (size 15 to 20)
#    0.750    0.500    3.750    0.750    5.250    3.000 
#    2.250    0.000    0.000    0.000    0.000    0.000 
#    0.000    0.000    0.000    0.000    0.000    0.000 
#
# Total GULP energy -44678.814948 kJ/mol
# GULP energy per Si atom -5584.851868 kJ/mol
# Density = 2.316250 g / cm^3
# Si number density = 23.215341 Si / 1000 Ang^3
#
#
#
# Elastic Constant Matrix: (Units=GPa)
#
#
# Indices 1 2 3 4 5 6 
#
# 1 71.7572 16.6759 -1.1633 1.6939 -9.5134 7.5104
# 2 16.6759 69.3449 -7.5816 -4.3337 -4.1066 10.6737
# 3 -1.1633 -7.5816 53.4291 9.1789 -2.6074 7.1737
# 4 1.6939 -4.3337 9.1789 28.0466 6.2756 -6.7565
# 5 -9.5134 -4.1066 -2.6074 6.2756 36.2899 3.0153
# 6 7.5104 10.6737 7.1737 -6.7565 3.0153 32.5393
#
#
#
# Elastic Compliance Matrix: (Units=1/GPa)
#
#
# Indices 1 2 3 4 5 6 
#
# 1 0.015851 -0.002948 0.001442 -0.004038 0.004982 -0.004310
# 2 -0.002948 0.016429 0.003108 -0.000040 0.001779 -0.005567
# 3 0.001442 0.003108 0.022349 -0.010127 0.004820 -0.008829
# 4 -0.004038 -0.000040 -0.010127 0.044840 -0.010664 0.013476
# 5 0.004982 0.001779 0.004820 -0.010664 0.031916 -0.007968
# 6 -0.004310 -0.005567 -0.008829 0.013476 -0.007968 0.039036
#
#
# Mechanical properties :
#
#
# Convention : Reuss Voigt Hill
#
# Bulk Modulus (GPa) = 17.29080 23.37703 20.33391
# Shear Modulus (GPa) = 26.81045 31.81518 29.31281
#
# Velocity S-wave (km/s) = 3.40201 3.70596 3.55723
# Velocity P-wave (km/s) = 4.78495 5.32951 5.06455
#
# Compressibility (1/GPa) = 0.05783423
#
# Stress axis : x y z
#
# Youngs Moduli (GPa) = 63.08658 60.86709 44.74423
#
# Poissons Ratio (x) = 0.17945 -0.06453
# Poissons Ratio (y) = 0.18599 -0.13908
# Poissons Ratio (z) = -0.09098 -0.18919
#
# Static dielectric constant tensor:
#      x y z
#    x 1.840350 0.001490 0.012830 
#    y 0.001490 1.921010 0.010770 
#    z 0.012830 0.010770 1.845280 
# 
# From -- ./inp_files/4478.got.cif
#   From: 2010.05.17/outbox.cif.g08.bks.cpg/sg1_3_cif.got.tgz:4478.got - 2010.05.17 20:27:59.
