data_PCOD9000996
_publ_section_title
;
Structure prediction by ZEFSAII (Michael W. Deem and Ramdas Pophale) SiO2 
 PCOD9000996
Probable space group: P -1
;
_chemical_formula_sum "Si O2"
_cell_formula_units_Z 14
_cell_length_a 16.754903
_cell_length_b 5.042425
_cell_length_c 11.010189
_cell_angle_alpha 90.380357
_cell_angle_beta 48.972153
_cell_angle_gamma 97.255360
_cell_volume 692.491083
_symmetry_space_group_name_H-M "P -1"
_symmetry_group_IT_number 2
_symmetry_cell_setting 'triclinic'
loop_
_space_group_symop_operation_xyz
x,y,z
-x,-y,-z
loop_
_atom_site_type_symbol
_atom_site_label
_atom_site_fract_x
_atom_site_fract_y
_atom_site_fract_z
Si Si1 0.118075 0.329363 0.796840
Si Si2 0.820353 0.207633 0.870143
Si Si3 0.049401 0.543479 0.617853
Si Si4 0.382380 0.138311 0.188177
Si Si5 0.392596 0.639517 0.013175
Si Si6 0.853003 0.906381 0.586940
Si Si7 0.862052 0.160438 0.091739
O O1 0.114666 0.462480 0.669189
O O2 0.171547 0.560031 0.835077
O O3 0.165317 0.061461 0.777426
O O4 0.991441 0.238660 0.952801
O O5 0.711117 0.325916 0.959926
O O6 0.925282 0.437614 0.767531
O O7 0.836411 0.018510 0.738604
O O8 0.820523 0.066429 0.000106
O O9 0.091959 0.357809 0.471361
O O10 0.076415 0.854257 0.557839
O O11 0.264734 0.148296 0.355705
O O12 0.385351 0.837945 0.136906
O O13 0.489354 0.248797 0.156530
O O14 0.389339 0.340164 0.065462
#
# Coordination Sequence:
#
# PCOD9000996 Si02
#       7
#     2   2   2   2   2   2   2
#     4   9  18  33  47  67  93 132 173 199 235 284
#     4  10  21  33  51  79 106 129 161 207 261 297
#     4  11  22  33  50  73 107 140 164 195 242 308
#     4   9  18  33  49  68  97 134 170 197 236 292
#     4   9  18  32  50  70  97 129 165 209 243 285
#     4  11  21  33  49  75 107 138 161 194 246 312
#     4   9  18  31  50  68  94 126 166 213 242 278
#
# _framework density 20.21687
#
# number of rings (size 3 to 8) (size 9 to 14) (size 15 to 20)
#    0.000    2.286    0.000    3.429    0.000    9.143 
#    0.000    0.000    0.000    0.000    0.000    6.000 
#    0.000    0.000    0.000    0.000    0.000    0.000 
#
# Total GULP energy -78111.853628 kJ/mol
# GULP energy per Si atom -5579.418116 kJ/mol
# Density = 2.017086 g / cm^3
# Si number density = 20.216870 Si / 1000 Ang^3
#
#
#
# Elastic Constant Matrix: (Units=GPa)
#
#
# Indices 1 2 3 4 5 6 
#
# 1 91.5208 12.7762 32.1663 1.4232 -13.3838 -3.8277
# 2 12.7762 63.7437 5.0577 -8.9912 4.3397 -13.2985
# 3 32.1663 5.0577 32.3213 -6.6407 -5.8384 8.3999
# 4 1.4232 -8.9912 -6.6407 16.2086 -1.8590 1.3469
# 5 -13.3838 4.3397 -5.8384 -1.8590 50.3127 2.5739
# 6 -3.8277 -13.2985 8.3999 1.3469 2.5739 22.6774
#
#
#
# Elastic Compliance Matrix: (Units=1/GPa)
#
#
# Indices 1 2 3 4 5 6 
#
# 1 0.022159 -0.001516 -0.028396 -0.015429 0.001438 0.014123
# 2 -0.001516 0.020396 -0.003850 0.008453 -0.002960 0.012965
# 3 -0.028396 -0.003850 0.078262 0.036239 0.005183 -0.038780
# 4 -0.015429 0.008453 0.036239 0.084335 0.003330 -0.016457
# 5 0.001438 -0.002960 0.005183 0.003330 0.021548 -0.006056
# 6 0.014123 0.012965 -0.038780 -0.016457 -0.006056 0.070112
#
#
# Mechanical properties :
#
#
# Convention : Reuss Voigt Hill
#
# Bulk Modulus (GPa) = 18.76453 31.95402 25.35928
# Shear Modulus (GPa) = 13.08553 27.01214 20.04884
#
# Velocity S-wave (km/s) = 2.54689 3.65926 3.15252
# Velocity P-wave (km/s) = 4.23682 5.80461 5.08154
#
# Compressibility (1/GPa) = 0.05329204
#
# Stress axis : x y z
#
# Youngs Moduli (GPa) = 45.12788 49.02990 12.77759
#
# Poissons Ratio (x) = 0.07434 0.36284
# Poissons Ratio (y) = 0.06842 0.04919
# Poissons Ratio (z) = 1.28147 0.18876
#
# Static dielectric constant tensor:
#      x y z
#    x 1.769420 0.026000 -0.009930 
#    y 0.026000 1.740160 0.013530 
#    z -0.009930 0.013530 1.742230 
# 
# From -- ./inp_files/79692.got.cif
#   From: 2010.05.17/outbox.cif.g08.bks.cpg/sg2_40_cif.got.tgz:79692.got - 2010.06.03 11:33:40.
