data_PCOD9000199
_publ_section_title
;
Structure prediction by ZEFSAII (Michael W. Deem and Ramdas Pophale) SiO2 
 PCOD9000199
Probable space group: P 1
;
_chemical_formula_sum "Si O2"
_cell_formula_units_Z 8
_cell_length_a 10.880715
_cell_length_b 7.194252
_cell_length_c 7.370080
_cell_angle_alpha 59.127749
_cell_angle_beta 44.198597
_cell_angle_gamma 62.052724
_cell_volume 340.280090
_symmetry_space_group_name_H-M "P 1"
_symmetry_group_IT_number 1
_symmetry_cell_setting 'triclinic'
loop_
_space_group_symop_operation_xyz
x,y,z
loop_
_atom_site_type_symbol
_atom_site_label
_atom_site_fract_x
_atom_site_fract_y
_atom_site_fract_z
Si Si1 0.411350 0.683610 0.878900
Si Si2 0.934112 0.462608 0.645115
Si Si3 0.138120 0.028828 0.574174
Si Si4 0.833635 0.926680 0.729110
Si Si5 0.514847 0.777251 0.318410
Si Si6 0.544962 0.395468 0.180778
Si Si7 0.650590 0.026657 0.525843
Si Si8 0.024008 0.778640 0.128503
O O1 0.482151 0.675032 0.600979
O O2 0.542044 0.827747 0.763146
O O3 0.426572 0.465363 0.093611
O O4 0.205029 0.798130 0.036912
O O5 0.911743 0.687585 0.674551
O O6 0.975400 0.547774 0.358638
O O7 0.747181 0.378595 0.903001
O O8 0.082612 0.251876 0.636063
O O9 0.347691 0.967386 0.356860
O O10 0.000706 0.040292 0.548148
O O11 0.083325 0.819786 0.843209
O O12 0.705475 0.079286 0.645212
O O13 0.700193 0.870168 0.056513
O O14 0.513712 0.593121 0.259909
O O15 0.537844 0.187491 0.420500
O O16 0.846759 0.949589 0.272163
#
# Coordination Sequence:
#
# PCOD9000199 Si02
#       8
#     1   1   1   1   1   1   1   1
#     4  11  23  43  71  93 141 179 217 295 334 403
#     4  10  22  43  68  96 132 184 221 275 350 396
#     4  11  23  45  66 100 139 178 225 290 338 405
#     4  10  23  43  70  98 140 176 232 286 331 419
#     4  10  24  44  65 103 136 172 237 279 339 413
#     4  11  23  44  68  97 140 177 227 280 344 404
#     4  11  22  44  66  99 134 179 226 276 345 404
#     4  10  22  42  68  98 132 175 233 273 341 410
#
# _framework density 23.510044000000001
#
# number of rings (size 3 to 8) (size 9 to 14) (size 15 to 20)
#    0.000    1.500    5.000    0.750    3.500    3.000 
#    6.750    0.000    0.000    0.000    0.000    0.000 
#    0.000    0.000    0.000    0.000    0.000    0.000 
#
# Total GULP energy -44636.132648 kJ/mol
# GULP energy per Si atom -5579.516581 kJ/mol
# Density = 2.345653 g / cm^3
# Si number density = 23.510044 Si / 1000 Ang^3
#
#
#
# Elastic Constant Matrix: (Units=GPa)
#
#
# Indices 1 2 3 4 5 6 
#
# 1 94.3073 29.2836 36.0518 4.7864 10.4158 -25.0061
# 2 29.2836 98.8026 28.2506 0.1086 -5.0553 -18.9190
# 3 36.0518 28.2506 74.0114 -18.7539 1.5949 -4.7242
# 4 4.7864 0.1086 -18.7539 34.3957 -17.5268 -0.1049
# 5 10.4158 -5.0553 1.5949 -17.5268 36.4711 -1.8237
# 6 -25.0061 -18.9190 -4.7242 -0.1049 -1.8237 30.8191
#
#
#
# Elastic Compliance Matrix: (Units=1/GPa)
#
#
# Indices 1 2 3 4 5 6 
#
# 1 0.022437 -0.000478 -0.013965 -0.017609 -0.013580 0.014907
# 2 -0.000478 0.013053 -0.004769 -0.001692 0.001691 0.006988
# 3 -0.013965 -0.004769 0.027172 0.023307 0.012877 -0.009251
# 4 -0.017609 -0.001692 0.023307 0.060766 0.032496 -0.009624
# 5 -0.013580 0.001691 0.012877 0.032496 0.046328 -0.005155
# 6 0.014907 0.006988 -0.009251 -0.009624 -0.005155 0.047077
#
#
# Mechanical properties :
#
#
# Convention : Reuss Voigt Hill
#
# Bulk Modulus (GPa) = 41.25610 50.47703 45.86657
# Shear Modulus (GPa) = 18.98731 31.90622 25.44677
#
# Velocity S-wave (km/s) = 2.84496 3.68792 3.29352
# Velocity P-wave (km/s) = 5.32711 6.29693 5.83222
#
# Compressibility (1/GPa) = 0.02423884
#
# Stress axis : x y z
#
# Youngs Moduli (GPa) = 44.56976 76.61164 36.80313
#
# Poissons Ratio (x) = 0.03662 0.51394
# Poissons Ratio (y) = 0.02131 0.17550
# Poissons Ratio (z) = 0.62240 0.36533
#
# Static dielectric constant tensor:
#      x y z
#    x 1.947410 -0.014800 0.055560 
#    y -0.014800 1.916750 -0.007830 
#    z 0.055560 -0.007830 1.883400 
# 
# From -- ./inp_files/5331.got.cif
#   From: 2010.05.17/outbox.cif.g08.bks.cpg/sg1_3_cif.got.tgz:5331.got - 2010.05.17 20:27:59.
