data_PCOD9000974
_publ_section_title
;
Structure prediction by ZEFSAII (Michael W. Deem and Ramdas Pophale) SiO2 
 PCOD9000974
Probable space group: P 1
;
_chemical_formula_sum "Si O2"
_cell_formula_units_Z 8
_cell_length_a 8.946790
_cell_length_b 7.598857
_cell_length_c 5.542675
_cell_angle_alpha 120.801869
_cell_angle_beta 98.377026
_cell_angle_gamma 91.461976
_cell_volume 317.984392
_symmetry_space_group_name_H-M "P 1"
_symmetry_group_IT_number 1
_symmetry_cell_setting 'triclinic'
loop_
_space_group_symop_operation_xyz
x,y,z
loop_
_atom_site_type_symbol
_atom_site_label
_atom_site_fract_x
_atom_site_fract_y
_atom_site_fract_z
Si Si1 0.877700 0.106930 0.682340
Si Si2 0.453515 0.613152 0.646632
Si Si3 0.810414 0.158082 0.195107
Si Si4 0.798144 0.657493 0.836993
Si Si5 0.959656 0.663274 0.376012
Si Si6 0.281228 0.289719 0.662164
Si Si7 0.545925 0.057690 0.768927
Si Si8 0.200128 0.365363 0.200622
O O1 0.871604 0.226991 0.516616
O O2 0.694298 0.020591 0.614563
O O3 0.969040 0.911073 0.550375
O O4 0.911528 0.221965 0.027035
O O5 0.621606 0.575899 0.736227
O O6 0.343876 0.529087 0.783293
O O7 0.379571 0.461779 0.314849
O O8 0.467028 0.847234 0.722106
O O9 0.639324 0.187951 0.096757
O O10 0.809295 0.908441 0.024619
O O11 0.867569 0.604430 0.558730
O O12 0.875955 0.600580 0.061631
O O13 0.116502 0.568410 0.357982
O O14 0.423109 0.165558 0.667039
O O15 0.196481 0.225305 0.344011
O O16 0.177607 0.275645 0.864770
#
# Coordination Sequence:
#
# PCOD9000974 Si02
#       8
#     1   1   1   1   1   1   1   1
#     4   8  15  26  50  80  96 137 188 216 271 319
#     4   9  21  37  58  93 107 150 198 238 280 336
#     4   7  14  23  44  77  98 122 173 225 260 305
#     4   9  17  29  56  82 105 142 198 226 272 336
#     4  10  17  33  55  82 112 151 186 228 285 349
#     4  10  23  36  54  88 120 148 189 234 293 337
#     4   9  18  35  58  83 113 148 185 246 277 334
#     4  10  23  37  53  87 125 146 189 235 290 344
#
# _framework density 25.158467999999999
#
# number of rings (size 3 to 8) (size 9 to 14) (size 15 to 20)
#    1.500    1.500    1.250    0.750    3.500    1.000 
#    0.000    0.000    0.000    3.000    6.500    0.000 
#    0.000    0.000    0.000    0.000    0.000    0.000 
#
# Total GULP energy -44650.859892 kJ/mol
# GULP energy per Si atom -5581.357486 kJ/mol
# Density = 2.510121 g / cm^3
# Si number density = 25.158468 Si / 1000 Ang^3
#
#
#
# Elastic Constant Matrix: (Units=GPa)
#
#
# Indices 1 2 3 4 5 6 
#
# 1 75.7714 48.4682 39.2509 -12.9784 -5.5756 -22.3737
# 2 48.4682 148.2489 59.1145 -40.5087 -1.0776 -15.7145
# 3 39.2509 59.1145 194.5926 -46.3827 1.3659 -10.4132
# 4 -12.9784 -40.5087 -46.3827 52.5969 -5.5623 7.2279
# 5 -5.5756 -1.0776 1.3659 -5.5623 36.5854 -10.6380
# 6 -22.3737 -15.7145 -10.4132 7.2279 -10.6380 57.1437
#
#
#
# Elastic Compliance Matrix: (Units=1/GPa)
#
#
# Indices 1 2 3 4 5 6 
#
# 1 0.019971 -0.005233 -0.002522 -0.001790 0.004756 0.007033
# 2 -0.005233 0.010411 -0.000627 0.006225 0.000479 0.000002
# 3 -0.002522 -0.000627 0.007043 0.005176 -0.000035 -0.000538
# 4 -0.001790 0.006225 0.005176 0.028458 0.003770 -0.000944
# 5 0.004756 0.000479 -0.000035 0.003770 0.030751 0.007236
# 6 0.007033 0.000002 -0.000538 -0.000944 0.007236 0.021622
#
#
# Mechanical properties :
#
#
# Convention : Reuss Voigt Hill
#
# Bulk Modulus (GPa) = 48.39848 79.14223 63.77036
# Shear Modulus (GPa) = 35.23435 47.38385 41.30910
#
# Velocity S-wave (km/s) = 3.74638 4.34454 4.05650
# Velocity P-wave (km/s) = 6.16385 7.52944 6.88061
#
# Compressibility (1/GPa) = 0.02066180
#
# Stress axis : x y z
#
# Youngs Moduli (GPa) = 50.07155 96.05606 141.97632
#
# Poissons Ratio (x) = 0.50262 0.35813
# Poissons Ratio (y) = 0.26200 0.08898
# Poissons Ratio (z) = 0.12631 0.06020
#
# Static dielectric constant tensor:
#      x y z
#    x 2.034360 0.016400 -0.009820 
#    y 0.016400 1.953060 -0.005830 
#    z -0.009820 -0.005830 2.070210 
# 
# From -- ./inp_files/1254.got.cif
#   From: 2010.05.17/outbox.cif.g08.bks.cpg/sg1_1_cif.got.tgz:1254.got - 2010.05.17 20:27:59.
