data_PCOD9000898
_publ_section_title
;
Structure prediction by ZEFSAII (Michael W. Deem and Ramdas Pophale) SiO2 
 PCOD9000898
Probable space group: P 1
;
_chemical_formula_sum "Si O2"
_cell_formula_units_Z 8
_cell_length_a 7.538612
_cell_length_b 9.429388
_cell_length_c 7.137247
_cell_angle_alpha 102.694396
_cell_angle_beta 73.905228
_cell_angle_gamma 51.831933
_cell_volume 327.886691
_symmetry_space_group_name_H-M "P 1"
_symmetry_group_IT_number 1
_symmetry_cell_setting 'triclinic'
loop_
_space_group_symop_operation_xyz
x,y,z
loop_
_atom_site_type_symbol
_atom_site_label
_atom_site_fract_x
_atom_site_fract_y
_atom_site_fract_z
Si Si1 0.296560 0.802390 0.273020
Si Si2 0.913798 0.260964 0.682670
Si Si3 0.775529 0.831489 0.973153
Si Si4 0.228609 0.086992 0.032062
Si Si5 0.920403 0.488308 0.053302
Si Si6 0.185360 0.623633 0.510196
Si Si7 0.724904 0.200965 0.085052
Si Si8 0.442319 0.687060 0.761137
O O1 0.603595 0.628712 0.213718
O O2 0.132753 0.761502 0.394787
O O3 0.330137 0.756537 0.028481
O O4 0.129812 0.036915 0.455653
O O5 0.757439 0.246167 0.876373
O O6 0.728838 0.450293 0.642725
O O7 0.013676 0.336217 0.805109
O O8 0.465517 0.965485 0.078925
O O9 0.929427 0.696634 0.698563
O O10 0.790300 0.995113 0.024479
O O11 0.910549 0.661574 0.049032
O O12 0.130506 0.308572 0.088835
O O13 0.939137 0.171913 0.134568
O O14 0.382587 0.889284 0.780479
O O15 0.297892 0.663732 0.653698
O O16 0.429310 0.387521 0.304437
#
# Coordination Sequence:
#
# PCOD9000898 Si02
#       8
#     1   1   1   1   1   1   1   1
#     4  11  21  44  76 107 144 205 244 301 375 454
#     4  10  20  41  75 103 145 195 248 294 369 450
#     4  12  25  45  72 113 149 190 252 314 363 442
#     4  11  22  49  73 102 151 199 241 300 377 445
#     4  10  23  44  70 109 153 188 253 307 367 447
#     4  12  24  45  74 107 153 191 246 314 366 442
#     4  11  24  47  72 107 152 194 243 308 370 445
#     4  11  23  41  76 106 141 200 249 288 381 437
#
# _framework density 24.398672000000001
#
# number of rings (size 3 to 8) (size 9 to 14) (size 15 to 20)
#    0.000    1.000    8.750    0.750    1.750    2.000 
#    2.250    0.000    0.000    0.000    0.000    0.000 
#    0.000    0.000    0.000    0.000    0.000    0.000 
#
# Total GULP energy -44615.584962 kJ/mol
# GULP energy per Si atom -5576.948120 kJ/mol
# Density = 2.434314 g / cm^3
# Si number density = 24.398672 Si / 1000 Ang^3
#
#
#
# Elastic Constant Matrix: (Units=GPa)
#
#
# Indices 1 2 3 4 5 6 
#
# 1 58.8020 30.4381 26.1273 1.9166 0.1047 3.6485
# 2 30.4381 176.9124 54.8612 43.4704 -13.9267 11.2456
# 3 26.1273 54.8612 147.6395 28.6025 -13.5465 0.2685
# 4 1.9166 43.4704 28.6025 49.7448 2.4877 -3.9441
# 5 0.1047 -13.9267 -13.5465 2.4877 31.9275 -0.4144
# 6 3.6485 11.2456 0.2685 -3.9441 -0.4144 39.3377
#
#
#
# Elastic Compliance Matrix: (Units=1/GPa)
#
#
# Indices 1 2 3 4 5 6 
#
# 1 0.020398 -0.003869 -0.003412 0.004710 -0.003573 -0.000328
# 2 -0.003869 0.008955 -0.000770 -0.007673 0.004152 -0.002921
# 3 -0.003412 -0.000770 0.008880 -0.004486 0.003793 0.000066
# 4 0.004710 -0.007673 -0.004486 0.029956 -0.007539 0.004711
# 5 -0.003573 0.004152 0.003793 -0.007539 0.035324 -0.001265
# 6 -0.000328 -0.002921 0.000066 0.004711 -0.001265 0.026745
#
#
# Mechanical properties :
#
#
# Convention : Reuss Voigt Hill
#
# Bulk Modulus (GPa) = 45.18508 67.35635 56.27071
# Shear Modulus (GPa) = 32.52284 42.33048 37.42666
#
# Velocity S-wave (km/s) = 3.65496 4.16979 3.92083
# Velocity P-wave (km/s) = 6.03086 7.13088 6.60381
#
# Compressibility (1/GPa) = 0.02213120
#
# Stress axis : x y z
#
# Youngs Moduli (GPa) = 49.02387 111.67033 112.60993
#
# Poissons Ratio (x) = 0.43208 0.38420
# Poissons Ratio (y) = 0.18969 0.08672
# Poissons Ratio (z) = 0.16726 0.08599
#
# Static dielectric constant tensor:
#      x y z
#    x 1.958660 0.031830 -0.020720 
#    y 0.031830 2.132590 -0.057300 
#    z -0.020720 -0.057300 1.958970 
# 
# From -- ./inp_files/4309.got.cif
#   From: 2010.05.17/outbox.cif.g08.bks.cpg/sg1_3_cif.got.tgz:4309.got - 2010.05.17 20:27:59.
