data_PCOD9000337
_publ_section_title
;
Structure prediction by ZEFSAII (Michael W. Deem and Ramdas Pophale) SiO2 
 PCOD9000337
Probable space group: P 1
;
_chemical_formula_sum "Si O2"
_cell_formula_units_Z 6
_cell_length_a 5.037911
_cell_length_b 6.392236
_cell_length_c 9.183919
_cell_angle_alpha 103.449821
_cell_angle_beta 70.993803
_cell_angle_gamma 102.354809
_cell_volume 268.872086
_symmetry_space_group_name_H-M "P 1"
_symmetry_group_IT_number 1
_symmetry_cell_setting 'triclinic'
loop_
_space_group_symop_operation_xyz
x,y,z
loop_
_atom_site_type_symbol
_atom_site_label
_atom_site_fract_x
_atom_site_fract_y
_atom_site_fract_z
Si Si1 0.097540 0.509660 0.857720
Si Si2 0.658614 0.935083 0.254853
Si Si3 0.710886 0.620370 0.693958
Si Si4 0.110511 0.299789 0.123408
Si Si5 0.467578 0.923893 0.967991
Si Si6 0.068983 0.721933 0.360293
O O1 0.392705 0.489972 0.717825
O O2 0.190474 0.747267 0.953385
O O3 0.855011 0.513277 0.784777
O O4 0.033109 0.348693 0.978553
O O5 0.338736 0.908083 0.370140
O O6 0.845894 0.802928 0.301738
O O7 0.844977 0.170189 0.237347
O O8 0.601939 0.863444 0.085590
O O9 0.671603 0.865827 0.793364
O O10 0.902178 0.641103 0.522066
O O11 0.194446 0.521807 0.231452
O O12 0.358334 0.151604 0.043885
#
# Coordination Sequence:
#
# PCOD9000337 Si02
#       6
#     1   1   1   1   1   1
#     4  10  23  45  70  94 136 176 224 272 329 399
#     4  12  25  45  69 103 132 182 220 275 336 397
#     4  10  23  47  66  97 138 180 209 284 339 380
#     4  12  24  43  74 101 129 179 229 273 329 399
#     4  10  23  44  66 104 126 177 228 264 332 393
#     4  12  26  46  69  97 145 170 222 280 333 400
#
# _framework density 22.315446000000001
#
# number of rings (size 3 to 8) (size 9 to 14) (size 15 to 20)
#    1.000    0.000    3.333    3.000    4.667    0.000 
#    3.000    0.000    0.000    0.000    0.000    0.000 
#    0.000    0.000    0.000    0.000    0.000    0.000 
#
# Total GULP energy -33487.252566 kJ/mol
# GULP energy per Si atom -5581.208761 kJ/mol
# Density = 2.226465 g / cm^3
# Si number density = 22.315446 Si / 1000 Ang^3
#
#
#
# Elastic Constant Matrix: (Units=GPa)
#
#
# Indices 1 2 3 4 5 6 
#
# 1 110.0782 36.9446 8.8799 -4.4128 -5.5055 -20.7535
# 2 36.9446 79.7936 47.5245 -16.1598 -1.0987 -14.0358
# 3 8.8799 47.5245 88.7983 -18.0367 -18.1169 -19.5450
# 4 -4.4128 -16.1598 -18.0367 22.9364 1.8876 2.0440
# 5 -5.5055 -1.0987 -18.1169 1.8876 31.1959 -9.7437
# 6 -20.7535 -14.0358 -19.5450 2.0440 -9.7437 35.7235
#
#
#
# Elastic Compliance Matrix: (Units=1/GPa)
#
#
# Indices 1 2 3 4 5 6 
#
# 1 0.014508 -0.009412 0.008875 0.001091 0.011250 0.012592
# 2 -0.009412 0.026177 -0.016385 0.005542 -0.013101 -0.008038
# 3 0.008875 -0.016385 0.031461 0.010814 0.025567 0.022286
# 4 0.001091 0.005542 0.010814 0.055129 0.005545 0.007086
# 5 0.011250 -0.013101 0.025567 0.005545 0.057712 0.030800
# 6 0.012592 -0.008038 0.022286 0.007086 0.030800 0.052338
#
#
# Mechanical properties :
#
#
# Convention : Reuss Voigt Hill
#
# Bulk Modulus (GPa) = 26.10861 51.70755 38.90808
# Shear Modulus (GPa) = 17.60955 30.32590 23.96772
#
# Velocity S-wave (km/s) = 2.81217 3.69041 3.28081
# Velocity P-wave (km/s) = 4.71907 6.43276 5.64136
#
# Compressibility (1/GPa) = 0.03830154
#
# Stress axis : x y z
#
# Youngs Moduli (GPa) = 68.92797 38.20136 31.78533
#
# Poissons Ratio (x) = 0.35956 -0.28210
# Poissons Ratio (y) = 0.64877 0.52080
# Poissons Ratio (z) = -0.61174 0.62593
#
# Static dielectric constant tensor:
#      x y z
#    x 1.844670 0.012380 -0.040640 
#    y 0.012380 1.841830 0.022360 
#    z -0.040640 0.022360 1.799510 
# 
# From -- ./inp_files/140.got.cif
#   From: 2010.05.17/outbox.cif.g08.bks.cpg/sg1_1_cif.got.tgz:140.got - 2010.05.17 20:27:59.
