data_PCOD9000680
_publ_section_title
;
Structure prediction by ZEFSAII (Michael W. Deem and Ramdas Pophale) SiO2 
 PCOD9000680
Probable space group: P 1
;
_chemical_formula_sum "Si O2"
_cell_formula_units_Z 8
_cell_length_a 8.433934
_cell_length_b 7.719490
_cell_length_c 9.570484
_cell_angle_alpha 46.168353
_cell_angle_beta 46.478336
_cell_angle_gamma 52.029050
_cell_volume 314.319935
_symmetry_space_group_name_H-M "P 1"
_symmetry_group_IT_number 1
_symmetry_cell_setting 'triclinic'
loop_
_space_group_symop_operation_xyz
x,y,z
loop_
_atom_site_type_symbol
_atom_site_label
_atom_site_fract_x
_atom_site_fract_y
_atom_site_fract_z
Si Si1 0.078610 0.817060 0.722460
Si Si2 0.474372 0.127380 0.528100
Si Si3 0.472743 0.962705 0.296665
Si Si4 0.916453 0.631896 0.284809
Si Si5 0.763877 0.715650 0.753843
Si Si6 0.266908 0.332569 0.014757
Si Si7 0.953099 0.029099 0.254870
Si Si8 0.969868 0.284520 0.713483
O O1 0.856183 0.759864 0.823898
O O2 0.217195 0.936443 0.460588
O O3 0.008405 0.004452 0.790348
O O4 0.269549 0.566220 0.787443
O O5 0.479523 0.039840 0.412251
O O6 0.704843 0.217546 0.337018
O O7 0.221806 0.291464 0.609284
O O8 0.531788 0.898077 0.733251
O O9 0.481286 0.160684 0.060353
O O10 0.681469 0.723397 0.293790
O O11 0.107443 0.474593 0.157019
O O12 0.896512 0.450790 0.525900
O O13 0.968351 0.879117 0.183781
O O14 0.799394 0.426984 0.856988
O O15 0.938039 0.810547 0.493977
O O16 0.147356 0.160974 0.092045
#
# Coordination Sequence:
#
# PCOD9000680 Si02
#       8
#     1   1   1   1   1   1   1   1
#     4  11  23  38  61  91 122 155 191 245 299 348
#     4   8  16  33  62  84 108 155 199 230 292 342
#     4  10  19  41  60  87 118 156 202 235 294 351
#     4  10  20  38  67  84 113 164 197 239 296 344
#     4   9  18  37  57  86 114 154 194 240 288 344
#     4  12  22  40  60  89 126 151 192 251 290 351
#     4   8  18  36  57  85 113 155 197 231 291 346
#     4  10  18  37  62  86 112 158 200 235 294 350
#
# _framework density 25.451775000000001
#
# number of rings (size 3 to 8) (size 9 to 14) (size 15 to 20)
#    0.750    1.500    5.000    0.000    0.000    2.000 
#    2.250    5.000    0.000    0.000    0.000    0.000 
#    0.000    0.000    0.000    0.000    0.000    0.000 
#
# Total GULP energy -44612.881060 kJ/mol
# GULP energy per Si atom -5576.610132 kJ/mol
# Density = 2.539385 g / cm^3
# Si number density = 25.451775 Si / 1000 Ang^3
#
#
#
# Elastic Constant Matrix: (Units=GPa)
#
#
# Indices 1 2 3 4 5 6 
#
# 1 121.4494 50.4392 17.9843 -16.1380 5.8058 -11.1265
# 2 50.4392 104.7338 26.5131 -20.9645 3.4620 -20.9437
# 3 17.9843 26.5131 59.4684 -18.5089 6.8509 3.1820
# 4 -16.1380 -20.9645 -18.5089 35.6585 -1.9275 9.4664
# 5 5.8058 3.4620 6.8509 -1.9275 32.9704 -13.8947
# 6 -11.1265 -20.9437 3.1820 9.4664 -13.8947 53.5159
#
#
#
# Elastic Compliance Matrix: (Units=1/GPa)
#
#
# Indices 1 2 3 4 5 6 
#
# 1 0.010480 -0.004588 -0.000390 0.001841 -0.001281 -0.000252
# 2 -0.004588 0.014467 -0.004805 0.002697 0.002637 0.005201
# 3 -0.000390 -0.004805 0.023549 0.010716 -0.006635 -0.006980
# 4 0.001841 0.002697 0.010716 0.037631 -0.003483 -0.006760
# 5 -0.001281 0.002637 -0.006635 -0.003483 0.036159 0.011164
# 6 -0.000252 0.005201 -0.006980 -0.006760 0.011164 0.025179
#
#
# Mechanical properties :
#
#
# Convention : Reuss Voigt Hill
#
# Bulk Modulus (GPa) = 34.56636 52.83607 43.70122
# Shear Modulus (GPa) = 28.30093 37.14329 32.72211
#
# Velocity S-wave (km/s) = 3.33820 3.82430 3.58949
# Velocity P-wave (km/s) = 5.33561 6.34860 5.86402
#
# Compressibility (1/GPa) = 0.02892986
#
# Stress axis : x y z
#
# Youngs Moduli (GPa) = 95.42198 69.12510 42.46468
#
# Poissons Ratio (x) = 0.31713 0.01656
# Poissons Ratio (y) = 0.43778 0.20404
# Poissons Ratio (z) = 0.03721 0.33215
#
# Static dielectric constant tensor:
#      x y z
#    x 2.064360 -0.019930 0.012340 
#    y -0.019930 1.984010 -0.029900 
#    z 0.012340 -0.029900 2.062410 
# 
# From -- ./inp_files/5344.got.cif
#   From: 2010.05.17/outbox.cif.g08.bks.cpg/sg1_3_cif.got.tgz:5344.got - 2010.05.17 20:27:59.
