data_PCOD9000780
_publ_section_title
;
Structure prediction by ZEFSAII (Michael W. Deem and Ramdas Pophale) SiO2 
 PCOD9000780
Probable space group: P 1
;
_chemical_formula_sum "Si O2"
_cell_formula_units_Z 8
_cell_length_a 7.979575
_cell_length_b 5.147204
_cell_length_c 13.759899
_cell_angle_alpha 110.412477
_cell_angle_beta 137.642926
_cell_angle_gamma 89.381086
_cell_volume 328.443217
_symmetry_space_group_name_H-M "P 1"
_symmetry_group_IT_number 1
_symmetry_cell_setting 'triclinic'
loop_
_space_group_symop_operation_xyz
x,y,z
loop_
_atom_site_type_symbol
_atom_site_label
_atom_site_fract_x
_atom_site_fract_y
_atom_site_fract_z
Si Si1 0.455160 0.622880 0.620000
Si Si2 0.161554 0.626801 0.091976
Si Si3 0.284498 0.146022 0.855068
Si Si4 0.537461 0.301015 0.786613
Si Si5 0.844494 0.529579 0.503974
Si Si6 0.817694 0.336572 0.668049
Si Si7 0.461486 0.174731 0.145987
Si Si8 0.366484 0.718233 0.396100
O O1 0.370276 0.408968 0.650328
O O2 0.266986 0.548764 0.433241
O O3 0.498020 0.955162 0.714785
O O4 0.738814 0.616355 0.697607
O O5 0.184428 0.722335 0.228274
O O6 0.845864 0.501458 0.918923
O O7 0.337528 0.893770 0.129991
O O8 0.096707 0.833289 0.680334
O O9 0.475358 0.341924 0.877138
O O10 0.432136 0.096251 0.008265
O O11 0.081153 0.306557 0.818323
O O12 0.846003 0.302239 0.559830
O O13 0.582045 0.597163 0.428704
O O14 0.760953 0.379715 0.343254
O O15 0.276502 0.366869 0.103249
O O16 0.548519 0.060123 0.547356
#
# Coordination Sequence:
#
# PCOD9000780 Si02
#       8
#     1   1   1   1   1   1   1   1
#     4  11  23  42  68  94 131 178 226 268 330 399
#     4  11  24  41  67  99 133 170 226 281 327 399
#     4  11  27  42  68 101 142 179 219 277 342 403
#     4  12  27  43  61 104 142 173 216 272 346 406
#     4   9  21  40  69  99 132 168 234 281 323 393
#     4  10  19  41  72 100 124 174 232 278 323 398
#     4  11  24  44  71  98 128 180 231 277 326 390
#     4   9  19  39  68  99 124 168 230 282 321 386
#
# _framework density 24.357329
#
# number of rings (size 3 to 8) (size 9 to 14) (size 15 to 20)
#    0.000    1.500    2.500    1.500   12.250    0.000 
#    2.250    0.000    0.000    0.000    0.000    0.000 
#    0.000    0.000    0.000    0.000    0.000    0.000 
#
# Total GULP energy -44660.864217 kJ/mol
# GULP energy per Si atom -5582.608027 kJ/mol
# Density = 2.430189 g / cm^3
# Si number density = 24.357329 Si / 1000 Ang^3
#
#
#
# Elastic Constant Matrix: (Units=GPa)
#
#
# Indices 1 2 3 4 5 6 
#
# 1 72.1774 22.9331 28.2838 -4.1340 -22.8530 18.7481
# 2 22.9331 110.2821 32.5390 -18.9678 -15.0840 2.2529
# 3 28.2838 32.5390 155.9437 -27.0700 -29.8002 14.2464
# 4 -4.1340 -18.9678 -27.0700 35.0220 5.4942 -12.5690
# 5 -22.8530 -15.0840 -29.8002 5.4942 18.4276 -8.4419
# 6 18.7481 2.2529 14.2464 -12.5690 -8.4419 36.2433
#
#
#
# Elastic Compliance Matrix: (Units=1/GPa)
#
#
# Indices 1 2 3 4 5 6 
#
# 1 0.025167 -0.002295 0.001450 -0.004711 0.029300 -0.008255
# 2 -0.002295 0.011461 0.000011 0.006432 0.006574 0.004232
# 3 0.001450 0.000011 0.010391 0.005935 0.017429 0.001283
# 4 -0.004711 0.006432 0.005935 0.040774 0.003589 0.014680
# 5 0.029300 0.006574 0.017429 0.003589 0.126944 0.008397
# 6 -0.008255 0.004232 0.001283 0.014680 0.008397 0.038141
#
#
# Mechanical properties :
#
#
# Convention : Reuss Voigt Hill
#
# Bulk Modulus (GPa) = 22.05090 56.21278 39.13184
# Shear Modulus (GPa) = 18.54158 34.91508 26.72833
#
# Velocity S-wave (km/s) = 2.76204 3.79020 3.31621
# Velocity P-wave (km/s) = 4.38686 6.50251 5.54650
#
# Compressibility (1/GPa) = 0.04534962
#
# Stress axis : x y z
#
# Youngs Moduli (GPa) = 39.73403 87.25473 96.23802
#
# Poissons Ratio (x) = 0.20029 -0.13952
# Poissons Ratio (y) = 0.09121 -0.00106
# Poissons Ratio (z) = -0.05760 -0.00096
#
# Static dielectric constant tensor:
#      x y z
#    x 1.967500 0.014140 -0.060520 
#    y 0.014140 2.039370 -0.031300 
#    z -0.060520 -0.031300 2.046970 
# 
# From -- ./inp_files/6235.got.cif
#   From: 2010.05.17/outbox.cif.g08.bks.cpg/sg1_4_cif.got.tgz:6235.got - 2010.05.17 20:27:59.
