data_PCOD9000702
_publ_section_title
;
Structure prediction by ZEFSAII (Michael W. Deem and Ramdas Pophale) SiO2 
 PCOD9000702
Probable space group: P 1
;
_chemical_formula_sum "Si O2"
_cell_formula_units_Z 8
_cell_length_a 13.859465
_cell_length_b 11.131865
_cell_length_c 8.912265
_cell_angle_alpha 36.818934
_cell_angle_beta 44.335548
_cell_angle_gamma 30.565099
_cell_volume 417.505690
_symmetry_space_group_name_H-M "P 1"
_symmetry_group_IT_number 1
_symmetry_cell_setting 'triclinic'
loop_
_space_group_symop_operation_xyz
x,y,z
loop_
_atom_site_type_symbol
_atom_site_label
_atom_site_fract_x
_atom_site_fract_y
_atom_site_fract_z
Si Si1 0.789160 0.012710 0.955230
Si Si2 0.168463 0.633396 0.097202
Si Si3 0.704968 0.670171 0.300505
Si Si4 0.975443 0.131006 0.048828
Si Si5 0.982179 0.124239 0.394495
Si Si6 0.252642 0.122497 0.605418
Si Si7 0.648199 0.501007 0.821638
Si Si8 0.309431 0.839709 0.536207
O O1 0.868825 0.077519 0.670399
O O2 0.663229 0.270612 0.952631
O O3 0.685064 0.926263 0.086998
O O4 0.978811 0.758912 0.090350
O O5 0.272527 0.338795 0.346523
O O6 0.294419 0.639371 0.835908
O O7 0.088796 0.857567 0.093063
O O8 0.870360 0.443255 0.230183
O O9 0.752116 0.539011 0.545723
O O10 0.515314 0.736857 0.397471
O O11 0.978792 0.073584 0.275714
O O12 0.765621 0.365206 0.978768
O O13 0.087285 0.226352 0.798794
O O14 0.192007 0.938738 0.415842
O O15 0.442307 0.809898 0.754352
O O16 0.205489 0.085566 0.528304
#
# Coordination Sequence:
#
# PCOD9000702 Si02
#       8
#     1   1   1   1   1   1   1   1
#     4   9  18  36  59  83 109 142 185 230 274 320
#     4   9  18  36  59  83 109 142 185 230 274 320
#     4  10  19  34  59  81 106 142 184 227 273 320
#     4  10  21  36  54  80 116 148 178 220 272 328
#     4  10  21  36  54  80 116 148 178 220 272 328
#     4  10  19  34  59  81 106 142 184 227 273 320
#     4   9  20  35  56  84 108 137 182 234 272 315
#     4   9  20  35  56  84 108 137 182 234 272 315
#
# _framework density 19.161415000000002
#
# number of rings (size 3 to 8) (size 9 to 14) (size 15 to 20)
#    0.000    2.500    0.000    3.750    0.000   10.000 
#    0.000    0.000    0.000    9.000    0.000    0.000 
#    0.000    0.000    0.000    0.000    0.000    0.000 
#
# Total GULP energy -44589.756395 kJ/mol
# GULP energy per Si atom -5573.719549 kJ/mol
# Density = 1.911780 g / cm^3
# Si number density = 19.161415 Si / 1000 Ang^3
#
#
#
# Elastic Constant Matrix: (Units=GPa)
#
#
# Indices 1 2 3 4 5 6 
#
# 1 121.2747 49.6096 59.1071 -3.8534 16.3146 -18.9118
# 2 49.6096 64.5897 34.6635 -16.6717 4.6864 -17.0227
# 3 59.1071 34.6635 77.6245 -14.7350 -5.8294 -2.3870
# 4 -3.8534 -16.6717 -14.7350 26.3582 8.5732 3.0428
# 5 16.3146 4.6864 -5.8294 8.5732 42.8079 1.6203
# 6 -18.9118 -17.0227 -2.3870 3.0428 1.6203 29.3994
#
#
#
# Elastic Compliance Matrix: (Units=1/GPa)
#
#
# Indices 1 2 3 4 5 6 
#
# 1 0.020084 -0.007111 -0.013912 -0.007921 -0.007521 0.008907
# 2 -0.007111 0.031691 -0.005698 0.016140 -0.005219 0.011930
# 3 -0.013912 -0.005698 0.027926 0.008534 0.008449 -0.011330
# 4 -0.007921 0.016140 0.008534 0.054553 -0.008503 -0.000235
# 5 -0.007521 -0.005219 0.008449 -0.008503 0.029952 -0.007945
# 6 0.008907 0.011930 -0.011330 -0.000235 -0.007945 0.046194
#
#
# Mechanical properties :
#
#
# Convention : Reuss Voigt Hill
#
# Bulk Modulus (GPa) = 38.08268 61.13883 49.61075
# Shear Modulus (GPa) = 18.34210 27.72034 23.03122
#
# Velocity S-wave (km/s) = 3.09729 3.80764 3.47069
# Velocity P-wave (km/s) = 5.71916 7.16292 6.48136
#
# Compressibility (1/GPa) = 0.02625866
#
# Stress axis : x y z
#
# Youngs Moduli (GPa) = 49.78984 31.55435 35.80837
#
# Poissons Ratio (x) = 0.22440 0.49817
# Poissons Ratio (y) = 0.35408 0.20404
# Poissons Ratio (z) = 0.69268 0.17980
#
# Static dielectric constant tensor:
#      x y z
#    x 1.682220 -0.037560 -0.029040 
#    y -0.037560 1.714800 -0.017750 
#    z -0.029040 -0.017750 1.678610 
# 
# From -- ./inp_files/1686.got.cif
#   From: 2010.05.17/outbox.cif.g08.bks.cpg/sg1_1_cif.got.tgz:1686.got - 2010.05.17 20:27:59.
