data_PCOD9000218
_publ_section_title
;
Structure prediction by ZEFSAII (Michael W. Deem and Ramdas Pophale) SiO2 
 PCOD9000218
Probable space group: P 1
;
_chemical_formula_sum "Si O2"
_cell_formula_units_Z 8
_cell_length_a 8.450064
_cell_length_b 7.027666
_cell_length_c 8.618925
_cell_angle_alpha 100.717443
_cell_angle_beta 67.316578
_cell_angle_gamma 56.980489
_cell_volume 340.124051
_symmetry_space_group_name_H-M "P 1"
_symmetry_group_IT_number 1
_symmetry_cell_setting 'triclinic'
loop_
_space_group_symop_operation_xyz
x,y,z
loop_
_atom_site_type_symbol
_atom_site_label
_atom_site_fract_x
_atom_site_fract_y
_atom_site_fract_z
Si Si1 0.236420 0.642470 0.434640
Si Si2 0.722057 0.337223 0.099532
Si Si3 0.162824 0.039951 0.708181
Si Si4 0.737394 0.932630 0.642580
Si Si5 0.785740 0.839637 0.976878
Si Si6 0.305216 0.128496 0.348784
Si Si7 0.939293 0.447192 0.292841
Si Si8 0.232794 0.342168 0.898346
O O1 0.441864 0.557600 0.231775
O O2 0.269235 0.389275 0.410755
O O3 0.971189 0.875960 0.513971
O O4 0.247775 0.756406 0.606916
O O5 0.807877 0.407027 0.218239
O O6 0.883012 0.258716 0.877933
O O7 0.778620 0.068198 0.069269
O O8 0.248327 0.080611 0.527480
O O9 0.260749 0.088951 0.821016
O O10 0.748646 0.865910 0.810159
O O11 0.766497 0.722551 0.490950
O O12 0.489708 0.227169 0.759961
O O13 0.034305 0.564195 0.890005
O O14 0.569572 0.898868 0.152778
O O15 0.109643 0.210285 0.313008
O O16 0.117585 0.446467 0.126026
#
# Coordination Sequence:
#
# PCOD9000218 Si02
#       8
#     1   1   1   1   1   1   1   1
#     4  10  22  43  68  96 139 179 226 280 338 408
#     4  10  23  44  68 103 138 178 229 288 343 406
#     4  11  23  41  72 102 135 186 226 280 355 404
#     4  11  22  44  72  95 140 183 225 285 342 404
#     4  11  23  46  70 100 143 185 226 282 349 412
#     4  10  23  44  71 101 139 186 228 281 348 411
#     4  10  22  44  66 101 139 174 230 292 334 408
#     4  11  24  40  71 104 135 183 232 280 347 411
#
# _framework density 23.520831999999999
#
# number of rings (size 3 to 8) (size 9 to 14) (size 15 to 20)
#    0.000    1.500    2.500    2.250    5.250    0.000 
#    4.500    1.250    2.750    0.000    0.000    0.000 
#    0.000    0.000    0.000    0.000    0.000    0.000 
#
# Total GULP energy -44715.069178 kJ/mol
# GULP energy per Si atom -5589.383647 kJ/mol
# Density = 2.346730 g / cm^3
# Si number density = 23.520832 Si / 1000 Ang^3
#
#
#
# Elastic Constant Matrix: (Units=GPa)
#
#
# Indices 1 2 3 4 5 6 
#
# 1 102.8085 33.6721 69.4871 9.3897 -20.9822 -2.7095
# 2 33.6721 66.2626 40.7868 10.6337 -11.0593 -18.5876
# 3 69.4871 40.7868 168.5225 13.2237 -28.9192 -16.4012
# 4 9.3897 10.6337 13.2237 39.0923 -6.1281 -9.5003
# 5 -20.9822 -11.0593 -28.9192 -6.1281 69.2895 12.9151
# 6 -2.7095 -18.5876 -16.4012 -9.5003 12.9151 32.2014
#
#
#
# Elastic Compliance Matrix: (Units=1/GPa)
#
#
# Indices 1 2 3 4 5 6 
#
# 1 0.015562 -0.005852 -0.005017 -0.001522 0.002697 -0.006154
# 2 -0.005852 0.022587 -0.002036 -0.001433 -0.001307 0.011610
# 3 -0.005017 -0.002036 0.009003 -0.000511 0.001448 0.002257
# 4 -0.001522 -0.001433 -0.000511 0.028257 0.000291 0.007004
# 5 0.002697 -0.001307 0.001448 0.000291 0.016877 -0.006473
# 6 -0.006154 0.011610 0.002257 0.007004 -0.006473 0.043051
#
#
# Mechanical properties :
#
#
# Convention : Reuss Voigt Hill
#
# Bulk Modulus (GPa) = 46.85379 69.49840 58.17610
# Shear Modulus (GPa) = 29.71614 41.02648 35.37131
#
# Velocity S-wave (km/s) = 3.55828 4.18097 3.88213
# Velocity P-wave (km/s) = 6.07003 7.27455 6.69941
#
# Compressibility (1/GPa) = 0.02134299
#
# Stress axis : x y z
#
# Youngs Moduli (GPa) = 64.26107 44.27382 111.06805
#
# Poissons Ratio (x) = 0.25908 0.55723
# Poissons Ratio (y) = 0.37604 0.22610
# Poissons Ratio (z) = 0.32240 0.09013
#
# Static dielectric constant tensor:
#      x y z
#    x 1.977970 0.014900 0.002220 
#    y 0.014900 1.890590 0.040530 
#    z 0.002220 0.040530 1.912470 
# 
# From -- ./inp_files/4341.got.cif
#   From: 2010.05.17/outbox.cif.g08.bks.cpg/sg1_3_cif.got.tgz:4341.got - 2010.05.17 20:27:59.
