data_PCOD9000073
_publ_section_title
;
Structure prediction by ZEFSAII (Michael W. Deem and Ramdas Pophale) SiO2 
 PCOD9000073
Probable space group: P 1
;
_chemical_formula_sum "Si O2"
_cell_formula_units_Z 8
_cell_length_a 5.658719
_cell_length_b 14.969920
_cell_length_c 11.771121
_cell_angle_alpha 152.468436
_cell_angle_beta 54.920782
_cell_angle_gamma 125.253457
_cell_volume 371.127066
_symmetry_space_group_name_H-M "P 1"
_symmetry_group_IT_number 1
_symmetry_cell_setting 'triclinic'
loop_
_space_group_symop_operation_xyz
x,y,z
loop_
_atom_site_type_symbol
_atom_site_label
_atom_site_fract_x
_atom_site_fract_y
_atom_site_fract_z
Si Si1 0.882290 0.260170 0.247240
Si Si2 0.969028 0.448948 0.950039
Si Si3 0.762372 0.928290 0.738262
Si Si4 0.125972 0.023318 0.063486
Si Si5 0.247534 0.152054 0.411266
Si Si6 0.443529 0.658084 0.239499
Si Si7 0.938807 0.664614 0.561093
Si Si8 0.867487 0.024353 0.564744
O O1 0.577533 0.188072 0.316714
O O2 0.867614 0.460787 0.415483
O O3 0.112220 0.236963 0.255694
O O4 0.949799 0.102140 0.957270
O O5 0.141462 0.357081 0.697925
O O6 0.820336 0.249623 0.833140
O O7 0.713343 0.548646 0.077452
O O8 0.217000 0.563334 0.096727
O O9 0.881486 0.944118 0.596748
O O10 0.753755 0.720184 0.567389
O O11 0.444184 0.981849 0.897690
O O12 0.072076 0.034612 0.224023
O O13 0.923468 0.839526 0.851813
O O14 0.160923 0.035539 0.420834
O O15 0.253051 0.670237 0.419850
O O16 0.601475 0.878859 0.415355
#
# Coordination Sequence:
#
# PCOD9000073 Si02
#       8
#     1   1   1   1   1   1   1   1
#     4  10  23  42  68  97 139 188 232 295 353 434
#     4  10  27  43  71 106 147 186 241 293 364 438
#     4  10  21  43  65 102 133 182 232 298 358 413
#     4  10  22  43  65  98 136 180 239 277 369 416
#     4   9  24  46  63 102 140 194 222 296 364 423
#     4  12  24  45  71 113 135 193 241 297 372 417
#     4  11  24  39  73 100 136 178 248 296 352 430
#     4  10  23  45  72 100 150 181 237 308 350 433
#
# _framework density 21.555958
#
# number of rings (size 3 to 8) (size 9 to 14) (size 15 to 20)
#    0.750    1.000    1.250    1.500    3.500    5.000 
#   11.250    0.000    0.000    0.000    0.000    0.000 
#    0.000    0.000    0.000    0.000    0.000    0.000 
#
# Total GULP energy -44551.141895 kJ/mol
# GULP energy per Si atom -5568.892737 kJ/mol
# Density = 2.150690 g / cm^3
# Si number density = 21.555958 Si / 1000 Ang^3
#
#
#
# Elastic Constant Matrix: (Units=GPa)
#
#
# Indices 1 2 3 4 5 6 
#
# 1 95.8273 31.3514 45.9423 1.6870 -15.5984 -8.2687
# 2 31.3514 125.2951 38.3779 -5.6956 -8.9321 -10.4439
# 3 45.9423 38.3779 106.8152 -10.5109 2.7194 -6.1919
# 4 1.6870 -5.6956 -10.5109 49.7556 -4.3351 1.9461
# 5 -15.5984 -8.9321 2.7194 -4.3351 32.6960 4.4198
# 6 -8.2687 -10.4439 -6.1919 1.9461 4.4198 31.1489
#
#
#
# Elastic Compliance Matrix: (Units=1/GPa)
#
#
# Indices 1 2 3 4 5 6 
#
# 1 0.015173 -0.001316 -0.006291 -0.001438 0.007018 0.001430
# 2 -0.001316 0.009478 -0.002712 0.000655 0.002009 0.001963
# 3 -0.006291 -0.002712 0.013422 0.002311 -0.004633 0.000602
# 4 -0.001438 0.000655 0.002311 0.020959 0.002260 -0.001333
# 5 0.007018 0.002009 -0.004633 0.002260 0.035651 -0.003584
# 6 0.001430 0.001963 0.000602 -0.001333 -0.003584 0.033853
#
#
# Mechanical properties :
#
#
# Convention : Reuss Voigt Hill
#
# Bulk Modulus (GPa) = 57.35280 62.14232 59.74756
# Shear Modulus (GPa) = 32.26098 36.87116 34.56607
#
# Velocity S-wave (km/s) = 3.87281 4.14029 4.00878
# Velocity P-wave (km/s) = 6.83099 7.19353 7.01461
#
# Compressibility (1/GPa) = 0.01743594
#
# Stress axis : x y z
#
# Youngs Moduli (GPa) = 65.90691 105.51036 74.50227
#
# Poissons Ratio (x) = 0.13881 0.46867
# Poissons Ratio (y) = 0.08671 0.20207
# Poissons Ratio (z) = 0.41460 0.28618
#
# Static dielectric constant tensor:
#      x y z
#    x 1.904890 -0.019690 0.041240 
#    y -0.019690 1.764130 0.029610 
#    z 0.041240 0.029610 1.821580 
# 
# From -- ./inp_files/6145.got.cif
#   From: 2010.05.17/outbox.cif.g08.bks.cpg/sg1_4_cif.got.tgz:6145.got - 2010.05.17 20:27:59.
