data_PCOD9000077
_publ_section_title
;
Structure prediction by ZEFSAII (Michael W. Deem and Ramdas Pophale) SiO2 
 PCOD9000077
Probable space group: P 1
;
_chemical_formula_sum "Si O2"
_cell_formula_units_Z 8
_cell_length_a 5.111429
_cell_length_b 14.327108
_cell_length_c 5.021218
_cell_angle_alpha 122.437450
_cell_angle_beta 90.117934
_cell_angle_gamma 106.207162
_cell_volume 292.736797
_symmetry_space_group_name_H-M "P 1"
_symmetry_group_IT_number 1
_symmetry_cell_setting 'triclinic'
loop_
_space_group_symop_operation_xyz
x,y,z
loop_
_atom_site_type_symbol
_atom_site_label
_atom_site_fract_x
_atom_site_fract_y
_atom_site_fract_z
Si Si1 0.644760 0.043420 0.606700
Si Si2 0.767324 0.779679 0.741430
Si Si3 0.102776 0.984685 0.700175
Si Si4 0.377676 0.470911 0.379927
Si Si5 0.198321 0.672347 0.834895
Si Si6 0.419425 0.189841 0.405124
Si Si7 0.965567 0.253559 0.320316
Si Si8 0.736128 0.572497 0.059867
O O1 0.526149 0.112067 0.492621
O O2 0.360762 0.944721 0.551050
O O3 0.796215 0.135833 0.980170
O O4 0.899240 0.996022 0.481172
O O5 0.506439 0.758954 0.901670
O O6 0.905250 0.903378 0.792169
O O7 0.996998 0.739414 0.830520
O O8 0.686655 0.688381 0.354779
O O9 0.276328 0.107018 0.028528
O O10 0.195512 0.557197 0.490078
O O11 0.565245 0.524584 0.719451
O O12 0.170645 0.344959 0.265007
O O13 0.585468 0.480686 0.150993
O O14 0.056915 0.617447 0.031443
O O15 0.707672 0.289805 0.481106
O O16 0.163197 0.235713 0.530607
#
# Coordination Sequence:
#
# PCOD9000077 Si02
#       8
#     1   1   1   1   1   1   1   1
#     4  10  21  43  67 100 138 175 235 295 350 433
#     4  11  25  45  72 102 146 187 237 293 361 420
#     4  10  22  43  67 102 136 181 233 290 359 423
#     4  11  27  47  73 105 145 192 236 295 359 423
#     4  11  24  47  67 102 143 187 236 296 343 430
#     4  10  22  43  67  98 138 176 237 291 352 430
#     4  10  24  42  66 101 135 185 234 290 357 424
#     4  11  25  48  69 104 147 183 242 294 345 431
#
# _framework density 27.328302999999998
#
# number of rings (size 3 to 8) (size 9 to 14) (size 15 to 20)
#    0.000    1.500    2.500    1.500    7.000    1.000 
#    4.500    0.000    0.000    0.000    0.000    0.000 
#    0.000    0.000    0.000    0.000    0.000    0.000 
#
# Total GULP energy -44706.634329 kJ/mol
# GULP energy per Si atom -5588.329291 kJ/mol
# Density = 2.726610 g / cm^3
# Si number density = 27.328303 Si / 1000 Ang^3
#
#
#
# Elastic Constant Matrix: (Units=GPa)
#
#
# Indices 1 2 3 4 5 6 
#
# 1 261.2710 85.3472 69.2419 -11.5585 45.9137 35.2439
# 2 85.3472 164.2555 33.8924 -10.6520 24.1179 45.8284
# 3 69.2419 33.8924 114.3492 -20.9402 9.6112 14.0474
# 4 -11.5585 -10.6520 -20.9402 43.8695 0.5159 7.1351
# 5 45.9137 24.1179 9.6112 0.5159 51.2979 -6.2223
# 6 35.2439 45.8284 14.0474 7.1351 -6.2223 62.0788
#
#
#
# Elastic Compliance Matrix: (Units=1/GPa)
#
#
# Indices 1 2 3 4 5 6 
#
# 1 0.006084 -0.001204 -0.002513 0.000579 -0.004722 -0.002537
# 2 -0.001204 0.009584 -0.000321 0.003061 -0.004260 -0.007098
# 3 -0.002513 -0.000321 0.011454 0.004971 0.000022 -0.001498
# 4 0.000579 0.003061 0.004971 0.027291 -0.004044 -0.007256
# 5 -0.004722 -0.004260 0.000022 -0.004044 0.026849 0.008977
# 6 -0.002537 -0.007098 -0.001498 -0.007256 0.008977 0.024861
#
#
# Mechanical properties :
#
#
# Convention : Reuss Voigt Hill
#
# Bulk Modulus (GPa) = 52.50136 101.87098 77.18617
# Shear Modulus (GPa) = 41.47685 54.87553 48.17619
#
# Velocity S-wave (km/s) = 3.90003 4.48594 4.20321
# Velocity P-wave (km/s) = 6.28755 8.01182 7.20148
#
# Compressibility (1/GPa) = 0.01904712
#
# Stress axis : x y z
#
# Youngs Moduli (GPa) = 164.35379 104.33549 87.30453
#
# Poissons Ratio (x) = 0.12565 0.21937
# Poissons Ratio (y) = 0.19793 0.02802
# Poissons Ratio (z) = 0.41298 0.03348
#
# Static dielectric constant tensor:
#      x y z
#    x 2.286620 -0.064520 -0.101780 
#    y -0.064520 2.206650 0.009000 
#    z -0.101780 0.009000 2.149120 
# 
# From -- ./inp_files/517.got.cif
#   From: 2010.05.17/outbox.cif.g08.bks.cpg/sg1_1_cif.got.tgz:517.got - 2010.05.17 20:27:59.
