data_PCOD9000669
_publ_section_title
;
Structure prediction by ZEFSAII (Michael W. Deem and Ramdas Pophale) SiO2 
 PCOD9000669
Probable space group: P 1
;
_chemical_formula_sum "Si O2"
_cell_formula_units_Z 6
_cell_length_a 7.741221
_cell_length_b 7.714041
_cell_length_c 7.003599
_cell_angle_alpha 60.088281
_cell_angle_beta 119.503269
_cell_angle_gamma 141.772016
_cell_volume 220.330460
_symmetry_space_group_name_H-M "P 1"
_symmetry_group_IT_number 1
_symmetry_cell_setting 'triclinic'
loop_
_space_group_symop_operation_xyz
x,y,z
loop_
_atom_site_type_symbol
_atom_site_label
_atom_site_fract_x
_atom_site_fract_y
_atom_site_fract_z
Si Si1 0.033510 0.185590 0.759290
Si Si2 0.594346 0.156621 0.941359
Si Si3 0.436721 0.776719 0.555731
Si Si4 0.690817 0.795072 0.283860
Si Si5 0.032868 0.729588 0.100835
Si Si6 0.285194 0.208088 0.480058
O O1 0.278989 0.519146 0.762301
O O2 0.152024 0.218373 0.591559
O O3 0.727984 0.068825 0.640027
O O4 0.988594 0.936796 0.968333
O O5 0.532318 0.246730 0.675615
O O6 0.759894 0.410035 0.051283
O O7 0.736762 0.042216 0.073327
O O8 0.273805 0.877777 0.987774
O O9 0.572227 0.766758 0.446944
O O10 0.196230 0.747712 0.356865
O O11 0.442605 0.464286 0.273170
O O12 0.995302 0.911354 0.402643
#
# Coordination Sequence:
#
# PCOD9000669 Si02
#       6
#     1   1   1   1   1   1
#     4   9  15  21  26  31  37  42  47  53  58  63
#     4  10  16  20  26  32  36  42  48  52  58  64
#     4   9  15  21  26  31  37  42  47  53  58  63
#     4   9  15  21  26  31  37  42  47  53  58  63
#     4  10  16  20  26  32  36  42  48  52  58  64
#     4   9  15  21  26  31  37  42  47  53  58  63
#
# _framework density 27.231822999999999
#
# number of rings (size 3 to 8) (size 9 to 14) (size 15 to 20)
#    0.000    2.667    0.000   10.000    0.000    0.000 
#    0.000    0.000    0.000    0.000    0.000    0.000 
#    0.000    0.000    0.000    0.000    0.000    0.000 
#
# Total GULP energy -33496.833525 kJ/mol
# GULP energy per Si atom -5582.805587 kJ/mol
# Density = 2.716984 g / cm^3
# Si number density = 27.231823 Si / 1000 Ang^3
#
#
#
# Elastic Constant Matrix: (Units=GPa)
#
#
# Indices 1 2 3 4 5 6 
#
# 1 64.5473 46.0268 37.1695 23.8601 13.5935 -25.3041
# 2 46.0268 154.7332 73.9647 -11.9959 25.2567 41.0388
# 3 37.1695 73.9647 181.3301 -5.6801 15.4711 10.8054
# 4 23.8601 -11.9959 -5.6801 34.6039 6.7734 19.7614
# 5 13.5935 25.2567 15.4711 6.7734 37.5882 4.2867
# 6 -25.3041 41.0388 10.8054 19.7614 4.2867 -11.1209
#
#
#
# Elastic Compliance Matrix: (Units=1/GPa)
#
#
# Indices 1 2 3 4 5 6 
#
# 1 0.009643 0.002147 -0.001735 0.002011 -0.003060 -0.013312
# 2 0.002147 0.005823 -0.003003 -0.003100 -0.003666 0.006765
# 3 -0.001735 -0.003003 0.007106 0.000834 -0.000549 0.001042
# 4 0.002011 -0.003100 0.000834 0.018345 -0.004097 0.015814
# 5 -0.003060 -0.003666 -0.000549 -0.004097 0.031398 -0.002277
# 6 -0.013312 0.006765 0.001042 0.015814 -0.002277 -0.006432
#
#
# Mechanical properties :
#
#
# Convention : Reuss Voigt Hill
#
# Bulk Modulus (GPa) = 57.50194 79.43695 68.46945
# Shear Modulus (GPa) = 65.05061 28.44421 46.74741
#
# Velocity S-wave (km/s) = 4.89281 3.23541 4.14774
# Velocity P-wave (km/s) = 7.28567 6.57200 6.93802
#
# Compressibility (1/GPa) = 0.01739072
#
# Stress axis : x y z
#
# Youngs Moduli (GPa) = 103.69826 171.72133 140.72212
#
# Poissons Ratio (x) = -0.36866 0.24417
# Poissons Ratio (y) = -0.22262 0.42257
# Poissons Ratio (z) = 0.17993 0.51566
#
# Static dielectric constant tensor:
#      x y z
#    x 2.222400 -0.111870 -0.012710 
#    y -0.111870 2.083940 -0.026690 
#    z -0.012710 -0.026690 2.188990 
# 
# From -- ./inp_files/2267.got.cif
#   From: 2010.05.17/outbox.cif.g08.bks.cpg/sg1_2_cif.got.tgz:2267.got - 2010.05.17 20:27:59.
