data_PCOD9000756
_publ_section_title
;
Structure prediction by ZEFSAII (Michael W. Deem and Ramdas Pophale) SiO2 
 PCOD9000756
Probable space group: P 1
;
_chemical_formula_sum "Si O2"
_cell_formula_units_Z 8
_cell_length_a 7.135076
_cell_length_b 7.620969
_cell_length_c 8.568344
_cell_angle_alpha 112.854093
_cell_angle_beta 66.839403
_cell_angle_gamma 136.131423
_cell_volume 292.813116
_symmetry_space_group_name_H-M "P 1"
_symmetry_group_IT_number 1
_symmetry_cell_setting 'triclinic'
loop_
_space_group_symop_operation_xyz
x,y,z
loop_
_atom_site_type_symbol
_atom_site_label
_atom_site_fract_x
_atom_site_fract_y
_atom_site_fract_z
Si Si1 0.071240 0.232820 0.737510
Si Si2 0.664029 0.725677 0.977127
Si Si3 0.864606 0.554810 0.593512
Si Si4 0.312286 0.443442 0.259535
Si Si5 0.382200 0.052613 0.708459
Si Si6 0.166294 0.979263 0.089088
Si Si7 0.608142 0.696392 0.541539
Si Si8 0.115643 0.553054 0.099302
O O1 0.233478 0.152648 0.727900
O O2 0.306207 0.486775 0.648327
O O3 0.993946 0.326344 0.936856
O O4 0.809314 0.982896 0.645957
O O5 0.478265 0.479415 0.064680
O O6 0.448220 0.755445 0.028618
O O7 0.754431 0.651924 0.782207
O O8 0.929068 0.943830 0.061203
O O9 0.688916 0.264956 0.610413
O O10 0.762075 0.589584 0.481045
O O11 0.187130 0.768830 0.598283
O O12 0.242272 0.191126 0.262442
O O13 0.532070 0.676206 0.380128
O O14 0.101917 0.461901 0.251397
O O15 0.350976 0.020501 0.895601
O O16 0.046915 0.721370 0.127319
#
# Coordination Sequence:
#
# PCOD9000756 Si02
#       8
#     1   1   1   1   1   1   1   1
#     4  10  19  39  61  95 115 173 211 252 322 377
#     4   9  19  38  57  89 122 156 211 256 301 369
#     4   9  15  31  56  83 110 159 198 241 301 366
#     4  10  21  39  59  91 123 165 204 261 312 380
#     4   9  15  31  56  79 117 142 203 250 284 358
#     4  11  20  37  65  92 123 162 214 261 319 365
#     4  10  20  33  65  85 130 167 202 253 333 369
#     4  10  21  40  65  92 120 164 219 262 304 380
#
# _framework density 27.321180999999999
#
# number of rings (size 3 to 8) (size 9 to 14) (size 15 to 20)
#    0.750    1.500    5.000    0.000    1.750    0.000 
#    4.500    0.000   13.750    0.000    0.000    0.000 
#    0.000    0.000    0.000    0.000    0.000    0.000 
#
# Total GULP energy -44618.823938 kJ/mol
# GULP energy per Si atom -5577.352992 kJ/mol
# Density = 2.725900 g / cm^3
# Si number density = 27.321181 Si / 1000 Ang^3
#
#
#
# Elastic Constant Matrix: (Units=GPa)
#
#
# Indices 1 2 3 4 5 6 
#
# 1 101.5503 56.4690 30.5172 13.8233 10.5976 -28.9533
# 2 56.4690 184.3385 56.5379 21.3270 18.8010 10.6999
# 3 30.5172 56.5379 117.1449 13.8537 31.3231 -2.8102
# 4 13.8233 21.3270 13.8537 51.4706 10.2114 11.8827
# 5 10.5976 18.8010 31.3231 10.2114 24.5282 -3.2199
# 6 -28.9533 10.6999 -2.8102 11.8827 -3.2199 49.5446
#
#
#
# Elastic Compliance Matrix: (Units=1/GPa)
#
#
# Indices 1 2 3 4 5 6 
#
# 1 0.017290 -0.005114 -0.001805 -0.005480 0.002689 0.012595
# 2 -0.005114 0.008145 -0.002225 0.000138 -0.001910 -0.005031
# 3 -0.001805 -0.002225 0.014305 0.001051 -0.016362 -0.001078
# 4 -0.005480 0.000138 0.001051 0.024974 -0.010772 -0.009863
# 5 0.002689 -0.001910 -0.016362 -0.010772 0.067505 0.008027
# 6 0.012595 -0.005031 -0.001078 -0.009863 0.008027 0.031457
#
#
# Mechanical properties :
#
#
# Convention : Reuss Voigt Hill
#
# Bulk Modulus (GPa) = 46.61558 76.67577 61.64567
# Shear Modulus (GPa) = 26.43897 42.40932 34.42415
#
# Velocity S-wave (km/s) = 3.11418 3.94414 3.55347
# Velocity P-wave (km/s) = 5.47996 6.99050 6.28081
#
# Compressibility (1/GPa) = 0.02145206
#
# Stress axis : x y z
#
# Youngs Moduli (GPa) = 57.83688 122.77828 69.90429
#
# Poissons Ratio (x) = 0.62793 0.12616
# Poissons Ratio (y) = 0.29580 0.15553
# Poissons Ratio (z) = 0.10438 0.27317
#
# Static dielectric constant tensor:
#      x y z
#    x 2.135970 0.031970 0.003370 
#    y 0.031970 2.264640 -0.043080 
#    z 0.003370 -0.043080 2.187850 
# 
# From -- ./inp_files/4317.got.cif
#   From: 2010.05.17/outbox.cif.g08.bks.cpg/sg1_3_cif.got.tgz:4317.got - 2010.05.17 20:27:59.
