data_PCOD9000372
_publ_section_title
;
Structure prediction by ZEFSAII (Michael W. Deem and Ramdas Pophale) SiO2 
 PCOD9000372
Probable space group: P 1
;
_chemical_formula_sum "Si O2"
_cell_formula_units_Z 8
_cell_length_a 10.151931
_cell_length_b 10.049626
_cell_length_c 4.980387
_cell_angle_alpha 70.400397
_cell_angle_beta 123.365819
_cell_angle_gamma 138.485979
_cell_volume 278.580382
_symmetry_space_group_name_H-M "P 1"
_symmetry_group_IT_number 1
_symmetry_cell_setting 'triclinic'
loop_
_space_group_symop_operation_xyz
x,y,z
loop_
_atom_site_type_symbol
_atom_site_label
_atom_site_fract_x
_atom_site_fract_y
_atom_site_fract_z
Si Si1 0.563170 0.709330 0.075990
Si Si2 0.975582 0.144860 0.391341
Si Si3 0.843833 0.514575 0.420961
Si Si4 0.220481 0.045017 0.945196
Si Si5 0.320670 0.902206 0.533549
Si Si6 0.291485 0.606717 0.331057
Si Si7 0.730637 0.584595 0.727453
Si Si8 0.655708 0.144678 0.159566
O O1 0.388217 0.684466 0.086911
O O2 0.570965 0.576412 0.367356
O O3 0.816399 0.936841 0.181828
O O4 0.458353 0.639561 0.711722
O O5 0.082753 0.359826 0.251345
O O6 0.783858 0.080472 0.427339
O O7 0.173993 0.174293 0.715182
O O8 0.712633 0.535276 0.052788
O O9 0.829665 0.361379 0.350481
O O10 0.755482 0.459070 0.661408
O O11 0.100151 0.728443 0.576261
O O12 0.971171 0.817168 0.811692
O O13 0.424672 0.086228 0.011180
O O14 0.287638 0.046539 0.321666
O O15 0.283206 0.759985 0.348699
O O16 0.572914 0.051400 0.829107
#
# Coordination Sequence:
#
# PCOD9000372 Si02
#       8
#     1   1   1   1   1   1   1   1
#     4  11  26  47  75 110 159 198 249 327 379 446
#     4  11  26  50  73 117 149 202 259 314 380 464
#     4  11  24  42  72 103 144 194 250 298 378 453
#     4  10  25  46  75 104 155 191 255 311 380 448
#     4  11  24  47  72 107 148 202 247 314 381 452
#     4  12  26  48  78 111 154 203 258 311 386 460
#     4  10  23  46  70 107 147 196 245 307 376 450
#     4  12  24  46  73 105 146 198 243 316 374 443
#
# _framework density 28.717023000000001
#
# number of rings (size 3 to 8) (size 9 to 14) (size 15 to 20)
#    0.000    1.000    3.750    1.500    5.250    1.000 
#    2.250    0.000    0.000    0.000    0.000    0.000 
#    0.000    0.000    0.000    0.000    0.000    0.000 
#
# Total GULP energy -44586.148681 kJ/mol
# GULP energy per Si atom -5573.268585 kJ/mol
# Density = 2.865166 g / cm^3
# Si number density = 28.717023 Si / 1000 Ang^3
#
#
#
# Elastic Constant Matrix: (Units=GPa)
#
#
# Indices 1 2 3 4 5 6 
#
# 1 76.8006 -8.7317 30.6520 -11.1223 6.8238 1.8174
# 2 -8.7317 128.8798 28.5495 32.7686 -12.4448 -6.1881
# 3 30.6520 28.5495 153.9257 2.1170 4.2571 -2.0931
# 4 -11.1223 32.7686 2.1170 41.0051 -9.8364 13.0879
# 5 6.8238 -12.4448 4.2571 -9.8364 60.8059 -7.7351
# 6 1.8174 -6.1881 -2.0931 13.0879 -7.7351 34.0873
#
#
#
# Elastic Compliance Matrix: (Units=1/GPa)
#
#
# Indices 1 2 3 4 5 6 
#
# 1 0.015163 0.000263 -0.003146 0.004782 -0.001039 -0.003026
# 2 0.000263 0.011345 -0.001968 -0.010543 0.001528 0.006320
# 3 -0.003146 -0.001968 0.007502 0.000177 -0.000536 0.000081
# 4 0.004782 -0.010543 0.000177 0.039949 0.001575 -0.017139
# 5 -0.001039 0.001528 -0.000536 0.001575 0.017638 0.003697
# 6 -0.003026 0.006320 0.000081 -0.017139 0.003697 0.038070
#
#
# Mechanical properties :
#
#
# Convention : Reuss Voigt Hill
#
# Bulk Modulus (GPa) = 41.14122 51.17173 46.15647
# Shear Modulus (GPa) = 33.90509 47.78875 40.84692
#
# Velocity S-wave (km/s) = 3.43980 4.08380 3.77556
# Velocity P-wave (km/s) = 5.48943 6.33202 5.92572
#
# Compressibility (1/GPa) = 0.02430653
#
# Stress axis : x y z
#
# Youngs Moduli (GPa) = 65.95109 88.14701 133.30366
#
# Poissons Ratio (x) = -0.02318 0.41942
# Poissons Ratio (y) = -0.01734 0.26232
# Poissons Ratio (z) = 0.20751 0.17346
#
# Static dielectric constant tensor:
#      x y z
#    x 2.473080 0.009340 -0.017780 
#    y 0.009340 2.343090 -0.114800 
#    z -0.017780 -0.114800 2.360860 
# 
# From -- ./inp_files/2366.got.cif
#   From: 2010.05.17/outbox.cif.g08.bks.cpg/sg1_2_cif.got.tgz:2366.got - 2010.05.17 20:27:59.
