data_PCOD9000769
_publ_section_title
;
Structure prediction by ZEFSAII (Michael W. Deem and Ramdas Pophale) SiO2 
 PCOD9000769
Probable space group: P 1
;
_chemical_formula_sum "Si O2"
_cell_formula_units_Z 8
_cell_length_a 5.741347
_cell_length_b 9.519600
_cell_length_c 7.125312
_cell_angle_alpha 98.656758
_cell_angle_beta 102.714509
_cell_angle_gamma 111.785657
_cell_volume 340.967709
_symmetry_space_group_name_H-M "P 1"
_symmetry_group_IT_number 1
_symmetry_cell_setting 'triclinic'
loop_
_space_group_symop_operation_xyz
x,y,z
loop_
_atom_site_type_symbol
_atom_site_label
_atom_site_fract_x
_atom_site_fract_y
_atom_site_fract_z
Si Si1 0.750000 0.600290 0.860900
Si Si2 0.356801 0.751590 0.943746
Si Si3 0.437117 0.873452 0.590190
Si Si4 0.462337 0.365936 0.054017
Si Si5 0.646467 0.656958 0.419599
Si Si6 0.009125 0.107374 0.752779
Si Si7 0.059647 0.973734 0.376153
Si Si8 0.342931 0.047600 0.076432
O O1 0.703212 0.614367 0.632695
O O2 0.064298 0.666357 0.963702
O O3 0.623830 0.431658 0.904911
O O4 0.575077 0.682447 0.948231
O O5 0.291271 0.770807 0.720178
O O6 0.199010 0.027944 0.844866
O O7 0.469407 0.925079 0.088330
O O8 0.456163 0.744563 0.428268
O O9 0.345952 0.987828 0.486836
O O10 0.722796 0.990392 0.741761
O O11 0.524926 0.503889 0.240593
O O12 0.522701 0.231244 0.140208
O O13 0.158228 0.275783 0.909756
O O14 0.887188 0.796856 0.383742
O O15 0.001713 0.093294 0.523212
O O16 0.103899 0.008825 0.172959
#
# Coordination Sequence:
#
# PCOD9000769 Si02
#       8
#     1   1   1   1   1   1   1   1
#     4  11  24  44  72  97 143 177 234 278 355 402
#     4  11  21  45  73 101 128 190 230 288 328 425
#     4  10  19  40  69  94 132 171 238 278 340 402
#     4  10  24  43  64 100 142 180 218 293 348 415
#     4  10  22  39  66  97 131 178 229 285 339 412
#     4   9  22  43  62  94 138 181 220 283 343 413
#     4  11  20  40  70  95 126 181 234 281 332 414
#     4  10  22  40  68  98 134 176 235 274 347 403
#
# _framework density 23.462634000000001
#
# number of rings (size 3 to 8) (size 9 to 14) (size 15 to 20)
#    0.750    1.000    2.500    2.250    3.500    0.000 
#    6.750    0.000    0.000    0.000    0.000    0.000 
#    0.000    0.000    0.000    0.000    0.000    0.000 
#
# Total GULP energy -44535.741897 kJ/mol
# GULP energy per Si atom -5566.967737 kJ/mol
# Density = 2.340923 g / cm^3
# Si number density = 23.462634 Si / 1000 Ang^3
#
#
#
# Elastic Constant Matrix: (Units=GPa)
#
#
# Indices 1 2 3 4 5 6 
#
# 1 82.5650 34.2454 19.0048 7.1464 -12.3569 12.3409
# 2 34.2454 120.8112 45.1787 11.6808 -15.3052 23.1014
# 3 19.0048 45.1787 107.7921 12.4492 -18.3174 2.9180
# 4 7.1464 11.6808 12.4492 42.4612 10.5934 -0.1138
# 5 -12.3569 -15.3052 -18.3174 10.5934 27.5024 -8.9740
# 6 12.3409 23.1014 2.9180 -0.1138 -8.9740 13.1338
#
#
#
# Elastic Compliance Matrix: (Units=1/GPa)
#
#
# Indices 1 2 3 4 5 6 
#
# 1 0.015033 -0.001537 -0.000854 -0.002753 0.003498 -0.008865
# 2 -0.001537 0.016116 -0.006420 -0.001123 -0.004995 -0.028898
# 3 -0.000854 -0.006420 0.014693 -0.005865 0.014096 0.018411
# 4 -0.002753 -0.001123 -0.005865 0.031075 -0.020251 -0.007702
# 5 0.003498 -0.004995 0.014096 -0.020251 0.068279 0.048845
# 6 -0.008865 -0.028898 0.018411 -0.007702 0.048845 0.164517
#
#
# Mechanical properties :
#
#
# Convention : Reuss Voigt Hill
#
# Bulk Modulus (GPa) = 35.43742 56.44733 45.94238
# Shear Modulus (GPa) = 14.84817 30.80210 22.82514
#
# Velocity S-wave (km/s) = 2.51837 3.62721 3.12240
# Velocity P-wave (km/s) = 4.85724 6.45390 5.71164
#
# Compressibility (1/GPa) = 0.02821876
#
# Stress axis : x y z
#
# Youngs Moduli (GPa) = 66.52155 62.05062 68.05973
#
# Poissons Ratio (x) = 0.09540 0.05810
# Poissons Ratio (y) = 0.10227 0.43696
# Poissons Ratio (z) = 0.05679 0.39838
#
# Static dielectric constant tensor:
#      x y z
#    x 1.986060 -0.030440 -0.004710 
#    y -0.030440 1.923480 0.004190 
#    z -0.004710 0.004190 1.906030 
# 
# From -- ./inp_files/3062.got.cif
#   From: 2010.05.17/outbox.cif.g08.bks.cpg/sg1_2_cif.got.tgz:3062.got - 2010.05.17 20:27:59.
