data_PCOD9000441
_publ_section_title
;
Structure prediction by ZEFSAII (Michael W. Deem and Ramdas Pophale) SiO2 
 PCOD9000441
Probable space group: P 1
;
_chemical_formula_sum "Si O2"
_cell_formula_units_Z 6
_cell_length_a 5.265721
_cell_length_b 10.726510
_cell_length_c 5.219995
_cell_angle_alpha 56.093259
_cell_angle_beta 89.284260
_cell_angle_gamma 71.804262
_cell_volume 227.523720
_symmetry_space_group_name_H-M "P 1"
_symmetry_group_IT_number 1
_symmetry_cell_setting 'triclinic'
loop_
_space_group_symop_operation_xyz
x,y,z
loop_
_atom_site_type_symbol
_atom_site_label
_atom_site_fract_x
_atom_site_fract_y
_atom_site_fract_z
Si Si1 0.190520 0.365610 0.013890
Si Si2 0.705334 0.975845 0.259352
Si Si3 0.974968 0.114094 0.479346
Si Si4 0.515902 0.282699 0.614921
Si Si5 0.167926 0.791165 0.124345
Si Si6 0.740052 0.663821 0.431069
O O1 0.314348 0.368505 0.289024
O O2 0.121613 0.202931 0.199370
O O3 0.403423 0.366062 0.789359
O O4 0.916046 0.511838 0.769678
O O5 0.728104 0.079630 0.380243
O O6 0.625246 0.820880 0.439360
O O7 0.545727 0.097703 0.896988
O O8 0.024432 0.889583 0.269269
O O9 0.824494 0.243831 0.556574
O O10 0.158351 0.938208 0.776186
O O11 0.471854 0.665155 0.291436
O O12 0.944686 0.707373 0.182054
#
# Coordination Sequence:
#
# PCOD9000441 Si02
#       6
#     1   1   1   1   1   1
#     4  12  28  44  76 107 153 189 247 308 376 431
#     4   9  22  42  76 102 144 191 248 295 359 440
#     4  11  24  43  81 107 144 196 255 301 362 447
#     4  11  25  46  71 107 147 191 249 296 372 435
#     4   9  23  44  71 105 145 194 245 298 366 440
#     4  10  24  47  69 108 151 191 242 310 371 433
#
# _framework density 26.370877
#
# number of rings (size 3 to 8) (size 9 to 14) (size 15 to 20)
#    1.000    0.667    1.667    1.000    9.333    1.333 
#    3.000    0.000    0.000    0.000    0.000    0.000 
#    0.000    0.000    0.000    0.000    0.000    0.000 
#
# Total GULP energy -33483.024740 kJ/mol
# GULP energy per Si atom -5580.504123 kJ/mol
# Density = 2.631086 g / cm^3
# Si number density = 26.370877 Si / 1000 Ang^3
#
#
#
# Elastic Constant Matrix: (Units=GPa)
#
#
# Indices 1 2 3 4 5 6 
#
# 1 145.6964 17.0488 69.0924 -4.2362 9.6727 -5.2011
# 2 17.0488 42.1264 18.1206 12.8819 -16.5553 -2.4773
# 3 69.0924 18.1206 155.4675 -14.1861 16.3898 -1.0608
# 4 -4.2362 12.8819 -14.1861 43.6192 1.2515 -8.5667
# 5 9.6727 -16.5553 16.3898 1.2515 47.0063 -3.5572
# 6 -5.2011 -2.4773 -1.0608 -8.5667 -3.5572 32.4991
#
#
#
# Elastic Compliance Matrix: (Units=1/GPa)
#
#
# Indices 1 2 3 4 5 6 
#
# 1 0.009005 -0.003098 -0.003364 0.000973 -0.001709 0.001165
# 2 -0.003098 0.038579 -0.006174 -0.014113 0.016781 0.000360
# 3 -0.003364 -0.006174 0.009604 0.004766 -0.004957 0.000018
# 4 0.000973 -0.014113 0.004766 0.030203 -0.007151 0.006414
# 5 -0.001709 0.016781 -0.004957 -0.007151 0.029621 0.002201
# 6 0.001165 0.000360 0.000018 0.006414 0.002201 0.032916
#
#
# Mechanical properties :
#
#
# Convention : Reuss Voigt Hill
#
# Bulk Modulus (GPa) = 31.33209 61.31266 46.32237
# Shear Modulus (GPa) = 26.90498 40.56013 33.73255
#
# Velocity S-wave (km/s) = 3.19761 3.92607 3.58041
# Velocity P-wave (km/s) = 5.05371 6.62213 5.89036
#
# Compressibility (1/GPa) = 0.03191616
#
# Stress axis : x y z
#
# Youngs Moduli (GPa) = 111.05409 25.92065 104.11947
#
# Poissons Ratio (x) = 0.08030 0.35024
# Poissons Ratio (y) = 0.34405 0.64286
# Poissons Ratio (z) = 0.37356 0.16004
#
# Static dielectric constant tensor:
#      x y z
#    x 2.099890 -0.021500 0.025600 
#    y -0.021500 2.206690 0.013350 
#    z 0.025600 0.013350 2.035890 
# 
# From -- ./inp_files/936.got.cif
#   From: 2010.05.17/outbox.cif.g08.bks.cpg/sg1_1_cif.got.tgz:936.got - 2010.05.17 20:27:59.
