data_PCOD9000022
_publ_section_title
;
Structure prediction by ZEFSAII (Michael W. Deem and Ramdas Pophale) SiO2 
 PCOD9000022
Probable space group: P 1
;
_chemical_formula_sum "Si O2"
_cell_formula_units_Z 8
_cell_length_a 7.615052
_cell_length_b 13.265790
_cell_length_c 11.955378
_cell_angle_alpha 147.538745
_cell_angle_beta 37.294223
_cell_angle_gamma 141.342818
_cell_volume 369.760203
_symmetry_space_group_name_H-M "P 1"
_symmetry_group_IT_number 1
_symmetry_cell_setting 'triclinic'
loop_
_space_group_symop_operation_xyz
x,y,z
loop_
_atom_site_type_symbol
_atom_site_label
_atom_site_fract_x
_atom_site_fract_y
_atom_site_fract_z
Si Si1 0.305900 0.880550 0.761280
Si Si2 0.134592 0.236799 0.479590
Si Si3 0.818627 0.291928 0.907975
Si Si4 0.247745 0.425972 0.353877
Si Si5 0.381729 0.348527 0.800444
Si Si6 0.476171 0.003878 0.556937
Si Si7 0.654525 0.815184 0.085882
Si Si8 0.640122 0.169725 0.297297
O O1 0.304871 0.657934 0.558291
O O2 0.619770 0.056501 0.795163
O O3 0.255062 0.911195 0.683997
O O4 0.024423 0.903714 0.996137
O O5 0.147970 0.331680 0.439367
O O6 0.455425 0.205059 0.316917
O O7 0.033387 0.347134 0.739412
O O8 0.829787 0.040955 0.447936
O O9 0.035235 0.342186 0.953321
O O10 0.564394 0.396604 0.132283
O O11 0.986219 0.313735 0.289091
O O12 0.442938 0.218784 0.748840
O O13 0.453491 0.228317 0.547515
O O14 0.581122 0.579236 0.902084
O O15 0.449519 0.867117 0.334487
O O16 0.606142 0.938814 0.118203
#
# Coordination Sequence:
#
# PCOD9000022 Si02
#       8
#     1   1   1   1   1   1   1   1
#     4  11  23  39  66  91 128 168 214 261 316 377
#     4  10  21  43  66  91 132 172 204 267 323 367
#     4  10  24  42  63  97 130 165 215 268 315 379
#     4  12  22  44  64  96 133 169 212 265 316 383
#     4  10  21  42  66  93 132 166 211 266 318 377
#     4  10  22  40  63  94 129 166 215 260 317 380
#     4  11  20  42  68  88 129 175 203 264 324 370
#     4  10  21  40  68  94 129 163 218 261 309 387
#
# _framework density 21.635643000000002
#
# number of rings (size 3 to 8) (size 9 to 14) (size 15 to 20)
#    0.000    1.500    5.000    0.000    0.000    8.000 
#    4.500    5.000    0.000    0.000    0.000    0.000 
#    0.000    0.000    0.000    0.000    0.000    0.000 
#
# Total GULP energy -44574.395916 kJ/mol
# GULP energy per Si atom -5571.799490 kJ/mol
# Density = 2.158640 g / cm^3
# Si number density = 21.635643 Si / 1000 Ang^3
#
#
#
# Elastic Constant Matrix: (Units=GPa)
#
#
# Indices 1 2 3 4 5 6 
#
# 1 76.3777 26.7947 24.3780 -3.1955 -22.8405 7.5621
# 2 26.7947 79.0661 34.2414 12.6135 -6.0480 -9.0909
# 3 24.3780 34.2414 85.3959 -2.0324 -14.5803 -11.3325
# 4 -3.1955 12.6135 -2.0324 43.3573 -1.7402 -8.3251
# 5 -22.8405 -6.0480 -14.5803 -1.7402 29.1044 -9.0873
# 6 7.5621 -9.0909 -11.3325 -8.3251 -9.0873 22.2816
#
#
#
# Elastic Compliance Matrix: (Units=1/GPa)
#
#
# Indices 1 2 3 4 5 6 
#
# 1 0.019986 -0.006034 -0.001560 0.002936 0.012643 -0.003785
# 2 -0.006034 0.018225 -0.005860 -0.005556 -0.003247 0.003103
# 3 -0.001560 -0.005860 0.018568 0.005716 0.011730 0.014502
# 4 0.002936 -0.005556 0.005716 0.028338 0.010201 0.014392
# 5 0.012643 -0.003247 0.011730 0.010201 0.058891 0.028180
# 6 -0.003785 0.003103 0.014502 0.014392 0.028180 0.071676
#
#
# Mechanical properties :
#
#
# Convention : Reuss Voigt Hill
#
# Bulk Modulus (GPa) = 33.47623 45.74088 39.60856
# Shear Modulus (GPa) = 19.79811 29.31037 24.55424
#
# Velocity S-wave (km/s) = 3.02829 3.68465 3.37248
# Velocity P-wave (km/s) = 5.26628 6.26814 5.78892
#
# Compressibility (1/GPa) = 0.02987194
#
# Stress axis : x y z
#
# Youngs Moduli (GPa) = 50.03523 54.86934 53.85498
#
# Poissons Ratio (x) = 0.33108 0.08399
# Poissons Ratio (y) = 0.30192 0.31559
# Poissons Ratio (z) = 0.07804 0.32154
#
# Static dielectric constant tensor:
#      x y z
#    x 1.882300 -0.003380 0.001780 
#    y -0.003380 1.774770 -0.016420 
#    z 0.001780 -0.016420 1.809210 
# 
# From -- ./inp_files/4101.got.cif
#   From: 2010.05.17/outbox.cif.g08.bks.cpg/sg1_3_cif.got.tgz:4101.got - 2010.05.17 20:27:59.
