data_PCOD9000141
_publ_section_title
;
Structure prediction by ZEFSAII (Michael W. Deem and Ramdas Pophale) SiO2 
 PCOD9000141
Probable space group: P 1
;
_chemical_formula_sum "Si O2"
_cell_formula_units_Z 8
_cell_length_a 8.828263
_cell_length_b 5.101153
_cell_length_c 7.099620
_cell_angle_alpha 97.742407
_cell_angle_beta 72.590282
_cell_angle_gamma 75.322227
_cell_volume 287.344841
_symmetry_space_group_name_H-M "P 1"
_symmetry_group_IT_number 1
_symmetry_cell_setting 'triclinic'
loop_
_space_group_symop_operation_xyz
x,y,z
loop_
_atom_site_type_symbol
_atom_site_label
_atom_site_fract_x
_atom_site_fract_y
_atom_site_fract_z
Si Si1 0.398980 0.298860 0.700290
Si Si2 0.797552 0.187902 0.190151
Si Si3 0.484359 0.114260 0.086039
Si Si4 0.035555 0.432210 0.966042
Si Si5 0.725812 0.594262 0.853504
Si Si6 0.127516 0.467755 0.360301
Si Si7 0.921574 0.063086 0.531345
Si Si8 0.597858 0.707986 0.522356
O O1 0.200130 0.371660 0.773698
O O2 0.474894 0.536329 0.625387
O O3 0.487241 0.010164 0.533382
O O4 0.443735 0.221714 0.896751
O O5 0.649071 0.153288 0.118372
O O6 0.827879 0.042007 0.367624
O O7 0.720485 0.514493 0.309366
O O8 0.971788 0.168587 0.021086
O O9 0.322952 0.298304 0.276301
O O10 0.544308 0.772568 0.021606
O O11 0.876572 0.622485 0.928898
O O12 0.084598 0.525998 0.158771
O O13 0.788493 0.266464 0.742372
O O14 0.710346 0.727227 0.663740
O O15 0.033352 0.258248 0.448891
O O16 0.051074 0.769218 0.511725
#
# Coordination Sequence:
#
# PCOD9000141 Si02
#       8
#     1   1   1   1   1   1   1   1
#     4  10  23  42  63  90 126 165 206 256 313 371
#     4  10  22  39  64  93 125 164 210 258 310 371
#     4  10  22  39  64  93 125 164 210 258 310 371
#     4  10  22  39  64  93 125 164 210 258 310 371
#     4  10  22  39  64  93 125 164 210 258 310 371
#     4  10  23  42  63  90 126 165 206 256 313 371
#     4  10  23  42  63  90 126 165 206 256 313 371
#     4  10  23  42  63  90 126 165 206 256 313 371
#
# _framework density 27.84111
#
# number of rings (size 3 to 8) (size 9 to 14) (size 15 to 20)
#    0.000    2.000    0.000    1.500    0.000   22.000 
#    0.000    0.000    0.000    0.000    0.000    0.000 
#    0.000    0.000    0.000    0.000    0.000    0.000 
#
# Total GULP energy -44795.136195 kJ/mol
# GULP energy per Si atom -5599.392024 kJ/mol
# Density = 2.777774 g / cm^3
# Si number density = 27.841110 Si / 1000 Ang^3
#
#
#
# Elastic Constant Matrix: (Units=GPa)
#
#
# Indices 1 2 3 4 5 6 
#
# 1 161.4576 72.5848 53.5212 13.1275 -32.1024 -36.4851
# 2 72.5848 176.2743 71.6894 27.5496 -18.5666 -23.3398
# 3 53.5212 71.6894 89.7755 12.3049 -27.9102 -16.9493
# 4 13.1275 27.5496 12.3049 61.6514 -13.6380 -3.6300
# 5 -32.1024 -18.5666 -27.9102 -13.6380 66.2448 -6.6290
# 6 -36.4851 -23.3398 -16.9493 -3.6300 -6.6290 43.9535
#
#
#
# Elastic Compliance Matrix: (Units=1/GPa)
#
#
# Indices 1 2 3 4 5 6 
#
# 1 0.010256 -0.002182 -0.001632 0.000559 0.004532 0.007455
# 2 -0.002182 0.009447 -0.006301 -0.002840 -0.001620 0.000296
# 3 -0.001632 -0.006301 0.019736 0.000856 0.006329 0.003936
# 4 0.000559 -0.002840 0.000856 0.018096 0.003694 0.001337
# 5 0.004532 -0.001620 0.006329 0.003694 0.021149 0.008837
# 6 0.007455 0.000296 0.003936 0.001337 0.008837 0.032057
#
#
# Mechanical properties :
#
#
# Convention : Reuss Voigt Hill
#
# Bulk Modulus (GPa) = 52.05884 91.45536 71.75710
# Shear Modulus (GPa) = 36.39717 49.68406 43.04061
#
# Velocity S-wave (km/s) = 3.61961 4.22899 3.93611
# Velocity P-wave (km/s) = 6.01730 7.53433 6.81814
#
# Compressibility (1/GPa) = 0.01920903
#
# Stress axis : x y z
#
# Youngs Moduli (GPa) = 97.50618 105.85870 50.66794
#
# Poissons Ratio (x) = 0.23102 0.08267
# Poissons Ratio (y) = 0.21279 0.31925
# Poissons Ratio (z) = 0.15910 0.66699
#
# Static dielectric constant tensor:
#      x y z
#    x 2.180380 0.043520 0.060970 
#    y 0.043520 2.154780 0.011640 
#    z 0.060970 0.011640 2.214210 
# 
# From -- ./inp_files/3060.got.cif
#   From: 2010.05.17/outbox.cif.g08.bks.cpg/sg1_2_cif.got.tgz:3060.got - 2010.05.17 20:27:59.
