data_PCOD9000164
_publ_section_title
;
Structure prediction by ZEFSAII (Michael W. Deem and Ramdas Pophale) SiO2 
 PCOD9000164
Probable space group: P 1
;
_chemical_formula_sum "Si O2"
_cell_formula_units_Z 6
_cell_length_a 5.325908
_cell_length_b 5.325720
_cell_length_c 10.601720
_cell_angle_alpha 115.155784
_cell_angle_beta 115.156173
_cell_angle_gamma 70.666234
_cell_volume 242.187767
_symmetry_space_group_name_H-M "P 1"
_symmetry_group_IT_number 1
_symmetry_cell_setting 'triclinic'
loop_
_space_group_symop_operation_xyz
x,y,z
loop_
_atom_site_type_symbol
_atom_site_label
_atom_site_fract_x
_atom_site_fract_y
_atom_site_fract_z
Si Si1 0.803430 0.084400 0.525070
Si Si2 0.860088 0.140995 0.124118
Si Si3 0.374070 0.761843 0.248077
Si Si4 0.182626 0.570416 0.401117
Si Si5 0.323023 0.896715 0.992414
Si Si6 0.047777 0.621463 0.656788
O O1 0.859799 0.397124 0.611118
O O2 0.531835 0.013223 0.380130
O O3 0.844957 0.908991 0.627020
O O4 0.063035 0.904434 0.462375
O O5 0.931291 0.412581 0.269073
O O6 0.040041 0.881334 0.186779
O O7 0.547345 0.084711 0.038092
O O8 0.035481 0.099503 0.022171
O O9 0.397948 0.546542 0.324605
O O10 0.442013 0.718610 0.104767
O O11 0.225891 0.502510 0.544444
O O12 0.246443 0.698051 0.824602
#
# Coordination Sequence:
#
# PCOD9000164 Si02
#       6
#     1   1   1   1   1   1
#     4  10  24  44  72  99 142 184 237 283 346 418
#     4  10  24  44  72  99 142 184 237 283 346 418
#     4  10  22  40  72 104 135 186 238 280 345 414
#     4  10  22  40  72 104 135 186 238 280 345 414
#     4  10  24  46  70 103 147 180 235 291 359 406
#     4  10  24  46  70 103 147 180 235 291 359 406
#
# _framework density 24.774162
#
# number of rings (size 3 to 8) (size 9 to 14) (size 15 to 20)
#    2.000    0.000    0.000    3.000    4.667    2.667 
#    6.000    0.000    0.000    0.000    0.000    0.000 
#    0.000    0.000    0.000    0.000    0.000    0.000 
#
# Total GULP energy -33443.795603 kJ/mol
# GULP energy per Si atom -5573.965934 kJ/mol
# Density = 2.471777 g / cm^3
# Si number density = 24.774162 Si / 1000 Ang^3
#
#
#
# Elastic Constant Matrix: (Units=GPa)
#
#
# Indices 1 2 3 4 5 6 
#
# 1 136.3445 41.9083 74.7114 11.6149 17.6946 35.0085
# 2 41.9083 110.8005 60.7577 11.7771 10.1766 37.4592
# 3 74.7114 60.7577 237.1348 7.7039 9.1697 39.5301
# 4 11.6149 11.7771 7.7039 25.6229 6.0239 10.6511
# 5 17.6946 10.1766 9.1697 6.0239 27.7492 12.0068
# 6 35.0085 37.4592 39.5301 10.6511 12.0068 34.0990
#
#
#
# Elastic Compliance Matrix: (Units=1/GPa)
#
#
# Indices 1 2 3 4 5 6 
#
# 1 0.010798 -0.000161 -0.001993 -0.000454 -0.002843 -0.007455
# 2 -0.000161 0.014758 -0.001277 -0.000487 0.001717 -0.015018
# 3 -0.001993 -0.001277 0.005759 0.001127 0.001345 -0.004053
# 4 -0.000454 -0.000487 0.001127 0.045523 -0.004131 -0.013071
# 5 -0.002843 0.001717 0.001345 -0.004131 0.044054 -0.014748
# 6 -0.007455 -0.015018 -0.004053 -0.013071 -0.014748 0.067452
#
#
# Mechanical properties :
#
#
# Convention : Reuss Voigt Hill
#
# Bulk Modulus (GPa) = 40.89756 93.22607 67.06181
# Shear Modulus (GPa) = 24.58702 37.95439 31.27071
#
# Velocity S-wave (km/s) = 3.15373 3.91834 3.55664
# Velocity P-wave (km/s) = 5.45943 7.62780 6.63282
#
# Compressibility (1/GPa) = 0.02445134
#
# Stress axis : x y z
#
# Youngs Moduli (GPa) = 92.60920 67.75903 173.63456
#
# Poissons Ratio (x) = 0.01093 0.34609
# Poissons Ratio (y) = 0.01494 0.22181
# Poissons Ratio (z) = 0.18459 0.08656
#
# Static dielectric constant tensor:
#      x y z
#    x 2.083890 -0.135250 -0.040940 
#    y -0.135250 2.131640 -0.034360 
#    z -0.040940 -0.034360 1.889390 
# 
# From -- ./inp_files/150.got.cif
#   From: 2010.05.17/outbox.cif.g08.bks.cpg/sg1_1_cif.got.tgz:150.got - 2010.05.17 20:27:59.
