data_PCOD9000107
_publ_section_title
;
Structure prediction by ZEFSAII (Michael W. Deem and Ramdas Pophale) SiO2 
 PCOD9000107
Probable space group: P 1
;
_chemical_formula_sum "Si O2"
_cell_formula_units_Z 8
_cell_length_a 7.439085
_cell_length_b 8.071462
_cell_length_c 7.693063
_cell_angle_alpha 127.792402
_cell_angle_beta 98.250003
_cell_angle_gamma 107.975499
_cell_volume 311.369030
_symmetry_space_group_name_H-M "P 1"
_symmetry_group_IT_number 1
_symmetry_cell_setting 'triclinic'
loop_
_space_group_symop_operation_xyz
x,y,z
loop_
_atom_site_type_symbol
_atom_site_label
_atom_site_fract_x
_atom_site_fract_y
_atom_site_fract_z
Si Si1 0.791410 0.820020 0.273430
Si Si2 0.233630 0.742698 0.497129
Si Si3 0.469468 0.356051 0.458128
Si Si4 0.388385 0.835665 0.174379
Si Si5 0.180687 0.356465 0.716812
Si Si6 0.325716 0.213896 0.979979
Si Si7 0.807995 0.376297 0.075087
Si Si8 0.680887 0.831576 0.660333
O O1 0.721761 0.776181 0.437215
O O2 0.585151 0.794824 0.141380
O O3 0.845645 0.607158 0.104942
O O4 0.974281 0.102286 0.473953
O O5 0.437700 0.753754 0.613850
O O6 0.199529 0.939146 0.720417
O O7 0.312829 0.816876 0.353723
O O8 0.007163 0.504233 0.311520
O O9 0.351080 0.360611 0.614639
O O10 0.682530 0.618361 0.635144
O O11 0.317590 0.285406 0.220915
O O12 0.484948 0.115315 0.317653
O O13 0.200184 0.620665 0.896591
O O14 0.251209 0.342968 0.915650
O O15 0.568559 0.283839 0.037042
O O16 0.800500 0.124049 0.867127
#
# Coordination Sequence:
#
# PCOD9000107 Si02
#       8
#     1   1   1   1   1   1   1   1
#     4  11  22  44  73 102 134 184 233 279 354 410
#     4  10  21  44  75  99 136 187 228 286 350 402
#     4  12  26  47  69 104 147 184 228 286 350 410
#     4  11  24  45  70 105 142 180 230 290 344 412
#     4  12  25  46  74 101 139 188 230 289 346 409
#     4  11  22  44  72  97 142 182 226 287 341 409
#     4  11  20  41  74 101 133 186 234 280 348 412
#     4  10  24  41  69 103 137 181 231 285 345 410
#
# _framework density 25.692985
#
# number of rings (size 3 to 8) (size 9 to 14) (size 15 to 20)
#    0.000    1.000    5.000    1.500    3.500    0.000 
#    2.250    5.000    0.000    0.000    0.000    0.000 
#    0.000    0.000    0.000    0.000    0.000    0.000 
#
# Total GULP energy -44624.744232 kJ/mol
# GULP energy per Si atom -5578.093029 kJ/mol
# Density = 2.563451 g / cm^3
# Si number density = 25.692985 Si / 1000 Ang^3
#
#
#
# Elastic Constant Matrix: (Units=GPa)
#
#
# Indices 1 2 3 4 5 6 
#
# 1 68.8335 25.9093 31.2296 13.1478 8.4345 5.1422
# 2 25.9093 78.7884 56.7934 42.3896 -10.1604 -6.7774
# 3 31.2296 56.7934 176.8318 57.0751 -20.2728 -16.8248
# 4 13.1478 42.3896 57.0751 55.5829 -10.9777 -9.0995
# 5 8.4345 -10.1604 -20.2728 -10.9777 42.5402 10.7225
# 6 5.1422 -6.7774 -16.8248 -9.0995 10.7225 14.5484
#
#
#
# Elastic Compliance Matrix: (Units=1/GPa)
#
#
# Indices 1 2 3 4 5 6 
#
# 1 0.019226 -0.005794 -0.003156 0.000721 -0.004070 -0.009694
# 2 -0.005794 0.024052 -0.001632 -0.014783 0.002170 0.000520
# 3 -0.003156 -0.001632 0.009628 -0.006567 0.001558 0.006234
# 4 0.000721 -0.014783 -0.006567 0.037308 0.000807 0.008004
# 5 -0.004070 0.002170 0.001558 0.000807 0.030193 -0.017497
# 6 -0.009694 0.000520 0.006234 0.008004 -0.017497 0.097516
#
#
# Mechanical properties :
#
#
# Convention : Reuss Voigt Hill
#
# Bulk Modulus (GPa) = 31.50429 61.36870 46.43650
# Shear Modulus (GPa) = 20.02666 36.56907 28.29787
#
# Velocity S-wave (km/s) = 2.79491 3.77677 3.32231
# Velocity P-wave (km/s) = 4.76485 6.55408 5.72973
#
# Compressibility (1/GPa) = 0.03174171
#
# Stress axis : x y z
#
# Youngs Moduli (GPa) = 52.01317 41.57667 103.86367
#
# Poissons Ratio (x) = 0.24089 0.32782
# Poissons Ratio (y) = 0.30136 0.16950
# Poissons Ratio (z) = 0.16417 0.06785
#
# Static dielectric constant tensor:
#      x y z
#    x 2.063080 -0.107310 0.003100 
#    y -0.107310 2.207840 0.091750 
#    z 0.003100 0.091750 2.061560 
# 
# From -- ./inp_files/4426.got.cif
#   From: 2010.05.17/outbox.cif.g08.bks.cpg/sg1_3_cif.got.tgz:4426.got - 2010.05.17 20:27:59.
