data_PCOD9000626
_publ_section_title
;
Structure prediction by ZEFSAII (Michael W. Deem and Ramdas Pophale) SiO2 
 PCOD9000626
Probable space group: P 1
;
_chemical_formula_sum "Si O2"
_cell_formula_units_Z 8
_cell_length_a 5.266545
_cell_length_b 11.805701
_cell_length_c 8.287073
_cell_angle_alpha 140.414248
_cell_angle_beta 97.874620
_cell_angle_gamma 82.511993
_cell_volume 324.988679
_symmetry_space_group_name_H-M "P 1"
_symmetry_group_IT_number 1
_symmetry_cell_setting 'triclinic'
loop_
_space_group_symop_operation_xyz
x,y,z
loop_
_atom_site_type_symbol
_atom_site_label
_atom_site_fract_x
_atom_site_fract_y
_atom_site_fract_z
Si Si1 0.882920 0.930410 0.031250
Si Si2 0.228766 0.231301 0.353672
Si Si3 0.376398 0.373457 0.863066
Si Si4 0.888982 0.563539 0.154572
Si Si5 0.651319 0.899673 0.314635
Si Si6 0.166023 0.598045 0.555231
Si Si7 0.438896 0.902573 0.789756
Si Si8 0.173664 0.033995 0.596645
O O1 0.699052 0.884258 0.112346
O O2 0.739337 0.935112 0.850389
O O3 0.980617 0.128570 0.282766
O O4 0.066724 0.755485 0.839586
O O5 0.373277 0.292514 0.593713
O O6 0.193914 0.408407 0.436939
O O7 0.346011 0.067007 0.078065
O O8 0.278241 0.230443 0.825982
O O9 0.143663 0.520381 0.021270
O O10 0.661258 0.426382 0.983646
O O11 0.986401 0.582084 0.365699
O O12 0.742316 0.730078 0.240015
O O13 0.354899 0.946254 0.376142
O O14 0.872410 0.032959 0.536859
O O15 0.413263 0.697842 0.617656
O O16 0.268853 0.929444 0.647292
#
# Coordination Sequence:
#
# PCOD9000626 Si02
#       8
#     1   1   1   1   1   1   1   1
#     4  11  26  45  74 104 141 191 236 298 361 425
#     4  11  26  47  71 105 145 186 240 296 360 429
#     4  12  27  46  72 105 143 189 240 294 356 426
#     4  12  27  46  72 105 143 189 240 294 356 426
#     4  12  25  47  73 102 145 187 239 296 354 427
#     4  11  26  47  71 105 145 186 240 296 360 429
#     4  11  26  45  74 104 141 191 236 298 361 425
#     4  12  25  47  73 102 145 187 239 296 354 427
#
# _framework density 24.616242
#
# number of rings (size 3 to 8) (size 9 to 14) (size 15 to 20)
#    0.000    0.500    2.500    4.500   10.500    1.000 
#    0.000    0.000    0.000    0.000    0.000    0.000 
#    0.000    0.000    0.000    0.000    0.000    0.000 
#
# Total GULP energy -44684.715686 kJ/mol
# GULP energy per Si atom -5585.589461 kJ/mol
# Density = 2.456021 g / cm^3
# Si number density = 24.616242 Si / 1000 Ang^3
#
#
#
# Elastic Constant Matrix: (Units=GPa)
#
#
# Indices 1 2 3 4 5 6 
#
# 1 57.4787 3.6704 41.0171 2.9097 10.4994 2.8298
# 2 3.6704 150.7372 48.1049 27.4606 13.3205 -8.4726
# 3 41.0171 48.1049 126.6406 7.7567 25.1452 3.2559
# 4 2.9097 27.4606 7.7567 50.4005 -2.1978 -2.9310
# 5 10.4994 13.3205 25.1452 -2.1978 56.8467 -0.3681
# 6 2.8298 -8.4726 3.2559 -2.9310 -0.3681 28.5517
#
#
#
# Elastic Compliance Matrix: (Units=1/GPa)
#
#
# Indices 1 2 3 4 5 6 
#
# 1 0.023383 0.002355 -0.008084 -0.001498 -0.001358 -0.000868
# 2 0.002355 0.008745 -0.003686 -0.004242 -0.001003 0.002334
# 3 -0.008084 -0.003686 0.012578 0.000298 -0.003207 -0.001738
# 4 -0.001498 -0.004242 0.000298 0.022349 0.002010 0.001176
# 5 -0.001358 -0.001003 -0.003207 0.002010 0.019577 0.000661
# 6 -0.000868 0.002334 -0.001738 0.001176 0.000661 0.036130
#
#
# Mechanical properties :
#
#
# Convention : Reuss Voigt Hill
#
# Bulk Modulus (GPa) = 38.64589 57.82683 48.23636
# Shear Modulus (GPa) = 33.28493 43.29738 38.29116
#
# Velocity S-wave (km/s) = 3.68115 4.19847 3.94829
# Velocity P-wave (km/s) = 5.81389 6.85895 6.35793
#
# Compressibility (1/GPa) = 0.02587598
#
# Stress axis : x y z
#
# Youngs Moduli (GPa) = 42.76627 114.34474 79.50508
#
# Poissons Ratio (x) = -0.26925 0.64272
# Poissons Ratio (y) = -0.10070 0.29304
# Poissons Ratio (z) = 0.34573 0.42145
#
# Static dielectric constant tensor:
#      x y z
#    x 2.117640 0.018460 -0.013830 
#    y 0.018460 1.943870 0.013100 
#    z -0.013830 0.013100 2.007100 
# 
# From -- ./inp_files/1679.got.cif
#   From: 2010.05.17/outbox.cif.g08.bks.cpg/sg1_1_cif.got.tgz:1679.got - 2010.05.17 20:27:59.
