data_PCOD9000376
_publ_section_title
;
Structure prediction by ZEFSAII (Michael W. Deem and Ramdas Pophale) SiO2 
 PCOD9000376
Probable space group: P 1
;
_chemical_formula_sum "Si O2"
_cell_formula_units_Z 8
_cell_length_a 11.955536
_cell_length_b 11.770976
_cell_length_c 4.874962
_cell_angle_alpha 82.886471
_cell_angle_beta 82.459972
_cell_angle_gamma 25.271175
_cell_volume 290.320688
_symmetry_space_group_name_H-M "P 1"
_symmetry_group_IT_number 1
_symmetry_cell_setting 'triclinic'
loop_
_space_group_symop_operation_xyz
x,y,z
loop_
_atom_site_type_symbol
_atom_site_label
_atom_site_fract_x
_atom_site_fract_y
_atom_site_fract_z
Si Si1 0.830620 0.060380 0.475850
Si Si2 0.373549 0.719620 0.949583
Si Si3 0.022667 0.582809 0.847115
Si Si4 0.722790 0.929212 0.330480
Si Si5 0.893239 0.243190 0.556111
Si Si6 0.311309 0.536092 0.854319
Si Si7 0.382163 0.068486 0.740552
Si Si8 0.333964 0.956912 0.282467
O O1 0.859846 0.167568 0.378279
O O2 0.588746 0.276900 0.697720
O O3 0.743600 0.047861 0.280629
O O4 0.087779 0.783723 0.639227
O O5 0.633234 0.494462 0.745337
O O6 0.323495 0.629176 0.039562
O O7 0.402932 0.768176 0.198476
O O8 0.126677 0.993204 0.769309
O O9 0.961797 0.677939 0.531425
O O10 0.228407 0.481205 0.955736
O O11 0.111019 0.372537 0.846933
O O12 0.771121 0.834130 0.045005
O O13 0.496741 0.073547 0.534171
O O14 0.016835 0.235607 0.350905
O O15 0.452106 0.933751 0.028369
O O16 0.414274 0.939629 0.545798
#
# Coordination Sequence:
#
# PCOD9000376 Si02
#       8
#     1   1   1   1   1   1   1   1
#     4   9  19  41  72 106 144 180 234 299 361 425
#     4  10  23  46  73 108 143 188 240 297 361 424
#     4  11  24  44  71 104 140 186 237 297 359 423
#     4  11  24  44  71 104 140 186 237 297 359 423
#     4  10  23  46  73 108 143 188 240 297 361 424
#     4   9  19  41  72 106 144 180 234 299 361 425
#     4  12  26  48  68 104 140 192 240 292 352 434
#     4  12  26  46  72 102 148 192 242 292 354 434
#
# _framework density 27.555737000000001
#
# number of rings (size 3 to 8) (size 9 to 14) (size 15 to 20)
#    0.000    1.500    2.500    1.500    1.750    4.000 
#    4.500    0.000    0.000    0.000    0.000    0.000 
#    0.000    0.000    0.000    0.000    0.000    0.000 
#
# Total GULP energy -44725.654783 kJ/mol
# GULP energy per Si atom -5590.706848 kJ/mol
# Density = 2.749302 g / cm^3
# Si number density = 27.555737 Si / 1000 Ang^3
#
#
#
# Elastic Constant Matrix: (Units=GPa)
#
#
# Indices 1 2 3 4 5 6 
#
# 1 121.2796 31.5110 46.8274 6.2269 -6.2575 6.0549
# 2 31.5110 105.4005 49.1003 15.3118 10.0524 5.8127
# 3 46.8274 49.1003 146.6045 25.5531 4.0586 1.8694
# 4 6.2269 15.3118 25.5531 25.3071 5.0206 4.7268
# 5 -6.2575 10.0524 4.0586 5.0206 48.4315 20.4413
# 6 6.0549 5.8127 1.8694 4.7268 20.4413 40.0298
#
#
#
# Elastic Compliance Matrix: (Units=1/GPa)
#
#
# Indices 1 2 3 4 5 6 
#
# 1 0.010095 -0.002044 -0.002861 0.001573 0.002991 -0.002810
# 2 -0.002044 0.012092 -0.002694 -0.003693 -0.002284 0.000282
# 3 -0.002861 -0.002694 0.010021 -0.007979 -0.000473 0.001540
# 4 0.001573 -0.003693 -0.007979 0.050588 -0.001743 -0.004412
# 5 0.002991 -0.002284 -0.000473 -0.001743 0.027641 -0.014008
# 6 -0.002810 0.000282 0.001540 -0.004412 -0.014008 0.032968
#
#
# Mechanical properties :
#
#
# Convention : Reuss Voigt Hill
#
# Bulk Modulus (GPa) = 58.78570 69.79577 64.29073
# Shear Modulus (GPa) = 30.43708 39.14341 34.79025
#
# Velocity S-wave (km/s) = 3.32710 3.77306 3.55708
# Velocity P-wave (km/s) = 6.01159 6.66073 6.34446
#
# Compressibility (1/GPa) = 0.01701094
#
# Stress axis : x y z
#
# Youngs Moduli (GPa) = 99.05867 82.69662 99.78812
#
# Poissons Ratio (x) = 0.16904 0.28550
# Poissons Ratio (y) = 0.20249 0.26880
# Poissons Ratio (z) = 0.28341 0.22276
#
# Static dielectric constant tensor:
#      x y z
#    x 2.276660 -0.031280 -0.028850 
#    y -0.031280 2.207920 -0.012690 
#    z -0.028850 -0.012690 2.058950 
# 
# From -- ./inp_files/703.got.cif
#   From: 2010.05.17/outbox.cif.g08.bks.cpg/sg1_1_cif.got.tgz:703.got - 2010.05.17 20:27:59.
