data_PCOD9000242
_publ_section_title
;
Structure prediction by ZEFSAII (Michael W. Deem and Ramdas Pophale) SiO2 
 PCOD9000242
Probable space group: P 1
;
_chemical_formula_sum "Si O2"
_cell_formula_units_Z 8
_cell_length_a 8.339371
_cell_length_b 13.463353
_cell_length_c 6.446529
_cell_angle_alpha 72.292001
_cell_angle_beta 78.657651
_cell_angle_gamma 31.696636
_cell_volume 359.474640
_symmetry_space_group_name_H-M "P 1"
_symmetry_group_IT_number 1
_symmetry_cell_setting 'triclinic'
loop_
_space_group_symop_operation_xyz
x,y,z
loop_
_atom_site_type_symbol
_atom_site_label
_atom_site_fract_x
_atom_site_fract_y
_atom_site_fract_z
Si Si1 0.276760 0.792880 0.748760
Si Si2 0.658411 0.043412 0.859177
Si Si3 0.580819 0.820839 0.420881
Si Si4 0.550278 0.286458 0.002762
Si Si5 0.238106 0.938865 0.037474
Si Si6 0.123339 0.628801 0.228748
Si Si7 0.227526 0.144953 0.609439
Si Si8 0.538768 0.483093 0.573460
O O1 0.459461 0.788219 0.599660
O O2 0.387826 0.632731 0.699416
O O3 0.335155 0.784701 0.981593
O O4 0.905559 0.985411 0.716988
O O5 0.874759 0.836655 0.039830
O O6 0.500788 0.197719 0.980600
O O7 0.415087 0.127467 0.706952
O O8 0.474371 0.849390 0.201580
O O9 0.936648 0.654978 0.417318
O O10 0.410994 0.012552 0.441275
O O11 0.314239 0.458180 0.122205
O O12 0.556034 0.360782 0.756039
O O13 0.901380 0.100838 0.116537
O O14 0.215772 0.047191 0.816259
O O15 0.344766 0.575594 0.355155
O O16 0.869421 0.356429 0.522755
#
# Coordination Sequence:
#
# PCOD9000242 Si02
#       8
#     1   1   1   1   1   1   1   1
#     4  10  23  40  68  98 135 178 219 277 336 396
#     4  11  23  47  72  97 135 182 223 277 339 396
#     4  11  23  40  68  99 135 174 225 275 333 400
#     4  10  24  43  68  96 139 178 221 278 336 399
#     4   9  20  42  65  97 131 176 217 273 335 392
#     4  12  25  44  70 102 135 176 230 279 329 402
#     4  10  22  44  65  96 137 176 218 279 335 395
#     4  11  24  44  68 101 139 176 225 280 335 398
#
# _framework density 22.254702000000002
#
# number of rings (size 3 to 8) (size 9 to 14) (size 15 to 20)
#    0.000    1.500    2.500    2.250    3.500    2.000 
#    4.500    0.000    0.000    0.000    0.000    0.000 
#    0.000    0.000    0.000    0.000    0.000    0.000 
#
# Total GULP energy -44656.782647 kJ/mol
# GULP energy per Si atom -5582.097831 kJ/mol
# Density = 2.220405 g / cm^3
# Si number density = 22.254702 Si / 1000 Ang^3
#
#
#
# Elastic Constant Matrix: (Units=GPa)
#
#
# Indices 1 2 3 4 5 6 
#
# 1 148.2596 66.2641 56.1399 13.2249 34.7371 -13.5806
# 2 66.2641 116.8063 56.0847 34.8216 28.4801 3.2686
# 3 56.1399 56.0847 63.3596 16.0022 22.8173 -11.0866
# 4 13.2249 34.8216 16.0022 38.0480 0.1901 9.5575
# 5 34.7371 28.4801 22.8173 0.1901 58.3836 3.8394
# 6 -13.5806 3.2686 -11.0866 9.5575 3.8394 43.4242
#
#
#
# Elastic Compliance Matrix: (Units=1/GPa)
#
#
# Indices 1 2 3 4 5 6 
#
# 1 0.011212 -0.003116 -0.005918 0.000881 -0.002992 0.002301
# 2 -0.003116 0.020265 -0.011328 -0.012070 -0.003405 -0.002435
# 3 -0.005918 -0.011328 0.036172 -0.005246 -0.005723 0.009898
# 4 0.000881 -0.012070 -0.005246 0.041711 0.007938 -0.010038
# 5 -0.002992 -0.003405 -0.005723 0.007938 0.023170 -0.005936
# 6 0.002301 -0.002435 0.009898 -0.010038 -0.005936 0.029192
#
#
# Mechanical properties :
#
#
# Convention : Reuss Voigt Hill
#
# Bulk Modulus (GPa) = 37.14278 76.15587 56.64933
# Shear Modulus (GPa) = 23.64920 37.96697 30.80809
#
# Velocity S-wave (km/s) = 3.26338 4.13488 3.72471
# Velocity P-wave (km/s) = 5.56108 7.55584 6.63387
#
# Compressibility (1/GPa) = 0.02692314
#
# Stress axis : x y z
#
# Youngs Moduli (GPa) = 89.19061 49.34608 27.64542
#
# Poissons Ratio (x) = 0.15378 0.16361
# Poissons Ratio (y) = 0.27796 0.31318
# Poissons Ratio (z) = 0.52786 0.55901
#
# Static dielectric constant tensor:
#      x y z
#    x 1.842490 0.028480 -0.049280 
#    y 0.028480 1.848820 -0.008480 
#    z -0.049280 -0.008480 1.840330 
# 
# From -- ./inp_files/1878.got.cif
#   From: 2010.05.17/outbox.cif.g08.bks.cpg/sg1_1_cif.got.tgz:1878.got - 2010.05.17 20:27:59.
