data_PCOD9000883
_publ_section_title
;
Structure prediction by ZEFSAII (Michael W. Deem and Ramdas Pophale) SiO2 
 PCOD9000883
Probable space group: P 1
;
_chemical_formula_sum "Si O2"
_cell_formula_units_Z 8
_cell_length_a 11.639914
_cell_length_b 7.276516
_cell_length_c 8.771071
_cell_angle_alpha 51.585746
_cell_angle_beta 144.661235
_cell_angle_gamma 140.624263
_cell_volume 272.514333
_symmetry_space_group_name_H-M "P 1"
_symmetry_group_IT_number 1
_symmetry_cell_setting 'triclinic'
loop_
_space_group_symop_operation_xyz
x,y,z
loop_
_atom_site_type_symbol
_atom_site_label
_atom_site_fract_x
_atom_site_fract_y
_atom_site_fract_z
Si Si1 0.858050 0.159210 0.825240
Si Si2 0.836027 0.005114 0.553375
Si Si3 0.220920 0.964471 0.526091
Si Si4 0.648248 0.481866 0.918355
Si Si5 0.198454 0.693156 0.359987
Si Si6 0.367950 0.481392 0.216320
Si Si7 0.384323 0.214281 0.084414
Si Si8 0.907954 0.109611 0.239420
O O1 0.844468 0.184431 0.612382
O O2 0.705803 0.801143 0.834645
O O3 0.799831 0.151868 0.947651
O O4 0.134320 0.487602 0.963475
O O5 0.788828 0.057806 0.302327
O O6 0.099653 0.061210 0.809158
O O7 0.595450 0.676741 0.470266
O O8 0.455152 0.201164 0.752371
O O9 0.212942 0.148832 0.280981
O O10 0.984144 0.891868 0.399315
O O11 0.240097 0.741538 0.562678
O O12 0.554050 0.339460 0.057912
O O13 0.919287 0.592381 0.098910
O O14 0.172568 0.419788 0.400215
O O15 0.378233 0.978448 0.307333
O O16 0.448455 0.465349 0.143578
#
# Coordination Sequence:
#
# PCOD9000883 Si02
#       8
#     1   1   1   1   1   1   1   1
#     4  10  21  39  64  97 130 171 219 269 323 393
#     4  11  19  39  66  97 128 176 223 261 328 401
#     4  10  20  41  65  87 126 179 209 265 326 388
#     4  12  19  40  69  92 130 175 216 265 334 392
#     4  11  24  46  59  99 138 164 223 279 318 393
#     4   9  17  34  62  91 123 166 215 266 310 385
#     4  10  21  36  66  93 125 179 216 261 339 387
#     4  11  23  43  67  94 136 172 219 276 328 385
#
# _framework density 29.356254
#
# number of rings (size 3 to 8) (size 9 to 14) (size 15 to 20)
#    0.000    1.500    7.500    0.750    0.000    0.000 
#    9.000    0.000    0.000    0.000    0.000    0.000 
#    0.000    0.000    0.000    0.000    0.000    0.000 
#
# Total GULP energy -44556.495728 kJ/mol
# GULP energy per Si atom -5569.561966 kJ/mol
# Density = 2.928944 g / cm^3
# Si number density = 29.356254 Si / 1000 Ang^3
#
#
#
# Elastic Constant Matrix: (Units=GPa)
#
#
# Indices 1 2 3 4 5 6 
#
# 1 190.7968 28.3045 73.8740 0.4074 -39.7380 17.6821
# 2 28.3045 83.2322 45.1142 10.9530 -15.3579 4.4110
# 3 73.8740 45.1142 98.5622 30.0050 -51.9342 -10.2292
# 4 0.4074 10.9530 30.0050 66.0370 -2.6355 -9.8374
# 5 -39.7380 -15.3579 -51.9342 -2.6355 67.1515 11.2375
# 6 17.6821 4.4110 -10.2292 -9.8374 11.2375 52.6910
#
#
#
# Elastic Compliance Matrix: (Units=1/GPa)
#
#
# Indices 1 2 3 4 5 6 
#
# 1 0.008717 0.001578 -0.008936 0.003113 -0.000586 -0.004086
# 2 0.001578 0.017167 -0.011958 0.001961 -0.003790 -0.003114
# 3 -0.008936 -0.011958 0.037040 -0.013338 0.019334 0.004577
# 4 0.003113 0.001961 -0.013338 0.020811 -0.007490 0.001685
# 5 -0.000586 -0.003790 0.019334 -0.007490 0.028888 -0.003292
# 6 -0.004086 -0.003114 0.004577 0.001685 -0.003292 0.022516
#
#
# Mechanical properties :
#
#
# Convention : Reuss Voigt Hill
#
# Bulk Modulus (GPa) = 41.16539 74.13073 57.64806
# Shear Modulus (GPa) = 27.49254 52.19581 39.84417
#
# Velocity S-wave (km/s) = 3.06357 4.22122 3.68810
# Velocity P-wave (km/s) = 5.15433 7.00466 6.14949
#
# Compressibility (1/GPa) = 0.02429225
#
# Stress axis : x y z
#
# Youngs Moduli (GPa) = 114.71648 58.25157 26.99786
#
# Poissons Ratio (x) = -0.09193 0.24127
# Poissons Ratio (y) = -0.18105 0.32283
# Poissons Ratio (z) = 1.02516 0.69655
#
# Static dielectric constant tensor:
#      x y z
#    x 2.700610 0.006280 0.602460 
#    y 0.006280 2.455460 -0.073000 
#    z 0.602460 -0.073000 3.001970 
# 
# From -- ./inp_files/5374.got.cif
#   From: 2010.05.17/outbox.cif.g08.bks.cpg/sg1_3_cif.got.tgz:5374.got - 2010.05.17 20:27:59.
