data_PCOD9000822
_publ_section_title
;
Structure prediction by ZEFSAII (Michael W. Deem and Ramdas Pophale) SiO2 
 PCOD9000822
Probable space group: P 1
;
_chemical_formula_sum "Si O2"
_cell_formula_units_Z 8
_cell_length_a 8.736968
_cell_length_b 7.061407
_cell_length_c 7.160079
_cell_angle_alpha 124.056844
_cell_angle_beta 70.249329
_cell_angle_gamma 122.916403
_cell_volume 306.865231
_symmetry_space_group_name_H-M "P 1"
_symmetry_group_IT_number 1
_symmetry_cell_setting 'triclinic'
loop_
_space_group_symop_operation_xyz
x,y,z
loop_
_atom_site_type_symbol
_atom_site_label
_atom_site_fract_x
_atom_site_fract_y
_atom_site_fract_z
Si Si1 0.674580 0.553240 0.302940
Si Si2 0.285975 0.392185 0.420286
Si Si3 0.342658 0.562141 0.922218
Si Si4 0.005829 0.593106 0.625007
Si Si5 0.776544 0.128338 0.690454
Si Si6 0.677812 0.071938 0.103067
Si Si7 0.074106 0.799293 0.115815
Si Si8 0.028383 0.083794 0.837258
O O1 0.465824 0.437625 0.257370
O O2 0.706313 0.839941 0.496482
O O3 0.862386 0.626574 0.155573
O O4 0.664404 0.322981 0.318944
O O5 0.355191 0.506333 0.664446
O O6 0.164972 0.522996 0.463686
O O7 0.154666 0.089765 0.308065
O O8 0.531981 0.782256 0.044512
O O9 0.205852 0.688006 0.077559
O O10 0.236560 0.278434 0.896441
O O11 0.979673 0.799628 0.625255
O O12 0.828077 0.340231 0.626837
O O13 0.078803 0.778812 0.879049
O O14 0.971956 0.209884 0.754627
O O15 0.652008 0.106821 0.908570
O O16 0.877302 0.082320 0.045649
#
# Coordination Sequence:
#
# PCOD9000822 Si02
#       8
#     1   1   1   1   1   1   1   1
#     4  12  19  35  67  89 113 156 198 243 296 344
#     4  11  21  35  63  89 115 155 196 242 291 347
#     4  11  19  39  62  88 118 156 199 237 296 353
#     4  11  22  41  61  86 122 161 192 240 296 350
#     4  10  20  39  63  86 117 159 192 241 299 341
#     4  10  20  37  61  91 114 156 195 242 294 346
#     4  11  20  36  61  87 117 154 197 239 291 349
#     4  10  21  42  60  84 124 157 193 242 293 348
#
# _framework density 26.070080000000001
#
# number of rings (size 3 to 8) (size 9 to 14) (size 15 to 20)
#    0.750    0.500    8.750    0.000    0.000    0.000 
#    4.500    0.000    2.750    0.000    0.000    0.000 
#    0.000    0.000    0.000    0.000    0.000    0.000 
#
# Total GULP energy -44633.168371 kJ/mol
# GULP energy per Si atom -5579.146046 kJ/mol
# Density = 2.601074 g / cm^3
# Si number density = 26.070080 Si / 1000 Ang^3
#
#
#
# Elastic Constant Matrix: (Units=GPa)
#
#
# Indices 1 2 3 4 5 6 
#
# 1 50.6255 52.7801 32.1699 -2.5982 -4.3926 6.9765
# 2 52.7801 174.5716 42.0555 38.4978 -6.8254 27.4279
# 3 32.1699 42.0555 104.3079 26.2924 -17.0203 1.1558
# 4 -2.5982 38.4978 26.2924 57.7851 2.0448 -5.2914
# 5 -4.3926 -6.8254 -17.0203 2.0448 40.1100 5.2329
# 6 6.9765 27.4279 1.1558 -5.2914 5.2329 46.3180
#
#
#
# Elastic Compliance Matrix: (Units=1/GPa)
#
#
# Indices 1 2 3 4 5 6 
#
# 1 0.043601 -0.015249 -0.012868 0.018650 -0.004945 0.005473
# 2 -0.015249 0.013587 0.002859 -0.011853 0.003446 -0.007564
# 3 -0.012868 0.002859 0.016100 -0.010237 0.006703 -0.002083
# 4 0.018650 -0.011853 -0.010237 0.031764 -0.007098 0.008896
# 5 -0.004945 0.003446 0.006703 -0.007098 0.028905 -0.005540
# 6 0.005473 -0.007564 -0.002083 0.008896 -0.005540 0.026939
#
#
# Mechanical properties :
#
#
# Convention : Reuss Voigt Hill
#
# Bulk Modulus (GPa) = 43.91234 64.83512 54.37373
# Shear Modulus (GPa) = 22.83075 42.34257 32.58666
#
# Velocity S-wave (km/s) = 2.96251 4.03449 3.53932
# Velocity P-wave (km/s) = 5.34626 6.82835 6.13224
#
# Compressibility (1/GPa) = 0.02277264
#
# Stress axis : x y z
#
# Youngs Moduli (GPa) = 22.93507 73.60041 62.11116
#
# Poissons Ratio (x) = 1.12231 0.79924
# Poissons Ratio (y) = 0.34973 -0.17755
# Poissons Ratio (z) = 0.29513 -0.21040
#
# Static dielectric constant tensor:
#      x y z
#    x 2.115990 -0.123080 -0.003850 
#    y -0.123080 2.148630 0.018660 
#    z -0.003850 0.018660 2.185280 
# 
# From -- ./inp_files/6562.got.cif
#   From: 2010.05.17/outbox.cif.g08.bks.cpg/sg1_4_cif.got.tgz:6562.got - 2010.05.17 20:27:59.
