data_PCOD9000875
_publ_section_title
;
Structure prediction by ZEFSAII (Michael W. Deem and Ramdas Pophale) SiO2 
 PCOD9000875
Probable space group: P 1
;
_chemical_formula_sum "Si O2"
_cell_formula_units_Z 8
_cell_length_a 13.983175
_cell_length_b 7.915539
_cell_length_c 5.624697
_cell_angle_alpha 87.621728
_cell_angle_beta 55.803354
_cell_angle_gamma 131.721228
_cell_volume 284.242469
_symmetry_space_group_name_H-M "P 1"
_symmetry_group_IT_number 1
_symmetry_cell_setting 'triclinic'
loop_
_space_group_symop_operation_xyz
x,y,z
loop_
_atom_site_type_symbol
_atom_site_label
_atom_site_fract_x
_atom_site_fract_y
_atom_site_fract_z
Si Si1 0.136490 0.781570 0.205060
Si Si2 0.242217 0.751974 0.479651
Si Si3 0.821440 0.246104 0.397400
Si Si4 0.565678 0.581302 0.840272
Si Si5 0.525924 0.630347 0.397664
Si Si6 0.989141 0.943685 0.209871
Si Si7 0.023884 0.173751 0.649329
Si Si8 0.505624 0.996432 0.482718
O O1 0.187680 0.855336 0.407584
O O2 0.908244 0.410740 0.522632
O O3 0.084044 0.875946 0.111529
O O4 0.337341 0.918169 0.837550
O O5 0.198306 0.532616 0.393258
O O6 0.470861 0.023288 0.259424
O O7 0.047676 0.488138 0.947184
O O8 0.689164 0.914344 0.634322
O O9 0.696597 0.213975 0.389302
O O10 0.458609 0.449547 0.740497
O O11 0.462230 0.467661 0.248302
O O12 0.737635 0.644744 0.589037
O O13 0.453412 0.734870 0.522702
O O14 0.780574 0.936081 0.016496
O O15 0.044732 0.109011 0.369040
O O16 0.045211 0.093931 0.868906
#
# Coordination Sequence:
#
# PCOD9000875 Si02
#       8
#     1   1   1   1   1   1   1   1
#     4  11  25  37  66  97 127 171 212 258 331 382
#     4  11  22  38  66 101 116 171 220 262 319 375
#     4  10  21  41  64  92 124 166 217 269 309 378
#     4   9  17  34  64  86 111 165 207 250 309 359
#     4   9  17  33  59  89 113 155 204 261 298 354
#     4  10  21  38  63  90 131 170 206 259 322 391
#     4  10  20  40  69  87 124 173 215 259 319 376
#     4  10  23  37  63  96 130 157 217 270 317 373
#
# _framework density 28.144984000000001
#
# number of rings (size 3 to 8) (size 9 to 14) (size 15 to 20)
#    0.000    2.000    3.750    1.500    8.750    0.000 
#    0.000    0.000   13.750    0.000    0.000    0.000 
#    0.000    0.000    0.000    0.000    0.000    0.000 
#
# Total GULP energy -44706.137645 kJ/mol
# GULP energy per Si atom -5588.267206 kJ/mol
# Density = 2.808092 g / cm^3
# Si number density = 28.144984 Si / 1000 Ang^3
#
#
#
# Elastic Constant Matrix: (Units=GPa)
#
#
# Indices 1 2 3 4 5 6 
#
# 1 252.1998 53.4990 73.8274 12.2732 6.1829 19.1693
# 2 53.4990 83.2161 29.3146 19.0445 4.2339 20.9449
# 3 73.8274 29.3146 75.9270 12.5379 -8.4792 11.3966
# 4 12.2732 19.0445 12.5379 34.1924 16.1233 10.1473
# 5 6.1829 4.2339 -8.4792 16.1233 79.4694 3.1513
# 6 19.1693 20.9449 11.3966 10.1473 3.1513 47.6140
#
#
#
# Elastic Compliance Matrix: (Units=1/GPa)
#
#
# Indices 1 2 3 4 5 6 
#
# 1 0.005965 -0.002183 -0.005317 0.001751 -0.001252 -0.000459
# 2 -0.002183 0.016975 -0.002595 -0.006596 0.000509 -0.004595
# 3 -0.005317 -0.002595 0.020888 -0.005994 0.004025 -0.000706
# 4 0.001751 -0.006596 -0.005994 0.039673 -0.008304 -0.004275
# 5 -0.001252 0.000509 0.004025 -0.008304 0.014764 0.000110
# 6 -0.000459 -0.004595 -0.000706 -0.004275 0.000110 0.024281
#
#
# Mechanical properties :
#
#
# Convention : Reuss Voigt Hill
#
# Bulk Modulus (GPa) = 42.30779 80.51387 61.41083
# Shear Modulus (GPa) = 33.19679 49.23529 41.21604
#
# Velocity S-wave (km/s) = 3.43810 4.18705 3.83092
# Velocity P-wave (km/s) = 5.55207 7.21416 6.43699
#
# Compressibility (1/GPa) = 0.02363631
#
# Stress axis : x y z
#
# Youngs Moduli (GPa) = 167.63818 58.91059 47.87411
#
# Poissons Ratio (x) = 0.12863 0.25457
# Poissons Ratio (y) = 0.36603 0.12423
# Poissons Ratio (z) = 0.89141 0.15287
#
# Static dielectric constant tensor:
#      x y z
#    x 2.194190 0.043060 0.082100 
#    y 0.043060 2.451490 0.194740 
#    z 0.082100 0.194740 2.315680 
# 
# From -- ./inp_files/1665.got.cif
#   From: 2010.05.17/outbox.cif.g08.bks.cpg/sg1_1_cif.got.tgz:1665.got - 2010.05.17 20:27:59.
