data_PCOD9000529
_publ_section_title
;
Structure prediction by ZEFSAII (Michael W. Deem and Ramdas Pophale) SiO2 
 PCOD9000529
Probable space group: P 1
;
_chemical_formula_sum "Si O2"
_cell_formula_units_Z 8
_cell_length_a 10.831980
_cell_length_b 7.595508
_cell_length_c 5.240242
_cell_angle_alpha 117.613552
_cell_angle_beta 96.522655
_cell_angle_gamma 81.688861
_cell_volume 377.482144
_symmetry_space_group_name_H-M "P 1"
_symmetry_group_IT_number 1
_symmetry_cell_setting 'triclinic'
loop_
_space_group_symop_operation_xyz
x,y,z
loop_
_atom_site_type_symbol
_atom_site_label
_atom_site_fract_x
_atom_site_fract_y
_atom_site_fract_z
Si Si1 0.146610 0.410250 0.750000
Si Si2 0.658350 0.583130 0.866610
Si Si3 0.048081 0.582177 0.343809
Si Si4 0.774921 0.752236 0.515682
Si Si5 0.358004 0.205223 0.947075
Si Si6 0.444774 0.887356 0.122695
Si Si7 0.609209 0.140536 0.637205
Si Si8 0.292068 0.651804 0.258890
O O1 0.082596 0.425823 0.474902
O O2 0.244211 0.223914 0.728537
O O3 0.049837 0.462420 0.995406
O O4 0.236539 0.589837 0.926995
O O5 0.743016 0.653878 0.708855
O O6 0.654419 0.348178 0.708596
O O7 0.705279 0.649222 0.198726
O O8 0.518954 0.697288 0.875363
O O9 0.166589 0.710363 0.425736
O O10 0.920822 0.712947 0.462671
O O11 0.718180 0.982556 0.663765
O O12 0.492637 0.179858 0.828878
O O13 0.344908 0.429414 0.218791
O O14 0.349751 0.025772 0.020334
O O15 0.388305 0.804876 0.314017
O O16 0.549438 0.032080 0.314206
#
# Coordination Sequence:
#
# PCOD9000529 Si02
#       8
#     1   1   1   1   1   1   1   1
#     4   8  19  36  66  83 127 162 198 262 306 354
#     4  11  24  41  63  99 125 168 209 265 312 374
#     4   9  19  41  65  89 120 176 204 255 312 370
#     4  11  24  42  70  88 128 172 214 252 322 368
#     4   9  20  36  59  94 125 161 204 255 311 378
#     4  11  21  39  63  99 128 172 198 258 333 377
#     4  11  24  37  65  96 129 162 213 263 313 380
#     4   8  21  36  63  90 132 161 204 262 309 373
#
# _framework density 21.193055000000001
#
# number of rings (size 3 to 8) (size 9 to 14) (size 15 to 20)
#    1.500    0.500    2.500    0.750    5.250    1.000 
#    0.000    2.500   13.750    0.000    0.000    0.000 
#    0.000    0.000    0.000    0.000    0.000    0.000 
#
# Total GULP energy -44575.972180 kJ/mol
# GULP energy per Si atom -5571.996523 kJ/mol
# Density = 2.114482 g / cm^3
# Si number density = 21.193055 Si / 1000 Ang^3
#
#
#
# Elastic Constant Matrix: (Units=GPa)
#
#
# Indices 1 2 3 4 5 6 
#
# 1 114.1254 49.4712 7.1354 9.4973 -43.4110 -21.6970
# 2 49.4712 128.7886 17.0130 14.0310 -12.6030 -7.5491
# 3 7.1354 17.0130 41.2718 -3.7295 -9.9818 3.8997
# 4 9.4973 14.0310 -3.7295 31.8982 0.2720 -2.5412
# 5 -43.4110 -12.6030 -9.9818 0.2720 33.5245 -1.1108
# 6 -21.6970 -7.5491 3.8997 -2.5412 -1.1108 25.0818
#
#
#
# Elastic Compliance Matrix: (Units=1/GPa)
#
#
# Indices 1 2 3 4 5 6 
#
# 1 0.033682 -0.007199 0.004574 -0.004488 0.043226 0.027719
# 2 -0.007199 0.010692 -0.004835 -0.003297 -0.006811 -0.002893
# 3 0.004574 -0.004835 0.028949 0.003959 0.012659 -0.001038
# 4 -0.004488 -0.003297 0.003959 0.034471 -0.006227 -0.002273
# 5 0.043226 -0.006811 0.012659 -0.006227 0.088276 0.036653
# 6 0.027719 -0.002893 -0.001038 -0.002273 0.036653 0.064531
#
#
# Mechanical properties :
#
#
# Convention : Reuss Voigt Hill
#
# Bulk Modulus (GPa) = 17.12203 47.93611 32.52907
# Shear Modulus (GPa) = 16.94987 32.13863 24.54425
#
# Velocity S-wave (km/s) = 2.83111 3.89841 3.40682
# Velocity P-wave (km/s) = 4.33400 6.55220 5.55495
#
# Compressibility (1/GPa) = 0.05840428
#
# Stress axis : x y z
#
# Youngs Moduli (GPa) = 29.68921 93.53060 34.54352
#
# Poissons Ratio (x) = 0.67331 -0.15800
# Poissons Ratio (y) = 0.21373 0.16700
# Poissons Ratio (z) = -0.13580 0.45218
#
# Static dielectric constant tensor:
#      x y z
#    x 1.782330 -0.019040 0.015220 
#    y -0.019040 1.759110 -0.000300 
#    z 0.015220 -0.000300 1.839280 
# 
# From -- ./inp_files/1998.got.cif
#   From: 2010.05.17/outbox.cif.g08.bks.cpg/sg1_1_cif.got.tgz:1998.got - 2010.05.17 20:27:59.
