data_PCOD9000902
_publ_section_title
;
Structure prediction by ZEFSAII (Michael W. Deem and Ramdas Pophale) SiO2 
 PCOD9000902
Probable space group: P 1
;
_chemical_formula_sum "Si O2"
_cell_formula_units_Z 8
_cell_length_a 7.879235
_cell_length_b 4.094169
_cell_length_c 7.879259
_cell_angle_alpha 90.000274
_cell_angle_beta 91.862568
_cell_angle_gamma 89.999909
_cell_volume 254.042093
_symmetry_space_group_name_H-M "P 1"
_symmetry_group_IT_number 1
_symmetry_cell_setting 'triclinic'
loop_
_space_group_symop_operation_xyz
x,y,z
loop_
_atom_site_type_symbol
_atom_site_label
_atom_site_fract_x
_atom_site_fract_y
_atom_site_fract_z
Si Si1 0.689400 0.303820 0.015780
Si Si2 0.429054 0.726962 0.776125
Si Si3 0.689400 0.712096 0.515779
Si Si4 0.928888 0.263048 0.755268
Si Si5 0.189400 0.303819 0.515780
Si Si6 0.189400 0.162356 0.015779
Si Si7 0.949747 0.726962 0.255433
Si Si8 0.449912 0.263048 0.276292
O O1 0.822759 0.513735 0.132233
O O2 0.579028 0.101075 0.147934
O O3 0.556041 0.513734 0.899326
O O4 0.799771 0.101076 0.883626
O O5 0.561752 0.887941 0.643428
O O6 0.305853 0.513737 0.649138
O O7 0.312178 0.954519 0.893001
O O8 0.813881 0.501656 0.640261
O O9 0.817049 0.887941 0.388131
O O10 0.564918 0.501657 0.391298
O O11 0.057246 0.101076 0.626151
O O12 0.068499 0.384595 0.894879
O O13 0.321554 0.101075 0.405408
O O14 0.072947 0.513736 0.382421
O O15 0.310301 0.384595 0.136680
O O16 0.066622 0.954518 0.138557
#
# Coordination Sequence:
#
# PCOD9000902 Si02
#       8
#     1   1   1   1   1   1   1   1
#     4  10  20  42  64  86 120 174 208 230 296 394
#     4  10  21  38  64  90 121 160 206 250 299 360
#     4   8  20  44  68  82 116 178 212 224 292 398
#     4  10  21  38  64  90 121 160 206 250 299 360
#     4  10  20  42  64  86 120 174 208 230 296 394
#     4  12  24  38  60 100 128 146 196 276 312 326
#     4  10  21  38  64  90 121 160 206 250 299 360
#     4  10  21  38  64  90 121 160 206 250 299 360
#
# _framework density 31.490843000000002
#
# number of rings (size 3 to 8) (size 9 to 14) (size 15 to 20)
#    0.000    2.000    0.000    3.000    0.000    2.000 
#    0.000    5.000    0.000    0.000    0.000    0.000 
#    0.000    0.000    0.000    0.000    0.000    0.000 
#
# Total GULP energy -44712.827018 kJ/mol
# GULP energy per Si atom -5589.103377 kJ/mol
# Density = 3.141917 g / cm^3
# Si number density = 31.490843 Si / 1000 Ang^3
#
#
#
# Elastic Constant Matrix: (Units=GPa)
#
#
# Indices 1 2 3 4 5 6 
#
# 1 249.4095 81.8884 170.6789 -13.8863 -13.5315 2.0028
# 2 81.8884 80.7828 78.2503 -17.8290 13.3218 -11.1567
# 3 170.6789 78.2503 246.8924 -8.4425 -11.8113 10.6167
# 4 -13.8863 -17.8290 -8.4425 55.9791 8.4031 27.0404
# 5 -13.5315 13.3218 -11.8113 8.4031 218.0630 -24.6251
# 6 2.0028 -11.1567 10.6167 27.0404 -24.6251 61.2892
#
#
#
# Elastic Compliance Matrix: (Units=1/GPa)
#
#
# Indices 1 2 3 4 5 6 
#
# 1 0.008568 -0.004447 -0.004484 -0.000007 0.000551 -0.000088
# 2 -0.004447 0.022441 -0.004058 0.004664 -0.001803 0.002151
# 3 -0.004484 -0.004058 0.008519 -0.000255 0.000231 -0.001863
# 4 -0.000007 0.004664 -0.000255 0.025097 -0.002531 -0.011196
# 5 0.000551 -0.001803 0.000231 -0.002531 0.005157 0.002802
# 6 -0.000088 0.002151 -0.001863 -0.011196 0.002802 0.023099
#
#
# Mechanical properties :
#
#
# Convention : Reuss Voigt Hill
#
# Bulk Modulus (GPa) = 73.79607 137.63554 105.71580
# Shear Modulus (GPa) = 40.52738 83.48407 62.00572
#
# Velocity S-wave (km/s) = 3.59131 5.15443 4.44216
# Velocity P-wave (km/s) = 6.37822 8.90088 7.74297
#
# Compressibility (1/GPa) = 0.01355086
#
# Stress axis : x y z
#
# Youngs Moduli (GPa) = 116.71076 44.56220 117.38890
#
# Poissons Ratio (x) = 0.19815 0.52638
# Poissons Ratio (y) = 0.51896 0.47633
# Poissons Ratio (z) = 0.52334 0.18082
#
# Static dielectric constant tensor:
#      x y z
#    x 2.411850 0.002460 -0.016280 
#    y 0.002460 2.378770 -0.005070 
#    z -0.016280 -0.005070 2.411070 
# 
# From -- ./inp_files/3430.got.cif
#   From: 2010.05.17/outbox.cif.g08.bks.cpg/sg1_2_cif.got.tgz:3430.got - 2010.05.17 20:27:59.
