data_PCOD9000748
_publ_section_title
;
Structure prediction by ZEFSAII (Michael W. Deem and Ramdas Pophale) SiO2 
 PCOD9000748
Probable space group: P 1
;
_chemical_formula_sum "Si O2"
_cell_formula_units_Z 8
_cell_length_a 7.269543
_cell_length_b 6.304929
_cell_length_c 9.029711
_cell_angle_alpha 108.463420
_cell_angle_beta 111.543043
_cell_angle_gamma 116.161378
_cell_volume 283.106337
_symmetry_space_group_name_H-M "P 1"
_symmetry_group_IT_number 1
_symmetry_cell_setting 'triclinic'
loop_
_space_group_symop_operation_xyz
x,y,z
loop_
_atom_site_type_symbol
_atom_site_label
_atom_site_fract_x
_atom_site_fract_y
_atom_site_fract_z
Si Si1 0.724500 0.248240 0.293870
Si Si2 0.302896 0.580909 0.484167
Si Si3 0.365354 0.546801 0.175073
Si Si4 0.426504 0.930310 0.860569
Si Si5 0.902657 0.850914 0.336354
Si Si6 0.681682 0.184164 0.608327
Si Si7 0.103559 0.092516 0.739125
Si Si8 0.899687 0.551955 0.008800
O O1 0.793294 0.544212 0.312038
O O2 0.665482 0.240110 0.446438
O O3 0.002086 0.334121 0.364451
O O4 0.499795 0.986197 0.066014
O O5 0.367229 0.476509 0.334824
O O6 0.416415 0.694412 0.710009
O O7 0.408661 0.896113 0.520375
O O8 0.652203 0.822223 0.280946
O O9 0.147403 0.578363 0.111042
O O10 0.289401 0.328936 0.970424
O O11 0.162173 0.873210 0.744031
O O12 0.660644 0.241494 0.934171
O O13 0.121038 0.093266 0.564896
O O14 0.938875 0.805784 0.167687
O O15 0.809493 0.483347 0.798146
O O16 0.863469 0.094961 0.680404
#
# Coordination Sequence:
#
# PCOD9000748 Si02
#       8
#     1   1   1   1   1   1   1   1
#     4  11  22  43  66  95 134 167 214 276 319 380
#     4  11  21  41  67  90 135 179 202 265 343 373
#     4  11  19  35  65  95 118 173 216 257 314 391
#     4  10  19  38  67  91 127 174 212 257 327 386
#     4  11  20  37  70  89 127 176 213 258 331 382
#     4  10  24  40  68 100 127 168 225 263 322 392
#     4  11  20  36  67  97 123 171 220 260 317 391
#     4   9  19  38  62  89 131 164 212 260 323 381
#
# _framework density 28.257936000000001
#
# number of rings (size 3 to 8) (size 9 to 14) (size 15 to 20)
#    0.000    1.500    7.500    0.000    0.000    0.000 
#    4.500    2.500    5.500    0.000    0.000    0.000 
#    0.000    0.000    0.000    0.000    0.000    0.000 
#
# Total GULP energy -44618.586991 kJ/mol
# GULP energy per Si atom -5577.323374 kJ/mol
# Density = 2.819362 g / cm^3
# Si number density = 28.257936 Si / 1000 Ang^3
#
#
#
# Elastic Constant Matrix: (Units=GPa)
#
#
# Indices 1 2 3 4 5 6 
#
# 1 121.8145 26.2523 53.1164 -2.2096 -9.4357 14.2268
# 2 26.2523 102.6940 50.1230 -3.3293 -2.7487 28.1360
# 3 53.1164 50.1230 322.1649 -16.1664 -43.9568 0.4453
# 4 -2.2096 -3.3293 -16.1664 42.3955 -2.4703 7.6855
# 5 -9.4357 -2.7487 -43.9568 -2.4703 49.6247 0.6476
# 6 14.2268 28.1360 0.4453 7.6855 0.6476 30.4963
#
#
#
# Elastic Compliance Matrix: (Units=1/GPa)
#
#
# Indices 1 2 3 4 5 6 
#
# 1 0.009457 -0.000633 -0.001328 0.000701 0.000674 -0.003999
# 2 -0.000633 0.014891 -0.002174 0.002811 -0.000898 -0.014101
# 3 -0.001328 -0.002174 0.004173 0.001147 0.003352 0.002204
# 4 0.000701 0.002811 0.001147 0.026180 0.002733 -0.009593
# 5 0.000674 -0.000898 0.003352 0.002733 0.023344 -0.000720
# 6 -0.003999 -0.014101 0.002204 -0.009593 -0.000720 0.050067
#
#
# Mechanical properties :
#
#
# Convention : Reuss Voigt Hill
#
# Bulk Modulus (GPa) = 49.38125 89.51741 69.44933
# Shear Modulus (GPa) = 34.93246 52.31543 43.62395
#
# Velocity S-wave (km/s) = 3.51978 4.30740 3.93336
# Velocity P-wave (km/s) = 5.83366 7.51570 6.72746
#
# Compressibility (1/GPa) = 0.02025060
#
# Stress axis : x y z
#
# Youngs Moduli (GPa) = 105.74554 67.15354 239.62977
#
# Poissons Ratio (x) = 0.04249 0.31825
# Poissons Ratio (y) = 0.06691 0.52105
# Poissons Ratio (z) = 0.14044 0.14602
#
# Static dielectric constant tensor:
#      x y z
#    x 2.389240 -0.201700 -0.050390 
#    y -0.201700 2.437860 -0.054790 
#    z -0.050390 -0.054790 2.225970 
# 
# From -- ./inp_files/4359.got.cif
#   From: 2010.05.17/outbox.cif.g08.bks.cpg/sg1_3_cif.got.tgz:4359.got - 2010.05.17 20:27:59.
