data_PCOD9000519
_publ_section_title
;
Structure prediction by ZEFSAII (Michael W. Deem and Ramdas Pophale) SiO2 
 PCOD9000519
Probable space group: P 1
;
_chemical_formula_sum "Si O2"
_cell_formula_units_Z 8
_cell_length_a 9.289791
_cell_length_b 9.091151
_cell_length_c 9.316441
_cell_angle_alpha 48.400850
_cell_angle_beta 77.664792
_cell_angle_gamma 112.082106
_cell_volume 405.507235
_symmetry_space_group_name_H-M "P 1"
_symmetry_group_IT_number 1
_symmetry_cell_setting 'triclinic'
loop_
_space_group_symop_operation_xyz
x,y,z
loop_
_atom_site_type_symbol
_atom_site_label
_atom_site_fract_x
_atom_site_fract_y
_atom_site_fract_z
Si Si1 0.182330 0.630840 0.255550
Si Si2 0.461697 0.683303 0.926659
Si Si3 0.677610 0.973481 0.415425
Si Si4 0.089213 0.151872 0.193727
Si Si5 0.559190 0.017701 0.113271
Si Si6 0.003942 0.887955 0.095547
Si Si7 0.826927 0.010124 0.839274
Si Si8 0.717711 0.575319 0.605902
O O1 0.128178 0.803730 0.118085
O O2 0.977810 0.306713 0.535262
O O3 0.321580 0.750083 0.292998
O O4 0.326936 0.682841 0.065828
O O5 0.299452 0.378552 0.087392
O O6 0.567603 0.910278 0.630053
O O7 0.651760 0.772466 0.918965
O O8 0.609486 0.040870 0.254113
O O9 0.610759 0.684597 0.578284
O O10 0.929502 0.183735 0.233504
O O11 0.109276 0.135752 0.028946
O O12 0.942753 0.825219 0.475728
O O13 0.708928 0.012889 0.992766
O O14 0.605288 0.280756 0.878584
O O15 0.785721 0.625962 0.392505
O O16 0.958014 0.958017 0.914701
#
# Coordination Sequence:
#
# PCOD9000519 Si02
#       8
#     1   1   1   1   1   1   1   1
#     4  11  25  37  65  96 129 160 208 262 305 377
#     4  11  23  40  65  90 134 167 198 251 332 361
#     4   9  21  39  63  90 128 162 203 259 303 375
#     4   8  19  39  67  87 120 166 199 261 302 354
#     4  11  20  37  68  99 112 167 215 254 309 358
#     4   9  20  41  69  87 125 159 213 261 300 356
#     4  11  21  43  65  89 128 167 206 256 310 375
#     4   8  19  36  66  88 124 148 216 260 289 356
#
# _framework density 19.728376999999998
#
# number of rings (size 3 to 8) (size 9 to 14) (size 15 to 20)
#    1.500    0.500    3.750    0.750    3.500    0.000 
#    0.000    3.750    5.500    0.000    0.000    0.000 
#    0.000    0.000    0.000    0.000    0.000    0.000 
#
# Total GULP energy -44544.563703 kJ/mol
# GULP energy per Si atom -5568.070463 kJ/mol
# Density = 1.968347 g / cm^3
# Si number density = 19.728377 Si / 1000 Ang^3
#
#
#
# Elastic Constant Matrix: (Units=GPa)
#
#
# Indices 1 2 3 4 5 6 
#
# 1 70.3378 25.2168 20.4166 -3.5463 1.0691 10.6088
# 2 25.2168 59.9227 30.1475 -0.6315 -4.9790 31.7410
# 3 20.4166 30.1475 53.2383 3.0644 1.9723 11.6726
# 4 -3.5463 -0.6315 3.0644 30.0607 4.2657 -6.5025
# 5 1.0691 -4.9790 1.9723 4.2657 27.1901 -1.7538
# 6 10.6088 31.7410 11.6726 -6.5025 -1.7538 27.6873
#
#
#
# Elastic Compliance Matrix: (Units=1/GPa)
#
#
# Indices 1 2 3 4 5 6 
#
# 1 0.017724 -0.009067 -0.003021 0.003758 -0.002366 0.005610
# 2 -0.009067 0.066693 -0.019132 -0.013984 0.011800 -0.067454
# 3 -0.003021 -0.019132 0.028683 -0.000742 -0.004670 0.010528
# 4 0.003758 -0.013984 -0.000742 0.039672 -0.007346 0.023756
# 5 -0.002366 0.011800 -0.004670 -0.007346 0.039888 -0.009851
# 6 0.005610 -0.067454 0.010528 0.023756 -0.009851 0.111814
#
#
# Mechanical properties :
#
#
# Convention : Reuss Voigt Hill
#
# Bulk Modulus (GPa) = 19.73972 37.22896 28.48434
# Shear Modulus (GPa) = 13.02756 24.16882 18.59819
#
# Velocity S-wave (km/s) = 2.57251 3.50391 3.07369
# Velocity P-wave (km/s) = 4.34180 5.93983 5.20254
#
# Compressibility (1/GPa) = 0.05065927
#
# Stress axis : x y z
#
# Youngs Moduli (GPa) = 56.42053 14.99419 34.86333
#
# Poissons Ratio (x) = 0.13596 0.10533
# Poissons Ratio (y) = 0.51158 0.66700
# Poissons Ratio (z) = 0.17045 0.28687
#
# Static dielectric constant tensor:
#      x y z
#    x 1.695190 0.000340 -0.048550 
#    y 0.000340 1.730900 0.009480 
#    z -0.048550 0.009480 1.689160 
# 
# From -- ./inp_files/4074.got.cif
#   From: 2010.05.17/outbox.cif.g08.bks.cpg/sg1_3_cif.got.tgz:4074.got - 2010.05.17 20:27:59.
