data_PCOD9000830
_publ_section_title
;
Structure prediction by ZEFSAII (Michael W. Deem and Ramdas Pophale) SiO2 
 PCOD9000830
Probable space group: P 1
;
_chemical_formula_sum "Si O2"
_cell_formula_units_Z 6
_cell_length_a 7.267409
_cell_length_b 7.342302
_cell_length_c 4.880114
_cell_angle_alpha 70.588314
_cell_angle_beta 90.004350
_cell_angle_gamma 126.109639
_cell_volume 191.754223
_symmetry_space_group_name_H-M "P 1"
_symmetry_group_IT_number 1
_symmetry_cell_setting 'triclinic'
loop_
_space_group_symop_operation_xyz
x,y,z
loop_
_atom_site_type_symbol
_atom_site_label
_atom_site_fract_x
_atom_site_fract_y
_atom_site_fract_z
Si Si1 0.875000 0.844130 0.781710
Si Si2 0.383855 0.696915 0.355342
Si Si3 0.882359 0.159245 0.098213
Si Si4 0.869933 0.510836 0.591376
Si Si5 0.388921 0.030195 0.831691
Si Si6 0.376519 0.381784 0.986951
O O1 0.844307 0.721607 0.539815
O O2 0.620456 0.600744 0.019718
O O3 0.898650 0.052930 0.861685
O O4 0.131461 0.913248 0.785904
O O5 0.360201 0.488112 0.644121
O O6 0.127396 0.627805 0.428631
O O7 0.638433 0.940294 0.349945
O O8 0.414531 0.819411 0.990915
O O9 0.872901 0.379115 0.931121
O O10 0.129445 0.270513 0.193223
O O11 0.629425 0.270510 0.576836
O O12 0.385983 0.161924 0.039709
#
# Coordination Sequence:
#
# PCOD9000830 Si02
#       6
#     1   1   1   1   1   1
#     4  10  20  38  62  82 118 156 188 240 294 336
#     4  10  20  38  62  82 118 156 188 240 294 336
#     4   9  20  39  58  85 118 151 192 241 286 343
#     4   9  20  39  58  85 118 151 192 241 286 343
#     4   9  20  39  58  85 118 151 192 241 286 343
#     4   9  20  39  58  85 118 151 192 241 286 343
#
# _framework density 31.290054999999999
#
# number of rings (size 3 to 8) (size 9 to 14) (size 15 to 20)
#    0.000    2.667    0.000    0.000    0.000   10.667 
#    0.000   43.333    0.000    0.000    0.000    0.000 
#    0.000    0.000    0.000    0.000    0.000    0.000 
#
# Total GULP energy -33418.054323 kJ/mol
# GULP energy per Si atom -5569.675721 kJ/mol
# Density = 3.121884 g / cm^3
# Si number density = 31.290055 Si / 1000 Ang^3
#
#
#
# Elastic Constant Matrix: (Units=GPa)
#
#
# Indices 1 2 3 4 5 6 
#
# 1 238.8377 64.1182 58.5046 -18.7735 -34.9119 40.5043
# 2 64.1182 171.6572 38.1957 -24.6117 -15.8440 18.5667
# 3 58.5046 38.1957 156.7594 -25.1820 -11.1695 12.8064
# 4 -18.7735 -24.6117 -25.1820 61.1970 16.1781 -18.7554
# 5 -34.9119 -15.8440 -11.1695 16.1781 64.2731 -31.5602
# 6 40.5043 18.5667 12.8064 -18.7554 -31.5602 73.6965
#
#
#
# Elastic Compliance Matrix: (Units=1/GPa)
#
#
# Indices 1 2 3 4 5 6 
#
# 1 0.005437 -0.001426 -0.001501 -0.000497 0.001572 -0.001822
# 2 -0.001426 0.006848 -0.000804 0.001861 0.000183 -0.000250
# 3 -0.001501 -0.000804 0.007490 0.002430 -0.000195 0.000260
# 4 -0.000497 0.001861 0.002430 0.019647 -0.002764 0.003199
# 5 0.001572 0.000183 -0.000195 -0.002764 0.020695 0.007284
# 6 -0.001822 -0.000250 0.000260 0.003199 0.007284 0.018521
#
#
# Mechanical properties :
#
#
# Convention : Reuss Voigt Hill
#
# Bulk Modulus (GPa) = 81.21053 98.76572 89.98813
# Shear Modulus (GPa) = 55.42915 66.92903 61.17909
#
# Velocity S-wave (km/s) = 4.21344 4.62994 4.42659
# Velocity P-wave (km/s) = 7.04849 7.75982 7.41269
#
# Compressibility (1/GPa) = 0.01231367
#
# Stress axis : x y z
#
# Youngs Moduli (GPa) = 183.92569 146.03201 133.50552
#
# Poissons Ratio (x) = 0.20825 0.20035
# Poissons Ratio (y) = 0.26229 0.10733
# Poissons Ratio (z) = 0.27602 0.11740
#
# Static dielectric constant tensor:
#      x y z
#    x 2.385880 0.001890 -0.001500 
#    y 0.001890 2.509750 0.144320 
#    z -0.001500 0.144320 2.552860 
# 
# From -- ./inp_files/1171.got.cif
#   From: 2010.05.17/outbox.cif.g08.bks.cpg/sg1_1_cif.got.tgz:1171.got - 2010.05.17 20:27:59.
