data_PCOD9000609
_publ_section_title
;
Structure prediction by ZEFSAII (Michael W. Deem and Ramdas Pophale) SiO2 
 PCOD9000609
Probable space group: P 1
;
_chemical_formula_sum "Si O2"
_cell_formula_units_Z 8
_cell_length_a 7.159196
_cell_length_b 12.670730
_cell_length_c 7.579547
_cell_angle_alpha 48.092639
_cell_angle_beta 139.597985
_cell_angle_gamma 131.851299
_cell_volume 313.224936
_symmetry_space_group_name_H-M "P 1"
_symmetry_group_IT_number 1
_symmetry_cell_setting 'triclinic'
loop_
_space_group_symop_operation_xyz
x,y,z
loop_
_atom_site_type_symbol
_atom_site_label
_atom_site_fract_x
_atom_site_fract_y
_atom_site_fract_z
Si Si1 0.341190 0.316850 0.521840
Si Si2 0.392089 0.584621 0.712501
Si Si3 0.853637 0.069382 0.314251
Si Si4 0.860761 0.277092 0.751342
Si Si5 0.732924 0.398556 0.064047
Si Si6 0.189753 0.770266 0.652131
Si Si7 0.547883 0.092042 0.429847
Si Si8 0.548075 0.748706 0.282511
O O1 0.579105 0.342244 0.505738
O O2 0.543132 0.370814 0.778469
O O3 0.063273 0.384350 0.270408
O O4 0.172697 0.136583 0.575330
O O5 0.383213 0.657944 0.434764
O O6 0.132449 0.424316 0.729256
O O7 0.707105 0.546228 0.972529
O O8 0.351655 0.691423 0.718394
O O9 0.628264 0.053698 0.334466
O O10 0.738990 0.912325 0.311881
O O11 0.885208 0.195833 0.045148
O O12 0.799397 0.144613 0.708853
O O13 0.824318 0.694892 0.468919
O O14 0.539507 0.257667 0.201797
O O15 0.322756 0.755448 0.956675
O O16 0.289949 0.946806 0.477226
#
# Coordination Sequence:
#
# PCOD9000609 Si02
#       8
#     1   1   1   1   1   1   1   1
#     4  11  24  48  80 119 160 210 264 337 398 469
#     4  12  31  55  80 125 167 217 267 343 416 479
#     4  11  24  50  82 119 164 207 274 336 401 480
#     4  12  26  49  87 124 158 213 278 334 404 487
#     4  11  27  48  81 119 167 204 269 336 407 472
#     4  12  30  54  85 116 165 219 275 327 417 486
#     4  11  24  50  84 121 154 218 272 332 397 493
#     4  12  30  54  81 117 169 216 269 339 404 490
#
# _framework density 25.540749000000002
#
# number of rings (size 3 to 8) (size 9 to 14) (size 15 to 20)
#    0.000    0.500    5.000    2.250    5.250    9.000 
#    0.000    0.000    0.000    0.000    0.000    0.000 
#    0.000    0.000    0.000    0.000    0.000    0.000 
#
# Total GULP energy -44719.286884 kJ/mol
# GULP energy per Si atom -5589.910860 kJ/mol
# Density = 2.548262 g / cm^3
# Si number density = 25.540749 Si / 1000 Ang^3
#
#
#
# Elastic Constant Matrix: (Units=GPa)
#
#
# Indices 1 2 3 4 5 6 
#
# 1 163.3122 46.5635 81.0195 -9.4044 -15.4168 6.8393
# 2 46.5635 81.8094 28.0803 -15.9901 -7.8774 14.7813
# 3 81.0195 28.0803 110.1852 3.5965 -8.4383 17.7426
# 4 -9.4044 -15.9901 3.5965 35.0532 9.9391 -4.6885
# 5 -15.4168 -7.8774 -8.4383 9.9391 55.6431 -0.0830
# 6 6.8393 14.7813 17.7426 -4.6885 -0.0830 55.7750
#
#
#
# Elastic Compliance Matrix: (Units=1/GPa)
#
#
# Indices 1 2 3 4 5 6 
#
# 1 0.010993 -0.003560 -0.007514 0.002093 0.001032 0.002163
# 2 -0.003560 0.016466 -0.001301 0.006285 0.000020 -0.002985
# 3 -0.007514 -0.001301 0.015855 -0.005094 0.001042 -0.004204
# 4 0.002093 0.006285 -0.005094 0.034366 -0.005438 0.002579
# 5 0.001032 0.000020 0.001042 -0.005438 0.019388 -0.000892
# 6 0.002163 -0.002985 -0.004204 0.002579 -0.000892 0.020008
#
#
# Mechanical properties :
#
#
# Convention : Reuss Voigt Hill
#
# Bulk Modulus (GPa) = 53.86792 74.07039 63.96916
# Shear Modulus (GPa) = 33.78024 42.60383 38.19204
#
# Velocity S-wave (km/s) = 3.64070 4.08864 3.87115
# Velocity P-wave (km/s) = 6.22975 7.16611 6.71427
#
# Compressibility (1/GPa) = 0.01856392
#
# Stress axis : x y z
#
# Youngs Moduli (GPa) = 90.96492 60.72982 63.07127
#
# Poissons Ratio (x) = 0.21623 0.47389
# Poissons Ratio (y) = 0.32388 0.08207
# Poissons Ratio (z) = 0.68348 0.07903
#
# Static dielectric constant tensor:
#      x y z
#    x 2.045900 -0.017220 0.076520 
#    y -0.017220 2.031190 0.006760 
#    z 0.076520 0.006760 2.140970 
# 
# From -- ./inp_files/4992.got.cif
#   From: 2010.05.17/outbox.cif.g08.bks.cpg/sg1_3_cif.got.tgz:4992.got - 2010.05.17 20:27:59.
