data_PCOD9000450
_publ_section_title
;
Structure prediction by ZEFSAII (Michael W. Deem and Ramdas Pophale) SiO2 
 PCOD9000450
Probable space group: P 1
;
_chemical_formula_sum "Si O2"
_cell_formula_units_Z 8
_cell_length_a 13.906723
_cell_length_b 5.124257
_cell_length_c 5.201225
_cell_angle_alpha 93.550334
_cell_angle_beta 60.664869
_cell_angle_gamma 94.612569
_cell_volume 321.964469
_symmetry_space_group_name_H-M "P 1"
_symmetry_group_IT_number 1
_symmetry_cell_setting 'triclinic'
loop_
_space_group_symop_operation_xyz
x,y,z
loop_
_atom_site_type_symbol
_atom_site_label
_atom_site_fract_x
_atom_site_fract_y
_atom_site_fract_z
Si Si1 0.470130 0.328750 0.930050
Si Si2 0.925231 0.342236 0.194686
Si Si3 0.566175 0.844088 0.584213
Si Si4 0.366618 0.707293 0.474170
Si Si5 0.998520 0.608408 0.619604
Si Si6 0.246470 0.336257 0.952104
Si Si7 0.814160 0.805844 0.179880
Si Si8 0.192833 0.039346 0.498762
O O1 0.271468 0.619529 0.803629
O O2 0.473819 0.832264 0.481928
O O3 0.372763 0.273145 0.846381
O O4 0.194301 0.262551 0.291407
O O5 0.882101 0.043650 0.248807
O O6 0.994572 0.462066 0.346842
O O7 0.824157 0.533795 0.302837
O O8 0.991878 0.399768 0.847957
O O9 0.547716 0.569340 0.737182
O O10 0.689103 0.874415 0.315168
O O11 0.539626 0.074779 0.829815
O O12 0.307445 0.886170 0.355555
O O13 0.408559 0.449529 0.261440
O O14 0.097709 0.821406 0.543518
O O15 0.884187 0.754799 0.827312
O O16 0.188538 0.160383 0.796282
#
# Coordination Sequence:
#
# PCOD9000450 Si02
#       8
#     1   1   1   1   1   1   1   1
#     4  11  23  44  69 108 147 189 239 298 364 434
#     4  10  24  48  72 104 146 184 247 298 365 424
#     4  11  24  44  74 108 143 194 241 303 364 442
#     4  11  26  44  71 112 151 191 245 300 372 443
#     4  10  26  47  73 108 143 194 238 307 359 438
#     4  11  24  43  71 106 148 192 241 298 361 445
#     4  10  25  46  74 109 141 193 244 304 362 436
#     4  12  24  48  72 109 151 193 245 300 371 440
#
# _framework density 24.847459000000001
#
# number of rings (size 3 to 8) (size 9 to 14) (size 15 to 20)
#    0.750    0.500    2.500    2.250    3.500    3.000 
#    2.250    0.000    0.000    0.000    0.000    0.000 
#    0.000    0.000    0.000    0.000    0.000    0.000 
#
# Total GULP energy -44753.081129 kJ/mol
# GULP energy per Si atom -5594.135141 kJ/mol
# Density = 2.479090 g / cm^3
# Si number density = 24.847459 Si / 1000 Ang^3
#
#
#
# Elastic Constant Matrix: (Units=GPa)
#
#
# Indices 1 2 3 4 5 6 
#
# 1 67.3337 31.6549 59.3977 4.6153 3.4283 5.0299
# 2 31.6549 100.5000 34.9403 9.7305 -1.0318 -1.4959
# 3 59.3977 34.9403 124.1651 3.8144 10.4648 3.8970
# 4 4.6153 9.7305 3.8144 39.7162 3.0461 1.1168
# 5 3.4283 -1.0318 10.4648 3.0461 49.2116 5.7874
# 6 5.0299 -1.4959 3.8970 1.1168 5.7874 36.0750
#
#
#
# Elastic Compliance Matrix: (Units=1/GPa)
#
#
# Indices 1 2 3 4 5 6 
#
# 1 0.027772 -0.004527 -0.011969 -0.000958 0.000914 -0.002884
# 2 -0.004527 0.012077 -0.001268 -0.002410 0.000845 0.001208
# 3 -0.011969 -0.001268 0.014303 0.000493 -0.002315 0.000427
# 4 -0.000958 -0.002410 0.000493 0.025974 -0.001630 -0.000562
# 5 0.000914 0.000845 -0.002315 -0.001630 0.021244 -0.003200
# 6 -0.002884 0.001208 0.000427 -0.000562 -0.003200 0.028657
#
#
# Mechanical properties :
#
#
# Convention : Reuss Voigt Hill
#
# Bulk Modulus (GPa) = 53.69344 60.44275 57.06810
# Shear Modulus (GPa) = 29.10990 36.06760 32.58875
#
# Velocity S-wave (km/s) = 3.42650 3.81407 3.62547
# Velocity P-wave (km/s) = 6.10824 6.61623 6.36730
#
# Compressibility (1/GPa) = 0.01862425
#
# Stress axis : x y z
#
# Youngs Moduli (GPa) = 36.00686 82.80201 69.91680
#
# Poissons Ratio (x) = 0.37487 0.83682
# Poissons Ratio (y) = 0.16301 0.08864
# Poissons Ratio (z) = 0.43096 0.10498
#
# Static dielectric constant tensor:
#      x y z
#    x 1.930060 -0.043230 -0.020560 
#    y -0.043230 1.973190 0.020160 
#    z -0.020560 0.020160 2.001890 
# 
# From -- ./inp_files/2611.got.cif
#   From: 2010.05.17/outbox.cif.g08.bks.cpg/sg1_2_cif.got.tgz:2611.got - 2010.05.17 20:27:59.
