data_PCOD9000764
_publ_section_title
;
Structure prediction by ZEFSAII (Michael W. Deem and Ramdas Pophale) SiO2 
 PCOD9000764
Probable space group: P 1
;
_chemical_formula_sum "Si O2"
_cell_formula_units_Z 8
_cell_length_a 8.905941
_cell_length_b 8.321397
_cell_length_c 5.579222
_cell_angle_alpha 55.554540
_cell_angle_beta 106.040223
_cell_angle_gamma 109.754319
_cell_volume 318.975629
_symmetry_space_group_name_H-M "P 1"
_symmetry_group_IT_number 1
_symmetry_cell_setting 'triclinic'
loop_
_space_group_symop_operation_xyz
x,y,z
loop_
_atom_site_type_symbol
_atom_site_label
_atom_site_fract_x
_atom_site_fract_y
_atom_site_fract_z
Si Si1 0.194670 0.027940 0.858680
Si Si2 0.377591 0.627275 0.059756
Si Si3 0.078886 0.321689 0.264052
Si Si4 0.530023 0.757039 0.513489
Si Si5 0.912872 0.787417 0.207463
Si Si6 0.634851 0.445377 0.525475
Si Si7 0.213196 0.979666 0.403255
Si Si8 0.751671 0.112799 0.116328
O O1 0.140776 0.235709 0.608851
O O2 0.279175 0.977719 0.698016
O O3 0.295474 0.021923 0.148023
O O4 0.021393 0.871759 0.953244
O O5 0.190470 0.534980 0.087224
O O6 0.440632 0.747515 0.226622
O O7 0.476573 0.449075 0.295533
O O8 0.425521 0.712362 0.744688
O O9 0.132763 0.170804 0.226608
O O10 0.891398 0.274665 0.174832
O O11 0.619807 0.577298 0.647909
O O12 0.651878 0.970552 0.394789
O O13 0.060953 0.795143 0.449449
O O14 0.787144 0.576912 0.337151
O O15 0.818500 0.952933 0.116524
O O16 0.657904 0.234542 0.802118
#
# Coordination Sequence:
#
# PCOD9000764 Si02
#       8
#     1   1   1   1   1   1   1   1
#     4   8  15  28  51  83 108 144 184 232 283 338
#     4  10  22  39  62  83 128 151 201 237 310 341
#     4   9  19  32  63  88 110 157 198 241 291 352
#     4   9  23  41  61  83 122 165 188 242 298 366
#     4   8  16  32  55  83 114 148 189 236 290 333
#     4   9  21  37  61  89 117 155 201 244 286 363
#     4   7  15  25  50  76 110 134 187 220 283 321
#     4  10  19  40  65  87 119 154 208 238 299 342
#
# _framework density 25.080286999999998
#
# number of rings (size 3 to 8) (size 9 to 14) (size 15 to 20)
#    2.250    1.000    0.000    0.000    3.500    0.000 
#    4.500    0.000   11.000    0.000    0.000    0.000 
#    0.000    0.000    0.000    0.000    0.000    0.000 
#
# Total GULP energy -44551.115710 kJ/mol
# GULP energy per Si atom -5568.889464 kJ/mol
# Density = 2.502320 g / cm^3
# Si number density = 25.080287 Si / 1000 Ang^3
#
#
#
# Elastic Constant Matrix: (Units=GPa)
#
#
# Indices 1 2 3 4 5 6 
#
# 1 79.0853 33.0349 53.1095 -1.9098 -29.2880 1.5440
# 2 33.0349 56.2486 34.6329 4.1568 -16.8203 27.5908
# 3 53.1095 34.6329 172.6453 21.7178 -19.0052 -5.5508
# 4 -1.9098 4.1568 21.7178 40.7822 -3.5497 -9.0590
# 5 -29.2880 -16.8203 -19.0052 -3.5497 46.4677 -0.8284
# 6 1.5440 27.5908 -5.5508 -9.0590 -0.8284 38.0419
#
#
#
# Elastic Compliance Matrix: (Units=1/GPa)
#
#
# Indices 1 2 3 4 5 6 
#
# 1 0.025974 -0.016655 -0.004311 0.008859 0.009483 0.012712
# 2 -0.016655 0.053369 -0.004783 -0.012459 0.005172 -0.041583
# 3 -0.004311 -0.004783 0.008515 -0.003452 -0.001158 0.004039
# 4 0.008859 -0.012459 -0.003452 0.031757 0.002369 0.015787
# 5 0.009483 0.005172 -0.001158 0.002369 0.029021 -0.003109
# 6 0.012712 -0.041583 0.004039 0.015787 -0.003109 0.060211
#
#
# Mechanical properties :
#
#
# Convention : Reuss Voigt Hill
#
# Bulk Modulus (GPa) = 27.50248 61.05931 44.28090
# Shear Modulus (GPa) = 18.35107 37.53848 27.94478
#
# Velocity S-wave (km/s) = 2.70792 3.87296 3.34160
# Velocity P-wave (km/s) = 4.55705 6.66319 5.70810
#
# Compressibility (1/GPa) = 0.03636035
#
# Stress axis : x y z
#
# Youngs Moduli (GPa) = 38.50012 18.73750 117.44647
#
# Poissons Ratio (x) = 0.31207 0.50631
# Poissons Ratio (y) = 0.64120 0.56173
# Poissons Ratio (z) = 0.16597 0.08962
#
# Static dielectric constant tensor:
#      x y z
#    x 2.046930 -0.002580 0.086570 
#    y -0.002580 2.009660 0.004040 
#    z 0.086570 0.004040 2.092990 
# 
# From -- ./inp_files/4647.got.cif
#   From: 2010.05.17/outbox.cif.g08.bks.cpg/sg1_3_cif.got.tgz:4647.got - 2010.05.17 20:27:59.
