data_PCOD9000740
_publ_section_title
;
Structure prediction by ZEFSAII (Michael W. Deem and Ramdas Pophale) SiO2 
 PCOD9000740
Probable space group: P 1
;
_chemical_formula_sum "Si O2"
_cell_formula_units_Z 8
_cell_length_a 7.060314
_cell_length_b 8.515279
_cell_length_c 8.341976
_cell_angle_alpha 111.982445
_cell_angle_beta 57.973881
_cell_angle_gamma 78.652937
_cell_volume 340.827903
_symmetry_space_group_name_H-M "P 1"
_symmetry_group_IT_number 1
_symmetry_cell_setting 'triclinic'
loop_
_space_group_symop_operation_xyz
x,y,z
loop_
_atom_site_type_symbol
_atom_site_label
_atom_site_fract_x
_atom_site_fract_y
_atom_site_fract_z
Si Si1 0.541650 0.091990 0.152610
Si Si2 0.586158 0.444561 0.795050
Si Si3 0.442441 0.697075 0.383969
Si Si4 0.733198 0.911996 0.330187
Si Si5 0.242253 0.305023 0.834838
Si Si6 0.798889 0.265560 0.924423
Si Si7 0.346310 0.480576 0.594447
Si Si8 0.256991 0.875843 0.207324
O O1 0.416517 0.303031 0.375342
O O2 0.708697 0.939798 0.159724
O O3 0.326659 0.037581 0.181122
O O4 0.712703 0.109296 0.943533
O O5 0.358785 0.398189 0.939414
O O6 0.828899 0.290882 0.730782
O O7 0.578125 0.426736 0.599362
O O8 0.491083 0.668467 0.958527
O O9 0.664436 0.747012 0.349527
O O10 0.299515 0.668337 0.588592
O O11 0.269768 0.854932 0.387501
O O12 0.580354 0.485944 0.155929
O O13 0.997808 0.891078 0.263506
O O14 0.496793 0.111342 0.584598
O O15 0.141324 0.472964 0.804246
O O16 0.034178 0.238646 0.919658
#
# Coordination Sequence:
#
# PCOD9000740 Si02
#       8
#     1   1   1   1   1   1   1   1
#     4   9  20  38  59  84 111 155 189 233 283 339
#     4   9  20  37  57  86 112 148 190 238 278 332
#     4   9  19  38  60  82 111 153 194 229 284 341
#     4  10  20  38  58  83 118 152 188 232 283 341
#     4   9  20  36  58  84 118 148 184 240 284 328
#     4  10  19  38  62  83 113 149 194 235 281 338
#     4   8  18  40  56  80 118 145 192 230 284 334
#     4  10  20  37  62  84 115 150 193 233 279 341
#
# _framework density 23.472256000000002
#
# number of rings (size 3 to 8) (size 9 to 14) (size 15 to 20)
#    0.750    2.000    0.000    0.750    0.000    4.000 
#    6.750    5.000    0.000    0.000    0.000    0.000 
#    0.000    0.000    0.000    0.000    0.000    0.000 
#
# Total GULP energy -44560.665555 kJ/mol
# GULP energy per Si atom -5570.083194 kJ/mol
# Density = 2.341883 g / cm^3
# Si number density = 23.472256 Si / 1000 Ang^3
#
#
#
# Elastic Constant Matrix: (Units=GPa)
#
#
# Indices 1 2 3 4 5 6 
#
# 1 138.8680 46.3682 9.5538 -9.6566 -1.5040 26.4699
# 2 46.3682 105.0481 17.2708 -6.9130 -8.9629 34.8147
# 3 9.5538 17.2708 31.9634 6.1462 -0.6812 10.2194
# 4 -9.6566 -6.9130 6.1462 19.2037 5.5344 -10.7954
# 5 -1.5040 -8.9629 -0.6812 5.5344 27.2198 3.9021
# 6 26.4699 34.8147 10.2194 -10.7954 3.9021 37.7133
#
#
#
# Elastic Compliance Matrix: (Units=1/GPa)
#
#
# Indices 1 2 3 4 5 6 
#
# 1 0.008854 -0.002770 -0.000718 0.002282 -0.000509 -0.002757
# 2 -0.002770 0.016490 -0.001807 -0.006043 0.008670 -0.015417
# 3 -0.000718 -0.001807 0.044109 -0.028260 0.008909 -0.018792
# 4 0.002282 -0.006043 -0.028260 0.090445 -0.026736 0.040291
# 5 -0.000509 0.008670 0.008909 -0.026736 0.048482 -0.022730
# 6 -0.002757 -0.015417 -0.018792 0.040291 -0.022730 0.061660
#
#
# Mechanical properties :
#
#
# Convention : Reuss Voigt Hill
#
# Bulk Modulus (GPa) = 16.98822 46.91834 31.95328
# Shear Modulus (GPa) = 16.65282 30.33980 23.49631
#
# Velocity S-wave (km/s) = 2.66647 3.59915 3.16733
# Velocity P-wave (km/s) = 4.09065 6.10771 5.19796
#
# Compressibility (1/GPa) = 0.05886432
#
# Stress axis : x y z
#
# Youngs Moduli (GPa) = 112.94377 60.64154 22.67135
#
# Poissons Ratio (x) = 0.16795 0.01628
# Poissons Ratio (y) = 0.31281 0.04096
# Poissons Ratio (z) = 0.08110 0.10955
#
# Static dielectric constant tensor:
#      x y z
#    x 1.916910 -0.022630 0.039890 
#    y -0.022630 1.925190 -0.015430 
#    z 0.039890 -0.015430 2.015900 
# 
# From -- ./inp_files/1925.got.cif
#   From: 2010.05.17/outbox.cif.g08.bks.cpg/sg1_1_cif.got.tgz:1925.got - 2010.05.17 20:27:59.
