data_PCOD9000897
_publ_section_title
;
Structure prediction by ZEFSAII (Michael W. Deem and Ramdas Pophale) SiO2 
 PCOD9000897
Probable space group: P 1
;
_chemical_formula_sum "Si O2"
_cell_formula_units_Z 8
_cell_length_a 11.271482
_cell_length_b 5.664836
_cell_length_c 5.232012
_cell_angle_alpha 103.929313
_cell_angle_beta 75.878477
_cell_angle_gamma 84.476757
_cell_volume 310.155601
_symmetry_space_group_name_H-M "P 1"
_symmetry_group_IT_number 1
_symmetry_cell_setting 'triclinic'
loop_
_space_group_symop_operation_xyz
x,y,z
loop_
_atom_site_type_symbol
_atom_site_label
_atom_site_fract_x
_atom_site_fract_y
_atom_site_fract_z
Si Si1 0.509460 0.570180 0.958010
Si Si2 0.292298 0.752414 0.455297
Si Si3 0.862224 0.730027 0.019767
Si Si4 0.662009 0.598242 0.399690
Si Si5 0.876386 0.333613 0.506753
Si Si6 0.009706 0.966467 0.666664
Si Si7 0.075839 0.431379 0.069753
Si Si8 0.339768 0.298329 0.728979
O O1 0.579483 0.678052 0.714828
O O2 0.469662 0.321454 0.800263
O O3 0.375883 0.720782 0.147117
O O4 0.581365 0.550464 0.184317
O O5 0.143834 0.801151 0.507285
O O6 0.323907 0.505704 0.558310
O O7 0.327860 0.014524 0.604488
O O8 0.832302 0.487642 0.822674
O O9 0.879868 0.922939 0.848842
O O10 0.008815 0.654319 0.990858
O O11 0.756226 0.777323 0.298456
O O12 0.760820 0.365937 0.388270
O O13 0.954540 0.071173 0.452381
O O14 0.985428 0.465982 0.367669
O O15 0.047142 0.190285 0.872588
O O16 0.221790 0.390075 0.998505
#
# Coordination Sequence:
#
# PCOD9000897 Si02
#       8
#     1   1   1   1   1   1   1   1
#     4  12  26  51  83 109 165 215 273 325 392 480
#     4  11  26  49  82 124 159 209 263 338 407 485
#     4  10  20  41  74 104 152 198 252 328 394 468
#     4  11  24  50  78 108 157 215 271 323 387 482
#     4  10  22  41  74 108 156 198 258 331 395 470
#     4  10  22  41  73 120 152 192 262 331 416 468
#     4   9  21  39  67 111 153 192 253 325 405 476
#     4  11  25  48  81 120 164 207 268 331 408 477
#
# _framework density 25.793503000000001
#
# number of rings (size 3 to 8) (size 9 to 14) (size 15 to 20)
#    0.000    1.500    3.750    0.000    1.750    5.000 
#    0.000    7.500    0.000    0.000    0.000    0.000 
#    0.000    0.000    0.000    0.000    0.000    0.000 
#
# Total GULP energy -44600.557462 kJ/mol
# GULP energy per Si atom -5575.069683 kJ/mol
# Density = 2.573480 g / cm^3
# Si number density = 25.793503 Si / 1000 Ang^3
#
#
#
# Elastic Constant Matrix: (Units=GPa)
#
#
# Indices 1 2 3 4 5 6 
#
# 1 151.5842 30.6086 55.6682 -12.7848 -8.1793 4.9941
# 2 30.6086 75.6988 24.0287 10.3505 0.1472 8.6954
# 3 55.6682 24.0287 163.6457 -2.9122 -40.3492 -7.6345
# 4 -12.7848 10.3505 -2.9122 33.4179 1.1876 6.6191
# 5 -8.1793 0.1472 -40.3492 1.1876 51.7763 -9.6623
# 6 4.9941 8.6954 -7.6345 6.6191 -9.6623 17.4056
#
#
#
# Elastic Compliance Matrix: (Units=1/GPa)
#
#
# Indices 1 2 3 4 5 6 
#
# 1 0.008886 -0.002464 -0.003506 0.005194 -0.002613 -0.006283
# 2 -0.002464 0.017115 -0.003478 -0.004284 -0.005014 -0.010523
# 3 -0.003506 -0.003478 0.011154 -0.002593 0.010952 0.014702
# 4 0.005194 -0.004284 -0.002593 0.036634 -0.005265 -0.017342
# 5 -0.002613 -0.005014 0.010952 -0.005265 0.032851 0.028297
# 6 -0.006283 -0.010523 0.014702 -0.017342 0.028297 0.093264
#
#
# Mechanical properties :
#
#
# Convention : Reuss Voigt Hill
#
# Bulk Modulus (GPa) = 54.76791 67.94885 61.35838
# Shear Modulus (GPa) = 22.23336 39.22818 30.73077
#
# Velocity S-wave (km/s) = 2.93913 3.90404 3.45543
# Velocity P-wave (km/s) = 5.72689 6.83540 6.30555
#
# Compressibility (1/GPa) = 0.01825887
#
# Stress axis : x y z
#
# Youngs Moduli (GPa) = 112.53507 58.42869 89.65259
#
# Poissons Ratio (x) = 0.14395 0.31432
# Poissons Ratio (y) = 0.27725 0.31185
# Poissons Ratio (z) = 0.39455 0.20324
#
# Static dielectric constant tensor:
#      x y z
#    x 2.025940 0.024090 0.089710 
#    y 0.024090 2.128060 0.022770 
#    z 0.089710 0.022770 2.089130 
# 
# From -- ./inp_files/589.got.cif
#   From: 2010.05.17/outbox.cif.g08.bks.cpg/sg1_1_cif.got.tgz:589.got - 2010.05.17 20:27:59.
