data_PCOD9000789
_publ_section_title
;
Structure prediction by ZEFSAII (Michael W. Deem and Ramdas Pophale) SiO2 
 PCOD9000789
Probable space group: P 1
;
_chemical_formula_sum "Si O2"
_cell_formula_units_Z 8
_cell_length_a 8.675925
_cell_length_b 7.723448
_cell_length_c 8.603175
_cell_angle_alpha 129.152975
_cell_angle_beta 95.592112
_cell_angle_gamma 56.784553
_cell_volume 345.495910
_symmetry_space_group_name_H-M "P 1"
_symmetry_group_IT_number 1
_symmetry_cell_setting 'triclinic'
loop_
_space_group_symop_operation_xyz
x,y,z
loop_
_atom_site_type_symbol
_atom_site_label
_atom_site_fract_x
_atom_site_fract_y
_atom_site_fract_z
Si Si1 0.159080 0.854850 0.464670
Si Si2 0.809387 0.119768 0.782867
Si Si3 0.395097 0.922936 0.975249
Si Si4 0.562046 0.983098 0.592887
Si Si5 0.354185 0.593496 0.007199
Si Si6 0.062995 0.296758 0.924793
Si Si7 0.546327 0.527308 0.479510
Si Si8 0.688531 0.943100 0.228043
O O1 0.240588 0.733301 0.234983
O O2 0.330655 0.615780 0.465231
O O3 0.699531 0.187355 0.307689
O O4 0.939256 0.970623 0.552577
O O5 0.733376 0.936234 0.697709
O O6 0.593064 0.433883 0.943344
O O7 0.951662 0.170568 0.907914
O O8 0.279187 0.844257 0.021003
O O9 0.533196 0.956671 0.108617
O O10 0.237085 0.193311 0.003428
O O11 0.529022 0.658079 0.718933
O O12 0.568607 0.713686 0.469462
O O13 0.604457 0.999983 0.427314
O O14 0.373481 0.316173 0.804366
O O15 0.900421 0.630347 0.071462
O O16 0.140236 0.130498 0.672860
#
# Coordination Sequence:
#
# PCOD9000789 Si02
#       8
#     1   1   1   1   1   1   1   1
#     4   9  20  41  75 112 142 190 252 304 361 452
#     4   8  19  42  73 104 148 182 245 307 365 426
#     4  11  22  45  74 108 147 200 247 307 377 441
#     4  10  23  42  74 112 145 198 244 303 374 444
#     4  10  19  43  80 105 149 196 239 307 383 427
#     4   9  22  44  73 110 146 189 254 307 365 447
#     4  11  24  40  73 115 138 203 253 284 391 445
#     4  12  23  45  74 106 155 198 240 315 372 438
#
# _framework density 23.15512
#
# number of rings (size 3 to 8) (size 9 to 14) (size 15 to 20)
#    1.500    0.500    2.500    0.750    1.750    1.000 
#    2.250    3.750    0.000   13.500    0.000    0.000 
#    0.000    0.000    0.000    0.000    0.000    0.000 
#
# Total GULP energy -44537.786614 kJ/mol
# GULP energy per Si atom -5567.223327 kJ/mol
# Density = 2.310242 g / cm^3
# Si number density = 23.155120 Si / 1000 Ang^3
#
#
#
# Elastic Constant Matrix: (Units=GPa)
#
#
# Indices 1 2 3 4 5 6 
#
# 1 86.0922 49.3630 23.3240 8.5627 19.7480 1.1231
# 2 49.3630 126.9398 72.4264 34.8556 14.0795 7.9272
# 3 23.3240 72.4264 138.7388 19.5521 -6.3807 -3.2591
# 4 8.5627 34.8556 19.5521 34.4184 -4.7354 0.5232
# 5 19.7480 14.0795 -6.3807 -4.7354 36.2589 1.5359
# 6 1.1231 7.9272 -3.2591 0.5232 1.5359 34.4870
#
#
#
# Elastic Compliance Matrix: (Units=1/GPa)
#
#
# Indices 1 2 3 4 5 6 
#
# 1 0.016455 -0.006018 -0.000057 0.001116 -0.006537 0.001116
# 2 -0.006018 0.019944 -0.007700 -0.015307 -0.007629 -0.004544
# 3 -0.000057 -0.007700 0.011239 0.002099 0.005164 0.002572
# 4 0.001116 -0.015307 0.002099 0.044619 0.011427 0.002495
# 5 -0.006537 -0.007629 0.005164 0.011427 0.036475 0.000657
# 6 0.001116 -0.004544 0.002572 0.002495 0.000657 0.030181
#
#
# Mechanical properties :
#
#
# Convention : Reuss Voigt Hill
#
# Bulk Modulus (GPa) = 49.77826 71.33307 60.55566
# Shear Modulus (GPa) = 25.88537 34.81003 30.34770
#
# Velocity S-wave (km/s) = 3.34715 3.88150 3.62418
# Velocity P-wave (km/s) = 6.04005 7.13873 6.61225
#
# Compressibility (1/GPa) = 0.02008909
#
# Stress axis : x y z
#
# Youngs Moduli (GPa) = 60.77164 50.13990 88.97372
#
# Poissons Ratio (x) = 0.30173 0.00503
# Poissons Ratio (y) = 0.36571 0.68513
# Poissons Ratio (z) = 0.00344 0.38610
#
# Static dielectric constant tensor:
#      x y z
#    x 2.013830 0.007510 -0.003880 
#    y 0.007510 1.855230 0.005000 
#    z -0.003880 0.005000 1.884270 
# 
# From -- ./inp_files/3983.got.cif
#   From: 2010.05.17/outbox.cif.g08.bks.cpg/sg1_2_cif.got.tgz:3983.got - 2010.05.17 20:27:59.
