data_PCOD9000345
_publ_section_title
;
Structure prediction by ZEFSAII (Michael W. Deem and Ramdas Pophale) SiO2 
 PCOD9000345
Probable space group: P 1
;
_chemical_formula_sum "Si O2"
_cell_formula_units_Z 8
_cell_length_a 11.612309
_cell_length_b 8.965755
_cell_length_c 5.146806
_cell_angle_alpha 94.170802
_cell_angle_beta 90.172167
_cell_angle_gamma 38.347513
_cell_volume 330.310141
_symmetry_space_group_name_H-M "P 1"
_symmetry_group_IT_number 1
_symmetry_cell_setting 'triclinic'
loop_
_space_group_symop_operation_xyz
x,y,z
loop_
_atom_site_type_symbol
_atom_site_label
_atom_site_fract_x
_atom_site_fract_y
_atom_site_fract_z
Si Si1 0.954080 0.387090 0.877790
Si Si2 0.262948 0.699257 0.115024
Si Si3 0.901699 0.244918 0.354368
Si Si4 0.619220 0.275831 0.422456
Si Si5 0.369402 0.898998 0.962158
Si Si6 0.400012 0.297978 0.805107
Si Si7 0.715567 0.886744 0.132993
Si Si8 0.488795 0.933552 0.488080
O O1 0.943092 0.322038 0.588893
O O2 0.861382 0.643848 0.938937
O O3 0.170274 0.174199 0.930216
O O4 0.868118 0.361780 0.092827
O O5 0.429017 0.498075 0.291482
O O6 0.238054 0.568935 0.945254
O O7 0.082167 0.954860 0.277322
O O8 0.338751 0.753285 0.935418
O O9 0.733662 0.310013 0.447207
O O10 0.549850 0.259646 0.674855
O O11 0.747065 0.024046 0.237389
O O12 0.507316 0.816450 0.731394
O O13 0.422181 0.896495 0.250532
O O14 0.355918 0.211319 0.591635
O O15 0.516675 0.098563 0.008449
O O16 0.672687 0.830537 0.379434
#
# Coordination Sequence:
#
# PCOD9000345 Si02
#       8
#     1   1   1   1   1   1   1   1
#     4  11  27  46  66 101 141 173 228 286 335 411
#     4  10  25  45  69 103 142 175 232 284 333 417
#     4  11  27  47  70 103 137 181 228 282 346 400
#     4  10  25  44  72 100 139 185 226 280 346 399
#     4  11  24  43  68 102 136 177 226 280 344 401
#     4  10  23  44  70 102 137 179 233 278 335 415
#     4  10  24  46  66 102 138 175 231 280 333 414
#     4  11  23  43  69  99 132 179 226 272 342 403
#
# _framework density 24.219663000000001
#
# number of rings (size 3 to 8) (size 9 to 14) (size 15 to 20)
#    0.000    1.500    1.250    1.500   14.000    1.000 
#    0.000    0.000    0.000    0.000    0.000    0.000 
#    0.000    0.000    0.000    0.000    0.000    0.000 
#
# Total GULP energy -44762.381128 kJ/mol
# GULP energy per Si atom -5595.297641 kJ/mol
# Density = 2.416454 g / cm^3
# Si number density = 24.219663 Si / 1000 Ang^3
#
#
#
# Elastic Constant Matrix: (Units=GPa)
#
#
# Indices 1 2 3 4 5 6 
#
# 1 51.1058 12.6577 14.9287 5.4072 -3.3793 7.4285
# 2 12.6577 146.8789 47.2201 39.2000 17.7796 25.8460
# 3 14.9287 47.2201 128.3483 8.3750 9.7153 16.6647
# 4 5.4072 39.2000 8.3750 47.6873 19.9643 8.8580
# 5 -3.3793 17.7796 9.7153 19.9643 45.5341 2.1452
# 6 7.4285 25.8460 16.6647 8.8580 2.1452 19.4760
#
#
#
# Elastic Compliance Matrix: (Units=1/GPa)
#
#
# Indices 1 2 3 4 5 6 
#
# 1 0.021428 0.000025 -0.001827 -0.002417 0.003308 -0.005908
# 2 0.000025 0.011115 -0.002372 -0.006765 -0.000413 -0.009608
# 3 -0.001827 -0.002372 0.009547 0.002272 -0.002001 -0.005137
# 4 -0.002417 -0.006765 0.002272 0.032443 -0.011989 -0.005479
# 5 0.003308 -0.000413 -0.002001 -0.011989 0.027893 0.003379
# 6 -0.005908 -0.009608 -0.005137 -0.005479 0.003379 0.072864
#
#
# Mechanical properties :
#
#
# Convention : Reuss Voigt Hill
#
# Bulk Modulus (GPa) = 29.63730 52.88287 41.26008
# Shear Modulus (GPa) = 25.65612 39.30792 32.48202
#
# Velocity S-wave (km/s) = 3.25823 4.03299 3.66613
# Velocity P-wave (km/s) = 5.13987 6.60066 5.91553
#
# Compressibility (1/GPa) = 0.03374126
#
# Stress axis : x y z
#
# Youngs Moduli (GPa) = 46.66783 89.96845 104.74877
#
# Poissons Ratio (x) = -0.00225 0.19140
# Poissons Ratio (y) = -0.00117 0.24846
# Poissons Ratio (z) = 0.08527 0.21340
#
# Static dielectric constant tensor:
#      x y z
#    x 1.930140 0.018710 -0.025150 
#    y 0.018710 1.944410 0.029820 
#    z -0.025150 0.029820 1.989440 
# 
# From -- ./inp_files/2222.got.cif
#   From: 2010.05.17/outbox.cif.g08.bks.cpg/sg1_2_cif.got.tgz:2222.got - 2010.05.17 20:27:59.
