data_PCOD9000832
_publ_section_title
;
Structure prediction by ZEFSAII (Michael W. Deem and Ramdas Pophale) SiO2 
 PCOD9000832
Probable space group: P 1
;
_chemical_formula_sum "Si O2"
_cell_formula_units_Z 6
_cell_length_a 7.495460
_cell_length_b 7.495481
_cell_length_c 11.551906
_cell_angle_alpha 142.432086
_cell_angle_beta 37.571843
_cell_angle_gamma 141.620973
_cell_volume 219.104925
_symmetry_space_group_name_H-M "P 1"
_symmetry_group_IT_number 1
_symmetry_cell_setting 'triclinic'
loop_
_space_group_symop_operation_xyz
x,y,z
loop_
_atom_site_type_symbol
_atom_site_label
_atom_site_fract_x
_atom_site_fract_y
_atom_site_fract_z
Si Si1 0.804610 0.578480 0.651230
Si Si2 0.540043 0.843151 0.144095
Si Si3 0.490101 0.911269 0.551832
Si Si4 0.872871 0.528639 0.243467
Si Si5 0.551811 0.253435 0.933373
Si Si6 0.214947 0.590293 0.861948
O O1 0.662910 0.701395 0.897662
O O2 0.556162 0.568069 0.673857
O O3 0.178107 0.803985 0.576786
O O4 0.766436 0.218405 0.508263
O O5 0.529610 0.594693 0.121473
O O6 0.180010 0.805026 0.287058
O O7 0.765608 0.216663 0.218522
O O8 0.605461 0.643908 0.397637
O O9 0.420863 0.059815 0.782387
O O10 0.021382 0.459356 0.012911
O O11 0.940260 0.375529 0.803111
O O12 0.337060 0.978775 0.992218
#
# Coordination Sequence:
#
# PCOD9000832 Si02
#       6
#     1   1   1   1   1   1
#     4  10  20  38  62  86 117 163 203 234 292 374
#     4  10  20  38  62  86 117 163 203 234 292 374
#     4  11  22  39  63  90 119 158 203 247 295 357
#     4  11  22  39  63  90 119 158 203 247 295 357
#     4  11  22  39  64  92 120 157 203 251 297 353
#     4  11  22  39  64  92 120 157 203 251 297 353
#
# _framework density 27.384138
#
# number of rings (size 3 to 8) (size 9 to 14) (size 15 to 20)
#    0.000    1.333    0.000   10.000    0.000    0.000 
#    0.000    6.667    0.000    8.000    0.000    0.000 
#    0.000    0.000    0.000    0.000    0.000    0.000 
#
# Total GULP energy -33599.164438 kJ/mol
# GULP energy per Si atom -5599.860740 kJ/mol
# Density = 2.732181 g / cm^3
# Si number density = 27.384138 Si / 1000 Ang^3
#
#
#
# Elastic Constant Matrix: (Units=GPa)
#
#
# Indices 1 2 3 4 5 6 
#
# 1 89.2711 28.6954 32.8400 -9.8782 -19.4099 16.3802
# 2 28.6954 164.1931 28.5003 16.1214 -3.9976 5.2442
# 3 32.8400 28.5003 131.5665 2.8837 -10.8472 -1.2499
# 4 -9.8782 16.1214 2.8837 29.4885 -1.2606 -24.9627
# 5 -19.4099 -3.9976 -10.8472 -1.2606 33.9072 -4.2509
# 6 16.3802 5.2442 -1.2499 -24.9627 -4.2509 55.4591
#
#
#
# Elastic Compliance Matrix: (Units=1/GPa)
#
#
# Indices 1 2 3 4 5 6 
#
# 1 0.015722 -0.002683 -0.002844 0.006612 0.007910 -0.000872
# 2 -0.002683 0.007619 -0.000979 -0.008260 -0.001734 -0.003801
# 3 -0.002844 -0.000979 0.008634 -0.000298 0.001143 0.001081
# 4 0.006612 -0.008260 -0.000298 0.065626 0.008795 0.029035
# 5 0.007910 -0.001734 0.001143 0.008795 0.035073 0.004501
# 6 -0.000872 -0.003801 0.001081 0.029035 0.004501 0.032086
#
#
# Mechanical properties :
#
#
# Convention : Reuss Voigt Hill
#
# Bulk Modulus (GPa) = 52.73327 62.78910 57.76119
# Shear Modulus (GPa) = 27.16024 43.43731 35.29877
#
# Velocity S-wave (km/s) = 3.15274 3.98706 3.59419
# Velocity P-wave (km/s) = 5.70541 6.64638 6.19379
#
# Compressibility (1/GPa) = 0.01896336
#
# Stress axis : x y z
#
# Youngs Moduli (GPa) = 63.60559 131.24396 115.82468
#
# Poissons Ratio (x) = 0.35209 0.32943
# Poissons Ratio (y) = 0.17063 0.11339
# Poissons Ratio (z) = 0.18091 0.12848
#
# Static dielectric constant tensor:
#      x y z
#    x 2.223950 -0.052320 -0.001350 
#    y -0.052320 2.042670 0.000430 
#    z -0.001350 0.000430 2.121180 
# 
# From -- ./inp_files/843.got.cif
#   From: 2010.05.17/outbox.cif.g08.bks.cpg/sg1_1_cif.got.tgz:843.got - 2010.05.17 20:27:59.
