data_PCOD9000455
_publ_section_title
;
Structure prediction by ZEFSAII (Michael W. Deem and Ramdas Pophale) SiO2 
 PCOD9000455
Probable space group: P 1
;
_chemical_formula_sum "Si O2"
_cell_formula_units_Z 6
_cell_length_a 7.607680
_cell_length_b 4.975460
_cell_length_c 8.543307
_cell_angle_alpha 61.611866
_cell_angle_beta 124.753240
_cell_angle_gamma 93.108481
_cell_volume 222.980932
_symmetry_space_group_name_H-M "P 1"
_symmetry_group_IT_number 1
_symmetry_cell_setting 'triclinic'
loop_
_space_group_symop_operation_xyz
x,y,z
loop_
_atom_site_type_symbol
_atom_site_label
_atom_site_fract_x
_atom_site_fract_y
_atom_site_fract_z
Si Si1 0.908460 0.010550 0.255860
Si Si2 0.047371 0.239166 0.823751
Si Si3 0.574509 0.276578 0.560006
Si Si4 0.256077 0.061077 0.659475
Si Si5 0.472072 0.414272 0.108086
Si Si6 0.912312 0.694216 0.019419
O O1 0.674703 0.158698 0.188829
O O2 0.952787 0.325331 0.114632
O O3 0.115178 0.913095 0.508303
O O4 0.892692 0.778398 0.171309
O O5 0.084265 0.235569 0.658045
O O6 0.783050 0.408357 0.673510
O O7 0.087474 0.871330 0.998992
O O8 0.236837 0.355182 0.966441
O O9 0.365553 0.308154 0.560031
O O10 0.520450 0.364016 0.329852
O O11 0.695691 0.897902 0.755887
O O12 0.435050 0.769437 0.920594
#
# Coordination Sequence:
#
# PCOD9000455 Si02
#       6
#     1   1   1   1   1   1
#     4  12  25  50  80 112 156 199 258 314 377 460
#     4  10  25  46  72 115 144 202 252 308 378 454
#     4  10  24  49  70 115 148 204 250 320 372 461
#     4  12  26  47  78 108 153 203 251 315 384 446
#     4  12  25  49  76 112 153 202 254 315 382 453
#     4  10  25  49  76 112 152 198 253 312 377 448
#
# _framework density 26.908127
#
# number of rings (size 3 to 8) (size 9 to 14) (size 15 to 20)
#    1.000    0.000    3.333    2.000    7.000    0.000 
#    3.000    0.000    0.000    0.000    0.000    0.000 
#    0.000    0.000    0.000    0.000    0.000    0.000 
#
# Total GULP energy -33591.668337 kJ/mol
# GULP energy per Si atom -5598.611389 kJ/mol
# Density = 2.684688 g / cm^3
# Si number density = 26.908127 Si / 1000 Ang^3
#
#
#
# Elastic Constant Matrix: (Units=GPa)
#
#
# Indices 1 2 3 4 5 6 
#
# 1 205.3923 42.2901 68.6637 26.8388 -11.5494 19.9108
# 2 42.2901 71.0712 38.9056 21.4418 3.8679 3.7597
# 3 68.6637 38.9056 212.6312 17.9614 -19.0905 3.1768
# 4 26.8388 21.4418 17.9614 47.8195 7.2862 1.0883
# 5 -11.5494 3.8679 -19.0905 7.2862 47.3923 6.8512
# 6 19.9108 3.7597 3.1768 1.0883 6.8512 48.1669
#
#
#
# Elastic Compliance Matrix: (Units=1/GPa)
#
#
# Indices 1 2 3 4 5 6 
#
# 1 0.006450 -0.002443 -0.001220 -0.002314 0.002016 -0.002630
# 2 -0.002443 0.018660 -0.002335 -0.005788 -0.002191 0.000150
# 3 -0.001220 -0.002335 0.005804 -0.000807 0.002357 -0.000013
# 4 -0.002314 -0.005788 -0.000807 0.025775 -0.004601 0.001534
# 5 0.002016 -0.002191 0.002357 -0.004601 0.024025 -0.004131
# 6 -0.002630 0.000150 -0.000013 0.001534 -0.004131 0.022390
#
#
# Mechanical properties :
#
#
# Convention : Reuss Voigt Hill
#
# Bulk Modulus (GPa) = 52.86012 87.64592 70.25302
# Shear Modulus (GPa) = 41.18365 51.29142 46.23753
#
# Velocity S-wave (km/s) = 3.91644 4.37071 4.14979
# Velocity P-wave (km/s) = 6.33551 7.62324 7.00901
#
# Compressibility (1/GPa) = 0.01891785
#
# Stress axis : x y z
#
# Youngs Moduli (GPa) = 155.03333 53.59070 172.28412
#
# Poissons Ratio (x) = 0.13090 0.21024
# Poissons Ratio (y) = 0.37869 0.40236
# Poissons Ratio (z) = 0.18919 0.12516
#
# Static dielectric constant tensor:
#      x y z
#    x 2.199470 -0.005290 0.036700 
#    y -0.005290 2.048720 -0.054320 
#    z 0.036700 -0.054320 2.140280 
# 
# From -- ./inp_files/884.got.cif
#   From: 2010.05.17/outbox.cif.g08.bks.cpg/sg1_1_cif.got.tgz:884.got - 2010.05.17 20:27:59.
