data_PCOD9000399
_publ_section_title
;
Structure prediction by ZEFSAII (Michael W. Deem and Ramdas Pophale) SiO2 
 PCOD9000399
Probable space group: P 1
;
_chemical_formula_sum "Si O2"
_cell_formula_units_Z 8
_cell_length_a 4.994565
_cell_length_b 13.388293
_cell_length_c 8.519496
_cell_angle_alpha 39.144666
_cell_angle_beta 66.444920
_cell_angle_gamma 63.838129
_cell_volume 321.112084
_symmetry_space_group_name_H-M "P 1"
_symmetry_group_IT_number 1
_symmetry_cell_setting 'triclinic'
loop_
_space_group_symop_operation_xyz
x,y,z
loop_
_atom_site_type_symbol
_atom_site_label
_atom_site_fract_x
_atom_site_fract_y
_atom_site_fract_z
Si Si1 0.886110 0.733610 0.911150
Si Si2 0.043129 0.827833 0.414858
Si Si3 0.353027 0.055994 0.921487
Si Si4 0.835928 0.277534 0.216465
Si Si5 0.996976 0.027389 0.730204
Si Si6 0.398027 0.531638 0.217536
Si Si7 0.738222 0.178021 0.040355
Si Si8 0.213295 0.463307 0.687141
O O1 0.971681 0.801338 0.643851
O O2 0.927482 0.861449 0.880341
O O3 0.577739 0.673495 0.039876
O O4 0.143137 0.580236 0.086896
O O5 0.119874 0.652729 0.531446
O O6 0.333908 0.898382 0.219716
O O7 0.779080 0.983717 0.231453
O O8 0.669705 0.101955 0.791575
O O9 0.244185 0.024698 0.808771
O O10 0.079812 0.186722 0.904142
O O11 0.047491 0.135294 0.439136
O O12 0.632806 0.386235 0.259367
O O13 0.681854 0.191169 0.223967
O O14 0.978575 0.393407 0.932344
O O15 0.250256 0.485451 0.466023
O O16 0.518136 0.333717 0.827082
#
# Coordination Sequence:
#
# PCOD9000399 Si02
#       8
#     1   1   1   1   1   1   1   1
#     4  12  25  51  74 113 154 205 256 321 384 460
#     4  10  23  50  73 112 152 203 257 316 383 462
#     4  10  26  45  77 113 147 206 253 316 382 458
#     4  12  28  45  75 112 152 203 253 321 378 463
#     4  12  24  47  75 110 156 193 261 313 381 461
#     4  12  30  48  78 112 158 201 257 323 384 458
#     4  10  26  47  75 110 149 212 246 320 387 456
#     4  12  26  51  73 112 158 201 259 320 389 454
#
# _framework density 24.913419999999999
#
# number of rings (size 3 to 8) (size 9 to 14) (size 15 to 20)
#    0.750    0.000    2.500    3.750    7.000    2.000 
#    4.500    0.000    0.000    0.000    0.000    0.000 
#    0.000    0.000    0.000    0.000    0.000    0.000 
#
# Total GULP energy -44652.274843 kJ/mol
# GULP energy per Si atom -5581.534355 kJ/mol
# Density = 2.485672 g / cm^3
# Si number density = 24.913420 Si / 1000 Ang^3
#
#
#
# Elastic Constant Matrix: (Units=GPa)
#
#
# Indices 1 2 3 4 5 6 
#
# 1 88.6872 -11.1906 40.1517 -9.6563 -16.8020 7.2594
# 2 -11.1906 112.1380 18.6740 -34.0180 -33.7991 16.3381
# 3 40.1517 18.6740 190.3733 -0.4220 -11.2467 12.0627
# 4 -9.6563 -34.0180 -0.4220 28.5327 -15.3151 17.0851
# 5 -16.8020 -33.7991 -11.2467 -15.3151 -3.5517 16.8155
# 6 7.2594 16.3381 12.0627 17.0851 16.8155 21.5604
#
#
#
# Elastic Compliance Matrix: (Units=1/GPa)
#
#
# Indices 1 2 3 4 5 6 
#
# 1 0.010961 -0.001065 -0.002723 -0.002330 -0.004421 0.003934
# 2 -0.001065 0.005153 -0.001107 -0.001824 -0.008446 0.005106
# 3 -0.002723 -0.001107 0.006072 -0.000860 0.000715 -0.001517
# 4 -0.002330 -0.001824 -0.000860 0.017695 -0.021107 0.005088
# 5 -0.004421 -0.008446 0.000715 -0.021107 0.004929 0.020371
# 6 0.003934 0.005106 -0.001517 0.005088 0.020371 0.022117
#
#
# Mechanical properties :
#
#
# Convention : Reuss Voigt Hill
#
# Bulk Modulus (GPa) = 80.67914 54.05206 67.36560
# Shear Modulus (GPa) = 61.84431 32.21250 47.02840
#
# Velocity S-wave (km/s) = 4.98774 3.59970 4.34945
# Velocity P-wave (km/s) = 8.10088 6.24661 7.23341
#
# Compressibility (1/GPa) = 0.01239478
#
# Stress axis : x y z
#
# Youngs Moduli (GPa) = 91.23531 194.07459 164.68547
#
# Poissons Ratio (x) = 0.20673 0.44842
# Poissons Ratio (y) = 0.09718 0.18236
# Poissons Ratio (z) = 0.24842 0.21490
#
# Static dielectric constant tensor:
#      x y z
#    x 2.056870 0.003440 -0.058560 
#    y 0.003440 2.095280 -0.061520 
#    z -0.058560 -0.061520 1.942620 
# 
# From -- ./inp_files/3272.got.cif
#   From: 2010.05.17/outbox.cif.g08.bks.cpg/sg1_2_cif.got.tgz:3272.got - 2010.05.17 20:27:59.
