data_PCOD9000771
_publ_section_title
;
Structure prediction by ZEFSAII (Michael W. Deem and Ramdas Pophale) SiO2 
 PCOD9000771
Probable space group: P 1
;
_chemical_formula_sum "Si O2"
_cell_formula_units_Z 8
_cell_length_a 6.415446
_cell_length_b 10.593249
_cell_length_c 7.964569
_cell_angle_alpha 108.476275
_cell_angle_beta 65.482988
_cell_angle_gamma 62.841789
_cell_volume 341.893327
_symmetry_space_group_name_H-M "P 1"
_symmetry_group_IT_number 1
_symmetry_cell_setting 'triclinic'
loop_
_space_group_symop_operation_xyz
x,y,z
loop_
_atom_site_type_symbol
_atom_site_label
_atom_site_fract_x
_atom_site_fract_y
_atom_site_fract_z
Si Si1 0.586690 0.956930 0.036680
Si Si2 0.148124 0.779854 0.980920
Si Si3 0.663820 0.228182 0.755188
Si Si4 0.826883 0.636041 0.614725
Si Si5 0.711983 0.456079 0.071919
Si Si6 0.218820 0.447663 0.730265
Si Si7 0.117444 0.310530 0.161438
Si Si8 0.264799 0.857705 0.318386
O O1 0.496661 0.872357 0.158963
O O2 0.265721 0.162522 0.195818
O O3 0.725009 0.828036 0.769848
O O4 0.863569 0.932876 0.017718
O O5 0.497047 0.690527 0.778397
O O6 0.155130 0.618640 0.897651
O O7 0.096301 0.851386 0.215915
O O8 0.564677 0.281863 0.615570
O O9 0.620554 0.380250 0.938538
O O10 0.423413 0.220032 0.912091
O O11 0.013112 0.039350 0.581187
O O12 0.104428 0.498521 0.598964
O O13 0.968497 0.511093 0.350511
O O14 0.440920 0.671715 0.280063
O O15 0.852565 0.345952 0.152023
O O16 0.988466 0.431581 0.883276
#
# Coordination Sequence:
#
# PCOD9000771 Si02
#       8
#     1   1   1   1   1   1   1   1
#     4  10  24  42  65 103 130 170 226 274 320 397
#     4  10  19  40  70  96 127 164 226 271 325 368
#     4  11  26  41  67  99 136 178 215 270 335 391
#     4  10  22  42  67  95 133 174 216 275 323 390
#     4  11  23  46  63  96 138 174 219 269 328 396
#     4  10  19  41  67  98 126 167 226 267 316 392
#     4  11  28  42  63  99 142 174 213 270 340 391
#     4  11  23  40  72  98 126 177 227 272 317 393
#
# _framework density 23.399111999999999
#
# number of rings (size 3 to 8) (size 9 to 14) (size 15 to 20)
#    0.000    1.500    5.000    0.000    5.250    8.000 
#    0.000    0.000    0.000    0.000    0.000    0.000 
#    0.000    0.000    0.000    0.000    0.000    0.000 
#
# Total GULP energy -44651.927097 kJ/mol
# GULP energy per Si atom -5581.490887 kJ/mol
# Density = 2.334585 g / cm^3
# Si number density = 23.399112 Si / 1000 Ang^3
#
#
#
# Elastic Constant Matrix: (Units=GPa)
#
#
# Indices 1 2 3 4 5 6 
#
# 1 109.7062 41.0312 0.6288 2.4181 0.7179 -27.1627
# 2 41.0312 81.7410 14.6696 29.2507 -4.3559 -24.7735
# 3 0.6288 14.6696 64.3948 21.3334 -6.4957 -9.8591
# 4 2.4181 29.2507 21.3334 28.5158 -8.6010 -4.0366
# 5 0.7179 -4.3559 -6.4957 -8.6010 20.8428 -0.0916
# 6 -27.1627 -24.7735 -9.8591 -4.0366 -0.0916 33.6532
#
#
#
# Elastic Compliance Matrix: (Units=1/GPa)
#
#
# Indices 1 2 3 4 5 6 
#
# 1 0.013272 -0.007549 0.000064 0.007807 0.001234 0.006114
# 2 -0.007549 0.032570 0.006828 -0.037588 -0.006249 0.015358
# 3 0.000064 0.006828 0.022936 -0.023180 -0.000953 0.009014
# 4 0.007807 -0.037588 -0.023180 0.095131 0.023835 -0.016683
# 5 0.001234 -0.006249 -0.000953 0.023835 0.056165 -0.000871
# 6 0.006114 0.015358 0.009014 -0.016683 -0.000871 0.046592
#
#
# Mechanical properties :
#
#
# Convention : Reuss Voigt Hill
#
# Bulk Modulus (GPa) = 14.82277 40.94457 27.88367
# Shear Modulus (GPa) = 17.21357 29.90319 23.55838
#
# Velocity S-wave (km/s) = 2.71523 3.57874 3.17646
# Velocity P-wave (km/s) = 4.02225 5.88327 5.03941
#
# Compressibility (1/GPa) = 0.06746378
#
# Stress axis : x y z
#
# Youngs Moduli (GPa) = 75.34799 30.70336 43.59878
#
# Poissons Ratio (x) = 0.23177 -0.00279
# Poissons Ratio (y) = 0.56877 -0.29767
# Poissons Ratio (z) = -0.00482 -0.20963
#
# Static dielectric constant tensor:
#      x y z
#    x 1.872470 -0.046570 -0.009760 
#    y -0.046570 1.965720 -0.010630 
#    z -0.009760 -0.010630 1.881610 
# 
# From -- ./inp_files/1061.got.cif
#   From: 2010.05.17/outbox.cif.g08.bks.cpg/sg1_1_cif.got.tgz:1061.got - 2010.05.17 20:27:59.
