data_PCOD9000273
_publ_section_title
;
Structure prediction by ZEFSAII (Michael W. Deem and Ramdas Pophale) SiO2 
 PCOD9000273
Probable space group: P 1
;
_chemical_formula_sum "Si O2"
_cell_formula_units_Z 8
_cell_length_a 6.563118
_cell_length_b 12.017232
_cell_length_c 12.211212
_cell_angle_alpha 144.452856
_cell_angle_beta 49.967130
_cell_angle_gamma 112.036812
_cell_volume 404.278325
_symmetry_space_group_name_H-M "P 1"
_symmetry_group_IT_number 1
_symmetry_cell_setting 'triclinic'
loop_
_space_group_symop_operation_xyz
x,y,z
loop_
_atom_site_type_symbol
_atom_site_label
_atom_site_fract_x
_atom_site_fract_y
_atom_site_fract_z
Si Si1 0.072460 0.801890 0.141450
Si Si2 0.534273 0.998889 0.187208
Si Si3 0.129258 0.307549 0.010684
Si Si4 0.430186 0.041015 0.499004
Si Si5 0.444505 0.994885 0.837712
Si Si6 0.082109 0.738698 0.340762
Si Si7 0.528240 0.287616 0.230803
Si Si8 0.128123 0.690936 0.790664
O O1 0.103112 0.707288 0.176498
O O2 0.747922 0.941756 0.352427
O O3 0.277697 0.936278 0.178759
O O4 0.145199 0.667870 0.898448
O O5 0.615214 0.142050 0.189269
O O6 0.444777 0.104764 0.419769
O O7 0.801954 0.799242 0.958372
O O8 0.273228 0.129565 0.904586
O O9 0.259732 0.221046 0.779979
O O10 0.178223 0.518774 0.187592
O O11 0.794914 0.352884 0.159536
O O12 0.275944 0.871478 0.413560
O O13 0.290893 0.844779 0.819646
O O14 0.462057 0.154409 0.051448
O O15 0.760370 0.864343 0.585461
O O16 0.267965 0.481431 0.511707
#
# Coordination Sequence:
#
# PCOD9000273 Si02
#       8
#     1   1   1   1   1   1   1   1
#     4  10  22  46  68  90 136 172 212 276 314 372
#     4  10  23  45  66  95 134 170 217 271 314 381
#     4  12  25  41  69  98 129 177 211 263 332 384
#     4  10  23  45  66  95 134 170 217 271 314 381
#     4  12  24  42  64  98 138 166 216 266 318 390
#     4  11  24  43  66  98 131 172 216 265 322 384
#     4  12  25  41  69  98 129 177 211 263 332 384
#     4  11  24  43  66  98 131 172 216 265 322 384
#
# _framework density 19.788349
#
# number of rings (size 3 to 8) (size 9 to 14) (size 15 to 20)
#    0.000    1.000    6.250    0.000    1.750    4.000 
#    6.750    0.000    0.000    0.000    0.000    0.000 
#    0.000    0.000    0.000    0.000    0.000    0.000 
#
# Total GULP energy -44705.220763 kJ/mol
# GULP energy per Si atom -5588.152595 kJ/mol
# Density = 1.974331 g / cm^3
# Si number density = 19.788349 Si / 1000 Ang^3
#
#
#
# Elastic Constant Matrix: (Units=GPa)
#
#
# Indices 1 2 3 4 5 6 
#
# 1 75.7428 16.6360 34.8418 -3.4345 -5.3728 10.6609
# 2 16.6360 29.3537 40.7993 -4.7299 1.4565 4.8630
# 3 34.8418 40.7993 139.8319 -10.2193 10.7177 -5.9092
# 4 -3.4345 -4.7299 -10.2193 30.5732 5.1637 -3.0262
# 5 -5.3728 1.4565 10.7177 5.1637 28.9674 -7.8980
# 6 10.6609 4.8630 -5.9092 -3.0262 -7.8980 26.5503
#
#
#
# Elastic Compliance Matrix: (Units=1/GPa)
#
#
# Indices 1 2 3 4 5 6 
#
# 1 0.016729 -0.003731 -0.003656 -0.001054 0.003190 -0.006019
# 2 -0.003731 0.064249 -0.018142 0.002286 -0.001575 -0.014516
# 3 -0.003656 -0.018142 0.014137 0.002818 -0.003534 0.007207
# 4 -0.001054 0.002286 0.002818 0.035315 -0.006942 0.002592
# 5 0.003190 -0.001575 -0.003534 -0.006942 0.040306 0.009420
# 6 -0.006019 -0.014516 0.007207 0.002592 0.009420 0.047442
#
#
# Mechanical properties :
#
#
# Convention : Reuss Voigt Hill
#
# Bulk Modulus (GPa) = 22.69750 47.72028 35.20889
# Shear Modulus (GPa) = 17.61049 27.39494 22.50271
#
# Velocity S-wave (km/s) = 2.98643 3.72479 3.37585
# Velocity P-wave (km/s) = 4.83598 6.53195 5.74687
#
# Compressibility (1/GPa) = 0.04405772
#
# Stress axis : x y z
#
# Youngs Moduli (GPa) = 59.77521 15.56435 70.73552
#
# Poissons Ratio (x) = 0.05807 0.25859
# Poissons Ratio (y) = 0.22303 1.28330
# Poissons Ratio (z) = 0.21852 0.28237
#
# Static dielectric constant tensor:
#      x y z
#    x 1.674660 -0.015140 0.007070 
#    y -0.015140 1.686520 -0.021550 
#    z 0.007070 -0.021550 1.660670 
# 
# From -- ./inp_files/1656.got.cif
#   From: 2010.05.17/outbox.cif.g08.bks.cpg/sg1_1_cif.got.tgz:1656.got - 2010.05.17 20:27:59.
