data_PCOD9000564
_publ_section_title
;
Structure prediction by ZEFSAII (Michael W. Deem and Ramdas Pophale) SiO2 
 PCOD9000564
Probable space group: P 1
;
_chemical_formula_sum "Si O2"
_cell_formula_units_Z 8
_cell_length_a 13.475141
_cell_length_b 6.438260
_cell_length_c 11.532354
_cell_angle_alpha 123.932652
_cell_angle_beta 146.199210
_cell_angle_gamma 44.226369
_cell_volume 386.424635
_symmetry_space_group_name_H-M "P 1"
_symmetry_group_IT_number 1
_symmetry_cell_setting 'triclinic'
loop_
_space_group_symop_operation_xyz
x,y,z
loop_
_atom_site_type_symbol
_atom_site_label
_atom_site_fract_x
_atom_site_fract_y
_atom_site_fract_z
Si Si1 0.047740 0.161840 0.207700
Si Si2 0.209832 0.104360 0.594481
Si Si3 0.829989 0.171379 0.390620
Si Si4 0.209825 0.124039 0.094471
Si Si5 0.667942 0.826493 0.003864
Si Si6 0.667955 0.846164 0.503856
Si Si7 0.830016 0.788704 0.890632
Si Si8 0.047814 0.779131 0.707730
O O1 0.202172 0.074555 0.439851
O O2 0.159024 0.114201 0.177268
O O3 0.857766 0.511276 0.140307
O O4 0.938887 0.975263 0.049180
O O5 0.019920 0.085881 0.458004
O O6 0.159171 0.432098 0.677362
O O7 0.438856 0.870693 0.799150
O O8 0.718631 0.518410 0.420996
O O9 0.938927 0.975240 0.549189
O O10 0.675627 0.082949 0.158497
O O11 0.438915 0.079823 0.299184
O O12 0.019993 0.439260 0.958025
O O13 0.202164 0.867564 0.939856
O O14 0.718717 0.836343 0.921043
O O15 0.675622 0.875990 0.658500
O O16 0.857848 0.864662 0.640302
#
# Coordination Sequence:
#
# PCOD9000564 Si02
#       8
#     1   1   1   1   1   1   1   1
#     4  11  23  43  64  93 127 159 211 255 300 375
#     4  11  24  42  66  92 124 165 204 256 311 360
#     4  11  23  43  64  93 127 159 211 255 300 375
#     4  11  24  42  66  92 124 165 204 256 311 360
#     4  11  24  42  66  92 124 165 204 256 311 360
#     4  11  24  42  66  92 124 165 204 256 311 360
#     4  11  23  43  64  93 127 159 211 255 300 375
#     4  11  23  43  64  93 127 159 211 255 300 375
#
# _framework density 20.702615000000002
#
# number of rings (size 3 to 8) (size 9 to 14) (size 15 to 20)
#    0.000    1.000    5.000    1.500    0.000    4.000 
#    0.000    0.000    0.000    0.000    0.000    0.000 
#    0.000    0.000    0.000    0.000    0.000    0.000 
#
# Total GULP energy -44752.499894 kJ/mol
# GULP energy per Si atom -5594.062487 kJ/mol
# Density = 2.065549 g / cm^3
# Si number density = 20.702615 Si / 1000 Ang^3
#
#
#
# Elastic Constant Matrix: (Units=GPa)
#
#
# Indices 1 2 3 4 5 6 
#
# 1 15.9615 0.4093 2.4435 4.5457 -11.7392 3.9917
# 2 0.4093 25.5088 -0.0125 11.8158 -7.0568 9.8698
# 3 2.4435 -0.0125 124.0028 9.7179 -8.1315 -5.6715
# 4 4.5457 11.8158 9.7179 29.7133 2.7150 -1.6382
# 5 -11.7392 -7.0568 -8.1315 2.7150 28.6742 0.1923
# 6 3.9917 9.8698 -5.6715 -1.6382 0.1923 20.9104
#
#
#
# Elastic Compliance Matrix: (Units=1/GPa)
#
#
# Indices 1 2 3 4 5 6 
#
# 1 0.194865 0.108136 0.006678 -0.090954 0.117530 -0.094634
# 2 0.108136 0.137323 0.006284 -0.086341 0.088636 -0.091334
# 3 0.006678 0.006284 0.008880 -0.007247 0.007501 -0.002469
# 4 -0.090954 -0.086341 -0.007247 0.094198 -0.069889 0.064173
# 5 0.117530 0.088636 0.007501 -0.069889 0.114010 -0.068761
# 6 -0.094634 -0.091334 -0.002469 0.064173 -0.068761 0.113988
#
#
# Mechanical properties :
#
#
# Convention : Reuss Voigt Hill
#
# Bulk Modulus (GPa) = 1.71449 19.01707 10.36578
# Shear Modulus (GPa) = 8.12362 26.70179 17.41270
#
# Velocity S-wave (km/s) = 1.98305 3.59524 2.90330
# Velocity P-wave (km/s) = 2.46440 5.14200 4.03196
#
# Compressibility (1/GPa) = 0.58326330
#
# Stress axis : x y z
#
# Youngs Moduli (GPa) = 5.13177 7.28213 112.60933
#
# Poissons Ratio (x) = -0.78746 -0.75198
# Poissons Ratio (y) = -0.55493 -0.70768
# Poissons Ratio (z) = -0.03427 -0.04576
#
# Static dielectric constant tensor:
#      x y z
#    x 1.733930 -0.026400 0.008360 
#    y -0.026400 1.720200 -0.006570 
#    z 0.008360 -0.006570 1.700080 
# 
# From -- ./inp_files/2356.got.cif
#   From: 2010.05.17/outbox.cif.g08.bks.cpg/sg1_2_cif.got.tgz:2356.got - 2010.05.17 20:27:59.
