data_PCOD9000929
_publ_section_title
;
Structure prediction by ZEFSAII (Michael W. Deem and Ramdas Pophale) SiO2 
 PCOD9000929
Probable space group: P 1
;
_chemical_formula_sum "Si O2"
_cell_formula_units_Z 8
_cell_length_a 14.656405
_cell_length_b 15.986660
_cell_length_c 6.173607
_cell_angle_alpha 53.190418
_cell_angle_beta 49.603833
_cell_angle_gamma 18.176409
_cell_volume 342.813245
_symmetry_space_group_name_H-M "P 1"
_symmetry_group_IT_number 1
_symmetry_cell_setting 'triclinic'
loop_
_space_group_symop_operation_xyz
x,y,z
loop_
_atom_site_type_symbol
_atom_site_label
_atom_site_fract_x
_atom_site_fract_y
_atom_site_fract_z
Si Si1 0.719710 0.590490 0.755770
Si Si2 0.198144 0.966308 0.320361
Si Si3 0.770590 0.004936 0.073699
Si Si4 0.253261 0.293095 0.282410
Si Si5 0.285992 0.496056 0.801503
Si Si6 0.152029 0.852338 0.946359
Si Si7 0.670589 0.345714 0.199025
Si Si8 0.214234 0.105734 0.456683
O O1 0.965487 0.487356 0.568913
O O2 0.941490 0.325536 0.715719
O O3 0.408920 0.635180 0.071426
O O4 0.502759 0.741501 0.056941
O O5 0.137267 0.117656 0.327178
O O6 0.259830 0.815756 0.611410
O O7 0.893926 0.190406 0.297680
O O8 0.532300 0.288942 0.942030
O O9 0.991326 0.869611 0.128873
O O10 0.547259 0.084290 0.304777
O O11 0.995312 0.798306 0.847698
O O12 0.306708 0.153535 0.253760
O O13 0.195375 0.446888 0.001312
O O14 0.477860 0.395829 0.475291
O O15 0.492798 0.813238 0.572119
O O16 0.894070 0.138785 0.980064
#
# Coordination Sequence:
#
# PCOD9000929 Si02
#       8
#     1   1   1   1   1   1   1   1
#     4  10  24  46  72 109 148 197 253 297 370 446
#     4  12  27  50  76 108 159 206 240 322 366 446
#     4  10  20  43  77 100 146 191 228 312 380 419
#     4   8  21  44  76 104 149 188 244 320 352 464
#     4  10  20  43  77 100 146 191 228 312 380 419
#     4  12  28  47  74 113 149 195 254 304 377 453
#     4  12  28  47  74 113 149 195 254 304 377 453
#     4  10  24  46  72 109 148 197 253 297 370 446
#
# _framework density 23.336321999999999
#
# number of rings (size 3 to 8) (size 9 to 14) (size 15 to 20)
#    1.500    0.000    1.250    3.000    0.000    7.000 
#    0.000    5.000    0.000    0.000    0.000    0.000 
#    0.000    0.000    0.000    0.000    0.000    0.000 
#
# Total GULP energy -44641.163222 kJ/mol
# GULP energy per Si atom -5580.145403 kJ/mol
# Density = 2.328321 g / cm^3
# Si number density = 23.336322 Si / 1000 Ang^3
#
#
#
# Elastic Constant Matrix: (Units=GPa)
#
#
# Indices 1 2 3 4 5 6 
#
# 1 128.2931 21.1803 63.4859 1.4556 -24.6700 1.6331
# 2 21.1803 94.3368 35.3003 7.8225 -6.9632 -1.2422
# 3 63.4859 35.3003 133.8552 19.0075 -21.4325 -6.0046
# 4 1.4556 7.8225 19.0075 37.8946 -1.4895 -4.2821
# 5 -24.6700 -6.9632 -21.4325 -1.4895 33.2007 0.0069
# 6 1.6331 -1.2422 -6.0046 -4.2821 0.0069 35.3716
#
#
#
# Elastic Compliance Matrix: (Units=1/GPa)
#
#
# Indices 1 2 3 4 5 6 
#
# 1 0.011204 -0.000569 -0.004665 0.002114 0.005289 -0.001074
# 2 -0.000569 0.011832 -0.002654 -0.001094 0.000297 -0.000141
# 3 -0.004665 -0.002654 0.011663 -0.004822 0.003289 0.001518
# 4 0.002114 -0.001094 -0.004822 0.029226 -0.000461 0.002584
# 5 0.005289 0.000297 0.003289 -0.000461 0.036215 0.000262
# 6 -0.001074 -0.000141 0.001518 0.002584 0.000262 0.028886
#
#
# Mechanical properties :
#
#
# Convention : Reuss Voigt Hill
#
# Bulk Modulus (GPa) = 52.84772 66.26867 59.55819
# Shear Modulus (GPa) = 33.08852 37.06126 35.07489
#
# Velocity S-wave (km/s) = 3.76958 3.98947 3.88108
# Velocity P-wave (km/s) = 6.45303 7.04840 6.75728
#
# Compressibility (1/GPa) = 0.01892229
#
# Stress axis : x y z
#
# Youngs Moduli (GPa) = 89.25384 84.51741 85.74219
#
# Poissons Ratio (x) = 0.04807 0.40002
# Poissons Ratio (y) = 0.05076 0.22757
# Poissons Ratio (z) = 0.41640 0.22432
#
# Static dielectric constant tensor:
#      x y z
#    x 1.902260 0.007320 -0.071230 
#    y 0.007320 1.852060 -0.023470 
#    z -0.071230 -0.023470 1.913110 
# 
# From -- ./inp_files/5852.got.cif
#   From: 2010.05.17/outbox.cif.g08.bks.cpg/sg1_3_cif.got.tgz:5852.got - 2010.05.17 20:27:59.
