data_PCOD9000407
_publ_section_title
;
Structure prediction by ZEFSAII (Michael W. Deem and Ramdas Pophale) SiO2 
 PCOD9000407
Probable space group: P 1
;
_chemical_formula_sum "Si O2"
_cell_formula_units_Z 8
_cell_length_a 13.994304
_cell_length_b 5.206774
_cell_length_c 5.354490
_cell_angle_alpha 61.007700
_cell_angle_beta 101.296335
_cell_angle_gamma 89.522341
_cell_volume 332.217382
_symmetry_space_group_name_H-M "P 1"
_symmetry_group_IT_number 1
_symmetry_cell_setting 'triclinic'
loop_
_space_group_symop_operation_xyz
x,y,z
loop_
_atom_site_type_symbol
_atom_site_label
_atom_site_fract_x
_atom_site_fract_y
_atom_site_fract_z
Si Si1 0.044380 0.545820 0.295090
Si Si2 0.097733 0.096923 0.895991
Si Si3 0.210388 0.515164 0.071542
Si Si4 0.605918 0.350193 0.678189
Si Si5 0.855836 0.566279 0.889119
Si Si6 0.441052 0.443869 0.231188
Si Si7 0.786052 0.259980 0.497093
Si Si8 0.555216 0.943030 0.208876
O O1 0.022064 0.333961 0.604386
O O2 0.971040 0.517109 0.043656
O O3 0.157867 0.435757 0.338955
O O4 0.046220 0.895883 0.163904
O O5 0.177993 0.277235 0.976055
O O6 0.150581 0.842517 0.857928
O O7 0.325344 0.517223 0.141601
O O8 0.491139 0.328538 0.571966
O O9 0.670653 0.280170 0.498478
O O10 0.632219 0.112686 0.016882
O O11 0.605450 0.701273 0.547679
O O12 0.806427 0.444191 0.172447
O O13 0.825217 0.400119 0.706134
O O14 0.828757 0.916655 0.666728
O O15 0.477113 0.186326 0.179514
O O16 0.498009 0.732883 0.097959
#
# Coordination Sequence:
#
# PCOD9000407 Si02
#       8
#     1   1   1   1   1   1   1   1
#     4  10  26  44  70  95 141 173 231 278 353 402
#     4  10  24  41  66  95 133 179 222 275 343 399
#     4  10  24  42  66  99 134 179 223 277 337 411
#     4  10  26  44  71  94 142 173 230 279 352 404
#     4  12  28  46  77 107 143 186 241 295 357 427
#     4  10  24  42  66  99 135 177 226 273 341 407
#     4  12  28  47  76 108 143 186 241 294 360 424
#     4  10  24  40  66  95 133 179 222 275 341 400
#
# _framework density 24.08062
#
# number of rings (size 3 to 8) (size 9 to 14) (size 15 to 20)
#    1.500    0.000    0.000    3.000   10.500    2.000 
#    0.000    0.000    0.000    0.000    0.000    0.000 
#    0.000    0.000    0.000    0.000    0.000    0.000 
#
# Total GULP energy -44614.428172 kJ/mol
# GULP energy per Si atom -5576.803521 kJ/mol
# Density = 2.402581 g / cm^3
# Si number density = 24.080620 Si / 1000 Ang^3
#
#
#
# Elastic Constant Matrix: (Units=GPa)
#
#
# Indices 1 2 3 4 5 6 
#
# 1 86.9525 25.6587 26.9523 -10.1768 -1.6381 2.8284
# 2 25.6587 153.8971 60.9131 -27.8823 -6.8009 16.4381
# 3 26.9523 60.9131 134.5280 -28.1583 -19.9897 7.3973
# 4 -10.1768 -27.8823 -28.1583 41.8719 5.6324 3.6238
# 5 -1.6381 -6.8009 -19.9897 5.6324 27.7074 6.3534
# 6 2.8284 16.4381 7.3973 3.6238 6.3534 35.0070
#
#
#
# Elastic Compliance Matrix: (Units=1/GPa)
#
#
# Indices 1 2 3 4 5 6 
#
# 1 0.012554 -0.001186 -0.001919 0.001124 -0.001173 0.000045
# 2 -0.001186 0.008957 -0.002681 0.004186 0.000266 -0.004025
# 3 -0.001919 -0.002681 0.011169 0.004553 0.006976 -0.002684
# 4 0.001124 0.004186 0.004553 0.030592 -0.000440 -0.006105
# 5 -0.001173 0.000266 0.006976 -0.000440 0.043349 -0.009326
# 6 0.000045 -0.004025 -0.002684 -0.006105 -0.009326 0.033344
#
#
# Mechanical properties :
#
#
# Convention : Reuss Voigt Hill
#
# Bulk Modulus (GPa) = 47.37884 66.93621 57.15752
# Shear Modulus (GPa) = 31.53134 38.37416 34.95275
#
# Velocity S-wave (km/s) = 3.62250 3.99629 3.81397
# Velocity P-wave (km/s) = 6.10037 7.01076 6.57135
#
# Compressibility (1/GPa) = 0.02110647
#
# Stress axis : x y z
#
# Youngs Moduli (GPa) = 79.65881 111.64752 89.53346
#
# Poissons Ratio (x) = 0.13244 0.17184
# Poissons Ratio (y) = 0.09449 0.24003
# Poissons Ratio (z) = 0.15289 0.29931
#
# Static dielectric constant tensor:
#      x y z
#    x 1.924730 0.024950 -0.022270 
#    y 0.024950 1.932870 -0.009400 
#    z -0.022270 -0.009400 2.010960 
# 
# From -- ./inp_files/2591.got.cif
#   From: 2010.05.17/outbox.cif.g08.bks.cpg/sg1_2_cif.got.tgz:2591.got - 2010.05.17 20:27:59.
