data_PCOD9000784
_publ_section_title
;
Structure prediction by ZEFSAII (Michael W. Deem and Ramdas Pophale) SiO2 
 PCOD9000784
Probable space group: P 1
;
_chemical_formula_sum "Si O2"
_cell_formula_units_Z 8
_cell_length_a 8.771520
_cell_length_b 7.956488
_cell_length_c 8.288931
_cell_angle_alpha 90.344377
_cell_angle_beta 34.595181
_cell_angle_gamma 75.041153
_cell_volume 291.060187
_symmetry_space_group_name_H-M "P 1"
_symmetry_group_IT_number 1
_symmetry_cell_setting 'triclinic'
loop_
_space_group_symop_operation_xyz
x,y,z
loop_
_atom_site_type_symbol
_atom_site_label
_atom_site_fract_x
_atom_site_fract_y
_atom_site_fract_z
Si Si1 0.083360 0.900890 0.252400
Si Si2 0.987578 0.209413 0.564150
Si Si3 0.086748 0.967983 0.786556
Si Si4 0.771591 0.704626 0.138184
Si Si5 0.104245 0.547903 0.144835
Si Si6 0.418559 0.140664 0.713628
Si Si7 0.308654 0.360163 0.499324
Si Si8 0.401758 0.563595 0.160584
O O1 0.299100 0.780320 0.214419
O O2 0.066356 0.100380 0.324092
O O3 0.215471 0.712618 0.019340
O O4 0.719990 0.979766 0.535035
O O5 0.255650 0.241957 0.404545
O O6 0.928374 0.103840 0.771139
O O7 0.685113 0.408908 0.815314
O O8 0.913400 0.848384 0.982504
O O9 0.178520 0.067579 0.859022
O O10 0.418781 0.828100 0.431419
O O11 0.819433 0.625042 0.278393
O O12 0.983038 0.518211 0.849562
O O13 0.289629 0.330669 0.932483
O O14 0.103103 0.560976 0.338571
O O15 0.488755 0.220929 0.485583
O O16 0.442338 0.486222 0.303653
#
# Coordination Sequence:
#
# PCOD9000784 Si02
#       8
#     1   1   1   1   1   1   1   1
#     4  10  19  42  69  95 149 179 243 284 365 418
#     4  11  24  40  69 105 141 189 236 293 357 423
#     4  11  25  44  77 105 144 186 243 291 354 423
#     4  11  24  47  74 108 141 191 238 294 355 420
#     4   9  21  42  67 100 145 182 236 291 357 417
#     4  10  20  46  67 103 135 189 239 293 350 428
#     4  10  25  42  69 102 143 184 243 295 350 423
#     4  10  22  43  64 100 140 186 228 293 354 414
#
# _framework density 27.485723
#
# number of rings (size 3 to 8) (size 9 to 14) (size 15 to 20)
#    0.750    1.000    2.500    0.750    7.000    0.000 
#    6.750    0.000    0.000    0.000    0.000    0.000 
#    0.000    0.000    0.000    0.000    0.000    0.000 
#
# Total GULP energy -44536.901176 kJ/mol
# GULP energy per Si atom -5567.112647 kJ/mol
# Density = 2.742316 g / cm^3
# Si number density = 27.485723 Si / 1000 Ang^3
#
#
#
# Elastic Constant Matrix: (Units=GPa)
#
#
# Indices 1 2 3 4 5 6 
#
# 1 81.5758 38.8587 31.0637 25.3884 -2.4071 17.0515
# 2 38.8587 128.3070 62.8224 24.9982 -18.4544 -1.2733
# 3 31.0637 62.8224 101.5094 29.5746 -33.4700 8.5081
# 4 25.3884 24.9982 29.5746 52.2335 1.1205 8.7964
# 5 -2.4071 -18.4544 -33.4700 1.1205 39.9590 22.4676
# 6 17.0515 -1.2733 8.5081 8.7964 22.4676 60.5195
#
#
#
# Elastic Compliance Matrix: (Units=1/GPa)
#
#
# Indices 1 2 3 4 5 6 
#
# 1 0.016871 -0.003680 -0.000245 -0.005550 0.001909 -0.004698
# 2 -0.003680 0.012342 -0.007681 -0.000296 -0.002916 0.003502
# 3 -0.000245 -0.007681 0.027546 -0.010286 0.026778 -0.012411
# 4 -0.005550 -0.000296 -0.010286 0.027492 -0.011753 0.003371
# 5 0.001909 -0.002916 0.026778 -0.011753 0.060720 -0.025198
# 6 -0.004698 0.003502 -0.012411 0.003371 -0.025198 0.028530
#
#
# Mechanical properties :
#
#
# Convention : Reuss Voigt Hill
#
# Bulk Modulus (GPa) = 29.80922 64.09796 46.95359
# Shear Modulus (GPa) = 24.05047 42.45223 33.25135
#
# Velocity S-wave (km/s) = 2.96128 3.93430 3.48195
# Velocity P-wave (km/s) = 4.74985 6.63396 5.76934
#
# Compressibility (1/GPa) = 0.03354667
#
# Stress axis : x y z
#
# Youngs Moduli (GPa) = 59.27506 81.02298 36.30295
#
# Poissons Ratio (x) = 0.29818 0.00890
# Poissons Ratio (y) = 0.21815 0.27883
# Poissons Ratio (z) = 0.01452 0.62232
#
# Static dielectric constant tensor:
#      x y z
#    x 2.230880 -0.035240 0.107230 
#    y -0.035240 2.266880 -0.090520 
#    z 0.107230 -0.090520 2.201030 
# 
# From -- ./inp_files/1727.got.cif
#   From: 2010.05.17/outbox.cif.g08.bks.cpg/sg1_1_cif.got.tgz:1727.got - 2010.05.17 20:27:59.
