data_PCOD9000462
_publ_section_title
;
Structure prediction by ZEFSAII (Michael W. Deem and Ramdas Pophale) SiO2 
 PCOD9000462
Probable space group: P 1
;
_chemical_formula_sum "Si O2"
_cell_formula_units_Z 6
_cell_length_a 7.366874
_cell_length_b 4.942600
_cell_length_c 9.368126
_cell_angle_alpha 99.781266
_cell_angle_beta 134.112180
_cell_angle_gamma 91.887979
_cell_volume 235.772748
_symmetry_space_group_name_H-M "P 1"
_symmetry_group_IT_number 1
_symmetry_cell_setting 'triclinic'
loop_
_space_group_symop_operation_xyz
x,y,z
loop_
_atom_site_type_symbol
_atom_site_label
_atom_site_fract_x
_atom_site_fract_y
_atom_site_fract_z
Si Si1 0.067750 0.752360 0.863750
Si Si2 0.119058 0.529188 0.459170
Si Si3 0.892877 0.626972 0.074030
Si Si4 0.449994 0.116208 0.685917
Si Si5 0.657805 0.788094 0.215414
Si Si6 0.787616 0.149723 0.595673
O O1 0.879079 0.482545 0.669411
O O2 0.355131 0.701844 0.015866
O O3 0.022757 0.022129 0.778264
O O4 0.981902 0.756143 0.982132
O O5 0.210940 0.268051 0.549654
O O6 0.117505 0.541553 0.285944
O O7 0.826894 0.560181 0.332546
O O8 0.325628 0.807458 0.647889
O O9 0.786490 0.849748 0.134730
O O10 0.671407 0.344324 0.905811
O O11 0.568953 0.081297 0.592001
O O12 0.696386 0.007941 0.384101
#
# Coordination Sequence:
#
# PCOD9000462 Si02
#       6
#     1   1   1   1   1   1
#     4  11  25  48  66 103 138 175 228 277 336 405
#     4  10  25  39  70  98 134 171 226 269 336 392
#     4   9  24  44  70 100 131 185 216 280 336 394
#     4  11  22  45  67  98 135 178 219 274 336 401
#     4  10  26  44  71 104 133 180 225 282 332 402
#     4  11  26  44  72  99 137 179 224 282 336 392
#
# _framework density 25.448232999999998
#
# number of rings (size 3 to 8) (size 9 to 14) (size 15 to 20)
#    1.000    0.667    0.000    3.000    4.667    9.333 
#    0.000    0.000    0.000    0.000    0.000    0.000 
#    0.000    0.000    0.000    0.000    0.000    0.000 
#
# Total GULP energy -33585.650616 kJ/mol
# GULP energy per Si atom -5597.608436 kJ/mol
# Density = 2.539031 g / cm^3
# Si number density = 25.448233 Si / 1000 Ang^3
#
#
#
# Elastic Constant Matrix: (Units=GPa)
#
#
# Indices 1 2 3 4 5 6 
#
# 1 93.8405 23.5776 21.4462 3.0874 -10.0200 -19.1271
# 2 23.5776 84.2717 13.0771 4.6996 -3.2196 2.3354
# 3 21.4462 13.0771 85.7995 13.2331 -13.1787 12.1182
# 4 3.0874 4.6996 13.2331 28.5764 -10.3720 -6.4227
# 5 -10.0200 -3.2196 -13.1787 -10.3720 56.9847 -0.4954
# 6 -19.1271 2.3354 12.1182 -6.4227 -0.4954 34.8976
#
#
#
# Elastic Compliance Matrix: (Units=1/GPa)
#
#
# Indices 1 2 3 4 5 6 
#
# 1 0.015223 -0.003947 -0.005196 0.004759 0.002217 0.011319
# 2 -0.003947 0.013226 -0.000215 -0.002609 -0.000501 -0.003461
# 3 -0.005196 -0.000215 0.015879 -0.008586 0.001098 -0.009912
# 4 0.004759 -0.002609 -0.008586 0.044564 0.006937 0.014065
# 5 0.002217 -0.000501 0.001098 0.006937 0.019448 0.002420
# 6 0.011319 -0.003461 -0.009912 0.014065 0.002420 0.041156
#
#
# Mechanical properties :
#
#
# Convention : Reuss Voigt Hill
#
# Bulk Modulus (GPa) = 39.04304 42.23482 40.63893
# Shear Modulus (GPa) = 28.28870 37.81244 33.05057
#
# Velocity S-wave (km/s) = 3.33771 3.85886 3.60771
# Velocity P-wave (km/s) = 5.49811 6.04043 5.77564
#
# Compressibility (1/GPa) = 0.02561276
#
# Stress axis : x y z
#
# Youngs Moduli (GPa) = 65.69097 75.60657 62.97482
#
# Poissons Ratio (x) = 0.29843 0.32720
# Poissons Ratio (y) = 0.25930 0.01354
# Poissons Ratio (z) = 0.34131 0.01626
#
# Static dielectric constant tensor:
#      x y z
#    x 2.041090 -0.015640 -0.029410 
#    y -0.015640 1.953370 -0.013500 
#    z -0.029410 -0.013500 1.991050 
# 
# From -- ./inp_files/847.got.cif
#   From: 2010.05.17/outbox.cif.g08.bks.cpg/sg1_1_cif.got.tgz:847.got - 2010.05.17 20:27:59.
