data_PCOD9000581
_publ_section_title
;
Structure prediction by ZEFSAII (Michael W. Deem and Ramdas Pophale) SiO2 
 PCOD9000581
Probable space group: P 1
;
_chemical_formula_sum "Si O2"
_cell_formula_units_Z 8
_cell_length_a 7.826254
_cell_length_b 5.022369
_cell_length_c 11.991798
_cell_angle_alpha 110.021031
_cell_angle_beta 53.856940
_cell_angle_gamma 80.361054
_cell_volume 312.397978
_symmetry_space_group_name_H-M "P 1"
_symmetry_group_IT_number 1
_symmetry_cell_setting 'triclinic'
loop_
_space_group_symop_operation_xyz
x,y,z
loop_
_atom_site_type_symbol
_atom_site_label
_atom_site_fract_x
_atom_site_fract_y
_atom_site_fract_z
Si Si1 0.229050 0.460500 0.810560
Si Si2 0.801455 0.375042 0.032136
Si Si3 0.819302 0.120116 0.755201
Si Si4 0.688092 0.834581 0.557182
Si Si5 0.213525 0.483023 0.201659
Si Si6 0.301336 0.639073 0.590963
Si Si7 0.541022 0.152505 0.243041
Si Si8 0.373157 0.774691 0.987332
O O1 0.136229 0.618636 0.749920
O O2 0.504818 0.198648 0.643822
O O3 0.237377 0.692766 0.932607
O O4 0.071970 0.308610 0.898372
O O5 0.750666 0.241529 0.145298
O O6 0.643518 0.768049 0.143973
O O7 0.742915 0.203589 0.926736
O O8 0.752134 0.897548 0.668638
O O9 0.655990 0.492878 0.828246
O O10 0.112882 0.929786 0.623746
O O11 0.514662 0.683257 0.572072
O O12 0.931223 0.660890 0.367407
O O13 0.349389 0.359068 0.249942
O O14 0.269474 0.718547 0.136733
O O15 0.306467 0.144109 0.052791
O O16 0.420771 0.310375 0.427664
#
# Coordination Sequence:
#
# PCOD9000581 Si02
#       8
#     1   1   1   1   1   1   1   1
#     4  11  29  48  75 117 154 210 256 327 382 462
#     4  12  26  49  78 112 151 204 262 314 386 450
#     4  11  23  52  76 110 150 204 259 320 371 465
#     4  11  28  48  75 113 156 206 254 317 391 459
#     4  12  25  51  73 117 153 206 253 322 389 459
#     4  12  28  51  78 114 162 204 259 319 396 460
#     4  12  27  48  78 113 155 205 252 323 386 462
#     4  11  28  47  81 108 157 201 265 316 383 461
#
# _framework density 25.608357999999999
#
# number of rings (size 3 to 8) (size 9 to 14) (size 15 to 20)
#    0.000    0.500    5.000    0.750   10.500    0.000 
#    4.500    0.000    0.000    0.000    0.000    0.000 
#    0.000    0.000    0.000    0.000    0.000    0.000 
#
# Total GULP energy -44720.340108 kJ/mol
# GULP energy per Si atom -5590.042513 kJ/mol
# Density = 2.555007 g / cm^3
# Si number density = 25.608358 Si / 1000 Ang^3
#
#
#
# Elastic Constant Matrix: (Units=GPa)
#
#
# Indices 1 2 3 4 5 6 
#
# 1 136.8040 37.0181 61.5097 9.7884 -2.5989 2.3694
# 2 37.0181 104.5115 37.3903 6.7575 -14.1162 0.3275
# 3 61.5097 37.3903 129.7309 18.0499 -4.7978 -1.0123
# 4 9.7884 6.7575 18.0499 37.7581 -9.5704 -1.6900
# 5 -2.5989 -14.1162 -4.7978 -9.5704 57.7756 7.0890
# 6 2.3694 0.3275 -1.0123 -1.6900 7.0890 31.6504
#
#
#
# Elastic Compliance Matrix: (Units=1/GPa)
#
#
# Indices 1 2 3 4 5 6 
#
# 1 0.009677 -0.002029 -0.003971 -0.000372 -0.000357 -0.000770
# 2 -0.002029 0.011443 -0.002272 0.000202 0.002625 -0.000616
# 3 -0.003971 -0.002272 0.010762 -0.003820 -0.000544 0.000583
# 4 -0.000372 0.000202 -0.003820 0.029546 0.004553 0.000461
# 5 -0.000357 0.002625 -0.000544 0.004553 0.019141 -0.004062
# 6 -0.000770 -0.000616 0.000583 0.000461 -0.004062 0.032612
#
#
# Mechanical properties :
#
#
# Convention : Reuss Voigt Hill
#
# Bulk Modulus (GPa) = 65.19437 71.43139 68.31288
# Shear Modulus (GPa) = 37.08153 41.11205 39.09679
#
# Velocity S-wave (km/s) = 3.80942 4.01111 3.91157
# Velocity P-wave (km/s) = 6.69794 7.02896 6.86545
#
# Compressibility (1/GPa) = 0.01533875
#
# Stress axis : x y z
#
# Youngs Moduli (GPa) = 103.33400 87.38815 92.92086
#
# Poissons Ratio (x) = 0.17729 0.36899
# Poissons Ratio (y) = 0.20965 0.21111
# Poissons Ratio (z) = 0.41034 0.19854
#
# Static dielectric constant tensor:
#      x y z
#    x 2.090880 -0.028030 -0.019930 
#    y -0.028030 2.020560 0.015810 
#    z -0.019930 0.015810 1.989920 
# 
# From -- ./inp_files/6280.got.cif
#   From: 2010.05.17/outbox.cif.g08.bks.cpg/sg1_4_cif.got.tgz:6280.got - 2010.05.17 20:27:59.
