data_PCOD9000731
_publ_section_title
;
Structure prediction by ZEFSAII (Michael W. Deem and Ramdas Pophale) SiO2 
 PCOD9000731
Probable space group: P 1
;
_chemical_formula_sum "Si O2"
_cell_formula_units_Z 8
_cell_length_a 6.514741
_cell_length_b 8.230982
_cell_length_c 7.106353
_cell_angle_alpha 71.891421
_cell_angle_beta 72.949007
_cell_angle_gamma 98.356733
_cell_volume 334.336649
_symmetry_space_group_name_H-M "P 1"
_symmetry_group_IT_number 1
_symmetry_cell_setting 'triclinic'
loop_
_space_group_symop_operation_xyz
x,y,z
loop_
_atom_site_type_symbol
_atom_site_label
_atom_site_fract_x
_atom_site_fract_y
_atom_site_fract_z
Si Si1 0.303420 0.343110 0.728330
Si Si2 0.033651 0.187668 0.362863
Si Si3 0.457365 0.435042 0.084347
Si Si4 0.258299 0.750082 0.962838
Si Si5 0.995298 0.995306 0.051199
Si Si6 0.703878 0.026496 0.798861
Si Si7 0.761975 0.416912 0.532658
Si Si8 0.949696 0.557540 0.785030
O O1 0.186320 0.135654 0.830920
O O2 0.521918 0.422771 0.515879
O O3 0.098002 0.426862 0.727431
O O4 0.386075 0.397638 0.897794
O O5 0.297804 0.262912 0.287706
O O6 0.910294 0.042763 0.597126
O O7 0.924696 0.354602 0.365631
O O8 0.977637 0.099471 0.207784
O O9 0.355109 0.600782 0.089908
O O10 0.723985 0.481923 0.995027
O O11 0.119054 0.691554 0.828538
O O12 0.091755 0.826585 0.108078
O O13 0.484532 0.901976 0.816296
O O14 0.771345 0.961014 0.003152
O O15 0.689117 0.229419 0.739674
O O16 0.853857 0.578674 0.593732
#
# Coordination Sequence:
#
# PCOD9000731 Si02
#       8
#     1   1   1   1   1   1   1   1
#     4   9  16  33  62  85 118 160 212 253 302 374
#     4   9  21  40  67  95 128 162 222 264 304 386
#     4   9  20  37  59  91 127 168 207 260 315 378
#     4  11  22  38  61  94 136 169 206 263 324 380
#     4  11  19  37  63  92 130 168 204 259 325 371
#     4  10  21  39  64  94 125 167 211 263 313 375
#     4   9  18  37  62  94 119 159 215 261 306 377
#     4  10  19  37  62  91 123 171 209 257 319 373
#
# _framework density 23.927980000000002
#
# number of rings (size 3 to 8) (size 9 to 14) (size 15 to 20)
#    0.750    1.500    2.500    0.750    0.000    0.000 
#    0.000   22.500    0.000    0.000    0.000    0.000 
#    0.000    0.000    0.000    0.000    0.000    0.000 
#
# Total GULP energy -44558.532012 kJ/mol
# GULP energy per Si atom -5569.816502 kJ/mol
# Density = 2.387352 g / cm^3
# Si number density = 23.927980 Si / 1000 Ang^3
#
#
#
# Elastic Constant Matrix: (Units=GPa)
#
#
# Indices 1 2 3 4 5 6 
#
# 1 140.9710 51.3746 42.8565 14.1686 -13.1514 35.2260
# 2 51.3746 79.0794 34.8489 16.1419 -8.8541 25.2030
# 3 42.8565 34.8489 82.1153 19.4572 -12.6803 15.5179
# 4 14.1686 16.1419 19.4572 22.7359 -3.1495 1.5504
# 5 -13.1514 -8.8541 -12.6803 -3.1495 28.5048 13.4857
# 6 35.2260 25.2030 15.5179 1.5504 13.4857 58.3696
#
#
#
# Elastic Compliance Matrix: (Units=1/GPa)
#
#
# Indices 1 2 3 4 5 6 
#
# 1 0.011173 -0.003501 -0.001910 -0.001613 0.005898 -0.006043
# 2 -0.003501 0.021004 -0.002514 -0.009191 0.006326 -0.007506
# 3 -0.001910 -0.002514 0.019040 -0.011993 0.007486 -0.004235
# 4 -0.001613 -0.009191 -0.011993 0.060407 -0.006004 0.007913
# 5 0.005898 0.006326 0.007486 -0.006004 0.051957 -0.020126
# 6 -0.006043 -0.007506 -0.004235 0.007913 -0.020126 0.029586
#
#
# Mechanical properties :
#
#
# Convention : Reuss Voigt Hill
#
# Bulk Modulus (GPa) = 28.27487 62.25841 45.26664
# Shear Modulus (GPa) = 22.64447 33.46111 28.05279
#
# Velocity S-wave (km/s) = 3.07963 3.74359 3.42772
# Velocity P-wave (km/s) = 4.94852 6.69040 5.88427
#
# Compressibility (1/GPa) = 0.03536709
#
# Stress axis : x y z
#
# Youngs Moduli (GPa) = 89.50363 47.60939 52.52158
#
# Poissons Ratio (x) = 0.16668 0.10033
# Poissons Ratio (y) = 0.31335 0.13202
# Poissons Ratio (z) = 0.17098 0.11967
#
# Static dielectric constant tensor:
#      x y z
#    x 1.972330 -0.035380 -0.029190 
#    y -0.035380 1.937480 -0.017240 
#    z -0.029190 -0.017240 2.003260 
# 
# From -- ./inp_files/2985.got.cif
#   From: 2010.05.17/outbox.cif.g08.bks.cpg/sg1_2_cif.got.tgz:2985.got - 2010.05.17 20:27:59.
