data_PCOD9000744
_publ_section_title
;
Structure prediction by ZEFSAII (Michael W. Deem and Ramdas Pophale) SiO2 
 PCOD9000744
Probable space group: P 1
;
_chemical_formula_sum "Si O2"
_cell_formula_units_Z 8
_cell_length_a 5.209676
_cell_length_b 8.054296
_cell_length_c 9.162278
_cell_angle_alpha 103.246239
_cell_angle_beta 78.109217
_cell_angle_gamma 89.238874
_cell_volume 365.453712
_symmetry_space_group_name_H-M "P 1"
_symmetry_group_IT_number 1
_symmetry_cell_setting 'triclinic'
loop_
_space_group_symop_operation_xyz
x,y,z
loop_
_atom_site_type_symbol
_atom_site_label
_atom_site_fract_x
_atom_site_fract_y
_atom_site_fract_z
Si Si1 0.792370 0.198550 0.755660
Si Si2 0.307647 0.415722 0.713225
Si Si3 0.491907 0.306658 0.385576
Si Si4 0.578317 0.758716 0.197020
Si Si5 0.144857 0.575840 0.038967
Si Si6 0.743418 0.971660 0.458874
Si Si7 0.204707 0.044944 0.224549
Si Si8 0.897245 0.237267 0.076063
O O1 0.553610 0.322612 0.750107
O O2 0.065492 0.289048 0.707217
O O3 0.775410 0.021379 0.633031
O O4 0.768535 0.185958 0.929535
O O5 0.403185 0.447191 0.543142
O O6 0.225283 0.574570 0.858915
O O7 0.244040 0.233178 0.319534
O O8 0.698655 0.326419 0.236551
O O9 0.608295 0.145178 0.436810
O O10 0.364403 0.635811 0.135900
O O11 0.591107 0.816173 0.377650
O O12 0.866857 0.681720 0.109020
O O13 0.479846 0.935946 0.162689
O O14 0.094653 0.380287 0.040406
O O15 0.028233 0.955366 0.345732
O O16 0.051793 0.075646 0.099718
#
# Coordination Sequence:
#
# PCOD9000744 Si02
#       8
#     1   1   1   1   1   1   1   1
#     4  10  20  35  60  95 122 149 204 264 299 341
#     4  10  20  37  58  91 124 158 203 248 300 363
#     4   9  19  34  62  92 121 154 202 257 305 348
#     4  11  22  39  61  91 124 167 206 237 301 377
#     4  11  23  38  61  94 126 160 201 252 301 364
#     4   9  18  37  61  90 117 162 208 246 290 367
#     4  10  19  38  63  93 116 162 204 252 298 361
#     4  10  23  36  62 100 124 150 200 266 312 341
#
# _framework density 21.890598000000001
#
# number of rings (size 3 to 8) (size 9 to 14) (size 15 to 20)
#    0.000    2.000    2.500    1.500    5.250    0.000 
#    0.000    0.000    0.000    7.500    0.000    0.000 
#    0.000    0.000    0.000    0.000    0.000    0.000 
#
# Total GULP energy -44601.237811 kJ/mol
# GULP energy per Si atom -5575.154726 kJ/mol
# Density = 2.184077 g / cm^3
# Si number density = 21.890598 Si / 1000 Ang^3
#
#
#
# Elastic Constant Matrix: (Units=GPa)
#
#
# Indices 1 2 3 4 5 6 
#
# 1 139.2027 18.2414 55.6089 10.7414 17.2398 -4.5799
# 2 18.2414 25.6505 37.1947 11.3296 4.6162 -1.2465
# 3 55.6089 37.1947 173.5040 15.6470 20.1895 7.3201
# 4 10.7414 11.3296 15.6470 29.4038 6.8247 4.5462
# 5 17.2398 4.6162 20.1895 6.8247 33.7579 8.8820
# 6 -4.5799 -1.2465 7.3201 4.5462 8.8820 33.0125
#
#
#
# Elastic Compliance Matrix: (Units=1/GPa)
#
#
# Indices 1 2 3 4 5 6 
#
# 1 0.008867 -0.002284 -0.001970 -0.000897 -0.003557 0.002661
# 2 -0.002284 0.067594 -0.012430 -0.020077 0.001481 0.007358
# 3 -0.001970 -0.012430 0.009320 0.001504 -0.002560 -0.002328
# 4 -0.000897 -0.020077 0.001504 0.043319 -0.004912 -0.005860
# 5 -0.003557 0.001481 -0.002560 -0.004912 0.036104 -0.008907
# 6 0.002661 0.007358 -0.002328 -0.005860 -0.008907 0.034658
#
#
# Mechanical properties :
#
#
# Convention : Reuss Voigt Hill
#
# Bulk Modulus (GPa) = 19.07943 62.27189 40.67566
# Shear Modulus (GPa) = 19.94406 34.38900 27.16653
#
# Velocity S-wave (km/s) = 3.02168 3.96782 3.52662
# Velocity P-wave (km/s) = 4.57262 7.03563 5.93333
#
# Compressibility (1/GPa) = 0.05241246
#
# Stress axis : x y z
#
# Youngs Moduli (GPa) = 112.77441 14.79430 107.29439
#
# Poissons Ratio (x) = 0.03379 0.21136
# Poissons Ratio (y) = 0.25757 1.33372
# Poissons Ratio (z) = 0.22215 0.18390
#
# Static dielectric constant tensor:
#      x y z
#    x 1.853940 0.017990 -0.014910 
#    y 0.017990 1.852980 0.037960 
#    z -0.014910 0.037960 1.875530 
# 
# From -- ./inp_files/1092.got.cif
#   From: 2010.05.17/outbox.cif.g08.bks.cpg/sg1_1_cif.got.tgz:1092.got - 2010.05.17 20:27:59.
