data_PCOD9000867
_publ_section_title
;
Structure prediction by ZEFSAII (Michael W. Deem and Ramdas Pophale) SiO2 
 PCOD9000867
Probable space group: P 1
;
_chemical_formula_sum "Si O2"
_cell_formula_units_Z 8
_cell_length_a 7.267192
_cell_length_b 9.662156
_cell_length_c 7.828915
_cell_angle_alpha 95.990484
_cell_angle_beta 66.860690
_cell_angle_gamma 132.742975
_cell_volume 360.352839
_symmetry_space_group_name_H-M "P 1"
_symmetry_group_IT_number 1
_symmetry_cell_setting 'triclinic'
loop_
_space_group_symop_operation_xyz
x,y,z
loop_
_atom_site_type_symbol
_atom_site_label
_atom_site_fract_x
_atom_site_fract_y
_atom_site_fract_z
Si Si1 0.931450 0.727210 0.985990
Si Si2 0.517561 0.591865 0.594776
Si Si3 0.625128 0.925843 0.396029
Si Si4 0.186762 0.118485 0.078619
Si Si5 0.859984 0.314425 0.420057
Si Si6 0.359900 0.492667 0.997661
Si Si7 0.023702 0.660914 0.579771
Si Si8 0.522686 0.354672 0.319058
O O1 0.049751 0.706509 0.775581
O O2 0.654072 0.668499 0.002399
O O3 0.793345 0.557647 0.154453
O O4 0.153785 0.946230 0.002830
O O5 0.589134 0.765100 0.489134
O O6 0.393359 0.416725 0.487759
O O7 0.799443 0.653499 0.572082
O O8 0.340371 0.542342 0.821427
O O9 0.330638 0.824537 0.410135
O O10 0.736991 0.107432 0.492436
O O11 0.869968 0.019929 0.184654
O O12 0.356515 0.322000 0.946222
O O13 0.316557 0.195841 0.230317
O O14 0.627147 0.282641 0.391358
O O15 0.120721 0.416397 0.209183
O O16 0.939353 0.460348 0.556297
#
# Coordination Sequence:
#
# PCOD9000867 Si02
#       8
#     1   1   1   1   1   1   1   1
#     4  10  20  40  64  90 123 167 204 256 308 366
#     4  10  22  43  64  92 127 166 201 257 314 362
#     4  11  23  38  66  92 123 164 206 255 305 369
#     4  10  21  40  65  91 123 167 207 251 311 367
#     4  10  23  41  64  94 125 163 208 257 308 366
#     4   9  21  41  63  90 124 160 207 258 306 368
#     4  10  24  41  65  90 129 161 209 256 307 366
#     4  10  22  38  65  91 132 160 206 256 311 366
#
# _framework density 22.200465999999999
#
# number of rings (size 3 to 8) (size 9 to 14) (size 15 to 20)
#    0.000    2.000    1.250    0.750    7.000    4.000 
#    2.250    1.250    2.750    0.000    0.000    0.000 
#    0.000    0.000    0.000    0.000    0.000    0.000 
#
# Total GULP energy -44670.003365 kJ/mol
# GULP energy per Si atom -5583.750421 kJ/mol
# Density = 2.214994 g / cm^3
# Si number density = 22.200466 Si / 1000 Ang^3
#
#
#
# Elastic Constant Matrix: (Units=GPa)
#
#
# Indices 1 2 3 4 5 6 
#
# 1 49.9733 34.9787 15.5350 10.3901 -6.4078 -1.6668
# 2 34.9787 153.2012 27.2057 42.5478 5.0292 0.2660
# 3 15.5350 27.2057 56.3252 21.1934 2.9689 0.7357
# 4 10.3901 42.5478 21.1934 30.7659 0.2283 -2.9735
# 5 -6.4078 5.0292 2.9689 0.2283 25.6044 0.5328
# 6 -1.6668 0.2660 0.7357 -2.9735 0.5328 29.2448
#
#
#
# Elastic Compliance Matrix: (Units=1/GPa)
#
#
# Indices 1 2 3 4 5 6 
#
# 1 0.026815 -0.006528 -0.006433 0.004538 0.008656 0.002053
# 2 -0.006528 0.012384 0.002359 -0.016726 -0.004145 -0.002169
# 3 -0.006433 0.002359 0.025896 -0.019173 -0.004845 -0.002901
# 4 0.004538 -0.016726 -0.019173 0.068011 0.005877 0.007701
# 5 0.008656 -0.004145 -0.004845 0.005877 0.042536 0.000476
# 6 0.002053 -0.002169 -0.002901 0.007701 0.000476 0.035178
#
#
# Mechanical properties :
#
#
# Convention : Reuss Voigt Hill
#
# Bulk Modulus (GPa) = 22.78358 46.10427 34.44392
# Shear Modulus (GPa) = 20.27137 29.24172 24.75655
#
# Velocity S-wave (km/s) = 3.02504 3.63322 3.34299
# Velocity P-wave (km/s) = 4.74195 6.19780 5.51810
#
# Compressibility (1/GPa) = 0.04389126
#
# Stress axis : x y z
#
# Youngs Moduli (GPa) = 37.29325 80.75034 38.61528
#
# Poissons Ratio (x) = 0.52712 0.24842
# Poissons Ratio (y) = 0.24344 -0.09110
# Poissons Ratio (z) = 0.23991 -0.19050
#
# Static dielectric constant tensor:
#      x y z
#    x 1.835350 0.011040 -0.031920 
#    y 0.011040 1.822440 0.018040 
#    z -0.031920 0.018040 1.853600 
# 
# From -- ./inp_files/1215.got.cif
#   From: 2010.05.17/outbox.cif.g08.bks.cpg/sg1_1_cif.got.tgz:1215.got - 2010.05.17 20:27:59.
