data_PCOD9000979
_publ_section_title
;
Structure prediction by ZEFSAII (Michael W. Deem and Ramdas Pophale) SiO2 
 PCOD9000979
Probable space group: P 1
;
_chemical_formula_sum "Si O2"
_cell_formula_units_Z 8
_cell_length_a 9.614242
_cell_length_b 15.273723
_cell_length_c 8.827770
_cell_angle_alpha 137.522094
_cell_angle_beta 69.921189
_cell_angle_gamma 144.201855
_cell_volume 391.180856
_symmetry_space_group_name_H-M "P 1"
_symmetry_group_IT_number 1
_symmetry_cell_setting 'triclinic'
loop_
_space_group_symop_operation_xyz
x,y,z
loop_
_atom_site_type_symbol
_atom_site_label
_atom_site_fract_x
_atom_site_fract_y
_atom_site_fract_z
Si Si1 0.000000 0.258360 0.170200
Si Si2 0.448811 0.538812 0.125818
Si Si3 0.118448 0.099686 0.477518
Si Si4 0.875016 0.409022 0.782459
Si Si5 0.298569 0.951488 0.182511
Si Si6 0.247645 0.658930 0.225767
Si Si7 0.870859 0.129205 0.391621
Si Si8 0.359627 0.801431 0.694815
O O1 0.294348 0.409583 0.183347
O O2 0.120912 0.501394 0.446915
O O3 0.864369 0.103007 0.181227
O O4 0.713360 0.024524 0.863028
O O5 0.811532 0.846728 0.372717
O O6 0.273222 0.528953 0.104898
O O7 0.378571 0.362316 0.821962
O O8 0.209509 0.030984 0.290894
O O9 0.035180 0.138737 0.428432
O O10 0.048609 0.403862 0.686164
O O11 0.574893 0.165151 0.476378
O O12 0.034512 0.661819 0.988968
O O13 0.925619 0.449363 0.996658
O O14 0.355077 0.917107 0.961377
O O15 0.292152 0.775146 0.510778
O O16 0.545262 0.903574 0.314381
#
# Coordination Sequence:
#
# PCOD9000979 Si02
#       8
#     1   1   1   1   1   1   1   1
#     4  11  21  36  65  97 125 158 213 272 305 361
#     4  10  21  39  61  93 124 162 209 262 312 363
#     4  11  24  41  63  89 131 169 207 249 322 383
#     4  12  21  40  64  95 123 162 220 252 308 366
#     4  12  24  41  63  94 132 172 198 257 323 384
#     4  10  22  37  66  99 125 158 214 272 304 362
#     4  11  21  39  66  96 121 161 216 262 303 365
#     4  11  22  37  62  97 133 156 207 262 325 362
#
# _framework density 20.450897999999999
#
# number of rings (size 3 to 8) (size 9 to 14) (size 15 to 20)
#    0.000    1.000    5.000    3.000    1.750    0.000 
#    0.000    1.250    0.000    0.000    0.000    0.000 
#    0.000    0.000    0.000    0.000    0.000    0.000 
#
# Total GULP energy -44593.377404 kJ/mol
# GULP energy per Si atom -5574.172176 kJ/mol
# Density = 2.040435 g / cm^3
# Si number density = 20.450898 Si / 1000 Ang^3
#
#
#
# Elastic Constant Matrix: (Units=GPa)
#
#
# Indices 1 2 3 4 5 6 
#
# 1 87.8014 16.1139 40.0001 -7.4274 -9.1427 -3.2098
# 2 16.1139 91.4350 28.1301 -13.0722 11.6799 -15.9907
# 3 40.0001 28.1301 137.7602 -8.6433 7.1732 -6.6532
# 4 -7.4274 -13.0722 -8.6433 36.3953 -6.6568 -1.5523
# 5 -9.1427 11.6799 7.1732 -6.6568 36.8659 -4.4150
# 6 -3.2098 -15.9907 -6.6532 -1.5523 -4.4150 18.4868
#
#
#
# Elastic Compliance Matrix: (Units=1/GPa)
#
#
# Indices 1 2 3 4 5 6 
#
# 1 0.014245 -0.001397 -0.003907 0.002514 0.005351 0.001348
# 2 -0.001397 0.014705 -0.001612 0.004665 -0.002448 0.011704
# 3 -0.003907 -0.001612 0.008885 0.000390 -0.002036 0.000672
# 4 0.002514 0.004665 0.000390 0.031172 0.005728 0.008598
# 5 0.005351 -0.002448 -0.002036 0.005728 0.031383 0.006055
# 6 0.001348 0.011704 0.000672 0.008598 0.006055 0.066860
#
#
# Mechanical properties :
#
#
# Convention : Reuss Voigt Hill
#
# Bulk Modulus (GPa) = 41.65830 53.94275 47.80053
# Shear Modulus (GPa) = 26.44344 33.86643 30.15494
#
# Velocity S-wave (km/s) = 3.59976 4.07380 3.84409
# Velocity P-wave (km/s) = 6.13937 6.96863 6.56710
#
# Compressibility (1/GPa) = 0.02400482
#
# Stress axis : x y z
#
# Youngs Moduli (GPa) = 70.20237 68.00232 112.54443
#
# Poissons Ratio (x) = 0.09499 0.43967
# Poissons Ratio (y) = 0.09807 0.18139
# Poissons Ratio (z) = 0.27425 0.10960
#
# Static dielectric constant tensor:
#      x y z
#    x 1.727430 -0.001090 0.018340 
#    y -0.001090 1.795140 -0.010900 
#    z 0.018340 -0.010900 1.799670 
# 
# From -- ./inp_files/1207.got.cif
#   From: 2010.05.17/outbox.cif.g08.bks.cpg/sg1_1_cif.got.tgz:1207.got - 2010.05.17 20:27:59.
