data_PCOD9000759
_publ_section_title
;
Structure prediction by ZEFSAII (Michael W. Deem and Ramdas Pophale) SiO2 
 PCOD9000759
Probable space group: P 1
;
_chemical_formula_sum "Si O2"
_cell_formula_units_Z 8
_cell_length_a 7.492287
_cell_length_b 10.071562
_cell_length_c 8.329598
_cell_angle_alpha 45.942226
_cell_angle_beta 103.803635
_cell_angle_gamma 77.028569
_cell_volume 363.603240
_symmetry_space_group_name_H-M "P 1"
_symmetry_group_IT_number 1
_symmetry_cell_setting 'triclinic'
loop_
_space_group_symop_operation_xyz
x,y,z
loop_
_atom_site_type_symbol
_atom_site_label
_atom_site_fract_x
_atom_site_fract_y
_atom_site_fract_z
Si Si1 0.533340 0.807500 0.157000
Si Si2 0.158994 0.650397 0.529737
Si Si3 0.018751 0.093830 0.238395
Si Si4 0.563581 0.157233 0.081273
Si Si5 0.967872 0.619040 0.197112
Si Si6 0.653912 0.888409 0.647347
Si Si7 0.824770 0.555393 0.699116
Si Si8 0.215134 0.101040 0.591263
O O1 0.738547 0.686728 0.177795
O O2 0.629563 0.621345 0.474406
O O3 0.518876 0.014063 0.070079
O O4 0.305797 0.928137 0.905575
O O5 0.100139 0.661842 0.320682
O O6 0.955606 0.663448 0.571261
O O7 0.367755 0.411645 0.817929
O O8 0.187621 0.845905 0.421209
O O9 0.785425 0.139491 0.099186
O O10 0.049364 0.100034 0.429919
O O11 0.012258 0.295959 0.983258
O O12 0.601450 0.058973 0.350564
O O13 0.108095 0.357020 0.404494
O O14 0.875895 0.787855 0.885349
O O15 0.710800 0.667137 0.749723
O O16 0.437203 0.009106 0.610152
#
# Coordination Sequence:
#
# PCOD9000759 Si02
#       8
#     1   1   1   1   1   1   1   1
#     4   9  20  41  65  89 127 172 203 253 321 377
#     4  11  23  43  67  89 130 172 206 254 321 374
#     4  12  24  40  65 101 122 163 218 262 303 374
#     4  11  22  40  66  94 126 166 214 257 309 376
#     4  10  19  39  64  92 125 167 205 253 315 375
#     4  10  21  39  65  92 126 167 207 253 316 375
#     4  10  21  43  66  92 128 167 208 261 313 372
#     4  11  22  37  68  95 126 168 207 257 322 367
#
# _framework density 22.002005
#
# number of rings (size 3 to 8) (size 9 to 14) (size 15 to 20)
#    0.000    1.500    6.250    0.750    1.750    0.000 
#    0.000    5.000    2.750    0.000    0.000    0.000 
#    0.000    0.000    0.000    0.000    0.000    0.000 
#
# Total GULP energy -44640.059875 kJ/mol
# GULP energy per Si atom -5580.007484 kJ/mol
# Density = 2.195193 g / cm^3
# Si number density = 22.002005 Si / 1000 Ang^3
#
#
#
# Elastic Constant Matrix: (Units=GPa)
#
#
# Indices 1 2 3 4 5 6 
#
# 1 26.2090 7.3577 18.7066 -6.9436 4.2785 -8.6782
# 2 7.3577 129.4794 67.3600 -6.2022 2.3442 -3.3347
# 3 18.7066 67.3600 175.4266 -1.0950 17.5359 1.9866
# 4 -6.9436 -6.2022 -1.0950 47.4019 -1.0423 11.8367
# 5 4.2785 2.3442 17.5359 -1.0423 24.5481 -2.1450
# 6 -8.6782 -3.3347 1.9866 11.8367 -2.1450 30.1875
#
#
#
# Elastic Compliance Matrix: (Units=1/GPa)
#
#
# Indices 1 2 3 4 5 6 
#
# 1 0.047184 0.000464 -0.004977 0.003726 -0.003486 0.012234
# 2 0.000464 0.009840 -0.004037 0.000997 0.002014 0.001238
# 3 -0.004977 -0.004037 0.008299 -0.000534 -0.004922 -0.002563
# 4 0.003726 0.000997 -0.000534 0.023785 -0.000063 -0.008114
# 5 -0.003486 0.002014 -0.004922 -0.000063 0.044906 0.002760
# 6 0.012234 0.001238 -0.002563 -0.008114 0.002760 0.040327
#
#
# Mechanical properties :
#
#
# Convention : Reuss Voigt Hill
#
# Bulk Modulus (GPa) = 20.73641 57.55150 39.14396
# Shear Modulus (GPa) = 24.09481 36.27356 30.18419
#
# Velocity S-wave (km/s) = 3.31285 4.06476 3.70791
# Velocity P-wave (km/s) = 4.90699 6.94578 6.01342
#
# Compressibility (1/GPa) = 0.04822436
#
# Stress axis : x y z
#
# Youngs Moduli (GPa) = 21.19382 101.62297 120.49739
#
# Poissons Ratio (x) = -0.04720 0.59967
# Poissons Ratio (y) = -0.00984 0.48646
# Poissons Ratio (z) = 0.10547 0.41026
#
# Static dielectric constant tensor:
#      x y z
#    x 1.836190 -0.012560 0.008660 
#    y -0.012560 1.818300 0.015930 
#    z 0.008660 0.015930 1.844080 
# 
# From -- ./inp_files/3930.got.cif
#   From: 2010.05.17/outbox.cif.g08.bks.cpg/sg1_2_cif.got.tgz:3930.got - 2010.05.17 20:27:59.
