data_PCOD9000390
_publ_section_title
;
Structure prediction by ZEFSAII (Michael W. Deem and Ramdas Pophale) SiO2 
 PCOD9000390
Probable space group: P 1
;
_chemical_formula_sum "Si O2"
_cell_formula_units_Z 8
_cell_length_a 5.146672
_cell_length_b 5.308958
_cell_length_c 11.506958
_cell_angle_alpha 77.770327
_cell_angle_beta 84.186060
_cell_angle_gamma 85.560017
_cell_volume 305.187571
_symmetry_space_group_name_H-M "P 1"
_symmetry_group_IT_number 1
_symmetry_cell_setting 'triclinic'
loop_
_space_group_symop_operation_xyz
x,y,z
loop_
_atom_site_type_symbol
_atom_site_label
_atom_site_fract_x
_atom_site_fract_y
_atom_site_fract_z
Si Si1 0.101240 0.403980 0.132240
Si Si2 0.677200 0.669576 0.521220
Si Si3 0.554138 0.738202 0.100415
Si Si4 0.002591 0.257418 0.659108
Si Si5 0.107331 0.304920 0.891311
Si Si6 0.797811 0.860709 0.867715
Si Si7 0.758587 0.016288 0.282042
Si Si8 0.400793 0.192611 0.478202
O O1 0.291257 0.603704 0.158085
O O2 0.812029 0.539826 0.108862
O O3 0.235069 0.324778 0.009936
O O4 0.019362 0.162958 0.234284
O O5 0.815439 0.771337 0.388336
O O6 0.492671 0.448370 0.509639
O O7 0.863238 0.535861 0.620175
O O8 0.513961 0.919131 0.549860
O O9 0.628452 0.938428 0.175544
O O10 0.536137 0.827945 0.956902
O O11 0.209313 0.273844 0.756207
O O12 0.101171 0.189014 0.531480
O O13 0.814660 0.045458 0.737980
O O14 0.936065 0.579694 0.865927
O O15 0.948219 0.045801 0.932288
O O16 0.536477 0.183287 0.347847
#
# Coordination Sequence:
#
# PCOD9000390 Si02
#       8
#     1   1   1   1   1   1   1   1
#     4  11  24  50  77 113 154 200 264 327 398 469
#     4  10  25  45  70 111 152 203 268 305 394 461
#     4  11  24  50  77 113 154 200 264 327 398 469
#     4  10  23  48  74 104 165 198 250 332 380 474
#     4   9  21  42  74 110 146 197 255 310 401 456
#     4   9  21  42  74 110 146 197 255 310 401 456
#     4  10  23  50  70 118 149 206 260 328 378 480
#     4  10  25  45  70 111 152 203 268 305 394 461
#
# _framework density 26.213388999999999
#
# number of rings (size 3 to 8) (size 9 to 14) (size 15 to 20)
#    1.500    0.500    1.250    0.750    3.500    1.000 
#   22.500    0.000    0.000    0.000    3.250    0.000 
#    0.000    0.000    0.000    0.000    0.000    0.000 
#
# Total GULP energy -44615.157736 kJ/mol
# GULP energy per Si atom -5576.894717 kJ/mol
# Density = 2.615373 g / cm^3
# Si number density = 26.213389 Si / 1000 Ang^3
#
#
#
# Elastic Constant Matrix: (Units=GPa)
#
#
# Indices 1 2 3 4 5 6 
#
# 1 70.7723 35.0473 17.6390 -18.6741 -10.5870 13.7386
# 2 35.0473 121.1508 38.1526 -5.5035 -18.6746 10.8610
# 3 17.6390 38.1526 127.9903 -20.7385 -16.2735 16.4017
# 4 -18.6741 -5.5035 -20.7385 47.2472 7.2527 4.8009
# 5 -10.5870 -18.6746 -16.2735 7.2527 24.2653 -9.3472
# 6 13.7386 10.8610 16.4017 4.8009 -9.3472 41.0278
#
#
#
# Elastic Compliance Matrix: (Units=1/GPa)
#
#
# Indices 1 2 3 4 5 6 
#
# 1 0.019925 -0.005042 0.001013 0.008335 0.000453 -0.006614
# 2 -0.005042 0.011190 -0.002515 -0.002887 0.006156 0.001472
# 3 0.001013 -0.002515 0.009916 0.004452 0.002438 -0.003603
# 4 0.008335 -0.002887 0.004452 0.028102 -0.007380 -0.008776
# 5 0.000453 0.006156 0.002438 -0.007380 0.053998 0.010409
# 6 -0.006614 0.001472 -0.003603 -0.008776 0.010409 0.031038
#
#
# Mechanical properties :
#
#
# Convention : Reuss Voigt Hill
#
# Bulk Modulus (GPa) = 35.78496 55.73237 45.75866
# Shear Modulus (GPa) = 28.31720 37.77969 33.04845
#
# Velocity S-wave (km/s) = 3.29029 3.80048 3.55455
# Velocity P-wave (km/s) = 5.30243 6.36910 5.86008
#
# Compressibility (1/GPa) = 0.02794470
#
# Stress axis : x y z
#
# Youngs Moduli (GPa) = 50.18770 89.36284 100.84514
#
# Poissons Ratio (x) = 0.45052 -0.10212
# Poissons Ratio (y) = 0.25302 0.25359
# Poissons Ratio (z) = -0.05082 0.22472
#
# Static dielectric constant tensor:
#      x y z
#    x 2.112260 -0.015400 0.040490 
#    y -0.015400 2.035300 -0.027550 
#    z 0.040490 -0.027550 2.097890 
# 
# From -- ./inp_files/5893.got.cif
#   From: 2010.05.17/outbox.cif.g08.bks.cpg/sg1_3_cif.got.tgz:5893.got - 2010.05.17 20:27:59.
