data_PCOD9000045
_publ_section_title
;
Structure prediction by ZEFSAII (Michael W. Deem and Ramdas Pophale) SiO2 
 PCOD9000045
Probable space group: P 1
;
_chemical_formula_sum "Si O2"
_cell_formula_units_Z 8
_cell_length_a 12.879338
_cell_length_b 6.725322
_cell_length_c 5.145454
_cell_angle_alpha 96.997150
_cell_angle_beta 81.763023
_cell_angle_gamma 126.818062
_cell_volume 352.747041
_symmetry_space_group_name_H-M "P 1"
_symmetry_group_IT_number 1
_symmetry_cell_setting 'triclinic'
loop_
_space_group_symop_operation_xyz
x,y,z
loop_
_atom_site_type_symbol
_atom_site_label
_atom_site_fract_x
_atom_site_fract_y
_atom_site_fract_z
Si Si1 0.626690 0.671890 0.247770
Si Si2 0.203179 0.203369 0.574389
Si Si3 0.829764 0.413064 0.652040
Si Si4 0.021704 0.338418 0.892862
Si Si5 0.884543 0.819439 0.056273
Si Si6 0.598316 0.894334 0.813484
Si Si7 0.049214 0.711480 0.262038
Si Si8 0.373920 0.444463 0.047824
O O1 0.749186 0.666083 0.237703
O O2 0.596067 0.741279 0.543310
O O3 0.493815 0.445812 0.121701
O O4 0.668032 0.877757 0.039673
O O5 0.103698 0.271027 0.687711
O O6 0.281721 0.361592 0.315294
O O7 0.132790 0.913013 0.485046
O O8 0.295829 0.277716 0.801883
O O9 0.926165 0.371882 0.767820
O O10 0.901720 0.485055 0.363199
O O11 0.683766 0.174325 0.720850
O O12 0.846617 0.659174 0.783147
O O13 0.106935 0.586024 0.076534
O O14 0.934038 0.099144 0.064872
O O15 0.013164 0.851443 0.108867
O O16 0.451320 0.729069 0.955284
#
# Coordination Sequence:
#
# PCOD9000045 Si02
#       8
#     1   1   1   1   1   1   1   1
#     4  10  21  41  72  95 130 185 225 285 352 396
#     4  12  24  45  72  97 145 191 235 276 349 421
#     4  11  24  41  68 109 138 172 238 294 355 424
#     4  11  24  44  67 104 142 185 225 294 357 413
#     4  11  23  43  68 106 141 181 226 291 374 409
#     4  10  21  42  70  96 135 177 231 289 342 402
#     4  11  27  40  70 113 139 178 235 295 352 430
#     4  10  22  44  71  96 132 197 239 276 339 419
#
# _framework density 22.679143
#
# number of rings (size 3 to 8) (size 9 to 14) (size 15 to 20)
#    0.750    0.500    3.750    1.500   10.500    0.000 
#    0.000    1.250    5.500    0.000    0.000    0.000 
#    0.000    0.000    0.000    0.000    0.000    0.000 
#
# Total GULP energy -44543.100418 kJ/mol
# GULP energy per Si atom -5567.887552 kJ/mol
# Density = 2.262752 g / cm^3
# Si number density = 22.679143 Si / 1000 Ang^3
#
#
#
# Elastic Constant Matrix: (Units=GPa)
#
#
# Indices 1 2 3 4 5 6 
#
# 1 58.8130 41.2865 27.6268 17.1912 -5.2703 16.3310
# 2 41.2865 100.9125 35.3110 16.3709 -10.5406 13.5416
# 3 27.6268 35.3110 114.4871 5.5144 -9.0774 12.7019
# 4 17.1912 16.3709 5.5144 28.5003 -2.6921 -7.2422
# 5 -5.2703 -10.5406 -9.0774 -2.6921 26.1269 -4.6124
# 6 16.3310 13.5416 12.7019 -7.2422 -4.6124 36.7628
#
#
#
# Elastic Compliance Matrix: (Units=1/GPa)
#
#
# Indices 1 2 3 4 5 6 
#
# 1 0.033495 -0.007648 -0.003307 -0.019170 -0.002094 -0.014959
# 2 -0.007648 0.014940 -0.002153 -0.003697 0.003054 -0.001707
# 3 -0.003307 -0.002153 0.010394 0.001202 0.002052 -0.000835
# 4 -0.019170 -0.003697 0.001202 0.054202 0.004295 0.020679
# 5 -0.002094 0.003054 0.002052 0.004295 0.041141 0.005104
# 6 -0.014959 -0.001707 -0.000835 0.020679 0.005104 0.039478
#
#
# Mechanical properties :
#
#
# Convention : Reuss Voigt Hill
#
# Bulk Modulus (GPa) = 30.66237 53.62902 42.14569
# Shear Modulus (GPa) = 21.66985 29.61055 25.64020
#
# Velocity S-wave (km/s) = 3.09446 3.61727 3.36603
# Velocity P-wave (km/s) = 5.13001 6.41439 5.80781
#
# Compressibility (1/GPa) = 0.03261327
#
# Stress axis : x y z
#
# Youngs Moduli (GPa) = 29.85548 66.93548 96.20952
#
# Poissons Ratio (x) = 0.51193 0.31814
# Poissons Ratio (y) = 0.22834 0.20711
# Poissons Ratio (z) = 0.09872 0.14409
#
# Static dielectric constant tensor:
#      x y z
#    x 1.911080 0.005960 0.019330 
#    y 0.005960 1.891110 -0.020780 
#    z 0.019330 -0.020780 1.892930 
# 
# From -- ./inp_files/649.got.cif
#   From: 2010.05.17/outbox.cif.g08.bks.cpg/sg1_1_cif.got.tgz:649.got - 2010.05.17 20:27:59.
