data_PCOD9000793
_publ_section_title
;
Structure prediction by ZEFSAII (Michael W. Deem and Ramdas Pophale) SiO2 
 PCOD9000793
Probable space group: P 1
;
_chemical_formula_sum "Si O2"
_cell_formula_units_Z 6
_cell_length_a 8.415196
_cell_length_b 5.484379
_cell_length_c 9.477038
_cell_angle_alpha 72.780431
_cell_angle_beta 148.105413
_cell_angle_gamma 115.588178
_cell_volume 206.126716
_symmetry_space_group_name_H-M "P 1"
_symmetry_group_IT_number 1
_symmetry_cell_setting 'triclinic'
loop_
_space_group_symop_operation_xyz
x,y,z
loop_
_atom_site_type_symbol
_atom_site_label
_atom_site_fract_x
_atom_site_fract_y
_atom_site_fract_z
Si Si1 0.318950 0.646150 0.643090
Si Si2 0.426898 0.573878 0.205236
Si Si3 0.095999 0.210900 0.746531
Si Si4 0.203952 0.138642 0.308684
Si Si5 0.655920 0.008995 0.098142
Si Si6 0.866978 0.775783 0.853627
O O1 0.030527 0.398458 0.541632
O O2 0.550811 0.563623 0.724099
O O3 0.261453 0.892398 0.475890
O O4 0.517919 0.790568 0.906249
O O5 0.700402 0.834367 0.295949
O O6 0.492373 0.386318 0.410136
O O7 0.261446 0.392392 0.975881
O O8 0.145178 0.664788 0.041665
O O9 0.822499 0.950409 0.655822
O O10 0.377721 0.119988 0.910107
O O11 0.972073 0.221158 0.227654
O O12 0.004979 0.994207 0.045522
#
# Coordination Sequence:
#
# PCOD9000793 Si02
#       6
#     1   1   1   1   1   1
#     4  10  20  33  53  78 100 129 168 207 248 293
#     4   9  18  35  54  72 101 136 165 202 250 295
#     4   9  18  35  54  72 101 136 165 202 250 295
#     4  10  20  33  53  78 100 129 168 207 248 293
#     4   9  19  36  53  72 102 134 165 204 248 295
#     4   9  19  36  53  72 102 134 165 204 248 295
#
# _framework density 29.108312000000002
#
# number of rings (size 3 to 8) (size 9 to 14) (size 15 to 20)
#    0.000    2.667    0.000    1.000    0.000    2.667 
#    0.000   15.000    0.000    0.000    0.000    0.000 
#    0.000    0.000    0.000    0.000    0.000    0.000 
#
# Total GULP energy -33604.525132 kJ/mol
# GULP energy per Si atom -5600.754189 kJ/mol
# Density = 2.904206 g / cm^3
# Si number density = 29.108312 Si / 1000 Ang^3
#
#
#
# Elastic Constant Matrix: (Units=GPa)
#
#
# Indices 1 2 3 4 5 6 
#
# 1 206.2276 66.6742 49.1287 -21.9259 -33.3761 11.8345
# 2 66.6742 151.3771 41.5492 -36.7163 -13.7114 64.3676
# 3 49.1287 41.5492 108.6334 -31.2311 -30.6889 32.1203
# 4 -21.9259 -36.7163 -31.2311 77.9212 15.4656 -16.6591
# 5 -33.3761 -13.7114 -30.6889 15.4656 58.9094 -19.2164
# 6 11.8345 64.3676 32.1203 -16.6591 -19.2164 71.5302
#
#
#
# Elastic Compliance Matrix: (Units=1/GPa)
#
#
# Indices 1 2 3 4 5 6 
#
# 1 0.006918 -0.004144 -0.001996 -0.000579 0.003462 0.004276
# 2 -0.004144 0.014196 0.000011 0.003693 -0.004025 -0.012315
# 3 -0.001996 0.000011 0.013196 0.003178 0.003644 -0.003886
# 4 -0.000579 0.003693 0.003178 0.015831 -0.002504 -0.001641
# 5 0.003462 -0.004025 0.003644 -0.002504 0.022826 0.006962
# 6 0.004276 -0.012315 -0.003886 -0.001641 0.006962 0.027587
#
#
# Mechanical properties :
#
#
# Convention : Reuss Voigt Hill
#
# Bulk Modulus (GPa) = 45.35199 86.77138 66.06169
# Shear Modulus (GPa) = 41.60947 62.26457 51.93702
#
# Velocity S-wave (km/s) = 3.78494 4.63002 4.22864
# Velocity P-wave (km/s) = 5.89196 7.64574 6.82541
#
# Compressibility (1/GPa) = 0.02204975
#
# Stress axis : x y z
#
# Youngs Moduli (GPa) = 144.55621 70.44170 75.77953
#
# Poissons Ratio (x) = 0.29193 0.15129
# Poissons Ratio (y) = 0.59907 -0.00080
# Poissons Ratio (z) = 0.28860 -0.00074
#
# Static dielectric constant tensor:
#      x y z
#    x 2.191050 0.031200 0.017250 
#    y 0.031200 2.409610 0.000540 
#    z 0.017250 0.000540 2.247620 
# 
# From -- ./inp_files/871.got.cif
#   From: 2010.05.17/outbox.cif.g08.bks.cpg/sg1_1_cif.got.tgz:871.got - 2010.05.17 20:27:59.
