data_PCOD9000545
_publ_section_title
;
Structure prediction by ZEFSAII (Michael W. Deem and Ramdas Pophale) SiO2 
 PCOD9000545
Probable space group: P 1
;
_chemical_formula_sum "Si O2"
_cell_formula_units_Z 8
_cell_length_a 9.761007
_cell_length_b 8.893475
_cell_length_c 9.003019
_cell_angle_alpha 132.217298
_cell_angle_beta 117.382714
_cell_angle_gamma 96.609531
_cell_volume 392.768878
_symmetry_space_group_name_H-M "P 1"
_symmetry_group_IT_number 1
_symmetry_cell_setting 'triclinic'
loop_
_space_group_symop_operation_xyz
x,y,z
loop_
_atom_site_type_symbol
_atom_site_label
_atom_site_fract_x
_atom_site_fract_y
_atom_site_fract_z
Si Si1 0.303280 0.694890 0.880530
Si Si2 0.090749 0.921276 0.850514
Si Si3 0.741569 0.986931 0.242839
Si Si4 0.743562 0.611302 0.221030
Si Si5 0.018232 0.178009 0.231849
Si Si6 0.124180 0.417745 0.879699
Si Si7 0.315832 0.158694 0.852212
Si Si8 0.042591 0.543244 0.237017
O O1 0.146880 0.737260 0.787490
O O2 0.212458 0.409358 0.579279
O O3 0.297216 0.675673 0.042919
O O4 0.526356 0.912294 0.074563
O O5 0.903632 0.786173 0.552331
O O6 0.287456 0.166295 0.020122
O O7 0.050759 0.005168 0.037143
O O8 0.715450 0.776482 0.205008
O O9 0.833401 0.007159 0.141771
O O10 0.912850 0.270144 0.592338
O O11 0.843628 0.514097 0.112421
O O12 0.535038 0.371856 0.035090
O O13 0.001950 0.343464 0.211708
O O14 0.177542 0.224753 0.765793
O O15 0.099862 0.474964 0.071082
O O16 0.219459 0.856994 0.569192
#
# Coordination Sequence:
#
# PCOD9000545 Si02
#       8
#     1   1   1   1   1   1   1   1
#     4  11  25  43  63  98 133 169 208 265 328 373
#     4  11  24  45  66  95 129 172 216 262 319 379
#     4  11  24  44  66  95 133 166 212 270 320 374
#     4  11  23  44  68  94 127 173 215 263 317 379
#     4  11  24  43  67  94 136 165 211 270 318 379
#     4  11  23  44  67  92 133 169 215 265 315 383
#     4  11  22  42  68  92 129 167 216 263 308 384
#     4  11  23  43  67  98 126 173 213 262 321 377
#
# _framework density 20.368213000000001
#
# number of rings (size 3 to 8) (size 9 to 14) (size 15 to 20)
#    0.000    1.000    7.500    0.000    3.500    2.000 
#    4.500    0.000    0.000    0.000    0.000    0.000 
#    0.000    0.000    0.000    0.000    0.000    0.000 
#
# Total GULP energy -44625.235412 kJ/mol
# GULP energy per Si atom -5578.154427 kJ/mol
# Density = 2.032185 g / cm^3
# Si number density = 20.368213 Si / 1000 Ang^3
#
#
#
# Elastic Constant Matrix: (Units=GPa)
#
#
# Indices 1 2 3 4 5 6 
#
# 1 135.1621 54.5398 68.0230 5.0723 -5.2892 28.0987
# 2 54.5398 98.5204 34.7408 -5.6582 -5.3142 35.3917
# 3 68.0230 34.7408 62.3099 4.0325 -4.7401 9.9209
# 4 5.0723 -5.6582 4.0325 25.3019 11.3882 5.5373
# 5 -5.2892 -5.3142 -4.7401 11.3882 36.8539 3.8763
# 6 28.0987 35.3917 9.9209 5.5373 3.8763 43.2768
#
#
#
# Elastic Compliance Matrix: (Units=1/GPa)
#
#
# Indices 1 2 3 4 5 6 
#
# 1 0.018738 -0.001279 -0.018579 0.000067 0.000825 -0.006944
# 2 -0.001279 0.019163 -0.007546 0.008672 0.000429 -0.014259
# 3 -0.018579 -0.007546 0.039664 -0.007649 0.002671 0.009881
# 4 0.000067 0.008672 -0.007649 0.051543 -0.014528 -0.010675
# 5 0.000825 0.000429 0.002671 -0.014528 0.032415 -0.002543
# 6 -0.006944 -0.014259 0.009881 -0.010675 -0.002543 0.038605
#
#
# Mechanical properties :
#
#
# Convention : Reuss Voigt Hill
#
# Bulk Modulus (GPa) = 43.94437 67.84439 55.89438
# Shear Modulus (GPa) = 19.04607 30.33243 24.68925
#
# Velocity S-wave (km/s) = 3.06124 3.86321 3.48537
# Velocity P-wave (km/s) = 5.84095 7.29934 6.61049
#
# Compressibility (1/GPa) = 0.02275604
#
# Stress axis : x y z
#
# Youngs Moduli (GPa) = 53.36662 52.18508 25.21189
#
# Poissons Ratio (x) = 0.06675 0.46842
# Poissons Ratio (y) = 0.06826 0.19025
# Poissons Ratio (z) = 0.99151 0.39379
#
# Static dielectric constant tensor:
#      x y z
#    x 1.716010 -0.012020 0.008100 
#    y -0.012020 1.798530 -0.008480 
#    z 0.008100 -0.008480 1.722750 
# 
# From -- ./inp_files/4053.got.cif
#   From: 2010.05.17/outbox.cif.g08.bks.cpg/sg1_3_cif.got.tgz:4053.got - 2010.05.17 20:27:59.
