data_PCOD9000663
_publ_section_title
;
Structure prediction by ZEFSAII (Michael W. Deem and Ramdas Pophale) SiO2 
 PCOD9000663
Probable space group: P 1
;
_chemical_formula_sum "Si O2"
_cell_formula_units_Z 4
_cell_length_a 8.536967
_cell_length_b 5.080493
_cell_length_c 5.080341
_cell_angle_alpha 123.850396
_cell_angle_beta 62.400019
_cell_angle_gamma 117.600550
_cell_volume 155.737892
_symmetry_space_group_name_H-M "P 1"
_symmetry_group_IT_number 1
_symmetry_cell_setting 'triclinic'
loop_
_space_group_symop_operation_xyz
x,y,z
loop_
_atom_site_type_symbol
_atom_site_label
_atom_site_fract_x
_atom_site_fract_y
_atom_site_fract_z
Si Si1 0.888730 0.570630 0.140540
Si Si2 0.138428 0.135970 0.575242
Si Si3 0.388736 0.761133 0.450097
Si Si4 0.638440 0.445495 0.765692
O O1 0.726331 0.506196 0.444105
O O2 0.800840 0.543437 0.906842
O O3 0.029027 0.919320 0.299993
O O4 0.998120 0.295388 0.923940
O O5 0.300796 0.439567 0.510828
O O6 0.226366 0.902341 0.548030
O O7 0.529039 0.060865 0.658495
O O8 0.498148 0.653895 0.065451
#
# Coordination Sequence:
#
# PCOD9000663 Si02
#       4
#     1   1   1   1
#     4  12  27  50  77 112 152 200 252 312 377 450
#     4  12  27  50  77 112 152 200 252 312 377 450
#     4  12  27  50  77 112 152 200 252 312 377 450
#     4  12  27  50  77 112 152 200 252 312 377 450
#
# _framework density 25.684176000000001
#
# number of rings (size 3 to 8) (size 9 to 14) (size 15 to 20)
#    0.000    0.000    0.000    9.000    0.000    8.000 
#    0.000    0.000    0.000    0.000    0.000    0.000 
#    0.000    0.000    0.000    0.000    0.000    0.000 
#
# Total GULP energy -22501.219325 kJ/mol
# GULP energy per Si atom -5625.304831 kJ/mol
# Density = 2.562572 g / cm^3
# Si number density = 25.684176 Si / 1000 Ang^3
#
#
#
# Elastic Constant Matrix: (Units=GPa)
#
#
# Indices 1 2 3 4 5 6 
#
# 1 85.3222 29.6438 49.5221 4.7277 -20.5276 15.4932
# 2 29.6438 82.2791 36.5426 28.7698 22.4913 20.1432
# 3 49.5221 36.5426 150.2921 29.9613 -32.6594 4.5343
# 4 4.7277 28.7698 29.9613 48.7610 18.9412 14.4918
# 5 -20.5276 22.4913 -32.6594 18.9412 71.6974 15.7535
# 6 15.4932 20.1432 4.5343 14.4918 15.7535 38.3830
#
#
#
# Elastic Compliance Matrix: (Units=1/GPa)
#
#
# Indices 1 2 3 4 5 6 
#
# 1 0.018927 -0.006286 -0.003969 0.004288 0.006217 -0.008042
# 2 -0.006286 0.020697 -0.003440 -0.005699 -0.007789 -0.002569
# 3 -0.003969 -0.003440 0.011933 -0.008336 0.007089 0.002235
# 4 0.004288 -0.005699 -0.008336 0.033884 -0.008151 -0.007203
# 5 0.006217 -0.007789 0.007089 -0.008151 0.024966 -0.006429
# 6 -0.008042 -0.002569 0.002235 -0.007203 -0.006429 0.035742
#
#
# Mechanical properties :
#
#
# Convention : Reuss Voigt Hill
#
# Bulk Modulus (GPa) = 41.37991 61.03447 51.20719
# Shear Modulus (GPa) = 27.53380 45.24726 36.39053
#
# Velocity S-wave (km/s) = 3.27771 4.20179 3.76819
# Velocity P-wave (km/s) = 5.52002 6.88150 6.23801
#
# Compressibility (1/GPa) = 0.02416631
#
# Stress axis : x y z
#
# Youngs Moduli (GPa) = 52.83590 48.31523 83.80126
#
# Poissons Ratio (x) = 0.30370 0.33262
# Poissons Ratio (y) = 0.33212 0.28830
# Poissons Ratio (z) = 0.20972 0.16622
#
# Static dielectric constant tensor:
#      x y z
#    x 1.987640 0.010710 -0.002460 
#    y 0.010710 1.975320 -0.005450 
#    z -0.002460 -0.005450 1.964230 
# 
# From -- ./inp_files/32.got.cif
#   From: 2010.05.17/outbox.cif.g08.bks.cpg/sg1_1_cif.got.tgz:32.got - 2010.05.17 20:27:59.
