data_PCOD9000693
_publ_section_title
;
Structure prediction by ZEFSAII (Michael W. Deem and Ramdas Pophale) SiO2 
 PCOD9000693
Probable space group: P 1
;
_chemical_formula_sum "Si O2"
_cell_formula_units_Z 8
_cell_length_a 5.041908
_cell_length_b 11.249687
_cell_length_c 8.932774
_cell_angle_alpha 42.245862
_cell_angle_beta 89.358247
_cell_angle_gamma 106.576578
_cell_volume 306.419668
_symmetry_space_group_name_H-M "P 1"
_symmetry_group_IT_number 1
_symmetry_cell_setting 'triclinic'
loop_
_space_group_symop_operation_xyz
x,y,z
loop_
_atom_site_type_symbol
_atom_site_label
_atom_site_fract_x
_atom_site_fract_y
_atom_site_fract_z
Si Si1 0.177640 0.294440 0.494530
Si Si2 0.684010 0.043619 0.552326
Si Si3 0.162021 0.980479 0.403422
Si Si4 0.553368 0.580693 0.459121
Si Si5 0.671507 0.312418 0.938933
Si Si6 0.618959 0.544309 0.007598
Si Si7 0.237427 0.612021 0.699380
Si Si8 0.901024 0.848984 0.943745
O O1 0.269024 0.445941 0.487562
O O2 0.422280 0.405044 0.267807
O O3 0.875802 0.243460 0.454720
O O4 0.142544 0.075639 0.743575
O O5 0.395672 0.024476 0.494426
O O6 0.901906 0.024142 0.437823
O O7 0.636738 0.889465 0.831316
O O8 0.074423 0.754027 0.574579
O O9 0.378046 0.109993 0.147552
O O10 0.641682 0.428462 0.687268
O O11 0.463566 0.689890 0.487555
O O12 0.800674 0.732252 0.206725
O O13 0.025779 0.381646 0.876331
O O14 0.672159 0.413960 0.003708
O O15 0.419801 0.623613 0.836996
O O16 0.902003 0.703693 0.946436
#
# Coordination Sequence:
#
# PCOD9000693 Si02
#       8
#     1   1   1   1   1   1   1   1
#     4   9  19  41  66  91 130 173 217 279 327 396
#     4  10  22  44  72 102 124 174 224 282 330 382
#     4  12  24  44  72 104 130 172 228 282 334 384
#     4  10  24  42  58  98 138 176 224 258 340 402
#     4  11  24  39  65  96 133 177 220 278 328 401
#     4  10  18  40  66  94 122 158 234 276 330 378
#     4  11  24  39  65  96 133 177 220 278 328 401
#     4   9  19  41  66  91 130 173 217 279 327 396
#
# _framework density 26.107983999999998
#
# number of rings (size 3 to 8) (size 9 to 14) (size 15 to 20)
#    0.750    1.000    2.500    1.500    3.500    2.000 
#    4.500    3.750    0.000    0.000    0.000    0.000 
#    0.000    0.000    0.000    0.000    0.000    0.000 
#
# Total GULP energy -44614.559690 kJ/mol
# GULP energy per Si atom -5576.819961 kJ/mol
# Density = 2.604856 g / cm^3
# Si number density = 26.107984 Si / 1000 Ang^3
#
#
#
# Elastic Constant Matrix: (Units=GPa)
#
#
# Indices 1 2 3 4 5 6 
#
# 1 72.5360 20.9457 19.5568 4.1585 -13.6194 7.2527
# 2 20.9457 87.2392 42.8066 -2.8483 -11.2862 2.4486
# 3 19.5568 42.8066 208.5518 3.4292 -28.7307 3.3979
# 4 4.1585 -2.8483 3.4292 44.3846 4.9203 -10.4299
# 5 -13.6194 -11.2862 -28.7307 4.9203 26.7264 -5.4006
# 6 7.2527 2.4486 3.3979 -10.4299 -5.4006 31.3040
#
#
#
# Elastic Compliance Matrix: (Units=1/GPa)
#
#
# Indices 1 2 3 4 5 6 
#
# 1 0.016543 -0.003149 0.000205 -0.003390 0.007240 -0.003489
# 2 -0.003149 0.013577 -0.002313 0.001322 0.001524 0.000622
# 3 0.000205 -0.002313 0.006086 -0.001278 0.005919 0.000068
# 4 -0.003390 0.001322 -0.001278 0.025622 -0.005563 0.008398
# 5 0.007240 0.001524 0.005919 -0.005563 0.050012 0.004336
# 6 -0.003489 0.000622 0.000068 0.008398 0.004336 0.036243
#
#
# Mechanical properties :
#
#
# Convention : Reuss Voigt Hill
#
# Bulk Modulus (GPa) = 38.92346 59.43836 49.18091
# Shear Modulus (GPa) = 29.91147 39.48419 34.69783
#
# Velocity S-wave (km/s) = 3.38847 3.89310 3.64952
# Velocity P-wave (km/s) = 5.49999 6.55928 6.05285
#
# Compressibility (1/GPa) = 0.02569145
#
# Stress axis : x y z
#
# Youngs Moduli (GPa) = 60.44941 73.65558 164.31451
#
# Poissons Ratio (x) = 0.23191 -0.03367
# Poissons Ratio (y) = 0.19033 0.38012
# Poissons Ratio (z) = -0.01239 0.17039
#
# Static dielectric constant tensor:
#      x y z
#    x 2.184570 -0.040200 -0.030760 
#    y -0.040200 2.113350 -0.106200 
#    z -0.030760 -0.106200 2.155530 
# 
# From -- ./inp_files/3137.got.cif
#   From: 2010.05.17/outbox.cif.g08.bks.cpg/sg1_2_cif.got.tgz:3137.got - 2010.05.17 20:27:59.
