data_PCOD9000926
_publ_section_title
;
Structure prediction by ZEFSAII (Michael W. Deem and Ramdas Pophale) SiO2 
 PCOD9000926
Probable space group: P 1
;
_chemical_formula_sum "Si O2"
_cell_formula_units_Z 8
_cell_length_a 6.424562
_cell_length_b 9.678398
_cell_length_c 8.906308
_cell_angle_alpha 42.855695
_cell_angle_beta 61.100388
_cell_angle_gamma 61.192595
_cell_volume 322.096421
_symmetry_space_group_name_H-M "P 1"
_symmetry_group_IT_number 1
_symmetry_cell_setting 'triclinic'
loop_
_space_group_symop_operation_xyz
x,y,z
loop_
_atom_site_type_symbol
_atom_site_label
_atom_site_fract_x
_atom_site_fract_y
_atom_site_fract_z
Si Si1 0.178170 0.347870 0.923230
Si Si2 0.171967 0.693185 0.057796
Si Si3 0.857956 0.640240 0.488090
Si Si4 0.872705 0.034405 0.695760
Si Si5 0.774442 0.611213 0.052228
Si Si6 0.899941 0.040152 0.330245
Si Si7 0.546607 0.477360 0.500812
Si Si8 0.582930 0.400338 0.982288
O O1 0.386487 0.348117 0.974615
O O2 0.929179 0.494543 0.954839
O O3 0.122347 0.119999 0.109656
O O4 0.949563 0.054858 0.479224
O O5 0.996499 0.566788 0.132649
O O6 0.079375 0.921681 0.831074
O O7 0.077588 0.668164 0.278291
O O8 0.852442 0.824669 0.461001
O O9 0.633942 0.649242 0.437781
O O10 0.795193 0.450354 0.759797
O O11 0.727205 0.251466 0.635750
O O12 0.708977 0.860465 0.870806
O O13 0.440564 0.596234 0.976597
O O14 0.572194 0.527484 0.278605
O O15 0.284332 0.446932 0.665476
O O16 0.667329 0.207965 0.217608
#
# Coordination Sequence:
#
# PCOD9000926 Si02
#       8
#     1   1   1   1   1   1   1   1
#     4  10  22  44  70 101 139 189 226 288 357 414
#     4   8  20  45  68  97 139 189 228 283 353 416
#     4  10  24  43  69 107 144 180 240 296 342 425
#     4  10  22  42  73 103 142 186 234 289 355 421
#     4   8  18  41  66  96 138 178 232 280 339 418
#     4  12  26  45  72 113 144 177 242 304 345 424
#     4  10  20  43  71 101 135 193 230 283 352 424
#     4  10  24  47  73 100 145 190 232 291 363 414
#
# _framework density 24.837282999999999
#
# number of rings (size 3 to 8) (size 9 to 14) (size 15 to 20)
#    0.750    1.500    1.250    0.000    5.250    1.000 
#    6.750    0.000    0.000    0.000    0.000    0.000 
#    0.000    0.000    0.000    0.000    0.000    0.000 
#
# Total GULP energy -44577.842762 kJ/mol
# GULP energy per Si atom -5572.230345 kJ/mol
# Density = 2.478075 g / cm^3
# Si number density = 24.837283 Si / 1000 Ang^3
#
#
#
# Elastic Constant Matrix: (Units=GPa)
#
#
# Indices 1 2 3 4 5 6 
#
# 1 94.1296 23.0442 45.2256 3.3961 -18.3865 -17.2785
# 2 23.0442 86.6470 37.3363 0.3291 -9.6121 15.2672
# 3 45.2256 37.3363 161.6898 18.9358 -8.4915 -10.0527
# 4 3.3961 0.3291 18.9358 52.2262 5.4226 -0.4707
# 5 -18.3865 -9.6121 -8.4915 5.4226 44.6265 5.3082
# 6 -17.2785 15.2672 -10.0527 -0.4707 5.3082 38.2845
#
#
#
# Elastic Compliance Matrix: (Units=1/GPa)
#
#
# Indices 1 2 3 4 5 6 
#
# 1 0.014830 -0.003558 -0.002647 -0.000343 0.004067 0.006849
# 2 -0.003558 0.015692 -0.003183 0.000971 0.002261 -0.009001
# 3 -0.002647 -0.003183 0.008105 -0.002710 -0.000165 0.002192
# 4 -0.000343 0.000971 -0.002710 0.020437 -0.002859 -0.000606
# 5 0.004067 0.002261 -0.000165 -0.002859 0.025201 -0.002639
# 6 0.006849 -0.009001 0.002192 -0.000606 -0.002639 0.033735
#
#
# Mechanical properties :
#
#
# Convention : Reuss Voigt Hill
#
# Bulk Modulus (GPa) = 50.37328 61.51983 55.94656
# Shear Modulus (GPa) = 34.86919 42.81813 38.84366
#
# Velocity S-wave (km/s) = 3.75094 4.15655 3.95894
# Velocity P-wave (km/s) = 6.25178 6.91800 6.59331
#
# Compressibility (1/GPa) = 0.01985179
#
# Stress axis : x y z
#
# Youngs Moduli (GPa) = 67.42862 63.72727 123.38119
#
# Poissons Ratio (x) = 0.22674 0.32660
# Poissons Ratio (y) = 0.23990 0.39270
# Poissons Ratio (z) = 0.17849 0.20283
#
# Static dielectric constant tensor:
#      x y z
#    x 2.110510 0.043390 0.032990 
#    y 0.043390 1.982020 0.022820 
#    z 0.032990 0.022820 1.988720 
# 
# From -- ./inp_files/3728.got.cif
#   From: 2010.05.17/outbox.cif.g08.bks.cpg/sg1_2_cif.got.tgz:3728.got - 2010.05.17 20:27:59.
