data_PCOD9000595
_publ_section_title
;
Structure prediction by ZEFSAII (Michael W. Deem and Ramdas Pophale) SiO2 
 PCOD9000595
Probable space group: P 1
;
_chemical_formula_sum "Si O2"
_cell_formula_units_Z 8
_cell_length_a 11.625541
_cell_length_b 14.176157
_cell_length_c 5.937960
_cell_angle_alpha 130.827921
_cell_angle_beta 130.230545
_cell_angle_gamma 26.270280
_cell_volume 322.513728
_symmetry_space_group_name_H-M "P 1"
_symmetry_group_IT_number 1
_symmetry_cell_setting 'triclinic'
loop_
_space_group_symop_operation_xyz
x,y,z
loop_
_atom_site_type_symbol
_atom_site_label
_atom_site_fract_x
_atom_site_fract_y
_atom_site_fract_z
Si Si1 0.682080 0.486370 0.661530
Si Si2 0.477787 0.246782 0.824353
Si Si3 0.845747 0.127797 0.456424
Si Si4 0.993872 0.832803 0.576677
Si Si5 0.227684 0.216733 0.737049
Si Si6 0.361834 0.713819 0.208750
Si Si7 0.611945 0.743861 0.296052
Si Si8 0.157552 0.474223 0.371571
O O1 0.762531 0.327760 0.701368
O O2 0.492315 0.557178 0.342477
O O3 0.950780 0.346944 0.662449
O O4 0.544006 0.703611 0.929113
O O5 0.254975 0.302399 0.712675
O O6 0.347312 0.403419 0.690625
O O7 0.734214 0.002141 0.667946
O O8 0.607971 0.231193 0.171382
O O9 0.919808 0.980301 0.516551
O O10 0.105406 0.958459 0.365157
O O11 0.077092 0.632839 0.331735
O O12 0.231647 0.729410 0.861722
O O13 0.419817 0.980297 0.516551
O O14 0.295622 0.256985 0.103988
O O15 0.584644 0.658204 0.320427
O O16 0.888852 0.613646 0.370648
#
# Coordination Sequence:
#
# PCOD9000595 Si02
#       8
#     1   1   1   1   1   1   1   1
#     4  11  25  47  76 107 142 192 238 295 365 420
#     4  11  24  45  72 107 144 188 239 299 354 428
#     4  11  25  46  73 107 146 190 240 296 356 431
#     4  11  25  46  73 107 146 190 240 296 356 431
#     4  11  24  47  74 108 144 188 239 301 355 430
#     4  11  24  45  72 107 144 188 239 299 354 428
#     4  11  24  47  74 108 144 188 239 301 355 430
#     4  11  25  47  76 107 142 192 238 295 365 420
#
# _framework density 24.805147000000002
#
# number of rings (size 3 to 8) (size 9 to 14) (size 15 to 20)
#    0.000    1.000    2.500    3.000    0.000    9.000 
#   13.500    0.000    0.000    0.000    0.000    0.000 
#    0.000    0.000    0.000    0.000    0.000    0.000 
#
# Total GULP energy -44652.421201 kJ/mol
# GULP energy per Si atom -5581.552650 kJ/mol
# Density = 2.474869 g / cm^3
# Si number density = 24.805147 Si / 1000 Ang^3
#
#
#
# Elastic Constant Matrix: (Units=GPa)
#
#
# Indices 1 2 3 4 5 6 
#
# 1 113.8315 74.3240 45.5142 8.6753 -2.5888 9.7229
# 2 74.3240 96.3014 81.5239 8.7178 6.3601 8.8791
# 3 45.5142 81.5239 137.5648 10.1996 5.4073 16.3366
# 4 8.6753 8.7178 10.1996 52.5993 -4.5489 -15.7229
# 5 -2.5888 6.3601 5.4073 -4.5489 24.5204 5.9694
# 6 9.7229 8.8791 16.3366 -15.7229 5.9694 55.1658
#
#
#
# Elastic Compliance Matrix: (Units=1/GPa)
#
#
# Indices 1 2 3 4 5 6 
#
# 1 0.020566 -0.020713 0.005677 -0.001401 0.006788 -0.003106
# 2 -0.020713 0.041977 -0.018038 0.000098 -0.009891 0.003334
# 3 0.005677 -0.018038 0.016613 -0.002135 0.002158 -0.003859
# 4 -0.001401 0.000098 -0.002135 0.021912 0.002703 0.006816
# 5 0.006788 -0.009891 0.002158 0.002703 0.045151 -0.004359
# 6 -0.003106 0.003334 -0.003859 0.006816 -0.004359 0.021695
#
#
# Mechanical properties :
#
#
# Convention : Reuss Voigt Hill
#
# Bulk Modulus (GPa) = 76.88401 83.38020 80.13211
# Shear Modulus (GPa) = 20.97341 36.21280 28.59311
#
# Velocity S-wave (km/s) = 2.91095 3.82500 3.39884
# Velocity P-wave (km/s) = 6.50850 7.29346 6.91213
#
# Compressibility (1/GPa) = 0.01300661
#
# Stress axis : x y z
#
# Youngs Moduli (GPa) = 48.62456 23.82265 60.19546
#
# Poissons Ratio (x) = 0.49344 -0.34170
# Poissons Ratio (y) = 1.00716 1.08580
# Poissons Ratio (z) = -0.27602 0.42971
#
# Static dielectric constant tensor:
#      x y z
#    x 1.984130 0.006880 -0.032360 
#    y 0.006880 1.920970 0.012620 
#    z -0.032360 0.012620 1.989960 
# 
# From -- ./inp_files/2519.got.cif
#   From: 2010.05.17/outbox.cif.g08.bks.cpg/sg1_2_cif.got.tgz:2519.got - 2010.05.17 20:27:59.
