data_PCOD9000319
_publ_section_title
;
Structure prediction by ZEFSAII (Michael W. Deem and Ramdas Pophale) SiO2 
 PCOD9000319
Probable space group: P 1
;
_chemical_formula_sum "Si O2"
_cell_formula_units_Z 8
_cell_length_a 5.382740
_cell_length_b 10.990295
_cell_length_c 6.725306
_cell_angle_alpha 107.761900
_cell_angle_beta 72.687482
_cell_angle_gamma 123.032981
_cell_volume 313.321190
_symmetry_space_group_name_H-M "P 1"
_symmetry_group_IT_number 1
_symmetry_cell_setting 'triclinic'
loop_
_space_group_symop_operation_xyz
x,y,z
loop_
_atom_site_type_symbol
_atom_site_label
_atom_site_fract_x
_atom_site_fract_y
_atom_site_fract_z
Si Si1 0.143140 0.312870 0.268580
Si Si2 0.163151 0.950056 0.368266
Si Si3 0.556169 0.769553 0.599203
Si Si4 0.082874 0.701947 0.983655
Si Si5 0.630734 0.230688 0.636343
Si Si6 0.544086 0.174988 0.089912
Si Si7 0.190352 0.592339 0.260901
Si Si8 0.648182 0.522071 0.655425
O O1 0.286158 0.471979 0.218500
O O2 0.417731 0.285314 0.220659
O O3 0.971027 0.299706 0.509458
O O4 0.855803 0.211439 0.142061
O O5 0.886983 0.905703 0.560936
O O6 0.439662 0.076114 0.488040
O O7 0.083364 0.790407 0.223645
O O8 0.249895 0.029825 0.171606
O O9 0.358949 0.799060 0.818714
O O10 0.434937 0.740858 0.387244
O O11 0.520136 0.616067 0.617813
O O12 0.804538 0.622725 0.864011
O O13 0.128437 0.583412 0.037566
O O14 0.598270 0.188789 0.851474
O O15 0.528024 0.352531 0.673161
O O16 0.906013 0.544107 0.447663
#
# Coordination Sequence:
#
# PCOD9000319 Si02
#       8
#     1   1   1   1   1   1   1   1
#     4  10  25  45  73 109 146 190 244 304 363 432
#     4  11  27  45  70 106 146 188 238 295 366 441
#     4  11  26  41  73 103 143 188 241 300 362 432
#     4  11  25  44  71 103 140 190 239 294 367 436
#     4  10  25  46  74 104 147 188 245 303 361 432
#     4  11  26  46  72 106 148 196 240 298 370 436
#     4  10  23  42  72 105 144 184 244 302 361 428
#     4  10  23  47  71 104 138 184 247 300 354 433
#
# _framework density 25.532905
#
# number of rings (size 3 to 8) (size 9 to 14) (size 15 to 20)
#    0.000    1.500    1.250    0.750   10.500    7.000 
#    0.000    0.000    0.000    0.000    0.000    0.000 
#    0.000    0.000    0.000    0.000    0.000    0.000 
#
# Total GULP energy -44604.460622 kJ/mol
# GULP energy per Si atom -5575.557578 kJ/mol
# Density = 2.547479 g / cm^3
# Si number density = 25.532905 Si / 1000 Ang^3
#
#
#
# Elastic Constant Matrix: (Units=GPa)
#
#
# Indices 1 2 3 4 5 6 
#
# 1 47.2389 6.2442 20.1322 14.0196 13.0644 9.0757
# 2 6.2442 70.8815 46.6481 -0.5883 8.8535 19.9421
# 3 20.1322 46.6481 128.8756 -24.8987 20.0921 15.1217
# 4 14.0196 -0.5883 -24.8987 40.1500 0.4101 -5.7772
# 5 13.0644 8.8535 20.0921 0.4101 49.7968 -4.7243
# 6 9.0757 19.9421 15.1217 -5.7772 -4.7243 27.3607
#
#
#
# Elastic Compliance Matrix: (Units=1/GPa)
#
#
# Indices 1 2 3 4 5 6 
#
# 1 0.036747 0.009703 -0.009602 -0.021438 -0.009220 -0.020073
# 2 0.009703 0.026111 -0.010210 -0.012168 -0.004867 -0.020016
# 3 -0.009602 -0.010210 0.015194 0.013330 -0.001451 0.004793
# 4 -0.021438 -0.012168 0.013330 0.043084 0.003797 0.018365
# 5 -0.009220 -0.004867 -0.001451 0.003797 0.025110 0.012545
# 6 -0.020073 -0.020016 0.004793 0.018365 0.012545 0.061191
#
#
# Mechanical properties :
#
#
# Convention : Reuss Voigt Hill
#
# Bulk Modulus (GPa) = 17.29079 43.67166 30.48123
# Shear Modulus (GPa) = 20.24831 35.05961 27.65396
#
# Velocity S-wave (km/s) = 2.81913 3.70958 3.29458
# Velocity P-wave (km/s) = 4.16933 5.95728 5.14162
#
# Compressibility (1/GPa) = 0.05783425
#
# Stress axis : x y z
#
# Youngs Moduli (GPa) = 27.21316 38.29758 65.81405
#
# Poissons Ratio (x) = -0.37159 0.63192
# Poissons Ratio (y) = -0.26404 0.67199
# Poissons Ratio (z) = 0.26129 0.39103
#
# Static dielectric constant tensor:
#      x y z
#    x 2.151010 -0.099800 -0.011590 
#    y -0.099800 2.102480 0.058870 
#    z -0.011590 0.058870 1.982380 
# 
# From -- ./inp_files/629.got.cif
#   From: 2010.05.17/outbox.cif.g08.bks.cpg/sg1_1_cif.got.tgz:629.got - 2010.05.17 20:27:59.
