data_PCOD9000373
_publ_section_title
;
Structure prediction by ZEFSAII (Michael W. Deem and Ramdas Pophale) SiO2 
 PCOD9000373
Probable space group: P 1
;
_chemical_formula_sum "Si O2"
_cell_formula_units_Z 8
_cell_length_a 5.212203
_cell_length_b 8.652261
_cell_length_c 12.665799
_cell_angle_alpha 33.716940
_cell_angle_beta 94.086305
_cell_angle_gamma 104.215175
_cell_volume 297.819488
_symmetry_space_group_name_H-M "P 1"
_symmetry_group_IT_number 1
_symmetry_cell_setting 'triclinic'
loop_
_space_group_symop_operation_xyz
x,y,z
loop_
_atom_site_type_symbol
_atom_site_label
_atom_site_fract_x
_atom_site_fract_y
_atom_site_fract_z
Si Si1 0.003270 0.511720 0.474500
Si Si2 0.112055 0.759928 0.120724
Si Si3 0.497651 0.429564 0.621166
Si Si4 0.614752 0.239715 0.937641
Si Si5 0.605310 0.056957 0.376802
Si Si6 0.509079 0.736630 0.769139
Si Si7 0.558648 0.662453 0.038850
Si Si8 0.019477 0.157079 0.153082
O O1 0.073217 0.523809 0.346265
O O2 0.179347 0.327934 0.638107
O O3 0.680509 0.439527 0.519687
O O4 0.102448 0.859390 0.322258
O O5 0.314875 0.722751 0.058230
O O6 0.822388 0.734314 0.079754
O O7 0.290700 0.067158 0.008081
O O8 0.678840 0.310494 0.777034
O O9 0.515655 0.734069 0.506112
O O10 0.668865 0.540711 0.830911
O O11 0.766115 0.072233 0.108415
O O12 0.542408 0.984591 0.540641
O O13 0.482216 0.315516 0.203497
O O14 0.895045 0.185708 0.248914
O O15 0.621653 0.835435 0.832163
O O16 0.218065 0.477357 0.934225
#
# Coordination Sequence:
#
# PCOD9000373 Si02
#       8
#     1   1   1   1   1   1   1   1
#     4  11  22  43  68 105 143 189 233 305 368 429
#     4  12  26  47  74  98 153 198 236 295 385 436
#     4  10  24  40  74 112 138 175 261 310 356 426
#     4  11  24  45  75 109 140 194 248 316 363 436
#     4  10  23  46  71 110 139 195 243 303 365 442
#     4  11  24  46  79 105 144 192 253 308 369 434
#     4  12  26  49  69 110 153 197 236 303 370 456
#     4  11  21  44  80 109 146 182 254 318 366 427
#
# _framework density 26.861905
#
# number of rings (size 3 to 8) (size 9 to 14) (size 15 to 20)
#    0.000    1.000    2.500    4.500    3.500    1.000 
#   11.250    0.000    0.000    0.000    0.000    0.000 
#    0.000    0.000    0.000    0.000    0.000    0.000 
#
# Total GULP energy -44625.003965 kJ/mol
# GULP energy per Si atom -5578.125496 kJ/mol
# Density = 2.680077 g / cm^3
# Si number density = 26.861905 Si / 1000 Ang^3
#
#
#
# Elastic Constant Matrix: (Units=GPa)
#
#
# Indices 1 2 3 4 5 6 
#
# 1 133.8774 28.6255 37.1236 31.3129 10.0869 6.9258
# 2 28.6255 87.3788 24.2910 1.0153 2.8189 -1.6857
# 3 37.1236 24.2910 138.4019 33.7903 16.0062 -11.5329
# 4 31.3129 1.0153 33.7903 55.8716 -4.1960 -9.2143
# 5 10.0869 2.8189 16.0062 -4.1960 33.8253 5.1139
# 6 6.9258 -1.6857 -11.5329 -9.2143 5.1139 47.0249
#
#
#
# Elastic Compliance Matrix: (Units=1/GPa)
#
#
# Indices 1 2 3 4 5 6 
#
# 1 0.009977 -0.002985 -0.000635 -0.005783 -0.002755 -0.002566
# 2 -0.002985 0.013002 -0.002288 0.003041 0.001143 0.000816
# 3 -0.000635 -0.002288 0.009970 -0.005717 -0.005337 0.001917
# 4 -0.005783 0.003041 -0.005717 0.025686 0.006780 0.003854
# 5 -0.002755 0.001143 -0.005337 0.006780 0.034147 -0.003247
# 6 -0.002566 0.000816 0.001917 0.003854 -0.003247 0.023251
#
#
# Mechanical properties :
#
#
# Convention : Reuss Voigt Hill
#
# Bulk Modulus (GPa) = 47.32219 59.97091 53.64655
# Shear Modulus (GPa) = 37.06608 45.31890 41.19249
#
# Velocity S-wave (km/s) = 3.71870 4.11190 3.92023
# Velocity P-wave (km/s) = 6.00778 6.70207 6.36440
#
# Compressibility (1/GPa) = 0.02113173
#
# Stress axis : x y z
#
# Youngs Moduli (GPa) = 100.23097 76.91153 100.30169
#
# Poissons Ratio (x) = 0.22960 0.06374
# Poissons Ratio (y) = 0.29921 0.22948
# Poissons Ratio (z) = 0.06369 0.17596
#
# Static dielectric constant tensor:
#      x y z
#    x 2.106060 0.094050 -0.079410 
#    y 0.094050 2.152670 -0.024910 
#    z -0.079410 -0.024910 2.250480 
# 
# From -- ./inp_files/6004.got.cif
#   From: 2010.05.17/outbox.cif.g08.bks.cpg/sg1_4_cif.got.tgz:6004.got - 2010.05.17 20:27:59.
