data_PCOD9000051
_publ_section_title
;
Structure prediction by ZEFSAII (Michael W. Deem and Ramdas Pophale) SiO2 
 PCOD9000051
Probable space group: P 1
;
_chemical_formula_sum "Si O2"
_cell_formula_units_Z 8
_cell_length_a 7.355779
_cell_length_b 9.288591
_cell_length_c 7.331463
_cell_angle_alpha 69.041734
_cell_angle_beta 120.479802
_cell_angle_gamma 109.741559
_cell_volume 395.456586
_symmetry_space_group_name_H-M "P 1"
_symmetry_group_IT_number 1
_symmetry_cell_setting 'triclinic'
loop_
_space_group_symop_operation_xyz
x,y,z
loop_
_atom_site_type_symbol
_atom_site_label
_atom_site_fract_x
_atom_site_fract_y
_atom_site_fract_z
Si Si1 0.952300 0.422390 0.975610
Si Si2 0.108922 0.240688 0.846408
Si Si3 0.556178 0.176551 0.972038
Si Si4 0.886511 0.752556 0.633514
Si Si5 0.965873 0.883545 0.967940
Si Si6 0.326799 0.843618 0.909833
Si Si7 0.827444 0.338995 0.335384
Si Si8 0.673250 0.654709 0.196578
O O1 0.725376 0.299833 0.886442
O O2 0.123980 0.360171 0.967301
O O3 0.918410 0.590096 0.816069
O O4 0.984051 0.411994 0.213682
O O5 0.332849 0.232282 0.867183
O O6 0.953177 0.290964 0.592105
O O7 0.013905 0.066629 0.953224
O O8 0.673911 0.192611 0.222818
O O9 0.499808 0.005104 0.932515
O O10 0.730245 0.711873 0.405380
O O11 0.824245 0.855141 0.721816
O O12 0.131817 0.837908 0.669182
O O13 0.192197 0.843157 0.030603
O O14 0.850065 0.765953 0.111711
O O15 0.446168 0.699821 0.013457
O O16 0.698609 0.476063 0.260410
#
# Coordination Sequence:
#
# PCOD9000051 Si02
#       8
#     1   1   1   1   1   1   1   1
#     4  10  21  42  58  93 124 153 207 249 294 367
#     4  11  21  42  63  85 130 159 191 261 302 349
#     4   9  22  41  60  91 122 155 208 245 297 369
#     4  10  22  41  60  90 125 154 205 247 297 362
#     4   9  22  41  59  93 119 154 208 245 295 365
#     4   9  22  41  61  89 121 158 206 248 294 369
#     4  10  23  38  62  92 119 160 203 242 305 359
#     4  12  21  42  65  85 126 165 194 253 306 348
#
# _framework density 20.229783000000001
#
# number of rings (size 3 to 8) (size 9 to 14) (size 15 to 20)
#    1.500    0.500    2.500    0.750    3.500    0.000 
#    9.000    1.250    0.000    0.000    0.000    0.000 
#    0.000    0.000    0.000    0.000    0.000    0.000 
#
# Total GULP energy -44539.941615 kJ/mol
# GULP energy per Si atom -5567.492702 kJ/mol
# Density = 2.018374 g / cm^3
# Si number density = 20.229783 Si / 1000 Ang^3
#
#
#
# Elastic Constant Matrix: (Units=GPa)
#
#
# Indices 1 2 3 4 5 6 
#
# 1 36.8723 8.5335 -6.7645 -13.8359 7.4651 -0.1498
# 2 8.5335 70.5588 -9.3060 3.5801 1.8738 7.0558
# 3 -6.7645 -9.3060 22.9459 1.5074 0.9127 1.7523
# 4 -13.8359 3.5801 1.5074 25.0381 -4.8192 0.7054
# 5 7.4651 1.8738 0.9127 -4.8192 19.4516 -5.0539
# 6 -0.1498 7.0558 1.7523 0.7054 -5.0539 30.8928
#
#
#
# Elastic Compliance Matrix: (Units=1/GPa)
#
#
# Indices 1 2 3 4 5 6 
#
# 1 0.039315 -0.004107 0.009171 0.019757 -0.010639 -0.001583
# 2 -0.004107 0.016273 0.006189 -0.005376 -0.002761 -0.004417
# 3 0.009171 0.006189 0.049537 -0.000167 -0.007902 -0.005468
# 4 0.019757 -0.005376 -0.000167 0.052821 0.006332 0.001163
# 5 -0.010639 -0.002761 -0.007902 0.006332 0.060499 0.010780
# 6 -0.001583 -0.004417 -0.005468 0.001163 0.010780 0.035418
#
#
# Mechanical properties :
#
#
# Convention : Reuss Voigt Hill
#
# Bulk Modulus (GPa) = 7.83502 12.81144 10.32323
# Shear Modulus (GPa) = 18.25473 24.27078 21.26275
#
# Velocity S-wave (km/s) = 3.00720 3.46751 3.24553
# Velocity P-wave (km/s) = 3.99238 4.73056 4.37706
#
# Compressibility (1/GPa) = 0.12763209
#
# Stress axis : x y z
#
# Youngs Moduli (GPa) = 25.43582 61.45005 20.18675
#
# Poissons Ratio (x) = 0.25237 -0.18513
# Poissons Ratio (y) = 0.10446 -0.12495
# Poissons Ratio (z) = -0.23326 -0.38034
#
# Static dielectric constant tensor:
#      x y z
#    x 1.732480 0.013120 0.005500 
#    y 0.013120 1.752570 0.030910 
#    z 0.005500 0.030910 1.699070 
# 
# From -- ./inp_files/3842.got.cif
#   From: 2010.05.17/outbox.cif.g08.bks.cpg/sg1_2_cif.got.tgz:3842.got - 2010.05.17 20:27:59.
