data_PCOD9000026
_publ_section_title
;
Structure prediction by ZEFSAII (Michael W. Deem and Ramdas Pophale) SiO2 
 PCOD9000026
Probable space group: P 1
;
_chemical_formula_sum "Si O2"
_cell_formula_units_Z 8
_cell_length_a 8.586673
_cell_length_b 7.687332
_cell_length_c 5.385150
_cell_angle_alpha 95.913208
_cell_angle_beta 114.577829
_cell_angle_gamma 111.032429
_cell_volume 288.086881
_symmetry_space_group_name_H-M "P 1"
_symmetry_group_IT_number 1
_symmetry_cell_setting 'triclinic'
loop_
_space_group_symop_operation_xyz
x,y,z
loop_
_atom_site_type_symbol
_atom_site_label
_atom_site_fract_x
_atom_site_fract_y
_atom_site_fract_z
Si Si1 0.535900 0.936580 0.828520
Si Si2 0.890035 0.882781 0.867185
Si Si3 0.386998 0.008418 0.229226
Si Si4 0.254347 0.602989 0.898911
Si Si5 0.978508 0.428003 0.325496
Si Si6 0.960531 0.819793 0.391991
Si Si7 0.310300 0.360821 0.305508
Si Si8 0.668009 0.498264 0.897711
O O1 0.726291 0.943878 0.838515
O O2 0.448436 0.007688 0.554241
O O3 0.392683 0.710987 0.772861
O O4 0.544372 0.028765 0.122495
O O5 0.975959 0.938035 0.663027
O O6 0.792758 0.642970 0.777078
O O7 0.025860 0.946690 0.207466
O O8 0.334495 0.183715 0.166583
O O9 0.233743 0.785681 0.035091
O O10 0.360557 0.529462 0.157121
O O11 0.052484 0.425258 0.655567
O O12 0.105728 0.348073 0.249261
O O13 0.044049 0.663677 0.411491
O O14 0.772608 0.370020 0.050765
O O15 0.735911 0.671329 0.174466
O O16 0.455824 0.399625 0.640375
#
# Coordination Sequence:
#
# PCOD9000026 Si02
#       8
#     1   1   1   1   1   1   1   1
#     4  10  21  41  62 101 143 171 236 284 336 418
#     4   9  16  34  61  87 132 171 210 283 329 388
#     4  10  25  40  63 105 144 175 235 290 337 428
#     4  10  23  39  72 103 135 186 234 283 347 421
#     4   9  22  38  67  99 141 179 228 290 340 418
#     4   8  20  32  57  98 130 164 227 273 328 408
#     4  12  23  43  74 100 140 189 226 287 360 398
#     4   8  22  35  64 103 131 173 236 272 339 421
#
# _framework density 27.769400000000001
#
# number of rings (size 3 to 8) (size 9 to 14) (size 15 to 20)
#    2.250    0.000    0.000    3.000    7.000    0.000 
#    0.000    0.000    8.250    3.000    0.000    0.000 
#    0.000    0.000    0.000    0.000    0.000    0.000 
#
# Total GULP energy -44557.778542 kJ/mol
# GULP energy per Si atom -5569.722318 kJ/mol
# Density = 2.770620 g / cm^3
# Si number density = 27.769400 Si / 1000 Ang^3
#
#
#
# Elastic Constant Matrix: (Units=GPa)
#
#
# Indices 1 2 3 4 5 6 
#
# 1 93.0822 49.0472 55.0602 -4.0657 8.2621 -29.8793
# 2 49.0472 144.8635 43.7881 -13.0601 -6.1480 -37.2788
# 3 55.0602 43.7881 183.1320 -13.1276 -0.8003 -18.7225
# 4 -4.0657 -13.0601 -13.1276 32.4682 -9.0743 2.1783
# 5 8.2621 -6.1480 -0.8003 -9.0743 65.1808 -3.7341
# 6 -29.8793 -37.2788 -18.7225 2.1783 -3.7341 39.0957
#
#
#
# Elastic Compliance Matrix: (Units=1/GPa)
#
#
# Indices 1 2 3 4 5 6 
#
# 1 0.017356 -0.002728 -0.003804 -0.001672 -0.002237 0.008721
# 2 -0.002728 0.010381 -0.000616 0.003713 0.002266 0.007528
# 3 -0.003804 -0.000616 0.006896 0.002308 0.000816 -0.000243
# 4 -0.001672 0.003713 0.002308 0.034420 0.005496 0.001975
# 5 -0.002237 0.002266 0.000816 0.005496 0.016737 0.002134
# 6 0.008721 0.007528 -0.000243 0.001975 0.002134 0.039399
#
#
# Mechanical properties :
#
#
# Convention : Reuss Voigt Hill
#
# Bulk Modulus (GPa) = 49.17316 79.65207 64.41262
# Shear Modulus (GPa) = 34.18493 45.56107 39.87300
#
# Velocity S-wave (km/s) = 3.51241 4.05494 3.79339
# Velocity P-wave (km/s) = 5.84769 7.11822 6.51401
#
# Compressibility (1/GPa) = 0.02033630
#
# Stress axis : x y z
#
# Youngs Moduli (GPa) = 57.61818 96.32857 145.01667
#
# Poissons Ratio (x) = 0.26277 0.55163
# Poissons Ratio (y) = 0.15717 0.08938
# Poissons Ratio (z) = 0.21918 0.05937
#
# Static dielectric constant tensor:
#      x y z
#    x 2.254970 0.019250 0.074820 
#    y 0.019250 2.201100 -0.009300 
#    z 0.074820 -0.009300 2.279980 
# 
# From -- ./inp_files/1226.got.cif
#   From: 2010.05.17/outbox.cif.g08.bks.cpg/sg1_1_cif.got.tgz:1226.got - 2010.05.17 20:27:59.
