data_PCOD9000549
_publ_section_title
;
Structure prediction by ZEFSAII (Michael W. Deem and Ramdas Pophale) SiO2 
 PCOD9000549
Probable space group: P 1
;
_chemical_formula_sum "Si O2"
_cell_formula_units_Z 8
_cell_length_a 14.462098
_cell_length_b 4.880303
_cell_length_c 5.773203
_cell_angle_alpha 73.404940
_cell_angle_beta 69.502742
_cell_angle_gamma 103.501670
_cell_volume 339.597481
_symmetry_space_group_name_H-M "P 1"
_symmetry_group_IT_number 1
_symmetry_cell_setting 'triclinic'
loop_
_space_group_symop_operation_xyz
x,y,z
loop_
_atom_site_type_symbol
_atom_site_label
_atom_site_fract_x
_atom_site_fract_y
_atom_site_fract_z
Si Si1 0.714810 0.881240 0.329480
Si Si2 0.547260 0.765346 0.141410
Si Si3 0.047343 0.776943 0.596654
Si Si4 0.223529 0.231475 0.595357
Si Si5 0.736169 0.306996 0.593122
Si Si6 0.234035 0.255915 0.083874
Si Si7 0.407556 0.147098 0.214820
Si Si8 0.903889 0.132963 0.744419
O O1 0.730394 0.638065 0.551898
O O2 0.602170 0.725243 0.339818
O O3 0.720766 0.196492 0.367040
O O4 0.812149 0.958450 0.048499
O O5 0.447860 0.869338 0.237440
O O6 0.507808 0.457981 0.100229
O O7 0.639819 0.047851 0.870594
O O8 0.117555 0.928319 0.724777
O O9 0.998991 0.412365 0.712746
O O10 0.130948 0.941881 0.280992
O O11 0.952430 0.903657 0.645205
O O12 0.324014 0.128614 0.497344
O O13 0.228649 0.414573 0.301380
O O14 0.228572 0.380707 0.804271
O O15 0.846528 0.286537 0.580499
O O16 0.341864 0.188485 0.040120
#
# Coordination Sequence:
#
# PCOD9000549 Si02
#       8
#     1   1   1   1   1   1   1   1
#     4  11  24  39  62  92 126 169 211 270 321 386
#     4  11  22  43  60  94 128 165 220 263 324 390
#     4   9  22  37  66  88 128 173 212 267 326 386
#     4   8  20  40  64  96 133 169 217 270 324 390
#     4  11  24  39  62  92 126 169 211 270 321 386
#     4   8  20  40  64  96 133 169 217 270 324 390
#     4   9  22  37  66  88 128 173 212 267 326 386
#     4  11  22  43  60  94 128 165 220 263 324 390
#
# _framework density 23.557303999999998
#
# number of rings (size 3 to 8) (size 9 to 14) (size 15 to 20)
#    1.500    0.500    0.000    3.000    0.000   14.000 
#    0.000    2.500    0.000    0.000    0.000    0.000 
#    0.000    0.000    0.000    0.000    0.000    0.000 
#
# Total GULP energy -44632.052735 kJ/mol
# GULP energy per Si atom -5579.006592 kJ/mol
# Density = 2.350369 g / cm^3
# Si number density = 23.557304 Si / 1000 Ang^3
#
#
#
# Elastic Constant Matrix: (Units=GPa)
#
#
# Indices 1 2 3 4 5 6 
#
# 1 82.3578 17.2120 30.2334 9.9346 -9.0385 3.6768
# 2 17.2120 93.3429 16.7068 -1.9064 1.4768 -5.2442
# 3 30.2334 16.7068 62.9791 18.3184 18.9113 10.6236
# 4 9.9346 -1.9064 18.3184 25.4947 7.7639 -1.3905
# 5 -9.0385 1.4768 18.9113 7.7639 27.8108 3.9283
# 6 3.6768 -5.2442 10.6236 -1.3905 3.9283 36.6023
#
#
#
# Elastic Compliance Matrix: (Units=1/GPa)
#
#
# Indices 1 2 3 4 5 6 
#
# 1 0.019253 -0.001661 -0.012479 -0.003513 0.015866 -0.000386
# 2 -0.001661 0.012096 -0.004394 0.004904 -0.000039 0.003366
# 3 -0.012479 -0.004394 0.035350 -0.014357 -0.022759 -0.007739
# 4 -0.003513 0.004904 -0.014357 0.054123 -0.007897 0.008126
# 5 0.015866 -0.000039 -0.022759 -0.007897 0.059027 -0.001629
# 6 -0.000386 0.003366 -0.007739 0.008126 -0.001629 0.030571
#
#
# Mechanical properties :
#
#
# Convention : Reuss Voigt Hill
#
# Bulk Modulus (GPa) = 33.74920 40.77601 37.26260
# Shear Modulus (GPa) = 19.42774 29.61673 24.52224
#
# Velocity S-wave (km/s) = 2.87488 3.54958 3.22989
# Velocity P-wave (km/s) = 5.03760 5.84347 5.45544
#
# Compressibility (1/GPa) = 0.02963034
#
# Stress axis : x y z
#
# Youngs Moduli (GPa) = 51.94111 82.67366 28.28862
#
# Poissons Ratio (x) = 0.13732 0.35302
# Poissons Ratio (y) = 0.08627 0.12430
# Poissons Ratio (z) = 0.64818 0.36326
#
# Static dielectric constant tensor:
#      x y z
#    x 1.895540 0.040390 0.025060 
#    y 0.040390 1.829350 0.024460 
#    z 0.025060 0.024460 1.914360 
# 
# From -- ./inp_files/2544.got.cif
#   From: 2010.05.17/outbox.cif.g08.bks.cpg/sg1_2_cif.got.tgz:2544.got - 2010.05.17 20:27:59.
