data_PCOD9000992
_publ_section_title
;
Structure prediction by ZEFSAII (Michael W. Deem and Ramdas Pophale) SiO2 
 PCOD9000992
Probable space group: P -1
;
_chemical_formula_sum "Si O2"
_cell_formula_units_Z 16
_cell_length_a 14.140902
_cell_length_b 15.994490
_cell_length_c 14.241320
_cell_angle_alpha 54.305244
_cell_angle_beta 159.482051
_cell_angle_gamma 128.551054
_cell_volume 882.923147
_symmetry_space_group_name_H-M "P -1"
_symmetry_group_IT_number 2
_symmetry_cell_setting 'triclinic'
loop_
_space_group_symop_operation_xyz
x,y,z
-x,-y,-z
loop_
_atom_site_type_symbol
_atom_site_label
_atom_site_fract_x
_atom_site_fract_y
_atom_site_fract_z
Si Si1 0.062857 0.689062 0.111046
Si Si2 0.658160 0.596515 0.965234
Si Si3 0.190805 0.622577 0.749098
Si Si4 0.215214 0.275277 0.813024
Si Si5 0.164751 0.939806 0.321453
Si Si6 0.702047 0.493706 0.475164
Si Si7 0.261187 0.466787 0.221608
Si Si8 0.243344 0.919329 0.191443
O O1 0.240704 0.603085 0.348073
O O2 0.231321 0.811328 0.195496
O O3 0.860442 0.665579 0.029162
O O4 0.878453 0.652846 0.869919
O O5 0.374718 0.550410 0.672824
O O6 0.752566 0.491223 0.149990
O O7 0.664850 0.669232 0.013228
O O8 0.011372 0.668963 0.477014
O O9 0.978355 0.590698 0.660660
O O10 0.500542 0.701798 0.999172
O O11 0.044354 0.154386 0.754287
O O12 0.220298 0.898335 0.296323
O O13 0.468063 0.989824 0.615428
O O14 0.016367 0.034546 0.106309
O O15 0.432034 0.520510 0.251781
O O16 0.500000 0.500000 0.500000
O O17 0.000000 0.500000 0.000000
#
# Coordination Sequence:
#
# PCOD9000992 Si02
#       8
#     2   2   2   2   2   2   2   2
#     4  10  21  35  59  80 113 151 180 223 276 333
#     4  10  21  33  50  77 108 152 190 222 261 321
#     4  11  23  34  50  74 110 149 191 228 264 317
#     4  12  22  34  51  73 111 150 199 231 262 298
#     4  10  22  35  51  76 104 150 199 240 256 302
#     4  10  22  37  53  83 109 150 176 217 276 338
#     4  11  22  38  58  84 115 140 172 223 280 348
#     4  10  21  37  53  73 108 147 195 230 276 305
#
# _framework density 18.121623
#
# number of rings (size 3 to 8) (size 9 to 14) (size 15 to 20)
#    0.000    1.500    3.750    1.500    7.000    1.000 
#    0.000    0.000    0.000    0.000    0.000    0.000 
#    0.000   20.000    0.000    0.000    0.000    0.000 
#
# Total GULP energy -89165.781739 kJ/mol
# GULP energy per Si atom -5572.861359 kJ/mol
# Density = 1.808038 g / cm^3
# Si number density = 18.121623 Si / 1000 Ang^3
#
#
#
# Elastic Constant Matrix: (Units=GPa)
#
#
# Indices 1 2 3 4 5 6 
#
# 1 43.8865 36.7157 19.5658 9.5702 12.9176 -4.3856
# 2 36.7157 81.5389 18.7167 18.7783 1.6014 5.0077
# 3 19.5658 18.7167 101.6919 19.2500 1.2001 -4.6007
# 4 9.5702 18.7783 19.2500 20.8152 9.2061 3.2842
# 5 12.9176 1.6014 1.2001 9.2061 36.4473 11.8030
# 6 -4.3856 5.0077 -4.6007 3.2842 11.8030 20.6483
#
#
#
# Elastic Compliance Matrix: (Units=1/GPa)
#
#
# Indices 1 2 3 4 5 6 
#
# 1 0.066278 -0.034015 -0.007693 0.018417 -0.039417 0.040215
# 2 -0.034015 0.033547 0.003718 -0.025138 0.024813 -0.024718
# 3 -0.007693 0.003718 0.013308 -0.014696 0.006063 -0.000699
# 4 0.018417 -0.025138 -0.014696 0.087674 -0.030371 0.010149
# 5 -0.039417 0.024813 0.006063 -0.030371 0.061906 -0.043595
# 6 0.040215 -0.024718 -0.000699 0.010149 -0.043595 0.086116
#
#
# Mechanical properties :
#
#
# Convention : Reuss Voigt Hill
#
# Bulk Modulus (GPa) = 26.91660 41.90151 34.40906
# Shear Modulus (GPa) = 11.43656 25.72344 18.58000
#
# Velocity S-wave (km/s) = 2.51490 3.77170 3.20550
# Velocity P-wave (km/s) = 4.82892 6.49155 5.72096
#
# Compressibility (1/GPa) = 0.03715179
#
# Stress axis : x y z
#
# Youngs Moduli (GPa) = 15.08799 29.80888 75.14131
#
# Poissons Ratio (x) = 1.01395 0.57808
# Poissons Ratio (y) = 0.51322 -0.27934
# Poissons Ratio (z) = 0.11607 -0.11082
#
# Static dielectric constant tensor:
#      x y z
#    x 1.678300 0.022160 0.016720 
#    y 0.022160 1.623750 0.011630 
#    z 0.016720 0.011630 1.691730 
# 
# From -- ./inp_files/100805.got.cif
#   From: 2010.05.17/outbox.cif.g08.bks.cpg/sg2_51_cif.got.tgz:100805.got - 2010.06.03 11:33:40.
