data_PCOD9000426
_publ_section_title
;
Structure prediction by ZEFSAII (Michael W. Deem and Ramdas Pophale) SiO2 
 PCOD9000426
Probable space group: P 1
;
_chemical_formula_sum "Si O2"
_cell_formula_units_Z 6
_cell_length_a 6.815756
_cell_length_b 8.054243
_cell_length_c 8.688997
_cell_angle_alpha 77.930691
_cell_angle_beta 141.997722
_cell_angle_gamma 78.448751
_cell_volume 228.394169
_symmetry_space_group_name_H-M "P 1"
_symmetry_group_IT_number 1
_symmetry_cell_setting 'triclinic'
loop_
_space_group_symop_operation_xyz
x,y,z
loop_
_atom_site_type_symbol
_atom_site_label
_atom_site_fract_x
_atom_site_fract_y
_atom_site_fract_z
Si Si1 0.303730 0.082900 0.574510
Si Si2 0.368269 0.855680 0.080556
Si Si3 0.524977 0.450505 0.160145
Si Si4 0.477644 0.116540 0.341712
Si Si5 0.995900 0.724510 0.216451
Si Si6 0.488883 0.641732 0.787101
O O1 0.244803 0.150145 0.348740
O O2 0.002031 0.276545 0.461073
O O3 0.928383 0.008482 0.703669
O O4 0.234089 0.901496 0.578916
O O5 0.434568 0.631643 0.187624
O O6 0.769537 0.946507 0.940994
O O7 0.698369 0.793754 0.165896
O O8 0.443262 0.961408 0.243963
O O9 0.365210 0.319796 0.136234
O O10 0.378463 0.558120 0.878266
O O11 0.420529 0.597104 0.582982
O O12 0.922656 0.581250 0.099591
#
# Coordination Sequence:
#
# PCOD9000426 Si02
#       6
#     1   1   1   1   1   1
#     4  10  24  45  73 102 140 183 235 288 348 413
#     4  11  24  46  69 103 146 181 228 292 354 410
#     4  11  22  49  73 107 133 194 234 287 347 425
#     4  12  27  45  72 106 143 181 233 296 348 413
#     4   9  18  42  67  91 133 188 211 276 348 405
#     4   9  21  39  68  97 135 177 227 279 341 406
#
# _framework density 26.270374
#
# number of rings (size 3 to 8) (size 9 to 14) (size 15 to 20)
#    1.000    0.667    1.667    3.000    2.333    5.333 
#    9.000    0.000    0.000    0.000    0.000    0.000 
#    0.000    0.000    0.000    0.000    0.000    0.000 
#
# Total GULP energy -33529.493663 kJ/mol
# GULP energy per Si atom -5588.248944 kJ/mol
# Density = 2.621058 g / cm^3
# Si number density = 26.270374 Si / 1000 Ang^3
#
#
#
# Elastic Constant Matrix: (Units=GPa)
#
#
# Indices 1 2 3 4 5 6 
#
# 1 117.0203 61.5804 34.3171 -8.3700 -21.3173 12.5505
# 2 61.5804 164.7664 81.2808 -4.6846 -22.4900 5.8562
# 3 34.3171 81.2808 148.2927 31.7808 -27.1668 5.7691
# 4 -8.3700 -4.6846 31.7808 55.5484 4.0262 -11.2162
# 5 -21.3173 -22.4900 -27.1668 4.0262 43.1129 -9.4982
# 6 12.5505 5.8562 5.7691 -11.2162 -9.4982 41.6993
#
#
#
# Elastic Compliance Matrix: (Units=1/GPa)
#
#
# Indices 1 2 3 4 5 6 
#
# 1 0.011346 -0.003634 -0.000184 0.000894 0.003088 -0.001935
# 2 -0.003634 0.010288 -0.005698 0.003881 -0.000059 0.001467
# 3 -0.000184 -0.005698 0.012826 -0.008644 0.005381 -0.002018
# 4 0.000894 0.003881 -0.008644 0.024946 -0.003946 0.006193
# 5 0.003088 -0.000059 0.005381 -0.003946 0.029321 0.003952
# 6 -0.001935 0.001467 -0.002018 0.006193 0.003952 0.027203
#
#
# Mechanical properties :
#
#
# Convention : Reuss Voigt Hill
#
# Bulk Modulus (GPa) = 64.81677 87.15957 75.98817
# Shear Modulus (GPa) = 35.68770 44.93218 40.30994
#
# Velocity S-wave (km/s) = 3.68975 4.14015 3.92142
# Velocity P-wave (km/s) = 6.54820 7.49029 7.03503
#
# Compressibility (1/GPa) = 0.01542811
#
# Stress axis : x y z
#
# Youngs Moduli (GPa) = 88.13743 97.19979 77.96724
#
# Poissons Ratio (x) = 0.35320 0.01438
# Poissons Ratio (y) = 0.32027 0.44423
# Poissons Ratio (z) = 0.01626 0.55382
#
# Static dielectric constant tensor:
#      x y z
#    x 2.085660 0.036900 -0.006680 
#    y 0.036900 2.064220 0.025540 
#    z -0.006680 0.025540 2.160660 
# 
# From -- ./inp_files/2966.got.cif
#   From: 2010.05.17/outbox.cif.g08.bks.cpg/sg1_2_cif.got.tgz:2966.got - 2010.05.17 20:27:59.
