data_PCOD9000499
_publ_section_title
;
Structure prediction by ZEFSAII (Michael W. Deem and Ramdas Pophale) SiO2 
 PCOD9000499
Probable space group: P 1
;
_chemical_formula_sum "Si O2"
_cell_formula_units_Z 8
_cell_length_a 5.185979
_cell_length_b 5.513771
_cell_length_c 14.449102
_cell_angle_alpha 128.066595
_cell_angle_beta 101.514350
_cell_angle_gamma 85.868380
_cell_volume 318.035790
_symmetry_space_group_name_H-M "P 1"
_symmetry_group_IT_number 1
_symmetry_cell_setting 'triclinic'
loop_
_space_group_symop_operation_xyz
x,y,z
loop_
_atom_site_type_symbol
_atom_site_label
_atom_site_fract_x
_atom_site_fract_y
_atom_site_fract_z
Si Si1 0.291220 0.345240 0.261340
Si Si2 0.180916 0.721003 0.523285
Si Si3 0.864214 0.197876 0.494395
Si Si4 0.939390 0.082958 0.929773
Si Si5 0.461598 0.747418 0.901572
Si Si6 0.307497 0.630573 0.057189
Si Si7 0.750198 0.606894 0.234612
Si Si8 0.573170 0.667790 0.687933
O O1 0.278987 0.495099 0.397052
O O2 0.581302 0.431886 0.262309
O O3 0.047218 0.496550 0.225915
O O4 0.250409 0.980644 0.160490
O O5 0.409729 0.831080 0.636518
O O6 0.999561 0.496542 0.523787
O O7 0.040281 0.993092 0.525409
O O8 0.643771 0.341410 0.574966
O O9 0.768382 0.962054 0.352007
O O10 0.219327 0.958673 0.943553
O O11 0.029617 0.434603 0.000818
O O12 0.733468 0.959237 0.964246
O O13 0.820717 0.901220 0.788725
O O14 0.438313 0.606681 0.764093
O O15 0.421978 0.551397 0.944979
O O16 0.551443 0.568580 0.126488
#
# Coordination Sequence:
#
# PCOD9000499 Si02
#       8
#     1   1   1   1   1   1   1   1
#     4  11  29  50  79 121 161 207 275 338 417 500
#     4  11  27  52  83 122 166 212 274 345 424 498
#     4  11  27  52  83 122 166 212 274 345 424 498
#     4  10  26  53  73 121 160 210 286 325 408 490
#     4  10  26  53  73 121 160 210 286 325 408 490
#     4  12  27  52  86 110 169 226 260 354 408 498
#     4  11  29  50  79 121 161 207 275 338 417 500
#     4  10  25  54  80 116 167 214 270 354 402 504
#
# _framework density 25.154402999999999
#
# number of rings (size 3 to 8) (size 9 to 14) (size 15 to 20)
#    0.750    0.500    0.000    2.250   14.000    7.000 
#   13.500    2.500    0.000    0.000    0.000    0.000 
#    0.000    0.000    0.000    0.000    0.000    0.000 
#
# Total GULP energy -44763.008894 kJ/mol
# GULP energy per Si atom -5595.376112 kJ/mol
# Density = 2.509715 g / cm^3
# Si number density = 25.154403 Si / 1000 Ang^3
#
#
#
# Elastic Constant Matrix: (Units=GPa)
#
#
# Indices 1 2 3 4 5 6 
#
# 1 119.5119 25.2186 18.9431 -1.6316 2.9127 11.7222
# 2 25.2186 77.6119 29.4090 -20.7456 -2.8492 3.3056
# 3 18.9431 29.4090 92.2910 -29.3856 -1.2924 -10.6448
# 4 -1.6316 -20.7456 -29.3856 49.1119 1.7558 1.6972
# 5 2.9127 -2.8492 -1.2924 1.7558 55.1605 1.5266
# 6 11.7222 3.3056 -10.6448 1.6972 1.5266 36.6966
#
#
#
# Elastic Compliance Matrix: (Units=1/GPa)
#
#
# Indices 1 2 3 4 5 6 
#
# 1 0.009588 -0.002716 -0.002118 -0.001962 -0.000542 -0.003319
# 2 -0.002716 0.016445 -0.003322 0.004903 0.000810 -0.001838
# 3 -0.002118 -0.003322 0.015304 0.007511 -0.000081 0.005071
# 4 -0.001962 0.004903 0.007511 0.026835 -0.000353 0.001137
# 5 -0.000542 0.000810 -0.000081 -0.000353 0.018227 -0.000665
# 6 -0.003319 -0.001838 0.005071 0.001137 -0.000665 0.029922
#
#
# Mechanical properties :
#
#
# Convention : Reuss Voigt Hill
#
# Bulk Modulus (GPa) = 39.96012 48.50627 44.23320
# Shear Modulus (GPa) = 35.46758 42.58340 39.02549
#
# Velocity S-wave (km/s) = 3.75906 4.11893 3.94310
# Velocity P-wave (km/s) = 5.89586 6.47657 6.19303
#
# Compressibility (1/GPa) = 0.02502495
#
# Stress axis : x y z
#
# Youngs Moduli (GPa) = 104.29605 60.81042 65.34343
#
# Poissons Ratio (x) = 0.16516 0.13837
# Poissons Ratio (y) = 0.28327 0.21708
# Poissons Ratio (z) = 0.22085 0.20202
#
# Static dielectric constant tensor:
#      x y z
#    x 1.994090 -0.000650 -0.000240 
#    y -0.000650 2.158040 -0.002570 
#    z -0.000240 -0.002570 1.973730 
# 
# From -- ./inp_files/6975.got.cif
#   From: 2010.05.17/outbox.cif.g08.bks.cpg/sg1_4_cif.got.tgz:6975.got - 2010.05.17 20:27:59.
