data_PCOD9000645
_publ_section_title
;
Structure prediction by ZEFSAII (Michael W. Deem and Ramdas Pophale) SiO2 
 PCOD9000645
Probable space group: P 1
;
_chemical_formula_sum "Si O2"
_cell_formula_units_Z 8
_cell_length_a 8.510807
_cell_length_b 7.000609
_cell_length_c 7.269702
_cell_angle_alpha 119.494630
_cell_angle_beta 59.665511
_cell_angle_gamma 120.574905
_cell_volume 305.276246
_symmetry_space_group_name_H-M "P 1"
_symmetry_group_IT_number 1
_symmetry_cell_setting 'triclinic'
loop_
_space_group_symop_operation_xyz
x,y,z
loop_
_atom_site_type_symbol
_atom_site_label
_atom_site_fract_x
_atom_site_fract_y
_atom_site_fract_z
Si Si1 0.828610 0.913330 0.956970
Si Si2 0.176902 0.871232 0.530748
Si Si3 0.604347 0.066103 0.416873
Si Si4 0.255989 0.408911 0.621440
Si Si5 0.058533 0.702890 0.116362
Si Si6 0.513472 0.462873 0.800033
Si Si7 0.288824 0.236888 0.139855
Si Si8 0.691013 0.286071 0.087720
O O1 0.631995 0.697062 0.941932
O O2 0.002401 0.824353 0.758120
O O3 0.792270 0.999265 0.224285
O O4 0.818195 0.115381 0.915732
O O5 0.386803 0.889128 0.499583
O O6 0.116363 0.717691 0.307238
O O7 0.201592 0.136202 0.578901
O O8 0.635571 0.288819 0.630930
O O9 0.578463 0.163846 0.278410
O O10 0.465345 0.525571 0.652532
O O11 0.242422 0.391670 0.400688
O O12 0.141680 0.551923 0.859574
O O13 0.830096 0.550734 0.163751
O O14 0.154481 0.970184 0.119694
O O15 0.309849 0.335958 0.967867
O O16 0.513892 0.261167 0.048674
#
# Coordination Sequence:
#
# PCOD9000645 Si02
#       8
#     1   1   1   1   1   1   1   1
#     4  10  20  36  63  91 118 162 210 247 302 375
#     4  10  18  33  63  93 116 155 211 250 297 370
#     4   9  19  38  60  91 121 155 207 253 301 363
#     4  10  19  41  63  86 117 165 205 248 308 364
#     4  11  20  38  65  88 123 166 200 258 311 359
#     4  11  21  38  66  86 125 163 199 259 312 357
#     4  11  24  40  60  95 124 157 210 253 308 372
#     4  10  19  40  62  88 124 161 206 250 307 366
#
# _framework density 26.205772
#
# number of rings (size 3 to 8) (size 9 to 14) (size 15 to 20)
#    0.750    1.000    5.000    2.250    0.000    1.000 
#    4.500    0.000    8.250    0.000    0.000    0.000 
#    0.000    0.000    0.000    0.000    0.000    0.000 
#
# Total GULP energy -44600.936006 kJ/mol
# GULP energy per Si atom -5575.117001 kJ/mol
# Density = 2.614613 g / cm^3
# Si number density = 26.205772 Si / 1000 Ang^3
#
#
#
# Elastic Constant Matrix: (Units=GPa)
#
#
# Indices 1 2 3 4 5 6 
#
# 1 73.0073 23.9971 33.5046 3.8791 -7.4368 15.1875
# 2 23.9971 146.5186 27.1358 19.7490 -9.6005 8.9769
# 3 33.5046 27.1358 194.8988 13.0119 -18.9744 0.7042
# 4 3.8791 19.7490 13.0119 34.1273 9.4378 -8.2517
# 5 -7.4368 -9.6005 -18.9744 9.4378 41.4926 -7.9365
# 6 15.1875 8.9769 0.7042 -8.2517 -7.9365 25.1458
#
#
#
# Elastic Compliance Matrix: (Units=1/GPa)
#
#
# Indices 1 2 3 4 5 6 
#
# 1 0.017838 -0.001331 -0.002615 -0.003023 0.000251 -0.011138
# 2 -0.001331 0.008253 -0.000292 -0.005951 0.002245 -0.003379
# 3 -0.002615 -0.000292 0.006068 -0.002281 0.003090 0.001740
# 4 -0.003023 -0.005951 -0.002281 0.039972 -0.009341 0.014183
# 5 0.000251 0.002245 0.003090 -0.009341 0.029179 0.005105
# 6 -0.011138 -0.003379 0.001740 0.014183 0.005105 0.053918
#
#
# Mechanical properties :
#
#
# Convention : Reuss Voigt Hill
#
# Bulk Modulus (GPa) = 42.22388 64.85554 53.53971
# Shear Modulus (GPa) = 29.13774 42.13895 35.63835
#
# Velocity S-wave (km/s) = 3.33811 4.01434 3.69174
# Velocity P-wave (km/s) = 5.56819 6.80359 6.21665
#
# Compressibility (1/GPa) = 0.02368328
#
# Stress axis : x y z
#
# Youngs Moduli (GPa) = 56.06053 121.16162 164.80174
#
# Poissons Ratio (x) = 0.16127 0.43091
# Poissons Ratio (y) = 0.07462 0.04816
# Poissons Ratio (z) = 0.14658 0.03541
#
# Static dielectric constant tensor:
#      x y z
#    x 2.193210 -0.046420 -0.073800 
#    y -0.046420 2.022440 -0.030900 
#    z -0.073800 -0.030900 2.098370 
# 
# From -- ./inp_files/5415.got.cif
#   From: 2010.05.17/outbox.cif.g08.bks.cpg/sg1_3_cif.got.tgz:5415.got - 2010.05.17 20:27:59.
