data_PCOD9000308
_publ_section_title
;
Structure prediction by ZEFSAII (Michael W. Deem and Ramdas Pophale) SiO2 
 PCOD9000308
Probable space group: P 1
;
_chemical_formula_sum "Si O2"
_cell_formula_units_Z 8
_cell_length_a 7.033500
_cell_length_b 8.925801
_cell_length_c 7.290968
_cell_angle_alpha 74.833569
_cell_angle_beta 57.676094
_cell_angle_gamma 52.851933
_cell_volume 307.027130
_symmetry_space_group_name_H-M "P 1"
_symmetry_group_IT_number 1
_symmetry_cell_setting 'triclinic'
loop_
_space_group_symop_operation_xyz
x,y,z
loop_
_atom_site_type_symbol
_atom_site_label
_atom_site_fract_x
_atom_site_fract_y
_atom_site_fract_z
Si Si1 0.825250 0.177660 0.304220
Si Si2 0.090439 0.464361 0.563368
Si Si3 0.979463 0.854101 0.598330
Si Si4 0.870247 0.920592 0.069385
Si Si5 0.662047 0.440662 0.624571
Si Si6 0.390328 0.533388 0.082186
Si Si7 0.969473 0.405413 0.009348
Si Si8 0.577451 0.740816 0.348334
O O1 0.648261 0.368583 0.457085
O O2 0.825414 0.033337 0.488659
O O3 0.801468 0.109961 0.138842
O O4 0.062402 0.212012 0.124485
O O5 0.940295 0.688564 0.622839
O O6 0.960598 0.358161 0.576361
O O7 0.166977 0.378022 0.754840
O O8 0.286465 0.452458 0.309708
O O9 0.291454 0.786189 0.410566
O O10 0.919465 0.902520 0.830408
O O11 0.619405 0.905621 0.258091
O O12 0.144697 0.748690 0.087632
O O13 0.479351 0.431141 0.872307
O O14 0.579004 0.654500 0.571379
O O15 0.674623 0.493182 0.026337
O O16 0.859972 0.573178 0.157939
#
# Coordination Sequence:
#
# PCOD9000308 Si02
#       8
#     1   1   1   1   1   1   1   1
#     4  11  26  48  64 103 152 168 222 299 346 388
#     4  11  21  42  73  98 131 184 236 266 334 413
#     4  12  24  43  72 103 138 183 225 285 340 408
#     4  12  24  43  72 103 138 183 225 285 340 408
#     4  10  23  41  69  99 138 177 226 284 332 408
#     4  11  21  42  73  98 131 184 236 266 334 413
#     4  10  23  41  69  99 138 177 226 284 332 408
#     4  11  20  42  68  99 128 184 234 261 334 420
#
# _framework density 26.056327
#
# number of rings (size 3 to 8) (size 9 to 14) (size 15 to 20)
#    0.000    1.000    6.250    0.000    3.500    0.000 
#    2.250    2.500    0.000    0.000    0.000    0.000 
#    0.000    0.000    0.000    0.000    0.000    0.000 
#
# Total GULP energy -44563.508966 kJ/mol
# GULP energy per Si atom -5570.438621 kJ/mol
# Density = 2.599702 g / cm^3
# Si number density = 26.056327 Si / 1000 Ang^3
#
#
#
# Elastic Constant Matrix: (Units=GPa)
#
#
# Indices 1 2 3 4 5 6 
#
# 1 95.5645 23.5529 40.5516 18.1797 8.8891 20.6454
# 2 23.5529 87.0318 37.8736 -0.4638 3.9938 20.6966
# 3 40.5516 37.8736 212.6059 -9.3049 26.4981 16.4351
# 4 18.1797 -0.4638 -9.3049 40.4974 5.2555 4.9751
# 5 8.8891 3.9938 26.4981 5.2555 36.2151 1.9287
# 6 20.6454 20.6966 16.4351 4.9751 1.9287 35.9572
#
#
#
# Elastic Compliance Matrix: (Units=1/GPa)
#
#
# Indices 1 2 3 4 5 6 
#
# 1 0.014169 -0.001619 -0.002211 -0.006169 -0.000504 -0.005313
# 2 -0.001619 0.014249 -0.001684 0.001296 0.000226 -0.006694
# 3 -0.002211 -0.001684 0.006134 0.003015 -0.004157 -0.000759
# 4 -0.006169 0.001296 0.003015 0.029098 -0.004933 -0.002343
# 5 -0.000504 0.000226 -0.004157 -0.004933 0.031413 0.001057
# 6 -0.005313 -0.006694 -0.000759 -0.002343 0.001057 0.035329
#
#
# Mechanical properties :
#
#
# Convention : Reuss Voigt Hill
#
# Bulk Modulus (GPa) = 42.50603 66.57314 54.53958
# Shear Modulus (GPa) = 33.49843 42.08223 37.79033
#
# Velocity S-wave (km/s) = 3.58944 4.02313 3.81245
# Velocity P-wave (km/s) = 5.79028 6.86920 6.35268
#
# Compressibility (1/GPa) = 0.02352607
#
# Stress axis : x y z
#
# Youngs Moduli (GPa) = 70.57444 70.17925 163.02849
#
# Poissons Ratio (x) = 0.11361 0.36042
# Poissons Ratio (y) = 0.11425 0.27447
# Poissons Ratio (z) = 0.15603 0.11815
#
# Static dielectric constant tensor:
#      x y z
#    x 2.275680 -0.075040 -0.067460 
#    y -0.075040 2.100600 0.027690 
#    z -0.067460 0.027690 2.036420 
# 
# From -- ./inp_files/4458.got.cif
#   From: 2010.05.17/outbox.cif.g08.bks.cpg/sg1_3_cif.got.tgz:4458.got - 2010.05.17 20:27:59.
