data_PCOD9000544
_publ_section_title
;
Structure prediction by ZEFSAII (Michael W. Deem and Ramdas Pophale) SiO2 
 PCOD9000544
Probable space group: P 1
;
_chemical_formula_sum "Si O2"
_cell_formula_units_Z 8
_cell_length_a 7.128780
_cell_length_b 11.680791
_cell_length_c 16.191517
_cell_angle_alpha 152.900685
_cell_angle_beta 135.445608
_cell_angle_gamma 51.957822
_cell_volume 430.207800
_symmetry_space_group_name_H-M "P 1"
_symmetry_group_IT_number 1
_symmetry_cell_setting 'triclinic'
loop_
_space_group_symop_operation_xyz
x,y,z
loop_
_atom_site_type_symbol
_atom_site_label
_atom_site_fract_x
_atom_site_fract_y
_atom_site_fract_z
Si Si1 0.602850 0.702240 0.585440
Si Si2 0.124917 0.525986 0.931255
Si Si3 0.627179 0.495761 0.639995
Si Si4 0.635582 0.249962 0.894196
Si Si5 0.040225 0.479520 0.467717
Si Si6 0.352299 0.081084 0.381354
Si Si7 0.791531 0.148140 0.693245
Si Si8 0.989788 0.606863 0.350225
O O1 0.673419 0.568143 0.606822
O O2 0.805157 0.619817 0.526078
O O3 0.291611 0.627208 0.423745
O O4 0.624588 0.003780 0.790255
O O5 0.340104 0.342908 0.844901
O O6 0.884528 0.575173 0.824962
O O7 0.987004 0.376443 0.868374
O O8 0.281103 0.787655 0.169862
O O9 0.343729 0.612042 0.652044
O O10 0.552194 0.200261 0.448727
O O11 0.759234 0.173129 0.796560
O O12 0.800843 0.471252 0.136288
O O13 0.987830 0.449981 0.334826
O O14 0.085913 0.225127 0.369361
O O15 0.506607 0.161581 0.565203
O O16 0.902283 0.883314 0.527547
#
# Coordination Sequence:
#
# PCOD9000544 Si02
#       8
#     1   1   1   1   1   1   1   1
#     4  11  22  42  65  93 127 172 204 262 319 363
#     4  11  22  42  65  93 127 172 204 262 319 363
#     4   8  22  38  64  90 124 164 214 258 304 374
#     4  12  26  38  70  96 122 174 208 252 324 378
#     4   9  21  43  62  88 132 165 203 270 304 364
#     4   9  21  43  62  88 132 165 203 270 304 364
#     4  11  23  44  61  95 134 159 216 260 304 380
#     4  11  23  44  61  95 134 159 216 260 304 380
#
# _framework density 18.595666000000001
#
# number of rings (size 3 to 8) (size 9 to 14) (size 15 to 20)
#    0.750    1.000    3.750    0.000    3.500    2.000 
#    4.500    0.000    0.000    0.000    0.000    0.000 
#    0.000    0.000    0.000    0.000    0.000    0.000 
#
# Total GULP energy -44549.459592 kJ/mol
# GULP energy per Si atom -5568.682449 kJ/mol
# Density = 1.855334 g / cm^3
# Si number density = 18.595666 Si / 1000 Ang^3
#
#
#
# Elastic Constant Matrix: (Units=GPa)
#
#
# Indices 1 2 3 4 5 6 
#
# 1 104.7763 33.5874 52.8943 -10.3549 2.0985 -3.3441
# 2 33.5874 81.0233 39.2450 -7.9580 -3.7920 5.9338
# 3 52.8943 39.2450 95.8192 1.1222 7.5818 10.6120
# 4 -10.3549 -7.9580 1.1222 29.6960 -0.1158 2.1291
# 5 2.0985 -3.7920 7.5818 -0.1158 17.7808 4.4252
# 6 -3.3441 5.9338 10.6120 2.1291 4.4252 30.6215
#
#
#
# Elastic Compliance Matrix: (Units=1/GPa)
#
#
# Indices 1 2 3 4 5 6 
#
# 1 0.014782 -0.002231 -0.007792 0.004534 0.000030 0.004427
# 2 -0.002231 0.017203 -0.006130 0.004293 0.007271 -0.002802
# 3 -0.007792 -0.006130 0.018383 -0.004746 -0.007093 -0.004679
# 4 0.004534 0.004293 -0.004746 0.036718 0.003064 -0.001688
# 5 0.000030 0.007271 -0.007093 0.003064 0.062885 -0.008248
# 6 0.004427 -0.002802 -0.004679 -0.001688 -0.008248 0.036614
#
#
# Mechanical properties :
#
#
# Convention : Reuss Voigt Hill
#
# Bulk Modulus (GPa) = 55.36199 59.23025 57.29612
# Shear Modulus (GPa) = 22.23102 26.01247 24.12175
#
# Velocity S-wave (km/s) = 3.46134 3.74417 3.60553
# Velocity P-wave (km/s) = 6.76835 7.11425 6.94346
#
# Compressibility (1/GPa) = 0.01806294
#
# Stress axis : x y z
#
# Youngs Moduli (GPa) = 67.65159 58.12881 54.39789
#
# Poissons Ratio (x) = 0.12969 0.42386
# Poissons Ratio (y) = 0.15094 0.33344
# Poissons Ratio (z) = 0.52713 0.35631
#
# Static dielectric constant tensor:
#      x y z
#    x 1.629510 -0.008510 0.014320 
#    y -0.008510 1.680760 0.010050 
#    z 0.014320 0.010050 1.616130 
# 
# From -- ./inp_files/2489.got.cif
#   From: 2010.05.17/outbox.cif.g08.bks.cpg/sg1_2_cif.got.tgz:2489.got - 2010.05.17 20:27:59.
