data_PCOD9000831
_publ_section_title
;
Structure prediction by ZEFSAII (Michael W. Deem and Ramdas Pophale) SiO2 
 PCOD9000831
Probable space group: P 1
;
_chemical_formula_sum "Si O2"
_cell_formula_units_Z 8
_cell_length_a 13.472445
_cell_length_b 14.035803
_cell_length_c 11.454218
_cell_angle_alpha 34.228898
_cell_angle_beta 148.939182
_cell_angle_gamma 159.355226
_cell_volume 390.212411
_symmetry_space_group_name_H-M "P 1"
_symmetry_group_IT_number 1
_symmetry_cell_setting 'triclinic'
loop_
_space_group_symop_operation_xyz
x,y,z
loop_
_atom_site_type_symbol
_atom_site_label
_atom_site_fract_x
_atom_site_fract_y
_atom_site_fract_z
Si Si1 0.511410 0.292950 0.896500
Si Si2 0.700791 0.206405 0.960186
Si Si3 0.373068 0.166238 0.138720
Si Si4 0.057224 0.448458 0.852707
Si Si5 0.649858 0.729454 0.835847
Si Si6 0.542018 0.964143 0.664333
Si Si7 0.816943 0.837885 0.643582
Si Si8 0.373850 0.629949 0.204585
O O1 0.548041 0.216034 0.893084
O O2 0.793696 0.619126 0.857710
O O3 0.493142 0.190344 0.107146
O O4 0.169807 0.141785 0.695803
O O5 0.817202 0.358830 0.798355
O O6 0.034570 0.380056 0.173498
O O7 0.475436 0.895032 0.024409
O O8 0.500570 0.119226 0.406650
O O9 0.463604 0.427138 0.976758
O O10 0.003284 0.915205 0.022764
O O11 0.853896 0.189814 0.827027
O O12 0.249311 0.715944 0.701967
O O13 0.301656 0.518264 0.113167
O O14 0.634625 0.776401 0.636700
O O15 0.563775 0.826527 0.732805
O O16 0.639701 0.742510 0.440518
#
# Coordination Sequence:
#
# PCOD9000831 Si02
#       8
#     1   1   1   1   1   1   1   1
#     4  10  21  38  61  92 129 152 195 262 324 373
#     4  10  20  38  62  84 125 154 202 258 298 365
#     4  10  23  42  62  98 128 157 213 265 306 384
#     4  10  22  40  60  90 122 160 222 252 284 396
#     4  10  23  42  62  98 128 157 213 265 306 384
#     4  12  22  42  70  84 126 182 204 250 332 350
#     4  10  21  38  61  92 129 152 195 262 324 373
#     4  10  20  38  62  84 125 154 202 258 298 365
#
# _framework density 20.501653999999998
#
# number of rings (size 3 to 8) (size 9 to 14) (size 15 to 20)
#    0.750    1.000    1.250    3.000    1.750    0.000 
#    2.250    5.000    0.000    0.000    0.000    0.000 
#    0.000    0.000    0.000    0.000    0.000    0.000 
#
# Total GULP energy -44542.142457 kJ/mol
# GULP energy per Si atom -5567.767807 kJ/mol
# Density = 2.045499 g / cm^3
# Si number density = 20.501654 Si / 1000 Ang^3
#
#
#
# Elastic Constant Matrix: (Units=GPa)
#
#
# Indices 1 2 3 4 5 6 
#
# 1 -114.6978 -18.3241 -8.7910 -10.5993 -6.5490 58.8283
# 2 -18.3241 107.5078 4.1752 -3.5030 -4.9425 -3.5185
# 3 -8.7910 4.1752 49.4534 -0.2884 -15.9299 6.4517
# 4 -10.5993 -3.5030 -0.2884 22.7202 -3.0831 -7.1898
# 5 -6.5490 -4.9425 -15.9299 -3.0831 16.6716 -1.8465
# 6 58.8283 -3.5185 6.4517 -7.1898 -1.8465 0.7603
#
#
#
# Elastic Compliance Matrix: (Units=1/GPa)
#
#
# Indices 1 2 3 4 5 6 
#
# 1 0.001017 0.001303 -0.001663 0.007646 0.002919 0.020842
# 2 0.001303 0.010179 0.000231 0.005243 0.005529 0.007306
# 3 -0.001663 0.000231 0.028265 0.005007 0.027909 0.005061
# 4 0.007646 0.005243 0.005007 0.061565 0.024169 0.031071
# 5 0.002919 0.005529 0.027909 0.024169 0.096864 0.026721
# 6 0.020842 0.007306 0.005061 0.031071 0.026721 0.052240
#
#
# Mechanical properties :
#
#
# Convention : Reuss Voigt Hill
#
# Bulk Modulus (GPa) = 25.50899 -0.40184 12.55358
# Shear Modulus (GPa) = 18.97854 12.37730 15.67792
#
# Velocity S-wave (km/s) = 3.04584 2.45974 2.76835
# Velocity P-wave (km/s) = 4.98387 2.80547 4.04411
#
# Compressibility (1/GPa) = 0.03920186
#
# Stress axis : x y z
#
# Youngs Moduli (GPa) = 983.19516 98.24170 35.37978
#
# Poissons Ratio (x) = -0.12805 0.05885
# Poissons Ratio (y) = -1.28147 -0.00816
# Poissons Ratio (z) = 1.63553 -0.02266
#
# Static dielectric constant tensor:
#      x y z
#    x 1.756650 -0.000250 -0.016390 
#    y -0.000250 1.731100 0.037400 
#    z -0.016390 0.037400 1.809630 
# 
# From -- ./inp_files/6113.got.cif
#   From: 2010.05.17/outbox.cif.g08.bks.cpg/sg1_4_cif.got.tgz:6113.got - 2010.05.17 20:27:59.
