data_PCOD9000105
_publ_section_title
;
Structure prediction by ZEFSAII (Michael W. Deem and Ramdas Pophale) SiO2 
 PCOD9000105
Probable space group: P 1
;
_chemical_formula_sum "Si O2"
_cell_formula_units_Z 8
_cell_length_a 12.232474
_cell_length_b 9.430166
_cell_length_c 4.964135
_cell_angle_alpha 79.777847
_cell_angle_beta 68.993896
_cell_angle_gamma 36.659787
_cell_volume 312.888162
_symmetry_space_group_name_H-M "P 1"
_symmetry_group_IT_number 1
_symmetry_cell_setting 'triclinic'
loop_
_space_group_symop_operation_xyz
x,y,z
loop_
_atom_site_type_symbol
_atom_site_label
_atom_site_fract_x
_atom_site_fract_y
_atom_site_fract_z
Si Si1 0.295480 0.486560 0.996310
Si Si2 0.356531 0.836327 0.236248
Si Si3 0.320149 0.278787 0.542519
Si Si4 0.161651 0.903850 0.902982
Si Si5 0.055656 0.366655 0.374143
Si Si6 0.796407 0.365306 0.802282
Si Si7 0.772729 0.886195 0.207901
Si Si8 0.740546 0.116011 0.667323
O O1 0.309714 0.335219 0.840757
O O2 0.150057 0.746001 0.912265
O O3 0.506460 0.352724 0.838546
O O4 0.262450 0.469589 0.334040
O O5 0.306283 0.841470 0.584933
O O6 0.241066 0.097125 0.173699
O O7 0.247026 0.829186 0.149705
O O8 0.582893 0.608923 0.030482
O O9 0.163573 0.316418 0.568602
O O10 0.554384 0.027002 0.356900
O O11 0.950309 0.182647 0.966146
O O12 0.889535 0.410778 0.559072
O O13 0.937866 0.610861 0.249475
O O14 0.806229 0.210809 0.662396
O O15 0.766378 0.025989 0.377270
O O16 0.808487 0.921280 0.874238
#
# Coordination Sequence:
#
# PCOD9000105 Si02
#       8
#     1   1   1   1   1   1   1   1
#     4  10  21  44  72 103 146 185 242 306 366 421
#     4  11  27  48  71 108 152 193 248 302 366 448
#     4  10  24  43  70 104 145 192 240 301 356 446
#     4  11  25  44  74 110 143 194 242 304 376 428
#     4  11  28  49  76 110 153 206 242 297 383 455
#     4  11  27  47  78 111 152 193 250 311 371 443
#     4  10  25  46  74 105 145 194 248 301 369 434
#     4  10  23  45  75 109 142 187 248 316 361 423
#
# _framework density 25.568241
#
# number of rings (size 3 to 8) (size 9 to 14) (size 15 to 20)
#    0.000    1.500    1.250    0.750    7.000   14.000 
#    0.000    0.000    0.000    0.000    0.000    0.000 
#    0.000    0.000    0.000    0.000    0.000    0.000 
#
# Total GULP energy -44796.193504 kJ/mol
# GULP energy per Si atom -5599.524188 kJ/mol
# Density = 2.551005 g / cm^3
# Si number density = 25.568241 Si / 1000 Ang^3
#
#
#
# Elastic Constant Matrix: (Units=GPa)
#
#
# Indices 1 2 3 4 5 6 
#
# 1 137.5027 27.2852 23.8342 13.3346 -16.3715 -16.4409
# 2 27.2852 140.6143 20.4412 17.1154 -20.8913 -13.7816
# 3 23.8342 20.4412 79.2631 2.6626 -3.4042 -8.2823
# 4 13.3346 17.1154 2.6626 31.2355 -8.2705 -1.6016
# 5 -16.3715 -20.8913 -3.4042 -8.2705 37.2472 5.8286
# 6 -16.4409 -13.7816 -8.2823 -1.6016 5.8286 40.6244
#
#
#
# Elastic Compliance Matrix: (Units=1/GPa)
#
#
# Indices 1 2 3 4 5 6 
#
# 1 0.008526 -0.000472 -0.002002 -0.002457 0.002372 0.002445
# 2 -0.000472 0.008522 -0.001614 -0.003338 0.003410 0.001750
# 3 -0.002002 -0.001614 0.013753 0.000470 -0.000668 0.001560
# 4 -0.002457 -0.003338 0.000470 0.036197 0.005343 -0.001370
# 5 0.002372 0.003410 -0.000668 0.005343 0.031287 -0.002298
# 6 0.002445 0.001750 0.001560 -0.001370 -0.002298 0.026793
#
#
# Mechanical properties :
#
#
# Convention : Reuss Voigt Hill
#
# Bulk Modulus (GPa) = 44.20056 55.61123 49.90589
# Shear Modulus (GPa) = 35.51179 40.87607 38.19393
#
# Velocity S-wave (km/s) = 3.73084 4.00272 3.86917
# Velocity P-wave (km/s) = 5.99030 6.56960 6.28663
#
# Compressibility (1/GPa) = 0.02262415
#
# Stress axis : x y z
#
# Youngs Moduli (GPa) = 117.28329 117.33756 72.71072
#
# Poissons Ratio (x) = 0.05543 0.14558
# Poissons Ratio (y) = 0.05540 0.11738
# Poissons Ratio (z) = 0.23482 0.18943
#
# Static dielectric constant tensor:
#      x y z
#    x 2.069550 0.036470 0.003270 
#    y 0.036470 2.018920 0.051280 
#    z 0.003270 0.051280 1.993750 
# 
# From -- ./inp_files/2209.got.cif
#   From: 2010.05.17/outbox.cif.g08.bks.cpg/sg1_2_cif.got.tgz:2209.got - 2010.05.17 20:27:59.
