data_PCOD9000951
_publ_section_title
;
Structure prediction by ZEFSAII (Michael W. Deem and Ramdas Pophale) SiO2 
 PCOD9000951
Probable space group: P 1
;
_chemical_formula_sum "Si O2"
_cell_formula_units_Z 8
_cell_length_a 10.067754
_cell_length_b 8.381863
_cell_length_c 5.672951
_cell_angle_alpha 57.297706
_cell_angle_beta 102.845036
_cell_angle_gamma 86.944314
_cell_volume 383.882971
_symmetry_space_group_name_H-M "P 1"
_symmetry_group_IT_number 1
_symmetry_cell_setting 'triclinic'
loop_
_space_group_symop_operation_xyz
x,y,z
loop_
_atom_site_type_symbol
_atom_site_label
_atom_site_fract_x
_atom_site_fract_y
_atom_site_fract_z
Si Si1 0.845220 0.200220 0.675280
Si Si2 0.602348 0.355351 0.795810
Si Si3 0.390140 0.696652 0.195697
Si Si4 0.846031 0.467599 0.081344
Si Si5 0.325977 0.835810 0.557144
Si Si6 0.849378 0.869194 0.569912
Si Si7 0.041563 0.092383 0.220680
Si Si8 0.541995 0.976585 0.238929
O O1 0.724426 0.220834 0.801331
O O2 0.838461 0.411057 0.394580
O O3 0.817647 0.050380 0.590644
O O4 0.996587 0.125541 0.905850
O O5 0.501991 0.503784 0.467349
O O6 0.693306 0.462952 0.917486
O O7 0.526973 0.206649 0.022006
O O8 0.298622 0.736571 0.371952
O O9 0.463901 0.882023 0.081091
O O10 0.332870 0.704427 0.900023
O O11 0.960594 0.289588 0.157606
O O12 0.886445 0.667897 0.880326
O O13 0.203131 0.024418 0.386699
O O14 0.469132 0.906173 0.497251
O O15 0.704375 0.878293 0.373920
O O16 0.970782 0.917404 0.419025
#
# Coordination Sequence:
#
# PCOD9000951 Si02
#       8
#     1   1   1   1   1   1   1   1
#     4  10  22  34  68  89 132 159 213 270 321 371
#     4  11  21  39  61  99 127 164 213 267 325 377
#     4  10  25  41  66  93 131 172 214 265 318 385
#     4  10  21  37  62  95 124 164 210 266 319 385
#     4  10  25  45  66  88 137 173 215 260 325 378
#     4  11  21  38  63  96 124 161 216 264 323 375
#     4  10  23  44  59  89 128 171 209 262 321 381
#     4  10  22  38  63  97 127 166 208 270 314 380
#
# _framework density 20.839683999999998
#
# number of rings (size 3 to 8) (size 9 to 14) (size 15 to 20)
#    0.750    1.000    5.000    0.000    8.750    2.000 
#    2.250    1.250    0.000    0.000    0.000    0.000 
#    0.000    0.000    0.000    0.000    0.000    0.000 
#
# Total GULP energy -44549.129719 kJ/mol
# GULP energy per Si atom -5568.641215 kJ/mol
# Density = 2.079225 g / cm^3
# Si number density = 20.839684 Si / 1000 Ang^3
#
#
#
# Elastic Constant Matrix: (Units=GPa)
#
#
# Indices 1 2 3 4 5 6 
#
# 1 41.8160 5.0845 18.4153 -7.5994 0.8806 -10.0529
# 2 5.0845 19.1511 16.1752 -10.4822 -8.7184 0.4538
# 3 18.4153 16.1752 138.6533 -13.2849 -15.4310 -5.6837
# 4 -7.5994 -10.4822 -13.2849 40.0264 -1.1093 -5.6032
# 5 0.8806 -8.7184 -15.4310 -1.1093 29.5036 -7.4485
# 6 -10.0529 0.4538 -5.6837 -5.6032 -7.4485 15.4162
#
#
#
# Elastic Compliance Matrix: (Units=1/GPa)
#
#
# Indices 1 2 3 4 5 6 
#
# 1 0.032714 -0.000407 -0.001749 0.009380 0.005043 0.026546
# 2 -0.000407 0.079545 -0.003299 0.022871 0.027090 0.017578
# 3 -0.001749 -0.003299 0.008919 0.002723 0.005309 0.005799
# 4 0.009380 0.022871 0.002723 0.038067 0.016463 0.028237
# 5 0.005043 0.027090 0.005309 0.016463 0.054416 0.036723
# 6 0.026546 0.017578 0.005799 0.028237 0.036723 0.111804
#
#
# Mechanical properties :
#
#
# Convention : Reuss Voigt Hill
#
# Bulk Modulus (GPa) = 9.06888 30.99671 20.03280
# Shear Modulus (GPa) = 13.40011 27.65226 20.52619
#
# Velocity S-wave (km/s) = 2.53851 3.64662 3.14181
# Velocity P-wave (km/s) = 3.59906 5.71285 4.77441
#
# Compressibility (1/GPa) = 0.11026716
#
# Stress axis : x y z
#
# Youngs Moduli (GPa) = 30.56750 12.57150 112.12211
#
# Poissons Ratio (x) = 0.00512 0.19615
# Poissons Ratio (y) = 0.01245 0.36986
# Poissons Ratio (z) = 0.05347 0.04147
#
# Static dielectric constant tensor:
#      x y z
#    x 1.745650 -0.022310 -0.009390 
#    y -0.022310 1.772070 0.038510 
#    z -0.009390 0.038510 1.807330 
# 
# From -- ./inp_files/1510.got.cif
#   From: 2010.05.17/outbox.cif.g08.bks.cpg/sg1_1_cif.got.tgz:1510.got - 2010.05.17 20:27:59.
