data_PCOD9000526
_publ_section_title
;
Structure prediction by ZEFSAII (Michael W. Deem and Ramdas Pophale) SiO2 
 PCOD9000526
Probable space group: P 1
;
_chemical_formula_sum "Si O2"
_cell_formula_units_Z 8
_cell_length_a 7.574808
_cell_length_b 7.575008
_cell_length_c 11.350755
_cell_angle_alpha 75.524112
_cell_angle_beta 62.060398
_cell_angle_gamma 117.496054
_cell_volume 410.203917
_symmetry_space_group_name_H-M "P 1"
_symmetry_group_IT_number 1
_symmetry_cell_setting 'triclinic'
loop_
_space_group_symop_operation_xyz
x,y,z
loop_
_atom_site_type_symbol
_atom_site_label
_atom_site_fract_x
_atom_site_fract_y
_atom_site_fract_z
Si Si1 0.914960 0.336730 0.202500
Si Si2 0.297781 0.719575 0.202495
Si Si3 0.718237 0.467023 0.427110
Si Si4 0.132175 0.755390 0.883520
Si Si5 0.517034 0.140297 0.883526
Si Si6 0.224576 0.192932 0.810960
Si Si7 0.615298 0.795875 0.314166
Si Si8 0.121966 0.521644 0.697935
O O1 0.693487 0.291195 0.367583
O O2 0.186276 0.515925 0.168664
O O3 0.826607 0.085535 0.229811
O O4 0.956975 0.503969 0.054576
O O5 0.494381 0.753340 0.229791
O O6 0.013127 0.610844 0.367586
O O7 0.426353 0.973394 0.054579
O O8 0.109812 0.320413 0.804590
O O9 0.732408 0.667111 0.319980
O O10 0.168144 0.703499 0.751014
O O11 0.413334 0.953143 0.836518
O O12 0.028078 0.900331 0.894234
O O13 0.350616 0.222908 0.894241
O O14 0.833940 0.369377 0.751021
O O15 0.475751 0.326963 0.618373
O O16 0.365367 0.662040 0.506034
#
# Coordination Sequence:
#
# PCOD9000526 Si02
#       8
#     1   1   1   1   1   1   1   1
#     4   9  20  37  56  81 111 143 181 226 268 319
#     4   9  20  37  56  81 111 143 181 226 268 319
#     4   9  19  37  56  81 112 141 181 226 268 321
#     4   9  20  37  56  81 111 143 181 226 268 319
#     4   9  20  37  56  81 111 143 181 226 268 319
#     4   9  19  37  56  81 112 141 181 226 268 321
#     4  11  21  35  60  83 108 147 179 222 278 321
#     4  11  21  35  60  83 108 147 179 222 278 321
#
# _framework density 19.502496000000001
#
# number of rings (size 3 to 8) (size 9 to 14) (size 15 to 20)
#    1.500    1.000    0.000    2.250    0.000    4.000 
#    4.500    0.000    0.000    0.000    0.000    0.000 
#    0.000    0.000    0.000    0.000    0.000    0.000 
#
# Total GULP energy -44540.119159 kJ/mol
# GULP energy per Si atom -5567.514895 kJ/mol
# Density = 1.945811 g / cm^3
# Si number density = 19.502496 Si / 1000 Ang^3
#
#
#
# Elastic Constant Matrix: (Units=GPa)
#
#
# Indices 1 2 3 4 5 6 
#
# 1 70.8576 36.4567 7.3574 3.3215 25.0465 -11.1964
# 2 36.4567 63.9690 13.0055 -15.0476 4.3477 5.3056
# 3 7.3574 13.0055 60.3741 -5.8315 9.8621 3.9328
# 4 3.3215 -15.0476 -5.8315 -2.5079 -19.2090 13.3248
# 5 25.0465 4.3477 9.8621 -19.2090 30.3072 -1.8882
# 6 -11.1964 5.3056 3.9328 13.3248 -1.8882 18.1047
#
#
#
# Elastic Compliance Matrix: (Units=1/GPa)
#
#
# Indices 1 2 3 4 5 6 
#
# 1 0.014454 -0.003719 0.001137 0.018725 -0.000163 -0.004017
# 2 -0.003719 0.015179 -0.003333 -0.014453 -0.006937 0.003889
# 3 0.001137 -0.003333 0.018494 0.001476 -0.005795 -0.004029
# 4 0.018725 -0.014453 0.001476 -0.012721 -0.020529 0.022716
# 5 -0.000163 -0.006937 -0.005795 -0.020529 0.024298 0.020834
# 6 -0.004017 0.003889 -0.004029 0.022716 0.020834 0.037940
#
#
# Mechanical properties :
#
#
# Convention : Reuss Voigt Hill
#
# Bulk Modulus (GPa) = 27.55082 34.31555 30.93319
# Shear Modulus (GPa) = 41.12745 18.40620 29.76683
#
# Velocity S-wave (km/s) = 4.59718 3.07544 3.91104
# Velocity P-wave (km/s) = 6.50663 5.49953 6.02416
#
# Compressibility (1/GPa) = 0.03629656
#
# Stress axis : x y z
#
# Youngs Moduli (GPa) = 69.18642 65.88055 54.07044
#
# Poissons Ratio (x) = 0.24504 -0.06147
# Poissons Ratio (y) = 0.25733 0.18020
# Poissons Ratio (z) = -0.07865 0.21956
#
# Static dielectric constant tensor:
#      x y z
#    x 1.674280 0.002300 0.009700 
#    y 0.002300 1.678670 -0.005290 
#    z 0.009700 -0.005290 1.721550 
# 
# From -- ./inp_files/6303.got.cif
#   From: 2010.05.17/outbox.cif.g08.bks.cpg/sg1_4_cif.got.tgz:6303.got - 2010.05.17 20:27:59.
