data_PCOD9000414
_publ_section_title
;
Structure prediction by ZEFSAII (Michael W. Deem and Ramdas Pophale) SiO2 
 PCOD9000414
Probable space group: P 1
;
_chemical_formula_sum "Si O2"
_cell_formula_units_Z 8
_cell_length_a 8.024848
_cell_length_b 8.831676
_cell_length_c 11.899279
_cell_angle_alpha 26.244362
_cell_angle_beta 104.822071
_cell_angle_gamma 110.117562
_cell_volume 347.341969
_symmetry_space_group_name_H-M "P 1"
_symmetry_group_IT_number 1
_symmetry_cell_setting 'triclinic'
loop_
_space_group_symop_operation_xyz
x,y,z
loop_
_atom_site_type_symbol
_atom_site_label
_atom_site_fract_x
_atom_site_fract_y
_atom_site_fract_z
Si Si1 0.698870 0.567730 0.070110
Si Si2 0.303674 0.272606 0.236775
Si Si3 0.005007 0.360216 0.983401
Si Si4 0.489751 0.345783 0.798326
Si Si5 0.769208 0.577876 0.491588
Si Si6 0.542908 0.632716 0.223127
Si Si7 0.769851 0.858867 0.646404
Si Si8 0.129495 0.451135 0.708196
O O1 0.490501 0.377158 0.131694
O O2 0.666913 0.772461 0.041863
O O3 0.782667 0.252280 0.339255
O O4 0.784593 0.788554 0.829317
O O5 0.368183 0.380631 0.302790
O O6 0.214214 0.861284 0.480718
O O7 0.160125 0.456912 0.038332
O O8 0.086662 0.260154 0.948180
O O9 0.915167 0.680350 0.735504
O O10 0.851352 0.007794 0.222971
O O11 0.625050 0.485233 0.626999
O O12 0.576788 0.608433 0.739525
O O13 0.285397 0.337451 0.746725
O O14 0.497589 0.941900 0.080851
O O15 0.659140 0.456183 0.439951
O O16 0.943498 0.433235 0.628327
#
# Coordination Sequence:
#
# PCOD9000414 Si02
#       8
#     1   1   1   1   1   1   1   1
#     4  10  25  43  68 102 137 192 233 291 355 431
#     4   9  23  40  64  96 140 186 227 294 351 420
#     4  11  23  41  70 101 143 179 251 296 347 429
#     4  12  23  41  75 100 140 188 240 292 364 423
#     4  11  23  43  67 105 142 183 238 296 359 423
#     4  10  24  43  66 101 146 183 229 300 369 420
#     4  12  22  43  72 104 134 191 246 284 357 426
#     4  11  23  42  70 101 136 188 242 297 346 436
#
# _framework density 23.032056999999998
#
# number of rings (size 3 to 8) (size 9 to 14) (size 15 to 20)
#    0.750    0.500    3.750    1.500    3.500    3.000 
#    2.250    1.250    0.000    0.000    0.000    0.000 
#    0.000    0.000    0.000    0.000    0.000    0.000 
#
# Total GULP energy -44668.697353 kJ/mol
# GULP energy per Si atom -5583.587169 kJ/mol
# Density = 2.297963 g / cm^3
# Si number density = 23.032057 Si / 1000 Ang^3
#
#
#
# Elastic Constant Matrix: (Units=GPa)
#
#
# Indices 1 2 3 4 5 6 
#
# 1 136.4860 13.5839 50.1260 16.8835 31.8085 13.0779
# 2 13.5839 66.1449 31.9478 29.2691 22.7580 21.3509
# 3 50.1260 31.9478 83.9055 9.6264 20.3070 4.9938
# 4 16.8835 29.2691 9.6264 42.9720 -0.7293 6.8810
# 5 31.8085 22.7580 20.3070 -0.7293 38.7784 9.6607
# 6 13.0779 21.3509 4.9938 6.8810 9.6607 40.3936
#
#
#
# Elastic Compliance Matrix: (Units=1/GPa)
#
#
# Indices 1 2 3 4 5 6 
#
# 1 0.014288 0.012684 -0.008385 -0.011808 -0.013750 -0.004993
# 2 0.012684 0.049028 -0.014700 -0.033025 -0.028153 -0.015845
# 3 -0.008385 -0.014700 0.020427 0.007865 0.003516 0.005778
# 4 -0.011808 -0.033025 0.007865 0.048043 0.024278 0.006316
# 5 -0.013750 -0.028153 0.003516 0.024278 0.051601 0.002421
# 6 -0.004993 -0.015845 0.005778 0.006316 0.002421 0.032379
#
#
# Mechanical properties :
#
#
# Convention : Reuss Voigt Hill
#
# Bulk Modulus (GPa) = 15.88796 53.09463 34.49130
# Shear Modulus (GPa) = 19.41384 37.15404 28.28394
#
# Velocity S-wave (km/s) = 2.90643 4.02075 3.50812
# Velocity P-wave (km/s) = 4.26337 6.68265 5.60509
#
# Compressibility (1/GPa) = 0.06294074
#
# Stress axis : x y z
#
# Youngs Moduli (GPa) = 69.99055 20.39651 48.95390
#
# Poissons Ratio (x) = -0.25870 0.41049
# Poissons Ratio (y) = -0.88774 0.71960
# Poissons Ratio (z) = 0.58689 0.29982
#
# Static dielectric constant tensor:
#      x y z
#    x 1.875740 -0.021950 0.013530 
#    y -0.021950 1.887110 0.017740 
#    z 0.013530 0.017740 1.905960 
# 
# From -- ./inp_files/6411.got.cif
#   From: 2010.05.17/outbox.cif.g08.bks.cpg/sg1_4_cif.got.tgz:6411.got - 2010.05.17 20:27:59.
