data_PCOD9000745
_publ_section_title
;
Structure prediction by ZEFSAII (Michael W. Deem and Ramdas Pophale) SiO2 
 PCOD9000745
Probable space group: P 1
;
_chemical_formula_sum "Si O2"
_cell_formula_units_Z 8
_cell_length_a 12.494947
_cell_length_b 8.995785
_cell_length_c 9.004136
_cell_angle_alpha 131.174086
_cell_angle_beta 37.152443
_cell_angle_gamma 146.360137
_cell_volume 338.564992
_symmetry_space_group_name_H-M "P 1"
_symmetry_group_IT_number 1
_symmetry_cell_setting 'triclinic'
loop_
_space_group_symop_operation_xyz
x,y,z
loop_
_atom_site_type_symbol
_atom_site_label
_atom_site_fract_x
_atom_site_fract_y
_atom_site_fract_z
Si Si1 0.522140 0.681830 0.705340
Si Si2 0.847021 0.407140 0.144805
Si Si3 0.151709 0.051680 0.709839
Si Si4 0.090060 0.900171 0.019419
Si Si5 0.233197 0.434109 0.272359
Si Si6 0.332664 0.699611 0.652625
Si Si7 0.117212 0.636752 0.288370
Si Si8 0.719201 0.907892 0.920233
O O1 0.386912 0.369141 0.661554
O O2 0.536896 0.758487 0.567747
O O3 0.746925 0.879137 0.696608
O O4 0.334926 0.703572 0.997118
O O5 0.076720 0.459597 0.856760
O O6 0.651902 0.088425 0.138904
O O7 0.865701 0.612640 0.153504
O O8 0.904563 0.497666 0.311146
O O9 0.085923 0.926097 0.864364
O O10 0.173435 0.888845 0.463902
O O11 0.928996 0.009538 0.866773
O O12 0.317281 0.925528 0.816534
O O13 0.124678 0.136885 0.209963
O O14 0.302069 0.591694 0.452396
O O15 0.075226 0.453278 0.350322
O O16 0.488548 0.604436 0.019698
#
# Coordination Sequence:
#
# PCOD9000745 Si02
#       8
#     1   1   1   1   1   1   1   1
#     4  10  22  42  65  89 129 164 207 256 311 372
#     4   9  20  40  61  94 123 162 207 254 304 373
#     4  12  20  41  65  93 127 165 204 258 315 365
#     4  10  20  38  64  90 122 163 207 247 310 368
#     4  11  21  39  66  91 124 166 207 253 312 366
#     4   9  20  40  64  88 124 167 200 253 317 360
#     4  10  19  38  64  88 121 177 190 250 317 372
#     4  11  22  42  63  95 126 162 210 261 300 374
#
# _framework density 23.629138999999999
#
# number of rings (size 3 to 8) (size 9 to 14) (size 15 to 20)
#    0.750    1.000    6.250    0.000    1.750    0.000 
#    9.000    3.750    0.000    0.000    0.000    0.000 
#    0.000    0.000    0.000    0.000    0.000    0.000 
#
# Total GULP energy -44639.617883 kJ/mol
# GULP energy per Si atom -5579.952235 kJ/mol
# Density = 2.357536 g / cm^3
# Si number density = 23.629139 Si / 1000 Ang^3
#
#
#
# Elastic Constant Matrix: (Units=GPa)
#
#
# Indices 1 2 3 4 5 6 
#
# 1 160.8747 49.8530 21.1250 7.8837 36.0468 -25.3795
# 2 49.8530 101.3984 35.8734 30.8310 1.5286 -17.9990
# 3 21.1250 35.8734 89.9542 23.2824 26.8929 -11.9393
# 4 7.8837 30.8310 23.2824 40.6014 -0.0410 -5.5697
# 5 36.0468 1.5286 26.8929 -0.0410 41.0045 7.5589
# 6 -25.3795 -17.9990 -11.9393 -5.5697 7.5589 34.2238
#
#
#
# Elastic Compliance Matrix: (Units=1/GPa)
#
#
# Indices 1 2 3 4 5 6 
#
# 1 0.013484 -0.006449 0.006509 0.000306 -0.018272 0.012964
# 2 -0.006449 0.017490 -0.006143 -0.008659 0.009255 -0.001180
# 3 0.006509 -0.006143 0.022619 -0.007775 -0.022779 0.013253
# 4 0.000306 -0.008659 -0.007775 0.035260 0.005659 -0.002551
# 5 -0.018272 0.009255 -0.022779 0.005659 0.060406 -0.029050
# 6 0.012964 -0.001180 0.013253 -0.002551 -0.029050 0.048837
#
#
# Mechanical properties :
#
#
# Convention : Reuss Voigt Hill
#
# Bulk Modulus (GPa) = 24.13782 62.88111 43.50947
# Shear Modulus (GPa) = 22.31448 39.52434 30.91941
#
# Velocity S-wave (km/s) = 3.07638 4.09430 3.62128
# Velocity P-wave (km/s) = 4.78083 7.00146 5.99486
#
# Compressibility (1/GPa) = 0.04142876
#
# Stress axis : x y z
#
# Youngs Moduli (GPa) = 74.16199 57.17692 44.20982
#
# Poissons Ratio (x) = 0.36872 -0.28777
# Poissons Ratio (y) = 0.47825 0.27157
# Poissons Ratio (z) = -0.48274 0.35122
#
# Static dielectric constant tensor:
#      x y z
#    x 1.975580 0.023270 -0.029990 
#    y 0.023270 1.940400 -0.028840 
#    z -0.029990 -0.028840 1.922810 
# 
# From -- ./inp_files/5372.got.cif
#   From: 2010.05.17/outbox.cif.g08.bks.cpg/sg1_3_cif.got.tgz:5372.got - 2010.05.17 20:27:59.
