data_PCOD9000165
_publ_section_title
;
Structure prediction by ZEFSAII (Michael W. Deem and Ramdas Pophale) SiO2 
 PCOD9000165
Probable space group: P 1
;
_chemical_formula_sum "Si O2"
_cell_formula_units_Z 8
_cell_length_a 6.674567
_cell_length_b 11.080471
_cell_length_c 5.039722
_cell_angle_alpha 111.559667
_cell_angle_beta 75.065177
_cell_angle_gamma 88.754268
_cell_volume 332.113126
_symmetry_space_group_name_H-M "P 1"
_symmetry_group_IT_number 1
_symmetry_cell_setting 'triclinic'
loop_
_space_group_symop_operation_xyz
x,y,z
loop_
_atom_site_type_symbol
_atom_site_label
_atom_site_fract_x
_atom_site_fract_y
_atom_site_fract_z
Si Si1 0.619180 0.582270 0.571140
Si Si2 0.612939 0.082907 0.923455
Si Si3 0.867530 0.134605 0.364118
Si Si4 0.299392 0.763422 0.485960
Si Si5 0.438779 0.362328 0.220292
Si Si6 0.089969 0.519053 0.143892
Si Si7 0.812105 0.427792 0.777492
Si Si8 0.262544 0.930410 0.106579
O O1 0.501824 0.696043 0.527020
O O2 0.467182 0.468827 0.519000
O O3 0.678448 0.567042 0.846726
O O4 0.855189 0.543975 0.358950
O O5 0.089035 0.055608 0.306310
O O6 0.460914 0.213214 0.168660
O O7 0.472650 0.969508 0.931789
O O8 0.698026 0.097260 0.609060
O O9 0.861296 0.292895 0.481420
O O10 0.805025 0.082316 0.058453
O O11 0.191651 0.648825 0.284889
O O12 0.319533 0.861362 0.313649
O O13 0.174917 0.836638 0.837358
O O14 0.241073 0.405336 0.141998
O O15 0.652603 0.375917 0.997340
O O16 0.030693 0.468246 0.835144
#
# Coordination Sequence:
#
# PCOD9000165 Si02
#       8
#     1   1   1   1   1   1   1   1
#     4  10  22  42  69 100 137 181 228 298 352 419
#     4  11  24  45  74 105 145 188 228 303 359 416
#     4  11  25  46  75 110 144 178 239 298 362 430
#     4  11  28  47  69 102 146 191 246 287 336 426
#     4   9  21  40  64 105 142 170 228 289 368 421
#     4  10  24  40  70 103 136 187 228 292 359 416
#     4  10  22  40  72 108 139 172 229 301 367 419
#     4  12  28  48  73 101 145 199 244 284 345 431
#
# _framework density 24.088180000000001
#
# number of rings (size 3 to 8) (size 9 to 14) (size 15 to 20)
#    0.000    1.500    1.250    1.500    8.750    7.000 
#    0.000    0.000    0.000    0.000    0.000    0.000 
#    0.000    0.000    0.000    0.000    0.000    0.000 
#
# Total GULP energy -44596.756081 kJ/mol
# GULP energy per Si atom -5574.594510 kJ/mol
# Density = 2.403335 g / cm^3
# Si number density = 24.088180 Si / 1000 Ang^3
#
#
#
# Elastic Constant Matrix: (Units=GPa)
#
#
# Indices 1 2 3 4 5 6 
#
# 1 127.5232 57.4514 10.5714 8.3256 12.5957 -17.0597
# 2 57.4514 129.9134 23.7643 -6.5315 9.6931 -26.2260
# 3 10.5714 23.7643 46.5179 -3.8294 17.6306 -10.0102
# 4 8.3256 -6.5315 -3.8294 31.5132 -1.1128 3.0765
# 5 12.5957 9.6931 17.6306 -1.1128 38.5362 -8.8868
# 6 -17.0597 -26.2260 -10.0102 3.0765 -8.8868 36.2868
#
#
#
# Elastic Compliance Matrix: (Units=1/GPa)
#
#
# Indices 1 2 3 4 5 6 
#
# 1 0.010501 -0.004477 0.000863 -0.003846 -0.002427 0.001671
# 2 -0.004477 0.011505 -0.004184 0.002607 0.001774 0.005270
# 3 0.000863 -0.004184 0.028497 0.001737 -0.011703 0.002230
# 4 -0.003846 0.002607 0.001737 0.033728 0.000264 -0.002240
# 5 -0.002427 0.001774 -0.011703 0.000264 0.032793 0.004922
# 6 0.001671 0.005270 0.002230 -0.002240 0.004922 0.034163
#
#
# Mechanical properties :
#
#
# Convention : Reuss Voigt Hill
#
# Bulk Modulus (GPa) = 28.64632 54.16984 41.40808
# Shear Modulus (GPa) = 28.02396 35.41173 31.71785
#
# Velocity S-wave (km/s) = 3.41455 3.83833 3.63263
# Velocity P-wave (km/s) = 5.24058 6.49467 5.90103
#
# Compressibility (1/GPa) = 0.03490850
#
# Stress axis : x y z
#
# Youngs Moduli (GPa) = 95.22478 86.91795 35.09193
#
# Poissons Ratio (x) = 0.38912 -0.03030
# Poissons Ratio (y) = 0.42631 0.14682
# Poissons Ratio (z) = -0.08222 0.36366
#
# Static dielectric constant tensor:
#      x y z
#    x 1.904810 -0.010640 -0.010950 
#    y -0.010640 1.954040 -0.057150 
#    z -0.010950 -0.057150 2.258570 
# 
# From -- ./inp_files/369.got.cif
#   From: 2010.05.17/outbox.cif.g08.bks.cpg/sg1_1_cif.got.tgz:369.got - 2010.05.17 20:27:59.
