data_PCOD9000400
_publ_section_title
;
Structure prediction by ZEFSAII (Michael W. Deem and Ramdas Pophale) SiO2 
 PCOD9000400
Probable space group: P 1
;
_chemical_formula_sum "Si O2"
_cell_formula_units_Z 8
_cell_length_a 5.315025
_cell_length_b 12.993515
_cell_length_c 5.101723
_cell_angle_alpha 123.450740
_cell_angle_beta 87.125518
_cell_angle_gamma 100.201633
_cell_volume 288.838020
_symmetry_space_group_name_H-M "P 1"
_symmetry_group_IT_number 1
_symmetry_cell_setting 'triclinic'
loop_
_space_group_symop_operation_xyz
x,y,z
loop_
_atom_site_type_symbol
_atom_site_label
_atom_site_fract_x
_atom_site_fract_y
_atom_site_fract_z
Si Si1 0.236130 0.836850 0.484570
Si Si2 0.813586 0.633290 0.995400
Si Si3 0.069477 0.065648 0.579548
Si Si4 0.603563 0.147456 0.579967
Si Si5 0.343262 0.278238 0.169181
Si Si6 0.508130 0.769058 0.867216
Si Si7 0.356682 0.524514 0.252379
Si Si8 0.969931 0.385485 0.704807
O O1 0.436864 0.841417 0.716547
O O2 0.017873 0.712839 0.294806
O O3 0.097631 0.955654 0.622865
O O4 0.395765 0.829143 0.202982
O O5 0.547845 0.591790 0.112188
O O6 0.772773 0.730230 0.900685
O O7 0.885888 0.501427 0.719694
O O8 0.319964 0.089327 0.413198
O O9 0.802410 0.053398 0.430935
O O10 0.098823 0.198147 0.915301
O O11 0.734274 0.272633 0.599921
O O12 0.536281 0.185233 0.937525
O O13 0.462103 0.407994 0.205224
O O14 0.206417 0.326616 0.494757
O O15 0.350811 0.629950 0.615685
O O16 0.086869 0.457536 0.059131
#
# Coordination Sequence:
#
# PCOD9000400 Si02
#       8
#     1   1   1   1   1   1   1   1
#     4  12  29  52  78 115 163 220 282 341 411 494
#     4  12  25  45  83 116 163 219 269 342 422 491
#     4  10  25  50  77 112 161 213 277 343 406 495
#     4  10  23  50  75 118 159 209 276 336 418 490
#     4  10  24  43  78 114 161 208 266 337 416 491
#     4  12  28  50  74 120 157 215 279 337 412 492
#     4  12  23  47  73 116 164 205 270 338 410 501
#     4  12  23  47  80 121 162 215 267 342 423 502
#
# _framework density 27.697185000000001
#
# number of rings (size 3 to 8) (size 9 to 14) (size 15 to 20)
#    0.750    0.000    5.000    1.500    3.500    4.000 
#    2.250    1.250    0.000    0.000    0.000    0.000 
#    0.000    0.000    0.000    0.000    0.000    0.000 
#
# Total GULP energy -44718.995410 kJ/mol
# GULP energy per Si atom -5589.874426 kJ/mol
# Density = 2.763414 g / cm^3
# Si number density = 27.697185 Si / 1000 Ang^3
#
#
#
# Elastic Constant Matrix: (Units=GPa)
#
#
# Indices 1 2 3 4 5 6 
#
# 1 162.3489 41.8432 20.5331 -9.1480 -11.9497 -7.2001
# 2 41.8432 119.5794 28.8272 16.9342 -17.8451 -10.4509
# 3 20.5331 28.8272 92.8266 -22.2632 -1.9788 -6.8342
# 4 -9.1480 16.9342 -22.2632 42.6853 -3.9723 -1.0858
# 5 -11.9497 -17.8451 -1.9788 -3.9723 38.6857 5.2172
# 6 -7.2001 -10.4509 -6.8342 -1.0858 5.2172 56.6928
#
#
#
# Elastic Compliance Matrix: (Units=1/GPa)
#
#
# Indices 1 2 3 4 5 6 
#
# 1 0.007100 -0.002635 -0.000064 0.002654 0.001200 0.000349
# 2 -0.002635 0.012145 -0.004862 -0.007558 0.003651 0.000837
# 3 -0.000064 -0.004862 0.014647 0.009519 -0.000685 0.001107
# 4 0.002654 -0.007558 0.009519 0.032070 0.001031 0.000611
# 5 0.001200 0.003651 -0.000685 0.001031 0.028222 -0.001835
# 6 0.000349 0.000837 0.001107 0.000611 -0.001835 0.018151
#
#
# Mechanical properties :
#
#
# Convention : Reuss Voigt Hill
#
# Bulk Modulus (GPa) = 53.27981 61.90687 57.59334
# Shear Modulus (GPa) = 37.39276 46.51619 41.95448
#
# Velocity S-wave (km/s) = 3.67830 4.10256 3.89621
# Velocity P-wave (km/s) = 6.10886 6.69636 6.40934
#
# Compressibility (1/GPa) = 0.01876884
#
# Stress axis : x y z
#
# Youngs Moduli (GPa) = 140.83980 82.33745 68.27503
#
# Poissons Ratio (x) = 0.21699 0.00439
# Poissons Ratio (y) = 0.37116 0.33195
# Poissons Ratio (z) = 0.00906 0.40032
#
# Static dielectric constant tensor:
#      x y z
#    x 2.236300 -0.077000 0.003620 
#    y -0.077000 2.236740 -0.062140 
#    z 0.003620 -0.062140 2.091680 
# 
# From -- ./inp_files/578.got.cif
#   From: 2010.05.17/outbox.cif.g08.bks.cpg/sg1_1_cif.got.tgz:578.got - 2010.05.17 20:27:59.
