data_PCOD9000241
_publ_section_title
;
Structure prediction by ZEFSAII (Michael W. Deem and Ramdas Pophale) SiO2 
 PCOD9000241
Probable space group: P 1
;
_chemical_formula_sum "Si O2"
_cell_formula_units_Z 8
_cell_length_a 7.396436
_cell_length_b 7.286758
_cell_length_c 7.285920
_cell_angle_alpha 73.828954
_cell_angle_beta 124.527885
_cell_angle_gamma 93.601607
_cell_volume 308.462036
_symmetry_space_group_name_H-M "P 1"
_symmetry_group_IT_number 1
_symmetry_cell_setting 'triclinic'
loop_
_space_group_symop_operation_xyz
x,y,z
loop_
_atom_site_type_symbol
_atom_site_label
_atom_site_fract_x
_atom_site_fract_y
_atom_site_fract_z
Si Si1 0.935460 0.699740 0.798300
Si Si2 0.672919 0.464238 0.000856
Si Si3 0.540818 0.968793 0.312309
Si Si4 0.007116 0.134197 0.227943
Si Si5 0.150227 0.278619 0.917287
Si Si6 0.398141 0.760944 0.967859
Si Si7 0.221660 0.760995 0.452223
Si Si8 0.265723 0.331566 0.582731
O O1 0.802100 0.611648 0.912590
O O2 0.777120 0.873404 0.560235
O O3 0.233426 0.200890 0.426569
O O4 0.046862 0.504921 0.806709
O O5 0.557291 0.561877 0.087537
O O6 0.499474 0.381828 0.783118
O O7 0.831623 0.274638 0.196740
O O8 0.384553 0.843793 0.379278
O O9 0.395714 0.182670 0.157652
O O10 0.532454 0.904976 0.112859
O O11 0.992119 0.185567 0.991321
O O12 0.006114 0.911132 0.299997
O O13 0.155307 0.236985 0.717455
O O14 0.170823 0.773414 0.949199
O O15 0.329605 0.780296 0.709855
O O16 0.164784 0.551384 0.427442
#
# Coordination Sequence:
#
# PCOD9000241 Si02
#       8
#     1   1   1   1   1   1   1   1
#     4  11  22  44  67  95 137 170 223 283 323 405
#     4  10  23  41  66 100 133 166 235 274 320 419
#     4  11  24  43  69  95 138 179 216 284 343 383
#     4  10  24  42  68  96 137 177 216 285 339 383
#     4  10  23  43  64 103 133 165 239 274 313 431
#     4  11  23  42  67  96 132 174 224 273 332 402
#     4  10  22  44  65 102 135 167 239 274 315 432
#     4  11  21  43  66  93 137 174 216 281 333 389
#
# _framework density 25.935120000000001
#
# number of rings (size 3 to 8) (size 9 to 14) (size 15 to 20)
#    0.000    1.500    5.000    0.750    5.250    1.000 
#    0.000   10.000    0.000    0.000    0.000    0.000 
#    0.000    0.000    0.000    0.000    0.000    0.000 
#
# Total GULP energy -44562.128016 kJ/mol
# GULP energy per Si atom -5570.266002 kJ/mol
# Density = 2.587609 g / cm^3
# Si number density = 25.935120 Si / 1000 Ang^3
#
#
#
# Elastic Constant Matrix: (Units=GPa)
#
#
# Indices 1 2 3 4 5 6 
#
# 1 114.8831 22.7098 8.0902 7.5061 7.7556 -20.2549
# 2 22.7098 94.0126 33.1046 -18.3552 7.7598 -13.6800
# 3 8.0902 33.1046 81.7925 -10.2956 6.4837 -13.6655
# 4 7.5061 -18.3552 -10.2956 62.9745 -15.7298 7.4302
# 5 7.7556 7.7598 6.4837 -15.7298 45.9080 -8.7534
# 6 -20.2549 -13.6800 -13.6655 7.4302 -8.7534 27.6342
#
#
#
# Elastic Compliance Matrix: (Units=1/GPa)
#
#
# Indices 1 2 3 4 5 6 
#
# 1 0.010699 -0.002265 0.000840 -0.002971 -0.001116 0.007582
# 2 -0.002265 0.013730 -0.004590 0.003341 0.000245 0.002046
# 3 0.000840 -0.004590 0.014993 0.000273 -0.000326 0.005581
# 4 -0.002971 0.003341 0.000273 0.019125 0.005744 -0.003711
# 5 -0.001116 0.000245 -0.000326 0.005744 0.024995 0.005516
# 6 0.007582 0.002046 0.005581 -0.003711 0.005516 0.048262
#
#
# Mechanical properties :
#
#
# Convention : Reuss Voigt Hill
#
# Bulk Modulus (GPa) = 36.50712 46.49972 41.50342
# Shear Modulus (GPa) = 32.68685 42.42226 37.55455
#
# Velocity S-wave (km/s) = 3.55397 4.04878 3.80941
# Velocity P-wave (km/s) = 5.56307 6.31070 5.94864
#
# Compressibility (1/GPa) = 0.02739191
#
# Stress axis : x y z
#
# Youngs Moduli (GPa) = 93.46424 72.83218 66.69569
#
# Poissons Ratio (x) = 0.16496 -0.05600
# Poissons Ratio (y) = 0.21170 0.30614
# Poissons Ratio (z) = -0.07847 0.33431
#
# Static dielectric constant tensor:
#      x y z
#    x 2.129320 0.000120 0.073360 
#    y 0.000120 2.015850 -0.117360 
#    z 0.073360 -0.117360 2.126530 
# 
# From -- ./inp_files/3792.got.cif
#   From: 2010.05.17/outbox.cif.g08.bks.cpg/sg1_2_cif.got.tgz:3792.got - 2010.05.17 20:27:59.
