data_PCOD9000326
_publ_section_title
;
Structure prediction by ZEFSAII (Michael W. Deem and Ramdas Pophale) SiO2 
 PCOD9000326
Probable space group: P 1
;
_chemical_formula_sum "Si O2"
_cell_formula_units_Z 8
_cell_length_a 12.238158
_cell_length_b 14.888870
_cell_length_c 8.603356
_cell_angle_alpha 151.499272
_cell_angle_beta 144.862352
_cell_angle_gamma 30.243917
_cell_volume 365.407833
_symmetry_space_group_name_H-M "P 1"
_symmetry_group_IT_number 1
_symmetry_cell_setting 'triclinic'
loop_
_space_group_symop_operation_xyz
x,y,z
loop_
_atom_site_type_symbol
_atom_site_label
_atom_site_fract_x
_atom_site_fract_y
_atom_site_fract_z
Si Si1 0.731550 0.517650 0.417690
Si Si2 0.929702 0.344255 0.712834
Si Si3 0.369074 0.106206 0.354250
Si Si4 0.420220 0.000473 0.882431
Si Si5 0.858810 0.765446 0.446392
Si Si6 0.820204 0.058150 0.325586
Si Si7 0.938607 0.089313 0.848892
Si Si8 0.059272 0.610142 0.765716
O O1 0.887191 0.426783 0.613054
O O2 0.852772 0.579975 0.522925
O O3 0.511524 0.743681 0.558677
O O4 0.740789 0.304717 0.034331
O O5 0.789829 0.230822 0.420851
O O6 0.184248 0.161119 0.771555
O O7 0.862205 0.555265 0.061629
O O8 0.273391 0.366070 0.661253
O O9 0.603787 0.948805 0.471404
O O10 0.405073 0.045299 0.118641
O O11 0.173698 0.067179 0.123551
O O12 0.602987 0.049966 0.101612
O O13 0.022795 0.691591 0.670593
O O14 0.934081 0.877064 0.575182
O O15 0.895199 0.124342 0.669107
O O16 0.016620 0.811352 0.130169
#
# Coordination Sequence:
#
# PCOD9000326 Si02
#       8
#     1   1   1   1   1   1   1   1
#     4  10  23  43  65  95 131 165 214 265 311 380
#     4  12  23  42  68  94 131 168 211 264 317 377
#     4  11  22  44  67  94 129 168 210 264 321 373
#     4  11  22  44  67  94 129 168 210 264 321 373
#     4  12  23  42  68  94 131 168 211 264 317 377
#     4  11  23  42  66  95 130 169 212 262 316 377
#     4  11  23  42  66  95 130 169 212 262 316 377
#     4  10  23  43  65  95 131 165 214 265 311 380
#
# _framework density 21.893345
#
# number of rings (size 3 to 8) (size 9 to 14) (size 15 to 20)
#    0.000    1.000    5.000    2.250    0.000    6.000 
#    0.000    0.000    0.000    0.000    0.000    0.000 
#    0.000    0.000    0.000    0.000    0.000    0.000 
#
# Total GULP energy -44736.768222 kJ/mol
# GULP energy per Si atom -5592.096028 kJ/mol
# Density = 2.184351 g / cm^3
# Si number density = 21.893345 Si / 1000 Ang^3
#
#
#
# Elastic Constant Matrix: (Units=GPa)
#
#
# Indices 1 2 3 4 5 6 
#
# 1 64.1364 7.3507 13.0908 10.9259 15.6567 -10.5311
# 2 7.3507 99.6120 31.8856 29.2611 1.7040 -7.2133
# 3 13.0908 31.8856 91.5281 36.2212 -12.6787 -16.8851
# 4 10.9259 29.2611 36.2212 40.9391 -7.8848 -4.9796
# 5 15.6567 1.7040 -12.6787 -7.8848 48.5800 -2.0852
# 6 -10.5311 -7.2133 -16.8851 -4.9796 -2.0852 31.8941
#
#
#
# Elastic Compliance Matrix: (Units=1/GPa)
#
#
# Indices 1 2 3 4 5 6 
#
# 1 0.019195 0.001073 -0.000919 -0.005896 -0.007219 0.004702
# 2 0.001073 0.013107 -0.001411 -0.008772 -0.002553 0.001035
# 3 -0.000919 -0.001411 0.018884 -0.013909 0.003335 0.007421
# 4 -0.005896 -0.008772 -0.013909 0.045214 0.005750 -0.003859
# 5 -0.007219 -0.002553 0.003335 0.005750 0.024861 0.001328
# 6 0.004702 0.001035 0.007421 -0.003859 0.001328 0.036554
#
#
# Mechanical properties :
#
#
# Convention : Reuss Voigt Hill
#
# Bulk Modulus (GPa) = 20.54504 39.99230 30.26867
# Shear Modulus (GPa) = 28.32033 37.81260 33.06646
#
# Velocity S-wave (km/s) = 3.60051 4.16038 3.89053
# Velocity P-wave (km/s) = 5.16618 6.43311 5.83414
#
# Compressibility (1/GPa) = 0.04867355
#
# Stress axis : x y z
#
# Youngs Moduli (GPa) = 52.09725 76.29626 52.95502
#
# Poissons Ratio (x) = -0.08190 0.04865
# Poissons Ratio (y) = -0.05592 0.07470
# Poissons Ratio (z) = 0.04787 0.10763
#
# Static dielectric constant tensor:
#      x y z
#    x 1.781850 -0.037240 0.015370 
#    y -0.037240 1.761320 0.010660 
#    z 0.015370 0.010660 1.808910 
# 
# From -- ./inp_files/4092.got.cif
#   From: 2010.05.17/outbox.cif.g08.bks.cpg/sg1_3_cif.got.tgz:4092.got - 2010.05.17 20:27:59.
