data_PCOD9000656
_publ_section_title
;
Structure prediction by ZEFSAII (Michael W. Deem and Ramdas Pophale) SiO2 
 PCOD9000656
Probable space group: P 1
;
_chemical_formula_sum "Si O2"
_cell_formula_units_Z 8
_cell_length_a 7.876083
_cell_length_b 8.076342
_cell_length_c 9.289344
_cell_angle_alpha 66.371480
_cell_angle_beta 145.284870
_cell_angle_gamma 119.183131
_cell_volume 293.797493
_symmetry_space_group_name_H-M "P 1"
_symmetry_group_IT_number 1
_symmetry_cell_setting 'triclinic'
loop_
_space_group_symop_operation_xyz
x,y,z
loop_
_atom_site_type_symbol
_atom_site_label
_atom_site_fract_x
_atom_site_fract_y
_atom_site_fract_z
Si Si1 0.473110 0.437570 0.125000
Si Si2 0.779708 0.050760 0.625001
Si Si3 0.154431 0.800211 0.125001
Si Si4 0.381813 0.298636 0.812779
Si Si5 0.153726 0.645615 0.485044
Si Si6 0.000539 0.645614 0.764957
Si Si7 0.425473 0.298634 0.437220
Si Si8 0.252377 0.996098 0.625002
O O1 0.308832 0.321271 0.188765
O O2 0.821352 0.561934 0.363708
O O3 0.521087 0.321272 0.061234
O O4 0.249233 0.561934 0.886294
O O5 0.672029 0.186082 0.611930
O O6 0.022704 0.186083 0.638067
O O7 0.489969 0.928072 0.371183
O O8 0.946763 0.928076 0.878823
O O9 0.046980 0.678286 0.236888
O O10 0.139951 0.678284 0.013111
O O11 0.363886 0.503194 0.675773
O O12 0.492827 0.156372 0.837105
O O13 0.314623 0.846996 0.604995
O O14 0.041029 0.846996 0.645010
O O15 0.647958 0.503193 0.574226
O O16 0.172197 0.156369 0.412896
#
# Coordination Sequence:
#
# PCOD9000656 Si02
#       8
#     1   1   1   1   1   1   1   1
#     4  12  25  50  75 112 172 206 267 340 397 474
#     4  12  25  53  76 110 156 212 263 331 394 476
#     4  12  31  48  83 112 160 210 271 322 409 474
#     4  12  27  49  78 113 157 213 270 328 404 478
#     4  12  28  50  73 116 158 216 260 344 391 483
#     4  12  28  50  73 116 158 216 260 344 391 483
#     4  12  27  49  78 113 157 213 270 328 404 478
#     4  12  27  51  78 112 160 212 271 331 406 476
#
# _framework density 27.229641000000001
#
# number of rings (size 3 to 8) (size 9 to 14) (size 15 to 20)
#    0.000    0.000    7.500    0.750   10.500    0.000 
#    0.000    0.000    0.000    0.000    0.000    0.000 
#    0.000    0.000    0.000    0.000    0.000    0.000 
#
# Total GULP energy -44706.291289 kJ/mol
# GULP energy per Si atom -5588.286411 kJ/mol
# Density = 2.716766 g / cm^3
# Si number density = 27.229641 Si / 1000 Ang^3
#
#
#
# Elastic Constant Matrix: (Units=GPa)
#
#
# Indices 1 2 3 4 5 6 
#
# 1 91.0418 41.4574 41.7794 -0.0585 -28.1102 1.1366
# 2 41.4574 182.7863 74.6547 0.4160 -24.0820 2.6330
# 3 41.7794 74.6547 179.0376 -0.0319 -21.9478 -0.7417
# 4 -0.0585 0.4160 -0.0319 50.9623 -0.9158 -22.3745
# 5 -28.1102 -24.0820 -21.9478 -0.9158 59.2195 -0.5200
# 6 1.1366 2.6330 -0.7417 -22.3745 -0.5200 46.2862
#
#
#
# Elastic Compliance Matrix: (Units=1/GPa)
#
#
# Indices 1 2 3 4 5 6 
#
# 1 0.014337 -0.001740 -0.001963 0.000035 0.005369 -0.000207
# 2 -0.001740 0.006991 -0.002373 -0.000263 0.001129 -0.000507
# 3 -0.001963 -0.002373 0.007127 0.000215 0.000752 0.000410
# 4 0.000035 -0.000263 0.000215 0.024935 0.000481 0.012077
# 5 0.005369 0.001129 0.000752 0.000481 0.020183 0.000275
# 6 -0.000207 -0.000507 0.000410 0.012077 0.000275 0.027486
#
#
# Mechanical properties :
#
#
# Convention : Reuss Voigt Hill
#
# Bulk Modulus (GPa) = 61.33363 85.40540 73.36952
# Shear Modulus (GPa) = 42.14221 50.95856 46.55038
#
# Velocity S-wave (km/s) = 3.93830 4.33070 4.13915
# Velocity P-wave (km/s) = 6.57676 7.51263 7.06022
#
# Compressibility (1/GPa) = 0.01630427
#
# Stress axis : x y z
#
# Youngs Moduli (GPa) = 69.74726 143.03413 140.31543
#
# Poissons Ratio (x) = 0.24886 0.27542
# Poissons Ratio (y) = 0.12135 0.33296
# Poissons Ratio (z) = 0.13691 0.33941
#
# Static dielectric constant tensor:
#      x y z
#    x 2.197890 0.003130 -0.085910 
#    y 0.003130 2.205270 0.003180 
#    z -0.085910 0.003180 2.124290 
# 
# From -- ./inp_files/1292.got.cif
#   From: 2010.05.17/outbox.cif.g08.bks.cpg/sg1_1_cif.got.tgz:1292.got - 2010.05.17 20:27:59.
