data_PCOD9000945
_publ_section_title
;
Structure prediction by ZEFSAII (Michael W. Deem and Ramdas Pophale) SiO2 
 PCOD9000945
Probable space group: P 1
;
_chemical_formula_sum "Si O2"
_cell_formula_units_Z 8
_cell_length_a 12.941058
_cell_length_b 4.984542
_cell_length_c 13.614126
_cell_angle_alpha 108.478820
_cell_angle_beta 21.987891
_cell_angle_gamma 108.123945
_cell_volume 311.483295
_symmetry_space_group_name_H-M "P 1"
_symmetry_group_IT_number 1
_symmetry_cell_setting 'triclinic'
loop_
_space_group_symop_operation_xyz
x,y,z
loop_
_atom_site_type_symbol
_atom_site_label
_atom_site_fract_x
_atom_site_fract_y
_atom_site_fract_z
Si Si1 0.675320 0.898180 0.069560
Si Si2 0.019359 0.276310 0.378723
Si Si3 0.577986 0.917120 0.639130
Si Si4 0.011283 0.333372 0.713005
Si Si5 0.481849 0.693267 0.414243
Si Si6 0.886330 0.344750 0.291157
Si Si7 0.167655 0.908765 0.370963
Si Si8 0.074296 0.846679 0.965014
O O1 0.545173 0.906090 0.293176
O O2 0.443756 0.885150 0.188193
O O3 0.328894 0.430680 0.462554
O O4 0.890154 0.156340 0.890084
O O5 0.030829 0.594035 0.446120
O O6 0.083426 0.318138 0.210659
O O7 0.205642 0.068797 0.252050
O O8 0.716416 0.108698 0.625873
O O9 0.770577 0.652487 0.427340
O O10 0.266037 0.798458 0.886431
O O11 0.630571 0.133097 0.527072
O O12 0.256226 0.776599 0.702422
O O13 0.989984 0.124024 0.615248
O O14 0.841842 0.611703 0.881329
O O15 0.781782 0.671874 0.195915
O O16 0.004418 0.176761 0.076558
#
# Coordination Sequence:
#
# PCOD9000945 Si02
#       8
#     1   1   1   1   1   1   1   1
#     4  12  27  52  77 119 169 211 277 336 398 493
#     4  10  20  48  76 116 158 214 260 332 408 480
#     4  10  23  50  73 114 161 205 266 330 392 490
#     4  12  27  52  77 119 169 211 277 336 398 493
#     4  12  26  56  84 122 164 222 270 338 414 484
#     4  10  23  50  73 114 161 205 266 330 392 490
#     4  12  24  46  80 114 164 210 272 322 416 470
#     4  12  26  54  82 122 162 218 272 338 408 484
#
# _framework density 25.683558999999999
#
# number of rings (size 3 to 8) (size 9 to 14) (size 15 to 20)
#    0.750    0.000    3.750    3.750    0.000    1.000 
#   18.000    0.000    0.000    0.000    0.000    0.000 
#    0.000    0.000    0.000    0.000    0.000    0.000 
#
# Total GULP energy -44735.821966 kJ/mol
# GULP energy per Si atom -5591.977746 kJ/mol
# Density = 2.562510 g / cm^3
# Si number density = 25.683559 Si / 1000 Ang^3
#
#
#
# Elastic Constant Matrix: (Units=GPa)
#
#
# Indices 1 2 3 4 5 6 
#
# 1 123.4717 51.9122 47.7052 -4.3120 -27.8190 8.6947
# 2 51.9122 151.2191 46.7856 14.5165 -13.5425 1.4480
# 3 47.7052 46.7856 130.5832 -3.4276 -15.2558 4.0650
# 4 -4.3120 14.5165 -3.4276 33.2348 -6.3198 -1.9888
# 5 -27.8190 -13.5425 -15.2558 -6.3198 38.5284 -0.8608
# 6 8.6947 1.4480 4.0650 -1.9888 -0.8608 52.2630
#
#
#
# Elastic Compliance Matrix: (Units=1/GPa)
#
#
# Indices 1 2 3 4 5 6 
#
# 1 0.012266 -0.003207 -0.002308 0.004082 0.007451 -0.001494
# 2 -0.003207 0.008757 -0.002196 -0.004614 -0.000858 0.000272
# 3 -0.002308 -0.002196 0.009538 0.001946 0.001654 -0.000196
# 4 0.004082 -0.004614 0.001946 0.034352 0.007747 0.000732
# 5 0.007451 -0.000858 0.001654 0.007747 0.032948 -0.000507
# 6 -0.001494 0.000272 -0.000196 0.000732 -0.000507 0.019410
#
#
# Mechanical properties :
#
#
# Convention : Reuss Voigt Hill
#
# Bulk Modulus (GPa) = 66.05115 77.56442 71.80779
# Shear Modulus (GPa) = 36.30128 42.06329 39.18229
#
# Velocity S-wave (km/s) = 3.76361 4.05130 3.91010
# Velocity P-wave (km/s) = 6.68277 7.22147 6.95734
#
# Compressibility (1/GPa) = 0.01513978
#
# Stress axis : x y z
#
# Youngs Moduli (GPa) = 81.52925 114.19932 104.84349
#
# Poissons Ratio (x) = 0.36622 0.24195
# Poissons Ratio (y) = 0.26145 0.23019
# Poissons Ratio (z) = 0.18815 0.25073
#
# Static dielectric constant tensor:
#      x y z
#    x 2.096100 0.017010 0.023680 
#    y 0.017010 1.998010 -0.005880 
#    z 0.023680 -0.005880 2.070050 
# 
# From -- ./inp_files/7218.got.cif
#   From: 2010.05.17/outbox.cif.g08.bks.cpg/sg1_4_cif.got.tgz:7218.got - 2010.05.17 20:27:59.
