data_PCOD9000501
_publ_section_title
;
Structure prediction by ZEFSAII (Michael W. Deem and Ramdas Pophale) SiO2 
 PCOD9000501
Probable space group: P 1
;
_chemical_formula_sum "Si O2"
_cell_formula_units_Z 8
_cell_length_a 11.482760
_cell_length_b 6.015771
_cell_length_c 9.167988
_cell_angle_alpha 71.385013
_cell_angle_beta 144.401892
_cell_angle_gamma 92.388206
_cell_volume 320.952534
_symmetry_space_group_name_H-M "P 1"
_symmetry_group_IT_number 1
_symmetry_cell_setting 'triclinic'
loop_
_space_group_symop_operation_xyz
x,y,z
loop_
_atom_site_type_symbol
_atom_site_label
_atom_site_fract_x
_atom_site_fract_y
_atom_site_fract_z
Si Si1 0.500000 0.839710 0.640160
Si Si2 0.679585 0.017046 0.070141
Si Si3 0.101170 0.650534 0.280209
Si Si4 0.316101 0.452445 0.806394
Si Si5 0.897002 0.321503 0.068939
Si Si6 0.329408 0.031848 0.128218
Si Si7 0.587411 0.631110 0.235035
Si Si8 0.877951 0.119812 0.776833
O O1 0.291153 0.758841 0.452493
O O2 0.443905 0.021235 0.402616
O O3 0.695979 0.569840 0.866529
O O4 0.567221 0.961956 0.821953
O O5 0.868342 0.104772 0.185553
O O6 0.730790 0.773083 0.280059
O O7 0.502045 0.253147 0.931491
O O8 0.099429 0.586272 0.462574
O O9 0.112496 0.381661 0.285522
O O10 0.910052 0.855410 0.946121
O O11 0.405266 0.649329 0.926377
O O12 0.285622 0.284345 0.939986
O O13 0.873389 0.279288 0.884130
O O14 0.477268 0.790988 0.232766
O O15 0.096984 0.027641 0.924928
O O16 0.702818 0.330472 0.452496
#
# Coordination Sequence:
#
# PCOD9000501 Si02
#       8
#     1   1   1   1   1   1   1   1
#     4  11  23  48  72 112 151 198 246 312 382 441
#     4  11  24  45  78 108 149 203 248 307 382 445
#     4  11  26  45  73 117 145 196 254 304 377 455
#     4  11  25  46  76 108 158 198 240 319 387 437
#     4  12  25  44  75 113 150 198 253 309 373 458
#     4  10  26  43  74 109 153 194 251 317 373 448
#     4  11  24  50  76 111 149 204 246 314 386 440
#     4  11  27  45  74 112 153 193 256 312 374 456
#
# _framework density 24.925806000000001
#
# number of rings (size 3 to 8) (size 9 to 14) (size 15 to 20)
#    0.000    1.000    3.750    0.750    7.000    5.000 
#    0.000    2.500    0.000    0.000    0.000    0.000 
#    0.000    0.000    0.000    0.000    0.000    0.000 
#
# Total GULP energy -44667.524419 kJ/mol
# GULP energy per Si atom -5583.440552 kJ/mol
# Density = 2.486907 g / cm^3
# Si number density = 24.925806 Si / 1000 Ang^3
#
#
#
# Elastic Constant Matrix: (Units=GPa)
#
#
# Indices 1 2 3 4 5 6 
#
# 1 108.5053 43.0749 52.2316 -5.8652 -31.8630 3.8523
# 2 43.0749 93.4941 26.5053 -0.5233 -7.9357 26.3422
# 3 52.2316 26.5053 73.6480 -22.1979 -11.0229 31.7131
# 4 -5.8652 -0.5233 -22.1979 50.8919 2.6384 -9.8158
# 5 -31.8630 -7.9357 -11.0229 2.6384 35.1808 -12.5627
# 6 3.8523 26.3422 31.7131 -9.8158 -12.5627 46.6586
#
#
#
# Elastic Compliance Matrix: (Units=1/GPa)
#
#
# Indices 1 2 3 4 5 6 
#
# 1 0.047533 -0.019268 -0.041994 -0.006448 0.042286 0.045525
# 2 -0.019268 0.020986 0.014180 0.000356 -0.017014 -0.024402
# 3 -0.041994 0.014180 0.059008 0.012955 -0.035722 -0.051538
# 4 -0.006448 0.000356 0.012955 0.023895 -0.005226 -0.004854
# 5 0.042286 -0.017014 -0.035722 -0.005226 0.069198 0.047926
# 6 0.045525 -0.024402 -0.051538 -0.004854 0.047926 0.078362
#
#
# Mechanical properties :
#
#
# Convention : Reuss Voigt Hill
#
# Bulk Modulus (GPa) = 29.97286 57.69678 43.83482
# Shear Modulus (GPa) = 12.36809 36.80197 24.58503
#
# Velocity S-wave (km/s) = 2.22996 3.84664 3.14399
# Velocity P-wave (km/s) = 4.32218 6.55183 5.55013
#
# Compressibility (1/GPa) = 0.03336352
#
# Stress axis : x y z
#
# Youngs Moduli (GPa) = 21.03817 47.65075 16.94696
#
# Poissons Ratio (x) = 0.91813 0.71167
# Poissons Ratio (y) = 0.40536 -0.24032
# Poissons Ratio (z) = 0.88347 -0.67571
#
# Static dielectric constant tensor:
#      x y z
#    x 2.056300 0.059230 0.076940 
#    y 0.059230 1.989730 -0.024240 
#    z 0.076940 -0.024240 2.017560 
# 
# From -- ./inp_files/5151.got.cif
#   From: 2010.05.17/outbox.cif.g08.bks.cpg/sg1_3_cif.got.tgz:5151.got - 2010.05.17 20:27:59.
