data_PCOD9000126
_publ_section_title
;
Structure prediction by ZEFSAII (Michael W. Deem and Ramdas Pophale) SiO2 
 PCOD9000126
Probable space group: P 1
;
_chemical_formula_sum "Si O2"
_cell_formula_units_Z 8
_cell_length_a 5.114448
_cell_length_b 11.804835
_cell_length_c 5.181463
_cell_angle_alpha 65.410781
_cell_angle_beta 85.839875
_cell_angle_gamma 79.515554
_cell_volume 279.711543
_symmetry_space_group_name_H-M "P 1"
_symmetry_group_IT_number 1
_symmetry_cell_setting 'triclinic'
loop_
_space_group_symop_operation_xyz
x,y,z
loop_
_atom_site_type_symbol
_atom_site_label
_atom_site_fract_x
_atom_site_fract_y
_atom_site_fract_z
Si Si1 0.311410 0.947340 0.600690
Si Si2 0.979687 0.654559 0.064152
Si Si3 0.768351 0.016430 0.821166
Si Si4 0.391011 0.520230 0.511065
Si Si5 0.040819 0.160021 0.050372
Si Si6 0.676590 0.721936 0.526726
Si Si7 0.438062 0.263541 0.513781
Si Si8 0.022403 0.410023 0.023808
O O1 0.445004 0.835591 0.511935
O O2 0.516589 0.956592 0.809779
O O3 0.235942 0.075263 0.317918
O O4 0.034419 0.936600 0.764046
O O5 0.815318 0.729006 0.235639
O O6 0.277336 0.614890 0.194311
O O7 0.902830 0.514993 0.141342
O O8 0.895836 0.718150 0.737917
O O9 0.685814 0.153589 0.560406
O O10 0.848994 0.064573 0.049267
O O11 0.552044 0.594028 0.624032
O O12 0.523504 0.382847 0.538400
O O13 0.133372 0.487225 0.712539
O O14 0.890607 0.295816 0.033511
O O15 0.229146 0.202040 0.767900
O O16 0.278802 0.329203 0.221481
#
# Coordination Sequence:
#
# PCOD9000126 Si02
#       8
#     1   1   1   1   1   1   1   1
#     4  12  31  49  78 112 158 213 269 322 390 476
#     4  11  26  48  74 112 154 202 264 319 397 461
#     4  12  26  49  73 116 151 207 263 326 393 469
#     4  10  25  46  75 117 155 205 255 331 396 475
#     4  11  24  47  76 114 159 205 261 328 405 465
#     4  12  30  49  77 113 156 216 265 323 388 477
#     4  10  23  44  75 115 161 197 262 330 405 471
#     4  10  21  48  76 117 160 199 257 333 404 478
#
# _framework density 28.600894
#
# number of rings (size 3 to 8) (size 9 to 14) (size 15 to 20)
#    0.000    1.000    3.750    0.000   10.500    2.000 
#    0.000    0.000    0.000    0.000    0.000    0.000 
#    0.000    0.000    0.000    0.000    0.000    0.000 
#
# Total GULP energy -44830.310483 kJ/mol
# GULP energy per Si atom -5603.788810 kJ/mol
# Density = 2.853580 g / cm^3
# Si number density = 28.600894 Si / 1000 Ang^3
#
#
#
# Elastic Constant Matrix: (Units=GPa)
#
#
# Indices 1 2 3 4 5 6 
#
# 1 132.8580 48.4618 44.2980 4.6688 26.1332 7.7362
# 2 48.4618 200.2203 27.1316 35.1495 21.8745 -9.2013
# 3 44.2980 27.1316 155.8209 9.5992 30.3467 6.0804
# 4 4.6688 35.1495 9.5992 47.0026 2.9829 4.9731
# 5 26.1332 21.8745 30.3467 2.9829 56.4992 -3.4664
# 6 7.7362 -9.2013 6.0804 4.9731 -3.4664 49.4127
#
#
#
# Elastic Compliance Matrix: (Units=1/GPa)
#
#
# Indices 1 2 3 4 5 6 
#
# 1 0.009508 -0.002081 -0.001798 0.001369 -0.002821 -0.001991
# 2 -0.002081 0.006576 -0.000109 -0.004824 -0.001149 0.001969
# 3 -0.001798 -0.000109 0.007674 -0.001016 -0.003244 -0.000808
# 4 0.001369 -0.004824 -0.001016 0.025312 0.000228 -0.003519
# 5 -0.002821 -0.001149 -0.003244 0.000228 0.021308 0.002099
# 6 -0.001991 0.001969 -0.000808 -0.003519 0.002099 0.021517
#
#
# Mechanical properties :
#
#
# Convention : Reuss Voigt Hill
#
# Bulk Modulus (GPa) = 63.36801 80.96469 72.16635
# Shear Modulus (GPa) = 47.55929 55.18343 51.37136
#
# Velocity S-wave (km/s) = 4.08224 4.39729 4.24269
# Velocity P-wave (km/s) = 6.66511 7.35877 7.02051
#
# Compressibility (1/GPa) = 0.01578083
#
# Stress axis : x y z
#
# Youngs Moduli (GPa) = 105.17268 152.06922 130.31689
#
# Poissons Ratio (x) = 0.31651 0.23430
# Poissons Ratio (y) = 0.21890 0.01422
# Poissons Ratio (z) = 0.18909 0.01660
#
# Static dielectric constant tensor:
#      x y z
#    x 2.208430 0.018910 -0.047200 
#    y 0.018910 2.274970 0.037140 
#    z -0.047200 0.037140 2.219950 
# 
# From -- ./inp_files/360.got.cif
#   From: 2010.05.17/outbox.cif.g08.bks.cpg/sg1_1_cif.got.tgz:360.got - 2010.05.17 20:27:59.
