data_PCOD9000447
_publ_section_title
;
Structure prediction by ZEFSAII (Michael W. Deem and Ramdas Pophale) SiO2 
 PCOD9000447
Probable space group: P 1
;
_chemical_formula_sum "Si O2"
_cell_formula_units_Z 8
_cell_length_a 5.998232
_cell_length_b 8.916810
_cell_length_c 10.337298
_cell_angle_alpha 41.277014
_cell_angle_beta 95.413150
_cell_angle_gamma 107.922719
_cell_volume 338.683535
_symmetry_space_group_name_H-M "P 1"
_symmetry_group_IT_number 1
_symmetry_cell_setting 'triclinic'
loop_
_space_group_symop_operation_xyz
x,y,z
loop_
_atom_site_type_symbol
_atom_site_label
_atom_site_fract_x
_atom_site_fract_y
_atom_site_fract_z
Si Si1 0.017490 0.033600 0.143310
Si Si2 0.748965 0.393707 0.249720
Si Si3 0.644423 0.849824 0.019681
Si Si4 0.998223 0.155223 0.622527
Si Si5 0.358039 0.556935 0.796417
Si Si6 0.670052 0.942540 0.398847
Si Si7 0.205312 0.768861 0.897129
Si Si8 0.209747 0.635310 0.473415
O O1 0.922115 0.055044 0.268523
O O2 0.058858 0.779574 0.309746
O O3 0.259994 0.264839 0.980904
O O4 0.813954 0.003740 0.043640
O O5 0.882985 0.270565 0.433218
O O6 0.591362 0.157860 0.311854
O O7 0.952600 0.572134 0.052891
O O8 0.631703 0.568731 0.198651
O O9 0.376209 0.843368 0.984930
O O10 0.788025 0.981757 0.814063
O O11 0.157033 0.376978 0.576024
O O12 0.156632 0.000418 0.687507
O O13 0.324031 0.652826 0.871683
O O14 0.185689 0.612785 0.642555
O O15 0.618096 0.727655 0.642930
O O16 0.487700 0.800183 0.368847
#
# Coordination Sequence:
#
# PCOD9000447 Si02
#       8
#     1   1   1   1   1   1   1   1
#     4  12  23  48  72  99 141 180 230 287 346 402
#     4  11  24  44  67 100 145 179 232 281 339 418
#     4  11  25  43  69 102 137 186 226 285 346 405
#     4  11  24  46  66 102 142 178 232 284 341 414
#     4  10  24  48  64 103 138 175 232 286 333 414
#     4  10  25  43  68 103 131 186 224 280 347 404
#     4  11  26  42  71 101 140 185 223 286 348 404
#     4  10  25  46  69 100 138 181 229 289 336 413
#
# _framework density 23.62087
#
# number of rings (size 3 to 8) (size 9 to 14) (size 15 to 20)
#    0.750    0.500    3.750    0.750    5.250    3.000 
#    2.250    0.000    0.000    0.000    0.000    0.000 
#    0.000    0.000    0.000    0.000    0.000    0.000 
#
# Total GULP energy -44660.461098 kJ/mol
# GULP energy per Si atom -5582.557637 kJ/mol
# Density = 2.356711 g / cm^3
# Si number density = 23.620870 Si / 1000 Ang^3
#
#
#
# Elastic Constant Matrix: (Units=GPa)
#
#
# Indices 1 2 3 4 5 6 
#
# 1 19.3622 3.4332 14.5374 -5.6136 3.6516 5.4604
# 2 3.4332 76.5074 36.8537 -20.9761 -2.4700 11.1165
# 3 14.5374 36.8537 110.5316 -12.9139 6.5630 2.5524
# 4 -5.6136 -20.9761 -12.9139 48.8281 2.2676 -3.9508
# 5 3.6516 -2.4700 6.5630 2.2676 35.2912 0.3561
# 6 5.4604 11.1165 2.5524 -3.9508 0.3561 28.0489
#
#
#
# Elastic Compliance Matrix: (Units=1/GPa)
#
#
# Indices 1 2 3 4 5 6 
#
# 1 0.063542 0.004661 -0.008600 0.006251 -0.004925 -0.012492
# 2 0.004661 0.018512 -0.005989 0.006278 0.001593 -0.006835
# 3 -0.008600 -0.005989 0.012215 -0.000007 -0.001830 0.002958
# 4 0.006251 0.006278 -0.000007 0.023950 -0.001742 -0.000309
# 5 -0.004925 0.001593 -0.001830 -0.001742 0.029410 -0.000125
# 6 -0.012492 -0.006835 0.002958 -0.000309 -0.000125 0.040482
#
#
# Mechanical properties :
#
#
# Convention : Reuss Voigt Hill
#
# Bulk Modulus (GPa) = 13.43853 35.11667 24.27760
# Shear Modulus (GPa) = 21.48052 32.53875 27.00963
#
# Velocity S-wave (km/s) = 3.01888 3.71555 3.38518
# Velocity P-wave (km/s) = 4.22529 5.77115 5.05763
#
# Compressibility (1/GPa) = 0.07441292
#
# Stress axis : x y z
#
# Youngs Moduli (GPa) = 15.73774 54.01936 81.86907
#
# Poissons Ratio (x) = -0.25179 0.70408
# Poissons Ratio (y) = -0.07336 0.49028
# Poissons Ratio (z) = 0.13535 0.32350
#
# Static dielectric constant tensor:
#      x y z
#    x 1.941480 0.002300 -0.008470 
#    y 0.002300 1.931400 0.025930 
#    z -0.008470 0.025930 1.889890 
# 
# From -- ./inp_files/4200.got.cif
#   From: 2010.05.17/outbox.cif.g08.bks.cpg/sg1_3_cif.got.tgz:4200.got - 2010.05.17 20:27:59.
