data_PCOD9000776
_publ_section_title
;
Structure prediction by ZEFSAII (Michael W. Deem and Ramdas Pophale) SiO2 
 PCOD9000776
Probable space group: P 1
;
_chemical_formula_sum "Si O2"
_cell_formula_units_Z 8
_cell_length_a 7.166360
_cell_length_b 5.198555
_cell_length_c 11.814905
_cell_angle_alpha 73.837625
_cell_angle_beta 53.407396
_cell_angle_gamma 74.280574
_cell_volume 336.274581
_symmetry_space_group_name_H-M "P 1"
_symmetry_group_IT_number 1
_symmetry_cell_setting 'triclinic'
loop_
_space_group_symop_operation_xyz
x,y,z
loop_
_atom_site_type_symbol
_atom_site_label
_atom_site_fract_x
_atom_site_fract_y
_atom_site_fract_z
Si Si1 0.854650 0.617410 0.336430
Si Si2 0.727024 0.869734 0.593525
Si Si3 0.698568 0.350888 0.806846
Si Si4 0.072866 0.963530 0.061772
Si Si5 0.309655 0.238690 0.772166
Si Si6 0.092961 0.132946 0.546762
Si Si7 0.288652 0.383162 0.085735
Si Si8 0.354660 0.556698 0.503152
O O1 0.802352 0.732735 0.465252
O O2 0.632837 0.471933 0.402114
O O3 0.117177 0.456472 0.245926
O O4 0.853596 0.861284 0.214550
O O5 0.756258 0.644745 0.710259
O O6 0.890924 0.099047 0.532638
O O7 0.457180 0.998213 0.676805
O O8 0.495551 0.289609 0.797752
O O9 0.569398 0.336721 0.975562
O O10 0.932397 0.147783 0.717969
O O11 0.084688 0.153384 0.926305
O O12 0.224200 0.675227 0.009929
O O13 0.193366 0.126686 0.095189
O O14 0.274175 0.477647 0.667134
O O15 0.281309 0.875382 0.485855
O O16 0.222137 0.394142 0.480504
#
# Coordination Sequence:
#
# PCOD9000776 Si02
#       8
#     1   1   1   1   1   1   1   1
#     4  10  23  37  69  98 126 159 223 262 317 369
#     4  11  19  40  65 100 120 170 216 271 303 376
#     4  10  19  41  65  93 124 166 218 264 307 373
#     4   9  20  36  58  99 124 153 201 280 311 354
#     4  10  21  36  69  96 122 160 228 267 302 365
#     4  11  26  38  60  97 141 166 202 265 333 372
#     4   9  20  35  60  97 120 158 207 271 309 351
#     4  12  24  39  62 102 133 166 205 268 324 384
#
# _framework density 23.790082000000002
#
# number of rings (size 3 to 8) (size 9 to 14) (size 15 to 20)
#    0.750    1.000    3.750    0.750    3.500    0.000 
#    0.000    0.000    0.000   10.500    0.000    0.000 
#    0.000    0.000    0.000    0.000    0.000    0.000 
#
# Total GULP energy -44575.217963 kJ/mol
# GULP energy per Si atom -5571.902245 kJ/mol
# Density = 2.373593 g / cm^3
# Si number density = 23.790082 Si / 1000 Ang^3
#
#
#
# Elastic Constant Matrix: (Units=GPa)
#
#
# Indices 1 2 3 4 5 6 
#
# 1 69.0890 19.5001 33.9325 2.7868 -17.7488 16.1494
# 2 19.5001 102.7330 26.0049 8.1650 -14.3976 18.2816
# 3 33.9325 26.0049 158.3794 2.1572 -17.1195 14.1018
# 4 2.7868 8.1650 2.1572 43.8863 -5.5390 -5.4281
# 5 -17.7488 -14.3976 -17.1195 -5.5390 18.6690 -0.5757
# 6 16.1494 18.2816 14.1018 -5.4281 -0.5757 34.6960
#
#
#
# Elastic Compliance Matrix: (Units=1/GPa)
#
#
# Indices 1 2 3 4 5 6 
#
# 1 0.022659 0.000760 -0.001938 -0.000181 0.019993 -0.009856
# 2 0.000760 0.012358 -0.000598 -0.002036 0.008891 -0.006793
# 3 -0.001938 -0.000598 0.007469 0.000232 0.004561 -0.001706
# 4 -0.000181 -0.002036 0.000232 0.024528 0.005902 0.004998
# 5 0.019993 0.008891 0.004561 0.005902 0.084946 -0.013511
# 6 -0.009856 -0.006793 -0.001706 0.004998 -0.013511 0.038240
#
#
# Mechanical properties :
#
#
# Convention : Reuss Voigt Hill
#
# Bulk Modulus (GPa) = 25.68562 54.34181 40.01371
# Shear Modulus (GPa) = 24.18611 36.16788 30.17700
#
# Velocity S-wave (km/s) = 3.19195 3.90332 3.56542
# Velocity P-wave (km/s) = 4.94014 6.57316 5.81426
#
# Compressibility (1/GPa) = 0.03893229
#
# Stress axis : x y z
#
# Youngs Moduli (GPa) = 44.13306 80.92045 133.88158
#
# Poissons Ratio (x) = -0.06149 0.25950
# Poissons Ratio (y) = -0.03353 0.08010
# Poissons Ratio (z) = 0.08554 0.04842
#
# Static dielectric constant tensor:
#      x y z
#    x 1.932370 -0.013840 0.021410 
#    y -0.013840 1.937420 -0.025680 
#    z 0.021410 -0.025680 1.950750 
# 
# From -- ./inp_files/1546.got.cif
#   From: 2010.05.17/outbox.cif.g08.bks.cpg/sg1_1_cif.got.tgz:1546.got - 2010.05.17 20:27:59.
