data_PCOD9000594
_publ_section_title
;
Structure prediction by ZEFSAII (Michael W. Deem and Ramdas Pophale) SiO2 
 PCOD9000594
Probable space group: P 1
;
_chemical_formula_sum "Si O2"
_cell_formula_units_Z 8
_cell_length_a 7.401944
_cell_length_b 10.887058
_cell_length_c 6.416283
_cell_angle_alpha 92.891520
_cell_angle_beta 111.275825
_cell_angle_gamma 42.520659
_cell_volume 305.700467
_symmetry_space_group_name_H-M "P 1"
_symmetry_group_IT_number 1
_symmetry_cell_setting 'triclinic'
loop_
_space_group_symop_operation_xyz
x,y,z
loop_
_atom_site_type_symbol
_atom_site_label
_atom_site_fract_x
_atom_site_fract_y
_atom_site_fract_z
Si Si1 0.783190 0.496980 0.295420
Si Si2 0.178194 0.485641 0.668858
Si Si3 0.467890 0.460981 0.416096
Si Si4 0.129988 0.172726 0.121901
Si Si5 0.914831 0.857163 0.000848
Si Si6 0.230128 0.893164 0.880174
Si Si7 0.568009 0.181430 0.174355
Si Si8 0.519809 0.868512 0.627402
O O1 0.691265 0.463666 0.456754
O O2 0.089744 0.420061 0.465809
O O3 0.831867 0.380362 0.114424
O O4 0.520373 0.719421 0.135769
O O5 0.332778 0.512927 0.593292
O O6 0.404983 0.328259 0.925153
O O7 0.848998 0.677077 0.648123
O O8 0.609988 0.263243 0.376151
O O9 0.177641 0.634725 0.160501
O O10 0.293007 0.025906 0.371110
O O11 0.348994 0.177081 0.148124
O O12 0.088030 0.090901 0.920118
O O13 0.608276 0.934084 0.830454
O O14 0.006751 0.890479 0.839512
O O15 0.866135 0.973793 0.181831
O O16 0.365237 0.841221 0.702980
#
# Coordination Sequence:
#
# PCOD9000594 Si02
#       8
#     1   1   1   1   1   1   1   1
#     4  11  24  45  68  97 132 170 215 270 322 383
#     4  12  24  44  68  96 132 174 215 264 326 384
#     4  11  25  46  66  97 134 168 216 270 322 383
#     4  12  24  44  70  95 131 174 216 267 324 382
#     4  11  24  45  68  97 132 170 215 270 322 383
#     4  11  25  46  66  97 134 168 216 270 322 383
#     4  12  24  44  70  95 131 174 216 267 324 382
#     4  12  24  44  68  96 132 174 215 264 326 384
#
# _framework density 26.169404
#
# number of rings (size 3 to 8) (size 9 to 14) (size 15 to 20)
#    0.000    0.500    5.000    3.750    0.000    2.000 
#    4.500    0.000    0.000    0.000    0.000    0.000 
#    0.000    0.000    0.000    0.000    0.000    0.000 
#
# Total GULP energy -44888.590427 kJ/mol
# GULP energy per Si atom -5611.073803 kJ/mol
# Density = 2.610984 g / cm^3
# Si number density = 26.169404 Si / 1000 Ang^3
#
#
#
# Elastic Constant Matrix: (Units=GPa)
#
#
# Indices 1 2 3 4 5 6 
#
# 1 137.1764 6.0382 47.9632 3.9603 -47.2620 -0.2415
# 2 6.0382 129.8398 21.4169 30.2106 -10.3896 -1.0765
# 3 47.9632 21.4169 65.7742 2.9895 -17.7908 12.7613
# 4 3.9603 30.2106 2.9895 33.8630 -1.2382 -9.0748
# 5 -47.2620 -10.3896 -17.7908 -1.2382 65.4326 2.5105
# 6 -0.2415 -1.0765 12.7613 -9.0748 2.5105 30.0738
#
#
#
# Elastic Compliance Matrix: (Units=1/GPa)
#
#
# Indices 1 2 3 4 5 6 
#
# 1 0.012544 0.001644 -0.008278 -0.001219 0.006943 0.002725
# 2 0.001644 0.010556 -0.003498 -0.009545 0.001776 -0.001153
# 3 -0.008278 -0.003498 0.024729 -0.001033 0.000594 -0.011047
# 4 -0.001219 -0.009545 -0.001033 0.041636 -0.002382 0.012850
# 5 0.006943 0.001776 0.000594 -0.002382 0.020796 -0.002587
# 6 0.002725 -0.001153 -0.011047 0.012850 -0.002587 0.042013
#
#
# Mechanical properties :
#
#
# Convention : Reuss Voigt Hill
#
# Bulk Modulus (GPa) = 36.27701 53.73632 45.00667
# Shear Modulus (GPa) = 27.51403 43.03203 35.27303
#
# Velocity S-wave (km/s) = 3.24602 4.05948 3.67532
# Velocity P-wave (km/s) = 5.28596 6.52312 5.93685
#
# Compressibility (1/GPa) = 0.02756567
#
# Stress axis : x y z
#
# Youngs Moduli (GPa) = 79.71990 94.73578 40.43786
#
# Poissons Ratio (x) = -0.15572 0.33473
# Poissons Ratio (y) = -0.13104 0.14144
# Poissons Ratio (z) = 0.65989 0.33137
#
# Static dielectric constant tensor:
#      x y z
#    x 1.980630 0.016070 0.013760 
#    y 0.016070 2.075400 0.083430 
#    z 0.013760 0.083430 2.016420 
# 
# From -- ./inp_files/1630.got.cif
#   From: 2010.05.17/outbox.cif.g08.bks.cpg/sg1_1_cif.got.tgz:1630.got - 2010.05.17 20:27:59.
