data_PCOD9000256
_publ_section_title
;
Structure prediction by ZEFSAII (Michael W. Deem and Ramdas Pophale) SiO2 
 PCOD9000256
Probable space group: P 1
;
_chemical_formula_sum "Si O2"
_cell_formula_units_Z 8
_cell_length_a 7.810049
_cell_length_b 9.383022
_cell_length_c 10.696920
_cell_angle_alpha 42.550001
_cell_angle_beta 58.489570
_cell_angle_gamma 76.411052
_cell_volume 436.346869
_symmetry_space_group_name_H-M "P 1"
_symmetry_group_IT_number 1
_symmetry_cell_setting 'triclinic'
loop_
_space_group_symop_operation_xyz
x,y,z
loop_
_atom_site_type_symbol
_atom_site_label
_atom_site_fract_x
_atom_site_fract_y
_atom_site_fract_z
Si Si1 0.744300 0.512630 0.123460
Si Si2 0.693075 0.170908 0.562134
Si Si3 0.917842 0.444230 0.836442
Si Si4 0.741301 0.951060 0.225195
Si Si5 0.874034 0.883681 0.493925
Si Si6 0.963072 0.623000 0.215261
Si Si7 0.293975 0.790196 0.385071
Si Si8 0.411227 0.782045 0.055372
O O1 0.625476 0.303289 0.386948
O O2 0.581608 0.645931 0.061773
O O3 0.913398 0.644764 0.073403
O O4 0.862677 0.451764 0.998843
O O5 0.850349 0.367666 0.449117
O O6 0.807442 0.008509 0.554566
O O7 0.514356 0.026098 0.809193
O O8 0.808300 0.620164 0.703469
O O9 0.158935 0.556394 0.640227
O O10 0.840600 0.197302 0.981290
O O11 0.783255 0.945652 0.360196
O O12 0.499456 0.882044 0.326997
O O13 0.851947 0.780364 0.230562
O O14 0.124991 0.932723 0.362681
O O15 0.202349 0.681972 0.122611
O O16 0.355894 0.775619 0.227024
#
# Coordination Sequence:
#
# PCOD9000256 Si02
#       8
#     1   1   1   1   1   1   1   1
#     4  10  22  45  61  94 129 159 212 255 306 374
#     4  10  23  44  64  92 128 163 206 262 302 374
#     4  10  23  44  64  92 128 163 206 262 302 374
#     4  12  21  44  64  91 132 160 208 259 310 365
#     4  10  22  45  61  94 129 159 212 255 306 374
#     4  10  24  39  65  97 117 170 208 248 318 365
#     4  10  24  39  65  97 117 170 208 248 318 365
#     4  12  21  44  64  91 132 160 208 259 310 365
#
# _framework density 18.334038
#
# number of rings (size 3 to 8) (size 9 to 14) (size 15 to 20)
#    1.500    0.000    5.000    0.000    0.000    6.000 
#    4.500    0.000    0.000    0.000    0.000    0.000 
#    0.000    0.000    0.000    0.000    0.000    0.000 
#
# Total GULP energy -44542.531600 kJ/mol
# GULP energy per Si atom -5567.816450 kJ/mol
# Density = 1.829231 g / cm^3
# Si number density = 18.334038 Si / 1000 Ang^3
#
#
#
# Elastic Constant Matrix: (Units=GPa)
#
#
# Indices 1 2 3 4 5 6 
#
# 1 130.3222 37.0106 58.6311 -10.0609 -22.2309 7.3880
# 2 37.0106 87.4562 44.0034 -11.2382 3.1646 -3.7866
# 3 58.6311 44.0034 150.1001 -18.6275 -3.5543 2.5687
# 4 -10.0609 -11.2382 -18.6275 37.0252 4.7696 0.8550
# 5 -22.2309 3.1646 -3.5543 4.7696 22.1721 -6.8307
# 6 7.3880 -3.7866 2.5687 0.8550 -6.8307 6.2388
#
#
#
# Elastic Compliance Matrix: (Units=1/GPa)
#
#
# Indices 1 2 3 4 5 6 
#
# 1 0.012571 -0.004273 -0.003464 -0.001117 0.012073 -0.002682
# 2 -0.004273 0.015631 -0.002899 0.002409 -0.004151 0.010867
# 3 -0.003464 -0.002899 0.009324 0.003603 -0.004456 -0.006868
# 4 -0.001117 0.002409 0.003603 0.031304 -0.012888 -0.017099
# 5 0.012073 -0.004151 -0.004456 -0.012888 0.084180 0.078952
# 6 -0.002682 0.010867 -0.006868 -0.017099 0.078952 0.261672
#
#
# Mechanical properties :
#
#
# Convention : Reuss Voigt Hill
#
# Bulk Modulus (GPa) = 61.52410 71.90761 66.71585
# Shear Modulus (GPa) = 11.32829 28.30279 19.81554
#
# Velocity S-wave (km/s) = 2.48842 3.93329 3.29113
# Velocity P-wave (km/s) = 6.47198 7.74169 7.13513
#
# Compressibility (1/GPa) = 0.01625379
#
# Stress axis : x y z
#
# Youngs Moduli (GPa) = 79.55032 63.97403 107.24646
#
# Poissons Ratio (x) = 0.27338 0.37155
# Poissons Ratio (y) = 0.33994 0.31087
# Poissons Ratio (z) = 0.27560 0.18544
#
# Static dielectric constant tensor:
#      x y z
#    x 1.623970 -0.011540 0.030050 
#    y -0.011540 1.631910 -0.008330 
#    z 0.030050 -0.008330 1.649310 
# 
# From -- ./inp_files/6341.got.cif
#   From: 2010.05.17/outbox.cif.g08.bks.cpg/sg1_4_cif.got.tgz:6341.got - 2010.05.17 20:27:59.
