data_PCOD9000504
_publ_section_title
;
Structure prediction by ZEFSAII (Michael W. Deem and Ramdas Pophale) SiO2 
 PCOD9000504
Probable space group: P 1
;
_chemical_formula_sum "Si O2"
_cell_formula_units_Z 8
_cell_length_a 4.944609
_cell_length_b 13.522124
_cell_length_c 5.823309
_cell_angle_alpha 110.394011
_cell_angle_beta 82.488054
_cell_angle_gamma 121.934568
_cell_volume 309.012431
_symmetry_space_group_name_H-M "P 1"
_symmetry_group_IT_number 1
_symmetry_cell_setting 'triclinic'
loop_
_space_group_symop_operation_xyz
x,y,z
loop_
_atom_site_type_symbol
_atom_site_label
_atom_site_fract_x
_atom_site_fract_y
_atom_site_fract_z
Si Si1 0.211510 0.990830 0.731720
Si Si2 0.862161 0.741178 0.375590
Si Si3 0.471079 0.784707 0.111062
Si Si4 0.744989 0.040371 0.036691
Si Si5 0.305671 0.339113 0.785464
Si Si6 0.625134 0.186636 0.512958
Si Si7 0.178124 0.523116 0.772008
Si Si8 0.212025 0.481411 0.242575
O O1 0.523082 0.999822 0.806585
O O2 0.933691 0.848519 0.634130
O O3 0.089595 0.064814 0.953618
O O4 0.322439 0.058693 0.532126
O O5 0.556155 0.607079 0.340186
O O6 0.768352 0.783235 0.186483
O O7 0.196274 0.750047 0.304098
O O8 0.585476 0.919631 0.117214
O O9 0.313156 0.668316 0.862184
O O10 0.728242 0.151952 0.239579
O O11 0.512395 0.282769 0.641819
O O12 0.411698 0.468159 0.743536
O O13 0.942722 0.240949 0.675270
O O14 0.286912 0.375609 0.078974
O O15 0.039633 0.467444 0.491090
O O16 0.047051 0.490847 0.028838
#
# Coordination Sequence:
#
# PCOD9000504 Si02
#       8
#     1   1   1   1   1   1   1   1
#     4  12  26  44  74 110 142 192 241 305 373 442
#     4  11  23  43  73 104 148 185 235 305 376 447
#     4  11  23  43  73 104 148 185 235 305 376 447
#     4  12  26  44  74 110 142 192 241 305 373 442
#     4  10  26  44  74  98 144 202 248 302 362 434
#     4  12  26  50  68 106 146 194 248 304 360 438
#     4   9  22  45  72 107 141 194 239 306 367 437
#     4   9  22  45  72 107 141 194 239 306 367 437
#
# _framework density 25.888928
#
# number of rings (size 3 to 8) (size 9 to 14) (size 15 to 20)
#    0.750    0.500    1.250    3.750    3.500    5.000 
#    0.000    5.000    0.000    0.000    0.000    0.000 
#    0.000    0.000    0.000    0.000    0.000    0.000 
#
# Total GULP energy -44662.914706 kJ/mol
# GULP energy per Si atom -5582.864338 kJ/mol
# Density = 2.583000 g / cm^3
# Si number density = 25.888928 Si / 1000 Ang^3
#
#
#
# Elastic Constant Matrix: (Units=GPa)
#
#
# Indices 1 2 3 4 5 6 
#
# 1 85.8550 29.6152 29.7664 7.7273 -21.6733 6.8664
# 2 29.6152 89.7770 38.3471 7.8848 -17.3204 10.1287
# 3 29.7664 38.3471 148.1746 24.3383 -18.0014 -12.4458
# 4 7.7273 7.8848 24.3383 43.6756 -3.3341 -2.4322
# 5 -21.6733 -17.3204 -18.0014 -3.3341 36.9179 5.8031
# 6 6.8664 10.1287 -12.4458 -2.4322 5.8031 33.0756
#
#
#
# Elastic Compliance Matrix: (Units=1/GPa)
#
#
# Indices 1 2 3 4 5 6 
#
# 1 0.015471 -0.002209 -0.001817 -0.000990 0.007803 -0.004661
# 2 -0.002209 0.014998 -0.003273 -0.000455 0.005091 -0.006292
# 3 -0.001817 -0.003273 0.009051 -0.003829 0.000779 0.004367
# 4 -0.000990 -0.000455 -0.003829 0.025295 -0.000511 0.000854
# 5 0.007803 0.005091 0.000779 -0.000511 0.035839 -0.009212
# 6 -0.004661 -0.006292 0.004367 0.000854 -0.009212 0.036450
#
#
# Mechanical properties :
#
#
# Convention : Reuss Voigt Hill
#
# Bulk Modulus (GPa) = 40.12562 57.69603 48.91083
# Shear Modulus (GPa) = 31.24804 37.80568 34.52686
#
# Velocity S-wave (km/s) = 3.47797 3.82554 3.65588
# Velocity P-wave (km/s) = 5.62682 6.46895 6.06253
#
# Compressibility (1/GPa) = 0.02492173
#
# Stress axis : x y z
#
# Youngs Moduli (GPa) = 64.63551 66.67774 110.48308
#
# Poissons Ratio (x) = 0.14730 0.20077
# Poissons Ratio (y) = 0.14279 0.36159
# Poissons Ratio (z) = 0.11746 0.21822
#
# Static dielectric constant tensor:
#      x y z
#    x 1.959140 -0.017050 0.002870 
#    y -0.017050 2.098820 -0.022710 
#    z 0.002870 -0.022710 2.066200 
# 
# From -- ./inp_files/692.got.cif
#   From: 2010.05.17/outbox.cif.g08.bks.cpg/sg1_1_cif.got.tgz:692.got - 2010.05.17 20:27:59.
