data_PCOD9000007
_publ_section_title
;
Structure prediction by ZEFSAII (Michael W. Deem and Ramdas Pophale) SiO2 
 PCOD9000007
Probable space group: P 1
;
_chemical_formula_sum "Si O2"
_cell_formula_units_Z 8
_cell_length_a 7.974271
_cell_length_b 7.146243
_cell_length_c 7.522394
_cell_angle_alpha 78.698905
_cell_angle_beta 107.431350
_cell_angle_gamma 54.594353
_cell_volume 293.312552
_symmetry_space_group_name_H-M "P 1"
_symmetry_group_IT_number 1
_symmetry_cell_setting 'triclinic'
loop_
_space_group_symop_operation_xyz
x,y,z
loop_
_atom_site_type_symbol
_atom_site_label
_atom_site_fract_x
_atom_site_fract_y
_atom_site_fract_z
Si Si1 0.693390 0.902430 0.864950
Si Si2 0.154882 0.122131 0.966533
Si Si3 0.653712 0.368349 0.899490
Si Si4 0.161446 0.689080 0.124773
Si Si5 0.668304 0.294307 0.337596
Si Si6 0.141575 0.862530 0.484608
Si Si7 0.175829 0.252478 0.549359
Si Si8 0.668969 0.721982 0.257994
O O1 0.686698 0.126866 0.888646
O O2 0.459422 0.069800 0.638602
O O3 0.652000 0.778467 0.030754
O O4 0.978634 0.686906 0.963107
O O5 0.161491 0.218829 0.761384
O O6 0.883211 0.324317 0.919510
O O7 0.192748 0.864808 0.995665
O O8 0.401277 0.995606 0.174556
O O9 0.397614 0.622511 0.693301
O O10 0.652793 0.347610 0.113379
O O11 0.413734 0.397764 0.283375
O O12 0.114524 0.804465 0.288113
O O13 0.673519 0.503816 0.381295
O O14 0.901362 0.993757 0.498872
O O15 0.118573 0.109511 0.439391
O O16 0.953036 0.564644 0.400558
#
# Coordination Sequence:
#
# PCOD9000007 Si02
#       8
#     1   1   1   1   1   1   1   1
#     4  10  21  40  59  95 129 163 195 262 317 361
#     4   9  19  37  60  93 118 163 203 247 301 366
#     4  11  22  36  66  91 128 160 211 254 307 363
#     4  10  21  40  68  87 127 162 208 259 304 360
#     4  10  21  42  63  91 120 171 206 256 297 372
#     4  11  22  38  65  96 118 162 216 248 300 374
#     4  10  22  39  66  91 128 161 204 259 309 366
#     4   9  20  38  65  86 126 160 207 247 313 358
#
# _framework density 27.274660999999998
#
# number of rings (size 3 to 8) (size 9 to 14) (size 15 to 20)
#    0.000    2.000    2.500    2.250    7.000    0.000 
#    0.000    5.000    0.000    9.000    0.000    0.000 
#    0.000    0.000    0.000    0.000    0.000    0.000 
#
# Total GULP energy -44599.736221 kJ/mol
# GULP energy per Si atom -5574.967028 kJ/mol
# Density = 2.721258 g / cm^3
# Si number density = 27.274661 Si / 1000 Ang^3
#
#
#
# Elastic Constant Matrix: (Units=GPa)
#
#
# Indices 1 2 3 4 5 6 
#
# 1 54.7103 32.8296 31.8501 -18.3174 30.7348 -5.2285
# 2 32.8296 88.6671 42.9481 -23.6299 21.5481 -16.5433
# 3 31.8501 42.9481 174.7179 -44.6084 34.1540 -28.0642
# 4 -18.3174 -23.6299 -44.6084 49.0941 -18.3293 22.0004
# 5 30.7348 21.5481 34.1540 -18.3293 61.5182 -19.5363
# 6 -5.2285 -16.5433 -28.0642 22.0004 -19.5363 51.5727
#
#
#
# Elastic Compliance Matrix: (Units=1/GPa)
#
#
# Indices 1 2 3 4 5 6 
#
# 1 0.032503 -0.008148 -0.001062 0.005498 -0.013492 -0.007353
# 2 -0.008148 0.015972 -0.001586 0.002297 0.000932 0.002808
# 3 -0.001062 -0.001586 0.008088 0.005166 -0.001550 0.000995
# 4 0.005498 0.002297 0.005166 0.032670 0.000219 -0.009749
# 5 -0.013492 0.000932 -0.001550 0.000219 0.026098 0.007881
# 6 -0.007353 0.002808 0.000995 -0.009749 0.007881 0.027231
#
#
# Mechanical properties :
#
#
# Convention : Reuss Voigt Hill
#
# Bulk Modulus (GPa) = 28.59383 59.26121 43.92752
# Shear Modulus (GPa) = 28.43965 46.46819 37.45392
#
# Velocity S-wave (km/s) = 3.23261 4.13208 3.70971
# Velocity P-wave (km/s) = 4.94363 6.67385 5.87280
#
# Compressibility (1/GPa) = 0.03497257
#
# Stress axis : x y z
#
# Youngs Moduli (GPa) = 30.76629 62.60801 123.63257
#
# Poissons Ratio (x) = 0.51011 0.13132
# Poissons Ratio (y) = 0.25068 0.19605
# Poissons Ratio (z) = 0.03268 0.09928
#
# Static dielectric constant tensor:
#      x y z
#    x 2.358690 -0.104590 0.149210 
#    y -0.104590 2.228900 -0.089410 
#    z 0.149210 -0.089410 2.146760 
# 
# From -- ./inp_files/4047.got.cif
#   From: 2010.05.17/outbox.cif.g08.bks.cpg/sg1_3_cif.got.tgz:4047.got - 2010.05.17 20:27:59.
