data_PCOD9000283
_publ_section_title
;
Structure prediction by ZEFSAII (Michael W. Deem and Ramdas Pophale) SiO2 
 PCOD9000283
Probable space group: P 1
;
_chemical_formula_sum "Si O2"
_cell_formula_units_Z 8
_cell_length_a 8.876058
_cell_length_b 7.701749
_cell_length_c 8.457886
_cell_angle_alpha 49.713216
_cell_angle_beta 106.598876
_cell_angle_gamma 73.986222
_cell_volume 328.229357
_symmetry_space_group_name_H-M "P 1"
_symmetry_group_IT_number 1
_symmetry_cell_setting 'triclinic'
loop_
_space_group_symop_operation_xyz
x,y,z
loop_
_atom_site_type_symbol
_atom_site_label
_atom_site_fract_x
_atom_site_fract_y
_atom_site_fract_z
Si Si1 0.763160 0.229840 0.306260
Si Si2 0.180389 0.931659 0.208970
Si Si3 0.276719 0.298107 0.127925
Si Si4 0.726284 0.780093 0.485295
Si Si5 0.131481 0.233921 0.437125
Si Si6 0.352181 0.716618 0.035626
Si Si7 0.862799 0.830291 0.172515
Si Si8 0.588726 0.438746 0.779244
O O1 0.596421 0.469510 0.241376
O O2 0.968484 0.184138 0.383495
O O3 0.808474 0.920346 0.528050
O O4 0.647116 0.361951 0.025500
O O5 0.269811 0.800250 0.139374
O O6 0.000950 0.922985 0.196473
O O7 0.356496 0.702268 0.519723
O O8 0.133368 0.245558 0.026480
O O9 0.273254 0.191723 0.364514
O O10 0.263248 0.577862 0.995595
O O11 0.487418 0.066397 0.237140
O O12 0.710071 0.543344 0.685916
O O13 0.827145 0.708384 0.386970
O O14 0.983201 0.577133 0.231701
O O15 0.271228 0.014757 0.748463
O O16 0.652579 0.146063 0.883932
#
# Coordination Sequence:
#
# PCOD9000283 Si02
#       8
#     1   1   1   1   1   1   1   1
#     4  10  24  44  69 102 136 182 228 281 346 404
#     4  11  24  46  73 100 139 182 228 285 343 403
#     4  10  22  47  68 101 135 181 227 276 347 400
#     4   9  21  42  69  97 129 177 231 270 343 400
#     4  12  26  45  68 104 143 177 233 280 341 414
#     4  11  25  46  68 105 141 178 228 286 343 404
#     4  11  25  43  66 107 134 182 231 275 344 404
#     4  10  23  47  69  98 139 179 228 287 339 407
#
# _framework density 24.373200000000001
#
# number of rings (size 3 to 8) (size 9 to 14) (size 15 to 20)
#    0.000    1.500    1.250    3.000    5.250    3.000 
#   18.000    0.000    0.000    0.000    0.000    0.000 
#    0.000    0.000    0.000    0.000    0.000    0.000 
#
# Total GULP energy -44710.734199 kJ/mol
# GULP energy per Si atom -5588.841775 kJ/mol
# Density = 2.431773 g / cm^3
# Si number density = 24.373200 Si / 1000 Ang^3
#
#
#
# Elastic Constant Matrix: (Units=GPa)
#
#
# Indices 1 2 3 4 5 6 
#
# 1 105.2808 -21.5699 5.9554 12.0939 -20.9198 1.0665
# 2 -21.5699 77.2149 13.8393 -8.0705 -17.8714 -0.5493
# 3 5.9554 13.8393 67.8020 -14.3007 -16.2979 -2.8264
# 4 12.0939 -8.0705 -14.3007 30.0137 3.4039 -16.2867
# 5 -20.9198 -17.8714 -16.2979 3.4039 38.7474 2.5659
# 6 1.0665 -0.5493 -2.8264 -16.2867 2.5659 50.3920
#
#
#
# Elastic Compliance Matrix: (Units=1/GPa)
#
#
# Indices 1 2 3 4 5 6 
#
# 1 0.013710 0.005657 -0.001688 -0.007789 0.010208 -0.003360
# 2 0.005657 0.017219 -0.001493 0.000202 0.010382 -0.000479
# 3 -0.001688 -0.001493 0.018961 0.011134 0.005105 0.004421
# 4 -0.007789 0.000202 0.011134 0.052118 -0.005193 0.017900
# 5 0.010208 0.010382 0.005105 -0.005193 0.038942 -0.003478
# 6 -0.003360 -0.000479 0.004421 0.017900 -0.003478 0.026121
#
#
# Mechanical properties :
#
#
# Convention : Reuss Voigt Hill
#
# Bulk Modulus (GPa) = 18.23407 27.41637 22.82522
# Shear Modulus (GPa) = 27.71602 40.63548 34.17575
#
# Velocity S-wave (km/s) = 3.37583 4.08759 3.74864
# Velocity P-wave (km/s) = 4.76365 5.79231 5.30298
#
# Compressibility (1/GPa) = 0.05484238
#
# Stress axis : x y z
#
# Youngs Moduli (GPa) = 72.93922 58.07375 52.73848
#
# Poissons Ratio (x) = -0.32853 0.08902
# Poissons Ratio (y) = -0.41262 0.07876
# Poissons Ratio (z) = 0.12312 0.08673
#
# Static dielectric constant tensor:
#      x y z
#    x 1.932740 0.033650 0.043580 
#    y 0.033650 1.975030 -0.034840 
#    z 0.043580 -0.034840 1.927300 
# 
# From -- ./inp_files/4088.got.cif
#   From: 2010.05.17/outbox.cif.g08.bks.cpg/sg1_3_cif.got.tgz:4088.got - 2010.05.17 20:27:59.
