data_PCOD9000403
_publ_section_title
;
Structure prediction by ZEFSAII (Michael W. Deem and Ramdas Pophale) SiO2 
 PCOD9000403
Probable space group: P 1
;
_chemical_formula_sum "Si O2"
_cell_formula_units_Z 8
_cell_length_a 19.911499
_cell_length_b 7.591955
_cell_length_c 7.013106
_cell_angle_alpha 119.814153
_cell_angle_beta 35.094584
_cell_angle_gamma 142.307701
_cell_volume 336.904522
_symmetry_space_group_name_H-M "P 1"
_symmetry_group_IT_number 1
_symmetry_cell_setting 'triclinic'
loop_
_space_group_symop_operation_xyz
x,y,z
loop_
_atom_site_type_symbol
_atom_site_label
_atom_site_fract_x
_atom_site_fract_y
_atom_site_fract_z
Si Si1 0.200930 0.722750 0.778680
Si Si2 0.243381 0.222860 0.992499
Si Si3 0.036146 0.160742 0.123422
Si Si4 0.528161 0.151451 0.728965
Si Si5 0.768137 0.666658 0.165604
Si Si6 0.650204 0.909871 0.437648
Si Si7 0.121876 0.474819 0.445083
Si Si8 0.621101 0.221187 0.951277
O O1 0.095704 0.584869 0.744260
O O2 0.181469 0.916700 0.021985
O O3 0.414881 0.965717 0.370300
O O4 0.131339 0.450138 0.922892
O O5 0.459598 0.536727 0.655969
O O6 0.169035 0.181896 0.933486
O O7 0.172316 0.319209 0.330947
O O8 0.979506 0.227275 0.474794
O O9 0.904376 0.858457 0.129863
O O10 0.577195 0.367777 0.563315
O O11 0.634898 0.076827 0.414660
O O12 0.610224 0.335495 0.840694
O O13 0.314252 0.809417 0.077831
O O14 0.784830 0.902719 0.143765
O O15 0.765400 0.494433 0.915087
O O16 0.656526 0.043104 0.694265
#
# Coordination Sequence:
#
# PCOD9000403 Si02
#       8
#     1   1   1   1   1   1   1   1
#     4  11  18  40  63  78 118 150 185 242 271 331
#     4   9  19  39  58  85 111 149 195 224 286 326
#     4  10  24  37  55  91 115 149 190 224 286 349
#     4   8  19  39  57  81 113 142 193 237 260 337
#     4  12  21  39  59  82 123 150 176 239 293 323
#     4   9  20  39  59  89 106 147 200 228 277 336
#     4   8  19  41  52  86 113 140 199 232 261 342
#     4   9  20  38  59  88 107 145 202 228 274 338
#
# _framework density 23.745598999999999
#
# number of rings (size 3 to 8) (size 9 to 14) (size 15 to 20)
#    1.500    1.000    2.500    0.750    0.000    2.000 
#   11.250    0.000    0.000    0.000    0.000    0.000 
#    0.000    0.000    0.000    0.000    0.000    0.000 
#
# Total GULP energy -44534.974957 kJ/mol
# GULP energy per Si atom -5566.871870 kJ/mol
# Density = 2.369155 g / cm^3
# Si number density = 23.745599 Si / 1000 Ang^3
#
#
#
# Elastic Constant Matrix: (Units=GPa)
#
#
# Indices 1 2 3 4 5 6 
#
# 1 88.6709 42.8810 12.8406 -12.3695 3.5629 18.0172
# 2 42.8810 139.1074 19.1931 -12.4747 -1.4243 26.4909
# 3 12.8406 19.1931 43.1589 -5.1838 5.1398 -5.0335
# 4 -12.3695 -12.4747 -5.1838 14.7236 4.0114 3.7234
# 5 3.5629 -1.4243 5.1398 4.0114 23.1680 -7.3687
# 6 18.0172 26.4909 -5.0335 3.7234 -7.3687 63.4546
#
#
#
# Elastic Compliance Matrix: (Units=1/GPa)
#
#
# Indices 1 2 3 4 5 6 
#
# 1 0.015959 -0.002529 -0.001853 0.013597 -0.006187 -0.005139
# 2 -0.002529 0.009730 -0.003225 0.006183 -0.000652 -0.004038
# 3 -0.001853 -0.003225 0.026947 0.006087 -0.006005 0.002956
# 4 0.013597 0.006183 0.006087 0.097057 -0.024477 -0.014496
# 5 -0.006187 -0.000652 -0.006005 -0.024477 0.052536 0.009090
# 6 -0.005139 -0.004038 0.002956 -0.014496 0.009090 0.021045
#
#
# Mechanical properties :
#
#
# Convention : Reuss Voigt Hill
#
# Bulk Modulus (GPa) = 26.72280 46.75186 36.73733
# Shear Modulus (GPa) = 19.92343 33.33740 26.63042
#
# Velocity S-wave (km/s) = 2.89976 3.75098 3.35250
# Velocity P-wave (km/s) = 4.74233 6.20413 5.52182
#
# Compressibility (1/GPa) = 0.03742122
#
# Stress axis : x y z
#
# Youngs Moduli (GPa) = 62.66226 102.77353 37.11031
#
# Poissons Ratio (x) = 0.25993 0.06875
# Poissons Ratio (y) = 0.15848 0.11969
# Poissons Ratio (z) = 0.11609 0.33148
#
# Static dielectric constant tensor:
#      x y z
#    x 1.882070 0.048660 -0.039550 
#    y 0.048660 1.896500 -0.021400 
#    z -0.039550 -0.021400 2.032480 
# 
# From -- ./inp_files/5865.got.cif
#   From: 2010.05.17/outbox.cif.g08.bks.cpg/sg1_3_cif.got.tgz:5865.got - 2010.05.17 20:27:59.
