data_PCOD9000421
_publ_section_title
;
Structure prediction by ZEFSAII (Michael W. Deem and Ramdas Pophale) SiO2 
 PCOD9000421
Probable space group: P 1
;
_chemical_formula_sum "Si O2"
_cell_formula_units_Z 8
_cell_length_a 8.834795
_cell_length_b 8.685361
_cell_length_c 7.623053
_cell_angle_alpha 96.456331
_cell_angle_beta 47.074872
_cell_angle_gamma 69.110712
_cell_volume 341.973242
_symmetry_space_group_name_H-M "P 1"
_symmetry_group_IT_number 1
_symmetry_cell_setting 'triclinic'
loop_
_space_group_symop_operation_xyz
x,y,z
loop_
_atom_site_type_symbol
_atom_site_label
_atom_site_fract_x
_atom_site_fract_y
_atom_site_fract_z
Si Si1 0.190020 0.211670 0.616090
Si Si2 0.855470 0.285134 0.220969
Si Si3 0.752310 0.841382 0.143105
Si Si4 0.644751 0.734294 0.853031
Si Si5 0.279047 0.533012 0.568570
Si Si6 0.317490 0.618389 0.153921
Si Si7 0.108297 0.043780 0.313965
Si Si8 0.968245 0.579301 0.263237
O O1 0.159513 0.412318 0.667669
O O2 0.103730 0.165422 0.496561
O O3 0.500856 0.060571 0.379164
O O4 0.026936 0.199002 0.896303
O O5 0.554418 0.424801 0.430496
O O6 0.953590 0.405593 0.232193
O O7 0.918002 0.141827 0.313203
O O8 0.669879 0.770620 0.037143
O O9 0.786663 0.736993 0.283898
O O10 0.049215 0.750630 0.844963
O O11 0.581871 0.581724 0.882653
O O12 0.398683 0.933361 0.994758
O O13 0.881156 0.664224 0.537288
O O14 0.341135 0.537402 0.316775
O O15 0.245186 0.533204 0.044828
O O16 0.130293 0.854903 0.337430
#
# Coordination Sequence:
#
# PCOD9000421 Si02
#       8
#     1   1   1   1   1   1   1   1
#     4  11  26  50  74 104 153 191 246 307 361 436
#     4  12  27  45  72 115 146 189 249 304 364 437
#     4  11  24  47  73 104 146 193 238 300 363 429
#     4   9  22  45  68 100 139 192 240 289 359 428
#     4  12  26  47  73 113 147 192 245 297 373 434
#     4  10  24  44  73 106 144 195 242 296 369 434
#     4   9  24  48  70 102 146 189 243 303 359 430
#     4  12  23  42  75  98 147 189 243 298 354 438
#
# _framework density 23.393643999999998
#
# number of rings (size 3 to 8) (size 9 to 14) (size 15 to 20)
#    0.750    0.500    2.500    2.250    3.500    1.000 
#    0.000    0.000    0.000    0.000    0.000    0.000 
#    0.000    0.000    0.000    0.000    0.000    0.000 
#
# Total GULP energy -44606.244992 kJ/mol
# GULP energy per Si atom -5575.780624 kJ/mol
# Density = 2.334040 g / cm^3
# Si number density = 23.393644 Si / 1000 Ang^3
#
#
#
# Elastic Constant Matrix: (Units=GPa)
#
#
# Indices 1 2 3 4 5 6 
#
# 1 102.8633 30.2387 31.0293 -2.0332 -11.1072 -19.1521
# 2 30.2387 75.9673 13.5639 0.4174 0.8597 -17.7824
# 3 31.0293 13.5639 99.7677 6.9473 -8.9943 -15.2059
# 4 -2.0332 0.4174 6.9473 29.8470 -13.2980 -0.8580
# 5 -11.1072 0.8597 -8.9943 -13.2980 33.3219 6.2847
# 6 -19.1521 -17.7824 -15.2059 -0.8580 6.2847 44.1344
#
#
#
# Elastic Compliance Matrix: (Units=1/GPa)
#
#
# Indices 1 2 3 4 5 6 
#
# 1 0.012817 -0.004114 -0.002917 0.003748 0.004651 0.002310
# 2 -0.004114 0.016095 -0.000330 -0.001878 -0.003579 0.005059
# 3 -0.002917 -0.000330 0.011586 -0.002508 0.000702 0.002445
# 4 0.003748 -0.001878 -0.002508 0.042253 0.017805 -0.001708
# 5 0.004651 -0.003579 0.000702 0.017805 0.039797 -0.004503
# 6 0.002310 0.005059 0.002445 -0.001708 -0.004503 0.027149
#
#
# Mechanical properties :
#
#
# Convention : Reuss Voigt Hill
#
# Bulk Modulus (GPa) = 38.79246 47.58468 43.18857
# Shear Modulus (GPa) = 28.90002 35.04510 31.97256
#
# Velocity S-wave (km/s) = 3.51861 3.87468 3.70093
# Velocity P-wave (km/s) = 5.75552 6.35630 6.06335
#
# Compressibility (1/GPa) = 0.02577820
#
# Stress axis : x y z
#
# Youngs Moduli (GPa) = 78.02000 62.13142 86.31340
#
# Poissons Ratio (x) = 0.25558 0.25175
# Poissons Ratio (y) = 0.32094 0.02845
# Poissons Ratio (z) = 0.22756 0.02048
#
# Static dielectric constant tensor:
#      x y z
#    x 1.886680 -0.008750 -0.011450 
#    y -0.008750 1.892770 0.037120 
#    z -0.011450 0.037120 1.919310 
# 
# From -- ./inp_files/4297.got.cif
#   From: 2010.05.17/outbox.cif.g08.bks.cpg/sg1_3_cif.got.tgz:4297.got - 2010.05.17 20:27:59.
