data_PCOD9000888
_publ_section_title
;
Structure prediction by ZEFSAII (Michael W. Deem and Ramdas Pophale) SiO2 
 PCOD9000888
Probable space group: P 1
;
_chemical_formula_sum "Si O2"
_cell_formula_units_Z 8
_cell_length_a 11.643982
_cell_length_b 16.315385
_cell_length_c 15.187669
_cell_angle_alpha 161.937189
_cell_angle_beta 26.669240
_cell_angle_gamma 152.320521
_cell_volume 387.879662
_symmetry_space_group_name_H-M "P 1"
_symmetry_group_IT_number 1
_symmetry_cell_setting 'triclinic'
loop_
_space_group_symop_operation_xyz
x,y,z
loop_
_atom_site_type_symbol
_atom_site_label
_atom_site_fract_x
_atom_site_fract_y
_atom_site_fract_z
Si Si1 0.432930 0.215250 0.171250
Si Si2 0.685218 0.742045 0.445753
Si Si3 0.584925 0.320585 0.808482
Si Si4 0.529944 0.363895 0.450661
Si Si5 0.271551 0.821130 0.166285
Si Si6 0.828965 0.901936 0.308491
Si Si7 0.362068 0.995156 0.474437
Si Si8 0.113359 0.414526 0.142518
O O1 0.476929 0.451268 0.308507
O O2 0.563600 0.362245 0.321386
O O3 0.127741 0.074582 0.260400
O O4 0.572358 0.983078 0.808502
O O5 0.764286 0.807330 0.356595
O O6 0.955986 0.728858 0.295606
O O7 0.646294 0.100744 0.608236
O O8 0.597543 0.192127 0.570845
O O9 0.766446 0.621395 0.008735
O O10 0.282622 0.352479 0.046122
O O11 0.809169 0.402605 0.347711
O O12 0.345035 0.073918 0.308435
O O13 0.386952 0.587896 0.808469
O O14 0.405025 0.920020 0.269264
O O15 0.258892 0.711892 0.308463
O O16 0.144609 0.173799 0.808476
#
# Coordination Sequence:
#
# PCOD9000888 Si02
#       8
#     1   1   1   1   1   1   1   1
#     4  12  26  45  71 105 142 184 227 292 354 407
#     4  12  26  45  71 105 142 184 227 292 354 407
#     4  10  22  42  74  90 136 196 220 286 342 404
#     4  12  24  40  67 106 142 175 228 289 347 420
#     4  12  24  40  67 106 142 175 228 289 347 420
#     4  12  24  46  74 100 142 180 248 270 344 422
#     4  10  20  41  66  95 127 185 224 268 352 398
#     4  10  20  41  66  95 127 185 224 268 352 398
#
# _framework density 20.624953999999999
#
# number of rings (size 3 to 8) (size 9 to 14) (size 15 to 20)
#    0.750    0.000    2.500    6.000    1.750    0.000 
#    0.000    5.000    0.000    0.000    0.000    0.000 
#    0.000    0.000    0.000    0.000    0.000    0.000 
#
# Total GULP energy -44669.069547 kJ/mol
# GULP energy per Si atom -5583.633693 kJ/mol
# Density = 2.057801 g / cm^3
# Si number density = 20.624954 Si / 1000 Ang^3
#
#
#
# Elastic Constant Matrix: (Units=GPa)
#
#
# Indices 1 2 3 4 5 6 
#
# 1 102.7653 56.5767 44.5939 1.2140 0.1910 6.0426
# 2 56.5767 122.4552 60.2277 9.6929 -3.0830 -10.8010
# 3 44.5939 60.2277 187.1226 16.0160 -1.5115 -3.4458
# 4 1.2140 9.6929 16.0160 32.2084 -2.6409 -2.1411
# 5 0.1910 -3.0830 -1.5115 -2.6409 20.0131 -1.5387
# 6 6.0426 -10.8010 -3.4458 -2.1411 -1.5387 15.0036
#
#
#
# Elastic Compliance Matrix: (Units=1/GPa)
#
#
# Indices 1 2 3 4 5 6 
#
# 1 0.015216 -0.007470 -0.001586 0.001499 -0.002131 -0.011874
# 2 -0.007470 0.014099 -0.002355 -0.001718 0.002812 0.012661
# 3 -0.001586 -0.002355 0.006701 -0.002571 -0.000173 0.000098
# 4 0.001499 -0.001718 -0.002571 0.033308 0.004133 0.002746
# 5 -0.002131 0.002812 -0.000173 0.004133 0.051624 0.008727
# 6 -0.011874 0.012661 0.000098 0.002746 0.008727 0.081857
#
#
# Mechanical properties :
#
#
# Convention : Reuss Voigt Hill
#
# Bulk Modulus (GPa) = 75.79096 81.68218 78.73657
# Shear Modulus (GPa) = 21.73683 30.17466 25.95574
#
# Velocity S-wave (km/s) = 3.24992 3.82909 3.55133
# Velocity P-wave (km/s) = 7.13510 7.69667 7.42120
#
# Compressibility (1/GPa) = 0.01319419
#
# Stress axis : x y z
#
# Youngs Moduli (GPa) = 65.72007 70.92634 149.24196
#
# Poissons Ratio (x) = 0.52980 0.23672
# Poissons Ratio (y) = 0.49091 0.35145
# Poissons Ratio (z) = 0.10424 0.16703
#
# Static dielectric constant tensor:
#      x y z
#    x 1.762050 0.006680 -0.002730 
#    y 0.006680 1.735930 0.006150 
#    z -0.002730 0.006150 1.705240 
# 
# From -- ./inp_files/7273.got.cif
#   From: 2010.05.17/outbox.cif.g08.bks.cpg/sg1_4_cif.got.tgz:7273.got - 2010.05.17 20:27:59.
