data_PCOD9000899
_publ_section_title
;
Structure prediction by ZEFSAII (Michael W. Deem and Ramdas Pophale) SiO2 
 PCOD9000899
Probable space group: P 1
;
_chemical_formula_sum "Si O2"
_cell_formula_units_Z 8
_cell_length_a 10.540113
_cell_length_b 8.396931
_cell_length_c 5.554953
_cell_angle_alpha 97.525159
_cell_angle_beta 85.261636
_cell_angle_gamma 43.820789
_cell_volume 326.056765
_symmetry_space_group_name_H-M "P 1"
_symmetry_group_IT_number 1
_symmetry_cell_setting 'triclinic'
loop_
_space_group_symop_operation_xyz
x,y,z
loop_
_atom_site_type_symbol
_atom_site_label
_atom_site_fract_x
_atom_site_fract_y
_atom_site_fract_z
Si Si1 0.404760 0.456020 0.512130
Si Si2 0.447582 0.102439 0.236561
Si Si3 0.106033 0.496397 0.056237
Si Si4 0.963237 0.827075 0.760427
Si Si5 0.884862 0.547905 0.481812
Si Si6 0.545382 0.761174 0.813137
Si Si7 0.591514 0.393496 0.967569
Si Si8 0.220062 0.128804 0.622853
O O1 0.510373 0.180878 0.420424
O O2 0.465091 0.456024 0.769896
O O3 0.172084 0.684559 0.601409
O O4 0.493532 0.459683 0.259483
O O5 0.275987 0.359197 0.185834
O O6 0.353157 0.034832 0.356035
O O7 0.570437 0.909165 0.973282
O O8 0.968845 0.492213 0.192819
O O9 0.205150 0.320232 0.779558
O O10 0.998817 0.747221 0.019556
O O11 0.906564 0.711512 0.612121
O O12 0.790691 0.112993 0.848467
O O13 0.680171 0.663236 0.545030
O O14 0.013722 0.305887 0.575135
O O15 0.614480 0.558898 0.936623
O O16 0.333966 0.929289 0.771677
#
# Coordination Sequence:
#
# PCOD9000899 Si02
#       8
#     1   1   1   1   1   1   1   1
#     4  12  26  50  77 106 146 196 244 305 358 429
#     4  10  20  41  78  98 134 179 251 298 347 415
#     4   9  17  39  66 110 131 169 242 307 351 405
#     4  11  24  45  74 107 142 186 249 306 357 427
#     4  10  21  39  71 102 131 180 245 303 349 414
#     4  11  26  45  64 106 145 189 233 296 360 440
#     4  12  32  47  70 111 156 197 235 287 382 448
#     4   9  20  38  68 100 133 174 235 300 352 408
#
# _framework density 24.535603999999999
#
# number of rings (size 3 to 8) (size 9 to 14) (size 15 to 20)
#    0.000    1.500    3.750    1.500    7.000    3.000 
#    4.500    0.000    0.000    0.000    0.000    0.000 
#    0.000    0.000    0.000    0.000    0.000    0.000 
#
# Total GULP energy -44568.743864 kJ/mol
# GULP energy per Si atom -5571.092983 kJ/mol
# Density = 2.447976 g / cm^3
# Si number density = 24.535604 Si / 1000 Ang^3
#
#
#
# Elastic Constant Matrix: (Units=GPa)
#
#
# Indices 1 2 3 4 5 6 
#
# 1 54.9744 42.0040 29.0841 6.4692 -17.1479 -11.6741
# 2 42.0040 174.6214 33.0500 -12.9049 -16.7136 -14.5613
# 3 29.0841 33.0500 104.2848 -4.2601 -20.5986 -8.5582
# 4 6.4692 -12.9049 -4.2601 25.3269 -9.6086 -5.2260
# 5 -17.1479 -16.7136 -20.5986 -9.6086 31.3311 -5.9105
# 6 -11.6741 -14.5613 -8.5582 -5.2260 -5.9105 29.2671
#
#
#
# Elastic Compliance Matrix: (Units=1/GPa)
#
#
# Indices 1 2 3 4 5 6 
#
# 1 0.030435 -0.004870 -0.003860 -0.004152 0.012193 0.010309
# 2 -0.004870 0.008466 0.000686 0.009082 0.006091 0.005322
# 3 -0.003860 0.000686 0.013621 0.009318 0.011338 0.006739
# 4 -0.004152 0.009082 0.009318 0.064068 0.032810 0.023654
# 5 0.012193 0.006091 0.011338 0.032810 0.065055 0.030206
# 6 0.010309 0.005322 0.006739 0.023654 0.030206 0.053222
#
#
# Mechanical properties :
#
#
# Convention : Reuss Voigt Hill
#
# Bulk Modulus (GPa) = 27.44653 60.23965 43.84309
# Shear Modulus (GPa) = 19.00420 32.50118 25.75269
#
# Velocity S-wave (km/s) = 2.78610 3.64353 3.24328
# Velocity P-wave (km/s) = 4.64333 6.50428 5.65094
#
# Compressibility (1/GPa) = 0.03643447
#
# Stress axis : x y z
#
# Youngs Moduli (GPa) = 32.85729 118.11392 73.41471
#
# Poissons Ratio (x) = 0.57527 0.28335
# Poissons Ratio (y) = 0.16003 -0.05037
# Poissons Ratio (z) = 0.12681 -0.08104
#
# Static dielectric constant tensor:
#      x y z
#    x 2.036940 0.006730 0.036600 
#    y 0.006730 1.968710 -0.032030 
#    z 0.036600 -0.032030 1.986700 
# 
# From -- ./inp_files/1735.got.cif
#   From: 2010.05.17/outbox.cif.g08.bks.cpg/sg1_1_cif.got.tgz:1735.got - 2010.05.17 20:27:59.
