data_PCOD9000259
_publ_section_title
;
Structure prediction by ZEFSAII (Michael W. Deem and Ramdas Pophale) SiO2 
 PCOD9000259
Probable space group: P 1
;
_chemical_formula_sum "Si O2"
_cell_formula_units_Z 8
_cell_length_a 7.418123
_cell_length_b 8.964399
_cell_length_c 12.724123
_cell_angle_alpha 146.394292
_cell_angle_beta 70.417932
_cell_angle_gamma 92.376867
_cell_volume 392.738503
_symmetry_space_group_name_H-M "P 1"
_symmetry_group_IT_number 1
_symmetry_cell_setting 'triclinic'
loop_
_space_group_symop_operation_xyz
x,y,z
loop_
_atom_site_type_symbol
_atom_site_label
_atom_site_fract_x
_atom_site_fract_y
_atom_site_fract_z
Si Si1 0.438040 0.000000 0.349250
Si Si2 0.498863 0.529533 0.576192
Si Si3 0.774983 0.530457 0.863267
Si Si4 0.262961 0.586823 0.461110
Si Si5 0.195909 0.152146 0.682394
Si Si6 0.360807 0.526439 0.991075
Si Si7 0.838868 0.652852 0.684730
Si Si8 0.433208 0.169488 0.985762
O O1 0.397928 0.341130 0.544630
O O2 0.402232 0.961270 0.455553
O O3 0.293208 0.875093 0.239707
O O4 0.666804 0.793944 0.127788
O O5 0.475104 0.472196 0.424740
O O6 0.731831 0.458915 0.535232
O O7 0.371195 0.893224 0.827802
O O8 0.810810 0.640438 0.807757
O O9 0.991657 0.274297 0.718224
O O10 0.588394 0.425014 0.828278
O O11 0.304934 0.395035 0.235068
O O12 0.078110 0.561240 0.548975
O O13 0.190147 0.929886 0.641647
O O14 0.212427 0.435618 0.896797
O O15 0.405324 0.341752 0.983072
O O16 0.682325 0.987798 0.866358
#
# Coordination Sequence:
#
# PCOD9000259 Si02
#       8
#     1   1   1   1   1   1   1   1
#     4  10  23  44  64  92 129 167 209 262 314 368
#     4  10  23  44  64  92 129 167 209 262 314 368
#     4  10  23  42  64  92 132 162 214 259 312 374
#     4  12  22  41  69  93 128 170 208 259 321 372
#     4  12  22  41  69  93 128 170 208 259 321 372
#     4  10  22  45  63  94 130 162 212 263 306 379
#     4  10  23  42  64  92 132 162 214 259 312 374
#     4  10  22  45  63  94 130 162 212 263 306 379
#
# _framework density 20.369788
#
# number of rings (size 3 to 8) (size 9 to 14) (size 15 to 20)
#    1.500    0.000    2.500    3.000    0.000    0.000 
#   13.500    1.250    0.000    0.000    0.000    0.000 
#    0.000    0.000    0.000    0.000    0.000    0.000 
#
# Total GULP energy -44549.234741 kJ/mol
# GULP energy per Si atom -5568.654343 kJ/mol
# Density = 2.032343 g / cm^3
# Si number density = 20.369788 Si / 1000 Ang^3
#
#
#
# Elastic Constant Matrix: (Units=GPa)
#
#
# Indices 1 2 3 4 5 6 
#
# 1 64.3469 18.7402 15.3084 -0.9267 13.5538 8.7750
# 2 18.7402 74.7884 3.5869 -9.2715 0.9773 11.2163
# 3 15.3084 3.5869 54.0601 -7.9270 10.2535 19.9369
# 4 -0.9267 -9.2715 -7.9270 35.1181 9.8146 5.5203
# 5 13.5538 0.9773 10.2535 9.8146 27.5516 8.3390
# 6 8.7750 11.2163 19.9369 5.5203 8.3390 32.4554
#
#
#
# Elastic Compliance Matrix: (Units=1/GPa)
#
#
# Indices 1 2 3 4 5 6 
#
# 1 0.019478 -0.004604 -0.003749 0.000716 -0.008486 0.000686
# 2 -0.004604 0.016304 0.004021 0.006241 0.000395 -0.008023
# 3 -0.003749 0.004021 0.029628 0.012894 -0.008275 -0.018643
# 4 0.000716 0.006241 0.012894 0.039422 -0.015481 -0.012999
# 5 -0.008486 0.000395 -0.008275 -0.015481 0.049946 -0.002959
# 6 0.000686 -0.008023 -0.018643 -0.012999 -0.002959 0.047822
#
#
# Mechanical properties :
#
#
# Convention : Reuss Voigt Hill
#
# Bulk Modulus (GPa) = 17.62237 29.82961 23.72599
# Shear Modulus (GPa) = 21.72220 29.39566 25.55893
#
# Velocity S-wave (km/s) = 3.26911 3.80294 3.54608
# Velocity P-wave (km/s) = 4.78743 5.82743 5.33284
#
# Compressibility (1/GPa) = 0.05674605
#
# Stress axis : x y z
#
# Youngs Moduli (GPa) = 51.34069 61.33603 33.75146
#
# Poissons Ratio (x) = 0.28240 0.12652
# Poissons Ratio (y) = 0.23638 -0.13571
# Poissons Ratio (z) = 0.19246 -0.24663
#
# Static dielectric constant tensor:
#      x y z
#    x 1.710560 0.003290 0.009570 
#    y 0.003290 1.708860 0.020720 
#    z 0.009570 0.020720 1.741220 
# 
# From -- ./inp_files/6401.got.cif
#   From: 2010.05.17/outbox.cif.g08.bks.cpg/sg1_4_cif.got.tgz:6401.got - 2010.05.17 20:27:59.
