data_PCOD9000360
_publ_section_title
;
Structure prediction by ZEFSAII (Michael W. Deem and Ramdas Pophale) SiO2 
 PCOD9000360
Probable space group: P 1
;
_chemical_formula_sum "Si O2"
_cell_formula_units_Z 8
_cell_length_a 9.962292
_cell_length_b 13.660916
_cell_length_c 14.536708
_cell_angle_alpha 19.989533
_cell_angle_beta 153.032696
_cell_angle_gamma 149.056839
_cell_volume 304.098868
_symmetry_space_group_name_H-M "P 1"
_symmetry_group_IT_number 1
_symmetry_cell_setting 'triclinic'
loop_
_space_group_symop_operation_xyz
x,y,z
loop_
_atom_site_type_symbol
_atom_site_label
_atom_site_fract_x
_atom_site_fract_y
_atom_site_fract_z
Si Si1 0.309180 0.672860 0.372470
Si Si2 0.302422 0.328491 0.846596
Si Si3 0.418119 0.409811 0.489664
Si Si4 0.157252 0.088409 0.273886
Si Si5 0.764141 0.606595 0.348847
Si Si6 0.150568 0.699040 0.793049
Si Si7 0.041540 0.836507 0.801390
Si Si8 0.695538 0.267421 0.314514
O O1 0.432040 0.521987 0.669546
O O2 0.476582 0.622205 0.424539
O O3 0.976984 0.498961 0.306990
O O4 0.284932 0.000495 0.092586
O O5 0.981096 0.419552 0.593672
O O6 0.821144 0.985947 0.598852
O O7 0.494909 0.373901 0.016599
O O8 0.638457 0.444947 0.507561
O O9 0.334031 0.085271 0.761097
O O10 0.125606 0.534106 0.156896
O O11 0.478596 0.181772 0.342390
O O12 0.174775 0.907153 0.537239
O O13 0.027676 0.378726 0.967072
O O14 0.964769 0.895305 0.251597
O O15 0.482727 0.671604 0.059835
O O16 0.983119 0.812737 0.677910
#
# Coordination Sequence:
#
# PCOD9000360 Si02
#       8
#     1   1   1   1   1   1   1   1
#     4  11  26  48  72 102 139 184 233 282 342 410
#     4  12  27  45  73 106 137 185 230 280 351 409
#     4  10  23  45  73 100 137 186 227 282 347 401
#     4  12  27  45  73 106 137 185 230 280 351 409
#     4  11  27  48  70 103 146 177 230 290 340 410
#     4  11  26  48  72 102 139 184 233 282 342 410
#     4  10  23  45  73 100 137 186 227 282 347 401
#     4  11  27  48  70 103 146 177 230 290 340 410
#
# _framework density 26.307234000000001
#
# number of rings (size 3 to 8) (size 9 to 14) (size 15 to 20)
#    0.000    1.000    0.000    5.250    0.000   25.000 
#    0.000   10.000    0.000    0.000    0.000    0.000 
#    0.000    0.000    0.000    0.000    0.000    0.000 
#
# Total GULP energy -44946.944272 kJ/mol
# GULP energy per Si atom -5618.368034 kJ/mol
# Density = 2.624736 g / cm^3
# Si number density = 26.307234 Si / 1000 Ang^3
#
#
#
# Elastic Constant Matrix: (Units=GPa)
#
#
# Indices 1 2 3 4 5 6 
#
# 1 162.4229 30.3425 61.3728 -13.3404 -7.1088 -16.3280
# 2 30.3425 115.1801 31.2648 -11.0949 1.6248 -18.0652
# 3 61.3728 31.2648 147.5603 -13.5769 -13.6168 -12.4520
# 4 -13.3404 -11.0949 -13.5769 52.9266 -8.7002 3.2419
# 5 -7.1088 1.6248 -13.6168 -8.7002 50.9060 0.3512
# 6 -16.3280 -18.0652 -12.4520 3.2419 0.3512 47.5539
#
#
#
# Elastic Compliance Matrix: (Units=1/GPa)
#
#
# Indices 1 2 3 4 5 6 
#
# 1 0.007608 -0.000951 -0.002695 0.001025 0.000537 0.001472
# 2 -0.000951 0.009906 -0.001401 0.001189 -0.000641 0.002994
# 3 -0.002695 -0.001401 0.008600 0.001559 0.002231 0.000672
# 4 0.001025 0.001189 0.001559 0.020476 0.004023 -0.000214
# 5 0.000537 -0.000641 0.002231 0.004023 0.021023 0.000095
# 6 0.001472 0.002994 0.000672 -0.000214 0.000095 0.022861
#
#
# Mechanical properties :
#
#
# Convention : Reuss Voigt Hill
#
# Bulk Modulus (GPa) = 62.41363 74.56927 68.49145
# Shear Modulus (GPa) = 47.21077 50.42284 48.81680
#
# Velocity S-wave (km/s) = 4.24086 4.38275 4.31239
# Velocity P-wave (km/s) = 6.91059 7.34972 7.13354
#
# Compressibility (1/GPa) = 0.01602214
#
# Stress axis : x y z
#
# Youngs Moduli (GPa) = 131.43488 100.95120 116.27276
#
# Poissons Ratio (x) = 0.09598 0.31334
# Poissons Ratio (y) = 0.12497 0.16284
# Poissons Ratio (z) = 0.35420 0.14138
#
# Static dielectric constant tensor:
#      x y z
#    x 2.006550 0.059860 0.028070 
#    y 0.059860 2.131710 0.070890 
#    z 0.028070 0.070890 2.003650 
# 
# From -- ./inp_files/7271.got.cif
#   From: 2010.05.17/outbox.cif.g08.bks.cpg/sg1_4_cif.got.tgz:7271.got - 2010.05.17 20:27:59.
