data_PCOD9000905
_publ_section_title
;
Structure prediction by ZEFSAII (Michael W. Deem and Ramdas Pophale) SiO2 
 PCOD9000905
Probable space group: P 1
;
_chemical_formula_sum "Si O2"
_cell_formula_units_Z 8
_cell_length_a 5.255590
_cell_length_b 8.065322
_cell_length_c 8.517065
_cell_angle_alpha 71.566321
_cell_angle_beta 98.416891
_cell_angle_gamma 83.038564
_cell_volume 333.369454
_symmetry_space_group_name_H-M "P 1"
_symmetry_group_IT_number 1
_symmetry_cell_setting 'triclinic'
loop_
_space_group_symop_operation_xyz
x,y,z
loop_
_atom_site_type_symbol
_atom_site_label
_atom_site_fract_x
_atom_site_fract_y
_atom_site_fract_z
Si Si1 0.421110 0.478610 0.155700
Si Si2 0.818570 0.853334 0.325028
Si Si3 0.851262 0.454920 0.419916
Si Si4 0.909452 0.297990 0.819032
Si Si5 0.668766 0.940453 0.624157
Si Si6 0.472914 0.151278 0.015330
Si Si7 0.094793 0.102604 0.459234
Si Si8 0.860209 0.622181 0.959921
O O1 0.549539 0.454893 0.346112
O O2 0.446319 0.290552 0.119996
O O3 0.629782 0.578945 0.059126
O O4 0.141361 0.600164 0.072430
O O5 0.917067 0.650543 0.352965
O O6 0.682380 0.840615 0.486633
O O7 0.615787 0.963284 0.152938
O O8 0.033433 0.979072 0.345548
O O9 0.903072 0.381560 0.621110
O O10 0.018986 0.311320 0.359727
O O11 0.662638 0.213988 0.881846
O O12 0.905366 0.468532 0.879009
O O13 0.182245 0.165719 0.917248
O O14 0.883468 0.062149 0.579091
O O15 0.759983 0.807869 0.811290
O O16 0.378689 0.047241 0.571723
#
# Coordination Sequence:
#
# PCOD9000905 Si02
#       8
#     1   1   1   1   1   1   1   1
#     4  10  22  39  69  98 140 173 233 281 344 404
#     4  10  24  45  71 104 140 184 229 285 348 412
#     4  12  24  49  71 111 131 189 233 292 337 419
#     4  10  23  41  71  98 139 179 231 279 348 407
#     4  10  21  44  69  96 143 183 226 276 349 414
#     4  10  22  44  66  97 143 183 217 288 348 405
#     4  10  24  42  68 101 136 184 223 284 337 414
#     4  10  20  42  67 101 134 187 218 285 347 407
#
# _framework density 23.997396999999999
#
# number of rings (size 3 to 8) (size 9 to 14) (size 15 to 20)
#    0.750    1.000    2.500    0.750    1.750    5.000 
#   11.250    0.000    0.000    0.000    0.000    0.000 
#    0.000    0.000    0.000    0.000    0.000    0.000 
#
# Total GULP energy -44752.302123 kJ/mol
# GULP energy per Si atom -5594.037765 kJ/mol
# Density = 2.394278 g / cm^3
# Si number density = 23.997397 Si / 1000 Ang^3
#
#
#
# Elastic Constant Matrix: (Units=GPa)
#
#
# Indices 1 2 3 4 5 6 
#
# 1 145.0957 43.1281 52.1773 -12.5472 37.4115 -14.7420
# 2 43.1281 135.3082 44.3644 -26.5395 5.3991 0.2676
# 3 52.1773 44.3644 146.5663 -21.2296 20.8360 -6.3296
# 4 -12.5472 -26.5395 -21.2296 42.5803 -10.7367 5.2524
# 5 37.4115 5.3991 20.8360 -10.7367 33.1527 -5.4157
# 6 -14.7420 0.2676 -6.3296 5.2524 -5.4157 16.1057
#
#
#
# Elastic Compliance Matrix: (Units=1/GPa)
#
#
# Indices 1 2 3 4 5 6 
#
# 1 0.012078 -0.003493 -0.001724 -0.003397 -0.011842 0.007562
# 2 -0.003493 0.010112 -0.001789 0.006112 0.004665 -0.004493
# 3 -0.001724 -0.001789 0.008638 0.002014 -0.002481 0.000355
# 4 -0.003397 0.006112 0.002014 0.030972 0.010113 -0.009119
# 5 -0.011842 0.004665 -0.002481 0.010113 0.047742 0.000864
# 6 0.007562 -0.004493 0.000355 -0.009119 0.000864 0.072490
#
#
# Mechanical properties :
#
#
# Convention : Reuss Voigt Hill
#
# Bulk Modulus (GPa) = 59.47091 78.47887 68.97489
# Shear Modulus (GPa) = 24.79518 37.52110 31.15814
#
# Velocity S-wave (km/s) = 3.21790 3.95846 3.60724
# Velocity P-wave (km/s) = 6.21631 7.32575 6.79372
#
# Compressibility (1/GPa) = 0.01681494
#
# Stress axis : x y z
#
# Youngs Moduli (GPa) = 82.79302 98.89158 115.76551
#
# Poissons Ratio (x) = 0.34543 0.19964
# Poissons Ratio (y) = 0.28920 0.20713
# Poissons Ratio (z) = 0.14278 0.17694
#
# Static dielectric constant tensor:
#      x y z
#    x 1.924980 -0.001730 -0.032480 
#    y -0.001730 1.952860 0.050660 
#    z -0.032480 0.050660 1.919980 
# 
# From -- ./inp_files/1879.got.cif
#   From: 2010.05.17/outbox.cif.g08.bks.cpg/sg1_1_cif.got.tgz:1879.got - 2010.05.17 20:27:59.
