data_PCOD9000067
_publ_section_title
;
Structure prediction by ZEFSAII (Michael W. Deem and Ramdas Pophale) SiO2 
 PCOD9000067
Probable space group: P 1
;
_chemical_formula_sum "Si O2"
_cell_formula_units_Z 8
_cell_length_a 9.312856
_cell_length_b 7.783820
_cell_length_c 12.578426
_cell_angle_alpha 148.017645
_cell_angle_beta 45.309260
_cell_angle_gamma 125.951868
_cell_volume 343.224307
_symmetry_space_group_name_H-M "P 1"
_symmetry_group_IT_number 1
_symmetry_cell_setting 'triclinic'
loop_
_space_group_symop_operation_xyz
x,y,z
loop_
_atom_site_type_symbol
_atom_site_label
_atom_site_fract_x
_atom_site_fract_y
_atom_site_fract_z
Si Si1 0.891690 0.278420 0.186720
Si Si2 0.740237 0.228668 0.801279
Si Si3 0.154168 0.191745 0.449689
Si Si4 0.502248 0.881725 0.216560
Si Si5 0.178143 0.861634 0.715832
Si Si6 0.824184 0.817959 0.346610
Si Si7 0.516652 0.176620 0.578864
Si Si8 0.815229 0.721205 0.665919
O O1 0.898889 0.483724 0.181781
O O2 0.885803 0.502748 0.411968
O O3 0.693158 0.067988 0.170045
O O4 0.079778 0.032786 0.959006
O O5 0.978356 0.288934 0.679375
O O6 0.698132 0.974392 0.594309
O O7 0.733145 0.050607 0.824730
O O8 0.587872 0.529787 0.020515
O O9 0.264708 0.509701 0.520386
O O10 0.307531 0.910272 0.259288
O O11 0.016814 0.042582 0.350524
O O12 0.436354 0.113887 0.470751
O O13 0.997429 0.787165 0.686534
O O14 0.335513 0.102887 0.711464
O O15 0.682730 0.881574 0.354651
O O16 0.638941 0.507645 0.698909
#
# Coordination Sequence:
#
# PCOD9000067 Si02
#       8
#     1   1   1   1   1   1   1   1
#     4  10  22  41  70  95 137 182 223 275 342 400
#     4   9  20  41  71  88 139 179 216 280 341 387
#     4  10  21  42  70  96 135 180 223 281 338 402
#     4  11  22  41  70  99 129 182 228 269 346 405
#     4  12  23  44  71 101 139 179 225 284 343 396
#     4   9  20  42  61  97 137 170 222 287 321 407
#     4  11  24  40  67 102 136 172 231 280 333 408
#     4  10  22  45  66 100 140 176 226 288 326 409
#
# _framework density 23.308373
#
# number of rings (size 3 to 8) (size 9 to 14) (size 15 to 20)
#    0.750    1.000    2.500    1.500    1.750    1.000 
#    0.000    0.000    2.750    0.000    0.000    0.000 
#    0.000    0.000    0.000    0.000    0.000    0.000 
#
# Total GULP energy -44633.067206 kJ/mol
# GULP energy per Si atom -5579.133401 kJ/mol
# Density = 2.325532 g / cm^3
# Si number density = 23.308373 Si / 1000 Ang^3
#
#
#
# Elastic Constant Matrix: (Units=GPa)
#
#
# Indices 1 2 3 4 5 6 
#
# 1 78.0798 10.4553 31.6554 2.4288 -6.5710 4.4978
# 2 10.4553 122.8780 28.5522 10.5643 -10.8221 4.0879
# 3 31.6554 28.5522 82.8536 16.3962 -23.5452 4.9222
# 4 2.4288 10.5643 16.3962 35.2106 -3.0811 -11.9157
# 5 -6.5710 -10.8221 -23.5452 -3.0811 28.6313 5.6332
# 6 4.4978 4.0879 4.9222 -11.9157 5.6332 21.8646
#
#
#
# Elastic Compliance Matrix: (Units=1/GPa)
#
#
# Indices 1 2 3 4 5 6 
#
# 1 0.015335 -0.000060 -0.006710 0.001878 -0.001790 -0.000149
# 2 -0.000060 0.009112 -0.001603 -0.002983 0.002500 -0.003600
# 3 -0.006710 -0.001603 0.024764 -0.014591 0.019994 -0.016998
# 4 0.001878 -0.002983 -0.014591 0.045521 -0.014071 0.031889
# 5 -0.001790 0.002500 0.019994 -0.014071 0.055622 -0.026599
# 6 -0.000149 -0.003600 -0.016998 0.031889 -0.026599 0.074498
#
#
# Mechanical properties :
#
#
# Convention : Reuss Voigt Hill
#
# Bulk Modulus (GPa) = 30.80035 47.23747 39.01891
# Shear Modulus (GPa) = 19.80832 31.35121 25.57976
#
# Velocity S-wave (km/s) = 2.91836 3.67149 3.31637
# Velocity P-wave (km/s) = 4.95971 6.18736 5.60723
#
# Compressibility (1/GPa) = 0.03246716
#
# Stress axis : x y z
#
# Youngs Moduli (GPa) = 65.20921 109.74483 40.38075
#
# Poissons Ratio (x) = 0.00657 0.27095
# Poissons Ratio (y) = 0.00390 0.06471
# Poissons Ratio (z) = 0.43754 0.17587
#
# Static dielectric constant tensor:
#      x y z
#    x 1.852750 -0.016610 0.007400 
#    y -0.016610 1.901270 0.003080 
#    z 0.007400 0.003080 1.891170 
# 
# From -- ./inp_files/7134.got.cif
#   From: 2010.05.17/outbox.cif.g08.bks.cpg/sg1_4_cif.got.tgz:7134.got - 2010.05.17 20:27:59.
