data_PCOD9000860
_publ_section_title
;
Structure prediction by ZEFSAII (Michael W. Deem and Ramdas Pophale) SiO2 
 PCOD9000860
Probable space group: P 1
;
_chemical_formula_sum "Si O2"
_cell_formula_units_Z 8
_cell_length_a 6.798458
_cell_length_b 11.504295
_cell_length_c 8.792978
_cell_angle_alpha 142.242241
_cell_angle_beta 66.449985
_cell_angle_gamma 125.884039
_cell_volume 338.340886
_symmetry_space_group_name_H-M "P 1"
_symmetry_group_IT_number 1
_symmetry_cell_setting 'triclinic'
loop_
_space_group_symop_operation_xyz
x,y,z
loop_
_atom_site_type_symbol
_atom_site_label
_atom_site_fract_x
_atom_site_fract_y
_atom_site_fract_z
Si Si1 0.344070 0.111610 0.056950
Si Si2 0.184589 0.759430 0.472720
Si Si3 0.557902 0.150428 0.588407
Si Si4 0.286258 0.375614 0.008813
Si Si5 0.611923 0.569580 0.467617
Si Si6 0.524889 0.471810 0.746053
Si Si7 0.768878 0.038741 0.950746
Si Si8 0.862737 0.962335 0.195300
O O1 0.404214 0.351301 0.229680
O O2 0.598870 0.142305 0.071752
O O3 0.147997 0.041280 0.179620
O O4 0.242535 0.922072 0.766518
O O5 0.295439 0.596751 0.289585
O O6 0.891283 0.620926 0.407155
O O7 0.317290 0.919843 0.455224
O O8 0.591618 0.280825 0.557099
O O9 0.774286 0.090245 0.467230
O O10 0.509947 0.315173 0.879196
O O11 0.032717 0.178703 0.939003
O O12 0.282792 0.397822 0.845705
O O13 0.533850 0.518341 0.615099
O O14 0.632193 0.800805 0.672282
O O15 0.716772 0.705238 0.999015
O O16 0.802493 0.006454 0.085787
#
# Coordination Sequence:
#
# PCOD9000860 Si02
#       8
#     1   1   1   1   1   1   1   1
#     4  12  26  40  71 103 131 179 226 268 332 403
#     4  12  22  43  69  96 142 169 225 279 325 400
#     4  10  20  39  69  97 129 187 211 271 347 376
#     4  10  21  38  70  98 130 181 215 274 338 386
#     4  11  22  45  67  98 135 177 221 276 329 398
#     4   9  20  39  69  93 133 178 216 274 334 382
#     4  11  23  43  70 100 132 177 222 271 342 388
#     4  11  22  43  67  97 138 172 224 277 323 403
#
# _framework density 23.644794999999998
#
# number of rings (size 3 to 8) (size 9 to 14) (size 15 to 20)
#    0.750    0.500    6.250    0.750    0.000    3.000 
#    2.250    0.000    5.500    0.000    0.000    0.000 
#    0.000    0.000    0.000    0.000    0.000    0.000 
#
# Total GULP energy -44595.007147 kJ/mol
# GULP energy per Si atom -5574.375893 kJ/mol
# Density = 2.359098 g / cm^3
# Si number density = 23.644795 Si / 1000 Ang^3
#
#
#
# Elastic Constant Matrix: (Units=GPa)
#
#
# Indices 1 2 3 4 5 6 
#
# 1 44.8922 23.1606 23.2607 5.0742 -15.4668 18.8038
# 2 23.1606 152.1532 53.7230 21.6696 -11.0959 10.6377
# 3 23.2607 53.7230 151.7795 17.4973 -33.0307 11.5503
# 4 5.0742 21.6696 17.4973 47.9581 1.2618 -12.7659
# 5 -15.4668 -11.0959 -33.0307 1.2618 35.0356 3.2001
# 6 18.8038 10.6377 11.5503 -12.7659 3.2001 28.2388
#
#
#
# Elastic Compliance Matrix: (Units=1/GPa)
#
#
# Indices 1 2 3 4 5 6 
#
# 1 0.059341 -0.001152 0.006868 -0.024537 0.038428 -0.057336
# 2 -0.001152 0.008252 -0.001868 -0.003854 0.000794 -0.003410
# 3 0.006868 -0.001868 0.011399 -0.008123 0.014747 -0.013876
# 4 -0.024537 -0.003854 -0.008123 0.039997 -0.024990 0.042027
# 5 0.038428 0.000794 0.014747 -0.024990 0.065183 -0.050603
# 6 -0.057336 -0.003410 -0.013876 0.042027 -0.050603 0.105285
#
#
# Mechanical properties :
#
#
# Convention : Reuss Voigt Hill
#
# Bulk Modulus (GPa) = 11.53560 61.01262 36.27411
# Shear Modulus (GPa) = 16.09494 38.82520 27.46007
#
# Velocity S-wave (km/s) = 2.61185 4.05658 3.41157
# Velocity P-wave (km/s) = 3.73965 6.91382 5.55814
#
# Compressibility (1/GPa) = 0.08668818
#
# Stress axis : x y z
#
# Youngs Moduli (GPa) = 16.85186 121.17703 87.73009
#
# Poissons Ratio (x) = 0.13964 -0.60256
# Poissons Ratio (y) = 0.01942 0.16386
# Poissons Ratio (z) = -0.11575 0.22633
#
# Static dielectric constant tensor:
#      x y z
#    x 1.958630 -0.087880 0.030590 
#    y -0.087880 1.899490 -0.044580 
#    z 0.030590 -0.044580 1.931050 
# 
# From -- ./inp_files/6397.got.cif
#   From: 2010.05.17/outbox.cif.g08.bks.cpg/sg1_4_cif.got.tgz:6397.got - 2010.05.17 20:27:59.
