data_PCOD9000303
_publ_section_title
;
Structure prediction by ZEFSAII (Michael W. Deem and Ramdas Pophale) SiO2 
 PCOD9000303
Probable space group: P 1
;
_chemical_formula_sum "Si O2"
_cell_formula_units_Z 8
_cell_length_a 5.026019
_cell_length_b 15.601466
_cell_length_c 10.012443
_cell_angle_alpha 37.385801
_cell_angle_beta 108.745285
_cell_angle_gamma 82.436537
_cell_volume 333.878343
_symmetry_space_group_name_H-M "P 1"
_symmetry_group_IT_number 1
_symmetry_cell_setting 'triclinic'
loop_
_space_group_symop_operation_xyz
x,y,z
loop_
_atom_site_type_symbol
_atom_site_label
_atom_site_fract_x
_atom_site_fract_y
_atom_site_fract_z
Si Si1 0.549620 0.072110 0.517820
Si Si2 0.921928 0.739010 0.355380
Si Si3 0.592637 0.697073 0.587981
Si Si4 0.503203 0.039647 0.243012
Si Si5 0.370082 0.684053 0.840957
Si Si6 0.425975 0.825232 0.932310
Si Si7 0.457628 0.349650 0.358493
Si Si8 0.280824 0.191293 0.750197
O O1 0.442776 0.252215 0.349678
O O2 0.372447 0.005656 0.657009
O O3 0.420811 0.100460 0.308513
O O4 0.011964 0.904573 0.806271
O O5 0.745848 0.714775 0.233290
O O6 0.621383 0.967662 0.048708
O O7 0.910981 0.642962 0.603329
O O8 0.411210 0.908876 0.346251
O O9 0.623658 0.603025 0.849561
O O10 0.315273 0.688803 0.468874
O O11 0.961545 0.892384 0.488312
O O12 0.313287 0.203414 0.899383
O O13 0.552841 0.704858 0.967226
O O14 0.276694 0.560505 0.032330
O O15 0.320869 0.312403 0.512610
O O16 0.894669 0.242288 0.590233
#
# Coordination Sequence:
#
# PCOD9000303 Si02
#       8
#     1   1   1   1   1   1   1   1
#     4  11  21  39  61  93 121 163 208 252 302 370
#     4  11  20  36  64  91 116 156 218 250 287 358
#     4  11  20  37  62  91 116 163 206 254 293 366
#     4  10  23  40  68  89 122 165 218 244 298 376
#     4  11  25  41  64  96 129 159 205 261 317 358
#     4  11  22  38  62  92 123 162 211 252 296 371
#     4  12  25  40  63  95 130 160 198 264 321 355
#     4  11  22  39  64  91 123 166 210 245 308 372
#
# _framework density 23.960822
#
# number of rings (size 3 to 8) (size 9 to 14) (size 15 to 20)
#    0.000    1.000    6.250    2.250    1.750    0.000 
#    0.000    2.500    0.000    0.000    3.250    0.000 
#    0.000    0.000    0.000    0.000    0.000    0.000 
#
# Total GULP energy -44762.431289 kJ/mol
# GULP energy per Si atom -5595.303911 kJ/mol
# Density = 2.390629 g / cm^3
# Si number density = 23.960822 Si / 1000 Ang^3
#
#
#
# Elastic Constant Matrix: (Units=GPa)
#
#
# Indices 1 2 3 4 5 6 
#
# 1 93.1970 17.6152 22.5274 3.4530 -22.7855 15.0666
# 2 17.6152 96.4673 40.9006 40.4558 -12.2873 23.2936
# 3 22.5274 40.9006 98.1760 30.4843 -31.9896 1.8831
# 4 3.4530 40.4558 30.4843 43.0291 -5.5518 4.9230
# 5 -22.7855 -12.2873 -31.9896 -5.5518 32.1505 -2.1592
# 6 15.0666 23.2936 1.8831 4.9230 -2.1592 31.2690
#
#
#
# Elastic Compliance Matrix: (Units=1/GPa)
#
#
# Indices 1 2 3 4 5 6 
#
# 1 0.014094 -0.000315 -0.000353 0.001317 0.009335 -0.006098
# 2 -0.000315 0.022366 -0.003353 -0.016927 0.001154 -0.013563
# 3 -0.000353 -0.003353 0.020026 -0.009273 0.017068 0.004101
# 4 0.001317 -0.016927 -0.009273 0.044157 -0.006794 0.005112
# 5 0.009335 0.001154 0.017068 -0.006794 0.053863 -0.001597
# 6 -0.006098 -0.013563 0.004101 0.005112 -0.001597 0.043861
#
#
# Mechanical properties :
#
#
# Convention : Reuss Voigt Hill
#
# Bulk Modulus (GPa) = 20.64267 49.99186 35.31726
# Shear Modulus (GPa) = 22.46604 35.07620 28.77112
#
# Velocity S-wave (km/s) = 3.06537 3.83024 3.46895
# Velocity P-wave (km/s) = 4.60028 6.36163 5.55125
#
# Compressibility (1/GPa) = 0.04844336
#
# Stress axis : x y z
#
# Youngs Moduli (GPa) = 70.95149 44.71012 49.93482
#
# Poissons Ratio (x) = 0.01408 0.01764
# Poissons Ratio (y) = 0.02234 0.16745
# Poissons Ratio (z) = 0.02507 0.14993
#
# Static dielectric constant tensor:
#      x y z
#    x 1.923860 0.019480 0.057040 
#    y 0.019480 1.936050 0.047130 
#    z 0.057040 0.047130 1.961530 
# 
# From -- ./inp_files/3280.got.cif
#   From: 2010.05.17/outbox.cif.g08.bks.cpg/sg1_2_cif.got.tgz:3280.got - 2010.05.17 20:27:59.
