data_PCOD9000555
_publ_section_title
;
Structure prediction by ZEFSAII (Michael W. Deem and Ramdas Pophale) SiO2 
 PCOD9000555
Probable space group: P 1
;
_chemical_formula_sum "Si O2"
_cell_formula_units_Z 8
_cell_length_a 5.999209
_cell_length_b 11.309734
_cell_length_c 12.147005
_cell_angle_alpha 34.870820
_cell_angle_beta 47.291253
_cell_angle_gamma 52.245218
_cell_volume 343.175150
_symmetry_space_group_name_H-M "P 1"
_symmetry_group_IT_number 1
_symmetry_cell_setting 'triclinic'
loop_
_space_group_symop_operation_xyz
x,y,z
loop_
_atom_site_type_symbol
_atom_site_label
_atom_site_fract_x
_atom_site_fract_y
_atom_site_fract_z
Si Si1 0.191270 0.650910 0.851980
Si Si2 0.234389 0.409238 0.809365
Si Si3 0.827288 0.051702 0.566419
Si Si4 0.797305 0.803503 0.563753
Si Si5 0.048294 0.983744 0.141466
Si Si6 0.739156 0.752408 0.099590
Si Si7 0.122959 0.086119 0.794679
Si Si8 0.854185 0.378548 0.495691
O O1 0.295925 0.472592 0.865106
O O2 0.487379 0.709849 0.770002
O O3 0.068329 0.857803 0.668396
O O4 0.898501 0.615385 0.050219
O O5 0.534583 0.348053 0.682609
O O6 0.054143 0.612782 0.655559
O O7 0.068548 0.205182 0.022956
O O8 0.820265 0.013748 0.466197
O O9 0.482077 0.020120 0.740088
O O10 0.903125 0.241695 0.472057
O O11 0.824550 0.860422 0.382559
O O12 0.382651 0.840458 0.142879
O O13 0.974434 0.058153 0.984609
O O14 0.821210 0.616207 0.285492
O O15 0.940178 0.942509 0.889497
O O16 0.091247 0.303781 0.571262
#
# Coordination Sequence:
#
# PCOD9000555 Si02
#       8
#     1   1   1   1   1   1   1   1
#     4  11  24  47  67 100 146 176 228 287 340 408
#     4  11  25  43  68 102 145 173 228 290 339 406
#     4  11  22  48  70  93 147 178 228 286 337 403
#     4  11  26  45  70 103 139 184 223 289 345 402
#     4  12  26  46  73 100 138 187 232 277 346 408
#     4  12  25  46  72 101 132 193 231 277 344 408
#     4  12  23  45  72  98 142 182 232 279 338 413
#     4  12  25  44  72 105 137 183 228 287 341 408
#
# _framework density 23.311712
#
# number of rings (size 3 to 8) (size 9 to 14) (size 15 to 20)
#    0.000    0.500    7.500    0.000    5.250    1.000 
#    4.500    0.000    0.000    0.000    0.000    0.000 
#    0.000    0.000    0.000    0.000    0.000    0.000 
#
# Total GULP energy -44635.725665 kJ/mol
# GULP energy per Si atom -5579.465708 kJ/mol
# Density = 2.325865 g / cm^3
# Si number density = 23.311712 Si / 1000 Ang^3
#
#
#
# Elastic Constant Matrix: (Units=GPa)
#
#
# Indices 1 2 3 4 5 6 
#
# 1 47.6772 25.9144 -3.7972 -0.6195 16.7531 4.6235
# 2 25.9144 104.3662 24.4317 1.2086 13.6232 8.9559
# 3 -3.7972 24.4317 80.7391 -2.0490 24.6808 6.0734
# 4 -0.6195 1.2086 -2.0490 27.2180 3.6423 1.7583
# 5 16.7531 13.6232 24.6808 3.6423 29.4920 8.2330
# 6 4.6235 8.9559 6.0734 1.7583 8.2330 32.5860
#
#
#
# Elastic Compliance Matrix: (Units=1/GPa)
#
#
# Indices 1 2 3 4 5 6 
#
# 1 0.037048 -0.008711 0.013414 0.006072 -0.029488 0.001760
# 2 -0.008711 0.012653 -0.005497 -0.001635 0.004541 -0.002276
# 3 0.013414 -0.005497 0.022295 0.005456 -0.024811 0.001426
# 4 0.006072 -0.001635 0.005456 0.038992 -0.011931 -0.000519
# 5 -0.029488 0.004541 -0.024811 -0.011931 0.073706 -0.010418
# 6 0.001760 -0.002276 0.001426 -0.000519 -0.010418 0.033458
#
#
# Mechanical properties :
#
#
# Convention : Reuss Voigt Hill
#
# Bulk Modulus (GPa) = 14.20296 36.20895 25.20596
# Shear Modulus (GPa) = 20.55834 30.27476 25.41655
#
# Velocity S-wave (km/s) = 2.97288 3.60765 3.30554
# Velocity P-wave (km/s) = 4.22965 5.73757 5.04032
#
# Compressibility (1/GPa) = 0.07040786
#
# Stress axis : x y z
#
# Youngs Moduli (GPa) = 26.99218 79.03253 44.85230
#
# Poissons Ratio (x) = 0.68849 -0.60166
# Poissons Ratio (y) = 0.23514 0.24655
# Poissons Ratio (z) = -0.36208 0.43444
#
# Static dielectric constant tensor:
#      x y z
#    x 1.914410 0.048140 0.035700 
#    y 0.048140 1.919180 -0.007940 
#    z 0.035700 -0.007940 1.864930 
# 
# From -- ./inp_files/2239.got.cif
#   From: 2010.05.17/outbox.cif.g08.bks.cpg/sg1_2_cif.got.tgz:2239.got - 2010.05.17 20:27:59.
