data_PCOD9000752
_publ_section_title
;
Structure prediction by ZEFSAII (Michael W. Deem and Ramdas Pophale) SiO2 
 PCOD9000752
Probable space group: P 1
;
_chemical_formula_sum "Si O2"
_cell_formula_units_Z 8
_cell_length_a 9.029111
_cell_length_b 10.784101
_cell_length_c 7.366778
_cell_angle_alpha 146.293886
_cell_angle_beta 120.263583
_cell_angle_gamma 61.844280
_cell_volume 341.732227
_symmetry_space_group_name_H-M "P 1"
_symmetry_group_IT_number 1
_symmetry_cell_setting 'triclinic'
loop_
_space_group_symop_operation_xyz
x,y,z
loop_
_atom_site_type_symbol
_atom_site_label
_atom_site_fract_x
_atom_site_fract_y
_atom_site_fract_z
Si Si1 0.959630 0.750000 0.419550
Si Si2 0.426426 0.321050 0.416271
Si Si3 0.073840 0.184511 0.139932
Si Si4 0.521599 0.938451 0.745933
Si Si5 0.780010 0.545151 0.367731
Si Si6 0.479607 0.236984 0.761455
Si Si7 0.218194 0.644155 0.157546
Si Si8 0.247553 0.763349 0.903865
O O1 0.818436 0.620594 0.275377
O O2 0.034920 0.679544 0.185663
O O3 0.119731 0.690932 0.582768
O O4 0.949154 0.021283 0.763950
O O5 0.487892 0.228315 0.538606
O O6 0.418299 0.593334 0.749986
O O7 0.229102 0.257197 0.203580
O O8 0.522687 0.170258 0.137581
O O9 0.947503 0.402453 0.382217
O O10 0.184917 0.030159 0.170338
O O11 0.503523 0.005273 0.603306
O O12 0.696836 0.776175 0.688415
O O13 0.354976 0.805563 0.523321
O O14 0.631560 0.384450 0.085763
O O15 0.309002 0.390487 0.913230
O O16 0.210743 0.701786 0.011126
#
# Coordination Sequence:
#
# PCOD9000752 Si02
#       8
#     1   1   1   1   1   1   1   1
#     4  10  20  37  65  88 127 162 201 259 306 366
#     4  11  20  40  67  95 117 161 217 255 308 364
#     4  10  19  38  68  89 124 163 204 264 303 360
#     4  11  22  40  67  89 126 168 206 254 314 371
#     4  11  23  42  62  91 133 171 197 250 328 365
#     4  10  24  38  65  93 129 161 205 261 307 375
#     4  10  20  38  64 101 115 161 216 257 304 367
#     4   9  20  35  64  94 123 149 212 262 302 354
#
# _framework density 23.410143999999999
#
# number of rings (size 3 to 8) (size 9 to 14) (size 15 to 20)
#    0.750    1.000    2.500    2.250    0.000    0.000 
#    0.000    3.750    5.500    0.000    0.000    0.000 
#    0.000    0.000    0.000    0.000    0.000    0.000 
#
# Total GULP energy -44540.886492 kJ/mol
# GULP energy per Si atom -5567.610812 kJ/mol
# Density = 2.335686 g / cm^3
# Si number density = 23.410144 Si / 1000 Ang^3
#
#
#
# Elastic Constant Matrix: (Units=GPa)
#
#
# Indices 1 2 3 4 5 6 
#
# 1 71.4119 9.9105 37.4733 22.4513 -8.9894 3.9082
# 2 9.9105 81.8357 53.3553 34.2596 -26.1712 -8.3325
# 3 37.4733 53.3553 114.8730 25.3310 -22.8485 -3.7190
# 4 22.4513 34.2596 25.3310 40.3384 -2.5995 -7.9662
# 5 -8.9894 -26.1712 -22.8485 -2.5995 41.7394 5.9307
# 6 3.9082 -8.3325 -3.7190 -7.9662 5.9307 19.4421
#
#
#
# Elastic Compliance Matrix: (Units=1/GPa)
#
#
# Indices 1 2 3 4 5 6 
#
# 1 0.025334 0.013332 -0.007977 -0.022360 0.009916 -0.013091
# 2 0.013332 0.035971 -0.010590 -0.031691 0.018793 -0.008007
# 3 -0.007977 -0.010590 0.015393 0.004102 0.000087 0.001664
# 4 -0.022360 -0.031691 0.004102 0.065112 -0.021948 0.025071
# 5 0.009916 0.018793 0.000087 -0.021948 0.038647 -0.014705
# 6 -0.013091 -0.008007 0.001664 0.025071 -0.014705 0.065711
#
#
# Mechanical properties :
#
#
# Convention : Reuss Voigt Hill
#
# Bulk Modulus (GPa) = 15.09942 52.17765 33.63854
# Shear Modulus (GPa) = 17.93955 31.46275 24.70115
#
# Velocity S-wave (km/s) = 2.77124 3.67001 3.25183
# Velocity P-wave (km/s) = 4.08701 6.34787 5.33850
#
# Compressibility (1/GPa) = 0.06622770
#
# Stress axis : x y z
#
# Youngs Moduli (GPa) = 39.47310 27.80008 64.96468
#
# Poissons Ratio (x) = -0.37064 0.51825
# Poissons Ratio (y) = -0.52626 0.68796
# Poissons Ratio (z) = 0.31490 0.29440
#
# Static dielectric constant tensor:
#      x y z
#    x 1.919090 -0.008520 0.039020 
#    y -0.008520 1.889250 0.026190 
#    z 0.039020 0.026190 2.000270 
# 
# From -- ./inp_files/4951.got.cif
#   From: 2010.05.17/outbox.cif.g08.bks.cpg/sg1_3_cif.got.tgz:4951.got - 2010.05.17 20:27:59.
