data_PCOD9000074
_publ_section_title
;
Structure prediction by ZEFSAII (Michael W. Deem and Ramdas Pophale) SiO2 
 PCOD9000074
Probable space group: P 1
;
_chemical_formula_sum "Si O2"
_cell_formula_units_Z 8
_cell_length_a 9.018368
_cell_length_b 9.718712
_cell_length_c 8.416396
_cell_angle_alpha 95.312657
_cell_angle_beta 69.336162
_cell_angle_gamma 44.115026
_cell_volume 407.085250
_symmetry_space_group_name_H-M "P 1"
_symmetry_group_IT_number 1
_symmetry_cell_setting 'triclinic'
loop_
_space_group_symop_operation_xyz
x,y,z
loop_
_atom_site_type_symbol
_atom_site_label
_atom_site_fract_x
_atom_site_fract_y
_atom_site_fract_z
Si Si1 0.423550 0.286280 0.464300
Si Si2 0.044886 0.092037 0.806314
Si Si3 0.680163 0.535468 0.772363
Si Si4 0.337586 0.630673 0.656331
Si Si5 0.051867 0.431757 0.365351
Si Si6 0.348148 0.957325 0.172206
Si Si7 0.842122 0.205128 0.246213
Si Si8 0.531745 0.896027 0.450218
O O1 0.304850 0.488567 0.646483
O O2 0.233751 0.408052 0.395513
O O3 0.712349 0.144490 0.290113
O O4 0.459913 0.108818 0.501283
O O5 0.087970 0.899650 0.732230
O O6 0.334367 0.957689 0.653675
O O7 0.843642 0.311903 0.791447
O O8 0.949950 0.171261 0.031225
O O9 0.447118 0.615826 0.777771
O O10 0.880730 0.464960 0.563697
O O11 0.557618 0.739570 0.952502
O O12 0.586901 0.476413 0.423634
O O13 0.836886 0.652163 0.355484
O O14 0.247650 0.181183 0.185319
O O15 0.460304 0.891315 0.300520
O O16 0.077629 0.056630 0.268715
#
# Coordination Sequence:
#
# PCOD9000074 Si02
#       8
#     1   1   1   1   1   1   1   1
#     4   9  23  43  64  94 137 164 202 277 325 373
#     4  12  22  39  71  95 120 175 217 255 314 389
#     4  12  23  37  69  98 126 166 225 258 312 379
#     4  10  22  43  63  92 133 169 206 272 314 375
#     4  11  21  45  62  94 135 166 210 270 318 381
#     4  11  22  39  66  97 128 164 219 265 306 383
#     4  10  21  43  65  91 135 161 212 264 321 370
#     4  11  22  43  72  93 126 173 215 263 326 368
#
# _framework density 19.651904999999999
#
# number of rings (size 3 to 8) (size 9 to 14) (size 15 to 20)
#    0.750    0.500    6.250    0.000    3.500    1.000 
#    6.750    0.000    5.500    0.000    0.000    0.000 
#    0.000    0.000    0.000    0.000    0.000    0.000 
#
# Total GULP energy -44623.013916 kJ/mol
# GULP energy per Si atom -5577.876739 kJ/mol
# Density = 1.960718 g / cm^3
# Si number density = 19.651905 Si / 1000 Ang^3
#
#
#
# Elastic Constant Matrix: (Units=GPa)
#
#
# Indices 1 2 3 4 5 6 
#
# 1 108.7444 39.5548 6.6657 -2.2968 22.2777 2.8309
# 2 39.5548 134.4961 35.0115 19.3749 22.6694 -7.8544
# 3 6.6657 35.0115 79.3052 16.2977 27.4615 14.1716
# 4 -2.2968 19.3749 16.2977 29.5163 7.0768 -0.7032
# 5 22.2777 22.6694 27.4615 7.0768 21.9672 6.3363
# 6 2.8309 -7.8544 14.1716 -0.7032 6.3363 26.6749
#
#
#
# Elastic Compliance Matrix: (Units=1/GPa)
#
#
# Indices 1 2 3 4 5 6 
#
# 1 0.014278 -0.003126 0.006576 0.004462 -0.020651 -0.000906
# 2 -0.003126 0.010947 -0.003225 -0.004431 -0.004458 0.006211
# 3 0.006576 -0.003225 0.027764 -0.004727 -0.034096 -0.008423
# 4 0.004462 -0.004431 -0.004727 0.041917 -0.008671 0.003898
# 5 -0.020651 -0.004458 -0.034096 -0.008671 0.119241 -0.009559
# 6 -0.000906 0.006211 -0.008423 0.003898 -0.009559 0.046262
#
#
# Mechanical properties :
#
#
# Convention : Reuss Voigt Hill
#
# Bulk Modulus (GPa) = 18.71332 53.88998 36.30165
# Shear Modulus (GPa) = 18.00034 31.71924 24.85979
#
# Velocity S-wave (km/s) = 3.02976 4.02189 3.56055
# Velocity P-wave (km/s) = 4.66716 7.00352 5.95112
#
# Compressibility (1/GPa) = 0.05343788
#
# Stress axis : x y z
#
# Youngs Moduli (GPa) = 70.03676 91.35302 36.01765
#
# Poissons Ratio (x) = 0.28557 -0.23685
# Poissons Ratio (y) = 0.21893 0.11617
# Poissons Ratio (z) = -0.46055 0.29465
#
# Static dielectric constant tensor:
#      x y z
#    x 1.717750 0.001130 0.003780 
#    y 0.001130 1.704600 0.027510 
#    z 0.003780 0.027510 1.693890 
# 
# From -- ./inp_files/4312.got.cif
#   From: 2010.05.17/outbox.cif.g08.bks.cpg/sg1_3_cif.got.tgz:4312.got - 2010.05.17 20:27:59.
