data_PCOD9000999
_publ_section_title
;
Structure prediction by ZEFSAII (Michael W. Deem and Ramdas Pophale) SiO2 
 PCOD9000999
Probable space group: P -1
;
_chemical_formula_sum "Si O2"
_cell_formula_units_Z 14
_cell_length_a 12.041489
_cell_length_b 5.245130
_cell_length_c 28.398560
_cell_angle_alpha 76.420253
_cell_angle_beta 157.840999
_cell_angle_gamma 104.221826
_cell_volume 655.654340
_symmetry_space_group_name_H-M "P -1"
_symmetry_group_IT_number 2
_symmetry_cell_setting 'triclinic'
loop_
_space_group_symop_operation_xyz
x,y,z
-x,-y,-z
loop_
_atom_site_type_symbol
_atom_site_label
_atom_site_fract_x
_atom_site_fract_y
_atom_site_fract_z
Si Si1 0.035813 0.796865 0.756581
Si Si2 0.768786 0.802321 0.356802
Si Si3 0.509949 0.564322 0.446029
Si Si4 0.038587 0.898830 0.859794
Si Si5 0.404984 0.774156 0.658532
Si Si6 0.379426 0.408273 0.008001
Si Si7 0.858987 0.083895 0.583169
O O1 0.094003 0.937539 0.823532
O O2 0.812990 0.542742 0.693061
O O3 0.892427 0.984887 0.654324
O O4 0.323711 0.694536 0.849391
O O5 0.610325 0.514200 0.312174
O O6 0.099915 0.789046 0.509170
O O7 0.604990 0.006387 0.314688
O O8 0.835657 0.897075 0.325989
O O9 0.500000 0.500000 0.500000
O O10 0.634989 0.864151 0.479478
O O11 0.733614 0.368991 0.520389
O O12 0.229991 0.655545 0.959753
O O13 0.697236 0.823402 0.740086
O O14 0.149498 0.159290 0.920016
O O15 0.500000 0.500000 0.000000
#
# Coordination Sequence:
#
# PCOD9000999 Si02
#       7
#     2   2   2   2   2   2   2
#     4  10  21  36  57  82 115 145 178 227 279 327
#     4  10  21  37  57  83 107 143 185 219 273 328
#     4  10  21  33  51  83 116 146 173 210 274 341
#     4  11  22  37  58  82 110 145 187 230 272 319
#     4  10  21  37  58  79 109 144 182 228 266 318
#     4  10  22  36  54  82 112 146 187 224 270 327
#     4  11  22  36  56  84 117 145 178 222 277 337
#
# _framework density 21.352715
#
# number of rings (size 3 to 8) (size 9 to 14) (size 15 to 20)
#    0.000    1.714    0.000    6.000    0.000   14.857 
#    0.000    0.000    0.000    5.143    0.000    0.000 
#    0.000    0.000    0.000    0.000    0.000    0.000 
#
# Total GULP energy -78248.208818 kJ/mol
# GULP energy per Si atom -5589.157773 kJ/mol
# Density = 2.130412 g / cm^3
# Si number density = 21.352715 Si / 1000 Ang^3
#
#
#
# Elastic Constant Matrix: (Units=GPa)
#
#
# Indices 1 2 3 4 5 6 
#
# 1 72.5995 34.5343 9.1731 -11.5059 20.2224 -1.4929
# 2 34.5343 116.7320 14.7000 -1.2525 10.1026 -6.2858
# 3 9.1731 14.7000 64.3212 -8.3133 16.7624 1.9391
# 4 -11.5059 -1.2525 -8.3133 23.0049 -3.1000 11.8568
# 5 20.2224 10.1026 16.7624 -3.1000 26.4648 -0.1609
# 6 -1.4929 -6.2858 1.9391 11.8568 -0.1609 28.7262
#
#
#
# Elastic Compliance Matrix: (Units=1/GPa)
#
#
# Indices 1 2 3 4 5 6 
#
# 1 0.022603 -0.006012 0.004286 0.013488 -0.016148 -0.006088
# 2 -0.006012 0.010749 -0.002902 -0.005587 0.001702 0.004551
# 3 0.004286 -0.002902 0.020896 0.010935 -0.014160 -0.006416
# 4 0.013488 -0.005587 0.010935 0.068017 -0.007311 -0.029375
# 5 -0.016148 0.001702 -0.014160 -0.007311 0.057611 0.003829
# 6 -0.006088 0.004551 -0.006416 -0.029375 0.003829 0.048070
#
#
# Mechanical properties :
#
#
# Convention : Reuss Voigt Hill
#
# Bulk Modulus (GPa) = 22.22698 41.16305 31.69501
# Shear Modulus (GPa) = 19.82562 28.65553 24.24057
#
# Velocity S-wave (km/s) = 3.05041 3.66732 3.37300
# Velocity P-wave (km/s) = 4.77898 6.10343 5.48135
#
# Compressibility (1/GPa) = 0.04499037
#
# Stress axis : x y z
#
# Youngs Moduli (GPa) = 44.24192 93.03614 47.85620
#
# Poissons Ratio (x) = 0.55935 -0.20509
# Poissons Ratio (y) = 0.26599 0.13887
# Poissons Ratio (z) = -0.18960 0.26998
#
# Static dielectric constant tensor:
#      x y z
#    x 1.783260 0.000780 -0.014950 
#    y 0.000780 1.808440 -0.005370 
#    z -0.014950 -0.005370 1.871970 
# 
# From -- ./inp_files/441940.got.cif
#   From: 2010.05.17/outbox.cif.g08.bks.cpg/sg2_221_cif.got.tgz:441940.got - 2010.06.03 11:33:40.
