data_PCOD9000130
_publ_section_title
;
Structure prediction by ZEFSAII (Michael W. Deem and Ramdas Pophale) SiO2 
 PCOD9000130
Probable space group: P 1
;
_chemical_formula_sum "Si O2"
_cell_formula_units_Z 8
_cell_length_a 7.584692
_cell_length_b 8.691912
_cell_length_c 9.886105
_cell_angle_alpha 46.019982
_cell_angle_beta 95.693761
_cell_angle_gamma 73.755728
_cell_volume 407.620960
_symmetry_space_group_name_H-M "P 1"
_symmetry_group_IT_number 1
_symmetry_cell_setting 'triclinic'
loop_
_space_group_symop_operation_xyz
x,y,z
loop_
_atom_site_type_symbol
_atom_site_label
_atom_site_fract_x
_atom_site_fract_y
_atom_site_fract_z
Si Si1 0.308340 0.102290 0.601380
Si Si2 0.932652 0.459050 0.209770
Si Si3 0.644277 0.789592 0.459137
Si Si4 0.720606 0.008306 0.800120
Si Si5 0.920539 0.347898 0.572599
Si Si6 0.337952 0.697607 0.671862
Si Si7 0.887511 0.034205 0.334481
Si Si8 0.595760 0.127591 0.028197
O O1 0.522478 0.083896 0.649439
O O2 0.173772 0.290140 0.357536
O O3 0.163385 0.208594 0.657071
O O4 0.323546 0.844757 0.718277
O O5 0.848854 0.495548 0.334939
O O6 0.861289 0.288204 0.232349
O O7 0.864046 0.716935 0.979765
O O8 0.827640 0.535134 0.573667
O O9 0.493293 0.741278 0.564976
O O10 0.741537 0.940000 0.447223
O O11 0.538364 0.951986 0.218152
O O12 0.838439 0.155755 0.686685
O O13 0.637356 0.072934 0.907908
O O14 0.432308 0.408740 0.870006
O O15 0.117478 0.830370 0.504543
O O16 0.808995 0.069747 0.152464
#
# Coordination Sequence:
#
# PCOD9000130 Si02
#       8
#     1   1   1   1   1   1   1   1
#     4   9  24  40  61  91 120 156 204 244 293 361
#     4   9  20  44  57  89 122 151 205 245 288 360
#     4  10  22  41  62  89 121 158 202 241 303 350
#     4  12  21  40  65  84 127 160 192 251 299 350
#     4  10  22  42  59  92 119 160 202 238 304 353
#     4  11  21  43  61  89 122 158 200 245 301 351
#     4   9  22  42  60  86 128 152 197 258 284 357
#     4  10  22  38  59  92 119 157 200 242 294 362
#
# _framework density 19.626076999999999
#
# number of rings (size 3 to 8) (size 9 to 14) (size 15 to 20)
#    1.500    0.500    2.500    0.750    3.500    0.000 
#   11.250    0.000    0.000    0.000    0.000    0.000 
#    0.000    0.000    0.000    0.000    0.000    0.000 
#
# Total GULP energy -44560.193120 kJ/mol
# GULP energy per Si atom -5570.024140 kJ/mol
# Density = 1.958141 g / cm^3
# Si number density = 19.626077 Si / 1000 Ang^3
#
#
#
# Elastic Constant Matrix: (Units=GPa)
#
#
# Indices 1 2 3 4 5 6 
#
# 1 40.8418 4.2339 22.5192 -1.1925 7.2647 5.1484
# 2 4.2339 40.1490 3.6610 -3.8031 5.6492 4.3529
# 3 22.5192 3.6610 65.2673 -25.2009 -4.7767 2.1712
# 4 -1.1925 -3.8031 -25.2009 31.8450 3.0182 1.3156
# 5 7.2647 5.6492 -4.7767 3.0182 18.8768 1.5881
# 6 5.1484 4.3529 2.1712 1.3156 1.5881 30.7402
#
#
#
# Elastic Compliance Matrix: (Units=1/GPa)
#
#
# Indices 1 2 3 4 5 6 
#
# 1 0.038009 -0.000630 -0.018727 -0.011712 -0.017004 -0.003574
# 2 -0.000630 0.026894 -0.000276 0.003889 -0.008210 -0.003426
# 3 -0.018727 -0.000276 0.031641 0.023229 0.011637 -0.000655
# 4 -0.011712 0.003889 0.023229 0.049772 0.001468 -0.002436
# 5 -0.017004 -0.008210 0.011637 0.001468 0.064704 -0.000217
# 6 -0.003574 -0.003426 -0.000655 -0.002436 -0.000217 0.033776
#
#
# Mechanical properties :
#
#
# Convention : Reuss Voigt Hill
#
# Bulk Modulus (GPa) = 17.45886 23.00959 20.23423
# Shear Modulus (GPa) = 16.49321 24.01532 20.25426
#
# Velocity S-wave (km/s) = 2.90206 3.50186 3.21597
# Velocity P-wave (km/s) = 4.48825 5.30095 4.91144
#
# Compressibility (1/GPa) = 0.05727750
#
# Stress axis : x y z
#
# Youngs Moduli (GPa) = 26.30973 37.18337 31.60439
#
# Poissons Ratio (x) = 0.02342 0.59185
# Poissons Ratio (y) = 0.01657 0.00874
# Poissons Ratio (z) = 0.49270 0.01028
#
# Static dielectric constant tensor:
#      x y z
#    x 1.659260 -0.002700 0.008440 
#    y -0.002700 1.719510 0.003210 
#    z 0.008440 0.003210 1.690080 
# 
# From -- ./inp_files/4526.got.cif
#   From: 2010.05.17/outbox.cif.g08.bks.cpg/sg1_3_cif.got.tgz:4526.got - 2010.05.17 20:27:59.
