data_PCOD9000444
_publ_section_title
;
Structure prediction by ZEFSAII (Michael W. Deem and Ramdas Pophale) SiO2 
 PCOD9000444
Probable space group: P 1
;
_chemical_formula_sum "Si O2"
_cell_formula_units_Z 8
_cell_length_a 11.393634
_cell_length_b 5.170171
_cell_length_c 8.659489
_cell_angle_alpha 97.328660
_cell_angle_beta 137.064579
_cell_angle_gamma 88.825379
_cell_volume 342.619768
_symmetry_space_group_name_H-M "P 1"
_symmetry_group_IT_number 1
_symmetry_cell_setting 'triclinic'
loop_
_space_group_symop_operation_xyz
x,y,z
loop_
_atom_site_type_symbol
_atom_site_label
_atom_site_fract_x
_atom_site_fract_y
_atom_site_fract_z
Si Si1 0.350730 0.164390 0.781340
Si Si2 0.159286 0.621346 0.495978
Si Si3 0.803646 0.782218 0.163687
Si Si4 0.587329 0.337671 0.772624
Si Si5 0.936659 0.893625 0.632924
Si Si6 0.252621 0.435818 0.283314
Si Si7 0.898040 0.064664 0.948553
Si Si8 0.182996 0.438878 0.881938
O O1 0.227979 0.346658 0.582659
O O2 0.521235 0.156564 0.841857
O O3 0.349143 0.340870 0.945955
O O4 0.257136 0.874766 0.691940
O O5 0.212173 0.669427 0.373631
O O6 0.954764 0.589209 0.309088
O O7 0.810643 0.885542 0.357004
O O8 0.872511 0.943927 0.088437
O O9 0.632402 0.612272 0.926100
O O10 0.430869 0.341697 0.503567
O O11 0.751009 0.263291 0.830415
O O12 0.060131 0.656264 0.724540
O O13 0.053961 0.171250 0.749448
O O14 0.867419 0.895264 0.745763
O O15 0.088624 0.216818 0.125765
O O16 0.255451 0.535770 0.121960
#
# Coordination Sequence:
#
# PCOD9000444 Si02
#       8
#     1   1   1   1   1   1   1   1
#     4  11  23  43  68 104 142 177 240 289 348 429
#     4  11  21  41  71  98 135 186 231 285 351 424
#     4  12  23  45  72 108 143 190 238 302 357 428
#     4  11  27  44  69 112 139 193 241 292 365 434
#     4  11  26  44  78 107 141 190 249 292 361 432
#     4  10  24  47  73 103 145 192 238 299 362 427
#     4  11  26  49  72 107 145 195 241 297 364 427
#     4  11  22  47  71 109 138 193 240 296 360 427
#
# _framework density 23.349502000000001
#
# number of rings (size 3 to 8) (size 9 to 14) (size 15 to 20)
#    0.000    1.000    3.750    2.250    7.000    2.000 
#    4.500    0.000    0.000    0.000    0.000    0.000 
#    0.000    0.000    0.000    0.000    0.000    0.000 
#
# Total GULP energy -44550.497990 kJ/mol
# GULP energy per Si atom -5568.812249 kJ/mol
# Density = 2.329636 g / cm^3
# Si number density = 23.349502 Si / 1000 Ang^3
#
#
#
# Elastic Constant Matrix: (Units=GPa)
#
#
# Indices 1 2 3 4 5 6 
#
# 1 89.2345 16.2090 56.5994 0.8624 -27.6118 -7.2297
# 2 16.2090 87.6404 12.8533 0.1830 4.9547 -3.7465
# 3 56.5994 12.8533 113.6273 -6.7304 -16.8083 4.0317
# 4 0.8624 0.1830 -6.7304 19.8232 4.7140 -4.1870
# 5 -27.6118 4.9547 -16.8083 4.7140 50.3868 1.2444
# 6 -7.2297 -3.7465 4.0317 -4.1870 1.2444 30.5615
#
#
#
# Elastic Compliance Matrix: (Units=1/GPa)
#
#
# Indices 1 2 3 4 5 6 
#
# 1 0.020709 -0.002782 -0.009149 -0.005113 0.008932 0.004701
# 2 -0.002782 0.012202 -0.000426 0.000808 -0.002970 0.001126
# 3 -0.009149 -0.000426 0.013683 0.004513 -0.000746 -0.003373
# 4 -0.005113 0.000808 0.004513 0.055072 -0.006679 0.006111
# 5 0.008932 -0.002970 -0.000746 -0.006679 0.025412 -0.000102
# 6 0.004701 0.001126 -0.003373 0.006111 -0.000102 0.035257
#
#
# Mechanical properties :
#
#
# Convention : Reuss Voigt Hill
#
# Bulk Modulus (GPa) = 45.70449 51.31397 48.50923
# Shear Modulus (GPa) = 25.72795 33.81031 29.76913
#
# Velocity S-wave (km/s) = 3.32303 3.80940 3.57450
# Velocity P-wave (km/s) = 5.86003 6.43218 6.15276
#
# Compressibility (1/GPa) = 0.02187969
#
# Stress axis : x y z
#
# Youngs Moduli (GPa) = 48.28837 81.95701 73.08461
#
# Poissons Ratio (x) = 0.22797 0.66866
# Poissons Ratio (y) = 0.13432 0.03114
# Poissons Ratio (z) = 0.44180 0.03492
#
# Static dielectric constant tensor:
#      x y z
#    x 2.061970 0.030150 -0.108990 
#    y 0.030150 1.901130 -0.042050 
#    z -0.108990 -0.042050 1.949920 
# 
# From -- ./inp_files/2190.got.cif
#   From: 2010.05.17/outbox.cif.g08.bks.cpg/sg1_2_cif.got.tgz:2190.got - 2010.05.17 20:27:59.
