data_PCOD9000270
_publ_section_title
;
Structure prediction by ZEFSAII (Michael W. Deem and Ramdas Pophale) SiO2 
 PCOD9000270
Probable space group: P 1
;
_chemical_formula_sum "Si O2"
_cell_formula_units_Z 8
_cell_length_a 7.928764
_cell_length_b 9.330958
_cell_length_c 7.924938
_cell_angle_alpha 59.654658
_cell_angle_beta 116.205114
_cell_angle_gamma 144.920551
_cell_volume 290.326143
_symmetry_space_group_name_H-M "P 1"
_symmetry_group_IT_number 1
_symmetry_cell_setting 'triclinic'
loop_
_space_group_symop_operation_xyz
x,y,z
loop_
_atom_site_type_symbol
_atom_site_label
_atom_site_fract_x
_atom_site_fract_y
_atom_site_fract_z
Si Si1 0.598840 0.908130 0.383330
Si Si2 0.582591 0.600837 0.035829
Si Si3 0.164990 0.424019 0.694039
Si Si4 0.406647 0.803041 0.016704
Si Si5 0.150281 0.056837 0.812589
Si Si6 0.453332 0.165503 0.234219
Si Si7 0.814306 0.395084 0.771312
Si Si8 0.989701 0.864644 0.502218
O O1 0.445875 0.717009 0.586210
O O2 0.349910 0.743432 0.224770
O O3 0.838645 0.943663 0.394076
O O4 0.646182 0.131320 0.320181
O O5 0.593002 0.771164 0.052368
O O6 0.594191 0.426418 0.220648
O O7 0.264448 0.406096 0.923955
O O8 0.841455 0.778690 0.908807
O O9 0.912844 0.382299 0.644312
O O10 0.112889 0.229580 0.673126
O O11 0.106042 0.602292 0.897461
O O12 0.611163 0.105268 0.917560
O O13 0.196982 0.017791 0.669214
O O14 0.363538 0.156611 0.005497
O O15 0.174180 0.949264 0.364771
O O16 0.763676 0.558831 0.624234
#
# Coordination Sequence:
#
# PCOD9000270 Si02
#       8
#     1   1   1   1   1   1   1   1
#     4  12  26  46  72 114 149 200 263 327 381 473
#     4  10  22  46  72 106 148 200 250 319 387 464
#     4  10  22  45  71 103 152 193 257 319 389 454
#     4  11  26  47  82 112 154 207 262 325 395 469
#     4  11  23  46  75 104 148 206 251 320 395 466
#     4  11  27  50  70 112 156 195 263 324 390 468
#     4  11  25  51  76 112 155 208 258 322 400 465
#     4  12  27  47  80 111 150 209 262 320 395 471
#
# _framework density 27.555218
#
# number of rings (size 3 to 8) (size 9 to 14) (size 15 to 20)
#    0.000    1.000    3.750    1.500    7.000    1.000 
#    4.500    0.000    0.000    0.000    0.000    0.000 
#    0.000    0.000    0.000    0.000    0.000    0.000 
#
# Total GULP energy -44721.783274 kJ/mol
# GULP energy per Si atom -5590.222909 kJ/mol
# Density = 2.749250 g / cm^3
# Si number density = 27.555218 Si / 1000 Ang^3
#
#
#
# Elastic Constant Matrix: (Units=GPa)
#
#
# Indices 1 2 3 4 5 6 
#
# 1 161.4123 42.6326 44.2037 -16.0689 32.7520 -46.7919
# 2 42.6326 143.3556 52.5701 -22.4397 23.1432 -33.0802
# 3 44.2037 52.5701 95.8705 0.1740 29.2732 -23.4401
# 4 -16.0689 -22.4397 0.1740 54.0218 -22.8653 1.2058
# 5 32.7520 23.1432 29.2732 -22.8653 34.5569 -9.2596
# 6 -46.7919 -33.0802 -23.4401 1.2058 -9.2596 49.5707
#
#
#
# Elastic Compliance Matrix: (Units=1/GPa)
#
#
# Indices 1 2 3 4 5 6 
#
# 1 0.010061 0.000224 -0.000655 -0.000063 -0.007022 0.008026
# 2 0.000224 0.010462 -0.005230 0.005140 0.001941 0.004958
# 3 -0.000655 -0.005230 0.020021 -0.010671 -0.019361 0.002002
# 4 -0.000063 0.005140 -0.010671 0.032371 0.027808 0.002731
# 5 -0.007022 0.001941 -0.019361 0.027808 0.068456 -0.002377
# 6 0.008026 0.004958 0.002002 0.002731 -0.002377 0.031494
#
#
# Mechanical properties :
#
#
# Convention : Reuss Voigt Hill
#
# Bulk Modulus (GPa) = 34.22070 75.49457 54.85763
# Shear Modulus (GPa) = 25.78272 45.04535 35.41404
#
# Velocity S-wave (km/s) = 3.06220 4.04757 3.58886
# Velocity P-wave (km/s) = 4.99486 7.02145 6.09300
#
# Compressibility (1/GPa) = 0.02922208
#
# Stress axis : x y z
#
# Youngs Moduli (GPa) = 99.39581 95.58200 49.94724
#
# Poissons Ratio (x) = -0.02141 0.03272
# Poissons Ratio (y) = -0.02227 0.26122
# Poissons Ratio (z) = 0.06511 0.49989
#
# Static dielectric constant tensor:
#      x y z
#    x 2.219040 0.057870 0.042070 
#    y 0.057870 2.220350 0.088380 
#    z 0.042070 0.088380 2.169680 
# 
# From -- ./inp_files/3446.got.cif
#   From: 2010.05.17/outbox.cif.g08.bks.cpg/sg1_2_cif.got.tgz:3446.got - 2010.05.17 20:27:59.
