data_PCOD9000190
_publ_section_title
;
Structure prediction by ZEFSAII (Michael W. Deem and Ramdas Pophale) SiO2 
 PCOD9000190
Probable space group: P 1
;
_chemical_formula_sum "Si O2"
_cell_formula_units_Z 8
_cell_length_a 6.608815
_cell_length_b 8.128358
_cell_length_c 7.040192
_cell_angle_alpha 57.783874
_cell_angle_beta 73.901916
_cell_angle_gamma 75.722424
_cell_volume 305.140289
_symmetry_space_group_name_H-M "P 1"
_symmetry_group_IT_number 1
_symmetry_cell_setting 'triclinic'
loop_
_space_group_symop_operation_xyz
x,y,z
loop_
_atom_site_type_symbol
_atom_site_label
_atom_site_fract_x
_atom_site_fract_y
_atom_site_fract_z
Si Si1 0.393050 0.031180 0.760950
Si Si2 0.569442 0.304616 0.300276
Si Si3 0.000296 0.052015 0.392972
Si Si4 0.789509 0.319215 0.832152
Si Si5 0.648834 0.622247 0.350163
Si Si6 0.231532 0.333315 0.914362
Si Si7 0.964207 0.900302 0.079026
Si Si8 0.354722 0.765273 0.644073
O O1 0.380838 0.190955 0.494727
O O2 0.400376 0.183744 0.842116
O O3 0.501648 0.845103 0.721211
O O4 0.203608 0.915797 0.955657
O O5 0.545137 0.514884 0.274273
O O6 0.775800 0.176279 0.423812
O O7 0.634132 0.317798 0.056553
O O8 0.950822 0.930687 0.291239
O O9 0.130914 0.903407 0.593337
O O10 0.149648 0.212035 0.183714
O O11 0.719334 0.469245 0.593242
O O12 0.018389 0.368203 0.819179
O O13 0.838313 0.093167 0.899690
O O14 0.479621 0.778154 0.404100
O O15 0.851840 0.715588 0.167368
O O16 0.300902 0.543831 0.812611
#
# Coordination Sequence:
#
# PCOD9000190 Si02
#       8
#     1   1   1   1   1   1   1   1
#     4  10  22  42  64 100 139 166 225 284 330 402
#     4  10  22  45  68 100 138 175 228 284 334 403
#     4   9  22  42  65  92 136 171 220 284 327 396
#     4   9  22  44  67  92 140 178 219 287 336 393
#     4  12  24  42  71 101 133 181 231 272 343 409
#     4   9  21  43  61  96 135 170 222 276 336 397
#     4   9  22  45  66  96 133 176 230 274 336 409
#     4  12  23  39  68  99 130 177 223 271 344 399
#
# _framework density 26.217451000000001
#
# number of rings (size 3 to 8) (size 9 to 14) (size 15 to 20)
#    0.000    2.500    1.250    2.250    7.000    2.000 
#    4.500    0.000    0.000    0.000    0.000    0.000 
#    0.000    0.000    0.000    0.000    0.000    0.000 
#
# Total GULP energy -44666.121495 kJ/mol
# GULP energy per Si atom -5583.265187 kJ/mol
# Density = 2.615778 g / cm^3
# Si number density = 26.217451 Si / 1000 Ang^3
#
#
#
# Elastic Constant Matrix: (Units=GPa)
#
#
# Indices 1 2 3 4 5 6 
#
# 1 56.3006 14.7268 36.1794 -21.2283 -1.5351 -1.1013
# 2 14.7268 117.2617 40.0663 2.5139 -4.7933 21.0314
# 3 36.1794 40.0663 84.5482 -22.9921 -5.2214 18.6289
# 4 -21.2283 2.5139 -22.9921 51.2162 5.3852 -12.8225
# 5 -1.5351 -4.7933 -5.2214 5.3852 55.6769 -18.8525
# 6 -1.1013 21.0314 18.6289 -12.8225 -18.8525 44.7556
#
#
#
# Elastic Compliance Matrix: (Units=1/GPa)
#
#
# Indices 1 2 3 4 5 6 
#
# 1 0.029131 -0.001718 -0.011108 0.009385 0.001980 0.009671
# 2 -0.001718 0.011369 -0.004852 -0.004623 -0.000775 -0.005016
# 3 -0.011108 -0.004852 0.021194 0.003708 -0.001216 -0.006265
# 4 0.009385 -0.004623 0.003708 0.027494 0.000592 0.008986
# 5 0.001980 -0.000775 -0.001216 0.000592 0.021165 0.010004
# 6 0.009671 -0.005016 -0.006265 0.008986 0.010004 0.034335
#
#
# Mechanical properties :
#
#
# Convention : Reuss Voigt Hill
#
# Bulk Modulus (GPa) = 37.96836 48.89504 43.43170
# Shear Modulus (GPa) = 26.48005 41.47227 33.97616
#
# Velocity S-wave (km/s) = 3.18152 3.98157 3.60382
# Velocity P-wave (km/s) = 5.29241 6.31090 5.82397
#
# Compressibility (1/GPa) = 0.02633772
#
# Stress axis : x y z
#
# Youngs Moduli (GPa) = 34.32776 87.96184 47.18397
#
# Poissons Ratio (x) = 0.15111 0.52411
# Poissons Ratio (y) = 0.05897 0.22894
# Poissons Ratio (z) = 0.38130 0.42680
#
# Static dielectric constant tensor:
#      x y z
#    x 2.143800 -0.001810 -0.016000 
#    y -0.001810 2.097830 0.035880 
#    z -0.016000 0.035880 1.998800 
# 
# From -- ./inp_files/3958.got.cif
#   From: 2010.05.17/outbox.cif.g08.bks.cpg/sg1_2_cif.got.tgz:3958.got - 2010.05.17 20:27:59.
