data_PCOD9000682
_publ_section_title
;
Structure prediction by ZEFSAII (Michael W. Deem and Ramdas Pophale) SiO2 
 PCOD9000682
Probable space group: P 1
;
_chemical_formula_sum "Si O2"
_cell_formula_units_Z 8
_cell_length_a 7.217243
_cell_length_b 7.253200
_cell_length_c 9.769908
_cell_angle_alpha 131.729273
_cell_angle_beta 115.847395
_cell_angle_gamma 88.519021
_cell_volume 315.775400
_symmetry_space_group_name_H-M "P 1"
_symmetry_group_IT_number 1
_symmetry_cell_setting 'triclinic'
loop_
_space_group_symop_operation_xyz
x,y,z
loop_
_atom_site_type_symbol
_atom_site_label
_atom_site_fract_x
_atom_site_fract_y
_atom_site_fract_z
Si Si1 0.009000 0.034500 0.634120
Si Si2 0.864028 0.532903 0.508325
Si Si3 0.316892 0.039607 0.246719
Si Si4 0.935177 0.224146 0.134140
Si Si5 0.630998 0.892879 0.646234
Si Si6 0.231138 0.544856 0.823090
Si Si7 0.532855 0.306788 0.691364
Si Si8 0.955828 0.703467 0.187260
O O1 0.196853 0.330397 0.827640
O O2 0.041066 0.804982 0.622869
O O3 0.808039 0.062559 0.669054
O O4 0.937110 0.909995 0.397993
O O5 0.642301 0.603161 0.479869
O O6 0.847410 0.295181 0.283488
O O7 0.990809 0.523799 0.682715
O O8 0.158645 0.171718 0.196760
O O9 0.530440 0.224141 0.492362
O O10 0.150494 0.845743 0.212523
O O11 0.367698 0.845756 0.062439
O O12 0.991847 0.477294 0.177723
O O13 0.742214 0.982098 0.873615
O O14 0.458872 0.033429 0.628929
O O15 0.342555 0.430044 0.687493
O O16 0.733878 0.541628 0.947952
#
# Coordination Sequence:
#
# PCOD9000682 Si02
#       8
#     1   1   1   1   1   1   1   1
#     4   9  19  39  65  84 119 167 200 237 316 361
#     4   9  19  35  63  86 118 165 200 245 304 368
#     4  12  23  39  66  90 124 167 202 247 314 363
#     4  10  18  38  63  86 118 165 201 243 303 366
#     4   9  20  38  59  87 123 158 197 247 309 354
#     4  12  21  37  64  93 121 158 210 249 298 370
#     4  11  24  38  61 101 120 155 214 257 296 363
#     4  10  22  42  63  87 129 163 196 259 308 357
#
# _framework density 25.334464000000001
#
# number of rings (size 3 to 8) (size 9 to 14) (size 15 to 20)
#    0.750    1.000    3.750    1.500    1.750    0.000 
#    0.000    5.000    0.000    1.500    0.000    0.000 
#    0.000    0.000    0.000    0.000    0.000    0.000 
#
# Total GULP energy -44644.469453 kJ/mol
# GULP energy per Si atom -5580.558682 kJ/mol
# Density = 2.527680 g / cm^3
# Si number density = 25.334464 Si / 1000 Ang^3
#
#
#
# Elastic Constant Matrix: (Units=GPa)
#
#
# Indices 1 2 3 4 5 6 
#
# 1 34.8348 17.2031 28.6337 11.2144 -6.7187 -8.6496
# 2 17.2031 78.7817 37.4742 -4.0131 -0.9932 -27.0874
# 3 28.6337 37.4742 135.3579 -2.7096 -23.2013 -30.1761
# 4 11.2144 -4.0131 -2.7096 29.9955 -9.6963 -3.2159
# 5 -6.7187 -0.9932 -23.2013 -9.6963 36.1092 9.7979
# 6 -8.6496 -27.0874 -30.1761 -3.2159 9.7979 43.8246
#
#
#
# Elastic Compliance Matrix: (Units=1/GPa)
#
#
# Indices 1 2 3 4 5 6 
#
# 1 0.044863 -0.007653 -0.008739 -0.019522 -0.001935 -0.002893
# 2 -0.007653 0.018930 -0.001865 0.005193 -0.003436 0.010055
# 3 -0.008739 -0.001865 0.012008 0.006724 0.006650 0.004397
# 4 -0.019522 0.005193 0.006724 0.046320 0.011992 0.004704
# 5 -0.001935 -0.003436 0.006650 0.011992 0.036122 -0.005122
# 6 -0.002893 0.010055 0.004397 0.004704 -0.005122 0.032980
#
#
# Mechanical properties :
#
#
# Convention : Reuss Voigt Hill
#
# Bulk Modulus (GPa) = 25.45459 46.17740 35.81600
# Shear Modulus (GPa) = 20.76133 33.03009 26.89571
#
# Velocity S-wave (km/s) = 2.86578 3.61468 3.26179
# Velocity P-wave (km/s) = 4.58470 5.97393 5.32482
#
# Compressibility (1/GPa) = 0.03928565
#
# Stress axis : x y z
#
# Youngs Moduli (GPa) = 22.29023 52.82620 83.28059
#
# Poissons Ratio (x) = 0.40428 0.72779
# Poissons Ratio (y) = 0.17059 0.15534
# Poissons Ratio (z) = 0.19479 0.09854
#
# Static dielectric constant tensor:
#      x y z
#    x 2.047890 -0.025520 0.002030 
#    y -0.025520 2.037810 0.067270 
#    z 0.002030 0.067270 1.983210 
# 
# From -- ./inp_files/6398.got.cif
#   From: 2010.05.17/outbox.cif.g08.bks.cpg/sg1_4_cif.got.tgz:6398.got - 2010.05.17 20:27:59.
