data_PCOD9000072
_publ_section_title
;
Structure prediction by ZEFSAII (Michael W. Deem and Ramdas Pophale) SiO2 
 PCOD9000072
Probable space group: P 1
;
_chemical_formula_sum "Si O2"
_cell_formula_units_Z 6
_cell_length_a 5.174609
_cell_length_b 9.728361
_cell_length_c 6.479741
_cell_angle_alpha 68.562812
_cell_angle_beta 103.569655
_cell_angle_gamma 80.919693
_cell_volume 284.256423
_symmetry_space_group_name_H-M "P 1"
_symmetry_group_IT_number 1
_symmetry_cell_setting 'triclinic'
loop_
_space_group_symop_operation_xyz
x,y,z
loop_
_atom_site_type_symbol
_atom_site_label
_atom_site_fract_x
_atom_site_fract_y
_atom_site_fract_z
Si Si1 0.666700 0.392780 0.932020
Si Si2 0.324873 0.616168 0.044143
Si Si3 0.758862 0.790534 0.039120
Si Si4 0.675154 0.140118 0.730343
Si Si5 0.066720 0.270001 0.452241
Si Si6 0.785120 0.557122 0.484485
O O1 0.641266 0.256760 0.852433
O O2 0.750259 0.517027 0.733346
O O3 0.396531 0.484921 0.957006
O O4 0.901792 0.323760 0.181992
O O5 0.506364 0.544886 0.318869
O O6 0.022798 0.423765 0.497363
O O7 0.481140 0.746032 0.943407
O O8 0.014885 0.693003 0.006855
O O9 0.734908 0.967573 0.916259
O O10 0.811470 0.720862 0.320730
O O11 0.385521 0.186855 0.529610
O O12 0.915215 0.165756 0.613853
#
# Coordination Sequence:
#
# PCOD9000072 Si02
#       6
#     1   1   1   1   1   1
#     4  10  22  43  70  96 122 176 220 256 313 392
#     4   9  21  39  64  95 123 166 213 256 318 377
#     4  10  21  43  64  91 135 162 203 278 320 357
#     4  11  24  43  66  94 134 165 211 270 319 373
#     4  10  23  40  65  96 128 169 213 261 316 383
#     4   8  21  38  67  90 126 164 214 259 310 376
#
# _framework density 21.107704999999999
#
# number of rings (size 3 to 8) (size 9 to 14) (size 15 to 20)
#    1.000    1.333    0.000    1.000    7.000    5.333 
#    3.000    1.667    0.000    0.000    0.000    0.000 
#    0.000    0.000    0.000    0.000    0.000    0.000 
#
# Total GULP energy -33491.979480 kJ/mol
# GULP energy per Si atom -5581.996580 kJ/mol
# Density = 2.105966 g / cm^3
# Si number density = 21.107705 Si / 1000 Ang^3
#
#
#
# Elastic Constant Matrix: (Units=GPa)
#
#
# Indices 1 2 3 4 5 6 
#
# 1 86.7939 23.2084 18.3483 -2.0555 -9.6585 0.7015
# 2 23.2084 86.6507 64.3298 -14.6736 -10.5936 1.4261
# 3 18.3483 64.3298 125.9876 -17.1704 -13.4965 4.2139
# 4 -2.0555 -14.6736 -17.1704 43.1038 4.7844 -4.2990
# 5 -9.6585 -10.5936 -13.4965 4.7844 22.0425 -8.4680
# 6 0.7015 1.4261 4.2139 -4.2990 -8.4680 21.0332
#
#
#
# Elastic Compliance Matrix: (Units=1/GPa)
#
#
# Indices 1 2 3 4 5 6 
#
# 1 0.012845 -0.003025 0.000047 -0.000792 0.004996 0.001617
# 2 -0.003025 0.019920 -0.009095 0.002921 0.002950 0.002357
# 3 0.000047 -0.009095 0.013168 0.001760 0.003184 -0.000381
# 4 -0.000792 0.002921 0.001760 0.025458 -0.001885 0.003920
# 5 0.004996 0.002950 0.003184 -0.001885 0.060093 0.022804
# 6 0.001617 0.002357 -0.000381 0.003920 0.022804 0.057389
#
#
# Mechanical properties :
#
#
# Convention : Reuss Voigt Hill
#
# Bulk Modulus (GPa) = 45.90034 56.80058 51.35046
# Shear Modulus (GPa) = 22.69832 30.13895 26.41864
#
# Velocity S-wave (km/s) = 3.28282 3.78281 3.54165
# Velocity P-wave (km/s) = 6.01350 6.78586 6.41132
#
# Compressibility (1/GPa) = 0.02178633
#
# Stress axis : x y z
#
# Youngs Moduli (GPa) = 77.85328 50.20131 75.94088
#
# Poissons Ratio (x) = 0.15187 -0.00359
# Poissons Ratio (y) = 0.23553 0.69070
# Poissons Ratio (z) = -0.00368 0.45659
#
# Static dielectric constant tensor:
#      x y z
#    x 1.776210 0.039040 -0.002020 
#    y 0.039040 1.744130 -0.000370 
#    z -0.002020 -0.000370 1.782850 
# 
# From -- ./inp_files/256.got.cif
#   From: 2010.05.17/outbox.cif.g08.bks.cpg/sg1_1_cif.got.tgz:256.got - 2010.05.17 20:27:59.
