data_PCOD9000692
_publ_section_title
;
Structure prediction by ZEFSAII (Michael W. Deem and Ramdas Pophale) SiO2 
 PCOD9000692
Probable space group: P 1
;
_chemical_formula_sum "Si O2"
_cell_formula_units_Z 8
_cell_length_a 9.957537
_cell_length_b 11.788144
_cell_length_c 8.101319
_cell_angle_alpha 34.756783
_cell_angle_beta 59.346974
_cell_angle_gamma 43.135595
_cell_volume 360.717609
_symmetry_space_group_name_H-M "P 1"
_symmetry_group_IT_number 1
_symmetry_cell_setting 'triclinic'
loop_
_space_group_symop_operation_xyz
x,y,z
loop_
_atom_site_type_symbol
_atom_site_label
_atom_site_fract_x
_atom_site_fract_y
_atom_site_fract_z
Si Si1 0.427360 0.523770 0.533590
Si Si2 0.124758 0.460793 0.701900
Si Si3 0.665304 0.866264 0.481415
Si Si4 0.478897 0.871158 0.248152
Si Si5 0.418110 0.765482 0.909761
Si Si6 0.150149 0.666950 0.087207
Si Si7 0.591372 0.279911 0.198747
Si Si8 0.726431 0.982427 0.808243
O O1 0.225948 0.552991 0.639924
O O2 0.464796 0.644578 0.515219
O O3 0.413571 0.686064 0.192076
O O4 0.595859 0.232743 0.711750
O O5 0.143272 0.541675 0.409257
O O6 0.888992 0.611405 0.690717
O O7 0.264864 0.153940 0.010094
O O8 0.577677 0.865572 0.363155
O O9 0.684304 0.092194 0.209182
O O10 0.496447 0.922063 0.648446
O O11 0.632088 0.840408 0.055779
O O12 0.204015 0.855979 0.867465
O O13 0.581924 0.511722 0.996685
O O14 0.352286 0.435470 0.147066
O O15 0.952515 0.802877 0.943595
O O16 0.693288 0.086895 0.520887
#
# Coordination Sequence:
#
# PCOD9000692 Si02
#       8
#     1   1   1   1   1   1   1   1
#     4   9  20  42  63  86 117 164 198 248 282 362
#     4  10  22  41  62  88 122 156 203 242 298 350
#     4  12  23  39  59  93 124 156 188 255 307 341
#     4  11  22  38  61  92 124 149 205 246 294 357
#     4   8  20  39  57  86 121 150 200 240 292 349
#     4   9  18  42  62  85 114 161 200 239 287 358
#     4   9  21  39  61  82 125 156 194 247 290 353
#     4  10  18  40  65  86 115 158 208 237 290 356
#
# _framework density 22.178014000000001
#
# number of rings (size 3 to 8) (size 9 to 14) (size 15 to 20)
#    0.750    1.500    3.750    0.750    0.000    4.000 
#   13.500    0.000    0.000    0.000    0.000    0.000 
#    0.000    0.000    0.000    0.000    0.000    0.000 
#
# Total GULP energy -44546.583885 kJ/mol
# GULP energy per Si atom -5568.322986 kJ/mol
# Density = 2.212754 g / cm^3
# Si number density = 22.178014 Si / 1000 Ang^3
#
#
#
# Elastic Constant Matrix: (Units=GPa)
#
#
# Indices 1 2 3 4 5 6 
#
# 1 134.6708 36.9053 38.0868 -28.9505 7.1941 1.5091
# 2 36.9053 26.9725 2.3444 -10.7947 3.7589 0.2803
# 3 38.0868 2.3444 58.4926 -7.0919 -1.1386 -4.3484
# 4 -28.9505 -10.7947 -7.0919 31.2819 -4.3343 5.7619
# 5 7.1941 3.7589 -1.1386 -4.3343 40.0247 -3.2015
# 6 1.5091 0.2803 -4.3484 5.7619 -3.2015 44.9903
#
#
#
# Elastic Compliance Matrix: (Units=1/GPa)
#
#
# Indices 1 2 3 4 5 6 
#
# 1 0.017182 -0.019612 -0.009719 0.007241 -0.000930 -0.002387
# 2 -0.019612 0.065893 0.010945 0.006790 -0.001591 0.000322
# 3 -0.009719 0.010945 0.023185 -0.000231 0.001565 0.002640
# 4 0.007241 0.006790 -0.000231 0.042288 0.002188 -0.005568
# 5 -0.000930 -0.001591 0.001565 0.002188 0.025722 0.001742
# 6 -0.002387 0.000322 0.002640 -0.005568 0.001742 0.023397
#
#
# Mechanical properties :
#
#
# Convention : Reuss Voigt Hill
#
# Bulk Modulus (GPa) = 14.39103 41.64544 28.01823
# Shear Modulus (GPa) = 19.40983 32.77934 26.09459
#
# Velocity S-wave (km/s) = 2.96156 3.84866 3.43388
# Velocity P-wave (km/s) = 4.26584 6.21033 5.32755
#
# Compressibility (1/GPa) = 0.06948773
#
# Stress axis : x y z
#
# Youngs Moduli (GPa) = 58.20125 15.17607 43.13183
#
# Poissons Ratio (x) = 0.29763 0.41921
# Poissons Ratio (y) = 1.14144 -0.47209
# Poissons Ratio (z) = 0.56567 -0.16611
#
# Static dielectric constant tensor:
#      x y z
#    x 1.807250 0.055320 -0.008590 
#    y 0.055320 1.843680 0.027570 
#    z -0.008590 0.027570 1.835270 
# 
# From -- ./inp_files/4785.got.cif
#   From: 2010.05.17/outbox.cif.g08.bks.cpg/sg1_3_cif.got.tgz:4785.got - 2010.05.17 20:27:59.
