data_PCOD9000855
_publ_section_title
;
Structure prediction by ZEFSAII (Michael W. Deem and Ramdas Pophale) SiO2 
 PCOD9000855
Probable space group: P 1
;
_chemical_formula_sum "Si O2"
_cell_formula_units_Z 8
_cell_length_a 7.874564
_cell_length_b 10.367747
_cell_length_c 12.837111
_cell_angle_alpha 143.587080
_cell_angle_beta 30.700871
_cell_angle_gamma 135.502570
_cell_volume 316.839357
_symmetry_space_group_name_H-M "P 1"
_symmetry_group_IT_number 1
_symmetry_cell_setting 'triclinic'
loop_
_space_group_symop_operation_xyz
x,y,z
loop_
_atom_site_type_symbol
_atom_site_label
_atom_site_fract_x
_atom_site_fract_y
_atom_site_fract_z
Si Si1 0.735470 0.855770 0.786990
Si Si2 0.375144 0.114673 0.963722
Si Si3 0.930392 0.275340 0.472330
Si Si4 0.074008 0.855228 0.237347
Si Si5 0.197036 0.676373 0.266527
Si Si6 0.154880 0.260952 0.878897
Si Si7 0.993192 0.702275 0.839677
Si Si8 0.904911 0.487522 0.951495
O O1 0.002319 0.710713 0.498120
O O2 0.429705 0.760292 0.956404
O O3 0.929026 0.042872 0.873243
O O4 0.558812 0.982588 0.870039
O O5 0.622871 0.322131 0.939769
O O6 0.071567 0.219055 0.249814
O O7 0.215371 0.925926 0.851340
O O8 0.539659 0.223322 0.648749
O O9 0.015778 0.523013 0.622186
O O10 0.079143 0.103812 0.361833
O O11 0.044816 0.831444 0.359932
O O12 0.815483 0.701792 0.204766
O O13 0.598671 0.730580 0.090016
O O14 0.113116 0.440118 0.106112
O O15 0.060037 0.348857 0.871383
O O16 0.112272 0.587583 0.809432
#
# Coordination Sequence:
#
# PCOD9000855 Si02
#       8
#     1   1   1   1   1   1   1   1
#     4  10  20  39  66  89 128 166 210 265 314 377
#     4  10  22  41  63  94 125 166 214 264 318 378
#     4  10  21  41  65  91 130 163 212 273 311 384
#     4  10  22  43  66  95 129 172 214 262 329 376
#     4  10  23  42  63  92 132 168 212 267 315 384
#     4   9  21  40  63  94 128 164 216 263 315 386
#     4  11  22  43  63  95 129 165 216 261 321 386
#     4  10  21  43  63  90 131 166 212 261 321 377
#
# _framework density 25.249386999999999
#
# number of rings (size 3 to 8) (size 9 to 14) (size 15 to 20)
#    0.000    2.000    2.500    0.750    3.500    4.000 
#   11.250    0.000    0.000    0.000    0.000    0.000 
#    0.000    0.000    0.000    0.000    0.000    0.000 
#
# Total GULP energy -44749.322098 kJ/mol
# GULP energy per Si atom -5593.665262 kJ/mol
# Density = 2.519192 g / cm^3
# Si number density = 25.249387 Si / 1000 Ang^3
#
#
#
# Elastic Constant Matrix: (Units=GPa)
#
#
# Indices 1 2 3 4 5 6 
#
# 1 97.7389 30.4621 13.0171 10.6016 5.1651 7.5404
# 2 30.4621 152.2863 34.1252 20.3278 8.7606 42.1380
# 3 13.0171 34.1252 97.2822 2.9699 -5.1312 14.4139
# 4 10.6016 20.3278 2.9699 25.6049 -1.2154 9.8216
# 5 5.1651 8.7606 -5.1312 -1.2154 9.8824 0.6200
# 6 7.5404 42.1380 14.4139 9.8216 0.6200 46.9451
#
#
#
# Elastic Compliance Matrix: (Units=1/GPa)
#
#
# Indices 1 2 3 4 5 6 
#
# 1 0.011539 -0.001269 -0.001397 -0.004158 -0.006185 0.000666
# 2 -0.001269 0.010859 -0.002947 -0.005439 -0.010700 -0.007359
# 3 -0.001397 -0.002947 0.012182 0.002575 0.010082 -0.001542
# 4 -0.004158 -0.005439 0.002575 0.047549 0.014517 -0.005381
# 5 -0.006185 -0.010700 0.010082 0.014517 0.120748 0.002871
# 6 0.000666 -0.007359 -0.001542 -0.005381 0.002871 0.029361
#
#
# Mechanical properties :
#
#
# Convention : Reuss Voigt Hill
#
# Bulk Modulus (GPa) = 42.81954 55.83515 49.32734
# Shear Modulus (GPa) = 19.90065 34.46666 27.18365
#
# Velocity S-wave (km/s) = 2.81047 3.69867 3.28473
# Velocity P-wave (km/s) = 5.24663 6.35623 5.82790
#
# Compressibility (1/GPa) = 0.02335382
#
# Stress axis : x y z
#
# Youngs Moduli (GPa) = 86.66085 92.09364 82.08953
#
# Poissons Ratio (x) = 0.11683 0.11468
# Poissons Ratio (y) = 0.10994 0.24194
# Poissons Ratio (z) = 0.12106 0.27143
#
# Static dielectric constant tensor:
#      x y z
#    x 2.023980 0.010900 -0.033860 
#    y 0.010900 1.982900 0.009450 
#    z -0.033860 0.009450 1.976980 
# 
# From -- ./inp_files/4033.got.cif
#   From: 2010.05.17/outbox.cif.g08.bks.cpg/sg1_3_cif.got.tgz:4033.got - 2010.05.17 20:27:59.
