data_PCOD9000116
_publ_section_title
;
Structure prediction by ZEFSAII (Michael W. Deem and Ramdas Pophale) SiO2 
 PCOD9000116
Probable space group: P 1
;
_chemical_formula_sum "Si O2"
_cell_formula_units_Z 8
_cell_length_a 15.335495
_cell_length_b 4.944655
_cell_length_c 11.688201
_cell_angle_alpha 63.036665
_cell_angle_beta 26.376221
_cell_angle_gamma 60.139892
_cell_volume 341.415857
_symmetry_space_group_name_H-M "P 1"
_symmetry_group_IT_number 1
_symmetry_cell_setting 'triclinic'
loop_
_space_group_symop_operation_xyz
x,y,z
loop_
_atom_site_type_symbol
_atom_site_label
_atom_site_fract_x
_atom_site_fract_y
_atom_site_fract_z
Si Si1 0.378530 0.689430 0.149670
Si Si2 0.750237 0.095677 0.239662
Si Si3 0.499834 0.240365 0.300518
Si Si4 0.789639 0.839690 0.584396
Si Si5 0.152945 0.332436 0.314219
Si Si6 0.511276 0.664915 0.516343
Si Si7 0.150847 0.178933 0.868480
Si Si8 0.994046 0.405144 0.252248
O O1 0.470835 0.422008 0.183504
O O2 0.291592 0.523097 0.179751
O O3 0.209294 0.969711 0.351314
O O4 0.558820 0.846278 0.870398
O O5 0.692546 0.245086 0.151931
O O6 0.580517 0.305230 0.480820
O O7 0.966413 0.132420 0.016999
O O8 0.688904 0.767305 0.359174
O O9 0.508356 0.867324 0.362862
O O10 0.296221 0.352621 0.594284
O O11 0.866508 0.737231 0.384781
O O12 0.926791 0.549852 0.550763
O O13 0.853719 0.155966 0.478792
O O14 0.167500 0.315175 0.162162
O O15 0.298547 0.839024 0.786072
O O16 0.080705 0.355028 0.033958
#
# Coordination Sequence:
#
# PCOD9000116 Si02
#       8
#     1   1   1   1   1   1   1   1
#     4  12  22  43  66  87 132 160 209 251 315 359
#     4   9  19  40  54  90 121 156 198 233 317 349
#     4   8  24  39  61  97 118 159 207 248 303 379
#     4  10  23  43  58  97 122 161 210 258 289 377
#     4  10  23  42  61  96 117 174 203 251 313 354
#     4   8  21  38  54  93 118 150 206 229 305 370
#     4   9  21  43  64  88 128 159 193 268 303 359
#     4  10  21  46  62  92 128 153 220 250 305 369
#
# _framework density 23.431833999999998
#
# number of rings (size 3 to 8) (size 9 to 14) (size 15 to 20)
#    2.250    0.000    1.250    0.750    1.750    6.000 
#   13.500    0.000    0.000    0.000    0.000    0.000 
#    0.000    0.000    0.000    0.000    0.000    0.000 
#
# Total GULP energy -44584.360369 kJ/mol
# GULP energy per Si atom -5573.045046 kJ/mol
# Density = 2.337850 g / cm^3
# Si number density = 23.431834 Si / 1000 Ang^3
#
#
#
# Elastic Constant Matrix: (Units=GPa)
#
#
# Indices 1 2 3 4 5 6 
#
# 1 136.4674 24.3526 42.4527 -10.8327 -40.3770 9.7976
# 2 24.3526 102.7734 4.5503 2.0133 -8.8167 17.8209
# 3 42.4527 4.5503 54.0248 -1.7977 -20.8391 -4.9373
# 4 -10.8327 2.0133 -1.7977 28.5874 -4.2051 -7.2960
# 5 -40.3770 -8.8167 -20.8391 -4.2051 30.2716 -1.2585
# 6 9.7976 17.8209 -4.9373 -7.2960 -1.2585 36.9520
#
#
#
# Elastic Compliance Matrix: (Units=1/GPa)
#
#
# Indices 1 2 3 4 5 6 
#
# 1 0.014905 -0.001706 -0.004936 0.007511 0.016958 -0.001728
# 2 -0.001706 0.011170 -0.000075 -0.002792 0.000310 -0.005485
# 3 -0.004936 -0.000075 0.028362 0.003537 0.013673 0.006298
# 4 0.007511 -0.002792 0.003537 0.043184 0.018012 0.008968
# 5 0.016958 0.000310 0.013673 0.018012 0.067785 0.003046
# 6 -0.001728 -0.005485 0.006298 0.008968 0.003046 0.032882
#
#
# Mechanical properties :
#
#
# Convention : Reuss Voigt Hill
#
# Bulk Modulus (GPa) = 24.38737 48.44188 36.41463
# Shear Modulus (GPa) = 22.18385 33.95619 28.07002
#
# Velocity S-wave (km/s) = 3.08025 3.81090 3.46489
# Velocity P-wave (km/s) = 4.80427 6.33106 5.61976
#
# Compressibility (1/GPa) = 0.04100483
#
# Stress axis : x y z
#
# Youngs Moduli (GPa) = 67.08995 89.52390 35.25837
#
# Poissons Ratio (x) = 0.15273 0.17402
# Poissons Ratio (y) = 0.11446 0.00263
# Poissons Ratio (z) = 0.33113 0.00669
#
# Static dielectric constant tensor:
#      x y z
#    x 1.940050 -0.070770 0.001070 
#    y -0.070770 1.950560 0.001880 
#    z 0.001070 0.001880 1.876360 
# 
# From -- ./inp_files/6776.got.cif
#   From: 2010.05.17/outbox.cif.g08.bks.cpg/sg1_4_cif.got.tgz:6776.got - 2010.05.17 20:27:59.
