data_PCOD9000952
_publ_section_title
;
Structure prediction by ZEFSAII (Michael W. Deem and Ramdas Pophale) SiO2 
 PCOD9000952
Probable space group: P 1
;
_chemical_formula_sum "Si O2"
_cell_formula_units_Z 8
_cell_length_a 12.131960
_cell_length_b 5.093892
_cell_length_c 13.594435
_cell_angle_alpha 128.094026
_cell_angle_beta 31.726689
_cell_angle_gamma 127.518087
_cell_volume 340.409589
_symmetry_space_group_name_H-M "P 1"
_symmetry_group_IT_number 1
_symmetry_cell_setting 'triclinic'
loop_
_space_group_symop_operation_xyz
x,y,z
loop_
_atom_site_type_symbol
_atom_site_label
_atom_site_fract_x
_atom_site_fract_y
_atom_site_fract_z
Si Si1 0.717170 0.580350 0.141030
Si Si2 0.018300 0.582893 0.677357
Si Si3 0.606285 0.160801 0.929374
Si Si4 0.341971 0.461207 0.549796
Si Si5 0.132151 0.255744 0.338240
Si Si6 0.971624 0.210737 0.992597
Si Si7 0.830725 0.637364 0.537463
Si Si8 0.416310 0.247194 0.660473
O O1 0.672332 0.326873 0.024084
O O2 0.511626 0.459934 0.335630
O O3 0.902626 0.509395 0.054740
O O4 0.793082 0.972923 0.140285
O O5 0.116013 0.380484 0.644197
O O6 0.165616 0.561605 0.465867
O O7 0.004864 0.933130 0.820598
O O8 0.776039 0.418631 0.793098
O O9 0.357820 0.182884 0.111164
O O10 0.690450 0.815527 0.762651
O O11 0.389093 0.275640 0.569681
O O12 0.385063 0.863087 0.634192
O O13 0.969536 0.376033 0.413673
O O14 0.003560 0.929112 0.419375
O O15 0.206223 0.356601 0.891705
O O16 0.646431 0.454282 0.562097
#
# Coordination Sequence:
#
# PCOD9000952 Si02
#       8
#     1   1   1   1   1   1   1   1
#     4  11  21  39  64 105 124 160 219 270 336 391
#     4   9  20  40  65 100 129 161 208 274 336 389
#     4  10  22  43  68  99 130 170 214 280 325 388
#     4  11  22  40  69  94 133 167 210 271 335 386
#     4  11  23  42  68  98 128 173 219 272 326 382
#     4  10  21  37  64  93 133 167 208 268 332 387
#     4  11  26  45  66  93 133 179 224 262 317 391
#     4  11  23  44  62  90 132 181 208 265 323 386
#
# _framework density 23.501099
#
# number of rings (size 3 to 8) (size 9 to 14) (size 15 to 20)
#    0.000    1.500    1.250    4.500    0.000    7.000 
#    6.750    0.000    0.000    0.000    0.000    0.000 
#    0.000    0.000    0.000    0.000    0.000    0.000 
#
# Total GULP energy -44604.407886 kJ/mol
# GULP energy per Si atom -5575.550986 kJ/mol
# Density = 2.344761 g / cm^3
# Si number density = 23.501099 Si / 1000 Ang^3
#
#
#
# Elastic Constant Matrix: (Units=GPa)
#
#
# Indices 1 2 3 4 5 6 
#
# 1 85.9610 27.0760 38.8231 -14.3499 -22.9452 -11.7023
# 2 27.0760 43.2934 21.9819 -15.2523 -6.5368 -11.9232
# 3 38.8231 21.9819 156.6952 -14.7300 -25.6451 -1.7932
# 4 -14.3499 -15.2523 -14.7300 25.2265 -4.2942 -5.9274
# 5 -22.9452 -6.5368 -25.6451 -4.2942 30.7621 -4.2962
# 6 -11.7023 -11.9232 -1.7932 -5.9274 -4.2962 34.1606
#
#
#
# Elastic Compliance Matrix: (Units=1/GPa)
#
#
# Indices 1 2 3 4 5 6 
#
# 1 0.022566 -0.000165 -0.000070 0.019569 0.021391 0.013754
# 2 -0.000165 0.045296 0.000378 0.036357 0.018297 0.024383
# 3 -0.000070 0.000378 0.008448 0.007241 0.008483 0.002875
# 4 0.019569 0.036357 0.007241 0.094994 0.047517 0.042232
# 5 0.021391 0.018297 0.008483 0.047517 0.070422 0.031261
# 6 0.013754 0.024383 0.002875 0.042232 0.031261 0.053906
#
#
# Mechanical properties :
#
#
# Convention : Reuss Voigt Hill
#
# Bulk Modulus (GPa) = 13.05565 51.30127 32.17846
# Shear Modulus (GPa) = 15.58221 31.23441 23.40831
#
# Velocity S-wave (km/s) = 2.57775 3.64958 3.15945
# Velocity P-wave (km/s) = 3.79831 6.29571 5.19919
#
# Compressibility (1/GPa) = 0.07659516
#
# Stress axis : x y z
#
# Youngs Moduli (GPa) = 44.31499 22.07694 118.36942
#
# Poissons Ratio (x) = 0.00365 0.00828
# Poissons Ratio (y) = 0.00733 -0.04474
# Poissons Ratio (z) = 0.00310 -0.00834
#
# Static dielectric constant tensor:
#      x y z
#    x 1.919950 -0.009070 -0.000950 
#    y -0.009070 1.941620 0.034570 
#    z -0.000950 0.034570 2.048440 
# 
# From -- ./inp_files/2688.got.cif
#   From: 2010.05.17/outbox.cif.g08.bks.cpg/sg1_2_cif.got.tgz:2688.got - 2010.05.17 20:27:59.
