data_PCOD9000765
_publ_section_title
;
Structure prediction by ZEFSAII (Michael W. Deem and Ramdas Pophale) SiO2 
 PCOD9000765
Probable space group: P 1
;
_chemical_formula_sum "Si O2"
_cell_formula_units_Z 8
_cell_length_a 7.477726
_cell_length_b 7.443194
_cell_length_c 10.847858
_cell_angle_alpha 134.035789
_cell_angle_beta 134.541681
_cell_angle_gamma 63.508943
_cell_volume 308.351729
_symmetry_space_group_name_H-M "P 1"
_symmetry_group_IT_number 1
_symmetry_cell_setting 'triclinic'
loop_
_space_group_symop_operation_xyz
x,y,z
loop_
_atom_site_type_symbol
_atom_site_label
_atom_site_fract_x
_atom_site_fract_y
_atom_site_fract_z
Si Si1 0.216460 0.756480 0.156940
Si Si2 0.592543 0.061399 0.312506
Si Si3 0.756637 0.323683 0.295745
Si Si4 0.675513 0.886186 0.876762
Si Si5 0.920250 0.822363 0.707583
Si Si6 0.082915 0.206507 0.768758
Si Si7 0.451208 0.633071 0.873676
Si Si8 0.261720 0.101299 0.551696
O O1 0.923648 0.777853 0.004107
O O2 0.369003 0.969315 0.250542
O O3 0.287503 0.846226 0.371033
O O4 0.239379 0.469876 0.995354
O O5 0.553717 0.244667 0.266724
O O6 0.811092 0.203050 0.567718
O O7 0.637559 0.803214 0.135007
O O8 0.799139 0.620936 0.454385
O O9 0.011996 0.213485 0.422717
O O10 0.694210 0.172387 0.070158
O O11 0.469522 0.729955 0.787710
O O12 0.733792 0.860796 0.748699
O O13 0.172573 0.698266 0.815895
O O14 0.019640 0.066809 0.798431
O O15 0.226700 0.064003 0.662856
O O16 0.466834 0.336838 0.745348
#
# Coordination Sequence:
#
# PCOD9000765 Si02
#       8
#     1   1   1   1   1   1   1   1
#     4  11  21  39  66  94 118 166 217 253 306 367
#     4  10  19  40  65  89 122 159 214 258 296 361
#     4   8  19  36  61  92 113 158 215 251 297 359
#     4  10  20  38  65  93 116 161 216 257 299 364
#     4  11  22  42  61  90 138 161 195 263 314 379
#     4  11  24  41  59  94 134 163 199 255 321 378
#     4  10  20  41  70  93 117 165 219 259 305 360
#     4   9  19  37  63  89 118 159 213 260 292 362
#
# _framework density 25.944396000000001
#
# number of rings (size 3 to 8) (size 9 to 14) (size 15 to 20)
#    0.000    2.000    2.500    2.250    3.500    1.000 
#    6.750    0.000    0.000    0.000    0.000    0.000 
#    0.000    0.000    0.000    0.000    0.000    0.000 
#
# Total GULP energy -44713.178510 kJ/mol
# GULP energy per Si atom -5589.147314 kJ/mol
# Density = 2.588535 g / cm^3
# Si number density = 25.944396 Si / 1000 Ang^3
#
#
#
# Elastic Constant Matrix: (Units=GPa)
#
#
# Indices 1 2 3 4 5 6 
#
# 1 110.0090 17.8890 37.2032 5.5041 -14.5757 21.0872
# 2 17.8890 56.5734 31.2994 -4.5077 -6.7033 6.5642
# 3 37.2032 31.2994 162.4171 3.7833 -12.9992 8.1699
# 4 5.5041 -4.5077 3.7833 39.8904 6.5786 5.6279
# 5 -14.5757 -6.7033 -12.9992 6.5786 43.5979 -0.8604
# 6 21.0872 6.5642 8.1699 5.6279 -0.8604 38.9487
#
#
#
# Elastic Compliance Matrix: (Units=1/GPa)
#
#
# Indices 1 2 3 4 5 6 
#
# 1 0.011464 -0.001794 -0.001731 -0.001396 0.003148 -0.005270
# 2 -0.001794 0.020791 -0.003471 0.003066 0.001055 -0.002224
# 3 -0.001731 -0.003471 0.007338 -0.001078 0.001242 0.000166
# 4 -0.001396 0.003066 -0.001078 0.026942 -0.004451 -0.003526
# 5 0.003148 0.001055 0.001242 -0.004451 0.025175 -0.000943
# 6 -0.005270 -0.002224 0.000166 -0.003526 -0.000943 0.029357
#
#
# Mechanical properties :
#
#
# Convention : Reuss Voigt Hill
#
# Bulk Modulus (GPa) = 39.05894 55.75362 47.40628
# Shear Modulus (GPa) = 34.82068 40.66125 37.74097
#
# Velocity S-wave (km/s) = 3.66748 3.96314 3.81817
# Velocity P-wave (km/s) = 5.74643 6.51754 6.14409
#
# Compressibility (1/GPa) = 0.02560233
#
# Stress axis : x y z
#
# Youngs Moduli (GPa) = 87.22684 48.09740 136.26955
#
# Poissons Ratio (x) = 0.08631 0.23584
# Poissons Ratio (y) = 0.15652 0.47295
# Poissons Ratio (z) = 0.15096 0.16693
#
# Static dielectric constant tensor:
#      x y z
#    x 2.112260 -0.085820 0.031190 
#    y -0.085820 2.092960 -0.049210 
#    z 0.031190 -0.049210 2.058210 
# 
# From -- ./inp_files/4687.got.cif
#   From: 2010.05.17/outbox.cif.g08.bks.cpg/sg1_3_cif.got.tgz:4687.got - 2010.05.17 20:27:59.
