data_PCOD9000792
_publ_section_title
;
Structure prediction by ZEFSAII (Michael W. Deem and Ramdas Pophale) SiO2 
 PCOD9000792
Probable space group: P 1
;
_chemical_formula_sum "Si O2"
_cell_formula_units_Z 8
_cell_length_a 7.466321
_cell_length_b 12.288288
_cell_length_c 8.900831
_cell_angle_alpha 148.554205
_cell_angle_beta 126.233338
_cell_angle_gamma 44.993666
_cell_volume 301.050888
_symmetry_space_group_name_H-M "P 1"
_symmetry_group_IT_number 1
_symmetry_cell_setting 'triclinic'
loop_
_space_group_symop_operation_xyz
x,y,z
loop_
_atom_site_type_symbol
_atom_site_label
_atom_site_fract_x
_atom_site_fract_y
_atom_site_fract_z
Si Si1 0.256220 0.532060 0.302190
Si Si2 0.448349 0.809997 0.316965
Si Si3 0.914546 0.572665 0.423204
Si Si4 0.486215 0.695434 0.883618
Si Si5 0.824536 0.999090 0.574872
Si Si6 0.786670 0.113652 0.008218
Si Si7 0.016666 0.277023 0.589642
Si Si8 0.358338 0.236423 0.468633
O O1 0.367914 0.614558 0.595571
O O2 0.050502 0.479459 0.219993
O O3 0.086805 0.764340 0.391390
O O4 0.488390 0.296565 0.078395
O O5 0.621231 0.634882 0.327030
O O6 0.636443 0.904543 0.445918
O O7 0.222384 0.329626 0.671842
O O8 0.186080 0.044745 0.500444
O O9 0.136441 0.404544 0.445919
O O10 0.861536 0.840823 0.753639
O O11 0.784495 0.512518 0.813438
O O12 0.411353 0.968263 0.138198
O O13 0.395904 0.691679 0.005241
O O14 0.876978 0.117411 0.886598
O O15 0.651652 0.174208 0.564809
O O16 0.904971 0.194529 0.296265
#
# Coordination Sequence:
#
# PCOD9000792 Si02
#       8
#     1   1   1   1   1   1   1   1
#     4   9  17  32  52  69  89 121 158 190 222 270
#     4   8  16  29  48  69  90 121 155 188 222 268
#     4  10  20  31  46  71  98 121 148 190 236 270
#     4   9  17  32  52  69  89 121 158 190 222 270
#     4   8  16  29  48  69  90 121 155 188 222 268
#     4   9  17  32  52  69  89 121 158 190 222 270
#     4   9  17  32  52  69  89 121 158 190 222 270
#     4  10  20  31  46  71  98 121 148 190 236 270
#
# _framework density 26.573581000000001
#
# number of rings (size 3 to 8) (size 9 to 14) (size 15 to 20)
#    0.000    3.500    0.000    3.000    0.000   10.000 
#    0.000    5.000    0.000    6.000    0.000    0.000 
#    0.000    0.000    0.000    0.000    0.000    0.000 
#
# Total GULP energy -44604.231451 kJ/mol
# GULP energy per Si atom -5575.528931 kJ/mol
# Density = 2.651310 g / cm^3
# Si number density = 26.573581 Si / 1000 Ang^3
#
#
#
# Elastic Constant Matrix: (Units=GPa)
#
#
# Indices 1 2 3 4 5 6 
#
# 1 42.1749 28.9906 18.6222 31.3138 -12.5106 -18.1801
# 2 28.9906 300.9544 93.4379 53.0440 -11.9571 -22.7495
# 3 18.6222 93.4379 144.9909 28.1971 -22.7232 -14.2317
# 4 31.3138 53.0440 28.1971 89.4142 -27.2904 -5.1738
# 5 -12.5106 -11.9571 -22.7232 -27.2904 30.3877 19.7158
# 6 -18.1801 -22.7495 -14.2317 -5.1738 19.7158 41.0236
#
#
#
# Elastic Compliance Matrix: (Units=1/GPa)
#
#
# Indices 1 2 3 4 5 6 
#
# 1 0.043817 0.001195 -0.002919 -0.018738 -0.016477 0.024624
# 2 0.001195 0.005049 -0.003181 -0.004254 -0.006999 0.005053
# 3 -0.002919 -0.003181 0.009984 0.002559 0.009936 -0.004046
# 4 -0.018738 -0.004254 0.002559 0.027786 0.031311 -0.021319
# 5 -0.016477 -0.006999 0.009936 0.031311 0.089187 -0.046650
# 6 0.024624 0.005053 -0.004046 -0.021319 -0.046650 0.056418
#
#
# Mechanical properties :
#
#
# Convention : Reuss Voigt Hill
#
# Bulk Modulus (GPa) = 20.39138 85.58016 52.98577
# Shear Modulus (GPa) = 19.35000 55.30306 37.32653
#
# Velocity S-wave (km/s) = 2.70138 4.56689 3.75193
# Velocity P-wave (km/s) = 4.17375 7.75136 6.22510
#
# Compressibility (1/GPa) = 0.04904034
#
# Stress axis : x y z
#
# Youngs Moduli (GPa) = 22.82194 198.06106 100.16016
#
# Poissons Ratio (x) = -0.23661 0.29236
# Poissons Ratio (y) = -0.02726 0.31858
# Poissons Ratio (z) = 0.06662 0.62998
#
# Static dielectric constant tensor:
#      x y z
#    x 2.252740 0.038040 0.154100 
#    y 0.038040 2.182860 -0.038830 
#    z 0.154100 -0.038830 2.133310 
# 
# From -- ./inp_files/6770.got.cif
#   From: 2010.05.17/outbox.cif.g08.bks.cpg/sg1_4_cif.got.tgz:6770.got - 2010.05.17 20:27:59.
