data_PCOD9000721
_publ_section_title
;
Structure prediction by ZEFSAII (Michael W. Deem and Ramdas Pophale) SiO2 
 PCOD9000721
Probable space group: P 1
;
_chemical_formula_sum "Si O2"
_cell_formula_units_Z 8
_cell_length_a 12.318076
_cell_length_b 7.202503
_cell_length_c 13.437804
_cell_angle_alpha 132.360443
_cell_angle_beta 148.293498
_cell_angle_gamma 38.072319
_cell_volume 386.360252
_symmetry_space_group_name_H-M "P 1"
_symmetry_group_IT_number 1
_symmetry_cell_setting 'triclinic'
loop_
_space_group_symop_operation_xyz
x,y,z
loop_
_atom_site_type_symbol
_atom_site_label
_atom_site_fract_x
_atom_site_fract_y
_atom_site_fract_z
Si Si1 0.193620 0.133880 0.524640
Si Si2 0.444978 0.673145 0.384900
Si Si3 0.433289 0.398111 0.085668
Si Si4 0.184689 0.638615 0.629802
Si Si5 0.587445 0.200292 0.918982
Si Si6 0.934780 0.817737 0.294412
Si Si7 0.043036 0.580587 0.088674
Si Si8 0.998965 0.320441 0.768795
O O1 0.060244 0.492555 0.542182
O O2 0.433703 0.039777 0.744308
O O3 0.297702 0.985505 0.443786
O O4 0.040236 0.013094 0.406624
O O5 0.418577 0.648345 0.237103
O O6 0.729183 0.511837 0.578756
O O7 0.321451 0.498618 0.268640
O O8 0.647554 0.071507 0.180585
O O9 0.517582 0.388618 0.034362
O O10 0.179674 0.410665 0.895876
O O11 0.468686 0.413039 0.807061
O O12 0.101724 0.641753 0.454431
O O13 0.101607 0.973613 0.708644
O O14 0.869454 0.927215 0.037671
O O15 0.965112 0.604310 0.150356
O O16 0.995340 0.387098 0.907157
#
# Coordination Sequence:
#
# PCOD9000721 Si02
#       8
#     1   1   1   1   1   1   1   1
#     4   9  20  38  64  81 117 161 190 237 296 344
#     4  10  19  36  63  84 118 162 191 241 296 350
#     4  10  21  35  64  89 112 163 198 234 298 351
#     4  10  21  36  63  91 117 156 194 245 298 342
#     4   9  19  38  56  89 116 149 203 235 289 351
#     4  10  19  40  61  88 118 156 201 240 288 354
#     4   9  20  37  63  84 116 162 197 234 298 351
#     4  11  19  38  62  88 122 153 194 246 297 347
#
# _framework density 20.706064000000001
#
# number of rings (size 3 to 8) (size 9 to 14) (size 15 to 20)
#    0.750    1.500    2.500    0.750    0.000    0.000 
#    9.000    0.000   19.250    0.000    0.000    0.000 
#    0.000    0.000    0.000    0.000    0.000    0.000 
#
# Total GULP energy -44538.417923 kJ/mol
# GULP energy per Si atom -5567.302240 kJ/mol
# Density = 2.065894 g / cm^3
# Si number density = 20.706064 Si / 1000 Ang^3
#
#
#
# Elastic Constant Matrix: (Units=GPa)
#
#
# Indices 1 2 3 4 5 6 
#
# 1 33.7532 11.9861 25.7658 -11.2122 -6.6008 -6.6970
# 2 11.9861 38.9033 25.6949 -11.0458 -0.8180 -2.2677
# 3 25.7658 25.6949 125.2059 -14.2245 -4.0069 -8.1357
# 4 -11.2122 -11.0458 -14.2245 35.1509 -5.2094 -4.5726
# 5 -6.6008 -0.8180 -4.0069 -5.2094 43.6639 1.0815
# 6 -6.6970 -2.2677 -8.1357 -4.5726 1.0815 28.0204
#
#
#
# Elastic Compliance Matrix: (Units=1/GPa)
#
#
# Indices 1 2 3 4 5 6 
#
# 1 0.043200 -0.005483 -0.005503 0.012187 0.007130 0.009997
# 2 -0.005483 0.032466 -0.004701 0.006704 0.000122 0.001042
# 3 -0.005503 -0.004701 0.010316 0.001154 0.000128 0.001483
# 4 0.012187 0.006704 0.001154 0.037087 0.006261 0.009601
# 5 0.007130 0.000122 0.000128 0.006261 0.024696 0.001819
# 6 0.009997 0.001042 0.001483 0.009601 0.001819 0.040089
#
#
# Mechanical properties :
#
#
# Convention : Reuss Voigt Hill
#
# Bulk Modulus (GPa) = 18.31202 36.08399 27.19801
# Shear Modulus (GPa) = 21.05892 30.32807 25.69350
#
# Velocity S-wave (km/s) = 3.19257 3.83129 3.52642
# Velocity P-wave (km/s) = 4.73846 6.08574 5.45386
#
# Compressibility (1/GPa) = 0.05460894
#
# Stress axis : x y z
#
# Youngs Moduli (GPa) = 23.14791 30.80159 96.94149
#
# Poissons Ratio (x) = 0.16887 0.53343
# Poissons Ratio (y) = 0.12691 0.45574
# Poissons Ratio (z) = 0.12737 0.14480
#
# Static dielectric constant tensor:
#      x y z
#    x 1.775980 -0.031450 -0.010670 
#    y -0.031450 1.754730 -0.004150 
#    z -0.010670 -0.004150 1.817310 
# 
# From -- ./inp_files/3214.got.cif
#   From: 2010.05.17/outbox.cif.g08.bks.cpg/sg1_2_cif.got.tgz:3214.got - 2010.05.17 20:27:59.
