data_PCOD9000985
_publ_section_title
;
Structure prediction by ZEFSAII (Michael W. Deem and Ramdas Pophale) SiO2 
 PCOD9000985
Probable space group: P -1
;
_chemical_formula_sum "Si O2"
_cell_formula_units_Z 14
_cell_length_a 10.768579
_cell_length_b 5.153446
_cell_length_c 15.071918
_cell_angle_alpha 68.742949
_cell_angle_beta 71.576577
_cell_angle_gamma 93.285993
_cell_volume 725.449586
_symmetry_space_group_name_H-M "P -1"
_symmetry_group_IT_number 2
_symmetry_cell_setting 'triclinic'
loop_
_space_group_symop_operation_xyz
x,y,z
-x,-y,-z
loop_
_atom_site_type_symbol
_atom_site_label
_atom_site_fract_x
_atom_site_fract_y
_atom_site_fract_z
Si Si1 0.549669 0.728579 0.885916
Si Si2 0.921270 0.533372 0.327627
Si Si3 0.773544 0.977644 0.368541
Si Si4 0.205323 0.911315 0.458839
Si Si5 0.501917 0.239738 0.597033
Si Si6 0.801698 0.117451 0.735709
Si Si7 0.460855 0.667659 0.224156
O O1 0.519624 0.579076 0.815563
O O2 0.709589 0.848728 0.837300
O O3 0.490808 0.016950 0.867803
O O4 0.500000 0.500000 0.000000
O O5 0.874103 0.278561 0.301470
O O6 0.898842 0.361142 0.447436
O O7 0.066504 0.723204 0.266602
O O8 0.817281 0.742092 0.327461
O O9 0.786131 0.888863 0.480785
O O10 0.622774 0.996474 0.377607
O O11 0.355826 0.853157 0.427660
O O12 0.167491 0.975137 0.359834
O O13 0.500000 0.500000 0.500000
O O14 0.482005 0.331657 0.690888
O O15 0.697650 0.333508 0.727131
#
# Coordination Sequence:
#
# PCOD9000985 Si02
#       7
#     2   2   2   2   2   2   2
#     4  10  21  38  58  84 107 132 181 234 282 317
#     4  10  21  33  47  75 107 152 175 211 259 322
#     4  10  22  31  49  72 111 149 180 206 251 308
#     4   9  20  32  49  74 109 146 181 212 262 306
#     4  11  19  36  53  80 117 147 184 218 255 320
#     4   9  21  34  54  77 109 136 181 220 273 323
#     4   9  23  34  58  82 108 140 175 223 280 316
#
# _framework density 19.298376999999999
#
# number of rings (size 3 to 8) (size 9 to 14) (size 15 to 20)
#    1.714    0.571    1.429    1.286    4.000    2.857 
#    0.000    0.000    0.000    0.000    0.000    6.000 
#    0.000    0.000    0.000    0.000    0.000    0.000 
#
# Total GULP energy -77953.569724 kJ/mol
# GULP energy per Si atom -5568.112123 kJ/mol
# Density = 1.925445 g / cm^3
# Si number density = 19.298377 Si / 1000 Ang^3
#
#
#
# Elastic Constant Matrix: (Units=GPa)
#
#
# Indices 1 2 3 4 5 6 
#
# 1 41.2506 9.5813 16.8865 -9.9912 -6.2480 24.4556
# 2 9.5813 62.9943 13.8775 -9.4932 -6.2728 19.0183
# 3 16.8865 13.8775 66.6210 -18.7767 -10.7516 22.3999
# 4 -9.9912 -9.4932 -18.7767 25.8139 5.1092 -5.9708
# 5 -6.2480 -6.2728 -10.7516 5.1092 15.5822 -5.4670
# 6 24.4556 19.0183 22.3999 -5.9708 -5.4670 30.9457
#
#
#
# Elastic Compliance Matrix: (Units=1/GPa)
#
#
# Indices 1 2 3 4 5 6 
#
# 1 0.052071 0.007664 0.006191 0.015421 0.006995 -0.046130
# 2 0.007664 0.021421 0.002874 0.007643 0.004496 -0.019033
# 3 0.006191 0.002874 0.025596 0.015528 0.008980 -0.020604
# 4 0.015421 0.007643 0.015528 0.055512 -0.004623 -0.018230
# 5 0.006995 0.004496 0.008980 -0.004623 0.075692 -0.002311
# 6 -0.046130 -0.019033 -0.020604 -0.018230 -0.002311 0.091455
#
#
# Mechanical properties :
#
#
# Convention : Reuss Voigt Hill
#
# Bulk Modulus (GPa) = 7.54464 27.95073 17.74768
# Shear Modulus (GPa) = 15.03892 23.16971 19.10431
#
# Velocity S-wave (km/s) = 2.79459 3.46873 3.14975
# Velocity P-wave (km/s) = 3.78563 5.52790 4.73755
#
# Compressibility (1/GPa) = 0.13254451
#
# Stress axis : x y z
#
# Youngs Moduli (GPa) = 19.20465 46.68283 39.06911
#
# Poissons Ratio (x) = -0.35776 -0.24186
# Poissons Ratio (y) = -0.14718 -0.11230
# Poissons Ratio (z) = -0.11889 -0.13418
#
# Static dielectric constant tensor:
#      x y z
#    x 1.682340 -0.012950 -0.011850 
#    y -0.012950 1.739000 -0.009510 
#    z -0.011850 -0.009510 1.676470 
# 
# From -- ./inp_files/510185.got.cif
#   From: 2010.05.17/outbox.cif.g08.bks.cpg/sg2_256_cif.got.tgz:510185.got - 2010.06.03 11:33:40.
