data_PCOD9000783
_publ_section_title
;
Structure prediction by ZEFSAII (Michael W. Deem and Ramdas Pophale) SiO2 
 PCOD9000783
Probable space group: P 1
;
_chemical_formula_sum "Si O2"
_cell_formula_units_Z 8
_cell_length_a 15.135186
_cell_length_b 5.158169
_cell_length_c 11.480340
_cell_angle_alpha 119.049569
_cell_angle_beta 149.925266
_cell_angle_gamma 48.829340
_cell_volume 329.583907
_symmetry_space_group_name_H-M "P 1"
_symmetry_group_IT_number 1
_symmetry_cell_setting 'triclinic'
loop_
_space_group_symop_operation_xyz
x,y,z
loop_
_atom_site_type_symbol
_atom_site_label
_atom_site_fract_x
_atom_site_fract_y
_atom_site_fract_z
Si Si1 0.889660 0.043640 0.176260
Si Si2 0.365913 0.778233 0.682097
Si Si3 0.345099 0.170113 0.223112
Si Si4 0.687709 0.880719 0.116807
Si Si5 0.061915 0.979348 0.995586
Si Si6 0.950020 0.737769 0.588118
Si Si7 0.228389 0.929152 0.809522
Si Si8 0.687805 0.138937 0.750842
O O1 0.783567 0.461822 0.131554
O O2 0.815963 0.968534 0.195514
O O3 0.810394 0.902671 0.951613
O O4 0.131305 0.899576 0.413481
O O5 0.372916 0.725410 0.819200
O O6 0.496838 0.483007 0.670130
O O7 0.455000 0.031725 0.835998
O O8 0.575063 0.022274 0.506634
O O9 0.226647 0.583909 0.145645
O O10 0.200019 0.129110 0.142392
O O11 0.346645 0.974224 0.063495
O O12 0.730500 0.933544 0.310435
O O13 0.952490 0.938825 0.747810
O O14 0.867483 0.175934 0.905132
O O15 0.111271 0.751766 0.687938
O O16 0.051550 0.329380 0.650837
#
# Coordination Sequence:
#
# PCOD9000783 Si02
#       8
#     1   1   1   1   1   1   1   1
#     4  11  25  43  61  97 134 169 217 267 318 392
#     4  11  24  41  68  98 134 169 219 270 327 385
#     4  10  24  46  69  95 131 177 219 270 325 386
#     4  11  23  40  66  97 129 172 213 265 332 378
#     4  10  24  44  68  97 133 171 221 271 319 395
#     4  10  19  42  68  94 132 170 213 274 327 377
#     4  10  21  41  69  97 130 167 218 275 324 379
#     4  11  26  43  69  97 135 179 216 262 336 394
#
# _framework density 24.273031
#
# number of rings (size 3 to 8) (size 9 to 14) (size 15 to 20)
#    0.000    1.500    2.500    0.750    1.750   12.000 
#    0.000    0.000    0.000    0.000    0.000    0.000 
#    0.000    0.000    0.000    0.000    0.000    0.000 
#
# Total GULP energy -44684.888437 kJ/mol
# GULP energy per Si atom -5585.611055 kJ/mol
# Density = 2.421778 g / cm^3
# Si number density = 24.273031 Si / 1000 Ang^3
#
#
#
# Elastic Constant Matrix: (Units=GPa)
#
#
# Indices 1 2 3 4 5 6 
#
# 1 102.0219 21.3318 16.4956 -10.1622 -2.1130 4.1007
# 2 21.3318 48.6000 -1.9613 -2.5411 3.0636 20.8198
# 3 16.4956 -1.9613 177.7400 8.3040 -22.4292 8.5489
# 4 -10.1622 -2.5411 8.3040 14.8212 -9.6881 7.8247
# 5 -2.1130 3.0636 -22.4292 -9.6881 40.9296 5.3309
# 6 4.1007 20.8198 8.5489 7.8247 5.3309 40.2790
#
#
#
# Elastic Compliance Matrix: (Units=1/GPa)
#
#
# Indices 1 2 3 4 5 6 
#
# 1 0.012129 -0.004517 -0.001249 0.010782 0.002978 -0.001124
# 2 -0.004517 0.031475 0.001563 0.014502 0.004242 -0.019519
# 3 -0.001249 0.001563 0.006338 -0.000642 0.003447 -0.002357
# 4 0.010782 0.014502 -0.000642 0.116865 0.031381 -0.035313
# 5 0.002978 0.004242 0.003447 0.031381 0.035410 -0.014010
# 6 -0.001124 -0.019519 -0.002357 -0.035313 -0.014010 0.044245
#
#
# Mechanical properties :
#
#
# Convention : Reuss Voigt Hill
#
# Bulk Modulus (GPa) = 24.07596 44.45492 34.26544
# Shear Modulus (GPa) = 18.60722 38.70568 28.65645
#
# Velocity S-wave (km/s) = 2.77172 3.99757 3.43970
# Velocity P-wave (km/s) = 4.49262 6.29776 5.47016
#
# Compressibility (1/GPa) = 0.04153520
#
# Stress axis : x y z
#
# Youngs Moduli (GPa) = 82.44681 31.77169 157.78585
#
# Poissons Ratio (x) = 0.14351 0.19714
# Poissons Ratio (y) = 0.37240 -0.24665
# Poissons Ratio (z) = 0.10301 -0.04966
#
# Static dielectric constant tensor:
#      x y z
#    x 1.934950 -0.021540 -0.034430 
#    y -0.021540 1.959560 -0.044150 
#    z -0.034430 -0.044150 2.078050 
# 
# From -- ./inp_files/2460.got.cif
#   From: 2010.05.17/outbox.cif.g08.bks.cpg/sg1_2_cif.got.tgz:2460.got - 2010.05.17 20:27:59.
