data_PCOD9000534
_publ_section_title
;
Structure prediction by ZEFSAII (Michael W. Deem and Ramdas Pophale) SiO2 
 PCOD9000534
Probable space group: P 1
;
_chemical_formula_sum "Si O2"
_cell_formula_units_Z 8
_cell_length_a 5.288900
_cell_length_b 8.981635
_cell_length_c 12.483244
_cell_angle_alpha 145.743937
_cell_angle_beta 83.224233
_cell_angle_gamma 91.603717
_cell_volume 328.884420
_symmetry_space_group_name_H-M "P 1"
_symmetry_group_IT_number 1
_symmetry_cell_setting 'triclinic'
loop_
_space_group_symop_operation_xyz
x,y,z
loop_
_atom_site_type_symbol
_atom_site_label
_atom_site_fract_x
_atom_site_fract_y
_atom_site_fract_z
Si Si1 0.647060 0.731360 0.564020
Si Si2 0.556380 0.891428 0.899792
Si Si3 0.003312 0.191248 0.785553
Si Si4 0.740823 0.771206 0.171619
Si Si5 0.247296 0.377662 0.090128
Si Si6 0.907990 0.212835 0.178227
Si Si7 0.402687 0.922522 0.466258
Si Si8 0.265720 0.906584 0.121759
O O1 0.564599 0.752147 0.703558
O O2 0.693693 0.415418 0.360858
O O3 0.482208 0.828461 0.526119
O O4 0.880252 0.918437 0.653855
O O5 0.381655 0.768455 0.923440
O O6 0.447758 0.189009 0.039414
O O7 0.815428 0.940783 0.978416
O O8 0.778073 0.444006 0.963348
O O9 0.168094 0.153906 0.644080
O O10 0.203866 0.253816 0.904375
O O11 0.658145 0.920282 0.377693
O O12 0.509636 0.890771 0.176611
O O13 0.020991 0.819362 0.143111
O O14 0.295663 0.678653 0.266355
O O15 0.987920 0.363040 0.159093
O O16 0.133576 0.176512 0.232779
#
# Coordination Sequence:
#
# PCOD9000534 Si02
#       8
#     1   1   1   1   1   1   1   1
#     4  12  24  42  74 120 142 180 250 318 400 440
#     4  11  22  44  75 106 150 191 242 317 374 440
#     4  12  26  44  76 113 152 196 243 317 386 450
#     4  12  28  52  74 104 158 206 260 298 362 462
#     4  11  21  42  72 108 151 181 240 314 386 439
#     4  11  22  44  75 106 150 191 242 317 374 440
#     4  12  26  44  76 113 152 196 243 317 386 450
#     4  11  27  52  74 100 147 219 254 294 368 443
#
# _framework density 24.324653999999999
#
# number of rings (size 3 to 8) (size 9 to 14) (size 15 to 20)
#    0.000    0.500    6.250    2.250    3.500    0.000 
#    4.500    0.000    0.000    0.000    0.000    0.000 
#    0.000    0.000    0.000    0.000    0.000    0.000 
#
# Total GULP energy -44556.340650 kJ/mol
# GULP energy per Si atom -5569.542581 kJ/mol
# Density = 2.426929 g / cm^3
# Si number density = 24.324654 Si / 1000 Ang^3
#
#
#
# Elastic Constant Matrix: (Units=GPa)
#
#
# Indices 1 2 3 4 5 6 
#
# 1 101.0422 25.6111 11.7771 -14.9053 4.1311 -16.4975
# 2 25.6111 67.7943 29.9201 -32.3065 -6.7800 -8.3831
# 3 11.7771 29.9201 118.7222 -35.9635 -10.5270 -18.4673
# 4 -14.9053 -32.3065 -35.9635 35.7894 9.4546 -3.7131
# 5 4.1311 -6.7800 -10.5270 9.4546 35.4485 -4.3572
# 6 -16.4975 -8.3831 -18.4673 -3.7131 -4.3572 48.5351
#
#
#
# Elastic Compliance Matrix: (Units=1/GPa)
#
#
# Indices 1 2 3 4 5 6 
#
# 1 0.011930 -0.002177 0.001578 0.005663 -0.002294 0.004507
# 2 -0.002177 0.029063 0.002843 0.029010 -0.000150 0.007568
# 3 0.001578 0.002843 0.014412 0.018341 0.000729 0.007980
# 4 0.005663 0.029010 0.018341 0.079131 -0.008409 0.019213
# 5 -0.002294 -0.000150 0.000729 -0.008409 0.031107 0.001621
# 6 0.004507 0.007568 0.007980 0.019213 0.001621 0.028094
#
#
# Mechanical properties :
#
#
# Convention : Reuss Voigt Hill
#
# Bulk Modulus (GPa) = 16.69634 46.90835 31.80235
# Shear Modulus (GPa) = 23.89916 38.63796 31.26856
#
# Velocity S-wave (km/s) = 3.13790 3.98983 3.58923
# Velocity P-wave (km/s) = 4.47296 6.36798 5.50266
#
# Compressibility (1/GPa) = 0.05989336
#
# Stress axis : x y z
#
# Youngs Moduli (GPa) = 83.82464 34.40774 69.38851
#
# Poissons Ratio (x) = 0.07490 -0.10951
# Poissons Ratio (y) = 0.18247 -0.19728
# Poissons Ratio (z) = -0.13229 -0.09782
#
# Static dielectric constant tensor:
#      x y z
#    x 2.084470 0.028260 -0.101790 
#    y 0.028260 1.984580 0.009110 
#    z -0.101790 0.009110 1.971890 
# 
# From -- ./inp_files/1720.got.cif
#   From: 2010.05.17/outbox.cif.g08.bks.cpg/sg1_1_cif.got.tgz:1720.got - 2010.05.17 20:27:59.
