data_PCOD9000321
_publ_section_title
;
Structure prediction by ZEFSAII (Michael W. Deem and Ramdas Pophale) SiO2 
 PCOD9000321
Probable space group: P 1
;
_chemical_formula_sum "Si O2"
_cell_formula_units_Z 8
_cell_length_a 5.369447
_cell_length_b 11.997715
_cell_length_c 5.220599
_cell_angle_alpha 86.528187
_cell_angle_beta 90.430511
_cell_angle_gamma 119.088153
_cell_volume 293.265920
_symmetry_space_group_name_H-M "P 1"
_symmetry_group_IT_number 1
_symmetry_cell_setting 'triclinic'
loop_
_space_group_symop_operation_xyz
x,y,z
loop_
_atom_site_type_symbol
_atom_site_label
_atom_site_fract_x
_atom_site_fract_y
_atom_site_fract_z
Si Si1 0.998400 0.535140 0.321880
Si Si2 0.287804 0.798717 0.023770
Si Si3 0.860024 0.223104 0.020549
Si Si4 0.268691 0.436348 0.693437
Si Si5 0.798033 0.684816 0.656553
Si Si6 0.865731 0.994906 0.809783
Si Si7 0.455538 0.308470 0.096190
Si Si8 0.068892 0.926630 0.332629
O O1 0.930456 0.600059 0.553526
O O2 0.689243 0.437116 0.217518
O O3 0.201199 0.658465 0.140344
O O4 0.164243 0.460391 0.418362
O O5 0.316324 0.894537 0.244901
O O6 0.555901 0.868588 0.830531
O O7 0.007153 0.771926 0.865810
O O8 0.979565 0.360752 0.862453
O O9 0.126895 0.244523 0.194782
O O10 0.814449 0.115794 0.828917
O O11 0.573302 0.208725 0.138212
O O12 0.490486 0.579491 0.757760
O O13 0.408288 0.348863 0.799670
O O14 0.817815 0.781685 0.421454
O O15 0.063937 0.001816 0.575129
O O16 0.995717 0.983996 0.080813
#
# Coordination Sequence:
#
# PCOD9000321 Si02
#       8
#     1   1   1   1   1   1   1   1
#     4  11  24  42  78 116 156 210 257 334 410 488
#     4  11  25  46  77 115 163 205 267 332 408 486
#     4  10  26  49  74 107 159 207 271 334 393 482
#     4  10  23  42  75 106 160 198 263 324 404 473
#     4  11  23  44  72 117 160 202 262 330 409 482
#     4  12  28  49  78 112 154 219 272 330 406 477
#     4  10  24  47  72 113 149 207 263 332 397 476
#     4  11  27  47  74 114 153 206 267 334 395 486
#
# _framework density 27.278998999999999
#
# number of rings (size 3 to 8) (size 9 to 14) (size 15 to 20)
#    0.750    0.500    2.500    1.500    8.750    1.000 
#    0.000    1.250    0.000    0.000    0.000    0.000 
#    0.000    0.000    0.000    0.000    0.000    0.000 
#
# Total GULP energy -44703.390335 kJ/mol
# GULP energy per Si atom -5587.923792 kJ/mol
# Density = 2.721691 g / cm^3
# Si number density = 27.278999 Si / 1000 Ang^3
#
#
#
# Elastic Constant Matrix: (Units=GPa)
#
#
# Indices 1 2 3 4 5 6 
#
# 1 155.1480 39.7801 48.9761 12.6340 7.5979 -14.6322
# 2 39.7801 83.9852 31.3747 16.7951 -1.9211 -3.7504
# 3 48.9761 31.3747 128.9626 2.7090 -3.9493 -18.9640
# 4 12.6340 16.7951 2.7090 38.2433 -10.2105 -9.7885
# 5 7.5979 -1.9211 -3.9493 -10.2105 50.3279 9.4173
# 6 -14.6322 -3.7504 -18.9640 -9.7885 9.4173 51.4742
#
#
#
# Elastic Compliance Matrix: (Units=1/GPa)
#
#
# Indices 1 2 3 4 5 6 
#
# 1 0.008226 -0.002712 -0.002292 -0.001572 -0.002103 0.001382
# 2 -0.002712 0.015412 -0.002867 -0.006180 -0.000134 -0.001855
# 3 -0.002292 -0.002867 0.009743 0.002340 0.000913 0.003007
# 4 -0.001572 -0.006180 0.002340 0.032031 0.005747 0.005005
# 5 -0.002103 -0.000134 0.000913 0.005747 0.022020 -0.003207
# 6 0.001382 -0.001855 0.003007 0.005005 -0.003207 0.022331
#
#
# Mechanical properties :
#
#
# Convention : Reuss Voigt Hill
#
# Bulk Modulus (GPa) = 56.69142 67.59530 62.14336
# Shear Modulus (GPa) = 38.05617 44.54007 41.29812
#
# Velocity S-wave (km/s) = 3.73912 4.04513 3.89513
# Velocity P-wave (km/s) = 6.28240 6.83011 6.56197
#
# Compressibility (1/GPa) = 0.01763935
#
# Stress axis : x y z
#
# Youngs Moduli (GPa) = 121.57027 64.88333 102.63636
#
# Poissons Ratio (x) = 0.17596 0.23527
# Poissons Ratio (y) = 0.32969 0.29423
# Poissons Ratio (z) = 0.27867 0.18600
#
# Static dielectric constant tensor:
#      x y z
#    x 2.171530 -0.031700 -0.031710 
#    y -0.031700 2.143530 0.044830 
#    z -0.031710 0.044830 2.152420 
# 
# From -- ./inp_files/420.got.cif
#   From: 2010.05.17/outbox.cif.g08.bks.cpg/sg1_1_cif.got.tgz:420.got - 2010.05.17 20:27:59.
