data_PCOD9000633
_publ_section_title
;
Structure prediction by ZEFSAII (Michael W. Deem and Ramdas Pophale) SiO2 
 PCOD9000633
Probable space group: P 1
;
_chemical_formula_sum "Si O2"
_cell_formula_units_Z 6
_cell_length_a 5.274079
_cell_length_b 9.464861
_cell_length_c 4.855195
_cell_angle_alpha 107.763185
_cell_angle_beta 96.357037
_cell_angle_gamma 77.343210
_cell_volume 224.949284
_symmetry_space_group_name_H-M "P 1"
_symmetry_group_IT_number 1
_symmetry_cell_setting 'triclinic'
loop_
_space_group_symop_operation_xyz
x,y,z
loop_
_atom_site_type_symbol
_atom_site_label
_atom_site_fract_x
_atom_site_fract_y
_atom_site_fract_z
Si Si1 0.817920 0.334560 0.510510
Si Si2 0.758375 0.890289 0.082853
Si Si3 0.900251 0.129667 0.871852
Si Si4 0.053032 0.574946 0.979103
Si Si5 0.370518 0.612257 0.543436
Si Si6 0.297099 0.932104 0.461837
O O1 0.731251 0.229274 0.674847
O O2 0.131504 0.575988 0.306400
O O3 0.183359 0.066409 0.737450
O O4 0.920891 0.228987 0.203840
O O5 0.502611 0.950393 0.264428
O O6 0.024516 0.910692 0.279054
O O7 0.807896 0.708284 0.963717
O O8 0.776100 0.987038 0.867938
O O9 0.009439 0.418263 0.757161
O O10 0.600361 0.469768 0.448624
O O11 0.284622 0.617910 0.852466
O O12 0.404949 0.775974 0.542908
#
# Coordination Sequence:
#
# PCOD9000633 Si02
#       6
#     1   1   1   1   1   1
#     4  12  28  50  82 118 170 206 268 344 412 476
#     4  11  27  52  86 118 161 218 277 335 402 491
#     4  12  26  54  76 126 162 216 264 342 412 482
#     4  11  26  49  82 121 155 216 276 331 401 491
#     4  11  26  49  82 121 155 216 276 331 401 491
#     4  11  27  52  86 118 161 218 277 335 402 491
#
# _framework density 26.672681999999998
#
# number of rings (size 3 to 8) (size 9 to 14) (size 15 to 20)
#    0.000    0.667    3.333    2.000   11.667    2.667 
#   12.000    0.000    0.000    0.000    0.000    0.000 
#    0.000    0.000    0.000    0.000    0.000    0.000 
#
# Total GULP energy -33661.105472 kJ/mol
# GULP energy per Si atom -5610.184245 kJ/mol
# Density = 2.661197 g / cm^3
# Si number density = 26.672682 Si / 1000 Ang^3
#
#
#
# Elastic Constant Matrix: (Units=GPa)
#
#
# Indices 1 2 3 4 5 6 
#
# 1 119.5497 39.9800 29.5486 -4.4009 -26.0390 -7.7162
# 2 39.9800 163.5709 54.3474 -0.4304 -10.5166 -22.4935
# 3 29.5486 54.3474 126.4544 11.4869 -25.9309 -10.9367
# 4 -4.4009 -0.4304 11.4869 61.9953 -5.8205 -2.2685
# 5 -26.0390 -10.5166 -25.9309 -5.8205 58.8499 -5.5451
# 6 -7.7162 -22.4935 -10.9367 -2.2685 -5.5451 43.3413
#
#
#
# Elastic Compliance Matrix: (Units=1/GPa)
#
#
# Indices 1 2 3 4 5 6 
#
# 1 0.010174 -0.001787 -0.000778 0.001284 0.004087 0.001278
# 2 -0.001787 0.007889 -0.002815 0.000535 -0.000280 0.003058
# 3 -0.000778 -0.002815 0.010317 -0.001591 0.003673 0.001391
# 4 0.001284 0.000535 -0.001591 0.016726 0.001731 0.001202
# 5 0.004087 -0.000280 0.003673 0.001731 0.020944 0.004279
# 6 0.001278 0.003058 0.001391 0.001202 0.004279 0.025849
#
#
# Mechanical properties :
#
#
# Convention : Reuss Voigt Hill
#
# Bulk Modulus (GPa) = 56.74253 73.03634 64.88944
# Shear Modulus (GPa) = 46.06925 51.88389 48.97657
#
# Velocity S-wave (km/s) = 4.16048 4.41524 4.28975
# Velocity P-wave (km/s) = 6.66328 7.30988 6.99405
#
# Compressibility (1/GPa) = 0.01762346
#
# Stress axis : x y z
#
# Youngs Moduli (GPa) = 98.28556 126.75194 96.92433
#
# Poissons Ratio (x) = 0.22645 0.07537
# Poissons Ratio (y) = 0.17559 0.27281
# Poissons Ratio (z) = 0.07643 0.35677
#
# Static dielectric constant tensor:
#      x y z
#    x 2.099780 0.036700 0.088290 
#    y 0.036700 2.149450 0.054570 
#    z 0.088290 0.054570 2.059790 
# 
# From -- ./inp_files/125.got.cif
#   From: 2010.05.17/outbox.cif.g08.bks.cpg/sg1_1_cif.got.tgz:125.got - 2010.05.17 20:27:59.
