data_PCOD9000528
_publ_section_title
;
Structure prediction by ZEFSAII (Michael W. Deem and Ramdas Pophale) SiO2 
 PCOD9000528
Probable space group: P 1
;
_chemical_formula_sum "Si O2"
_cell_formula_units_Z 8
_cell_length_a 6.305167
_cell_length_b 12.303940
_cell_length_c 12.121649
_cell_angle_alpha 144.531650
_cell_angle_beta 47.268938
_cell_angle_gamma 135.510349
_cell_volume 371.217688
_symmetry_space_group_name_H-M "P 1"
_symmetry_group_IT_number 1
_symmetry_cell_setting 'triclinic'
loop_
_space_group_symop_operation_xyz
x,y,z
loop_
_atom_site_type_symbol
_atom_site_label
_atom_site_fract_x
_atom_site_fract_y
_atom_site_fract_z
Si Si1 0.244120 0.758990 0.155470
Si Si2 0.899818 0.723812 0.875517
Si Si3 0.143681 0.164170 0.461077
Si Si4 0.753082 0.559574 0.333043
Si Si5 0.284422 0.427779 0.203902
Si Si6 0.263438 0.139608 0.150296
Si Si7 0.747005 0.557276 0.554416
Si Si8 0.809781 0.431083 0.863937
O O1 0.090823 0.671368 0.254327
O O2 0.184946 0.962487 0.319159
O O3 0.604065 0.788687 0.053661
O O4 0.065737 0.591738 0.986756
O O5 0.890875 0.680243 0.713133
O O6 0.847592 0.532168 0.813651
O O7 0.205270 0.909584 0.959537
O O8 0.102714 0.150859 0.331962
O O9 0.464954 0.356890 0.525801
O O10 0.880623 0.227895 0.662549
O O11 0.534788 0.580964 0.325888
O O12 0.611465 0.310515 0.177346
O O13 0.642154 0.640577 0.550125
O O14 0.138074 0.222240 0.157084
O O15 0.011887 0.508300 0.353345
O O16 0.476953 0.399523 0.009128
#
# Coordination Sequence:
#
# PCOD9000528 Si02
#       8
#     1   1   1   1   1   1   1   1
#     4  11  22  43  68  95 130 173 216 269 320 388
#     4  12  23  38  70 101 127 167 227 261 325 382
#     4  11  22  43  69  93 133 169 219 266 325 378
#     4   8  21  41  61  85 130 172 207 259 326 373
#     4   9  20  41  61  87 134 167 207 262 325 373
#     4   9  20  39  61  93 126 170 205 268 312 382
#     4  11  21  38  67  94 129 171 213 268 316 386
#     4  11  23  43  63 100 129 171 210 273 321 386
#
# _framework density 21.550699000000002
#
# number of rings (size 3 to 8) (size 9 to 14) (size 15 to 20)
#    0.750    1.000    2.500    2.250    0.000    0.000 
#    4.500    1.250    0.000    0.000    0.000    0.000 
#    0.000    0.000    0.000    0.000    0.000    0.000 
#
# Total GULP energy -44565.397698 kJ/mol
# GULP energy per Si atom -5570.674712 kJ/mol
# Density = 2.150165 g / cm^3
# Si number density = 21.550699 Si / 1000 Ang^3
#
#
#
# Elastic Constant Matrix: (Units=GPa)
#
#
# Indices 1 2 3 4 5 6 
#
# 1 23.8280 17.7975 33.8443 -1.7832 12.8401 -4.7444
# 2 17.7975 79.9865 48.4729 -18.3897 1.7619 -10.7902
# 3 33.8443 48.4729 117.6094 -4.7433 2.1236 -5.5191
# 4 -1.7832 -18.3897 -4.7433 25.2367 -3.3535 1.9894
# 5 12.8401 1.7619 2.1236 -3.3535 43.8748 -1.8911
# 6 -4.7444 -10.7902 -5.5191 1.9894 -1.8911 33.7283
#
#
#
# Elastic Compliance Matrix: (Units=1/GPa)
#
#
# Indices 1 2 3 4 5 6 
#
# 1 0.097876 -0.006854 -0.024824 -0.006891 -0.027419 0.006382
# 2 -0.006854 0.021514 -0.006178 0.014057 0.002698 0.004230
# 3 -0.024824 -0.006178 0.017904 -0.001875 0.006414 -0.002068
# 4 -0.006891 0.014057 -0.001875 0.049695 0.005367 0.000590
# 5 -0.027419 0.002698 0.006414 0.005367 0.030785 -0.000535
# 6 0.006382 0.004230 -0.002068 0.000590 -0.000535 0.031496
#
#
# Mechanical properties :
#
#
# Convention : Reuss Voigt Hill
#
# Bulk Modulus (GPa) = 16.23837 46.85038 31.54438
# Shear Modulus (GPa) = 14.47134 28.65523 21.56328
#
# Velocity S-wave (km/s) = 2.59415 3.65041 3.16663
# Velocity P-wave (km/s) = 4.06499 6.28921 5.29520
#
# Compressibility (1/GPa) = 0.06158255
#
# Stress axis : x y z
#
# Youngs Moduli (GPa) = 10.21696 46.48122 55.85274
#
# Poissons Ratio (x) = 0.31856 1.38651
# Poissons Ratio (y) = 0.07002 0.34507
# Poissons Ratio (z) = 0.25363 0.28717
#
# Static dielectric constant tensor:
#      x y z
#    x 1.944950 -0.030650 -0.004900 
#    y -0.030650 1.765950 -0.017040 
#    z -0.004900 -0.017040 1.786290 
# 
# From -- ./inp_files/6103.got.cif
#   From: 2010.05.17/outbox.cif.g08.bks.cpg/sg1_4_cif.got.tgz:6103.got - 2010.05.17 20:27:59.
