data_PCOD9000016
_publ_section_title
;
Structure prediction by ZEFSAII (Michael W. Deem and Ramdas Pophale) SiO2 
 PCOD9000016
Probable space group: P 1
;
_chemical_formula_sum "Si O2"
_cell_formula_units_Z 8
_cell_length_a 7.615590
_cell_length_b 8.786519
_cell_length_c 7.644123
_cell_angle_alpha 105.230068
_cell_angle_beta 127.623397
_cell_angle_gamma 102.841529
_cell_volume 338.380190
_symmetry_space_group_name_H-M "P 1"
_symmetry_group_IT_number 1
_symmetry_cell_setting 'triclinic'
loop_
_space_group_symop_operation_xyz
x,y,z
loop_
_atom_site_type_symbol
_atom_site_label
_atom_site_fract_x
_atom_site_fract_y
_atom_site_fract_z
Si Si1 0.333280 0.979800 0.991930
Si Si2 0.981867 0.987812 0.483605
Si Si3 0.128225 0.366024 0.771852
Si Si4 0.421745 0.736118 0.187486
Si Si5 0.877495 0.227796 0.935090
Si Si6 0.331643 0.550934 0.446564
Si Si7 0.694841 0.901465 0.968313
Si Si8 0.602661 0.313576 0.508183
O O1 0.153324 0.953194 0.711979
O O2 0.247174 0.808268 0.016174
O O3 0.584146 0.001355 0.053164
O O4 0.411384 0.147318 0.219411
O O5 0.710358 0.899864 0.395271
O O6 0.909215 0.897357 0.220137
O O7 0.114014 0.205450 0.600188
O O8 0.074473 0.280415 0.909192
O O9 0.880705 0.390608 0.607810
O O10 0.378102 0.561154 0.995610
O O11 0.351156 0.663320 0.317129
O O12 0.650055 0.243727 0.704609
O O13 0.037887 0.386087 0.222958
O O14 0.800836 0.032458 0.905998
O O15 0.505869 0.456051 0.511412
O O16 0.460878 0.704770 0.718249
#
# Coordination Sequence:
#
# PCOD9000016 Si02
#       8
#     1   1   1   1   1   1   1   1
#     4  11  23  41  65  89 124 164 203 247 307 359
#     4  11  23  41  61  90 127 164 199 250 304 358
#     4   9  19  42  63  92 117 154 210 255 290 356
#     4  10  21  40  65  92 119 156 211 257 293 357
#     4   9  21  41  63  86 127 158 200 256 298 357
#     4  11  23  39  65  93 122 157 203 253 306 356
#     4  11  23  42  57  91 131 159 198 248 304 368
#     4  10  21  42  65  93 115 160 210 248 300 357
#
# _framework density 23.642047000000002
#
# number of rings (size 3 to 8) (size 9 to 14) (size 15 to 20)
#    0.750    1.000    2.500    3.000    1.750    4.000 
#    0.000    2.500    0.000    0.000    0.000    0.000 
#    0.000    0.000    0.000    0.000    0.000    0.000 
#
# Total GULP energy -44623.740341 kJ/mol
# GULP energy per Si atom -5577.967543 kJ/mol
# Density = 2.358824 g / cm^3
# Si number density = 23.642047 Si / 1000 Ang^3
#
#
#
# Elastic Constant Matrix: (Units=GPa)
#
#
# Indices 1 2 3 4 5 6 
#
# 1 25.1122 19.7435 6.8953 -8.2515 -4.6391 0.1790
# 2 19.7435 100.2948 62.0587 -28.8002 -9.9870 -7.4376
# 3 6.8953 62.0587 165.3813 -10.5099 -4.1079 -0.9288
# 4 -8.2515 -28.8002 -10.5099 57.2359 -8.3508 -2.4557
# 5 -4.6391 -9.9870 -4.1079 -8.3508 21.5825 -11.1713
# 6 0.1790 -7.4376 -0.9288 -2.4557 -11.1713 22.2068
#
#
#
# Elastic Compliance Matrix: (Units=1/GPa)
#
#
# Indices 1 2 3 4 5 6 
#
# 1 0.049238 -0.007852 0.001504 0.005128 0.010790 0.003031
# 2 -0.007852 0.024144 -0.007075 0.014327 0.025104 0.022067
# 3 0.001504 -0.007075 0.008315 -0.002740 -0.004918 -0.004811
# 4 0.005128 0.014327 -0.002740 0.030506 0.031318 0.023771
# 5 0.010790 0.025104 -0.004918 0.031318 0.104710 0.064254
# 6 0.003031 0.022067 -0.004811 0.023771 0.064254 0.087148
#
#
# Mechanical properties :
#
#
# Convention : Reuss Voigt Hill
#
# Bulk Modulus (GPa) = 18.23038 52.02035 35.12537
# Shear Modulus (GPa) = 14.31880 33.67776 23.99828
#
# Velocity S-wave (km/s) = 2.46367 3.77833 3.18947
# Velocity P-wave (km/s) = 3.97751 6.40979 5.33414
#
# Compressibility (1/GPa) = 0.05485348
#
# Stress axis : x y z
#
# Youngs Moduli (GPa) = 20.30946 41.41780 120.25954
#
# Poissons Ratio (x) = 0.32521 -0.18092
# Poissons Ratio (y) = 0.15947 0.85080
# Poissons Ratio (z) = -0.03055 0.29302
#
# Static dielectric constant tensor:
#      x y z
#    x 1.939750 -0.012180 -0.008470 
#    y -0.012180 1.925940 -0.034840 
#    z -0.008470 -0.034840 1.998430 
# 
# From -- ./inp_files/4368.got.cif
#   From: 2010.05.17/outbox.cif.g08.bks.cpg/sg1_3_cif.got.tgz:4368.got - 2010.05.17 20:27:59.
