data_PCOD9000495
_publ_section_title
;
Structure prediction by ZEFSAII (Michael W. Deem and Ramdas Pophale) SiO2 
 PCOD9000495
Probable space group: P 1
;
_chemical_formula_sum "Si O2"
_cell_formula_units_Z 8
_cell_length_a 7.308945
_cell_length_b 6.673365
_cell_length_c 8.174651
_cell_angle_alpha 99.776397
_cell_angle_beta 73.344793
_cell_angle_gamma 64.142927
_cell_volume 323.028382
_symmetry_space_group_name_H-M "P 1"
_symmetry_group_IT_number 1
_symmetry_cell_setting 'triclinic'
loop_
_space_group_symop_operation_xyz
x,y,z
loop_
_atom_site_type_symbol
_atom_site_label
_atom_site_fract_x
_atom_site_fract_y
_atom_site_fract_z
Si Si1 0.796780 0.655920 0.941620
Si Si2 0.439535 0.641994 0.407843
Si Si3 0.227010 0.472664 0.224985
Si Si4 0.198541 0.729445 0.785905
Si Si5 0.449475 0.055607 0.306091
Si Si6 0.686553 0.448864 0.640871
Si Si7 0.066642 0.211264 0.029627
Si Si8 0.882091 0.022215 0.340810
O O1 0.773410 0.569565 0.758007
O O2 0.989863 0.719337 0.900098
O O3 0.868499 0.439319 0.020038
O O4 0.575176 0.888008 0.094116
O O5 0.434514 0.501723 0.229517
O O6 0.239157 0.671318 0.576292
O O7 0.639484 0.540457 0.475289
O O8 0.390321 0.896088 0.405560
O O9 0.237546 0.302492 0.345458
O O10 0.222678 0.314439 0.056435
O O11 0.028882 0.740327 0.288498
O O12 0.434853 0.535544 0.777576
O O13 0.174350 0.983514 0.854688
O O14 0.638085 0.086729 0.350318
O O15 0.840408 0.169410 0.538450
O O16 0.992854 0.109489 0.188235
#
# Coordination Sequence:
#
# PCOD9000495 Si02
#       8
#     1   1   1   1   1   1   1   1
#     4  12  26  47  82 110 162 203 258 320 395 460
#     4  10  26  48  74 111 158 197 257 316 387 456
#     4  12  26  44  83 106 155 202 263 318 382 463
#     4  10  25  50  71 119 152 200 252 323 389 454
#     4  12  24  50  75 114 150 208 258 319 384 464
#     4  10  26  49  76 110 161 200 255 319 390 461
#     4  12  25  47  76 113 153 199 261 318 382 463
#     4  12  26  49  73 115 153 203 260 317 387 461
#
# _framework density 24.765626000000001
#
# number of rings (size 3 to 8) (size 9 to 14) (size 15 to 20)
#    0.750    0.000    3.750    2.250    3.500    3.000 
#    0.000    0.000    0.000    0.000    0.000    0.000 
#    0.000    0.000    0.000    0.000    0.000    0.000 
#
# Total GULP energy -44680.678130 kJ/mol
# GULP energy per Si atom -5585.084766 kJ/mol
# Density = 2.470926 g / cm^3
# Si number density = 24.765626 Si / 1000 Ang^3
#
#
#
# Elastic Constant Matrix: (Units=GPa)
#
#
# Indices 1 2 3 4 5 6 
#
# 1 90.3403 48.8331 44.9771 1.5240 27.4965 4.1523
# 2 48.8331 160.2817 39.0967 17.7361 6.3196 -7.3946
# 3 44.9771 39.0967 110.3390 43.3994 28.6991 11.4618
# 4 1.5240 17.7361 43.3994 40.5941 8.6942 2.9296
# 5 27.4965 6.3196 28.6991 8.6942 51.1450 6.8530
# 6 4.1523 -7.3946 11.4618 2.9296 6.8530 43.1256
#
#
#
# Elastic Compliance Matrix: (Units=1/GPa)
#
#
# Indices 1 2 3 4 5 6 
#
# 1 0.020989 -0.005128 -0.010434 0.014148 -0.007208 0.000057
# 2 -0.005128 0.008247 -0.000022 -0.003987 0.002182 0.001838
# 3 -0.010434 -0.000022 0.024157 -0.024475 -0.003350 -0.003225
# 4 0.014148 -0.003987 -0.024475 0.052447 -0.002468 0.001288
# 5 -0.007208 0.002182 -0.003350 -0.002468 0.025720 -0.001961
# 6 0.000057 0.001838 -0.003225 0.001288 -0.001961 0.024579
#
#
# Mechanical properties :
#
#
# Convention : Reuss Voigt Hill
#
# Bulk Modulus (GPa) = 44.99662 69.64164 57.31913
# Shear Modulus (GPa) = 25.67862 42.17654 33.92758
#
# Velocity S-wave (km/s) = 3.22353 4.13125 3.70529
# Velocity P-wave (km/s) = 5.66245 7.13706 6.44209
#
# Compressibility (1/GPa) = 0.02222389
#
# Stress axis : x y z
#
# Youngs Moduli (GPa) = 47.64487 121.26082 41.39568
#
# Poissons Ratio (x) = 0.62184 0.43194
# Poissons Ratio (y) = 0.24433 0.00090
# Poissons Ratio (z) = 0.49714 0.00265
#
# Static dielectric constant tensor:
#      x y z
#    x 1.971990 -0.042360 0.008470 
#    y -0.042360 1.950580 0.007700 
#    z 0.008470 0.007700 1.984130 
# 
# From -- ./inp_files/3464.got.cif
#   From: 2010.05.17/outbox.cif.g08.bks.cpg/sg1_2_cif.got.tgz:3464.got - 2010.05.17 20:27:59.
