data_PCOD9000451
_publ_section_title
;
Structure prediction by ZEFSAII (Michael W. Deem and Ramdas Pophale) SiO2 
 PCOD9000451
Probable space group: P 1
;
_chemical_formula_sum "Si O2"
_cell_formula_units_Z 8
_cell_length_a 5.051160
_cell_length_b 8.911248
_cell_length_c 9.994044
_cell_angle_alpha 125.642291
_cell_angle_beta 115.520468
_cell_angle_gamma 59.459738
_cell_volume 308.978178
_symmetry_space_group_name_H-M "P 1"
_symmetry_group_IT_number 1
_symmetry_cell_setting 'triclinic'
loop_
_space_group_symop_operation_xyz
x,y,z
loop_
_atom_site_type_symbol
_atom_site_label
_atom_site_fract_x
_atom_site_fract_y
_atom_site_fract_z
Si Si1 0.682490 0.811640 0.158120
Si Si2 0.369841 0.292220 0.054346
Si Si3 0.011373 0.016925 0.145998
Si Si4 0.434808 0.466933 0.877983
Si Si5 0.699349 0.125164 0.537134
Si Si6 0.143990 0.979001 0.769643
Si Si7 0.820188 0.729368 0.718698
Si Si8 0.682766 0.376049 0.404569
O O1 0.663739 0.926188 0.357758
O O2 0.936285 0.865385 0.152803
O O3 0.670715 0.592194 0.020926
O O4 0.331967 0.937600 0.097467
O O5 0.395683 0.400209 0.253334
O O6 0.359691 0.409656 0.979122
O O7 0.707554 0.113733 0.040075
O O8 0.124750 0.182205 0.939841
O O9 0.492415 0.820761 0.771772
O O10 0.991664 0.205993 0.327235
O O11 0.535020 0.270731 0.702755
O O12 0.115518 0.615274 0.817454
O O13 0.639683 0.284006 0.487794
O O14 0.053966 0.035545 0.624727
O O15 0.908886 0.882056 0.726425
O O16 0.756769 0.570491 0.528736
#
# Coordination Sequence:
#
# PCOD9000451 Si02
#       8
#     1   1   1   1   1   1   1   1
#     4  11  24  47  75 113 149 206 250 324 377 470
#     4  10  24  48  72 114 148 207 246 321 384 467
#     4   9  22  44  74 104 153 198 251 304 395 446
#     4  12  26  47  83 112 157 201 269 311 398 455
#     4  11  26  50  79 112 159 202 263 317 396 456
#     4  12  27  48  74 113 155 199 257 317 389 457
#     4  12  26  47  75 116 150 200 257 323 378 462
#     4   9  23  49  74 110 153 203 249 323 385 461
#
# _framework density 25.891798999999999
#
# number of rings (size 3 to 8) (size 9 to 14) (size 15 to 20)
#    0.750    0.500    0.000    4.500    1.750    7.000 
#    2.250    0.000    0.000    0.000    0.000    0.000 
#    0.000    0.000    0.000    0.000    0.000    0.000 
#
# Total GULP energy -44687.811811 kJ/mol
# GULP energy per Si atom -5585.976476 kJ/mol
# Density = 2.583287 g / cm^3
# Si number density = 25.891799 Si / 1000 Ang^3
#
#
#
# Elastic Constant Matrix: (Units=GPa)
#
#
# Indices 1 2 3 4 5 6 
#
# 1 88.7203 28.8629 47.6862 13.3793 -6.6100 14.7962
# 2 28.8629 127.7676 84.1486 -0.5072 1.8199 24.3042
# 3 47.6862 84.1486 216.1865 23.4427 24.7350 22.2471
# 4 13.3793 -0.5072 23.4427 57.0405 0.5604 4.1905
# 5 -6.6100 1.8199 24.7350 0.5604 40.2562 7.5603
# 6 14.7962 24.3042 22.2471 4.1905 7.5603 47.4168
#
#
#
# Elastic Compliance Matrix: (Units=1/GPa)
#
#
# Indices 1 2 3 4 5 6 
#
# 1 0.014254 -0.000816 -0.002815 -0.001999 0.004753 -0.003290
# 2 -0.000816 0.011818 -0.004576 0.002467 0.002924 -0.004341
# 3 -0.002815 -0.004576 0.007836 -0.002594 -0.005146 0.000597
# 4 -0.001999 0.002467 -0.002594 0.019173 0.001131 -0.001298
# 5 0.004753 0.002924 -0.005146 0.001131 0.029649 -0.005395
# 6 -0.003290 -0.004341 0.000597 -0.001298 -0.005395 0.025036
#
#
# Mechanical properties :
#
#
# Convention : Reuss Voigt Hill
#
# Bulk Modulus (GPa) = 57.15675 83.78554 70.47114
# Shear Modulus (GPa) = 38.45837 47.07450 42.76643
#
# Velocity S-wave (km/s) = 3.85820 4.26857 4.06857
# Velocity P-wave (km/s) = 6.47849 7.53156 7.02479
#
# Compressibility (1/GPa) = 0.01749575
#
# Stress axis : x y z
#
# Youngs Moduli (GPa) = 70.15539 84.61409 127.61079
#
# Poissons Ratio (x) = 0.06902 0.35924
# Poissons Ratio (y) = 0.05723 0.58390
# Poissons Ratio (z) = 0.19750 0.38717
#
# Static dielectric constant tensor:
#      x y z
#    x 2.027570 -0.061350 -0.005170 
#    y -0.061350 2.014700 0.029850 
#    z -0.005170 0.029850 2.167130 
# 
# From -- ./inp_files/4498.got.cif
#   From: 2010.05.17/outbox.cif.g08.bks.cpg/sg1_3_cif.got.tgz:4498.got - 2010.05.17 20:27:59.
