data_PCOD9000839
_publ_section_title
;
Structure prediction by ZEFSAII (Michael W. Deem and Ramdas Pophale) SiO2 
 PCOD9000839
Probable space group: P 1
;
_chemical_formula_sum "Si O2"
_cell_formula_units_Z 8
_cell_length_a 8.703409
_cell_length_b 8.404751
_cell_length_c 7.057718
_cell_angle_alpha 126.837909
_cell_angle_beta 122.541174
_cell_angle_gamma 46.626554
_cell_volume 293.197637
_symmetry_space_group_name_H-M "P 1"
_symmetry_group_IT_number 1
_symmetry_cell_setting 'triclinic'
loop_
_space_group_symop_operation_xyz
x,y,z
loop_
_atom_site_type_symbol
_atom_site_label
_atom_site_fract_x
_atom_site_fract_y
_atom_site_fract_z
Si Si1 0.555520 0.398810 0.396690
Si Si2 0.100852 0.613480 0.224500
Si Si3 0.009846 0.738391 0.836547
Si Si4 0.256515 0.077923 0.830039
Si Si5 0.877649 0.174562 0.911082
Si Si6 0.477716 0.611947 0.071386
Si Si7 0.628343 0.902463 0.219875
Si Si8 0.998210 0.282577 0.472262
O O1 0.310121 0.597520 0.441519
O O2 0.513584 0.468021 0.188997
O O3 0.790162 0.363812 0.527431
O O4 0.598608 0.157470 0.351451
O O5 0.003950 0.770052 0.082320
O O6 0.198247 0.344066 0.030667
O O7 0.883720 0.710997 0.266823
O O8 0.241951 0.691415 0.905913
O O9 0.828664 0.974753 0.783446
O O10 0.007502 0.512069 0.623515
O O11 0.064952 0.081972 0.817547
O O12 0.496231 0.902206 0.943483
O O13 0.208943 0.082776 0.581016
O O14 0.970299 0.206377 0.193729
O O15 0.658818 0.423114 0.911858
O O16 0.516028 0.827277 0.249628
#
# Coordination Sequence:
#
# PCOD9000839 Si02
#       8
#     1   1   1   1   1   1   1   1
#     4   9  21  39  60  96 134 176 222 284 332 404
#     4   9  18  36  65  90 129 179 218 272 345 390
#     4  10  21  41  67  96 135 177 221 283 341 401
#     4  10  21  39  65  97 137 169 224 284 328 411
#     4  11  21  43  68  94 136 182 218 284 343 394
#     4  10  20  38  67  97 133 178 230 276 340 411
#     4  11  19  38  69  98 132 182 223 279 348 400
#     4  10  23  44  67 102 136 175 236 276 339 421
#
# _framework density 27.285349
#
# number of rings (size 3 to 8) (size 9 to 14) (size 15 to 20)
#    0.000    2.000    2.500    2.250    0.000    0.000 
#    4.500   17.500    0.000    0.000    0.000    0.000 
#    0.000    0.000    0.000    0.000    0.000    0.000 
#
# Total GULP energy -44725.597758 kJ/mol
# GULP energy per Si atom -5590.699720 kJ/mol
# Density = 2.722325 g / cm^3
# Si number density = 27.285349 Si / 1000 Ang^3
#
#
#
# Elastic Constant Matrix: (Units=GPa)
#
#
# Indices 1 2 3 4 5 6 
#
# 1 171.5361 60.0409 40.5490 8.8370 20.4045 4.0874
# 2 60.0409 151.9790 28.9658 -7.1464 11.9309 19.5495
# 3 40.5490 28.9658 85.3019 -4.1661 -2.7720 -2.4106
# 4 8.8370 -7.1464 -4.1661 38.6385 5.6259 14.6271
# 5 20.4045 11.9309 -2.7720 5.6259 44.0546 2.7244
# 6 4.0874 19.5495 -2.4106 14.6271 2.7244 63.1896
#
#
#
# Elastic Compliance Matrix: (Units=1/GPa)
#
#
# Indices 1 2 3 4 5 6 
#
# 1 0.007900 -0.002534 -0.003088 -0.002513 -0.002900 0.000862
# 2 -0.002534 0.008608 -0.001692 0.003457 -0.001501 -0.003299
# 3 -0.003088 -0.001692 0.013931 0.001194 0.002559 0.000868
# 4 -0.002513 0.003457 0.001194 0.030639 -0.003126 -0.007819
# 5 -0.002900 -0.001501 0.002559 -0.003126 0.024984 0.000396
# 6 0.000862 -0.003299 0.000868 -0.007819 0.000396 0.018616
#
#
# Mechanical properties :
#
#
# Convention : Reuss Voigt Hill
#
# Bulk Modulus (GPa) = 63.23859 74.21426 68.72643
# Shear Modulus (GPa) = 40.13580 47.79395 43.96488
#
# Velocity S-wave (km/s) = 3.83948 4.18979 4.01845
# Velocity P-wave (km/s) = 6.54847 7.11788 6.83910
#
# Compressibility (1/GPa) = 0.01581313
#
# Stress axis : x y z
#
# Youngs Moduli (GPa) = 126.57736 116.16853 71.78115
#
# Poissons Ratio (x) = 0.29437 0.22163
# Poissons Ratio (y) = 0.32075 0.12143
# Poissons Ratio (z) = 0.39082 0.19652
#
# Static dielectric constant tensor:
#      x y z
#    x 2.108000 0.020000 0.004350 
#    y 0.020000 2.172760 0.021460 
#    z 0.004350 0.021460 2.237760 
# 
# From -- ./inp_files/4394.got.cif
#   From: 2010.05.17/outbox.cif.g08.bks.cpg/sg1_3_cif.got.tgz:4394.got - 2010.05.17 20:27:59.
