data_PCOD9000460
_publ_section_title
;
Structure prediction by ZEFSAII (Michael W. Deem and Ramdas Pophale) SiO2 
 PCOD9000460
Probable space group: P 1
;
_chemical_formula_sum "Si O2"
_cell_formula_units_Z 8
_cell_length_a 10.305141
_cell_length_b 5.118575
_cell_length_c 8.047312
_cell_angle_alpha 91.521562
_cell_angle_beta 43.510652
_cell_angle_gamma 81.573433
_cell_volume 283.540918
_symmetry_space_group_name_H-M "P 1"
_symmetry_group_IT_number 1
_symmetry_cell_setting 'triclinic'
loop_
_space_group_symop_operation_xyz
x,y,z
loop_
_atom_site_type_symbol
_atom_site_label
_atom_site_fract_x
_atom_site_fract_y
_atom_site_fract_z
Si Si1 0.493540 0.503410 0.820110
Si Si2 0.708186 0.671641 0.230584
Si Si3 0.202033 0.431835 0.341300
Si Si4 0.026807 0.832998 0.751837
Si Si5 0.813277 0.004104 0.421154
Si Si6 0.817231 0.255336 0.737119
Si Si7 0.225128 0.996340 0.883466
Si Si8 0.437403 0.256832 0.448616
O O1 0.638030 0.275667 0.569994
O O2 0.628604 0.485464 0.862299
O O3 0.292988 0.245380 0.738989
O O4 0.391796 0.787526 0.831656
O O5 0.784353 0.744114 0.344047
O O6 0.573602 0.961194 0.319053
O O7 0.570701 0.470077 0.331338
O O8 0.892426 0.639359 0.936310
O O9 0.321153 0.281013 0.383890
O O10 0.001770 0.351632 0.504425
O O11 0.147658 0.732384 0.472508
O O12 0.316896 0.401230 0.063748
O O13 0.172481 0.847990 0.764247
O O14 0.879581 0.115372 0.852034
O O15 0.802043 0.999762 0.630023
O O16 0.017681 0.053809 0.170014
#
# Coordination Sequence:
#
# PCOD9000460 Si02
#       8
#     1   1   1   1   1   1   1   1
#     4  10  26  52  90 127 178 234 292 358 449 528
#     4  11  28  50  84 127 173 230 292 367 441 522
#     4  12  26  49  89 129 172 235 293 361 441 531
#     4  11  25  49  87 126 178 224 299 366 436 521
#     4   9  25  52  86 123 180 227 292 357 449 513
#     4  10  24  53  81 126 173 231 286 360 437 530
#     4  11  24  56  87 128 176 230 301 368 437 531
#     4  12  28  51  86 130 174 227 299 365 438 526
#
# _framework density 28.214621999999999
#
# number of rings (size 3 to 8) (size 9 to 14) (size 15 to 20)
#    0.750    0.500    1.250    2.250    7.000    1.000 
#   13.500    0.000    0.000    0.000    0.000    0.000 
#    0.000    0.000    0.000    0.000    0.000    0.000 
#
# Total GULP energy -44746.177498 kJ/mol
# GULP energy per Si atom -5593.272187 kJ/mol
# Density = 2.815040 g / cm^3
# Si number density = 28.214622 Si / 1000 Ang^3
#
#
#
# Elastic Constant Matrix: (Units=GPa)
#
#
# Indices 1 2 3 4 5 6 
#
# 1 157.9727 46.7395 29.1766 3.8935 -24.4385 -26.6742
# 2 46.7395 190.1193 53.2696 -14.2416 -24.6288 1.7508
# 3 29.1766 53.2696 163.1265 -15.8656 -1.3302 -0.2876
# 4 3.8935 -14.2416 -15.8656 54.8982 10.3832 -7.9657
# 5 -24.4385 -24.6288 -1.3302 10.3832 27.2600 -6.5043
# 6 -26.6742 1.7508 -0.2876 -7.9657 -6.5043 42.5256
#
#
#
# Elastic Compliance Matrix: (Units=1/GPa)
#
#
# Indices 1 2 3 4 5 6 
#
# 1 0.009816 -0.000828 -0.001611 -0.002315 0.010613 0.007370
# 2 -0.000828 0.006699 -0.001972 0.000262 0.005119 0.000023
# 3 -0.001611 -0.001972 0.007252 0.002301 -0.004002 -0.001061
# 4 -0.002315 0.000262 0.002301 0.021061 -0.009499 0.001045
# 5 0.010613 0.005119 -0.004002 -0.009499 0.057450 0.013427
# 6 0.007370 0.000023 -0.001061 0.001045 0.013427 0.030380
#
#
# Mechanical properties :
#
#
# Convention : Reuss Voigt Hill
#
# Bulk Modulus (GPa) = 66.91589 85.51000 76.21294
# Shear Modulus (GPa) = 34.13877 50.40560 42.27218
#
# Velocity S-wave (km/s) = 3.48223 4.23129 3.87491
# Velocity P-wave (km/s) = 6.31951 7.36509 6.86224
#
# Compressibility (1/GPa) = 0.01494413
#
# Stress axis : x y z
#
# Youngs Moduli (GPa) = 101.87220 149.28551 137.90010
#
# Poissons Ratio (x) = 0.12365 0.22213
# Poissons Ratio (y) = 0.08438 0.27195
# Poissons Ratio (z) = 0.16410 0.29440
#
# Static dielectric constant tensor:
#      x y z
#    x 2.323460 0.024910 0.074970 
#    y 0.024910 2.183540 0.026040 
#    z 0.074970 0.026040 2.263610 
# 
# From -- ./inp_files/6715.got.cif
#   From: 2010.05.17/outbox.cif.g08.bks.cpg/sg1_4_cif.got.tgz:6715.got - 2010.05.17 20:27:59.
