data_PCOD9000095
_publ_section_title
;
Structure prediction by ZEFSAII (Michael W. Deem and Ramdas Pophale) SiO2 
 PCOD9000095
Probable space group: P 1
;
_chemical_formula_sum "Si O2"
_cell_formula_units_Z 8
_cell_length_a 7.351533
_cell_length_b 10.171931
_cell_length_c 7.821291
_cell_angle_alpha 41.397402
_cell_angle_beta 53.438483
_cell_angle_gamma 62.549395
_cell_volume 310.544030
_symmetry_space_group_name_H-M "P 1"
_symmetry_group_IT_number 1
_symmetry_cell_setting 'triclinic'
loop_
_space_group_symop_operation_xyz
x,y,z
loop_
_atom_site_type_symbol
_atom_site_label
_atom_site_fract_x
_atom_site_fract_y
_atom_site_fract_z
Si Si1 0.705600 0.708730 0.543380
Si Si2 0.052365 0.839688 0.975727
Si Si3 0.688031 0.899504 0.712336
Si Si4 0.483220 0.417789 0.732257
Si Si5 0.088359 0.168532 0.175663
Si Si6 0.257560 0.156912 0.712483
Si Si7 0.202954 0.580045 0.423778
Si Si8 0.860903 0.521896 0.169330
O O1 0.635110 0.857081 0.585548
O O2 0.530846 0.546076 0.746213
O O3 0.932506 0.590342 0.594367
O O4 0.799302 0.827436 0.209893
O O5 0.942344 0.984972 0.499132
O O6 0.045936 0.665328 0.012190
O O7 0.136744 0.062515 0.706018
O O8 0.506458 0.067576 0.704960
O O9 0.696798 0.688397 0.009054
O O10 0.349158 0.215616 0.031365
O O11 0.217168 0.770766 0.109106
O O12 0.721459 0.410391 0.504380
O O13 0.102819 0.146345 0.982367
O O14 0.325035 0.551910 0.562035
O O15 0.957605 0.360407 0.141547
O O16 0.277040 0.391898 0.452970
#
# Coordination Sequence:
#
# PCOD9000095 Si02
#       8
#     1   1   1   1   1   1   1   1
#     4   9  21  43  71  98 139 181 229 276 347 416
#     4   9  21  43  67  92 139 179 225 279 335 407
#     4  12  24  41  73 106 137 180 237 284 342 420
#     4  10  21  43  74  98 134 185 226 280 349 405
#     4  11  23  43  70 100 141 181 227 290 341 414
#     4  11  22  39  69  98 138 175 225 288 350 388
#     4   9  19  41  71  89 137 179 218 281 338 394
#     4  11  25  43  73 101 137 188 233 276 350 416
#
# _framework density 25.761243
#
# number of rings (size 3 to 8) (size 9 to 14) (size 15 to 20)
#    0.750    1.000    1.250    3.750    1.750    2.000 
#    4.500    0.000   16.500    0.000    0.000    0.000 
#    0.000    0.000    0.000    0.000    0.000    0.000 
#
# Total GULP energy -44645.830989 kJ/mol
# GULP energy per Si atom -5580.728874 kJ/mol
# Density = 2.570261 g / cm^3
# Si number density = 25.761243 Si / 1000 Ang^3
#
#
#
# Elastic Constant Matrix: (Units=GPa)
#
#
# Indices 1 2 3 4 5 6 
#
# 1 75.6102 28.9537 -4.5959 4.8837 -10.9819 16.8808
# 2 28.9537 140.7988 31.2734 17.3289 -13.3168 12.8116
# 3 -4.5959 31.2734 97.6302 1.6908 -30.2317 0.0847
# 4 4.8837 17.3289 1.6908 33.3582 3.1413 -15.4416
# 5 -10.9819 -13.3168 -30.2317 3.1413 31.4229 -13.7918
# 6 16.8808 12.8116 0.0847 -15.4416 -13.7918 45.7511
#
#
#
# Elastic Compliance Matrix: (Units=1/GPa)
#
#
# Indices 1 2 3 4 5 6 
#
# 1 0.016812 -0.002730 0.003809 -0.004094 0.006680 -0.004814
# 2 -0.002730 0.009426 -0.003523 -0.006094 -0.001562 -0.004154
# 3 0.003809 -0.003523 0.017387 0.001234 0.018932 0.005672
# 4 -0.004094 -0.006094 0.001234 0.041717 0.000685 0.017501
# 5 0.006680 -0.001562 0.018932 0.000685 0.058591 0.015831
# 6 -0.004814 -0.004154 0.005672 0.017501 0.015831 0.035465
#
#
# Mechanical properties :
#
#
# Convention : Reuss Voigt Hill
#
# Bulk Modulus (GPa) = 25.81355 47.25575 36.53465
# Shear Modulus (GPa) = 25.35533 39.33364 32.34449
#
# Velocity S-wave (km/s) = 3.14067 3.91174 3.54722
# Velocity P-wave (km/s) = 4.81599 6.22782 5.56685
#
# Compressibility (1/GPa) = 0.03873934
#
# Stress axis : x y z
#
# Youngs Moduli (GPa) = 59.48151 106.08557 57.51559
#
# Poissons Ratio (x) = 0.28958 -0.21910
# Poissons Ratio (y) = 0.16236 0.20260
# Poissons Ratio (z) = -0.22659 0.37369
#
# Static dielectric constant tensor:
#      x y z
#    x 2.058130 0.012640 -0.020260 
#    y 0.012640 1.976280 0.013450 
#    z -0.020260 0.013450 2.162340 
# 
# From -- ./inp_files/4109.got.cif
#   From: 2010.05.17/outbox.cif.g08.bks.cpg/sg1_3_cif.got.tgz:4109.got - 2010.05.17 20:27:59.
