data_PCOD9000163
_publ_section_title
;
Structure prediction by ZEFSAII (Michael W. Deem and Ramdas Pophale) SiO2 
 PCOD9000163
Probable space group: P 1
;
_chemical_formula_sum "Si O2"
_cell_formula_units_Z 8
_cell_length_a 10.501272
_cell_length_b 7.047694
_cell_length_c 7.495164
_cell_angle_alpha 108.108320
_cell_angle_beta 108.997107
_cell_angle_gamma 122.987321
_cell_volume 346.787786
_symmetry_space_group_name_H-M "P 1"
_symmetry_group_IT_number 1
_symmetry_cell_setting 'triclinic'
loop_
_space_group_symop_operation_xyz
x,y,z
loop_
_atom_site_type_symbol
_atom_site_label
_atom_site_fract_x
_atom_site_fract_y
_atom_site_fract_z
Si Si1 0.116830 0.427510 0.362430
Si Si2 0.201754 0.806500 0.016638
Si Si3 0.700293 0.124278 0.025805
Si Si4 0.061689 0.259790 0.877770
Si Si5 0.463039 0.723389 0.119648
Si Si6 0.650990 0.777571 0.579517
Si Si7 0.376137 0.054022 0.797883
Si Si8 0.287467 0.209409 0.457136
O O1 0.123579 0.370495 0.142174
O O2 0.288548 0.753234 0.594209
O O3 0.150741 0.257089 0.431190
O O4 0.917688 0.337403 0.260631
O O5 0.172821 0.930821 0.197411
O O6 0.040192 0.458574 0.835329
O O7 0.392388 0.875444 0.169682
O O8 0.253691 0.957603 0.894832
O O9 0.576548 0.855999 0.026902
O O10 0.691917 0.009674 0.795999
O O11 0.353439 0.178111 0.660267
O O12 0.258055 0.392361 0.917804
O O13 0.868444 0.924897 0.695261
O O14 0.579839 0.762894 0.348408
O O15 0.597270 0.229950 0.999816
O O16 0.480782 0.474514 0.510106
#
# Coordination Sequence:
#
# PCOD9000163 Si02
#       8
#     1   1   1   1   1   1   1   1
#     4  11  22  43  69  96 136 175 219 271 334 395
#     4   9  21  40  68  94 132 169 221 276 326 383
#     4  10  22  40  68  95 126 176 221 261 329 397
#     4   9  19  41  65  94 127 177 215 267 329 394
#     4   9  19  40  66  88 130 170 219 268 321 387
#     4  11  21  37  65  97 128 175 215 265 333 388
#     4  11  22  45  68  94 134 179 215 276 332 389
#     4  12  22  42  69 100 137 171 219 280 326 395
#
# _framework density 23.068863
#
# number of rings (size 3 to 8) (size 9 to 14) (size 15 to 20)
#    0.750    1.000    3.750    0.750    1.750    1.000 
#    6.750    2.500    0.000    0.000    0.000    0.000 
#    0.000    0.000    0.000    0.000    0.000    0.000 
#
# Total GULP energy -44643.886391 kJ/mol
# GULP energy per Si atom -5580.485799 kJ/mol
# Density = 2.301636 g / cm^3
# Si number density = 23.068863 Si / 1000 Ang^3
#
#
#
# Elastic Constant Matrix: (Units=GPa)
#
#
# Indices 1 2 3 4 5 6 
#
# 1 57.8818 18.0485 34.2705 -13.1975 14.5545 -3.4933
# 2 18.0485 97.5062 33.5414 -44.0164 10.1184 -12.3263
# 3 34.2705 33.5414 72.8182 -21.8369 12.3635 -1.6022
# 4 -13.1975 -44.0164 -21.8369 49.5355 0.0817 0.3633
# 5 14.5545 10.1184 12.3635 0.0817 28.6043 6.2586
# 6 -3.4933 -12.3263 -1.6022 0.3633 6.2586 38.8985
#
#
#
# Elastic Compliance Matrix: (Units=1/GPa)
#
#
# Indices 1 2 3 4 5 6 
#
# 1 0.026745 0.002446 -0.010328 0.004731 -0.011003 0.004478
# 2 0.002446 0.020967 -0.003890 0.017524 -0.008770 0.007951
# 3 -0.010328 -0.003890 0.021841 0.003431 -0.002629 -0.000870
# 4 0.004731 0.017524 0.003431 0.038495 -0.011877 0.007671
# 5 -0.011003 -0.008770 -0.002629 -0.011877 0.047320 -0.011378
# 6 0.004478 0.007951 -0.000870 0.007671 -0.011378 0.030353
#
#
# Mechanical properties :
#
#
# Convention : Reuss Voigt Hill
#
# Bulk Modulus (GPa) = 21.73498 44.43634 33.08566
# Shear Modulus (GPa) = 22.26168 32.89737 27.57953
#
# Velocity S-wave (km/s) = 3.10983 3.78041 3.46140
# Velocity P-wave (km/s) = 4.72620 6.19351 5.50893
#
# Compressibility (1/GPa) = 0.04600878
#
# Stress axis : x y z
#
# Youngs Moduli (GPa) = 37.39085 47.69414 45.78472
#
# Poissons Ratio (x) = -0.11665 0.47287
# Poissons Ratio (y) = -0.09145 0.17810
# Poissons Ratio (z) = 0.38617 0.18552
#
# Static dielectric constant tensor:
#      x y z
#    x 1.893510 -0.002720 0.001830 
#    y -0.002720 1.892290 0.022190 
#    z 0.001830 0.022190 1.845980 
# 
# From -- ./inp_files/4663.got.cif
#   From: 2010.05.17/outbox.cif.g08.bks.cpg/sg1_3_cif.got.tgz:4663.got - 2010.05.17 20:27:59.
