data_PCOD9000909
_publ_section_title
;
Structure prediction by ZEFSAII (Michael W. Deem and Ramdas Pophale) SiO2 
 PCOD9000909
Probable space group: P 1
;
_chemical_formula_sum "Si O2"
_cell_formula_units_Z 6
_cell_length_a 8.408716
_cell_length_b 6.764247
_cell_length_c 5.026671
_cell_angle_alpha 78.073820
_cell_angle_beta 89.988775
_cell_angle_gamma 98.303663
_cell_volume 276.672797
_symmetry_space_group_name_H-M "P 1"
_symmetry_group_IT_number 1
_symmetry_cell_setting 'triclinic'
loop_
_space_group_symop_operation_xyz
x,y,z
loop_
_atom_site_type_symbol
_atom_site_label
_atom_site_fract_x
_atom_site_fract_y
_atom_site_fract_z
Si Si1 0.056790 0.179330 0.445070
Si Si2 0.824668 0.793509 0.704687
Si Si3 0.260827 0.122625 0.969151
Si Si4 0.578088 0.236482 0.184269
Si Si5 0.882139 0.552281 0.249786
Si Si6 0.536750 0.968378 0.788916
O O1 0.168863 0.197803 0.699310
O O2 0.009747 0.395894 0.301406
O O3 0.144469 0.082139 0.230227
O O4 0.897003 0.023615 0.559577
O O5 0.857669 0.644229 0.511333
O O6 0.635275 0.790036 0.759214
O O7 0.914367 0.729705 0.983157
O O8 0.356684 0.940082 0.917624
O O9 0.412434 0.281372 0.037022
O O10 0.714078 0.421017 0.194645
O O11 0.534202 0.110305 0.489738
O O12 0.637006 0.090058 0.997728
#
# Coordination Sequence:
#
# PCOD9000909 Si02
#       6
#     1   1   1   1   1   1
#     4  12  24  44  70  94 146 170 212 282 336 396
#     4  12  26  42  71 103 130 176 229 272 327 397
#     4  10  22  40  74  94 128 190 208 268 352 382
#     4  10  20  42  69  98 123 176 228 260 331 386
#     4  12  26  42  71 103 130 176 229 272 327 397
#     4  10  20  42  69  98 123 176 228 260 331 386
#
# _framework density 21.686266
#
# number of rings (size 3 to 8) (size 9 to 14) (size 15 to 20)
#    1.000    0.000    3.333    4.000    2.333    0.000 
#    0.000    6.667    0.000    0.000    0.000    0.000 
#    0.000    0.000    0.000    0.000    0.000    0.000 
#
# Total GULP energy -33486.486505 kJ/mol
# GULP energy per Si atom -5581.081084 kJ/mol
# Density = 2.163691 g / cm^3
# Si number density = 21.686266 Si / 1000 Ang^3
#
#
#
# Elastic Constant Matrix: (Units=GPa)
#
#
# Indices 1 2 3 4 5 6 
#
# 1 79.6417 10.0093 33.8413 9.5572 3.2690 -20.6208
# 2 10.0093 33.0333 18.4430 5.8422 -5.4106 -18.1196
# 3 33.8413 18.4430 139.8705 18.3847 -1.0250 -15.2442
# 4 9.5572 5.8422 18.3847 33.5223 -5.8985 4.1708
# 5 3.2690 -5.4106 -1.0250 -5.8985 38.7899 11.6287
# 6 -20.6208 -18.1196 -15.2442 4.1708 11.6287 26.9825
#
#
#
# Elastic Compliance Matrix: (Units=1/GPa)
#
#
# Indices 1 2 3 4 5 6 
#
# 1 0.021679 0.011327 -0.001872 -0.012827 -0.011221 0.029935
# 2 0.011327 0.061576 -0.001616 -0.022684 -0.013352 0.058355
# 3 -0.001872 -0.001616 0.008881 -0.004868 -0.001778 0.004020
# 4 -0.012827 -0.022684 -0.004868 0.048662 0.018113 -0.043114
# 5 -0.011221 -0.013352 -0.001778 0.018113 0.039010 -0.038158
# 6 0.029935 0.058355 0.004020 -0.043114 -0.038158 0.124506
#
#
# Mechanical properties :
#
#
# Convention : Reuss Voigt Hill
#
# Bulk Modulus (GPa) = 9.27532 41.90365 25.58949
# Shear Modulus (GPa) = 15.40480 32.54241 23.97360
#
# Velocity S-wave (km/s) = 2.66813 3.87796 3.32847
# Velocity P-wave (km/s) = 3.71190 6.27822 5.15724
#
# Compressibility (1/GPa) = 0.10781300
#
# Stress axis : x y z
#
# Youngs Moduli (GPa) = 46.12790 16.23998 112.60591
#
# Poissons Ratio (x) = -0.18395 0.21085
# Poissons Ratio (y) = -0.52250 0.18199
# Poissons Ratio (z) = 0.08637 0.02625
#
# Static dielectric constant tensor:
#      x y z
#    x 1.813430 -0.009320 -0.014160 
#    y -0.009320 1.767730 -0.004010 
#    z -0.014160 -0.004010 1.781230 
# 
# From -- ./inp_files/58.got.cif
#   From: 2010.05.17/outbox.cif.g08.bks.cpg/sg1_1_cif.got.tgz:58.got - 2010.05.17 20:27:59.
