data_PCOD9000856
_publ_section_title
;
Structure prediction by ZEFSAII (Michael W. Deem and Ramdas Pophale) SiO2 
 PCOD9000856
Probable space group: P 1
;
_chemical_formula_sum "Si O2"
_cell_formula_units_Z 6
_cell_length_a 11.340877
_cell_length_b 8.297028
_cell_length_c 5.191593
_cell_angle_alpha 56.758114
_cell_angle_beta 121.700283
_cell_angle_gamma 140.119950
_cell_volume 256.914637
_symmetry_space_group_name_H-M "P 1"
_symmetry_group_IT_number 1
_symmetry_cell_setting 'triclinic'
loop_
_space_group_symop_operation_xyz
x,y,z
loop_
_atom_site_type_symbol
_atom_site_label
_atom_site_fract_x
_atom_site_fract_y
_atom_site_fract_z
Si Si1 0.821760 0.870370 0.596420
Si Si2 0.126277 0.641194 0.824589
Si Si3 0.760332 0.143507 0.634783
Si Si4 0.433184 0.692119 0.970051
Si Si5 0.219421 0.416756 0.464257
Si Si6 0.813366 0.620302 0.331549
O O1 0.732347 0.661192 0.446408
O O2 0.732687 0.989577 0.485679
O O3 0.828146 0.755972 0.970188
O O4 0.031156 0.119068 0.526958
O O5 0.980270 0.351091 0.780427
O O6 0.015772 0.732290 0.570129
O O7 0.326458 0.799122 0.788527
O O8 0.153104 0.579174 0.195920
O O9 0.711665 0.323548 0.404010
O O10 0.640620 0.937510 0.904006
O O11 0.339866 0.505926 0.778540
O O12 0.354663 0.510670 0.291419
#
# Coordination Sequence:
#
# PCOD9000856 Si02
#       6
#     1   1   1   1   1   1
#     4  12  22  42  68  99 127 178 217 264 327 395
#     4   8  21  41  65  92 127 171 213 255 332 374
#     4  10  23  44  71  91 141 168 215 277 325 381
#     4  10  21  39  68  98 122 177 213 264 334 379
#     4  10  20  39  66  95 125 169 219 255 330 380
#     4  10  25  37  70  99 126 175 223 259 330 387
#
# _framework density 23.354063
#
# number of rings (size 3 to 8) (size 9 to 14) (size 15 to 20)
#    2.000    0.000    1.667    2.000    4.667    4.000 
#    0.000    5.000    0.000    0.000    0.000    0.000 
#    0.000    0.000    0.000    0.000    0.000    0.000 
#
# Total GULP energy -33416.134140 kJ/mol
# GULP energy per Si atom -5569.355690 kJ/mol
# Density = 2.330091 g / cm^3
# Si number density = 23.354063 Si / 1000 Ang^3
#
#
#
# Elastic Constant Matrix: (Units=GPa)
#
#
# Indices 1 2 3 4 5 6 
#
# 1 127.3185 48.3045 52.0135 -18.8930 -27.2923 -22.4214
# 2 48.3045 57.9701 45.2101 -11.9849 -14.6032 -16.4757
# 3 52.0135 45.2101 146.9679 0.0064 -39.3616 -27.4252
# 4 -18.8930 -11.9849 0.0064 22.7324 0.0016 -3.4830
# 5 -27.2923 -14.6032 -39.3616 0.0016 40.7927 -1.4273
# 6 -22.4214 -16.4757 -27.4252 -3.4830 -1.4273 45.9906
#
#
#
# Elastic Compliance Matrix: (Units=1/GPa)
#
#
# Indices 1 2 3 4 5 6 
#
# 1 0.014273 -0.006515 -0.000042 0.009275 0.007370 0.005531
# 2 -0.006515 0.031905 -0.006099 0.012264 0.001373 0.005588
# 3 -0.000042 -0.006099 0.012317 -0.002448 0.009858 0.005260
# 4 0.009275 0.012264 -0.002448 0.060044 0.008660 0.012271
# 5 0.007370 0.001373 0.009858 0.008660 0.039863 0.011856
# 6 0.005531 0.005588 0.005260 0.012271 0.011856 0.030876
#
#
# Mechanical properties :
#
#
# Convention : Reuss Voigt Hill
#
# Bulk Modulus (GPa) = 30.13507 69.25697 49.69602
# Shear Modulus (GPa) = 22.15810 34.35169 28.25489
#
# Velocity S-wave (km/s) = 3.08359 3.83940 3.48206
# Velocity P-wave (km/s) = 5.06059 7.02668 6.12307
#
# Compressibility (1/GPa) = 0.03318393
#
# Stress axis : x y z
#
# Youngs Moduli (GPa) = 70.06075 31.34314 81.18871
#
# Poissons Ratio (x) = 0.20420 0.00339
# Poissons Ratio (y) = 0.45643 0.49517
# Poissons Ratio (z) = 0.00293 0.19116
#
# Static dielectric constant tensor:
#      x y z
#    x 1.945280 -0.004940 0.058710 
#    y -0.004940 1.883460 0.071610 
#    z 0.058710 0.071610 1.923090 
# 
# From -- ./inp_files/1269.got.cif
#   From: 2010.05.17/outbox.cif.g08.bks.cpg/sg1_1_cif.got.tgz:1269.got - 2010.05.17 20:27:59.
