data_PCOD9000052
_publ_section_title
;
Structure prediction by ZEFSAII (Michael W. Deem and Ramdas Pophale) SiO2 
 PCOD9000052
Probable space group: P 1
;
_chemical_formula_sum "Si O2"
_cell_formula_units_Z 8
_cell_length_a 6.211981
_cell_length_b 11.828071
_cell_length_c 14.738903
_cell_angle_alpha 27.906497
_cell_angle_beta 108.273967
_cell_angle_gamma 88.069232
_cell_volume 344.038933
_symmetry_space_group_name_H-M "P 1"
_symmetry_group_IT_number 1
_symmetry_cell_setting 'triclinic'
loop_
_space_group_symop_operation_xyz
x,y,z
loop_
_atom_site_type_symbol
_atom_site_label
_atom_site_fract_x
_atom_site_fract_y
_atom_site_fract_z
Si Si1 0.042760 0.044140 0.633340
Si Si2 0.509918 0.667029 0.821540
Si Si3 0.046937 0.255115 0.815273
Si Si4 0.517546 0.296259 0.244336
Si Si5 0.187537 0.176975 0.175766
Si Si6 0.273103 0.471412 0.808649
Si Si7 0.776431 0.587689 0.365352
Si Si8 0.973886 0.942128 0.193004
O O1 0.897109 0.338839 0.474886
O O2 0.778430 0.124863 0.476545
O O3 0.300865 0.974611 0.647479
O O4 0.220169 0.686317 0.958206
O O5 0.270387 0.735356 0.666624
O O6 0.604592 0.372501 0.109236
O O7 0.838469 0.493645 0.943855
O O8 0.035346 0.533894 0.659669
O O9 0.810008 0.417210 0.585150
O O10 0.979537 0.114923 0.984827
O O11 0.410970 0.938987 0.056106
O O12 0.423083 0.099275 0.339477
O O13 0.193050 0.903797 0.327063
O O14 0.240523 0.308758 0.002682
O O15 0.623191 0.200948 0.005371
O O16 0.008911 0.644233 0.372673
#
# Coordination Sequence:
#
# PCOD9000052 Si02
#       8
#     1   1   1   1   1   1   1   1
#     4  10  21  42  62  87 132 171 209 262 316 377
#     4   8  18  36  60  93 122 165 209 257 321 375
#     4  10  22  40  65  95 124 172 215 264 324 376
#     4   9  20  39  59  90 125 168 207 264 314 376
#     4   9  16  39  65  97 127 164 212 266 327 383
#     4   8  16  37  63  89 130 158 206 268 320 376
#     4  11  23  43  66  92 132 171 217 263 314 385
#     4   9  20  40  66  99 128 167 215 270 326 380
#
# _framework density 23.253184000000001
#
# number of rings (size 3 to 8) (size 9 to 14) (size 15 to 20)
#    0.750    2.000    0.000    0.750    0.000    2.000 
#   18.000    3.750    0.000    0.000    0.000    0.000 
#    0.000    0.000    0.000    0.000    0.000    0.000 
#
# Total GULP energy -44649.001799 kJ/mol
# GULP energy per Si atom -5581.125225 kJ/mol
# Density = 2.320026 g / cm^3
# Si number density = 23.253184 Si / 1000 Ang^3
#
#
#
# Elastic Constant Matrix: (Units=GPa)
#
#
# Indices 1 2 3 4 5 6 
#
# 1 100.8471 45.5116 18.7636 -12.1007 -9.5643 0.8272
# 2 45.5116 128.5626 18.6043 -15.8276 2.4033 6.0779
# 3 18.7636 18.6043 78.7329 0.7186 9.0002 2.1948
# 4 -12.1007 -15.8276 0.7186 28.3243 5.8721 5.6682
# 5 -9.5643 2.4033 9.0002 5.8721 27.2454 -0.5260
# 6 0.8272 6.0779 2.1948 5.6682 -0.5260 30.1202
#
#
#
# Elastic Compliance Matrix: (Units=1/GPa)
#
#
# Indices 1 2 3 4 5 6 
#
# 1 0.013039 -0.004060 -0.002794 0.002185 0.005394 0.000348
# 2 -0.004060 0.010209 -0.001050 0.005236 -0.003164 -0.002913
# 3 -0.002794 -0.001050 0.014262 -0.000882 -0.005423 -0.000679
# 4 0.002185 0.005236 -0.000882 0.042872 -0.008823 -0.009274
# 5 0.005394 -0.003164 -0.005423 -0.008823 0.042632 0.003290
# 6 0.000348 -0.002913 -0.000679 -0.009274 0.003290 0.035631
#
#
# Mechanical properties :
#
#
# Convention : Reuss Voigt Hill
#
# Bulk Modulus (GPa) = 46.07870 52.65571 49.36721
# Shear Modulus (GPa) = 27.51994 32.15553 29.83774
#
# Velocity S-wave (km/s) = 3.44392 3.72270 3.58602
# Velocity P-wave (km/s) = 5.97271 6.41651 6.19858
#
# Compressibility (1/GPa) = 0.02170200
#
# Stress axis : x y z
#
# Youngs Moduli (GPa) = 76.69324 97.95490 70.11615
#
# Poissons Ratio (x) = 0.39767 0.19593
# Poissons Ratio (y) = 0.31136 0.07360
# Poissons Ratio (z) = 0.21431 0.10283
#
# Static dielectric constant tensor:
#      x y z
#    x 1.918260 -0.004550 -0.019790 
#    y -0.004550 1.871760 -0.000530 
#    z -0.019790 -0.000530 1.885960 
# 
# From -- ./inp_files/7035.got.cif
#   From: 2010.05.17/outbox.cif.g08.bks.cpg/sg1_4_cif.got.tgz:7035.got - 2010.05.17 20:27:59.
