data_PCOD9000380
_publ_section_title
;
Structure prediction by ZEFSAII (Michael W. Deem and Ramdas Pophale) SiO2 
 PCOD9000380
Probable space group: P 1
;
_chemical_formula_sum "Si O2"
_cell_formula_units_Z 8
_cell_length_a 8.852837
_cell_length_b 9.827038
_cell_length_c 7.201299
_cell_angle_alpha 87.892055
_cell_angle_beta 97.603662
_cell_angle_gamma 150.126941
_cell_volume 305.419474
_symmetry_space_group_name_H-M "P 1"
_symmetry_group_IT_number 1
_symmetry_cell_setting 'triclinic'
loop_
_space_group_symop_operation_xyz
x,y,z
loop_
_atom_site_type_symbol
_atom_site_label
_atom_site_fract_x
_atom_site_fract_y
_atom_site_fract_z
Si Si1 0.861000 0.019960 0.903490
Si Si2 0.996947 0.981984 0.457618
Si Si3 0.297807 0.749793 0.876074
Si Si4 0.339676 0.065875 0.744280
Si Si5 0.595062 0.448021 0.304642
Si Si6 0.761312 0.296935 0.509400
Si Si7 0.686091 0.980907 0.256702
Si Si8 0.500799 0.457477 0.893672
O O1 0.589189 0.911484 0.804949
O O2 0.159524 0.256047 0.809051
O O3 0.716758 0.756816 0.911723
O O4 0.918417 0.123787 0.116348
O O5 0.037843 0.916455 0.646283
O O6 0.339146 0.287820 0.426970
O O7 0.743115 0.902106 0.412828
O O8 0.861362 0.765963 0.305713
O O9 0.317513 0.928763 0.894886
O O10 0.365591 0.742894 0.096080
O O11 0.007950 0.489466 0.710431
O O12 0.438389 0.058788 0.579194
O O13 0.575409 0.374545 0.803367
O O14 0.752768 0.429258 0.382925
O O15 0.430020 0.331316 0.087108
O O16 0.766592 0.177661 0.373391
#
# Coordination Sequence:
#
# PCOD9000380 Si02
#       8
#     1   1   1   1   1   1   1   1
#     4  10  26  43  72 104 134 189 237 287 350 416
#     4  11  23  44  67  99 136 177 235 284 343 407
#     4  10  23  47  66 105 140 188 233 287 360 424
#     4  11  27  42  70 102 141 185 234 295 346 421
#     4  11  20  45  67  98 138 179 230 283 344 415
#     4  11  25  45  68 106 146 184 234 291 361 421
#     4  10  23  47  69 102 141 188 233 293 351 426
#     4  12  23  47  73 102 140 186 242 290 347 422
#
# _framework density 26.193486
#
# number of rings (size 3 to 8) (size 9 to 14) (size 15 to 20)
#    0.750    0.500    3.750    0.750    5.250    0.000 
#   11.250    0.000    0.000    0.000    0.000    0.000 
#    0.000    0.000    0.000    0.000    0.000    0.000 
#
# Total GULP energy -44594.755193 kJ/mol
# GULP energy per Si atom -5574.344399 kJ/mol
# Density = 2.613387 g / cm^3
# Si number density = 26.193486 Si / 1000 Ang^3
#
#
#
# Elastic Constant Matrix: (Units=GPa)
#
#
# Indices 1 2 3 4 5 6 
#
# 1 168.6591 55.1049 80.7094 8.4629 7.7888 -37.7405
# 2 55.1049 108.1055 27.7230 14.1326 1.8317 -24.0883
# 3 80.7094 27.7230 99.0510 6.8238 16.5635 -17.5224
# 4 8.4629 14.1326 6.8238 31.3373 -7.6376 -1.3550
# 5 7.7888 1.8317 16.5635 -7.6376 66.2116 -3.6652
# 6 -37.7405 -24.0883 -17.5224 -1.3550 -3.6652 48.5387
#
#
#
# Elastic Compliance Matrix: (Units=1/GPa)
#
#
# Indices 1 2 3 4 5 6 
#
# 1 0.011797 -0.002904 -0.008135 0.000359 0.001039 0.004884
# 2 -0.002904 0.012149 -0.000024 -0.004612 -0.000321 0.003610
# 3 -0.008135 -0.000024 0.017459 -0.002518 -0.003722 -0.000386
# 4 0.000359 -0.004612 -0.002518 0.035526 0.004726 -0.001569
# 5 0.001039 -0.000321 -0.003722 0.004726 0.016504 0.000684
# 6 0.004884 0.003610 -0.000386 -0.001569 0.000684 0.026059
#
#
# Mechanical properties :
#
#
# Convention : Reuss Voigt Hill
#
# Bulk Modulus (GPa) = 51.86909 78.09892 64.98400
# Shear Modulus (GPa) = 33.77318 43.36940 38.57129
#
# Velocity S-wave (km/s) = 3.59468 4.07348 3.84155
# Velocity P-wave (km/s) = 6.08886 7.21147 6.67381
#
# Compressibility (1/GPa) = 0.01927930
#
# Stress axis : x y z
#
# Youngs Moduli (GPa) = 84.76437 82.30921 57.27853
#
# Poissons Ratio (x) = 0.23901 0.46595
# Poissons Ratio (y) = 0.24614 0.00140
# Poissons Ratio (z) = 0.68954 0.00201
#
# Static dielectric constant tensor:
#      x y z
#    x 2.037480 -0.008240 0.022290 
#    y -0.008240 2.059250 0.013730 
#    z 0.022290 0.013730 2.192110 
# 
# From -- ./inp_files/4027.got.cif
#   From: 2010.05.17/outbox.cif.g08.bks.cpg/sg1_3_cif.got.tgz:4027.got - 2010.05.17 20:27:59.
