data_PCOD9000935
_publ_section_title
;
Structure prediction by ZEFSAII (Michael W. Deem and Ramdas Pophale) SiO2 
 PCOD9000935
Probable space group: P 1
;
_chemical_formula_sum "Si O2"
_cell_formula_units_Z 8
_cell_length_a 11.893579
_cell_length_b 9.277379
_cell_length_c 5.327944
_cell_angle_alpha 78.276611
_cell_angle_beta 79.716723
_cell_angle_gamma 33.846147
_cell_volume 320.553406
_symmetry_space_group_name_H-M "P 1"
_symmetry_group_IT_number 1
_symmetry_cell_setting 'triclinic'
loop_
_space_group_symop_operation_xyz
x,y,z
loop_
_atom_site_type_symbol
_atom_site_label
_atom_site_fract_x
_atom_site_fract_y
_atom_site_fract_z
Si Si1 0.145210 0.224930 0.946760
Si Si2 0.153509 0.482449 0.169933
Si Si3 0.430816 0.461723 0.097495
Si Si4 0.942335 0.206218 0.776427
Si Si5 0.331101 0.757275 0.517707
Si Si6 0.544906 0.792362 0.600471
Si Si7 0.814277 0.767825 0.592446
Si Si8 0.823233 0.999123 0.862943
O O1 0.065559 0.141047 0.989917
O O2 0.949263 0.515828 0.803345
O O3 0.346789 0.024079 0.768196
O O4 0.198336 0.267696 0.151411
O O5 0.329732 0.408891 0.174351
O O6 0.985269 0.653471 0.388934
O O7 0.031545 0.692547 0.923648
O O8 0.362748 0.623718 0.310805
O O9 0.668925 0.179216 0.089813
O O10 0.380028 0.608417 0.806692
O O11 0.724985 0.511860 0.761867
O O12 0.108758 0.061586 0.546566
O O13 0.893164 0.090727 0.771031
O O14 0.478351 0.742242 0.439544
O O15 0.651806 0.835804 0.492037
O O16 0.715125 0.007508 0.701360
#
# Coordination Sequence:
#
# PCOD9000935 Si02
#       8
#     1   1   1   1   1   1   1   1
#     4   9  22  42  64  96 134 181 228 279 345 402
#     4  11  24  42  67  98 138 182 222 289 337 412
#     4  12  26  42  71 102 140 178 229 282 343 409
#     4  10  20  44  69  97 138 174 230 282 344 405
#     4  11  25  45  67 105 136 181 225 286 343 403
#     4  10  21  46  68  95 136 178 231 284 338 412
#     4  10  23  42  66  97 138 178 230 278 346 406
#     4  11  23  41  68 102 132 180 225 284 340 411
#
# _framework density 24.956841000000001
#
# number of rings (size 3 to 8) (size 9 to 14) (size 15 to 20)
#    0.000    1.500    2.500    1.500    3.500    3.000 
#   15.750    0.000    0.000    0.000    0.000    0.000 
#    0.000    0.000    0.000    0.000    0.000    0.000 
#
# Total GULP energy -44602.485280 kJ/mol
# GULP energy per Si atom -5575.310660 kJ/mol
# Density = 2.490004 g / cm^3
# Si number density = 24.956841 Si / 1000 Ang^3
#
#
#
# Elastic Constant Matrix: (Units=GPa)
#
#
# Indices 1 2 3 4 5 6 
#
# 1 189.5683 38.3705 28.2844 1.3087 -1.0218 13.6561
# 2 38.3705 101.6215 27.8842 12.6422 10.4846 16.0309
# 3 28.2844 27.8842 86.2388 14.2126 17.8333 15.9649
# 4 1.3087 12.6422 14.2126 35.0096 7.9382 -6.7077
# 5 -1.0218 10.4846 17.8333 7.9382 26.9460 12.6660
# 6 13.6561 16.0309 15.9649 -6.7077 12.6660 42.8382
#
#
#
# Elastic Compliance Matrix: (Units=1/GPa)
#
#
# Indices 1 2 3 4 5 6 
#
# 1 0.006022 -0.001910 -0.001712 0.000319 0.002618 -0.001291
# 2 -0.001910 0.012240 -0.001813 -0.004191 -0.000630 -0.003766
# 3 -0.001712 -0.001813 0.015514 -0.004700 -0.006683 -0.003317
# 4 0.000319 -0.004191 -0.004700 0.037138 -0.012118 0.012616
# 5 0.002618 -0.000630 -0.006683 -0.012118 0.052788 -0.015613
# 6 -0.001291 -0.003766 -0.003317 0.012616 -0.015613 0.032993
#
#
# Mechanical properties :
#
#
# Convention : Reuss Voigt Hill
#
# Bulk Modulus (GPa) = 43.65848 62.94519 53.30183
# Shear Modulus (GPa) = 28.53883 39.81806 34.17844
#
# Velocity S-wave (km/s) = 3.38528 3.99868 3.70469
# Velocity P-wave (km/s) = 5.72815 6.82609 6.30108
#
# Compressibility (1/GPa) = 0.02290506
#
# Stress axis : x y z
#
# Youngs Moduli (GPa) = 166.05316 81.70238 64.45705
#
# Poissons Ratio (x) = 0.15606 0.11038
# Poissons Ratio (y) = 0.31718 0.11685
# Poissons Ratio (z) = 0.28436 0.14812
#
# Static dielectric constant tensor:
#      x y z
#    x 2.041240 0.035580 0.074170 
#    y 0.035580 2.037910 -0.130890 
#    z 0.074170 -0.130890 2.048550 
# 
# From -- ./inp_files/1649.got.cif
#   From: 2010.05.17/outbox.cif.g08.bks.cpg/sg1_1_cif.got.tgz:1649.got - 2010.05.17 20:27:59.
