data_PCOD9000642
_publ_section_title
;
Structure prediction by ZEFSAII (Michael W. Deem and Ramdas Pophale) SiO2 
 PCOD9000642
Probable space group: P 1
;
_chemical_formula_sum "Si O2"
_cell_formula_units_Z 6
_cell_length_a 10.106671
_cell_length_b 7.155267
_cell_length_c 7.487459
_cell_angle_alpha 112.890078
_cell_angle_beta 132.446984
_cell_angle_gamma 45.070009
_cell_volume 278.854077
_symmetry_space_group_name_H-M "P 1"
_symmetry_group_IT_number 1
_symmetry_cell_setting 'triclinic'
loop_
_space_group_symop_operation_xyz
x,y,z
loop_
_atom_site_type_symbol
_atom_site_label
_atom_site_fract_x
_atom_site_fract_y
_atom_site_fract_z
Si Si1 0.209080 0.296210 0.705270
Si Si2 0.720872 0.545311 0.248415
Si Si3 0.090781 0.612394 0.055315
Si Si4 0.681640 0.711500 0.886642
Si Si5 0.579512 0.446203 0.417087
Si Si6 0.873037 0.861490 0.598465
O O1 0.001161 0.299556 0.450322
O O2 0.120951 0.578848 0.651870
O O3 0.465720 0.027706 0.799883
O O4 0.177477 0.362376 0.912949
O O5 0.571924 0.509890 0.225675
O O6 0.699918 0.795326 0.390783
O O7 0.665637 0.593179 0.008403
O O8 0.323425 0.564530 0.295331
O O9 0.929152 0.647813 0.078050
O O10 0.923408 0.858145 0.853405
O O11 0.663884 0.578852 0.651865
O O12 0.766560 0.129993 0.503850
#
# Coordination Sequence:
#
# PCOD9000642 Si02
#       6
#     1   1   1   1   1   1
#     4   8  21  47  63  96 137 175 211 281 330 387
#     4   9  23  45  69  97 138 176 217 281 334 390
#     4   9  23  45  69  97 138 176 217 281 334 390
#     4  12  22  46  72  99 134 178 226 275 335 398
#     4  12  22  46  72  99 134 178 226 275 335 398
#     4   8  21  47  63  96 137 175 211 281 330 387
#
# _framework density 21.516628999999998
#
# number of rings (size 3 to 8) (size 9 to 14) (size 15 to 20)
#    2.000    0.000    3.333    1.000    0.000    4.000 
#   24.000    0.000    0.000    0.000    0.000    0.000 
#    0.000    0.000    0.000    0.000    0.000    0.000 
#
# Total GULP energy -33414.828077 kJ/mol
# GULP energy per Si atom -5569.138013 kJ/mol
# Density = 2.146766 g / cm^3
# Si number density = 21.516629 Si / 1000 Ang^3
#
#
#
# Elastic Constant Matrix: (Units=GPa)
#
#
# Indices 1 2 3 4 5 6 
#
# 1 108.2093 56.2409 26.8878 -16.2561 7.6066 7.0687
# 2 56.2409 92.9444 -1.2960 -20.9572 3.7340 0.4079
# 3 26.8878 -1.2960 46.9532 -5.2710 4.5794 3.0016
# 4 -16.2561 -20.9572 -5.2710 12.1426 1.6494 -1.0793
# 5 7.6066 3.7340 4.5794 1.6494 34.2225 -12.1664
# 6 7.0687 0.4079 3.0016 -1.0793 -12.1664 15.5334
#
#
#
# Elastic Compliance Matrix: (Units=1/GPa)
#
#
# Indices 1 2 3 4 5 6 
#
# 1 0.018460 -0.010510 -0.009390 0.002319 -0.005540 -0.010488
# 2 -0.010510 0.025160 0.010703 0.034573 -0.002666 0.002368
# 3 -0.009390 0.010703 0.030022 0.019277 -0.005813 -0.005023
# 4 0.002319 0.034573 0.019277 0.155099 -0.017370 -0.008516
# 5 -0.005540 -0.002666 -0.005813 -0.017370 0.046080 0.038599
# 6 -0.010488 0.002368 -0.005023 -0.008516 0.038599 0.099699
#
#
# Mechanical properties :
#
#
# Convention : Reuss Voigt Hill
#
# Bulk Modulus (GPa) = 18.10009 45.75247 31.92628
# Shear Modulus (GPa) = 12.15569 23.46465 17.81017
#
# Velocity S-wave (km/s) = 2.37943 3.30591 2.88017
# Velocity P-wave (km/s) = 3.99742 5.99016 5.09222
#
# Compressibility (1/GPa) = 0.05524833
#
# Stress axis : x y z
#
# Youngs Moduli (GPa) = 54.17201 39.74567 33.30846
#
# Poissons Ratio (x) = 0.41771 0.31277
# Poissons Ratio (y) = 0.56932 -0.35649
# Poissons Ratio (z) = 0.50867 -0.42538
#
# Static dielectric constant tensor:
#      x y z
#    x 1.784360 0.001630 -0.002480 
#    y 0.001630 1.769070 0.010100 
#    z -0.002480 0.010100 1.796370 
# 
# From -- ./inp_files/3421.got.cif
#   From: 2010.05.17/outbox.cif.g08.bks.cpg/sg1_2_cif.got.tgz:3421.got - 2010.05.17 20:27:59.
