data_PCOD9000232
_publ_section_title
;
Structure prediction by ZEFSAII (Michael W. Deem and Ramdas Pophale) SiO2 
 PCOD9000232
Probable space group: P 1
;
_chemical_formula_sum "Si O2"
_cell_formula_units_Z 8
_cell_length_a 8.832390
_cell_length_b 7.780167
_cell_length_c 13.778893
_cell_angle_alpha 28.482389
_cell_angle_beta 45.553048
_cell_angle_gamma 49.346303
_cell_volume 320.549136
_symmetry_space_group_name_H-M "P 1"
_symmetry_group_IT_number 1
_symmetry_cell_setting 'triclinic'
loop_
_space_group_symop_operation_xyz
x,y,z
loop_
_atom_site_type_symbol
_atom_site_label
_atom_site_fract_x
_atom_site_fract_y
_atom_site_fract_z
Si Si1 0.132920 0.322540 0.280320
Si Si2 0.127570 0.499412 0.474563
Si Si3 0.789248 0.571163 0.450952
Si Si4 0.553679 0.310549 0.276871
Si Si5 0.418367 0.263304 0.645761
Si Si6 0.977566 0.352394 0.129654
Si Si7 0.039972 0.538181 0.790874
Si Si8 0.581555 0.513090 0.969848
O O1 0.069169 0.475546 0.127106
O O2 0.002656 0.595486 0.278715
O O3 0.060659 0.936912 0.538934
O O4 0.389712 0.263570 0.181986
O O5 0.313015 0.314362 0.413321
O O6 0.254242 0.430283 0.553651
O O7 0.900649 0.384781 0.592088
O O8 0.077946 0.935582 0.277412
O O9 0.625344 0.413568 0.527421
O O10 0.661664 0.941379 0.362911
O O11 0.722537 0.374137 0.251988
O O12 0.569605 0.623349 0.034690
O O13 0.251976 0.282672 0.799276
O O14 0.505053 0.863885 0.768802
O O15 0.015778 0.542535 0.916197
O O16 0.830576 0.401067 0.901721
#
# Coordination Sequence:
#
# PCOD9000232 Si02
#       8
#     1   1   1   1   1   1   1   1
#     4  12  23  49  73 107 153 190 246 310 370 441
#     4  11  23  44  76 109 149 197 249 307 374 443
#     4  11  25  43  76 106 147 198 244 307 377 435
#     4  10  22  43  71 101 147 194 241 311 364 434
#     4  12  25  45  75 108 150 198 245 309 375 444
#     4  10  24  45  73 112 142 196 255 300 375 450
#     4  11  25  48  74 104 151 194 242 310 373 434
#     4  11  25  43  72 105 145 193 246 300 370 443
#
# _framework density 24.957173999999998
#
# number of rings (size 3 to 8) (size 9 to 14) (size 15 to 20)
#    0.000    1.000    3.750    2.250    3.500    1.000 
#    2.250    0.000    2.750    0.000    0.000    0.000 
#    0.000    0.000    0.000    0.000    0.000    0.000 
#
# Total GULP energy -44541.644190 kJ/mol
# GULP energy per Si atom -5567.705524 kJ/mol
# Density = 2.490037 g / cm^3
# Si number density = 24.957174 Si / 1000 Ang^3
#
#
#
# Elastic Constant Matrix: (Units=GPa)
#
#
# Indices 1 2 3 4 5 6 
#
# 1 208.0162 28.4043 42.9062 15.6226 12.0299 -41.5419
# 2 28.4043 93.9148 2.7220 1.0517 0.8657 -30.9296
# 3 42.9062 2.7220 70.8936 1.8777 3.4329 -18.1741
# 4 15.6226 1.0517 1.8777 29.5431 -8.7427 3.4089
# 5 12.0299 0.8657 3.4329 -8.7427 36.4891 5.4564
# 6 -41.5419 -30.9296 -18.1741 3.4089 5.4564 49.9986
#
#
#
# Elastic Compliance Matrix: (Units=1/GPa)
#
#
# Indices 1 2 3 4 5 6 
#
# 1 0.007172 -0.000058 -0.002471 -0.005600 -0.004352 0.005881
# 2 -0.000058 0.013877 0.002203 -0.002496 -0.002579 0.009789
# 3 -0.002471 0.002203 0.017138 -0.001123 -0.001991 0.005833
# 4 -0.005600 -0.002496 -0.001123 0.042322 0.013796 -0.010996
# 5 -0.004352 -0.002579 -0.001991 0.013796 0.033977 -0.010584
# 6 0.005881 0.009789 0.005833 -0.010996 -0.010584 0.034968
#
#
# Mechanical properties :
#
#
# Convention : Reuss Voigt Hill
#
# Bulk Modulus (GPa) = 26.64257 57.87661 42.25959
# Shear Modulus (GPa) = 30.74701 43.12563 36.93632
#
# Velocity S-wave (km/s) = 3.51378 4.16141 3.85123
# Velocity P-wave (km/s) = 5.21159 6.80665 6.06182
#
# Compressibility (1/GPa) = 0.03753392
#
# Stress axis : x y z
#
# Youngs Moduli (GPa) = 139.43624 72.06097 58.34908
#
# Poissons Ratio (x) = 0.00415 0.14421
# Poissons Ratio (y) = 0.00804 -0.12852
# Poissons Ratio (z) = 0.34461 -0.15872
#
# Static dielectric constant tensor:
#      x y z
#    x 2.107240 0.049730 -0.022980 
#    y 0.049730 2.008240 -0.005340 
#    z -0.022980 -0.005340 2.078380 
# 
# From -- ./inp_files/7120.got.cif
#   From: 2010.05.17/outbox.cif.g08.bks.cpg/sg1_4_cif.got.tgz:7120.got - 2010.05.17 20:27:59.
