data_PCOD9000591
_publ_section_title
;
Structure prediction by ZEFSAII (Michael W. Deem and Ramdas Pophale) SiO2 
 PCOD9000591
Probable space group: P 1
;
_chemical_formula_sum "Si O2"
_cell_formula_units_Z 8
_cell_length_a 5.987697
_cell_length_b 5.008000
_cell_length_c 14.286291
_cell_angle_alpha 77.354358
_cell_angle_beta 127.028207
_cell_angle_gamma 94.756979
_cell_volume 333.049459
_symmetry_space_group_name_H-M "P 1"
_symmetry_group_IT_number 1
_symmetry_cell_setting 'triclinic'
loop_
_space_group_symop_operation_xyz
x,y,z
loop_
_atom_site_type_symbol
_atom_site_label
_atom_site_fract_x
_atom_site_fract_y
_atom_site_fract_z
Si Si1 0.703710 0.853080 0.017630
Si Si2 0.067372 0.448436 0.250336
Si Si3 0.335635 0.384956 0.934042
Si Si4 0.215422 0.166021 0.111903
Si Si5 0.912280 0.599764 0.663006
Si Si6 0.302745 0.554194 0.485911
Si Si7 0.012450 0.151380 0.562031
Si Si8 0.780746 0.988322 0.333227
O O1 0.863844 0.717425 0.158724
O O2 0.461962 0.083218 0.962449
O O3 0.565984 0.602422 0.952207
O O4 0.952055 0.008402 0.020778
O O5 0.148235 0.325382 0.179342
O O6 0.310329 0.514445 0.378907
O O7 0.900826 0.223639 0.280905
O O8 0.293866 0.375060 0.035373
O O9 0.056429 0.474703 0.801326
O O10 0.473950 0.950391 0.219056
O O11 0.582146 0.680649 0.582711
O O12 0.072732 0.859742 0.648655
O O13 0.935315 0.368827 0.606317
O O14 0.013708 0.738123 0.413617
O O15 0.257714 0.274931 0.552546
O O16 0.772481 0.100702 0.428723
#
# Coordination Sequence:
#
# PCOD9000591 Si02
#       8
#     1   1   1   1   1   1   1   1
#     4  12  26  51  72 110 145 194 248 305 360 436
#     4  11  24  44  76 110 156 180 245 307 372 440
#     4  12  29  51  73 108 151 194 256 299 351 446
#     4  12  25  46  77 109 148 203 230 309 381 422
#     4  12  28  50  76 106 149 202 245 299 364 432
#     4  11  26  47  75 116 149 190 243 306 369 445
#     4  11  26  48  76 107 147 192 245 301 368 429
#     4  11  24  47  75 116 151 183 244 308 371 450
#
# _framework density 24.020455999999999
#
# number of rings (size 3 to 8) (size 9 to 14) (size 15 to 20)
#    0.000    0.500    3.750    3.000    8.750    4.000 
#    0.000    0.000    0.000    0.000    0.000    0.000 
#    0.000    0.000    0.000    0.000    0.000    0.000 
#
# Total GULP energy -44794.013966 kJ/mol
# GULP energy per Si atom -5599.251746 kJ/mol
# Density = 2.396578 g / cm^3
# Si number density = 24.020456 Si / 1000 Ang^3
#
#
#
# Elastic Constant Matrix: (Units=GPa)
#
#
# Indices 1 2 3 4 5 6 
#
# 1 63.5060 19.8085 52.6554 -3.9466 9.5115 -7.7908
# 2 19.8085 98.7085 28.0844 -20.0760 2.5743 -9.1741
# 3 52.6554 28.0844 140.5091 -14.5505 10.1815 1.2826
# 4 -3.9466 -20.0760 -14.5505 36.5316 2.9200 0.0542
# 5 9.5115 2.5743 10.1815 2.9200 29.9479 2.1575
# 6 -7.7908 -9.1741 1.2826 0.0542 2.1575 39.8914
#
#
#
# Elastic Compliance Matrix: (Units=1/GPa)
#
#
# Indices 1 2 3 4 5 6 
#
# 1 0.024953 -0.002267 -0.008755 -0.001649 -0.004946 0.004903
# 2 -0.002267 0.012373 -0.000941 0.006241 -0.000810 0.002468
# 3 -0.008755 -0.000941 0.010990 0.002998 -0.001006 -0.002229
# 4 -0.001649 0.006241 0.002998 0.032158 -0.004254 0.001203
# 5 -0.004946 -0.000810 -0.001006 -0.004254 0.036009 -0.003062
# 6 0.004903 0.002468 -0.002229 0.001203 -0.003062 0.026829
#
#
# Mechanical properties :
#
#
# Convention : Reuss Voigt Hill
#
# Bulk Modulus (GPa) = 41.00141 55.98002 48.49072
# Shear Modulus (GPa) = 28.51154 34.75254 31.63204
#
# Velocity S-wave (km/s) = 3.44898 3.80780 3.63282
# Velocity P-wave (km/s) = 5.74169 6.53362 6.15041
#
# Compressibility (1/GPa) = 0.02438940
#
# Stress axis : x y z
#
# Youngs Moduli (GPa) = 40.07610 80.81796 90.99449
#
# Poissons Ratio (x) = 0.18323 0.79665
# Poissons Ratio (y) = 0.09086 0.08563
# Poissons Ratio (z) = 0.35086 0.07606
#
# Static dielectric constant tensor:
#      x y z
#    x 1.948060 -0.012420 0.021580 
#    y -0.012420 1.942760 0.007300 
#    z 0.021580 0.007300 1.875000 
# 
# From -- ./inp_files/6937.got.cif
#   From: 2010.05.17/outbox.cif.g08.bks.cpg/sg1_4_cif.got.tgz:6937.got - 2010.05.17 20:27:59.
