data_PCOD9000602
_publ_section_title
;
Structure prediction by ZEFSAII (Michael W. Deem and Ramdas Pophale) SiO2 
 PCOD9000602
Probable space group: P 1
;
_chemical_formula_sum "Si O2"
_cell_formula_units_Z 8
_cell_length_a 5.516571
_cell_length_b 4.880965
_cell_length_c 11.440584
_cell_angle_alpha 78.146303
_cell_angle_beta 89.407737
_cell_angle_gamma 92.689229
_cell_volume 301.087352
_symmetry_space_group_name_H-M "P 1"
_symmetry_group_IT_number 1
_symmetry_cell_setting 'triclinic'
loop_
_space_group_symop_operation_xyz
x,y,z
loop_
_atom_site_type_symbol
_atom_site_label
_atom_site_fract_x
_atom_site_fract_y
_atom_site_fract_z
Si Si1 0.093060 0.151370 0.486090
Si Si2 0.175314 0.620364 0.153210
Si Si3 0.843062 0.686880 0.372060
Si Si4 0.579984 0.132827 0.064948
Si Si5 0.315120 0.055728 0.736406
Si Si6 0.948510 0.832609 0.922145
Si Si7 0.571777 0.507530 0.820200
Si Si8 0.468692 0.123095 0.295515
O O1 0.160220 0.145968 0.620703
O O2 0.354092 0.193539 0.415506
O O3 0.889806 0.369489 0.434953
O O4 0.980732 0.866306 0.456017
O O5 0.274584 0.320858 0.211352
O O6 0.998768 0.715933 0.249087
O O7 0.382853 0.876317 0.118794
O O8 0.050066 0.611690 0.029872
O O9 0.577592 0.812666 0.346668
O O10 0.674322 0.217188 0.187753
O O11 0.507698 0.391664 0.961729
O O12 0.765202 0.994770 0.988781
O O13 0.546563 0.259039 0.749164
O O14 0.397111 0.740498 0.754562
O O15 0.151947 0.049540 0.853798
O O16 0.826293 0.672148 0.827448
#
# Coordination Sequence:
#
# PCOD9000602 Si02
#       8
#     1   1   1   1   1   1   1   1
#     4  11  27  50  75 109 149 205 258 320 376 456
#     4  11  24  46  75 117 162 198 248 323 389 468
#     4  11  25  47  77 111 150 199 260 313 390 456
#     4  12  23  45  74 117 150 200 250 314 387 461
#     4  12  28  52  75 110 158 203 262 319 379 452
#     4  12  25  46  79 115 157 207 249 317 390 464
#     4  12  27  49  76 113 153 204 257 318 380 458
#     4  11  25  43  79 110 153 194 254 316 385 459
#
# _framework density 26.570360999999998
#
# number of rings (size 3 to 8) (size 9 to 14) (size 15 to 20)
#    0.000    0.500    5.000    2.250    3.500    4.000 
#    4.500    0.000    0.000    0.000    0.000    0.000 
#    0.000    0.000    0.000    0.000    0.000    0.000 
#
# Total GULP energy -44650.258505 kJ/mol
# GULP energy per Si atom -5581.282313 kJ/mol
# Density = 2.650989 g / cm^3
# Si number density = 26.570361 Si / 1000 Ang^3
#
#
#
# Elastic Constant Matrix: (Units=GPa)
#
#
# Indices 1 2 3 4 5 6 
#
# 1 112.2282 79.9679 89.2787 -6.5971 44.1128 -23.3130
# 2 79.9679 189.5481 158.2621 3.2880 54.2579 -10.9949
# 3 89.2787 158.2621 370.3248 0.7551 129.0275 6.8400
# 4 -6.5971 3.2880 0.7551 33.1359 3.5642 17.2701
# 5 44.1128 54.2579 129.0275 3.5642 64.1019 5.5931
# 6 -23.3130 -10.9949 6.8400 17.2701 5.5931 62.1320
#
#
#
# Elastic Compliance Matrix: (Units=1/GPa)
#
#
# Indices 1 2 3 4 5 6 
#
# 1 0.017164 -0.005384 0.002676 0.002326 -0.013271 0.005741
# 2 -0.005384 0.010228 -0.004648 -0.002819 0.004501 0.000680
# 3 0.002676 -0.004648 0.011262 0.002978 -0.020740 -0.000019
# 4 0.002326 -0.002819 0.002978 0.036507 -0.006408 -0.009525
# 5 -0.013271 0.004501 -0.020740 -0.006408 0.063536 -0.005838
# 6 0.005741 0.000680 -0.000019 -0.009525 -0.005838 0.021544
#
#
# Mechanical properties :
#
#
# Convention : Reuss Voigt Hill
#
# Bulk Modulus (GPa) = 41.76815 147.45762 94.61289
# Shear Modulus (GPa) = 27.33236 54.84679 41.08957
#
# Velocity S-wave (km/s) = 3.21078 4.54829 3.93675
# Velocity P-wave (km/s) = 5.43134 9.12141 7.50665
#
# Compressibility (1/GPa) = 0.02394169
#
# Stress axis : x y z
#
# Youngs Moduli (GPa) = 58.26301 97.77083 88.79299
#
# Poissons Ratio (x) = 0.52641 -0.23764
# Poissons Ratio (y) = 0.31369 0.41273
# Poissons Ratio (z) = -0.15593 0.45446
#
# Static dielectric constant tensor:
#      x y z
#    x 2.213460 0.075350 0.008760 
#    y 0.075350 2.180250 0.058520 
#    z 0.008760 0.058520 2.058300 
# 
# From -- ./inp_files/5889.got.cif
#   From: 2010.05.17/outbox.cif.g08.bks.cpg/sg1_3_cif.got.tgz:5889.got - 2010.05.17 20:27:59.
