data_PCOD9000268
_publ_section_title
;
Structure prediction by ZEFSAII (Michael W. Deem and Ramdas Pophale) SiO2 
 PCOD9000268
Probable space group: P 1
;
_chemical_formula_sum "Si O2"
_cell_formula_units_Z 8
_cell_length_a 7.156340
_cell_length_b 8.781219
_cell_length_c 10.956300
_cell_angle_alpha 103.977883
_cell_angle_beta 41.329656
_cell_angle_gamma 129.007910
_cell_volume 315.459331
_symmetry_space_group_name_H-M "P 1"
_symmetry_group_IT_number 1
_symmetry_cell_setting 'triclinic'
loop_
_space_group_symop_operation_xyz
x,y,z
loop_
_atom_site_type_symbol
_atom_site_label
_atom_site_fract_x
_atom_site_fract_y
_atom_site_fract_z
Si Si1 0.629480 0.605340 0.327840
Si Si2 0.338397 0.075510 0.148683
Si Si3 0.387124 0.334704 0.978368
Si Si4 0.093446 0.470261 0.329887
Si Si5 0.224244 0.740540 0.615807
Si Si6 0.076348 0.126483 0.511966
Si Si7 0.417608 0.081843 0.756136
Si Si8 0.339876 0.905803 0.344463
O O1 0.433300 0.555282 0.280432
O O2 0.395084 0.634754 0.537217
O O3 0.487683 0.375283 0.385615
O O4 0.075435 0.841246 0.164803
O O5 0.554097 0.075411 0.157409
O O6 0.050827 0.079324 0.370157
O O7 0.537004 0.278989 0.004074
O O8 0.182839 0.126005 0.950513
O O9 0.773265 0.539913 0.756391
O O10 0.169133 0.396890 0.157706
O O11 0.136489 0.674696 0.338810
O O12 0.682557 0.263613 0.555348
O O13 0.482833 0.900104 0.404390
O O14 0.187179 0.851178 0.762383
O O15 0.726820 0.113181 0.701194
O O16 0.066572 0.947547 0.532516
#
# Coordination Sequence:
#
# PCOD9000268 Si02
#       8
#     1   1   1   1   1   1   1   1
#     4  10  17  38  65  83 113 165 191 235 292 357
#     4  10  21  37  62  88 116 156 196 238 299 341
#     4  12  22  38  62  92 117 153 207 241 279 361
#     4  10  20  40  60  87 124 152 199 240 291 355
#     4  11  21  37  64  90 116 155 201 241 294 346
#     4   9  18  38  59  87 113 151 198 234 287 348
#     4  11  21  40  65  86 116 162 198 239 291 356
#     4   9  20  40  59  87 123 158 184 250 301 342
#
# _framework density 25.359846000000001
#
# number of rings (size 3 to 8) (size 9 to 14) (size 15 to 20)
#    0.750    1.000    7.500    0.000    1.750    1.000 
#    2.250    0.000    0.000    6.000    0.000    0.000 
#    0.000    0.000    0.000    0.000    0.000    0.000 
#
# Total GULP energy -44548.825603 kJ/mol
# GULP energy per Si atom -5568.603200 kJ/mol
# Density = 2.530213 g / cm^3
# Si number density = 25.359846 Si / 1000 Ang^3
#
#
#
# Elastic Constant Matrix: (Units=GPa)
#
#
# Indices 1 2 3 4 5 6 
#
# 1 61.5899 26.2631 6.5967 -1.3979 1.9483 -16.6535
# 2 26.2631 203.7708 42.8388 40.4808 -0.7152 -10.9428
# 3 6.5967 42.8388 97.1829 21.5205 1.3829 -6.3966
# 4 -1.3979 40.4808 21.5205 47.9322 -2.2234 5.7774
# 5 1.9483 -0.7152 1.3829 -2.2234 17.4338 2.5542
# 6 -16.6535 -10.9428 -6.3966 5.7774 2.5542 51.7950
#
#
#
# Elastic Compliance Matrix: (Units=1/GPa)
#
#
# Indices 1 2 3 4 5 6 
#
# 1 0.018932 -0.002505 -0.000223 0.001984 -0.002746 0.005445
# 2 -0.002505 0.006620 -0.001556 -0.005088 -0.000117 0.000975
# 3 -0.000223 -0.001556 0.012104 -0.004413 -0.001807 0.001676
# 4 0.001984 -0.005088 -0.004413 0.027908 0.004108 -0.004298
# 5 -0.002746 -0.000117 -0.001807 0.004108 0.058988 -0.004498
# 6 0.005445 0.000975 0.001676 -0.004298 -0.004498 0.022172
#
#
# Mechanical properties :
#
#
# Convention : Reuss Voigt Hill
#
# Bulk Modulus (GPa) = 34.37576 57.10455 45.74016
# Shear Modulus (GPa) = 30.30538 42.55521 36.43029
#
# Velocity S-wave (km/s) = 3.46065 4.10085 3.79428
# Velocity P-wave (km/s) = 5.43624 6.70740 6.10500
#
# Compressibility (1/GPa) = 0.02909027
#
# Stress axis : x y z
#
# Youngs Moduli (GPa) = 52.81952 151.05516 82.61762
#
# Poissons Ratio (x) = 0.37833 0.01842
# Poissons Ratio (y) = 0.13229 0.12852
# Poissons Ratio (z) = 0.01178 0.23497
#
# Static dielectric constant tensor:
#      x y z
#    x 2.074490 0.022680 0.008680 
#    y 0.022680 2.027580 -0.012180 
#    z 0.008680 -0.012180 1.969160 
# 
# From -- ./inp_files/6463.got.cif
#   From: 2010.05.17/outbox.cif.g08.bks.cpg/sg1_4_cif.got.tgz:6463.got - 2010.05.17 20:27:59.
