data_PCOD9000020
_publ_section_title
;
Structure prediction by ZEFSAII (Michael W. Deem and Ramdas Pophale) SiO2 
 PCOD9000020
Probable space group: P 1
;
_chemical_formula_sum "Si O2"
_cell_formula_units_Z 8
_cell_length_a 7.673092
_cell_length_b 9.457353
_cell_length_c 7.770683
_cell_angle_alpha 62.936332
_cell_angle_beta 55.648051
_cell_angle_gamma 98.669195
_cell_volume 345.071706
_symmetry_space_group_name_H-M "P 1"
_symmetry_group_IT_number 1
_symmetry_cell_setting 'triclinic'
loop_
_space_group_symop_operation_xyz
x,y,z
loop_
_atom_site_type_symbol
_atom_site_label
_atom_site_fract_x
_atom_site_fract_y
_atom_site_fract_z
Si Si1 0.009600 0.429180 0.661360
Si Si2 0.169726 0.324747 0.107614
Si Si3 0.451093 0.163688 0.171745
Si Si4 0.998688 0.079805 0.013859
Si Si5 0.272652 0.949987 0.704313
Si Si6 0.081332 0.589247 0.187445
Si Si7 0.692557 0.677919 0.506699
Si Si8 0.031895 0.768803 0.597986
O O1 0.033343 0.257309 0.793471
O O2 0.168116 0.553297 0.341165
O O3 0.047614 0.584642 0.693276
O O4 0.708793 0.312300 0.851949
O O5 0.039018 0.152117 0.145337
O O6 0.407028 0.503324 0.778889
O O7 0.286683 0.255695 0.224213
O O8 0.008494 0.403056 0.224818
O O9 0.492377 0.109470 0.369986
O O10 0.289162 0.960058 0.279855
O O11 0.202050 0.043171 0.840509
O O12 0.743410 0.867529 0.280963
O O13 0.043905 0.838583 0.748786
O O14 0.291752 0.784166 0.867495
O O15 0.856950 0.618190 0.339961
O O16 0.815496 0.724676 0.605963
#
# Coordination Sequence:
#
# PCOD9000020 Si02
#       8
#     1   1   1   1   1   1   1   1
#     4  11  22  40  66  94 129 168 214 259 320 381
#     4  12  22  42  67  93 129 172 208 262 318 377
#     4  10  21  40  68  90 128 168 212 257 321 371
#     4  11  23  40  62  97 130 164 216 261 311 385
#     4   9  21  41  62  90 132 161 205 270 311 365
#     4  10  22  40  62  95 129 163 210 264 310 378
#     4  10  22  42  64  94 130 165 210 265 320 369
#     4   9  19  41  63  89 129 165 203 272 307 372
#
# _framework density 23.183586999999999
#
# number of rings (size 3 to 8) (size 9 to 14) (size 15 to 20)
#    0.750    1.000    3.750    1.500    1.750    0.000 
#    6.750    5.000    0.000    0.000    0.000    0.000 
#    0.000    0.000    0.000    0.000    0.000    0.000 
#
# Total GULP energy -44578.706381 kJ/mol
# GULP energy per Si atom -5572.338298 kJ/mol
# Density = 2.313082 g / cm^3
# Si number density = 23.183587 Si / 1000 Ang^3
#
#
#
# Elastic Constant Matrix: (Units=GPa)
#
#
# Indices 1 2 3 4 5 6 
#
# 1 44.6911 22.4909 13.5407 -6.8385 20.0343 -12.5418
# 2 22.4909 130.8788 9.1099 -18.5410 9.7938 -20.9378
# 3 13.5407 9.1099 104.4031 -28.1023 30.6397 -13.4372
# 4 -6.8385 -18.5410 -28.1023 44.2908 -0.6359 13.1689
# 5 20.0343 9.7938 30.6397 -0.6359 41.0740 -15.1582
# 6 -12.5418 -20.9378 -13.4372 13.1689 -15.1582 27.4853
#
#
#
# Elastic Compliance Matrix: (Units=1/GPa)
#
#
# Indices 1 2 3 4 5 6 
#
# 1 0.031561 -0.003495 0.001912 0.003602 -0.014930 0.002715
# 2 -0.003495 0.009277 0.000608 0.002170 0.001027 0.005296
# 3 0.001912 0.000608 0.016227 0.011996 -0.014686 -0.004578
# 4 0.003602 0.002170 0.011996 0.036753 -0.017291 -0.017984
# 5 -0.014930 0.001027 -0.014686 -0.017291 0.050540 0.022947
# 6 0.002715 0.005296 -0.004578 -0.017984 0.022947 0.060690
#
#
# Mechanical properties :
#
#
# Convention : Reuss Voigt Hill
#
# Bulk Modulus (GPa) = 18.14407 41.13953 29.64180
# Shear Modulus (GPa) = 22.18580 38.22545 30.20563
#
# Velocity S-wave (km/s) = 3.09684 4.06497 3.61347
# Velocity P-wave (km/s) = 4.54207 6.30996 5.49754
#
# Compressibility (1/GPa) = 0.05511443
#
# Stress axis : x y z
#
# Youngs Moduli (GPa) = 31.68465 107.79689 61.62563
#
# Poissons Ratio (x) = 0.37675 -0.11782
# Poissons Ratio (y) = 0.11074 -0.03746
# Poissons Ratio (z) = -0.06058 -0.06553
#
# Static dielectric constant tensor:
#      x y z
#    x 1.926430 -0.002960 0.056980 
#    y -0.002960 1.868730 0.005210 
#    z 0.056980 0.005210 1.880340 
# 
# From -- ./inp_files/4123.got.cif
#   From: 2010.05.17/outbox.cif.g08.bks.cpg/sg1_3_cif.got.tgz:4123.got - 2010.05.17 20:27:59.
