data_PCOD9000505
_publ_section_title
;
Structure prediction by ZEFSAII (Michael W. Deem and Ramdas Pophale) SiO2 
 PCOD9000505
Probable space group: P 1
;
_chemical_formula_sum "Si O2"
_cell_formula_units_Z 8
_cell_length_a 5.109092
_cell_length_b 14.690000
_cell_length_c 4.984198
_cell_angle_alpha 60.237857
_cell_angle_beta 92.246923
_cell_angle_gamma 113.757645
_cell_volume 291.066237
_symmetry_space_group_name_H-M "P 1"
_symmetry_group_IT_number 1
_symmetry_cell_setting 'triclinic'
loop_
_space_group_symop_operation_xyz
x,y,z
loop_
_atom_site_type_symbol
_atom_site_label
_atom_site_fract_x
_atom_site_fract_y
_atom_site_fract_z
Si Si1 0.411700 0.543410 0.833580
Si Si2 0.867986 0.944067 0.717911
Si Si3 0.721322 0.119399 0.613626
Si Si4 0.256222 0.974259 0.172340
Si Si5 0.194633 0.287218 0.013291
Si Si6 0.921839 0.739979 0.248561
Si Si7 0.080844 0.562261 0.290031
Si Si8 0.679833 0.305717 0.619701
O O1 0.709146 0.642946 0.585144
O O2 0.170182 0.551023 0.613668
O O3 0.373803 0.413343 0.971606
O O4 0.327118 0.563382 0.097973
O O5 0.079751 0.971054 0.435173
O O6 0.074495 0.005502 0.890584
O O7 0.634133 0.996670 0.625924
O O8 0.760331 0.809301 0.993900
O O9 0.631581 0.226893 0.469421
O O10 0.029182 0.193360 0.371425
O O11 0.588449 0.062109 0.983351
O O12 0.182931 0.841492 0.277723
O O13 0.400347 0.258813 0.865839
O O14 0.950895 0.298019 0.795504
O O15 0.028638 0.676285 0.126716
O O16 0.794656 0.443930 0.378693
#
# Coordination Sequence:
#
# PCOD9000505 Si02
#       8
#     1   1   1   1   1   1   1   1
#     4  11  25  45  71 109 145 192 242 308 374 447
#     4  10  27  45  68 105 141 197 244 305 366 441
#     4  12  26  44  74 104 152 194 252 308 372 454
#     4  10  27  45  68 105 141 197 244 305 366 441
#     4  11  26  47  74 111 153 197 248 311 379 450
#     4  10  26  44  76 102 148 188 250 306 372 448
#     4  11  25  45  71 109 145 192 242 308 374 447
#     4  11  26  47  74 111 153 197 248 311 379 450
#
# _framework density 27.485153
#
# number of rings (size 3 to 8) (size 9 to 14) (size 15 to 20)
#    0.750    0.500    2.500    0.750   12.250    0.000 
#    0.000    0.000    0.000    0.000    0.000    0.000 
#    0.000    0.000    0.000    0.000    0.000    0.000 
#
# Total GULP energy -44737.950458 kJ/mol
# GULP energy per Si atom -5592.243807 kJ/mol
# Density = 2.742260 g / cm^3
# Si number density = 27.485153 Si / 1000 Ang^3
#
#
#
# Elastic Constant Matrix: (Units=GPa)
#
#
# Indices 1 2 3 4 5 6 
#
# 1 101.1393 44.2841 24.0357 21.1114 -18.9847 -19.2570
# 2 44.2841 168.2223 45.7767 -20.9243 -20.2833 -48.0932
# 3 24.0357 45.7767 146.7931 6.7472 -39.8790 -10.8265
# 4 21.1114 -20.9243 6.7472 59.1374 -0.7330 -9.9492
# 5 -18.9847 -20.2833 -39.8790 -0.7330 56.6650 12.6425
# 6 -19.2570 -48.0932 -10.8265 -9.9492 12.6425 59.2501
#
#
#
# Elastic Compliance Matrix: (Units=1/GPa)
#
#
# Indices 1 2 3 4 5 6 
#
# 1 0.013500 -0.004258 0.000241 -0.006448 0.003265 -0.000803
# 2 -0.004258 0.010983 -0.002768 0.007134 -0.001245 0.008489
# 3 0.000241 -0.002768 0.009226 -0.002409 0.006037 -0.002175
# 4 -0.006448 0.007134 -0.002409 0.023280 -0.002729 0.007747
# 5 0.003265 -0.001245 0.006037 -0.002729 0.023472 -0.004313
# 6 -0.000803 0.008489 -0.002175 0.007747 -0.004313 0.025330
#
#
# Mechanical properties :
#
#
# Convention : Reuss Voigt Hill
#
# Bulk Modulus (GPa) = 49.65041 71.59419 60.62230
# Shear Modulus (GPa) = 39.65965 55.14772 47.40369
#
# Velocity S-wave (km/s) = 3.80274 4.48421 4.15746
# Velocity P-wave (km/s) = 6.11431 7.27432 6.71939
#
# Compressibility (1/GPa) = 0.02014082
#
# Stress axis : x y z
#
# Youngs Moduli (GPa) = 74.07442 91.05314 108.38456
#
# Poissons Ratio (x) = 0.38767 -0.02614
# Poissons Ratio (y) = 0.31538 0.29998
# Poissons Ratio (z) = -0.01787 0.25201
#
# Static dielectric constant tensor:
#      x y z
#    x 2.332620 0.050610 0.087140 
#    y 0.050610 2.172700 -0.029530 
#    z 0.087140 -0.029530 2.031050 
# 
# From -- ./inp_files/520.got.cif
#   From: 2010.05.17/outbox.cif.g08.bks.cpg/sg1_1_cif.got.tgz:520.got - 2010.05.17 20:27:59.
