data_PCOD9000637
_publ_section_title
;
Structure prediction by ZEFSAII (Michael W. Deem and Ramdas Pophale) SiO2 
 PCOD9000637
Probable space group: P 1
;
_chemical_formula_sum "Si O2"
_cell_formula_units_Z 6
_cell_length_a 5.375166
_cell_length_b 4.900867
_cell_length_c 9.399784
_cell_angle_alpha 109.255123
_cell_angle_beta 98.691898
_cell_angle_gamma 81.293755
_cell_volume 229.709897
_symmetry_space_group_name_H-M "P 1"
_symmetry_group_IT_number 1
_symmetry_cell_setting 'triclinic'
loop_
_space_group_symop_operation_xyz
x,y,z
loop_
_atom_site_type_symbol
_atom_site_label
_atom_site_fract_x
_atom_site_fract_y
_atom_site_fract_z
Si Si1 0.551490 0.969620 0.786050
Si Si2 0.276557 0.470239 0.155799
Si Si3 0.014842 0.341293 0.836669
Si Si4 0.579916 0.884313 0.106932
Si Si5 0.996551 0.950977 0.385986
Si Si6 0.883498 0.595524 0.589386
O O1 0.595917 0.689644 0.637667
O O2 0.760187 0.180009 0.787973
O O3 0.611193 0.887172 0.941153
O O4 0.267453 0.124479 0.787031
O O5 0.500633 0.578382 0.099887
O O6 0.222837 0.718347 0.311174
O O7 0.355010 0.146690 0.161824
O O8 0.055448 0.456958 0.018657
O O9 0.013305 0.585306 0.755782
O O10 0.804590 0.960610 0.238620
O O11 0.907558 0.808145 0.497614
O O12 0.995103 0.284740 0.484469
#
# Coordination Sequence:
#
# PCOD9000637 Si02
#       6
#     1   1   1   1   1   1
#     4  11  28  51  81 114 151 200 260 315 375 448
#     4  11  27  47  78 112 147 199 257 314 372 448
#     4  11  28  51  81 114 151 200 260 315 375 448
#     4  11  27  47  78 112 147 199 257 314 372 448
#     4  12  27  48  75 108 158 196 248 308 385 456
#     4  12  27  48  73 114 156 202 246 314 381 462
#
# _framework density 26.119907000000001
#
# number of rings (size 3 to 8) (size 9 to 14) (size 15 to 20)
#    0.000    0.667    1.667    3.000   21.000    4.000 
#    6.000    0.000    0.000    0.000    0.000    0.000 
#    0.000    0.000    0.000    0.000    0.000    0.000 
#
# Total GULP energy -33567.272984 kJ/mol
# GULP energy per Si atom -5594.545497 kJ/mol
# Density = 2.606046 g / cm^3
# Si number density = 26.119907 Si / 1000 Ang^3
#
#
#
# Elastic Constant Matrix: (Units=GPa)
#
#
# Indices 1 2 3 4 5 6 
#
# 1 92.1112 3.2346 32.9317 0.9143 -16.4236 -5.6751
# 2 3.2346 55.9489 21.9462 2.2962 -4.5213 -1.2057
# 3 32.9317 21.9462 127.2314 4.1467 -22.7534 -17.7643
# 4 0.9143 2.2962 4.1467 63.8947 -10.3563 -2.6154
# 5 -16.4236 -4.5213 -22.7534 -10.3563 44.2680 -1.6481
# 6 -5.6751 -1.2057 -17.7643 -2.6154 -1.6481 31.8553
#
#
#
# Elastic Compliance Matrix: (Units=1/GPa)
#
#
# Indices 1 2 3 4 5 6 
#
# 1 0.012440 0.000569 -0.002560 0.000583 0.003533 0.001041
# 2 0.000569 0.019257 -0.003590 -0.000488 0.000174 -0.001203
# 3 -0.002560 -0.003590 0.010723 0.000432 0.004507 0.005657
# 4 0.000583 -0.000488 0.000432 0.016406 0.004297 0.001895
# 5 0.003533 0.000174 0.004507 0.004297 0.027423 0.004921
# 6 0.001041 -0.001203 0.005657 0.001895 0.004921 0.035096
#
#
# Mechanical properties :
#
#
# Convention : Reuss Voigt Hill
#
# Bulk Modulus (GPa) = 31.99149 43.50184 37.74667
# Shear Modulus (GPa) = 34.98302 42.48220 38.73261
#
# Velocity S-wave (km/s) = 3.66365 4.03728 3.85499
# Velocity P-wave (km/s) = 5.49281 6.19868 5.85639
#
# Compressibility (1/GPa) = 0.03125831
#
# Stress axis : x y z
#
# Youngs Moduli (GPa) = 80.38641 51.92957 93.25589
#
# Poissons Ratio (x) = -0.02954 0.23873
# Poissons Ratio (y) = -0.04573 0.33477
# Poissons Ratio (z) = 0.20578 0.18642
#
# Static dielectric constant tensor:
#      x y z
#    x 2.108900 -0.053940 -0.012730 
#    y -0.053940 2.096080 0.114590 
#    z -0.012730 0.114590 2.042640 
# 
# From -- ./inp_files/757.got.cif
#   From: 2010.05.17/outbox.cif.g08.bks.cpg/sg1_1_cif.got.tgz:757.got - 2010.05.17 20:27:59.
