data_PCOD9000085
_publ_section_title
;
Structure prediction by ZEFSAII (Michael W. Deem and Ramdas Pophale) SiO2 
 PCOD9000085
Probable space group: P 1
;
_chemical_formula_sum "Si O2"
_cell_formula_units_Z 8
_cell_length_a 10.821120
_cell_length_b 7.924031
_cell_length_c 12.154200
_cell_angle_alpha 142.690011
_cell_angle_beta 33.001665
_cell_angle_gamma 136.130561
_cell_volume 339.448453
_symmetry_space_group_name_H-M "P 1"
_symmetry_group_IT_number 1
_symmetry_cell_setting 'triclinic'
loop_
_space_group_symop_operation_xyz
x,y,z
loop_
_atom_site_type_symbol
_atom_site_label
_atom_site_fract_x
_atom_site_fract_y
_atom_site_fract_z
Si Si1 0.008520 0.877060 0.077540
Si Si2 0.501568 0.108730 0.878044
Si Si3 0.780652 0.623133 0.492103
Si Si4 0.851735 0.368648 0.077437
Si Si5 0.578412 0.012540 0.384422
Si Si6 0.403804 0.454091 0.347139
Si Si7 0.945821 0.321298 0.541432
Si Si8 0.103422 0.869931 0.564706
O O1 0.970319 0.564697 0.991708
O O2 0.829901 0.919091 0.137029
O O3 0.944237 0.053864 0.324168
O O4 0.272220 0.999149 0.924209
O O5 0.692791 0.302388 0.765645
O O6 0.610822 0.840129 0.698596
O O7 0.444601 0.289995 0.118621
O O8 0.881899 0.504173 0.245080
O O9 0.990769 0.791519 0.490809
O O10 0.645532 0.352373 0.519952
O O11 0.580071 0.354640 0.249112
O O12 0.965049 0.092730 0.840018
O O13 0.473177 0.790223 0.444098
O O14 0.378286 0.960959 0.415777
O O15 0.133877 0.353801 0.516066
O O16 0.037514 0.586073 0.535925
#
# Coordination Sequence:
#
# PCOD9000085 Si02
#       8
#     1   1   1   1   1   1   1   1
#     4  10  21  45  68  98 137 177 232 281 331 410
#     4  11  22  42  71 100 136 182 223 283 345 395
#     4  12  24  42  69 103 139 180 224 280 344 402
#     4  11  23  44  66 103 135 183 229 275 345 407
#     4  10  23  45  65  98 137 178 223 284 334 398
#     4   9  22  43  69  95 141 176 231 282 329 413
#     4  10  21  43  69 101 134 184 225 280 344 399
#     4  11  24  46  69 100 143 176 225 287 338 404
#
# _framework density 23.567643
#
# number of rings (size 3 to 8) (size 9 to 14) (size 15 to 20)
#    0.000    1.500    3.750    0.750    1.750    1.000 
#    6.750    1.250    0.000    0.000    0.000    0.000 
#    0.000    0.000    0.000    0.000    0.000    0.000 
#
# Total GULP energy -44716.352365 kJ/mol
# GULP energy per Si atom -5589.544046 kJ/mol
# Density = 2.351400 g / cm^3
# Si number density = 23.567643 Si / 1000 Ang^3
#
#
#
# Elastic Constant Matrix: (Units=GPa)
#
#
# Indices 1 2 3 4 5 6 
#
# 1 122.9987 36.8965 68.5976 -21.3248 -17.5042 43.7961
# 2 36.8965 75.4911 1.2243 -5.9144 -10.0068 20.9330
# 3 68.5976 1.2243 57.1515 7.5187 6.2624 9.9630
# 4 -21.3248 -5.9144 7.5187 47.9897 9.1766 -19.9628
# 5 -17.5042 -10.0068 6.2624 9.1766 34.1535 -13.0583
# 6 43.7961 20.9330 9.9630 -19.9628 -13.0583 45.0042
#
#
#
# Elastic Compliance Matrix: (Units=1/GPa)
#
#
# Indices 1 2 3 4 5 6 
#
# 1 -0.559013 0.173937 0.702966 -0.234783 -0.251512 0.130357
# 2 0.173937 -0.038653 -0.217690 0.071240 0.080151 -0.048240
# 3 0.702966 -0.217690 -0.863558 0.289385 0.310908 -0.173089
# 4 -0.234783 0.071240 0.289385 -0.070978 -0.107182 0.068696
# 5 -0.251512 0.080151 0.310908 -0.107182 -0.078190 0.068419
# 6 0.130357 -0.048240 -0.173089 0.068696 0.068419 0.006443
#
#
# Mechanical properties :
#
#
# Convention : Reuss Voigt Hill
#
# Bulk Modulus (GPa) = -7.00296 52.11980 22.55842
# Shear Modulus (GPa) = -1.68352 35.35768 16.83708
#
# Velocity S-wave (km/s) = -0.84610 3.87753 2.67575
# Velocity P-wave (km/s) = 1.98303 6.49692 4.37479
#
# Compressibility (1/GPa) = -0.14279681
#
# Stress axis : x y z
#
# Youngs Moduli (GPa) = -1.78887 -25.87135 -1.15800
#
# Poissons Ratio (x) = 4.50000 0.81403
# Poissons Ratio (y) = 0.31115 -0.25209
# Poissons Ratio (z) = 1.25751 -5.63194
#
# Static dielectric constant tensor:
#      x y z
#    x 1.941720 0.020780 -0.024920 
#    y 0.020780 1.894690 -0.010880 
#    z -0.024920 -0.010880 1.884840 
# 
# From -- ./inp_files/4262.got.cif
#   From: 2010.05.17/outbox.cif.g08.bks.cpg/sg1_3_cif.got.tgz:4262.got - 2010.05.17 20:27:59.
