data_PCOD9000920
_publ_section_title
;
Structure prediction by ZEFSAII (Michael W. Deem and Ramdas Pophale) SiO2 
 PCOD9000920
Probable space group: P 1
;
_chemical_formula_sum "Si O2"
_cell_formula_units_Z 6
_cell_length_a 7.914558
_cell_length_b 5.381495
_cell_length_c 9.071831
_cell_angle_alpha 130.386858
_cell_angle_beta 131.131169
_cell_angle_gamma 58.212241
_cell_volume 218.241704
_symmetry_space_group_name_H-M "P 1"
_symmetry_group_IT_number 1
_symmetry_cell_setting 'triclinic'
loop_
_space_group_symop_operation_xyz
x,y,z
loop_
_atom_site_type_symbol
_atom_site_label
_atom_site_fract_x
_atom_site_fract_y
_atom_site_fract_z
Si Si1 0.490490 0.478130 0.106220
Si Si2 0.345429 0.392221 0.285584
Si Si3 0.190001 0.572886 0.684775
Si Si4 0.872591 0.319064 0.056837
Si Si5 0.601409 0.124150 0.569278
Si Si6 0.018751 0.954368 0.442656
O O1 0.359406 0.306887 0.089366
O O2 0.707207 0.250303 0.066305
O O3 0.568139 0.762772 0.360487
O O4 0.324492 0.618904 0.931212
O O5 0.587805 0.295954 0.466549
O O6 0.242158 0.771403 0.408903
O O7 0.144984 0.230676 0.188655
O O8 0.395549 0.360070 0.625924
O O9 0.071561 0.843325 0.600781
O O10 0.015702 0.331750 0.543831
O O11 0.838933 0.724334 0.195400
O O12 0.804318 0.152622 0.806278
#
# Coordination Sequence:
#
# PCOD9000920 Si02
#       6
#     1   1   1   1   1   1
#     4  11  22  40  66  96 125 179 221 267 334 397
#     4   9  21  42  62  91 135 171 214 277 330 385
#     4  10  21  40  70  89 138 172 215 276 331 386
#     4   9  22  43  61  96 131 170 222 275 327 397
#     4  10  20  43  61  98 130 170 223 272 328 397
#     4   9  20  44  62  94 131 176 209 275 332 380
#
# _framework density 27.492453000000001
#
# number of rings (size 3 to 8) (size 9 to 14) (size 15 to 20)
#    1.000    1.333    1.667    0.000    2.333    1.333 
#    9.000    0.000    0.000    0.000    0.000    0.000 
#    0.000    0.000    0.000    0.000    0.000    0.000 
#
# Total GULP energy -33477.016175 kJ/mol
# GULP energy per Si atom -5579.502696 kJ/mol
# Density = 2.742988 g / cm^3
# Si number density = 27.492453 Si / 1000 Ang^3
#
#
#
# Elastic Constant Matrix: (Units=GPa)
#
#
# Indices 1 2 3 4 5 6 
#
# 1 92.2359 24.8029 30.7361 -20.0984 -34.8111 17.9979
# 2 24.8029 113.3950 38.0850 -35.4834 -7.0470 15.2366
# 3 30.7361 38.0850 211.8112 -43.3851 -6.2397 -0.6620
# 4 -20.0984 -35.4834 -43.3851 45.7946 1.6609 -4.9810
# 5 -34.8111 -7.0470 -6.2397 1.6609 51.9992 -13.0684
# 6 17.9979 15.2366 -0.6620 -4.9810 -13.0684 36.3926
#
#
#
# Elastic Compliance Matrix: (Units=1/GPa)
#
#
# Indices 1 2 3 4 5 6 
#
# 1 0.017039 -0.000593 -0.000998 0.005288 0.010068 -0.003857
# 2 -0.000593 0.012212 -0.000394 0.008430 0.000020 -0.003666
# 3 -0.000998 -0.000394 0.005991 0.005093 0.000223 0.001545
# 4 0.005288 0.008430 0.005093 0.035394 0.004243 0.000316
# 5 0.010068 0.000020 0.000223 0.004243 0.027215 0.005370
# 6 -0.003857 -0.003666 0.001545 0.000316 0.005370 0.032920
#
#
# Mechanical properties :
#
#
# Convention : Reuss Voigt Hill
#
# Bulk Modulus (GPa) = 31.97728 67.18781 49.58255
# Shear Modulus (GPa) = 34.44338 48.42515 41.43426
#
# Velocity S-wave (km/s) = 3.54337 4.20145 3.88637
# Velocity P-wave (km/s) = 5.32890 6.93022 6.18163
#
# Compressibility (1/GPa) = 0.03127220
#
# Stress axis : x y z
#
# Youngs Moduli (GPa) = 58.69016 81.88413 166.90569
#
# Poissons Ratio (x) = 0.04855 0.16660
# Poissons Ratio (y) = 0.03480 0.06577
# Poissons Ratio (z) = 0.05858 0.03227
#
# Static dielectric constant tensor:
#      x y z
#    x 2.235250 0.063240 0.022050 
#    y 0.063240 2.246530 0.060390 
#    z 0.022050 0.060390 2.172810 
# 
# From -- ./inp_files/1947.got.cif
#   From: 2010.05.17/outbox.cif.g08.bks.cpg/sg1_1_cif.got.tgz:1947.got - 2010.05.17 20:27:59.
