data_PCOD9000117
_publ_section_title
;
Structure prediction by ZEFSAII (Michael W. Deem and Ramdas Pophale) SiO2 
 PCOD9000117
Probable space group: P 1
;
_chemical_formula_sum "Si O2"
_cell_formula_units_Z 8
_cell_length_a 7.036961
_cell_length_b 5.211287
_cell_length_c 10.035642
_cell_angle_alpha 96.770973
_cell_angle_beta 88.567864
_cell_angle_gamma 78.632190
_cell_volume 357.846984
_symmetry_space_group_name_H-M "P 1"
_symmetry_group_IT_number 1
_symmetry_cell_setting 'triclinic'
loop_
_space_group_symop_operation_xyz
x,y,z
loop_
_atom_site_type_symbol
_atom_site_label
_atom_site_fract_x
_atom_site_fract_y
_atom_site_fract_z
Si Si1 0.560240 0.087940 0.140550
Si Si2 0.979627 0.992884 0.019193
Si Si3 0.199293 0.046343 0.750696
Si Si4 0.371214 0.476777 0.661613
Si Si5 0.084223 0.270979 0.491793
Si Si6 0.351684 0.799382 0.312529
Si Si7 0.650323 0.392768 0.424639
Si Si8 0.173068 0.455080 0.124624
O O1 0.616375 0.212381 0.288147
O O2 0.389287 0.289941 0.083081
O O3 0.461787 0.850042 0.177729
O O4 0.751945 0.012772 0.046042
O O5 0.055150 0.038145 0.873856
O O6 0.083631 0.701351 0.048055
O O7 0.040972 0.235106 0.114893
O O8 0.355290 0.772678 0.727467
O O9 0.314399 0.286382 0.763812
O O10 0.079570 0.102033 0.618031
O O11 0.557876 0.340063 0.565302
O O12 0.195920 0.490237 0.558187
O O13 0.875933 0.375811 0.440874
O O14 0.226256 0.071792 0.381817
O O15 0.520550 0.675543 0.403568
O O16 0.208220 0.602038 0.270426
#
# Coordination Sequence:
#
# PCOD9000117 Si02
#       8
#     1   1   1   1   1   1   1   1
#     4  11  25  43  68 107 135 177 229 279 332 420
#     4  12  26  47  70  97 140 185 228 271 342 396
#     4  10  23  47  67  93 141 176 222 282 316 406
#     4  10  21  46  63 100 134 168 229 273 326 403
#     4  10  23  42  66  99 135 172 216 276 343 387
#     4  11  22  45  67 105 143 164 230 285 335 412
#     4  11  22  39  72  98 134 177 214 280 350 395
#     4  11  26  45  69  99 134 185 222 284 338 387
#
# _framework density 22.355926
#
# number of rings (size 3 to 8) (size 9 to 14) (size 15 to 20)
#    0.750    0.500    3.750    1.500    3.500    1.000 
#    4.500    0.000    0.000    0.000    0.000    0.000 
#    0.000    0.000    0.000    0.000    0.000    0.000 
#
# Total GULP energy -44658.769375 kJ/mol
# GULP energy per Si atom -5582.346172 kJ/mol
# Density = 2.230504 g / cm^3
# Si number density = 22.355926 Si / 1000 Ang^3
#
#
#
# Elastic Constant Matrix: (Units=GPa)
#
#
# Indices 1 2 3 4 5 6 
#
# 1 101.9734 31.0642 2.8923 -8.0755 -20.8714 -12.1500
# 2 31.0642 119.4355 12.4595 -13.6779 -5.7476 0.8230
# 3 2.8923 12.4595 70.8338 -17.6892 -31.8706 0.0467
# 4 -8.0755 -13.6779 -17.6892 27.1832 7.5227 2.8700
# 5 -20.8714 -5.7476 -31.8706 7.5227 35.4505 4.8963
# 6 -12.1500 0.8230 0.0467 2.8700 4.8963 24.2467
#
#
#
# Elastic Compliance Matrix: (Units=1/GPa)
#
#
# Indices 1 2 3 4 5 6 
#
# 1 0.013806 -0.003382 0.005988 0.002568 0.011820 0.004330
# 2 -0.003382 0.009748 -0.001814 0.003629 -0.002544 -0.001938
# 3 0.005988 -0.001814 0.030122 0.013135 0.028108 -0.004227
# 4 0.002568 0.003629 0.013135 0.047210 0.004635 -0.005386
# 5 0.011820 -0.002544 0.028108 0.004635 0.059966 -0.006703
# 6 0.004330 -0.001938 -0.004227 -0.005386 -0.006703 0.045478
#
#
# Mechanical properties :
#
#
# Convention : Reuss Voigt Hill
#
# Bulk Modulus (GPa) = 18.09665 42.78606 30.44136
# Shear Modulus (GPa) = 22.40493 33.76453 28.08473
#
# Velocity S-wave (km/s) = 3.16918 3.89050 3.54821
# Velocity P-wave (km/s) = 4.63723 6.27387 5.51658
#
# Compressibility (1/GPa) = 0.05525886
#
# Stress axis : x y z
#
# Youngs Moduli (GPa) = 72.43484 102.58378 33.19863
#
# Poissons Ratio (x) = 0.34697 -0.19878
# Poissons Ratio (y) = 0.24500 0.06021
# Poissons Ratio (z) = -0.43372 0.18605
#
# Static dielectric constant tensor:
#      x y z
#    x 1.787810 0.047300 0.010980 
#    y 0.047300 1.848320 -0.029690 
#    z 0.010980 -0.029690 1.883250 
# 
# From -- ./inp_files/455.got.cif
#   From: 2010.05.17/outbox.cif.g08.bks.cpg/sg1_1_cif.got.tgz:455.got - 2010.05.17 20:27:59.
