data_PCOD9000315
_publ_section_title
;
Structure prediction by ZEFSAII (Michael W. Deem and Ramdas Pophale) SiO2 
 PCOD9000315
Probable space group: P 1
;
_chemical_formula_sum "Si O2"
_cell_formula_units_Z 8
_cell_length_a 6.325296
_cell_length_b 5.608227
_cell_length_c 14.000497
_cell_angle_alpha 122.956533
_cell_angle_beta 52.439272
_cell_angle_gamma 105.376003
_cell_volume 328.691524
_symmetry_space_group_name_H-M "P 1"
_symmetry_group_IT_number 1
_symmetry_cell_setting 'triclinic'
loop_
_space_group_symop_operation_xyz
x,y,z
loop_
_atom_site_type_symbol
_atom_site_label
_atom_site_fract_x
_atom_site_fract_y
_atom_site_fract_z
Si Si1 0.311340 0.954190 0.686830
Si Si2 0.378428 0.769515 0.818079
Si Si3 0.461112 0.872952 0.039934
Si Si4 0.887734 0.960475 0.206494
Si Si5 0.380504 0.359732 0.435283
Si Si6 0.802708 0.291669 0.602958
Si Si7 0.734390 0.352804 0.161571
Si Si8 0.888931 0.391798 0.826260
O O1 0.327444 0.017966 0.809550
O O2 0.332167 0.626755 0.577437
O O3 0.577925 0.077365 0.599957
O O4 0.019766 0.093149 0.765940
O O5 0.654822 0.589083 0.670459
O O6 0.130309 0.584049 0.827210
O O7 0.415412 0.827595 0.930760
O O8 0.168332 0.956395 0.182177
O O9 0.631705 0.135395 0.067351
O O10 0.619940 0.583658 0.973972
O O11 0.845092 0.625044 0.142351
O O12 0.617725 0.131255 0.358914
O O13 0.912144 0.140864 0.139968
O O14 0.493431 0.459435 0.324404
O O15 0.101588 0.226852 0.468558
O O16 0.846263 0.334712 0.713759
#
# Coordination Sequence:
#
# PCOD9000315 Si02
#       8
#     1   1   1   1   1   1   1   1
#     4  11  24  43  72 111 144 185 239 303 372 437
#     4  10  23  45  66 106 142 188 237 300 360 437
#     4  11  24  51  72 105 147 195 251 294 373 435
#     4  10  26  50  72 113 141 200 244 310 358 433
#     4  10  25  45  72 107 149 186 244 303 360 445
#     4  10  23  42  68 105 143 188 231 296 373 426
#     4  10  26  50  73 107 148 195 247 304 359 434
#     4  10  23  46  69 108 144 187 237 306 363 435
#
# _framework density 24.338930999999999
#
# number of rings (size 3 to 8) (size 9 to 14) (size 15 to 20)
#    0.750    1.000    1.250    0.750    3.500    4.000 
#   29.250    0.000    0.000    0.000    0.000    0.000 
#    0.000    0.000    0.000    0.000    0.000    0.000 
#
# Total GULP energy -44655.352348 kJ/mol
# GULP energy per Si atom -5581.919043 kJ/mol
# Density = 2.428353 g / cm^3
# Si number density = 24.338931 Si / 1000 Ang^3
#
#
#
# Elastic Constant Matrix: (Units=GPa)
#
#
# Indices 1 2 3 4 5 6 
#
# 1 136.7150 48.4312 63.5527 18.6222 -32.0079 -18.1121
# 2 48.4312 98.3900 32.2400 24.5519 -13.2546 -5.6579
# 3 63.5527 32.2400 89.7019 17.0221 -21.7516 -11.7906
# 4 18.6222 24.5519 17.0221 35.3634 -6.4430 -0.5648
# 5 -32.0079 -13.2546 -21.7516 -6.4430 64.1164 0.9865
# 6 -18.1121 -5.6579 -11.7906 -0.5648 0.9865 45.3811
#
#
#
# Elastic Compliance Matrix: (Units=1/GPa)
#
#
# Indices 1 2 3 4 5 6 
#
# 1 0.012816 -0.003397 -0.006550 -0.000577 0.003371 0.002909
# 2 -0.003397 0.014094 -0.001246 -0.007387 0.000053 -0.000015
# 3 -0.006550 -0.001246 0.017685 -0.003794 0.002064 0.001733
# 4 -0.000577 -0.007387 -0.003794 0.035601 0.000501 -0.001705
# 5 0.003371 0.000053 0.002064 0.000501 0.018018 0.001503
# 6 0.002909 -0.000015 0.001733 -0.001705 0.001503 0.023591
#
#
# Mechanical properties :
#
#
# Convention : Reuss Voigt Hill
#
# Bulk Modulus (GPa) = 45.02761 68.13940 56.58351
# Shear Modulus (GPa) = 32.98332 41.01103 36.99718
#
# Velocity S-wave (km/s) = 3.68525 4.10933 3.90305
# Velocity P-wave (km/s) = 6.05380 7.11142 6.60382
#
# Compressibility (1/GPa) = 0.02220859
#
# Stress axis : x y z
#
# Youngs Moduli (GPa) = 78.02997 70.95448 56.54613
#
# Poissons Ratio (x) = 0.24102 0.37035
# Poissons Ratio (y) = 0.26505 0.07047
# Poissons Ratio (z) = 0.51106 0.08843
#
# Static dielectric constant tensor:
#      x y z
#    x 1.902920 -0.015010 -0.011590 
#    y -0.015010 1.994340 -0.042140 
#    z -0.011590 -0.042140 1.993420 
# 
# From -- ./inp_files/626.got.cif
#   From: 2010.05.17/outbox.cif.g08.bks.cpg/sg1_1_cif.got.tgz:626.got - 2010.05.17 20:27:59.
