data_PCOD9000423
_publ_section_title
;
Structure prediction by ZEFSAII (Michael W. Deem and Ramdas Pophale) SiO2 
 PCOD9000423
Probable space group: P 1
;
_chemical_formula_sum "Si O2"
_cell_formula_units_Z 8
_cell_length_a 7.482054
_cell_length_b 7.285747
_cell_length_c 8.257688
_cell_angle_alpha 104.482806
_cell_angle_beta 105.578181
_cell_angle_gamma 122.950759
_cell_volume 317.161679
_symmetry_space_group_name_H-M "P 1"
_symmetry_group_IT_number 1
_symmetry_cell_setting 'triclinic'
loop_
_space_group_symop_operation_xyz
x,y,z
loop_
_atom_site_type_symbol
_atom_site_label
_atom_site_fract_x
_atom_site_fract_y
_atom_site_fract_z
Si Si1 0.514230 0.754840 0.273570
Si Si2 0.627004 0.267152 0.358545
Si Si3 0.336791 0.941153 0.688812
Si Si4 0.055670 0.043485 0.471532
Si Si5 0.143280 0.001119 0.982277
Si Si6 0.797301 0.456477 0.788238
Si Si7 0.176538 0.372729 0.869822
Si Si8 0.129090 0.456577 0.390205
O O1 0.278257 0.565876 0.285628
O O2 0.562716 0.010180 0.340567
O O3 0.434753 0.621024 0.051668
O O4 0.770286 0.831762 0.402870
O O5 0.686988 0.418640 0.572654
O O6 0.869589 0.391939 0.336334
O O7 0.391874 0.184716 0.187068
O O8 0.218056 0.928133 0.824691
O O9 0.311340 0.699109 0.607234
O O10 0.188387 0.932994 0.497221
O O11 0.598006 0.217904 0.797935
O O12 0.190696 0.259611 0.687877
O O13 0.076036 0.200147 0.360915
O O14 0.927409 0.731691 0.948794
O O15 0.066288 0.151273 0.925283
O O16 0.003092 0.433537 0.812422
#
# Coordination Sequence:
#
# PCOD9000423 Si02
#       8
#     1   1   1   1   1   1   1   1
#     4  11  23  43  68  94 136 171 218 269 329 389
#     4  11  23  42  68  96 134 174 217 269 324 392
#     4  11  24  41  71  96 129 176 219 268 327 391
#     4  10  24  45  62  99 133 170 219 272 321 392
#     4  11  26  42  67  99 133 177 218 269 331 384
#     4  12  23  47  66  95 141 169 222 273 322 392
#     4  11  23  43  67  96 132 175 214 271 326 387
#     4  11  22  43  67  95 128 176 215 267 332 379
#
# _framework density 25.22373
#
# number of rings (size 3 to 8) (size 9 to 14) (size 15 to 20)
#    0.000    1.000    6.250    0.000    3.500    4.000 
#    0.000    5.000    0.000    0.000    0.000    0.000 
#    0.000    0.000    0.000    0.000    0.000    0.000 
#
# Total GULP energy -44767.045867 kJ/mol
# GULP energy per Si atom -5595.880733 kJ/mol
# Density = 2.516632 g / cm^3
# Si number density = 25.223730 Si / 1000 Ang^3
#
#
#
# Elastic Constant Matrix: (Units=GPa)
#
#
# Indices 1 2 3 4 5 6 
#
# 1 52.2445 30.4447 4.6181 2.0469 1.6151 8.5107
# 2 30.4447 145.6919 10.5476 22.9836 12.4493 6.9624
# 3 4.6181 10.5476 95.1806 20.3315 5.5650 7.5266
# 4 2.0469 22.9836 20.3315 32.4565 -10.7086 3.8674
# 5 1.6151 12.4493 5.5650 -10.7086 23.3871 -5.3992
# 6 8.5107 6.9624 7.5266 3.8674 -5.3992 40.4499
#
#
#
# Elastic Compliance Matrix: (Units=1/GPa)
#
#
# Indices 1 2 3 4 5 6 
#
# 1 0.022779 -0.005496 -0.001404 0.004768 0.003030 -0.003637
# 2 -0.005496 0.011030 0.002703 -0.013087 -0.012511 -0.001664
# 3 -0.001404 0.002703 0.014294 -0.014386 -0.012037 -0.003061
# 4 0.004768 -0.013087 -0.014386 0.061216 0.038842 0.003258
# 5 0.003030 -0.012511 -0.012037 0.038842 0.072090 0.009664
# 6 -0.003637 -0.001664 -0.003061 0.003258 0.009664 0.027322
#
#
# Mechanical properties :
#
#
# Convention : Reuss Voigt Hill
#
# Bulk Modulus (GPa) = 25.18342 42.70422 33.94382
# Shear Modulus (GPa) = 21.70514 35.75915 28.73215
#
# Velocity S-wave (km/s) = 2.93662 3.76929 3.37870
# Velocity P-wave (km/s) = 4.63724 5.99252 5.35791
#
# Compressibility (1/GPa) = 0.03970867
#
# Stress axis : x y z
#
# Youngs Moduli (GPa) = 43.89925 90.66523 69.96071
#
# Poissons Ratio (x) = 0.49827 0.09824
# Poissons Ratio (y) = 0.24126 -0.18909
# Poissons Ratio (z) = 0.06164 -0.24506
#
# Static dielectric constant tensor:
#      x y z
#    x 1.952940 0.020750 0.007320 
#    y 0.020750 2.049120 -0.033110 
#    z 0.007320 -0.033110 2.049070 
# 
# From -- ./inp_files/4228.got.cif
#   From: 2010.05.17/outbox.cif.g08.bks.cpg/sg1_3_cif.got.tgz:4228.got - 2010.05.17 20:27:59.
