data_PCOD9000435
_publ_section_title
;
Structure prediction by ZEFSAII (Michael W. Deem and Ramdas Pophale) SiO2 
 PCOD9000435
Probable space group: P 1
;
_chemical_formula_sum "Si O2"
_cell_formula_units_Z 6
_cell_length_a 7.548569
_cell_length_b 5.127414
_cell_length_c 7.886317
_cell_angle_alpha 83.893288
_cell_angle_beta 55.929376
_cell_angle_gamma 66.146766
_cell_volume 228.318159
_symmetry_space_group_name_H-M "P 1"
_symmetry_group_IT_number 1
_symmetry_cell_setting 'triclinic'
loop_
_space_group_symop_operation_xyz
x,y,z
loop_
_atom_site_type_symbol
_atom_site_label
_atom_site_fract_x
_atom_site_fract_y
_atom_site_fract_z
Si Si1 0.292220 0.161390 0.272430
Si Si2 0.619369 0.734939 0.716827
Si Si3 0.698925 0.678096 0.275963
Si Si4 0.329770 0.492646 0.545611
Si Si5 0.924034 0.065240 0.625297
Si Si6 0.236165 0.550760 0.961672
O O1 0.233619 0.353596 0.462371
O O2 0.530280 0.895404 0.212016
O O3 0.313618 0.348638 0.096812
O O4 0.072243 0.075723 0.376550
O O5 0.647519 0.761666 0.496666
O O6 0.746491 0.916872 0.715791
O O7 0.351949 0.781333 0.896112
O O8 0.767034 0.401257 0.722212
O O9 0.592785 0.436691 0.348157
O O10 0.958293 0.641158 0.100238
O O11 0.334266 0.391024 0.741131
O O12 0.146799 0.834478 0.628382
#
# Coordination Sequence:
#
# PCOD9000435 Si02
#       6
#     1   1   1   1   1   1
#     4  11  24  49  77 107 149 196 244 311 366 436
#     4  11  25  46  76 109 152 193 246 308 371 438
#     4  10  24  46  72 110 148 193 246 306 366 444
#     4  10  24  46  74 110 150 193 244 309 370 433
#     4  11  22  49  75 105 152 195 239 311 368 435
#     4  11  25  48  72 115 141 202 245 305 367 448
#
# _framework density 26.279119999999999
#
# number of rings (size 3 to 8) (size 9 to 14) (size 15 to 20)
#    0.000    1.333    3.333    0.000    7.000    1.333 
#    9.000    0.000    0.000    0.000    0.000    0.000 
#    0.000    0.000    0.000    0.000    0.000    0.000 
#
# Total GULP energy -33545.867522 kJ/mol
# GULP energy per Si atom -5590.977920 kJ/mol
# Density = 2.621931 g / cm^3
# Si number density = 26.279120 Si / 1000 Ang^3
#
#
#
# Elastic Constant Matrix: (Units=GPa)
#
#
# Indices 1 2 3 4 5 6 
#
# 1 150.0961 53.0940 73.9171 -15.8001 -58.3648 1.7521
# 2 53.0940 91.5139 41.6980 -23.6567 -14.6296 8.0808
# 3 73.9171 41.6980 155.1355 -35.7180 -43.1182 7.0679
# 4 -15.8001 -23.6567 -35.7180 40.3031 -4.8438 -6.0551
# 5 -58.3648 -14.6296 -43.1182 -4.8438 76.0051 -5.4651
# 6 1.7521 8.0808 7.0679 -6.0551 -5.4651 43.7891
#
#
#
# Elastic Compliance Matrix: (Units=1/GPa)
#
#
# Indices 1 2 3 4 5 6 
#
# 1 0.012634 -0.004886 -0.002419 0.001139 0.007598 0.001892
# 2 -0.004886 0.015720 -0.000529 0.006480 -0.000744 -0.001817
# 3 -0.002419 -0.000529 0.011306 0.009417 0.005077 0.000305
# 4 0.001139 0.006480 0.009417 0.039232 0.010248 0.003943
# 5 0.007598 -0.000744 0.005077 0.010248 0.022615 0.003253
# 6 0.001892 -0.001817 0.000305 0.003943 0.003253 0.023998
#
#
# Mechanical properties :
#
#
# Convention : Reuss Voigt Hill
#
# Bulk Modulus (GPa) = 41.68092 81.57374 61.62733
# Shear Modulus (GPa) = 33.51879 47.22188 40.37033
#
# Velocity S-wave (km/s) = 3.57528 4.24363 3.92371
# Velocity P-wave (km/s) = 5.73923 7.42427 6.63546
#
# Compressibility (1/GPa) = 0.02399179
#
# Stress axis : x y z
#
# Youngs Moduli (GPa) = 79.15118 63.61410 88.44921
#
# Poissons Ratio (x) = 0.31081 0.21393
# Poissons Ratio (y) = 0.38673 0.04682
# Poissons Ratio (z) = 0.19145 0.03367
#
# Static dielectric constant tensor:
#      x y z
#    x 2.086980 0.027310 0.006770 
#    y 0.027310 2.209100 0.056980 
#    z 0.006770 0.056980 2.054670 
# 
# From -- ./inp_files/3364.got.cif
#   From: 2010.05.17/outbox.cif.g08.bks.cpg/sg1_2_cif.got.tgz:3364.got - 2010.05.17 20:27:59.
