data_PCOD9000781
_publ_section_title
;
Structure prediction by ZEFSAII (Michael W. Deem and Ramdas Pophale) SiO2 
 PCOD9000781
Probable space group: P 1
;
_chemical_formula_sum "Si O2"
_cell_formula_units_Z 8
_cell_length_a 5.150085
_cell_length_b 15.657706
_cell_length_c 5.271786
_cell_angle_alpha 109.535365
_cell_angle_beta 90.515547
_cell_angle_gamma 53.314184
_cell_volume 310.876418
_symmetry_space_group_name_H-M "P 1"
_symmetry_group_IT_number 1
_symmetry_cell_setting 'triclinic'
loop_
_space_group_symop_operation_xyz
x,y,z
loop_
_atom_site_type_symbol
_atom_site_label
_atom_site_fract_x
_atom_site_fract_y
_atom_site_fract_z
Si Si1 0.424350 0.331110 0.630970
Si Si2 0.428167 0.440452 0.222236
Si Si3 0.694355 0.693189 0.044009
Si Si4 0.285444 0.647119 0.731905
Si Si5 0.215692 0.817569 0.553248
Si Si6 0.295644 0.941726 0.044013
Si Si7 0.620288 0.037373 0.922391
Si Si8 0.069291 0.251324 0.787556
O O1 0.408614 0.376652 0.397725
O O2 0.810797 0.239128 0.638778
O O3 0.234208 0.279429 0.609176
O O4 0.279709 0.430824 0.951116
O O5 0.303155 0.563004 0.447966
O O6 0.815169 0.365420 0.071764
O O7 0.051453 0.659208 0.966025
O O8 0.630310 0.619333 0.792579
O O9 0.510880 0.699772 0.300242
O O10 0.435511 0.837415 0.142042
O O11 0.110191 0.773224 0.736651
O O12 0.403364 0.863105 0.713784
O O13 0.851364 0.937006 0.606207
O O14 0.895979 0.031116 0.083194
O O15 0.445864 0.006917 0.085250
O O16 0.343562 0.150612 0.875289
#
# Coordination Sequence:
#
# PCOD9000781 Si02
#       8
#     1   1   1   1   1   1   1   1
#     4  10  25  44  69  97 138 171 231 274 334 392
#     4  10  27  45  71  99 136 177 228 278 334 397
#     4  11  22  39  60  93 130 173 210 262 330 388
#     4  11  25  39  63  93 128 168 220 266 326 393
#     4   9  23  37  62  89 133 160 212 261 321 392
#     4   9  19  38  57  90 132 157 213 256 315 393
#     4  10  19  42  63  91 133 161 215 263 329 393
#     4  10  24  44  69  96 136 177 223 282 335 398
#
# _framework density 25.733701
#
# number of rings (size 3 to 8) (size 9 to 14) (size 15 to 20)
#    1.500    0.500    1.250    0.750    7.000    1.000 
#    4.500    0.000    0.000    0.000    0.000    0.000 
#    0.000    0.000    0.000    0.000    0.000    0.000 
#
# Total GULP energy -44574.692377 kJ/mol
# GULP energy per Si atom -5571.836547 kJ/mol
# Density = 2.567513 g / cm^3
# Si number density = 25.733701 Si / 1000 Ang^3
#
#
#
# Elastic Constant Matrix: (Units=GPa)
#
#
# Indices 1 2 3 4 5 6 
#
# 1 163.8458 21.1052 22.2615 -5.0335 -22.3798 16.2791
# 2 21.1052 43.4660 -1.3890 -5.0086 -6.3252 -8.7925
# 3 22.2615 -1.3890 72.8001 -4.9544 -6.4264 -4.2964
# 4 -5.0335 -5.0086 -4.9544 31.9361 -2.5096 -4.1445
# 5 -22.3798 -6.3252 -6.4264 -2.5096 28.8401 -4.5719
# 6 16.2791 -8.7925 -4.2964 -4.1445 -4.5719 27.1513
#
#
#
# Elastic Compliance Matrix: (Units=1/GPa)
#
#
# Indices 1 2 3 4 5 6 
#
# 1 0.008219 -0.004886 -0.002690 -0.000429 0.003657 -0.006385
# 2 -0.004886 0.030542 0.004113 0.007248 0.006951 0.015747
# 3 -0.002690 0.004113 0.015609 0.003789 0.003671 0.006611
# 4 -0.000429 0.007248 0.003789 0.034741 0.006650 0.009627
# 5 0.003657 0.006951 0.003671 0.006650 0.041812 0.008695
# 6 -0.006385 0.015747 0.006611 0.009627 0.008695 0.049738
#
#
# Mechanical properties :
#
#
# Convention : Reuss Voigt Hill
#
# Bulk Modulus (GPa) = 21.07666 40.45191 30.76429
# Shear Modulus (GPa) = 24.58196 33.46111 29.02153
#
# Velocity S-wave (km/s) = 3.09405 3.60986 3.36186
# Velocity P-wave (km/s) = 4.57955 5.75572 5.20099
#
# Compressibility (1/GPa) = 0.04744584
#
# Stress axis : x y z
#
# Youngs Moduli (GPa) = 121.67181 32.74147 64.06459
#
# Poissons Ratio (x) = 0.15996 0.17231
# Poissons Ratio (y) = 0.59443 -0.26349
# Poissons Ratio (z) = 0.32725 -0.13466
#
# Static dielectric constant tensor:
#      x y z
#    x 1.998280 -0.063540 -0.002250 
#    y -0.063540 2.096750 -0.034710 
#    z -0.002250 -0.034710 2.369490 
# 
# From -- ./inp_files/552.got.cif
#   From: 2010.05.17/outbox.cif.g08.bks.cpg/sg1_1_cif.got.tgz:552.got - 2010.05.17 20:27:59.
