data_PCOD9000558
_publ_section_title
;
Structure prediction by ZEFSAII (Michael W. Deem and Ramdas Pophale) SiO2 
 PCOD9000558
Probable space group: P 1
;
_chemical_formula_sum "Si O2"
_cell_formula_units_Z 8
_cell_length_a 15.271371
_cell_length_b 8.703122
_cell_length_c 9.502559
_cell_angle_alpha 64.781896
_cell_angle_beta 141.313740
_cell_angle_gamma 145.441110
_cell_volume 354.361849
_symmetry_space_group_name_H-M "P 1"
_symmetry_group_IT_number 1
_symmetry_cell_setting 'triclinic'
loop_
_space_group_symop_operation_xyz
x,y,z
loop_
_atom_site_type_symbol
_atom_site_label
_atom_site_fract_x
_atom_site_fract_y
_atom_site_fract_z
Si Si1 0.134120 0.487090 0.672390
Si Si2 0.953320 0.637416 0.255006
Si Si3 0.506809 0.579747 0.033330
Si Si4 0.019197 0.903112 0.526117
Si Si5 0.555025 0.312995 0.647140
Si Si6 0.741014 0.327421 0.598643
Si Si7 0.600207 0.702622 0.415132
Si Si8 0.261734 0.666642 0.069486
O O1 0.996162 0.485764 0.405741
O O2 0.374072 0.627966 0.842946
O O3 0.268396 0.712324 0.892965
O O4 0.880144 0.100571 0.563771
O O5 0.986205 0.777359 0.385078
O O6 0.217495 0.965718 0.360531
O O7 0.669220 0.374646 0.916923
O O8 0.328059 0.277221 0.820729
O O9 0.466539 0.493398 0.182569
O O10 0.831567 0.877658 0.297675
O O11 0.896639 0.646441 0.590541
O O12 0.657902 0.294430 0.662700
O O13 0.669779 0.619632 0.633492
O O14 0.948554 0.383723 0.835530
O O15 0.379082 0.598891 0.248976
O O16 0.472184 0.001198 0.293595
#
# Coordination Sequence:
#
# PCOD9000558 Si02
#       8
#     1   1   1   1   1   1   1   1
#     4  11  24  45  74 103 139 185 236 278 344 419
#     4  12  29  46  69 104 148 179 221 295 364 396
#     4  11  23  39  74 101 128 176 249 279 320 399
#     4  12  23  43  71 103 135 182 240 279 331 421
#     4  12  29  46  69 104 148 179 221 295 364 396
#     4  12  23  43  71 103 135 182 240 279 331 421
#     4  11  24  45  74 103 139 185 236 278 344 419
#     4  11  23  39  74 101 128 176 249 279 320 399
#
# _framework density 22.575793999999998
#
# number of rings (size 3 to 8) (size 9 to 14) (size 15 to 20)
#    0.000    0.500    5.000    2.250   10.500    0.000 
#    0.000    7.500    0.000    0.000    0.000    0.000 
#    0.000    0.000    0.000    0.000    0.000    0.000 
#
# Total GULP energy -44774.867598 kJ/mol
# GULP energy per Si atom -5596.858450 kJ/mol
# Density = 2.252441 g / cm^3
# Si number density = 22.575794 Si / 1000 Ang^3
#
#
#
# Elastic Constant Matrix: (Units=GPa)
#
#
# Indices 1 2 3 4 5 6 
#
# 1 105.2450 5.1502 9.9784 -3.4122 16.4295 -6.9255
# 2 5.1502 56.7203 15.4053 -11.3402 -0.3788 -4.2823
# 3 9.9784 15.4053 110.6339 -0.6406 0.2415 -13.1252
# 4 -3.4122 -11.3402 -0.6406 36.6663 -10.8690 10.5057
# 5 16.4295 -0.3788 0.2415 -10.8690 42.6476 3.5205
# 6 -6.9255 -4.2823 -13.1252 10.5057 3.5205 19.2133
#
#
#
# Elastic Compliance Matrix: (Units=1/GPa)
#
#
# Indices 1 2 3 4 5 6 
#
# 1 0.010694 -0.001045 -0.000120 -0.002592 -0.005278 0.005924
# 2 -0.001045 0.019855 -0.002939 0.007542 0.002731 -0.002583
# 3 -0.000120 -0.002939 0.010492 -0.003790 -0.001737 0.008860
# 4 -0.002592 0.007542 -0.003790 0.041063 0.013766 -0.026818
# 5 -0.005278 0.002731 -0.001737 0.013766 0.030308 -0.015561
# 6 0.005924 -0.002583 0.008860 -0.026818 -0.015561 0.077174
#
#
# Mechanical properties :
#
#
# Convention : Reuss Voigt Hill
#
# Bulk Modulus (GPa) = 30.45710 37.07412 33.76561
# Shear Modulus (GPa) = 23.95365 35.84313 29.89839
#
# Velocity S-wave (km/s) = 3.26088 3.98889 3.64312
# Velocity P-wave (km/s) = 5.26290 6.13781 5.71712
#
# Compressibility (1/GPa) = 0.03283306
#
# Stress axis : x y z
#
# Youngs Moduli (GPa) = 93.51181 50.36626 95.31236
#
# Poissons Ratio (x) = 0.05262 0.01141
# Poissons Ratio (y) = 0.09769 0.28014
# Poissons Ratio (z) = 0.01119 0.14804
#
# Static dielectric constant tensor:
#      x y z
#    x 1.837230 -0.025940 0.016110 
#    y -0.025940 1.837190 0.003010 
#    z 0.016110 0.003010 1.821980 
# 
# From -- ./inp_files/5015.got.cif
#   From: 2010.05.17/outbox.cif.g08.bks.cpg/sg1_3_cif.got.tgz:5015.got - 2010.05.17 20:27:59.
