data_PCOD9000949
_publ_section_title
;
Structure prediction by ZEFSAII (Michael W. Deem and Ramdas Pophale) SiO2 
 PCOD9000949
Probable space group: P 1
;
_chemical_formula_sum "Si O2"
_cell_formula_units_Z 8
_cell_length_a 11.602883
_cell_length_b 10.796490
_cell_length_c 5.196043
_cell_angle_alpha 90.001801
_cell_angle_beta 77.058793
_cell_angle_gamma 144.818858
_cell_volume 345.547991
_symmetry_space_group_name_H-M "P 1"
_symmetry_group_IT_number 1
_symmetry_cell_setting 'triclinic'
loop_
_space_group_symop_operation_xyz
x,y,z
loop_
_atom_site_type_symbol
_atom_site_label
_atom_site_fract_x
_atom_site_fract_y
_atom_site_fract_z
Si Si1 0.270720 0.956700 0.067820
Si Si2 0.288947 0.391656 0.058767
Si Si3 0.043582 0.933328 0.556301
Si Si4 0.516080 0.415020 0.320051
Si Si5 0.744635 0.446301 0.894797
Si Si6 0.165599 0.704706 0.622102
Si Si7 0.815034 0.902050 0.359610
Si Si8 0.394082 0.643666 0.507930
O O1 0.257168 0.852129 0.320977
O O2 0.120066 0.936650 0.245983
O O3 0.199693 0.820149 0.854561
O O4 0.512614 0.215209 0.888338
O O5 0.439614 0.411717 0.086210
O O6 0.302456 0.496158 0.298463
O O7 0.359992 0.528268 0.774537
O O8 0.047064 0.133148 0.121125
O O9 0.886440 0.691019 0.746635
O O10 0.904016 0.935880 0.594687
O O11 0.279829 0.174174 0.558910
O O12 0.673204 0.657315 0.353281
O O13 0.655648 0.412471 0.218864
O O14 0.902949 0.471785 0.752846
O O15 0.279866 0.674219 0.595398
O O16 0.656732 0.876576 0.375960
#
# Coordination Sequence:
#
# PCOD9000949 Si02
#       8
#     1   1   1   1   1   1   1   1
#     4  10  23  40  62  90 118 155 200 244 295 352
#     4  10  23  40  62  90 118 155 200 244 295 352
#     4   9  19  36  59  92 121 154 197 242 297 356
#     4   9  19  36  59  92 121 154 197 242 297 356
#     4  10  21  37  62  88 123 158 193 246 298 346
#     4  11  24  41  61  88 120 157 202 244 290 352
#     4  10  21  37  62  88 123 158 193 246 298 346
#     4  11  24  41  61  88 120 157 202 244 290 352
#
# _framework density 23.151630000000001
#
# number of rings (size 3 to 8) (size 9 to 14) (size 15 to 20)
#    0.000    2.000    0.000    2.250    0.000   12.000 
#    0.000    6.250    0.000    0.000    0.000    0.000 
#    0.000    0.000    0.000    0.000    0.000    0.000 
#
# Total GULP energy -44592.718007 kJ/mol
# GULP energy per Si atom -5574.089751 kJ/mol
# Density = 2.309894 g / cm^3
# Si number density = 23.151630 Si / 1000 Ang^3
#
#
#
# Elastic Constant Matrix: (Units=GPa)
#
#
# Indices 1 2 3 4 5 6 
#
# 1 148.3938 24.6794 31.7876 -7.9666 -25.2095 22.1181
# 2 24.6794 120.7282 51.3978 -15.3452 -10.7095 28.8739
# 3 31.7876 51.3978 109.4805 1.8858 5.7879 9.8351
# 4 -7.9666 -15.3452 1.8858 40.1362 4.8974 -12.4534
# 5 -25.2095 -10.7095 5.7879 4.8974 37.3433 -6.6310
# 6 22.1181 28.8739 9.8351 -12.4534 -6.6310 29.8104
#
#
#
# Elastic Compliance Matrix: (Units=1/GPa)
#
#
# Indices 1 2 3 4 5 6 
#
# 1 0.009024 0.001333 -0.003050 -0.000042 0.005944 -0.005676
# 2 0.001333 0.013732 -0.006109 0.002069 0.003631 -0.010602
# 3 -0.003050 -0.006109 0.013050 -0.002385 -0.005216 0.001718
# 4 -0.000042 0.002069 -0.002385 0.029291 -0.000984 0.010832
# 5 0.005944 0.003631 -0.005216 -0.000984 0.032894 0.000699
# 6 -0.005676 -0.010602 0.001718 0.010832 0.000699 0.052139
#
#
# Mechanical properties :
#
#
# Convention : Reuss Voigt Hill
#
# Bulk Modulus (GPa) = 49.61575 66.03691 57.82633
# Shear Modulus (GPa) = 28.98551 39.50715 34.24633
#
# Velocity S-wave (km/s) = 3.54218 4.13540 3.85023
# Velocity P-wave (km/s) = 6.18116 7.16852 6.69307
#
# Compressibility (1/GPa) = 0.02015489
#
# Stress axis : x y z
#
# Youngs Moduli (GPa) = 110.81618 72.82195 76.62854
#
# Poissons Ratio (x) = -0.09707 0.23368
# Poissons Ratio (y) = -0.14772 0.46812
# Poissons Ratio (z) = 0.33794 0.44487
#
# Static dielectric constant tensor:
#      x y z
#    x 1.908100 0.020580 0.007450 
#    y 0.020580 1.888400 0.030160 
#    z 0.007450 0.030160 1.963250 
# 
# From -- ./inp_files/613.got.cif
#   From: 2010.05.17/outbox.cif.g08.bks.cpg/sg1_1_cif.got.tgz:613.got - 2010.05.17 20:27:59.
