data_PCOD9000357
_publ_section_title
;
Structure prediction by ZEFSAII (Michael W. Deem and Ramdas Pophale) SiO2 
 PCOD9000357
Probable space group: P 1
;
_chemical_formula_sum "Si O2"
_cell_formula_units_Z 8
_cell_length_a 14.741224
_cell_length_b 8.755685
_cell_length_c 10.985008
_cell_angle_alpha 40.613665
_cell_angle_beta 28.430767
_cell_angle_gamma 28.297061
_cell_volume 319.264624
_symmetry_space_group_name_H-M "P 1"
_symmetry_group_IT_number 1
_symmetry_cell_setting 'triclinic'
loop_
_space_group_symop_operation_xyz
x,y,z
loop_
_atom_site_type_symbol
_atom_site_label
_atom_site_fract_x
_atom_site_fract_y
_atom_site_fract_z
Si Si1 0.117780 0.754910 0.867700
Si Si2 0.659189 0.196839 0.337173
Si Si3 0.276393 0.727078 0.131275
Si Si4 0.473859 0.678843 0.681661
Si Si5 0.769955 0.077228 0.863676
Si Si6 0.455527 0.038462 0.865834
Si Si7 0.769243 0.625314 0.977728
Si Si8 0.313140 0.318561 0.463015
O O1 0.369708 0.660466 0.690439
O O2 0.203647 0.416726 0.945954
O O3 0.998273 0.951594 0.763272
O O4 0.890311 0.971431 0.104007
O O5 0.655946 0.006395 0.561303
O O6 0.399517 0.372802 0.455432
O O7 0.671646 0.445008 0.229010
O O8 0.094841 0.722516 0.426301
O O9 0.258039 0.799749 0.969844
O O10 0.496855 0.318235 0.127280
O O11 0.383471 0.858926 0.992710
O O12 0.706123 0.330681 0.684942
O O13 0.522693 0.911997 0.467586
O O14 0.777173 0.810721 0.963601
O O15 0.570935 0.887072 0.951831
O O16 0.061197 0.353596 0.744617
#
# Coordination Sequence:
#
# PCOD9000357 Si02
#       8
#     1   1   1   1   1   1   1   1
#     4  12  24  48  78 111 151 196 257 305 372 459
#     4  12  25  49  76 105 151 203 244 316 376 439
#     4  10  23  46  69 106 147 188 250 301 367 448
#     4  10  23  45  71 104 146 195 244 304 376 436
#     4  10  23  46  72 103 152 190 248 308 361 452
#     4  12  25  48  75 109 152 200 248 306 384 444
#     4  12  26  46  73 113 150 196 258 303 377 455
#     4  12  23  44  76 101 151 192 243 313 367 441
#
# _framework density 25.057583999999999
#
# number of rings (size 3 to 8) (size 9 to 14) (size 15 to 20)
#    0.750    0.000    6.250    0.750    1.750    1.000 
#    4.500    0.000    0.000    0.000    0.000    0.000 
#    0.000    0.000    0.000    0.000    0.000    0.000 
#
# Total GULP energy -44609.681258 kJ/mol
# GULP energy per Si atom -5576.210157 kJ/mol
# Density = 2.500055 g / cm^3
# Si number density = 25.057584 Si / 1000 Ang^3
#
#
#
# Elastic Constant Matrix: (Units=GPa)
#
#
# Indices 1 2 3 4 5 6 
#
# 1 174.9541 60.4751 52.8143 -24.6558 -7.3640 -12.7199
# 2 60.4751 128.3357 51.1055 -34.5202 4.8397 -3.2111
# 3 52.8143 51.1055 97.6289 -46.1121 0.9394 6.1140
# 4 -24.6558 -34.5202 -46.1121 61.3333 7.0043 -2.5420
# 5 -7.3640 4.8397 0.9394 7.0043 31.1102 -1.9217
# 6 -12.7199 -3.2111 6.1140 -2.5420 -1.9217 47.5735
#
#
#
# Elastic Compliance Matrix: (Units=1/GPa)
#
#
# Indices 1 2 3 4 5 6 
#
# 1 0.007843 -0.002635 -0.003658 -0.001301 0.002820 0.002434
# 2 -0.002635 0.011217 -0.002778 0.003534 -0.003051 0.000475
# 3 -0.003658 -0.002778 0.019585 0.012006 -0.003926 -0.003200
# 4 -0.001301 0.003534 0.012006 0.027630 -0.007471 -0.000478
# 5 0.002820 -0.003051 -0.003926 -0.007471 0.035215 0.002076
# 6 0.002434 0.000475 -0.003200 -0.000478 0.002076 0.022172
#
#
# Mechanical properties :
#
#
# Convention : Reuss Voigt Hill
#
# Bulk Modulus (GPa) = 48.77043 81.07873 64.92458
# Shear Modulus (GPa) = 33.63890 43.77165 38.70527
#
# Velocity S-wave (km/s) = 3.66794 4.18406 3.93447
# Velocity P-wave (km/s) = 6.11915 7.46786 6.82689
#
# Compressibility (1/GPa) = 0.02050423
#
# Stress axis : x y z
#
# Youngs Moduli (GPa) = 127.50311 89.14791 51.06061
#
# Poissons Ratio (x) = 0.23488 0.18677
# Poissons Ratio (y) = 0.33593 0.14184
# Poissons Ratio (z) = 0.46638 0.24764
#
# Static dielectric constant tensor:
#      x y z
#    x 2.013410 0.008660 0.029140 
#    y 0.008660 2.225190 0.102340 
#    z 0.029140 0.102340 1.977710 
# 
# From -- ./inp_files/6833.got.cif
#   From: 2010.05.17/outbox.cif.g08.bks.cpg/sg1_4_cif.got.tgz:6833.got - 2010.05.17 20:27:59.
