data_PCOD9000410
_publ_section_title
;
Structure prediction by ZEFSAII (Michael W. Deem and Ramdas Pophale) SiO2 
 PCOD9000410
Probable space group: P 1
;
_chemical_formula_sum "Si O2"
_cell_formula_units_Z 8
_cell_length_a 8.130393
_cell_length_b 9.800678
_cell_length_c 9.667421
_cell_angle_alpha 42.655957
_cell_angle_beta 65.133397
_cell_angle_gamma 89.999887
_cell_volume 409.299274
_symmetry_space_group_name_H-M "P 1"
_symmetry_group_IT_number 1
_symmetry_cell_setting 'triclinic'
loop_
_space_group_symop_operation_xyz
x,y,z
loop_
_atom_site_type_symbol
_atom_site_label
_atom_site_fract_x
_atom_site_fract_y
_atom_site_fract_z
Si Si1 0.937110 0.656820 0.932790
Si Si2 0.430630 0.072208 0.945749
Si Si3 0.877061 0.166382 0.377729
Si Si4 0.106259 0.364513 0.439268
Si Si5 0.049745 0.864514 0.439269
Si Si6 0.089554 0.946472 0.923807
Si Si7 0.574091 0.782555 0.954733
Si Si8 0.815524 0.562644 0.500810
O O1 0.739594 0.697384 0.987644
O O2 0.045582 0.776326 0.661254
O O3 0.867053 0.385934 0.160784
O O4 0.081693 0.786122 0.917936
O O5 0.287969 0.031646 0.890893
O O6 0.588572 0.343093 0.717753
O O7 0.560355 0.942901 0.960608
O O8 0.267567 0.952706 0.217283
O O9 0.003258 0.249767 0.415496
O O10 0.656930 0.945669 0.667515
O O11 0.995520 0.071330 0.311772
O O12 0.091772 0.167131 0.692858
O O13 0.979490 0.479262 0.463038
O O14 0.345362 0.561893 0.185680
O O15 0.868025 0.657691 0.566772
O O16 0.885177 0.783360 0.211024
#
# Coordination Sequence:
#
# PCOD9000410 Si02
#       8
#     1   1   1   1   1   1   1   1
#     4  11  22  44  69  94 136 171 215 272 325 385
#     4  11  22  44  69  94 136 171 215 272 325 385
#     4  11  23  44  64  98 134 171 215 274 317 390
#     4  12  22  38  70  98 130 166 222 270 316 384
#     4  10  24  42  62 100 142 164 210 268 344 378
#     4  11  22  39  67 100 124 171 222 263 318 383
#     4  11  22  39  67 100 124 171 222 263 318 383
#     4  11  23  44  64  98 134 171 215 274 317 390
#
# _framework density 19.545601000000001
#
# number of rings (size 3 to 8) (size 9 to 14) (size 15 to 20)
#    0.000    1.000    7.500    0.000    3.500    4.000 
#    0.000    0.000    0.000    1.500    0.000    0.000 
#    0.000    0.000    0.000    0.000    0.000    0.000 
#
# Total GULP energy -44696.630658 kJ/mol
# GULP energy per Si atom -5587.078832 kJ/mol
# Density = 1.950111 g / cm^3
# Si number density = 19.545601 Si / 1000 Ang^3
#
#
#
# Elastic Constant Matrix: (Units=GPa)
#
#
# Indices 1 2 3 4 5 6 
#
# 1 74.8645 32.0355 50.9091 0.8787 -0.1638 -3.5296
# 2 32.0355 93.7544 20.3188 7.1487 -1.2652 2.1414
# 3 50.9091 20.3188 126.2497 -9.8004 0.5472 2.3604
# 4 0.8787 7.1487 -9.8004 37.7860 -0.2610 -0.8113
# 5 -0.1638 -1.2652 0.5472 -0.2610 33.1135 -6.3776
# 6 -3.5296 2.1414 2.3604 -0.8113 -6.3776 45.0491
#
#
#
# Elastic Compliance Matrix: (Units=1/GPa)
#
#
# Indices 1 2 3 4 5 6 
#
# 1 0.021129 -0.005469 -0.007797 -0.001425 0.000469 0.002365
# 2 -0.005469 0.012739 -0.000005 -0.002305 0.000241 -0.001041
# 3 -0.007797 -0.000005 0.011330 0.003092 -0.000435 -0.001210
# 4 -0.001425 -0.002305 0.003092 0.027745 0.000141 0.000356
# 5 0.000469 0.000241 -0.000435 0.000141 0.031076 0.004450
# 6 0.002365 -0.001041 -0.001210 0.000356 0.004450 0.023133
#
#
# Mechanical properties :
#
#
# Convention : Reuss Voigt Hill
#
# Bulk Modulus (GPa) = 53.60280 55.71060 54.65670
# Shear Modulus (GPa) = 31.26728 35.96342 33.61535
#
# Velocity S-wave (km/s) = 4.00398 4.29415 4.15160
# Velocity P-wave (km/s) = 6.98998 7.29047 7.14181
#
# Compressibility (1/GPa) = 0.01865574
#
# Stress axis : x y z
#
# Youngs Moduli (GPa) = 47.32877 78.50014 88.26000
#
# Poissons Ratio (x) = 0.42931 0.68813
# Poissons Ratio (y) = 0.25884 0.00048
# Poissons Ratio (z) = 0.36901 0.00042
#
# Static dielectric constant tensor:
#      x y z
#    x 1.684120 0.000390 0.001300 
#    y 0.000390 1.685910 -0.020430 
#    z 0.001300 -0.020430 1.696630 
# 
# From -- ./inp_files/4046.got.cif
#   From: 2010.05.17/outbox.cif.g08.bks.cpg/sg1_3_cif.got.tgz:4046.got - 2010.05.17 20:27:59.
