data_PCOD9000184
_publ_section_title
;
Structure prediction by ZEFSAII (Michael W. Deem and Ramdas Pophale) SiO2 
 PCOD9000184
Probable space group: P 1
;
_chemical_formula_sum "Si O2"
_cell_formula_units_Z 8
_cell_length_a 16.551078
_cell_length_b 5.352228
_cell_length_c 7.666211
_cell_angle_alpha 62.431365
_cell_angle_beta 35.245994
_cell_angle_gamma 53.805717
_cell_volume 316.000802
_symmetry_space_group_name_H-M "P 1"
_symmetry_group_IT_number 1
_symmetry_cell_setting 'triclinic'
loop_
_space_group_symop_operation_xyz
x,y,z
loop_
_atom_site_type_symbol
_atom_site_label
_atom_site_fract_x
_atom_site_fract_y
_atom_site_fract_z
Si Si1 0.709480 0.171950 0.289790
Si Si2 0.657475 0.738869 0.933626
Si Si3 0.096079 0.643269 0.394829
Si Si4 0.530485 0.061587 0.364370
Si Si5 0.423322 0.589581 0.845592
Si Si6 0.979879 0.381131 0.364896
Si Si7 0.058028 0.750656 0.831320
Si Si8 0.366245 0.739363 0.303764
O O1 0.591696 0.318512 0.606896
O O2 0.639191 0.971009 0.370900
O O3 0.687117 0.441962 0.101434
O O4 0.886545 0.009688 0.071519
O O5 0.797686 0.605200 0.597038
O O6 0.646075 0.987119 0.019776
O O7 0.485387 0.870638 0.118352
O O8 0.023794 0.473411 0.447799
O O9 0.078305 0.616137 0.642676
O O10 0.019347 0.019933 0.387565
O O11 0.277887 0.521216 0.070064
O O12 0.429827 0.864413 0.625562
O O13 0.419687 0.416664 0.418955
O O14 0.395148 0.685607 0.064623
O O15 0.071685 0.486773 0.028831
O O16 0.183772 0.888312 0.598821
#
# Coordination Sequence:
#
# PCOD9000184 Si02
#       8
#     1   1   1   1   1   1   1   1
#     4  10  22  44  68  99 140 184 237 294 356 427
#     4  10  23  43  69 100 138 187 233 298 354 427
#     4  11  27  50  70 113 148 189 243 305 355 436
#     4  10  22  41  69  93 138 184 232 290 354 421
#     4  10  24  41  70  99 139 186 233 290 361 420
#     4  12  27  46  79 104 151 194 237 302 368 424
#     4  11  25  47  72 110 145 192 245 300 363 429
#     4  10  24  44  65 100 139 178 240 291 351 430
#
# _framework density 25.316393999999999
#
# number of rings (size 3 to 8) (size 9 to 14) (size 15 to 20)
#    0.000    1.500    1.250    1.500   12.250    1.000 
#    9.000    0.000    0.000    0.000    0.000    0.000 
#    0.000    0.000    0.000    0.000    0.000    0.000 
#
# Total GULP energy -44773.040249 kJ/mol
# GULP energy per Si atom -5596.630031 kJ/mol
# Density = 2.525877 g / cm^3
# Si number density = 25.316394 Si / 1000 Ang^3
#
#
#
# Elastic Constant Matrix: (Units=GPa)
#
#
# Indices 1 2 3 4 5 6 
#
# 1 64.8004 22.4207 28.7030 4.4852 -6.7749 -7.8764
# 2 22.4207 70.0182 34.0888 13.3887 -11.7684 -5.4017
# 3 28.7030 34.0888 171.9876 15.3973 -11.4683 -13.1344
# 4 4.4852 13.3887 15.3973 39.1422 -15.6387 -1.0891
# 5 -6.7749 -11.7684 -11.4683 -15.6387 41.5148 -0.8072
# 6 -7.8764 -5.4017 -13.1344 -1.0891 -0.8072 21.9292
#
#
#
# Elastic Compliance Matrix: (Units=1/GPa)
#
#
# Indices 1 2 3 4 5 6 
#
# 1 0.018478 -0.004593 -0.001802 0.000953 0.001663 0.004535
# 2 -0.004593 0.018057 -0.002210 -0.003802 0.002353 0.001372
# 3 -0.001802 -0.002210 0.006942 -0.001491 0.000492 0.002910
# 4 0.000953 -0.003802 -0.001491 0.031559 0.010563 0.000469
# 5 0.001663 0.002353 0.000492 0.010563 0.029201 0.003071
# 6 0.004535 0.001372 0.002910 0.000469 0.003071 0.049448
#
#
# Mechanical properties :
#
#
# Convention : Reuss Voigt Hill
#
# Bulk Modulus (GPa) = 38.06961 53.02569 45.54765
# Shear Modulus (GPa) = 27.83185 35.29015 31.56100
#
# Velocity S-wave (km/s) = 3.31926 3.73763 3.53464
# Velocity P-wave (km/s) = 5.45529 6.29422 5.88971
#
# Compressibility (1/GPa) = 0.02626767
#
# Stress axis : x y z
#
# Youngs Moduli (GPa) = 54.11782 55.37945 144.05766
#
# Poissons Ratio (x) = 0.25434 0.25954
# Poissons Ratio (y) = 0.24854 0.31843
# Poissons Ratio (z) = 0.09750 0.12241
#
# Static dielectric constant tensor:
#      x y z
#    x 2.056290 0.019040 -0.000920 
#    y 0.019040 2.084000 -0.007860 
#    z -0.000920 -0.007860 1.984030 
# 
# From -- ./inp_files/1316.got.cif
#   From: 2010.05.17/outbox.cif.g08.bks.cpg/sg1_1_cif.got.tgz:1316.got - 2010.05.17 20:27:59.
