data_PCOD9000449
_publ_section_title
;
Structure prediction by ZEFSAII (Michael W. Deem and Ramdas Pophale) SiO2 
 PCOD9000449
Probable space group: P 1
;
_chemical_formula_sum "Si O2"
_cell_formula_units_Z 6
_cell_length_a 8.743130
_cell_length_b 6.243161
_cell_length_c 7.512334
_cell_angle_alpha 118.613402
_cell_angle_beta 46.685736
_cell_angle_gamma 130.414541
_cell_volume 226.731145
_symmetry_space_group_name_H-M "P 1"
_symmetry_group_IT_number 1
_symmetry_cell_setting 'triclinic'
loop_
_space_group_symop_operation_xyz
x,y,z
loop_
_atom_site_type_symbol
_atom_site_label
_atom_site_fract_x
_atom_site_fract_y
_atom_site_fract_z
Si Si1 0.089320 0.941110 0.974280
Si Si2 0.274030 0.384445 0.537478
Si Si3 0.776427 0.969453 0.976761
Si Si4 0.009205 0.405822 0.425741
Si Si5 0.316950 0.895375 0.131449
Si Si6 0.542623 0.998533 0.530802
O O1 0.322113 0.055736 0.709484
O O2 0.188841 0.829705 0.012664
O O3 0.861068 0.785362 0.959274
O O4 0.064013 0.185187 0.189182
O O5 0.495030 0.697705 0.528344
O O6 0.161974 0.488886 0.513004
O O7 0.363864 0.193268 0.290035
O O8 0.033678 0.202145 0.778744
O O9 0.553471 0.860915 0.970620
O O10 0.667472 0.065372 0.264232
O O11 0.098997 0.673309 0.339664
O O12 0.725223 0.233939 0.614965
#
# Coordination Sequence:
#
# PCOD9000449 Si02
#       6
#     1   1   1   1   1   1
#     4  10  25  45  70 110 142 186 243 292 356 432
#     4  11  25  47  73 107 143 193 242 293 363 429
#     4  11  24  45  74 105 141 191 236 294 359 423
#     4  10  24  48  70 111 143 190 243 293 365 426
#     4  11  24  50  75 104 149 190 238 302 360 426
#     4  11  24  47  72 107 146 186 242 296 357 430
#
# _framework density 26.463059000000001
#
# number of rings (size 3 to 8) (size 9 to 14) (size 15 to 20)
#    0.000    1.333    1.667    2.000    4.667    4.000 
#   15.000    0.000    0.000    0.000    0.000    0.000 
#    0.000    0.000    0.000    0.000    0.000    0.000 
#
# Total GULP energy -33435.521808 kJ/mol
# GULP energy per Si atom -5572.586968 kJ/mol
# Density = 2.640283 g / cm^3
# Si number density = 26.463059 Si / 1000 Ang^3
#
#
#
# Elastic Constant Matrix: (Units=GPa)
#
#
# Indices 1 2 3 4 5 6 
#
# 1 187.9202 25.7129 19.1126 -2.7035 -12.2254 -12.4474
# 2 25.7129 91.8553 -10.5532 -13.2667 -4.5331 12.1381
# 3 19.1126 -10.5532 89.9037 -9.6698 0.5248 -4.7396
# 4 -2.7035 -13.2667 -9.6698 36.3936 -4.9103 -3.6419
# 5 -12.2254 -4.5331 0.5248 -4.9103 49.3786 -1.6995
# 6 -12.4474 12.1381 -4.7396 -3.6419 -1.6995 27.1395
#
#
#
# Elastic Compliance Matrix: (Units=1/GPa)
#
#
# Indices 1 2 3 4 5 6 
#
# 1 0.006113 -0.002316 -0.001409 -0.000207 0.001421 0.003655
# 2 -0.002316 0.013316 0.002255 0.004810 0.000900 -0.005922
# 3 -0.001409 0.002255 0.012179 0.004079 0.000170 0.001030
# 4 -0.000207 0.004810 0.004079 0.031062 0.003534 0.002856
# 5 0.001421 0.000900 0.000170 0.003534 0.021107 0.002075
# 6 0.003655 -0.005922 0.001030 0.002856 0.002075 0.041864
#
#
# Mechanical properties :
#
#
# Convention : Reuss Voigt Hill
#
# Bulk Modulus (GPa) = 34.88158 48.69152 41.78655
# Shear Modulus (GPa) = 36.19571 44.94280 40.56925
#
# Velocity S-wave (km/s) = 3.70237 4.12554 3.91967
# Velocity P-wave (km/s) = 5.61129 6.41352 6.02577
#
# Compressibility (1/GPa) = 0.02866843
#
# Stress axis : x y z
#
# Youngs Moduli (GPa) = 163.58123 75.09927 82.10552
#
# Poissons Ratio (x) = 0.17392 0.11572
# Poissons Ratio (y) = 0.37883 -0.18517
# Poissons Ratio (z) = 0.23054 -0.16937
#
# Static dielectric constant tensor:
#      x y z
#    x 2.220880 0.007130 -0.024300 
#    y 0.007130 2.041740 -0.015820 
#    z -0.024300 -0.015820 2.202300 
# 
# From -- ./inp_files/956.got.cif
#   From: 2010.05.17/outbox.cif.g08.bks.cpg/sg1_1_cif.got.tgz:956.got - 2010.05.17 20:27:59.
