data_PCOD9000278
_publ_section_title
;
Structure prediction by ZEFSAII (Michael W. Deem and Ramdas Pophale) SiO2 
 PCOD9000278
Probable space group: P 1
;
_chemical_formula_sum "Si O2"
_cell_formula_units_Z 8
_cell_length_a 7.931304
_cell_length_b 8.879550
_cell_length_c 11.046954
_cell_angle_alpha 30.882467
_cell_angle_beta 120.189664
_cell_angle_gamma 112.997692
_cell_volume 343.698548
_symmetry_space_group_name_H-M "P 1"
_symmetry_group_IT_number 1
_symmetry_cell_setting 'triclinic'
loop_
_space_group_symop_operation_xyz
x,y,z
loop_
_atom_site_type_symbol
_atom_site_label
_atom_site_fract_x
_atom_site_fract_y
_atom_site_fract_z
Si Si1 0.966840 0.932420 0.236670
Si Si2 0.278744 0.372736 0.443012
Si Si3 0.240388 0.002392 0.055867
Si Si4 0.312410 0.116578 0.372409
Si Si5 0.883462 0.267510 0.629044
Si Si6 0.470612 0.442947 0.962490
Si Si7 0.626587 0.031291 0.891359
Si Si8 0.809344 0.422324 0.254553
O O1 0.967000 0.581329 0.467247
O O2 0.097504 0.015629 0.112065
O O3 0.086985 0.048180 0.310889
O O4 0.742154 0.045551 0.049082
O O5 0.347011 0.679749 0.303021
O O6 0.396657 0.113940 0.742281
O O7 0.043486 0.405981 0.345390
O O8 0.325236 0.308047 0.364902
O O9 0.384376 0.251125 0.958250
O O10 0.077387 0.047971 0.862108
O O11 0.385311 0.302964 0.154557
O O12 0.414212 0.786318 0.670346
O O13 0.722412 0.253688 0.682907
O O14 0.783475 0.206554 0.507160
O O15 0.700665 0.384815 0.116162
O O16 0.704767 0.724056 0.067042
#
# Coordination Sequence:
#
# PCOD9000278 Si02
#       8
#     1   1   1   1   1   1   1   1
#     4   9  19  41  65  93 132 180 216 274 343 404
#     4  12  23  43  67 105 131 175 234 282 328 406
#     4  10  21  41  67  97 131 178 224 275 338 405
#     4  11  24  43  71 102 136 179 227 280 341 400
#     4  10  17  39  68  90 129 180 220 270 341 402
#     4  11  24  46  69  98 141 184 218 278 349 401
#     4  10  21  40  65  95 135 173 225 276 344 394
#     4  11  23  41  66  96 135 179 220 281 338 400
#
# _framework density 23.276211
#
# number of rings (size 3 to 8) (size 9 to 14) (size 15 to 20)
#    0.000    1.500    6.250    0.750    0.000    1.000 
#    6.750    3.750    0.000    0.000    0.000    0.000 
#    0.000    0.000    0.000    0.000    0.000    0.000 
#
# Total GULP energy -44593.787138 kJ/mol
# GULP energy per Si atom -5574.223392 kJ/mol
# Density = 2.322323 g / cm^3
# Si number density = 23.276211 Si / 1000 Ang^3
#
#
#
# Elastic Constant Matrix: (Units=GPa)
#
#
# Indices 1 2 3 4 5 6 
#
# 1 85.4323 17.5213 47.2217 -3.0053 17.3626 10.3839
# 2 17.5213 76.2257 20.7750 16.9496 25.0801 18.5498
# 3 47.2217 20.7750 101.7276 17.3016 26.5794 9.3078
# 4 -3.0053 16.9496 17.3016 36.6645 9.5921 6.7874
# 5 17.3626 25.0801 26.5794 9.5921 40.2987 5.3698
# 6 10.3839 18.5498 9.3078 6.7874 5.3698 28.8342
#
#
#
# Elastic Compliance Matrix: (Units=1/GPa)
#
#
# Indices 1 2 3 4 5 6 
#
# 1 0.017843 -0.001775 -0.008201 0.007522 -0.002438 -0.003953
# 2 -0.001775 0.019998 0.001125 -0.005602 -0.009832 -0.009440
# 3 -0.008201 0.001125 0.016258 -0.007224 -0.006147 -0.000173
# 4 0.007522 -0.005602 -0.007224 0.035479 -0.002822 -0.004600
# 5 -0.002438 -0.009832 -0.006147 -0.002822 0.036298 0.003092
# 6 -0.003953 -0.009440 -0.000173 -0.004600 0.003092 0.042740
#
#
# Mechanical properties :
#
#
# Convention : Reuss Voigt Hill
#
# Bulk Modulus (GPa) = 27.47427 48.26904 37.87166
# Shear Modulus (GPa) = 25.19529 33.01733 29.10631
#
# Velocity S-wave (km/s) = 3.29363 3.77039 3.54004
# Velocity P-wave (km/s) = 5.12769 6.30372 5.74587
#
# Compressibility (1/GPa) = 0.03639769
#
# Stress axis : x y z
#
# Youngs Moduli (GPa) = 56.04561 50.00502 61.50869
#
# Poissons Ratio (x) = 0.08875 0.50442
# Poissons Ratio (y) = 0.09947 -0.06921
# Poissons Ratio (z) = 0.45962 -0.05626
#
# Static dielectric constant tensor:
#      x y z
#    x 1.957520 0.006800 -0.034080 
#    y 0.006800 1.895980 0.072340 
#    z -0.034080 0.072340 1.985810 
# 
# From -- ./inp_files/1468.got.cif
#   From: 2010.05.17/outbox.cif.g08.bks.cpg/sg1_1_cif.got.tgz:1468.got - 2010.05.17 20:27:59.
