data_PCOD9000362
_publ_section_title
;
Structure prediction by ZEFSAII (Michael W. Deem and Ramdas Pophale) SiO2 
 PCOD9000362
Probable space group: P 1
;
_chemical_formula_sum "Si O2"
_cell_formula_units_Z 8
_cell_length_a 7.433112
_cell_length_b 5.180160
_cell_length_c 12.440072
_cell_angle_alpha 68.288062
_cell_angle_beta 50.231901
_cell_angle_gamma 83.507813
_cell_volume 336.898585
_symmetry_space_group_name_H-M "P 1"
_symmetry_group_IT_number 1
_symmetry_cell_setting 'triclinic'
loop_
_space_group_symop_operation_xyz
x,y,z
loop_
_atom_site_type_symbol
_atom_site_label
_atom_site_fract_x
_atom_site_fract_y
_atom_site_fract_z
Si Si1 0.016050 0.820800 0.391150
Si Si2 0.936541 0.171131 0.558388
Si Si3 0.051081 0.903038 0.885271
Si Si4 0.469304 0.276260 0.330868
Si Si5 0.447680 0.044597 0.873497
Si Si6 0.661119 0.736201 0.366351
Si Si7 0.286088 0.496413 0.726593
Si Si8 0.500486 0.822334 0.122673
O O1 0.950223 0.506905 0.513588
O O2 0.299867 0.900304 0.266766
O O3 0.919244 0.777178 0.314153
O O4 0.907521 0.049719 0.466126
O O5 0.203661 0.131022 0.490046
O O6 0.706885 0.018240 0.732223
O O7 0.224946 0.861429 0.924547
O O8 0.098823 0.679772 0.813099
O O9 0.152709 0.220020 0.758714
O O10 0.781724 0.893888 0.023434
O O11 0.588903 0.491641 0.344958
O O12 0.449658 0.481347 0.205681
O O13 0.626810 0.039610 0.290892
O O14 0.405070 0.356435 0.803927
O O15 0.453130 0.962008 0.006842
O O16 0.485276 0.660262 0.547813
#
# Coordination Sequence:
#
# PCOD9000362 Si02
#       8
#     1   1   1   1   1   1   1   1
#     4  11  24  46  73 102 145 186 242 294 353 431
#     4  11  23  47  70 106 136 188 247 293 354 419
#     4  10  24  47  67 107 145 184 232 292 368 420
#     4  11  27  43  71 105 147 190 233 298 356 431
#     4  10  25  46  77 104 145 185 240 301 357 425
#     4  12  23  45  76 102 143 186 250 292 356 418
#     4  10  23  45  73 105 137 186 239 300 354 412
#     4  11  27  49  69 111 148 191 235 292 368 436
#
# _framework density 23.746020000000001
#
# number of rings (size 3 to 8) (size 9 to 14) (size 15 to 20)
#    0.750    0.500    1.250    3.750    5.250    4.000 
#    9.000    0.000    0.000    0.000    0.000    0.000 
#    0.000    0.000    0.000    0.000    0.000    0.000 
#
# Total GULP energy -44683.786209 kJ/mol
# GULP energy per Si atom -5585.473276 kJ/mol
# Density = 2.369197 g / cm^3
# Si number density = 23.746020 Si / 1000 Ang^3
#
#
#
# Elastic Constant Matrix: (Units=GPa)
#
#
# Indices 1 2 3 4 5 6 
#
# 1 75.3411 6.6621 16.0325 0.0580 -20.6822 8.5039
# 2 6.6621 102.2880 19.9471 2.5960 1.4206 4.9087
# 3 16.0325 19.9471 109.0424 0.0184 -5.4494 -7.7808
# 4 0.0580 2.5960 0.0184 22.7796 -6.4474 3.7231
# 5 -20.6822 1.4206 -5.4494 -6.4474 39.5984 3.5699
# 6 8.5039 4.9087 -7.7808 3.7231 3.5699 29.4139
#
#
#
# Elastic Compliance Matrix: (Units=1/GPa)
#
#
# Indices 1 2 3 4 5 6 
#
# 1 0.017457 -0.000543 -0.002487 0.004088 0.010124 -0.007361
# 2 -0.000543 0.010329 -0.001988 -0.001143 -0.000949 -0.001833
# 3 -0.002487 -0.001988 0.010161 -0.000472 -0.000252 0.003829
# 4 0.004088 -0.001143 -0.000472 0.048467 0.010774 -0.008558
# 5 0.010124 -0.000949 -0.000252 0.010774 0.033035 -0.008208
# 6 -0.007361 -0.001833 0.003829 -0.008558 -0.008208 0.039524
#
#
# Mechanical properties :
#
#
# Convention : Reuss Voigt Hill
#
# Bulk Modulus (GPa) = 35.82790 41.32831 38.57810
# Shear Modulus (GPa) = 28.04045 34.62703 31.33374
#
# Velocity S-wave (km/s) = 3.44008 3.82281 3.63648
# Velocity P-wave (km/s) = 5.55874 6.07678 5.82352
#
# Compressibility (1/GPa) = 0.02791121
#
# Stress axis : x y z
#
# Youngs Moduli (GPa) = 57.28293 96.81060 98.41758
#
# Poissons Ratio (x) = 0.05258 0.24480
# Poissons Ratio (y) = 0.03111 0.19563
# Poissons Ratio (z) = 0.14248 0.19243
#
# Static dielectric constant tensor:
#      x y z
#    x 1.932380 0.033050 0.031950 
#    y 0.033050 1.869920 0.004290 
#    z 0.031950 0.004290 1.897200 
# 
# From -- ./inp_files/6181.got.cif
#   From: 2010.05.17/outbox.cif.g08.bks.cpg/sg1_4_cif.got.tgz:6181.got - 2010.05.17 20:27:59.
