data_PCOD9000991
_publ_section_title
;
Structure prediction by ZEFSAII (Michael W. Deem and Ramdas Pophale) SiO2 
 PCOD9000991
Probable space group: P -1
;
_chemical_formula_sum "Si O2"
_cell_formula_units_Z 16
_cell_length_a 9.661860
_cell_length_b 4.947785
_cell_length_c 25.632928
_cell_angle_alpha 63.043039
_cell_angle_beta 53.833428
_cell_angle_gamma 79.643498
_cell_volume 875.187369
_symmetry_space_group_name_H-M "P -1"
_symmetry_group_IT_number 2
_symmetry_cell_setting 'triclinic'
loop_
_space_group_symop_operation_xyz
x,y,z
-x,-y,-z
loop_
_atom_site_type_symbol
_atom_site_label
_atom_site_fract_x
_atom_site_fract_y
_atom_site_fract_z
Si Si1 0.333551 0.154656 0.958246
Si Si2 0.379561 0.523469 0.652952
Si Si3 0.361740 0.202900 0.066158
Si Si4 0.842162 0.882328 0.191650
Si Si5 0.184616 0.095727 0.650671
Si Si6 0.604590 0.710284 0.501190
Si Si7 0.964193 0.692196 0.805602
Si Si8 0.825085 0.264673 0.059890
O O1 0.282895 0.122944 0.033402
O O2 0.526239 0.062915 0.918797
O O3 0.000000 0.500000 0.000000
O O4 0.214511 0.916083 0.969515
O O5 0.243165 0.376996 0.651733
O O6 0.335587 0.300738 0.730918
O O7 0.323215 0.852727 0.650387
O O8 0.565084 0.560117 0.579803
O O9 0.222394 0.285590 0.131063
O O10 0.683303 0.495320 0.082113
O O11 0.500000 0.500000 0.000000
O O12 0.983241 0.642975 0.186434
O O13 0.903607 0.160947 0.192094
O O14 0.829700 0.015027 0.125535
O O15 0.211161 0.197158 0.575632
O O16 0.008337 0.908216 0.726515
O O17 0.500000 0.500000 0.500000
O O18 0.500000 0.000000 0.500000
#
# Coordination Sequence:
#
# PCOD9000991 Si02
#       8
#     2   2   2   2   2   2   2   2
#     4  11  25  40  54  76  93 128 172 208 258 297
#     4   8  14  25  39  63  92 126 154 179 227 288
#     4  11  24  39  58  70  97 128 171 218 250 297
#     4  10  21  33  50  73 102 130 159 198 244 299
#     4   8  14  25  39  64  91 121 154 189 228 283
#     4   8  12  20  38  58  89 123 151 180 220 278
#     4  10  21  33  51  72  98 129 164 199 249 290
#     4  12  24  37  55  74 102 129 164 210 253 302
#
# _framework density 18.281798999999999
#
# number of rings (size 3 to 8) (size 9 to 14) (size 15 to 20)
#    0.000    2.250    1.250    1.875    5.250    0.000 
#    0.000    0.000    0.000    0.000    0.000    0.000 
#    0.000    2.000    0.000    0.500    0.000    1.750 
#
# Total GULP energy -89146.923113 kJ/mol
# GULP energy per Si atom -5571.682695 kJ/mol
# Density = 1.824019 g / cm^3
# Si number density = 18.281799 Si / 1000 Ang^3
#
#
#
# Elastic Constant Matrix: (Units=GPa)
#
#
# Indices 1 2 3 4 5 6 
#
# 1 37.6418 11.7666 26.7665 1.5434 4.3153 11.7495
# 2 11.7666 86.2016 21.3005 5.4929 0.9483 10.3438
# 3 26.7665 21.3005 176.0004 16.1569 0.7784 -11.1733
# 4 1.5434 5.4929 16.1569 27.5575 2.8902 -0.5059
# 5 4.3153 0.9483 0.7784 2.8902 9.2353 0.7043
# 6 11.7495 10.3438 -11.1733 -0.5059 0.7043 31.7993
#
#
#
# Elastic Compliance Matrix: (Units=1/GPa)
#
#
# Indices 1 2 3 4 5 6 
#
# 1 0.038825 -0.001734 -0.006968 0.003787 -0.017357 -0.015785
# 2 -0.001734 0.012769 -0.001378 -0.001764 0.000475 -0.004036
# 3 -0.006968 -0.001378 0.007619 -0.004079 0.003608 0.005555
# 4 0.003787 -0.001764 -0.004079 0.040235 -0.013736 -0.001314
# 5 -0.017357 0.000475 0.003608 -0.013736 0.119982 0.004651
# 6 -0.015785 -0.004036 0.005555 -0.001314 0.004651 0.040420
#
#
# Mechanical properties :
#
#
# Convention : Reuss Voigt Hill
#
# Bulk Modulus (GPa) = 25.60580 46.61235 36.10908
# Shear Modulus (GPa) = 17.06318 29.71910 23.39114
#
# Velocity S-wave (km/s) = 3.05838 4.03626 3.58086
# Velocity P-wave (km/s) = 5.14861 6.87560 6.07379
#
# Compressibility (1/GPa) = 0.03905365
#
# Stress axis : x y z
#
# Youngs Moduli (GPa) = 25.75691 78.31228 131.24429
#
# Poissons Ratio (x) = 0.13581 0.91446
# Poissons Ratio (y) = 0.04467 0.18086
# Poissons Ratio (z) = 0.17946 0.10792
#
# Static dielectric constant tensor:
#      x y z
#    x 1.625170 0.004400 -0.015200 
#    y 0.004400 1.645530 0.004350 
#    z -0.015200 0.004350 1.753900 
# 
# From -- ./inp_files/622102.got.cif
#   From: 2010.05.17/outbox.cif.g08.bks.cpg/sg2_312_cif.got.tgz:622102.got - 2010.06.03 11:33:40.
