data_PCOD9000083
_publ_section_title
;
Structure prediction by ZEFSAII (Michael W. Deem and Ramdas Pophale) SiO2 
 PCOD9000083
Probable space group: P 1
;
_chemical_formula_sum "Si O2"
_cell_formula_units_Z 8
_cell_length_a 8.230802
_cell_length_b 6.823765
_cell_length_c 11.972994
_cell_angle_alpha 91.221436
_cell_angle_beta 130.436294
_cell_angle_gamma 55.246260
_cell_volume 349.206507
_symmetry_space_group_name_H-M "P 1"
_symmetry_group_IT_number 1
_symmetry_cell_setting 'triclinic'
loop_
_space_group_symop_operation_xyz
x,y,z
loop_
_atom_site_type_symbol
_atom_site_label
_atom_site_fract_x
_atom_site_fract_y
_atom_site_fract_z
Si Si1 0.919540 0.704220 0.195910
Si Si2 0.207449 0.155930 0.905977
Si Si3 0.222999 0.464547 0.108720
Si Si4 0.857593 0.092420 0.891331
Si Si5 0.888534 0.230859 0.379427
Si Si6 0.065231 0.065069 0.218649
Si Si7 0.142899 0.652102 0.534840
Si Si8 0.810921 0.603581 0.535780
O O1 0.137238 0.459186 0.196423
O O2 0.973223 0.900187 0.199883
O O3 0.012770 0.633353 0.365737
O O4 0.559632 0.892609 0.016558
O O5 0.050946 0.060400 0.876427
O O6 0.988047 0.413147 0.722687
O O7 0.240197 0.275296 0.029031
O O8 0.550437 0.358964 0.248325
O O9 0.970001 0.795638 0.959845
O O10 0.492956 0.348628 0.708368
O O11 0.931244 0.172828 0.035749
O O12 0.914221 0.384809 0.481532
O O13 0.924228 0.268738 0.266231
O O14 0.130299 0.893377 0.510063
O O15 0.438401 0.839574 0.383424
O O16 0.928542 0.734225 0.545060
#
# Coordination Sequence:
#
# PCOD9000083 Si02
#       8
#     1   1   1   1   1   1   1   1
#     4  10  21  43  67  97 136 172 220 279 324 398
#     4  12  25  44  70 101 137 176 225 277 333 399
#     4  11  24  45  72  95 136 182 220 273 342 392
#     4  11  25  44  69 102 138 173 226 279 332 397
#     4  11  24  45  72  95 136 182 220 273 342 392
#     4  10  21  43  67  97 136 172 220 279 324 398
#     4  11  25  44  69 102 138 173 226 279 332 397
#     4  12  25  44  70 101 137 176 225 277 333 399
#
# _framework density 22.909082000000001
#
# number of rings (size 3 to 8) (size 9 to 14) (size 15 to 20)
#    0.000    1.000    5.000    3.750    0.000    6.000 
#    0.000    0.000    0.000    0.000    0.000    0.000 
#    0.000    0.000    0.000    0.000    0.000    0.000 
#
# Total GULP energy -44785.155538 kJ/mol
# GULP energy per Si atom -5598.144442 kJ/mol
# Density = 2.285694 g / cm^3
# Si number density = 22.909082 Si / 1000 Ang^3
#
#
#
# Elastic Constant Matrix: (Units=GPa)
#
#
# Indices 1 2 3 4 5 6 
#
# 1 122.1332 -12.5431 26.6144 -8.0504 -0.8261 -21.9712
# 2 -12.5431 63.6190 -18.4695 0.8964 -3.0899 -7.5336
# 3 26.6144 -18.4695 104.9837 -22.7493 2.1548 -12.4503
# 4 -8.0504 0.8964 -22.7493 39.6414 -8.2613 -1.0605
# 5 -0.8261 -3.0899 2.1548 -8.2613 39.2154 -1.6125
# 6 -21.9712 -7.5336 -12.4503 -1.0605 -1.6125 40.3993
#
#
#
# Elastic Compliance Matrix: (Units=1/GPa)
#
#
# Indices 1 2 3 4 5 6 
#
# 1 0.009762 0.002287 -0.001081 0.001671 0.001023 0.005487
# 2 0.002287 0.018068 0.003889 0.002888 0.002112 0.005972
# 3 -0.001081 0.003889 0.012536 0.007271 0.001301 0.004244
# 4 0.001671 0.002888 0.007271 0.031182 0.006628 0.004771
# 5 0.001023 0.002112 0.001301 0.006628 0.027120 0.002608
# 6 0.005487 0.005972 0.004244 0.004771 0.002608 0.030388
#
#
# Mechanical properties :
#
#
# Convention : Reuss Voigt Hill
#
# Bulk Modulus (GPa) = 19.77968 31.32662 25.55315
# Shear Modulus (GPa) = 36.84143 43.52683 40.18413
#
# Velocity S-wave (km/s) = 4.01454 4.36361 4.19271
# Velocity P-wave (km/s) = 5.49012 6.25237 5.88360
#
# Compressibility (1/GPa) = 0.05055694
#
# Stress axis : x y z
#
# Youngs Moduli (GPa) = 102.43459 55.34748 79.77207
#
# Poissons Ratio (x) = -0.12657 0.08621
# Poissons Ratio (y) = -0.23426 -0.31027
# Poissons Ratio (z) = 0.11071 -0.21527
#
# Static dielectric constant tensor:
#      x y z
#    x 1.912970 0.041000 -0.044940 
#    y 0.041000 1.908040 -0.006100 
#    z -0.044940 -0.006100 1.790740 
# 
# From -- ./inp_files/4148.got.cif
#   From: 2010.05.17/outbox.cif.g08.bks.cpg/sg1_3_cif.got.tgz:4148.got - 2010.05.17 20:27:59.
