data_PCOD9000124
_publ_section_title
;
Structure prediction by ZEFSAII (Michael W. Deem and Ramdas Pophale) SiO2 
 PCOD9000124
Probable space group: P 1
;
_chemical_formula_sum "Si O2"
_cell_formula_units_Z 8
_cell_length_a 7.586413
_cell_length_b 8.609636
_cell_length_c 9.845722
_cell_angle_alpha 151.690329
_cell_angle_beta 72.021056
_cell_angle_gamma 100.289469
_cell_volume 283.833340
_symmetry_space_group_name_H-M "P 1"
_symmetry_group_IT_number 1
_symmetry_cell_setting 'triclinic'
loop_
_space_group_symop_operation_xyz
x,y,z
loop_
_atom_site_type_symbol
_atom_site_label
_atom_site_fract_x
_atom_site_fract_y
_atom_site_fract_z
Si Si1 0.554100 0.409900 0.042860
Si Si2 0.352902 0.992176 0.051160
Si Si3 0.498285 0.873272 0.190551
Si Si4 0.640514 0.686507 0.510729
Si Si5 0.167147 0.724212 0.292574
Si Si6 0.020727 0.691335 0.019524
Si Si7 0.012488 0.561856 0.461182
Si Si8 0.821434 0.410313 0.635001
O O1 0.552694 0.506385 0.274121
O O2 0.344058 0.409068 0.034025
O O3 0.605305 0.721355 0.187993
O O4 0.675860 0.040698 0.715341
O O5 0.193110 0.284276 0.248795
O O6 0.221926 0.753442 0.964960
O O7 0.465685 0.103683 0.240617
O O8 0.495581 0.813414 0.765157
O O9 0.602464 0.536783 0.819087
O O10 0.291672 0.965530 0.381272
O O11 0.840198 0.467464 0.342865
O O12 0.035649 0.644355 0.141457
O O13 0.084724 0.805281 0.524313
O O14 0.873916 0.037883 0.279309
O O15 0.946730 0.409393 0.738278
O O16 0.902254 0.653559 0.699388
#
# Coordination Sequence:
#
# PCOD9000124 Si02
#       8
#     1   1   1   1   1   1   1   1
#     4  10  26  45  69 100 136 185 225 280 343 403
#     4  10  21  48  68 102 140 181 229 281 342 406
#     4   9  21  46  67 100 137 182 224 285 339 402
#     4  12  25  46  71 102 142 180 227 283 343 407
#     4   9  22  44  66 103 134 183 222 285 337 403
#     4  10  25  41  70  97 141 175 232 278 334 409
#     4  11  24  44  72 104 138 183 228 282 341 408
#     4  11  24  44  67 102 134 183 225 280 339 404
#
# _framework density 28.185555999999998
#
# number of rings (size 3 to 8) (size 9 to 14) (size 15 to 20)
#    0.750    1.000    2.500    0.000    5.250    3.000 
#    0.000    3.750    0.000    0.000    0.000    0.000 
#    0.000    0.000    0.000    0.000    0.000    0.000 
#
# Total GULP energy -44584.187611 kJ/mol
# GULP energy per Si atom -5573.023451 kJ/mol
# Density = 2.812140 g / cm^3
# Si number density = 28.185556 Si / 1000 Ang^3
#
#
#
# Elastic Constant Matrix: (Units=GPa)
#
#
# Indices 1 2 3 4 5 6 
#
# 1 87.1454 55.1611 33.6532 4.5379 -17.3870 -6.8301
# 2 55.1611 185.3030 61.3443 -26.1202 2.8208 -27.0625
# 3 33.6532 61.3443 87.3247 -3.9117 -5.3031 3.2530
# 4 4.5379 -26.1202 -3.9117 57.9345 -2.4458 -10.9527
# 5 -17.3870 2.8208 -5.3031 -2.4458 46.7649 -5.0557
# 6 -6.8301 -27.0625 3.2530 -10.9527 -5.0557 57.5611
#
#
#
# Elastic Compliance Matrix: (Units=1/GPa)
#
#
# Indices 1 2 3 4 5 6 
#
# 1 0.016957 -0.004611 -0.003076 -0.003377 0.006047 -0.000094
# 2 -0.004611 0.010172 -0.005449 0.005515 -0.002073 0.005411
# 3 -0.003076 -0.005449 0.016568 -0.001864 0.000515 -0.004173
# 4 -0.003377 0.005515 -0.001864 0.021078 -0.000016 0.006307
# 5 0.006047 -0.002073 0.000515 -0.000016 0.024011 0.001820
# 6 -0.000094 0.005411 -0.004173 0.006307 0.001820 0.021501
#
#
# Mechanical properties :
#
#
# Convention : Reuss Voigt Hill
#
# Bulk Modulus (GPa) = 57.39111 73.34338 65.36724
# Shear Modulus (GPa) = 35.12012 46.42640 40.77326
#
# Velocity S-wave (km/s) = 3.53375 4.06294 3.80755
# Velocity P-wave (km/s) = 6.08736 6.93455 6.52472
#
# Compressibility (1/GPa) = 0.01742430
#
# Stress axis : x y z
#
# Youngs Moduli (GPa) = 58.97352 98.30611 60.35653
#
# Poissons Ratio (x) = 0.45330 0.18566
# Poissons Ratio (y) = 0.27193 0.32890
# Poissons Ratio (z) = 0.18141 0.53569
#
# Static dielectric constant tensor:
#      x y z
#    x 2.371130 0.102850 0.035320 
#    y 0.102850 2.266510 0.030380 
#    z 0.035320 0.030380 2.109390 
# 
# From -- ./inp_files/4492.got.cif
#   From: 2010.05.17/outbox.cif.g08.bks.cpg/sg1_3_cif.got.tgz:4492.got - 2010.05.17 20:27:59.
