data_PCOD9000699
_publ_section_title
;
Structure prediction by ZEFSAII (Michael W. Deem and Ramdas Pophale) SiO2 
 PCOD9000699
Probable space group: P 1
;
_chemical_formula_sum "Si O2"
_cell_formula_units_Z 6
_cell_length_a 7.362160
_cell_length_b 6.810650
_cell_length_c 7.909167
_cell_angle_alpha 77.135556
_cell_angle_beta 117.737608
_cell_angle_gamma 57.283442
_cell_volume 227.701937
_symmetry_space_group_name_H-M "P 1"
_symmetry_group_IT_number 1
_symmetry_cell_setting 'triclinic'
loop_
_space_group_symop_operation_xyz
x,y,z
loop_
_atom_site_type_symbol
_atom_site_label
_atom_site_fract_x
_atom_site_fract_y
_atom_site_fract_z
Si Si1 0.542630 0.845750 0.030460
Si Si2 0.607603 0.674482 0.587968
Si Si3 0.387630 0.490775 0.964314
Si Si4 0.193666 0.280207 0.120263
Si Si5 0.051431 0.319510 0.521822
Si Si6 0.047121 0.885051 0.432018
O O1 0.452822 0.676948 0.994422
O O2 0.904734 0.582631 0.276141
O O3 0.357988 0.048660 0.077011
O O4 0.400297 0.082630 0.776140
O O5 0.828859 0.488308 0.557860
O O6 0.349412 0.690085 0.485539
O O7 0.396940 0.030289 0.404005
O O8 0.831617 0.503051 0.883078
O O9 0.247470 0.475174 0.066742
O O10 0.145101 0.662207 0.669204
O O11 0.716734 0.134969 0.148276
O O12 0.023149 0.116599 0.475269
#
# Coordination Sequence:
#
# PCOD9000699 Si02
#       6
#     1   1   1   1   1   1
#     4   8  16  30  50  70  98 134 168 204 254 304
#     4  10  19  33  55  78 104 139 175 214 262 311
#     4  10  19  33  55  78 104 139 175 214 262 311
#     4  10  19  33  55  78 104 139 175 214 262 311
#     4   8  16  30  50  70  98 134 168 204 254 304
#     4  10  19  33  55  78 104 139 175 214 262 311
#
# _framework density 26.350238000000001
#
# number of rings (size 3 to 8) (size 9 to 14) (size 15 to 20)
#    0.000    2.667    0.000    2.000    0.000    0.000 
#    0.000    0.000    0.000  108.000    0.000    0.000 
#    0.000    0.000    0.000    0.000    0.000    0.000 
#
# Total GULP energy -33487.862811 kJ/mol
# GULP energy per Si atom -5581.310468 kJ/mol
# Density = 2.629026 g / cm^3
# Si number density = 26.350238 Si / 1000 Ang^3
#
#
#
# Elastic Constant Matrix: (Units=GPa)
#
#
# Indices 1 2 3 4 5 6 
#
# 1 90.5064 14.3155 11.1743 -0.3566 -1.6777 -1.5946
# 2 14.3155 88.2572 17.5903 -18.1684 0.4093 0.5478
# 3 11.1743 17.5903 262.3777 -16.3349 1.5672 0.7247
# 4 -0.3566 -18.1684 -16.3349 36.5795 -1.3265 -0.5588
# 5 -1.6777 0.4093 1.5672 -1.3265 49.5477 -10.8541
# 6 -1.5946 0.5478 0.7247 -0.5588 -10.8541 32.3020
#
#
#
# Elastic Compliance Matrix: (Units=1/GPa)
#
#
# Indices 1 2 3 4 5 6 
#
# 1 0.011436 -0.001991 -0.000423 -0.001034 0.000560 0.000778
# 2 -0.001991 0.013024 -0.000397 0.006267 -0.000042 -0.000216
# 3 -0.000423 -0.000397 0.003954 0.001558 -0.000120 -0.000116
# 4 -0.001034 0.006267 0.001558 0.031176 0.000836 0.000628
# 5 0.000560 -0.000042 -0.000120 0.000836 0.021846 0.007386
# 6 0.000778 -0.000216 -0.000116 0.000628 0.007386 0.033495
#
#
# Mechanical properties :
#
#
# Convention : Reuss Voigt Hill
#
# Bulk Modulus (GPa) = 43.87688 58.58906 51.23297
# Shear Modulus (GPa) = 39.01606 50.22327 44.61966
#
# Velocity S-wave (km/s) = 3.85212 4.37050 4.11947
# Velocity P-wave (km/s) = 6.03926 6.91024 6.48938
#
# Compressibility (1/GPa) = 0.02279105
#
# Stress axis : x y z
#
# Youngs Moduli (GPa) = 87.44217 76.77935 252.90766
#
# Poissons Ratio (x) = 0.15286 0.10709
# Poissons Ratio (y) = 0.17409 0.10050
# Poissons Ratio (z) = 0.03703 0.03051
#
# Static dielectric constant tensor:
#      x y z
#    x 2.058520 0.006850 0.009210 
#    y 0.006850 2.116500 0.065540 
#    z 0.009210 0.065540 2.208340 
# 
# From -- ./inp_files/55.got.cif
#   From: 2010.05.17/outbox.cif.g08.bks.cpg/sg1_1_cif.got.tgz:55.got - 2010.05.17 20:27:59.
