data_PCOD9000013
_publ_section_title
;
Structure prediction by ZEFSAII (Michael W. Deem and Ramdas Pophale) SiO2 
 PCOD9000013
Probable space group: P 1
;
_chemical_formula_sum "Si O2"
_cell_formula_units_Z 8
_cell_length_a 12.634029
_cell_length_b 13.395087
_cell_length_c 10.186035
_cell_angle_alpha 33.332095
_cell_angle_beta 147.675105
_cell_angle_gamma 158.342382
_cell_volume 329.028571
_symmetry_space_group_name_H-M "P 1"
_symmetry_group_IT_number 1
_symmetry_cell_setting 'triclinic'
loop_
_space_group_symop_operation_xyz
x,y,z
loop_
_atom_site_type_symbol
_atom_site_label
_atom_site_fract_x
_atom_site_fract_y
_atom_site_fract_z
Si Si1 0.017360 0.044430 0.110750
Si Si2 0.611871 0.354152 0.265707
Si Si3 0.101452 0.594657 0.176533
Si Si4 0.272393 0.798488 0.411526
Si Si5 0.381296 0.903262 0.872143
Si Si6 0.721797 0.473005 0.694993
Si Si7 0.228432 0.381001 0.729368
Si Si8 0.398755 0.542086 0.141846
O O1 0.100902 0.261063 0.064817
O O2 0.351206 0.181521 0.294385
O O3 0.701710 0.734810 0.158473
O O4 0.987256 0.101405 0.869248
O O5 0.507222 0.435252 0.962330
O O6 0.967491 0.623715 0.368965
O O7 0.548669 0.115039 0.397129
O O8 0.182493 0.770278 0.196001
O O9 0.105244 0.391319 0.458777
O O10 0.352803 0.790975 0.110362
O O11 0.796686 0.452466 0.942051
O O12 0.319052 0.616335 0.656119
O O13 0.052297 0.772123 0.663994
O O14 0.635449 0.233570 0.784682
O O15 0.390677 0.745296 0.954101
O O16 0.474001 0.456032 0.434797
#
# Coordination Sequence:
#
# PCOD9000013 Si02
#       8
#     1   1   1   1   1   1   1   1
#     4  10  24  44  64  94 130 160 217 258 303 388
#     4  10  22  41  60  94 125 168 201 247 325 363
#     4   8  22  43  62  99 126 156 215 258 308 388
#     4  10  21  40  64  91 128 163 201 249 327 368
#     4  10  23  44  64  96 122 170 212 253 323 355
#     4  10  23  44  60  96 126 161 217 258 293 385
#     4   8  22  44  61  98 130 155 211 265 304 389
#     4  12  23  46  65  90 129 171 208 262 311 358
#
# _framework density 24.313997000000001
#
# number of rings (size 3 to 8) (size 9 to 14) (size 15 to 20)
#    2.250    0.000    0.000    2.250    1.750    3.000 
#   20.250    0.000    0.000    0.000    0.000    0.000 
#    0.000    0.000    0.000    0.000    0.000    0.000 
#
# Total GULP energy -44583.978659 kJ/mol
# GULP energy per Si atom -5572.997332 kJ/mol
# Density = 2.425866 g / cm^3
# Si number density = 24.313997 Si / 1000 Ang^3
#
#
#
# Elastic Constant Matrix: (Units=GPa)
#
#
# Indices 1 2 3 4 5 6 
#
# 1 46.2800 0.6756 -16.1972 3.4607 4.2286 3.5349
# 2 0.6756 113.4793 -1.0084 -1.6094 -3.2683 1.1377
# 3 -16.1972 -1.0084 75.6221 7.0031 -15.9268 9.0629
# 4 3.4607 -1.6094 7.0031 22.7153 -7.0343 6.0979
# 5 4.2286 -3.2683 -15.9268 -7.0343 37.9539 -5.7065
# 6 3.5349 1.1377 9.0629 6.0979 -5.7065 28.0162
#
#
#
# Elastic Compliance Matrix: (Units=1/GPa)
#
#
# Indices 1 2 3 4 5 6 
#
# 1 0.024519 -0.000176 0.005829 -0.004977 -0.001865 -0.004269
# 2 -0.000176 0.008863 0.000252 0.001006 0.001010 -0.000432
# 3 0.005829 0.000252 0.016340 -0.003204 0.004986 -0.004318
# 4 -0.004977 0.001006 -0.003204 0.050236 0.007435 -0.007796
# 5 -0.001865 0.001010 0.004986 0.007435 0.030593 0.003195
# 6 -0.004269 -0.000432 -0.004318 -0.007796 0.003195 0.039994
#
#
# Mechanical properties :
#
#
# Convention : Reuss Voigt Hill
#
# Bulk Modulus (GPa) = 16.25167 22.48014 19.36590
# Shear Modulus (GPa) = 27.89475 34.53118 31.21296
#
# Velocity S-wave (km/s) = 3.39081 3.77267 3.58683
# Velocity P-wave (km/s) = 4.69348 5.31443 5.01358
#
# Compressibility (1/GPa) = 0.06153214
#
# Stress axis : x y z
#
# Youngs Moduli (GPa) = 40.78505 112.82664 61.20009
#
# Poissons Ratio (x) = 0.01982 -0.35673
# Poissons Ratio (y) = 0.00716 -0.01542
# Poissons Ratio (z) = -0.23773 -0.02843
#
# Static dielectric constant tensor:
#      x y z
#    x 1.982320 0.003350 -0.028560 
#    y 0.003350 1.855380 0.021330 
#    z -0.028560 0.021330 2.014430 
# 
# From -- ./inp_files/6848.got.cif
#   From: 2010.05.17/outbox.cif.g08.bks.cpg/sg1_4_cif.got.tgz:6848.got - 2010.05.17 20:27:59.
