data_PCOD9000296
_publ_section_title
;
Structure prediction by ZEFSAII (Michael W. Deem and Ramdas Pophale) SiO2 
 PCOD9000296
Probable space group: P 1
;
_chemical_formula_sum "Si O2"
_cell_formula_units_Z 6
_cell_length_a 7.127304
_cell_length_b 4.933420
_cell_length_c 7.119907
_cell_angle_alpha 77.864700
_cell_angle_beta 118.027000
_cell_angle_gamma 100.586012
_cell_volume 215.003485
_symmetry_space_group_name_H-M "P 1"
_symmetry_group_IT_number 1
_symmetry_cell_setting 'triclinic'
loop_
_space_group_symop_operation_xyz
x,y,z
loop_
_atom_site_type_symbol
_atom_site_label
_atom_site_fract_x
_atom_site_fract_y
_atom_site_fract_z
Si Si1 0.891090 0.170760 0.907810
Si Si2 0.219720 0.374088 0.332736
Si Si3 0.839142 0.630287 0.551486
Si Si4 0.628744 0.691405 0.063663
Si Si5 0.470798 0.952288 0.302544
Si Si6 0.233396 0.345365 0.766722
O O1 0.765244 0.393181 0.704320
O O2 0.093330 0.137677 0.871194
O O3 0.762089 0.888825 0.952119
O O4 0.999056 0.311193 0.126216
O O5 0.303874 0.698399 0.332842
O O6 0.218068 0.254438 0.557944
O O7 0.388797 0.227021 0.306149
O O8 0.708519 0.893111 0.493248
O O9 0.091149 0.612447 0.677258
O O10 0.774395 0.570188 0.311820
O O11 0.467352 0.463143 0.922453
O O12 0.495073 0.891663 0.101334
#
# Coordination Sequence:
#
# PCOD9000296 Si02
#       6
#     1   1   1   1   1   1
#     4  10  23  52  89 122 173 226 293 351 437 513
#     4  12  26  52  88 126 179 223 291 365 436 520
#     4   8  22  52  81 124 168 218 299 334 436 515
#     4  10  22  54  90 120 176 222 294 354 435 510
#     4  10  25  51  84 126 173 225 286 359 433 516
#     4  10  24  53  86 122 171 226 291 353 435 514
#
# _framework density 27.906527000000001
#
# number of rings (size 3 to 8) (size 9 to 14) (size 15 to 20)
#    2.000    0.000    1.667    0.000    2.333    2.667 
#   15.000    6.667    0.000    0.000    0.000    0.000 
#    0.000    0.000    0.000    0.000    0.000    0.000 
#
# Total GULP energy -33614.586365 kJ/mol
# GULP energy per Si atom -5602.431061 kJ/mol
# Density = 2.784301 g / cm^3
# Si number density = 27.906527 Si / 1000 Ang^3
#
#
#
# Elastic Constant Matrix: (Units=GPa)
#
#
# Indices 1 2 3 4 5 6 
#
# 1 91.8973 18.0029 40.0970 -6.8239 -41.1372 15.7392
# 2 18.0029 75.9864 34.6110 -9.3059 -14.6394 5.2951
# 3 40.0970 34.6110 169.5457 8.1130 -32.1975 8.2882
# 4 -6.8239 -9.3059 8.1130 42.8133 -2.7143 -4.1724
# 5 -41.1372 -14.6394 -32.1975 -2.7143 73.9194 -9.0134
# 6 15.7392 5.2951 8.2882 -4.1724 -9.0134 51.4769
#
#
#
# Elastic Compliance Matrix: (Units=1/GPa)
#
#
# Indices 1 2 3 4 5 6 
#
# 1 0.016132 -0.000774 -0.002213 0.003021 0.007616 -0.002918
# 2 -0.000774 0.015419 -0.002851 0.003831 0.001483 -0.000320
# 3 -0.002213 -0.002851 0.007371 -0.002303 0.001309 -0.000174
# 4 0.003021 0.003831 -0.002303 0.025422 0.002561 0.001562
# 5 0.007616 0.001483 0.001309 0.002561 0.018823 0.000812
# 6 -0.002918 -0.000320 -0.000174 0.001562 0.000812 0.020648
#
#
# Mechanical properties :
#
#
# Convention : Reuss Voigt Hill
#
# Bulk Modulus (GPa) = 36.70053 58.09458 47.39756
# Shear Modulus (GPa) = 40.13718 49.95651 45.04685
#
# Velocity S-wave (km/s) = 3.79657 4.23559 4.02208
# Velocity P-wave (km/s) = 5.69196 6.69201 6.21214
#
# Compressibility (1/GPa) = 0.02724756
#
# Stress axis : x y z
#
# Youngs Moduli (GPa) = 61.98845 64.85384 135.67332
#
# Poissons Ratio (x) = 0.05017 0.30023
# Poissons Ratio (y) = 0.04795 0.38677
# Poissons Ratio (z) = 0.13717 0.18488
#
# Static dielectric constant tensor:
#      x y z
#    x 2.173860 -0.030580 0.047750 
#    y -0.030580 2.088610 0.002000 
#    z 0.047750 0.002000 2.243560 
# 
# From -- ./inp_files/3333.got.cif
#   From: 2010.05.17/outbox.cif.g08.bks.cpg/sg1_2_cif.got.tgz:3333.got - 2010.05.17 20:27:59.
