data_PCOD9000679
_publ_section_title
;
Structure prediction by ZEFSAII (Michael W. Deem and Ramdas Pophale) SiO2 
 PCOD9000679
Probable space group: P 1
;
_chemical_formula_sum "Si O2"
_cell_formula_units_Z 8
_cell_length_a 5.086553
_cell_length_b 10.614426
_cell_length_c 13.030892
_cell_angle_alpha 148.401967
_cell_angle_beta 115.592482
_cell_angle_gamma 70.316766
_cell_volume 331.741519
_symmetry_space_group_name_H-M "P 1"
_symmetry_group_IT_number 1
_symmetry_cell_setting 'triclinic'
loop_
_space_group_symop_operation_xyz
x,y,z
loop_
_atom_site_type_symbol
_atom_site_label
_atom_site_fract_x
_atom_site_fract_y
_atom_site_fract_z
Si Si1 0.319640 0.276370 0.745140
Si Si2 0.463028 0.792764 0.329215
Si Si3 0.854991 0.583146 0.090566
Si Si4 0.173365 0.370157 0.454941
Si Si5 0.173899 0.127335 0.847762
Si Si6 0.557359 0.797767 0.767254
Si Si7 0.819759 0.379687 0.595535
Si Si8 0.757754 0.641645 0.465867
O O1 0.296598 0.198715 0.805789
O O2 0.996866 0.327034 0.689232
O O3 0.432969 0.058291 0.548223
O O4 0.562549 0.494326 0.919463
O O5 0.731511 0.759730 0.276451
O O6 0.524736 0.631525 0.328232
O O7 0.144588 0.702093 0.169082
O O8 0.969222 0.338804 0.990409
O O9 0.285971 0.652928 0.677859
O O10 0.491214 0.266831 0.440712
O O11 0.002669 0.285574 0.466910
O O12 0.945625 0.405673 0.348922
O O13 0.448495 0.061220 0.917804
O O14 0.968432 0.878727 0.636168
O O15 0.810773 0.672483 0.784259
O O16 0.607249 0.696424 0.588738
#
# Coordination Sequence:
#
# PCOD9000679 Si02
#       8
#     1   1   1   1   1   1   1   1
#     4  12  25  43  69  97 136 175 217 272 328 386
#     4  12  26  40  65 100 133 174 213 273 335 381
#     4  12  27  40  60 104 134 168 223 270 319 401
#     4   8  18  32  57  96 118 160 224 253 308 401
#     4  11  19  40  67  96 133 165 215 275 322 376
#     4   8  17  35  61  98 121 166 219 265 311 400
#     4   9  20  34  61  95 120 172 221 250 330 393
#     4  10  18  36  68  92 131 166 212 266 329 374
#
# _framework density 24.115162999999999
#
# number of rings (size 3 to 8) (size 9 to 14) (size 15 to 20)
#    0.750    1.000    3.750    0.750    3.500    0.000 
#    0.000    0.000    0.000    6.000    3.250    0.000 
#    0.000    0.000    0.000    0.000    0.000    0.000 
#
# Total GULP energy -44551.369930 kJ/mol
# GULP energy per Si atom -5568.921241 kJ/mol
# Density = 2.406028 g / cm^3
# Si number density = 24.115163 Si / 1000 Ang^3
#
#
#
# Elastic Constant Matrix: (Units=GPa)
#
#
# Indices 1 2 3 4 5 6 
#
# 1 152.6854 17.1779 19.3271 -1.4778 4.3428 -18.6916
# 2 17.1779 86.8620 4.9932 -0.5479 0.5626 -36.4540
# 3 19.3271 4.9932 51.4453 -1.9945 4.3747 -8.0177
# 4 -1.4778 -0.5479 -1.9945 11.6551 -13.4395 3.3427
# 5 4.3428 0.5626 4.3747 -13.4395 35.4164 5.3074
# 6 -18.6916 -36.4540 -8.0177 3.3427 5.3074 31.4573
#
#
#
# Elastic Compliance Matrix: (Units=1/GPa)
#
#
# Indices 1 2 3 4 5 6 
#
# 1 0.007539 0.001685 -0.001733 -0.006212 -0.004197 0.007359
# 2 0.001685 0.028252 0.003477 -0.032206 -0.019501 0.041339
# 3 -0.001733 0.003477 0.021680 -0.007204 -0.006819 0.010442
# 4 -0.006212 -0.032206 -0.007204 0.218063 0.097265 -0.082431
# 5 -0.004197 -0.019501 -0.006819 0.097265 0.074259 -0.049695
# 6 0.007359 0.041339 0.010442 -0.082431 -0.049695 0.103872
#
#
# Mechanical properties :
#
#
# Convention : Reuss Voigt Hill
#
# Bulk Modulus (GPa) = 15.54503 41.55434 28.54968
# Shear Modulus (GPa) = 10.67808 32.33871 21.50839
#
# Velocity S-wave (km/s) = 2.10655 3.66596 2.98971
# Velocity P-wave (km/s) = 3.51808 5.93195 4.87673
#
# Compressibility (1/GPa) = 0.06432926
#
# Stress axis : x y z
#
# Youngs Moduli (GPa) = 132.63777 35.39616 46.12635
#
# Poissons Ratio (x) = -0.05964 0.07994
# Poissons Ratio (y) = -0.22350 -0.16040
# Poissons Ratio (z) = 0.22986 -0.12308
#
# Static dielectric constant tensor:
#      x y z
#    x 1.951510 -0.066530 0.017580 
#    y -0.066530 2.026530 -0.015640 
#    z 0.017580 -0.015640 1.961790 
# 
# From -- ./inp_files/7029.got.cif
#   From: 2010.05.17/outbox.cif.g08.bks.cpg/sg1_4_cif.got.tgz:7029.got - 2010.05.17 20:27:59.
