data_PCOD9000737
_publ_section_title
;
Structure prediction by ZEFSAII (Michael W. Deem and Ramdas Pophale) SiO2 
 PCOD9000737
Probable space group: P 1
;
_chemical_formula_sum "Si O2"
_cell_formula_units_Z 8
_cell_length_a 6.875595
_cell_length_b 10.021222
_cell_length_c 10.741604
_cell_angle_alpha 140.087106
_cell_angle_beta 43.522723
_cell_angle_gamma 132.260087
_cell_volume 315.481813
_symmetry_space_group_name_H-M "P 1"
_symmetry_group_IT_number 1
_symmetry_cell_setting 'triclinic'
loop_
_space_group_symop_operation_xyz
x,y,z
loop_
_atom_site_type_symbol
_atom_site_label
_atom_site_fract_x
_atom_site_fract_y
_atom_site_fract_z
Si Si1 0.800780 0.489260 0.022190
Si Si2 0.238368 0.790669 0.879767
Si Si3 0.333104 0.372138 0.939987
Si Si4 0.421044 0.932191 0.544697
Si Si5 0.818292 0.019644 0.670850
Si Si6 0.919889 0.140930 0.175335
Si Si7 0.224262 0.514242 0.457532
Si Si8 0.362364 0.834990 0.235759
O O1 0.621763 0.437517 0.938615
O O2 0.546532 0.498983 0.248119
O O3 0.908010 0.274152 0.839485
O O4 0.058886 0.702857 0.024553
O O5 0.222515 0.583597 0.650294
O O6 0.582291 0.909282 0.806512
O O7 0.094708 0.961685 0.997725
O O8 0.322192 0.592167 0.037604
O O9 0.074708 0.299669 0.107985
O O10 0.333194 0.151075 0.715094
O O11 0.641308 0.982098 0.594253
O O12 0.175891 0.721002 0.552735
O O13 0.522587 0.857321 0.314019
O O14 0.066688 0.898224 0.446811
O O15 0.979913 0.299590 0.380646
O O16 0.597744 0.022858 0.193450
#
# Coordination Sequence:
#
# PCOD9000737 Si02
#       8
#     1   1   1   1   1   1   1   1
#     4  10  19  40  63  94 129 168 215 270 315 396
#     4  11  20  39  69  89 129 182 209 265 340 378
#     4  10  20  39  62  93 131 160 220 267 313 396
#     4  10  20  43  66  84 129 176 204 267 329 378
#     4  10  24  42  62  99 134 158 227 276 308 398
#     4  11  20  36  66  95 126 172 215 264 325 395
#     4  10  19  37  68  96 122 169 226 255 323 397
#     4  12  24  40  68  96 128 173 212 274 333 372
#
# _framework density 25.358039000000002
#
# number of rings (size 3 to 8) (size 9 to 14) (size 15 to 20)
#    0.000    1.500    8.750    0.000    3.500    1.000 
#    4.500    0.000    8.250    0.000    0.000    0.000 
#    0.000    0.000    0.000    0.000    0.000    0.000 
#
# Total GULP energy -44711.203620 kJ/mol
# GULP energy per Si atom -5588.900452 kJ/mol
# Density = 2.530032 g / cm^3
# Si number density = 25.358039 Si / 1000 Ang^3
#
#
#
# Elastic Constant Matrix: (Units=GPa)
#
#
# Indices 1 2 3 4 5 6 
#
# 1 59.8372 19.8358 27.3662 9.9314 -4.5145 -2.7190
# 2 19.8358 154.2845 46.7030 9.0233 -25.0833 29.1708
# 3 27.3662 46.7030 129.6879 35.1408 -13.1466 18.1950
# 4 9.9314 9.0233 35.1408 55.1692 12.0515 9.5840
# 5 -4.5145 -25.0833 -13.1466 12.0515 44.9776 -2.6680
# 6 -2.7190 29.1708 18.1950 9.5840 -2.6680 22.7888
#
#
#
# Elastic Compliance Matrix: (Units=1/GPa)
#
#
# Indices 1 2 3 4 5 6 
#
# 1 0.020581 -0.003310 -0.003926 -0.002670 0.000440 0.011002
# 2 -0.003310 0.010199 -0.001044 0.000876 0.004074 -0.012508
# 3 -0.003926 -0.001044 0.011856 -0.006604 0.003941 -0.005360
# 4 -0.002670 0.000876 -0.006604 0.026107 -0.009193 -0.008222
# 5 0.000440 0.004074 0.003941 -0.009193 0.028096 -0.001153
# 6 0.011002 -0.012508 -0.005360 -0.008222 -0.001153 0.068807
#
#
# Mechanical properties :
#
#
# Convention : Reuss Voigt Hill
#
# Bulk Modulus (GPa) = 38.34908 59.06885 48.70896
# Shear Modulus (GPa) = 26.19189 41.24743 33.71966
#
# Velocity S-wave (km/s) = 3.21734 4.03749 3.65052
# Velocity P-wave (km/s) = 5.38122 6.71413 6.08429
#
# Compressibility (1/GPa) = 0.02607625
#
# Stress axis : x y z
#
# Youngs Moduli (GPa) = 48.58786 98.04763 84.34398
#
# Poissons Ratio (x) = 0.32453 0.33117
# Poissons Ratio (y) = 0.16082 0.08804
# Poissons Ratio (z) = 0.19078 0.10235
#
# Static dielectric constant tensor:
#      x y z
#    x 2.081070 0.010870 0.004270 
#    y 0.010870 2.085990 -0.032820 
#    z 0.004270 -0.032820 2.008990 
# 
# From -- ./inp_files/4057.got.cif
#   From: 2010.05.17/outbox.cif.g08.bks.cpg/sg1_3_cif.got.tgz:4057.got - 2010.05.17 20:27:59.
