data_PCOD9000579
_publ_section_title
;
Structure prediction by ZEFSAII (Michael W. Deem and Ramdas Pophale) SiO2 
 PCOD9000579
Probable space group: P 1
;
_chemical_formula_sum "Si O2"
_cell_formula_units_Z 8
_cell_length_a 5.837538
_cell_length_b 7.901576
_cell_length_c 10.939484
_cell_angle_alpha 140.502016
_cell_angle_beta 70.886382
_cell_angle_gamma 106.594304
_cell_volume 302.797434
_symmetry_space_group_name_H-M "P 1"
_symmetry_group_IT_number 1
_symmetry_cell_setting 'triclinic'
loop_
_space_group_symop_operation_xyz
x,y,z
loop_
_atom_site_type_symbol
_atom_site_label
_atom_site_fract_x
_atom_site_fract_y
_atom_site_fract_z
Si Si1 0.007530 0.571910 0.311310
Si Si2 0.967078 0.767561 0.814593
Si Si3 0.457241 0.460821 0.007638
Si Si4 0.772985 0.850272 0.298807
Si Si5 0.124020 0.118520 0.200457
Si Si6 0.519113 0.347186 0.684813
Si Si7 0.410950 0.469056 0.497468
Si Si8 0.793825 0.972421 0.720101
O O1 0.957634 0.339420 0.290235
O O2 0.840188 0.618177 0.249243
O O3 0.012349 0.866773 0.538589
O O4 0.257592 0.479591 0.157510
O O5 0.739965 0.572034 0.781402
O O6 0.877898 0.978264 0.849425
O O7 0.151910 0.598129 0.612633
O O8 0.115435 0.893061 0.972787
O O9 0.347973 0.413759 0.865096
O O10 0.646129 0.229327 0.861220
O O11 0.612096 0.736185 0.151834
O O12 0.629391 0.060991 0.517575
O O13 0.004496 0.998192 0.277609
O O14 0.381525 0.254556 0.274264
O O15 0.427981 0.353815 0.566281
O O16 0.606919 0.713840 0.589621
#
# Coordination Sequence:
#
# PCOD9000579 Si02
#       8
#     1   1   1   1   1   1   1   1
#     4  12  28  50  78 116 156 208 257 323 390 461
#     4  11  23  48  78 111 154 207 256 322 388 464
#     4  12  28  50  79 116 154 210 258 325 391 461
#     4  12  27  50  79 115 157 206 261 330 384 464
#     4  12  25  49  79 112 158 205 259 319 395 461
#     4  11  25  47  75 112 160 201 262 319 386 467
#     4  11  25  45  79 114 150 213 252 325 397 455
#     4  11  25  53  79 112 159 200 267 325 385 467
#
# _framework density 26.420304000000002
#
# number of rings (size 3 to 8) (size 9 to 14) (size 15 to 20)
#    0.000    0.500    5.000    2.250    5.250    0.000 
#   11.250    0.000    0.000    0.000    0.000    0.000 
#    0.000    0.000    0.000    0.000    0.000    0.000 
#
# Total GULP energy -44792.859018 kJ/mol
# GULP energy per Si atom -5599.107377 kJ/mol
# Density = 2.636017 g / cm^3
# Si number density = 26.420304 Si / 1000 Ang^3
#
#
#
# Elastic Constant Matrix: (Units=GPa)
#
#
# Indices 1 2 3 4 5 6 
#
# 1 53.1627 27.2547 44.0104 -9.7081 17.4267 -11.7976
# 2 27.2547 88.2215 34.0276 -5.0756 2.1132 -20.6702
# 3 44.0104 34.0276 173.3559 -15.3523 15.5740 -8.6735
# 4 -9.7081 -5.0756 -15.3523 39.4605 -6.6301 -0.3469
# 5 17.4267 2.1132 15.5740 -6.6301 63.3870 -2.5141
# 6 -11.7976 -20.6702 -8.6735 -0.3469 -2.5141 38.3231
#
#
#
# Elastic Compliance Matrix: (Units=1/GPa)
#
#
# Indices 1 2 3 4 5 6 
#
# 1 0.029856 -0.005750 -0.005361 0.003526 -0.006152 0.004505
# 2 -0.005750 0.015037 -0.001304 0.000349 0.001681 0.006159
# 3 -0.005361 -0.001304 0.007494 0.001389 -0.000205 -0.000658
# 4 0.003526 0.000349 0.001389 0.027078 0.001587 0.001937
# 5 -0.006152 0.001681 -0.000205 0.001587 0.017633 0.000137
# 6 0.004505 0.006159 -0.000658 0.001937 0.000137 0.030680
#
#
# Mechanical properties :
#
#
# Convention : Reuss Voigt Hill
#
# Bulk Modulus (GPa) = 36.28751 58.36949 47.32850
# Shear Modulus (GPa) = 30.90361 42.19730 36.55046
#
# Velocity S-wave (km/s) = 3.42379 4.00078 3.72347
# Velocity P-wave (km/s) = 5.42165 6.59411 6.03641
#
# Compressibility (1/GPa) = 0.02755769
#
# Stress axis : x y z
#
# Youngs Moduli (GPa) = 33.49409 66.50164 133.44441
#
# Poissons Ratio (x) = 0.38240 0.71534
# Poissons Ratio (y) = 0.19260 0.17398
# Poissons Ratio (z) = 0.17955 0.08670
#
# Static dielectric constant tensor:
#      x y z
#    x 2.102160 0.037560 -0.051540 
#    y 0.037560 2.143060 -0.040530 
#    z -0.051540 -0.040530 2.062280 
# 
# From -- ./inp_files/5146.got.cif
#   From: 2010.05.17/outbox.cif.g08.bks.cpg/sg1_3_cif.got.tgz:5146.got - 2010.05.17 20:27:59.
