data_PCOD9000391
_publ_section_title
;
Structure prediction by ZEFSAII (Michael W. Deem and Ramdas Pophale) SiO2 
 PCOD9000391
Probable space group: P 1
;
_chemical_formula_sum "Si O2"
_cell_formula_units_Z 6
_cell_length_a 7.988286
_cell_length_b 5.306717
_cell_length_c 11.896811
_cell_angle_alpha 99.803638
_cell_angle_beta 29.879486
_cell_angle_gamma 97.586225
_cell_volume 247.448799
_symmetry_space_group_name_H-M "P 1"
_symmetry_group_IT_number 1
_symmetry_cell_setting 'triclinic'
loop_
_space_group_symop_operation_xyz
x,y,z
loop_
_atom_site_type_symbol
_atom_site_label
_atom_site_fract_x
_atom_site_fract_y
_atom_site_fract_z
Si Si1 0.052060 0.400870 0.676190
Si Si2 0.121485 0.127977 0.099157
Si Si3 0.233714 0.986824 0.387561
Si Si4 0.462248 0.793790 0.474847
Si Si5 0.343052 0.680572 0.088711
Si Si6 0.013727 0.091657 0.905711
O O1 0.018956 0.237816 0.567791
O O2 0.444148 0.489459 0.453135
O O3 0.042679 0.260729 0.790602
O O4 0.725290 0.589323 0.884494
O O5 0.165157 0.411347 0.145826
O O6 0.361355 0.908428 0.002260
O O7 0.155048 0.169995 0.949507
O O8 0.778144 0.969883 0.304532
O O9 0.258989 0.848423 0.482111
O O10 0.149219 0.814184 0.317638
O O11 0.619906 0.050729 0.143004
O O12 0.243258 0.847476 0.717027
#
# Coordination Sequence:
#
# PCOD9000391 Si02
#       6
#     1   1   1   1   1   1
#     4  11  25  45  85 104 139 199 263 287 359 443
#     4  11  29  46  74 109 159 188 235 310 381 422
#     4  10  24  45  77 104 145 193 253 299 354 441
#     4  10  24  46  76 108 136 204 252 290 357 451
#     4  12  27  50  72 114 153 188 237 315 373 422
#     4  10  23  48  74 109 140 200 246 301 352 449
#
# _framework density 24.247440000000001
#
# number of rings (size 3 to 8) (size 9 to 14) (size 15 to 20)
#    0.000    1.333    1.667    1.000   16.333    1.333 
#    0.000    0.000    0.000    0.000    0.000    0.000 
#    0.000    0.000    0.000    0.000    0.000    0.000 
#
# Total GULP energy -33412.610667 kJ/mol
# GULP energy per Si atom -5568.768444 kJ/mol
# Density = 2.419225 g / cm^3
# Si number density = 24.247440 Si / 1000 Ang^3
#
#
#
# Elastic Constant Matrix: (Units=GPa)
#
#
# Indices 1 2 3 4 5 6 
#
# 1 119.7679 68.3136 32.8806 14.5918 22.3240 18.6565
# 2 68.3136 139.4607 45.0879 7.5909 18.7488 29.6511
# 3 32.8806 45.0879 88.9105 7.0326 23.8723 19.8494
# 4 14.5918 7.5909 7.0326 43.7695 8.7137 -8.1255
# 5 22.3240 18.7488 23.8723 8.7137 33.8757 4.1275
# 6 18.6565 29.6511 19.8494 -8.1255 4.1275 41.4490
#
#
#
# Elastic Compliance Matrix: (Units=1/GPa)
#
#
# Indices 1 2 3 4 5 6 
#
# 1 0.012771 -0.004935 -0.000306 -0.002870 -0.004464 -0.002190
# 2 -0.004935 0.011626 -0.002818 -0.000735 -0.000416 -0.004849
# 3 -0.000306 -0.002818 0.016393 -0.001217 -0.008863 -0.005053
# 4 -0.002870 -0.000735 -0.001217 0.026552 -0.004657 0.008070
# 5 -0.004464 -0.000416 -0.008863 -0.004657 0.039933 0.001662
# 6 -0.002190 -0.004849 -0.005053 0.008070 0.001662 0.032416
#
#
# Mechanical properties :
#
#
# Convention : Reuss Voigt Hill
#
# Bulk Modulus (GPa) = 40.53117 71.18926 55.86021
# Shear Modulus (GPa) = 30.48146 37.27599 33.87872
#
# Velocity S-wave (km/s) = 3.54941 3.92512 3.74198
# Velocity P-wave (km/s) = 5.79221 7.06861 6.46200
#
# Compressibility (1/GPa) = 0.02467237
#
# Stress axis : x y z
#
# Youngs Moduli (GPa) = 78.30100 86.01531 61.00009
#
# Poissons Ratio (x) = 0.42449 0.01866
# Poissons Ratio (y) = 0.38642 0.17191
# Poissons Ratio (z) = 0.02395 0.24241
#
# Static dielectric constant tensor:
#      x y z
#    x 1.981900 0.023070 -0.057060 
#    y 0.023070 2.224350 0.002740 
#    z -0.057060 0.002740 1.928030 
# 
# From -- ./inp_files/73.got.cif
#   From: 2010.05.17/outbox.cif.g08.bks.cpg/sg1_1_cif.got.tgz:73.got - 2010.05.17 20:27:59.
