data_PCOD9000090
_publ_section_title
;
Structure prediction by ZEFSAII (Michael W. Deem and Ramdas Pophale) SiO2 
 PCOD9000090
Probable space group: P 1
;
_chemical_formula_sum "Si O2"
_cell_formula_units_Z 8
_cell_length_a 7.255940
_cell_length_b 8.100831
_cell_length_c 9.849712
_cell_angle_alpha 55.866114
_cell_angle_beta 98.986785
_cell_angle_gamma 130.397401
_cell_volume 344.628881
_symmetry_space_group_name_H-M "P 1"
_symmetry_group_IT_number 1
_symmetry_cell_setting 'triclinic'
loop_
_space_group_symop_operation_xyz
x,y,z
loop_
_atom_site_type_symbol
_atom_site_label
_atom_site_fract_x
_atom_site_fract_y
_atom_site_fract_z
Si Si1 0.258660 0.775930 0.253630
Si Si2 0.395478 0.969871 0.628780
Si Si3 0.090763 0.702659 0.976032
Si Si4 0.019022 0.836504 0.451780
Si Si5 0.708754 0.605583 0.768531
Si Si6 0.855056 0.120413 0.159557
Si Si7 0.938251 0.203015 0.564553
Si Si8 0.155760 0.357377 0.817799
O O1 0.156556 0.800491 0.092296
O O2 0.161005 0.475934 0.384081
O O3 0.130801 0.788463 0.362968
O O4 0.565384 0.987796 0.199510
O O5 0.263192 0.037488 0.488120
O O6 0.694623 0.171446 0.549487
O O7 0.315955 0.931980 0.793515
O O8 0.264664 0.662677 0.710193
O O9 0.840097 0.605910 0.915725
O O10 0.045634 0.432329 0.089738
O O11 0.902128 0.950999 0.323047
O O12 0.808161 0.585839 0.646706
O O13 0.406890 0.404548 0.840756
O O14 0.828010 0.915139 0.631893
O O15 0.940594 0.155937 0.997288
O O16 0.039125 0.246723 0.707619
#
# Coordination Sequence:
#
# PCOD9000090 Si02
#       8
#     1   1   1   1   1   1   1   1
#     4  12  26  43  68 101 139 172 224 272 335 397
#     4   9  21  44  66  94 134 176 222 269 331 387
#     4  10  24  46  65  98 135 177 223 277 324 398
#     4  11  24  45  65 100 136 176 218 273 335 392
#     4  10  24  44  72  97 133 177 226 271 336 388
#     4  11  26  44  68  97 141 175 217 279 334 390
#     4  11  22  41  71  98 135 172 225 277 323 403
#     4  10  21  43  71  99 129 177 223 274 326 395
#
# _framework density 23.213377000000001
#
# number of rings (size 3 to 8) (size 9 to 14) (size 15 to 20)
#    0.000    1.500    1.250    2.250    7.000    0.000 
#   11.250    0.000    0.000    0.000    0.000    0.000 
#    0.000    0.000    0.000    0.000    0.000    0.000 
#
# Total GULP energy -44749.262234 kJ/mol
# GULP energy per Si atom -5593.657779 kJ/mol
# Density = 2.316054 g / cm^3
# Si number density = 23.213377 Si / 1000 Ang^3
#
#
#
# Elastic Constant Matrix: (Units=GPa)
#
#
# Indices 1 2 3 4 5 6 
#
# 1 125.8719 24.5348 40.2068 14.5317 -1.4936 15.8975
# 2 24.5348 63.8768 46.8634 -2.1742 -11.5928 4.7044
# 3 40.2068 46.8634 130.1250 34.3295 -0.8389 -4.1638
# 4 14.5317 -2.1742 34.3295 39.9070 -2.8467 -2.0152
# 5 -1.4936 -11.5928 -0.8389 -2.8467 38.4662 6.9725
# 6 15.8975 4.7044 -4.1638 -2.0152 6.9725 23.6126
#
#
#
# Elastic Compliance Matrix: (Units=1/GPa)
#
#
# Indices 1 2 3 4 5 6 
#
# 1 0.010167 -0.001627 -0.002208 -0.002192 0.001036 -0.007403
# 2 -0.001627 0.030428 -0.014715 0.015251 0.011675 -0.009707
# 3 -0.002208 -0.014715 0.017986 -0.015536 -0.006776 0.008264
# 4 -0.002192 0.015251 -0.015536 0.040445 0.007734 -0.003134
# 5 0.001036 0.011675 -0.006776 0.007734 0.032357 -0.013113
# 6 -0.007403 -0.009707 0.008264 -0.003134 -0.013113 0.054331
#
#
# Mechanical properties :
#
#
# Convention : Reuss Voigt Hill
#
# Bulk Modulus (GPa) = 46.54825 60.34262 53.44544
# Shear Modulus (GPa) = 21.74167 34.28174 28.01170
#
# Velocity S-wave (km/s) = 3.06371 3.84710 3.47753
# Velocity P-wave (km/s) = 5.71060 6.76644 6.26082
#
# Compressibility (1/GPa) = 0.02148308
#
# Stress axis : x y z
#
# Youngs Moduli (GPa) = 98.35512 32.86425 55.59952
#
# Poissons Ratio (x) = 0.05347 0.12274
# Poissons Ratio (y) = 0.16002 0.81812
# Poissons Ratio (z) = 0.21713 0.48358
#
# Static dielectric constant tensor:
#      x y z
#    x 1.905330 -0.056540 0.008460 
#    y -0.056540 1.849630 0.002880 
#    z 0.008460 0.002880 1.866140 
# 
# From -- ./inp_files/1902.got.cif
#   From: 2010.05.17/outbox.cif.g08.bks.cpg/sg1_1_cif.got.tgz:1902.got - 2010.05.17 20:27:59.
