data_PCOD9000510
_publ_section_title
;
Structure prediction by ZEFSAII (Michael W. Deem and Ramdas Pophale) SiO2 
 PCOD9000510
Probable space group: P 1
;
_chemical_formula_sum "Si O2"
_cell_formula_units_Z 8
_cell_length_a 9.676009
_cell_length_b 6.935284
_cell_length_c 5.093727
_cell_angle_alpha 81.695598
_cell_angle_beta 90.719962
_cell_angle_gamma 88.685086
_cell_volume 338.102272
_symmetry_space_group_name_H-M "P 1"
_symmetry_group_IT_number 1
_symmetry_cell_setting 'triclinic'
loop_
_space_group_symop_operation_xyz
x,y,z
loop_
_atom_site_type_symbol
_atom_site_label
_atom_site_fract_x
_atom_site_fract_y
_atom_site_fract_z
Si Si1 0.010180 0.478730 0.675240
Si Si2 0.278355 0.627902 0.472121
Si Si3 0.257865 0.386392 0.013601
Si Si4 0.405754 0.987804 0.166828
Si Si5 0.839788 0.165960 0.556494
Si Si6 0.596444 0.700053 0.934871
Si Si7 0.769778 0.755143 0.451676
Si Si8 0.661064 0.256818 0.057794
O O1 0.112049 0.620613 0.496025
O O2 0.093544 0.436969 0.954622
O O3 0.984408 0.264426 0.602711
O O4 0.861163 0.580682 0.619016
O O5 0.322444 0.502229 0.749274
O O6 0.543965 0.112612 0.188987
O O7 0.309744 0.486191 0.257206
O O8 0.296016 0.157907 0.049527
O O9 0.464440 0.829899 0.990894
O O10 0.335188 0.842684 0.399879
O O11 0.767657 0.280035 0.292418
O O12 0.850329 0.949678 0.483265
O O13 0.741867 0.180295 0.812936
O O14 0.716009 0.739309 0.154752
O O15 0.636409 0.765501 0.632535
O O16 0.592721 0.467614 0.970659
#
# Coordination Sequence:
#
# PCOD9000510 Si02
#       8
#     1   1   1   1   1   1   1   1
#     4  10  26  48  74 102 154 184 254 300 366 438
#     4  10  27  48  72 109 143 206 239 308 358 435
#     4  10  27  48  72 109 143 206 239 308 358 435
#     4  12  26  50  76 108 154 190 260 288 382 444
#     4  12  24  44  72 107 142 188 237 301 369 434
#     4  12  25  44  72 108 144 188 236 305 366 434
#     4  12  24  44  72 107 142 188 237 301 369 434
#     4  12  25  44  72 108 144 188 236 305 366 434
#
# _framework density 23.661483
#
# number of rings (size 3 to 8) (size 9 to 14) (size 15 to 20)
#    0.750    0.000    5.000    0.750    3.500    9.000 
#    0.000    0.000    0.000    0.000    0.000    0.000 
#    0.000    0.000    0.000    0.000    0.000    0.000 
#
# Total GULP energy -44629.083098 kJ/mol
# GULP energy per Si atom -5578.635387 kJ/mol
# Density = 2.360763 g / cm^3
# Si number density = 23.661483 Si / 1000 Ang^3
#
#
#
# Elastic Constant Matrix: (Units=GPa)
#
#
# Indices 1 2 3 4 5 6 
#
# 1 72.3555 22.4591 19.2050 -0.1906 3.1996 9.0324
# 2 22.4591 152.8354 26.8998 -17.0925 3.3024 12.8614
# 3 19.2050 26.8998 123.1414 0.0053 10.9835 2.0290
# 4 -0.1906 -17.0925 0.0053 33.8325 6.0371 -0.1498
# 5 3.1996 3.3024 10.9835 6.0371 32.9330 -5.6101
# 6 9.0324 12.8614 2.0290 -0.1498 -5.6101 53.1290
#
#
#
# Elastic Compliance Matrix: (Units=1/GPa)
#
#
# Indices 1 2 3 4 5 6 
#
# 1 0.015176 -0.001772 -0.001861 -0.000654 -0.000928 -0.002180
# 2 -0.001772 0.007640 -0.001260 0.004056 -0.001192 -0.001615
# 3 -0.001861 -0.001260 0.008921 -0.000178 -0.002635 0.000002
# 4 -0.000654 0.004056 -0.000178 0.032763 -0.006539 -0.001462
# 5 -0.000928 -0.001192 -0.002635 -0.006539 0.033342 0.004049
# 6 -0.002180 -0.001615 0.000002 -0.001462 0.004049 0.020007
#
#
# Mechanical properties :
#
#
# Convention : Reuss Voigt Hill
#
# Bulk Modulus (GPa) = 45.55492 53.94001 49.74746
# Shear Modulus (GPa) = 37.05001 42.63013 39.84007
#
# Velocity S-wave (km/s) = 3.96136 4.24921 4.10781
# Velocity P-wave (km/s) = 6.34174 6.84985 6.60069
#
# Compressibility (1/GPa) = 0.02195153
#
# Stress axis : x y z
#
# Youngs Moduli (GPa) = 65.89309 130.88372 112.09227
#
# Poissons Ratio (x) = 0.23195 0.20861
# Poissons Ratio (y) = 0.11678 0.14122
# Poissons Ratio (z) = 0.12263 0.16489
#
# Static dielectric constant tensor:
#      x y z
#    x 1.988830 -0.010330 -0.019770 
#    y -0.010330 1.948930 -0.005930 
#    z -0.019770 -0.005930 1.902890 
# 
# From -- ./inp_files/2007.got.cif
#   From: 2010.05.17/outbox.cif.g08.bks.cpg/sg1_2_cif.got.tgz:2007.got - 2010.05.17 20:27:59.
