data_PCOD9000958
_publ_section_title
;
Structure prediction by ZEFSAII (Michael W. Deem and Ramdas Pophale) SiO2 
 PCOD9000958
Probable space group: P 1
;
_chemical_formula_sum "Si O2"
_cell_formula_units_Z 6
_cell_length_a 9.312083
_cell_length_b 5.097299
_cell_length_c 11.611771
_cell_angle_alpha 78.687337
_cell_angle_beta 149.639937
_cell_angle_gamma 105.468638
_cell_volume 267.834261
_symmetry_space_group_name_H-M "P 1"
_symmetry_group_IT_number 1
_symmetry_cell_setting 'triclinic'
loop_
_space_group_symop_operation_xyz
x,y,z
loop_
_atom_site_type_symbol
_atom_site_label
_atom_site_fract_x
_atom_site_fract_y
_atom_site_fract_z
Si Si1 0.371550 0.324030 0.981150
Si Si2 0.861696 0.937544 0.569416
Si Si3 0.294333 0.197516 0.193823
Si Si4 0.753271 0.883166 0.246090
Si Si5 0.264336 0.942701 0.414620
Si Si6 0.560353 0.522579 0.544295
O O1 0.133257 0.185153 0.738176
O O2 0.221025 0.248017 0.008547
O O3 0.631665 0.159431 0.156791
O O4 0.504628 0.643037 0.044584
O O5 0.587148 0.075037 0.395253
O O6 0.832388 0.800301 0.436273
O O7 0.853873 0.711655 0.684563
O O8 0.116974 0.998459 0.184076
O O9 0.373339 0.475180 0.299065
O O10 0.029853 0.921264 0.352716
O O11 0.519989 0.211510 0.584176
O O12 0.408764 0.684077 0.517599
#
# Coordination Sequence:
#
# PCOD9000958 Si02
#       6
#     1   1   1   1   1   1
#     4  11  23  35  61  83 110 150 183 225 278 327
#     4  10  21  38  60  83 112 142 192 227 270 330
#     4   8  19  38  57  82 105 146 185 227 268 318
#     4  11  22  38  56  84 116 145 179 230 279 327
#     4   9  18  34  59  77 110 149 176 225 281 318
#     4   9  17  35  59  77 105 148 183 222 272 316
#
# _framework density 22.401910999999998
#
# number of rings (size 3 to 8) (size 9 to 14) (size 15 to 20)
#    1.000    1.333    1.667    1.000    2.333    0.000 
#    0.000    5.000    0.000    0.000    0.000    0.000 
#    0.000    0.000    0.000    0.000    0.000    0.000 
#
# Total GULP energy -33424.837773 kJ/mol
# GULP energy per Si atom -5570.806296 kJ/mol
# Density = 2.235092 g / cm^3
# Si number density = 22.401911 Si / 1000 Ang^3
#
#
#
# Elastic Constant Matrix: (Units=GPa)
#
#
# Indices 1 2 3 4 5 6 
#
# 1 163.7441 26.3189 9.5017 3.5636 10.6233 -12.0728
# 2 26.3189 91.1972 9.2294 19.7946 -0.3361 -23.3069
# 3 9.5017 9.2294 35.4791 19.5029 7.2426 -2.8487
# 4 3.5636 19.7946 19.5029 32.6814 -0.7278 -1.6579
# 5 10.6233 -0.3361 7.2426 -0.7278 11.5835 9.6497
# 6 -12.0728 -23.3069 -2.8487 -1.6579 9.6497 29.5430
#
#
#
# Elastic Compliance Matrix: (Units=1/GPa)
#
#
# Indices 1 2 3 4 5 6 
#
# 1 0.007733 0.000514 0.004194 -0.003568 -0.017948 0.009632
# 2 0.000514 0.020979 0.015391 -0.021278 -0.034382 0.028281
# 3 0.004194 0.015391 0.077347 -0.055565 -0.096731 0.049792
# 4 -0.003568 -0.021278 -0.055565 0.076511 0.080080 -0.045466
# 5 -0.017948 -0.034382 -0.096731 0.080080 0.274814 -0.129055
# 6 0.009632 0.028281 0.049792 -0.045466 -0.129055 0.104500
#
#
# Mechanical properties :
#
#
# Convention : Reuss Voigt Hill
#
# Bulk Modulus (GPa) = 6.83728 42.28004 24.55866
# Shear Modulus (GPa) = 8.76518 31.11960 19.94239
#
# Velocity S-wave (km/s) = 1.98020 3.73117 2.98687
# Velocity P-wave (km/s) = 2.87871 6.12181 4.78349
#
# Compressibility (1/GPa) = 0.14625695
#
# Stress axis : x y z
#
# Youngs Moduli (GPa) = 129.30925 47.66731 12.92871
#
# Poissons Ratio (x) = -0.02449 -0.05422
# Poissons Ratio (y) = -0.06643 -0.19899
# Poissons Ratio (z) = -0.54232 -0.73365
#
# Static dielectric constant tensor:
#      x y z
#    x 1.787410 0.031630 -0.021810 
#    y 0.031630 1.885530 -0.024770 
#    z -0.021810 -0.024770 1.904770 
# 
# From -- ./inp_files/117.got.cif
#   From: 2010.05.17/outbox.cif.g08.bks.cpg/sg1_1_cif.got.tgz:117.got - 2010.05.17 20:27:59.
