data_PCOD9000375
_publ_section_title
;
Structure prediction by ZEFSAII (Michael W. Deem and Ramdas Pophale) SiO2 
 PCOD9000375
Probable space group: P 1
;
_chemical_formula_sum "Si O2"
_cell_formula_units_Z 8
_cell_length_a 8.351034
_cell_length_b 7.846016
_cell_length_c 12.741712
_cell_angle_alpha 42.198245
_cell_angle_beta 46.835223
_cell_angle_gamma 79.135627
_cell_volume 310.933429
_symmetry_space_group_name_H-M "P 1"
_symmetry_group_IT_number 1
_symmetry_cell_setting 'triclinic'
loop_
_space_group_symop_operation_xyz
x,y,z
loop_
_atom_site_type_symbol
_atom_site_label
_atom_site_fract_x
_atom_site_fract_y
_atom_site_fract_z
Si Si1 0.108900 0.519680 0.855670
Si Si2 0.954635 0.698113 0.096562
Si Si3 0.472407 0.396886 0.619598
Si Si4 0.122454 0.847392 0.519665
Si Si5 0.462160 0.138935 0.958672
Si Si6 0.414125 0.235554 0.409854
Si Si7 0.091669 0.477305 0.524575
Si Si8 0.088847 0.241835 0.192975
O O1 0.335117 0.528322 0.682804
O O2 0.947189 0.562850 0.818784
O O3 0.302463 0.877744 0.665048
O O4 0.959279 0.224696 0.143077
O O5 0.752301 0.628204 0.317010
O O6 0.732888 0.534899 0.171844
O O7 0.071635 0.496893 0.143720
O O8 0.218957 0.088329 0.803189
O O9 0.520906 0.243323 0.764338
O O10 0.354641 0.162577 0.345589
O O11 0.983376 0.949219 0.456490
O O12 0.245363 0.723222 0.443708
O O13 0.380086 0.323916 0.980923
O O14 0.183363 0.751517 0.270634
O O15 0.757430 0.226314 0.820644
O O16 0.209288 0.304885 0.509043
#
# Coordination Sequence:
#
# PCOD9000375 Si02
#       8
#     1   1   1   1   1   1   1   1
#     4   9  22  46  71 109 152 198 259 309 387 458
#     4  12  26  45  76 114 157 202 263 316 393 468
#     4  11  25  44  75 111 155 211 249 328 392 456
#     4   9  23  45  73 108 154 202 248 319 389 445
#     4  10  25  45  75 109 155 198 264 319 388 459
#     4  10  25  46  74 112 152 205 254 319 381 471
#     4  11  23  49  72 114 153 204 257 324 383 473
#     4  10  23  46  72 109 148 204 250 320 375 464
#
# _framework density 25.728977
#
# number of rings (size 3 to 8) (size 9 to 14) (size 15 to 20)
#    0.750    1.000    0.000    2.250    3.500   11.000 
#    4.500    0.000    0.000    0.000    0.000    0.000 
#    0.000    0.000    0.000    0.000    0.000    0.000 
#
# Total GULP energy -44628.620238 kJ/mol
# GULP energy per Si atom -5578.577530 kJ/mol
# Density = 2.567042 g / cm^3
# Si number density = 25.728977 Si / 1000 Ang^3
#
#
#
# Elastic Constant Matrix: (Units=GPa)
#
#
# Indices 1 2 3 4 5 6 
#
# 1 118.3154 28.4917 46.1214 -3.2425 32.3040 9.7939
# 2 28.4917 198.4871 22.7194 12.5415 -22.2012 -2.7473
# 3 46.1214 22.7194 90.6996 14.0798 -2.3485 -7.9761
# 4 -3.2425 12.5415 14.0798 30.2458 -2.2049 0.0099
# 5 32.3040 -22.2012 -2.3485 -2.2049 53.5510 2.2655
# 6 9.7939 -2.7473 -7.9761 0.0099 2.2655 35.9690
#
#
#
# Elastic Compliance Matrix: (Units=1/GPa)
#
#
# Indices 1 2 3 4 5 6 
#
# 1 0.016693 -0.003062 -0.009599 0.006712 -0.011221 -0.006203
# 2 -0.003062 0.006068 0.000695 -0.002860 0.004226 0.001186
# 3 -0.009599 0.000695 0.017868 -0.009184 0.006220 0.006240
# 4 0.006712 -0.002860 -0.009184 0.038962 -0.003870 -0.003849
# 5 -0.011221 0.004226 0.006220 -0.003870 0.027179 0.003047
# 6 -0.006203 0.001186 0.006240 -0.003849 0.003047 0.030774
#
#
# Mechanical properties :
#
#
# Convention : Reuss Voigt Hill
#
# Bulk Modulus (GPa) = 59.89679 66.90748 63.40213
# Shear Modulus (GPa) = 29.93247 44.63112 37.28180
#
# Velocity S-wave (km/s) = 3.41453 4.16945 3.81073
# Velocity P-wave (km/s) = 6.23505 7.01714 6.63762
#
# Compressibility (1/GPa) = 0.01669539
#
# Stress axis : x y z
#
# Youngs Moduli (GPa) = 59.90669 164.80046 55.96601
#
# Poissons Ratio (x) = 0.50470 0.53723
# Poissons Ratio (y) = 0.18346 -0.03890
# Poissons Ratio (z) = 0.57505 -0.11455
#
# Static dielectric constant tensor:
#      x y z
#    x 2.154580 -0.024250 0.071520 
#    y -0.024250 2.022210 -0.008180 
#    z 0.071520 -0.008180 1.995850 
# 
# From -- ./inp_files/7138.got.cif
#   From: 2010.05.17/outbox.cif.g08.bks.cpg/sg1_4_cif.got.tgz:7138.got - 2010.05.17 20:27:59.
