data_PCOD9000805
_publ_section_title
;
Structure prediction by ZEFSAII (Michael W. Deem and Ramdas Pophale) SiO2 
 PCOD9000805
Probable space group: P 1
;
_chemical_formula_sum "Si O2"
_cell_formula_units_Z 8
_cell_length_a 5.141942
_cell_length_b 9.357146
_cell_length_c 8.654997
_cell_angle_alpha 74.917349
_cell_angle_beta 83.210361
_cell_angle_gamma 52.612961
_cell_volume 319.044137
_symmetry_space_group_name_H-M "P 1"
_symmetry_group_IT_number 1
_symmetry_cell_setting 'triclinic'
loop_
_space_group_symop_operation_xyz
x,y,z
loop_
_atom_site_type_symbol
_atom_site_label
_atom_site_fract_x
_atom_site_fract_y
_atom_site_fract_z
Si Si1 0.490730 0.370600 0.536790
Si Si2 0.868855 0.898563 0.960523
Si Si3 0.051731 0.394808 0.792786
Si Si4 0.159449 0.868580 0.242937
Si Si5 0.322315 0.985494 0.763905
Si Si6 0.561154 0.058762 0.440021
Si Si7 0.223484 0.188287 0.115194
Si Si8 0.770444 0.585245 0.470465
O O1 0.369086 0.382906 0.718217
O O2 0.631988 0.174028 0.511491
O O3 0.713062 0.433618 0.473839
O O4 0.139637 0.510125 0.438934
O O5 0.123643 0.782327 0.115332
O O6 0.072863 0.938923 0.826457
O O7 0.570817 0.071605 0.032179
O O8 0.657203 0.860672 0.878045
O O9 0.764343 0.569112 0.664063
O O10 0.139175 0.201221 0.770674
O O11 0.010715 0.378040 0.980633
O O12 0.505025 0.756547 0.337922
O O13 0.094147 0.063531 0.149007
O O14 0.896007 0.904028 0.375940
O O15 0.419610 0.981459 0.582161
O O16 0.310621 0.187078 0.285888
#
# Coordination Sequence:
#
# PCOD9000805 Si02
#       8
#     1   1   1   1   1   1   1   1
#     4   9  22  39  63  88 119 168 210 243 302 375
#     4  10  20  36  60  87 120 160 208 248 294 367
#     4   8  19  34  64  83 119 159 212 241 291 376
#     4  11  23  39  65  98 130 153 208 265 314 359
#     4  10  20  35  60  89 117 158 210 250 295 359
#     4  10  24  34  66  96 129 154 210 266 309 356
#     4  10  21  37  61 100 122 158 207 263 305 358
#     4  10  23  38  65  89 124 166 207 246 310 374
#
# _framework density 25.074902000000002
#
# number of rings (size 3 to 8) (size 9 to 14) (size 15 to 20)
#    0.750    1.500    2.500    0.000   12.250    0.000 
#    0.000    0.000    2.750    3.000    0.000    0.000 
#    0.000    0.000    0.000    0.000    0.000    0.000 
#
# Total GULP energy -44648.229579 kJ/mol
# GULP energy per Si atom -5581.028697 kJ/mol
# Density = 2.501783 g / cm^3
# Si number density = 25.074902 Si / 1000 Ang^3
#
#
#
# Elastic Constant Matrix: (Units=GPa)
#
#
# Indices 1 2 3 4 5 6 
#
# 1 121.5564 20.8749 45.1875 4.4977 0.5100 -14.5278
# 2 20.8749 37.2812 32.7454 -14.7982 -3.5665 -0.5495
# 3 45.1875 32.7454 171.4815 -4.2740 13.2703 -19.6623
# 4 4.4977 -14.7982 -4.2740 26.0966 -13.6030 1.0699
# 5 0.5100 -3.5665 13.2703 -13.6030 53.7982 -7.2547
# 6 -14.5278 -0.5495 -19.6623 1.0699 -7.2547 31.8273
#
#
#
# Elastic Compliance Matrix: (Units=1/GPa)
#
#
# Indices 1 2 3 4 5 6 
#
# 1 0.010819 -0.008781 -0.000747 -0.008185 -0.002011 0.004142
# 2 -0.008781 0.058245 -0.009788 0.041527 0.015941 -0.006812
# 3 -0.000747 -0.009788 0.008504 -0.006147 -0.003741 0.004097
# 4 -0.008185 0.041527 -0.006147 0.074194 0.022544 -0.004172
# 5 -0.002011 0.015941 -0.003741 0.022544 0.026604 0.002352
# 6 0.004142 -0.006812 0.004097 -0.004172 0.002352 0.036400
#
#
# Mechanical properties :
#
#
# Convention : Reuss Voigt Hill
#
# Bulk Modulus (GPa) = 25.68435 58.65941 42.17188
# Shear Modulus (GPa) = 18.77035 37.77851 28.27443
#
# Velocity S-wave (km/s) = 2.73897 3.88574 3.36162
# Velocity P-wave (km/s) = 4.50199 6.60124 5.64997
#
# Compressibility (1/GPa) = 0.03893421
#
# Stress axis : x y z
#
# Youngs Moduli (GPa) = 92.43175 17.16872 117.59652
#
# Poissons Ratio (x) = 0.15077 0.08790
# Poissons Ratio (y) = 0.81168 1.15103
# Poissons Ratio (z) = 0.06909 0.16805
#
# Static dielectric constant tensor:
#      x y z
#    x 1.991980 -0.002820 0.077340 
#    y -0.002820 2.029840 -0.041830 
#    z 0.077340 -0.041830 2.081290 
# 
# From -- ./inp_files/3154.got.cif
#   From: 2010.05.17/outbox.cif.g08.bks.cpg/sg1_2_cif.got.tgz:3154.got - 2010.05.17 20:27:59.
