data_PCOD9000323
_publ_section_title
;
Structure prediction by ZEFSAII (Michael W. Deem and Ramdas Pophale) SiO2 
 PCOD9000323
Probable space group: P 1
;
_chemical_formula_sum "Si O2"
_cell_formula_units_Z 8
_cell_length_a 6.620643
_cell_length_b 13.581726
_cell_length_c 11.153539
_cell_angle_alpha 29.312078
_cell_angle_beta 120.826169
_cell_angle_gamma 105.376724
_cell_volume 380.236285
_symmetry_space_group_name_H-M "P 1"
_symmetry_group_IT_number 1
_symmetry_cell_setting 'triclinic'
loop_
_space_group_symop_operation_xyz
x,y,z
loop_
_atom_site_type_symbol
_atom_site_label
_atom_site_fract_x
_atom_site_fract_y
_atom_site_fract_z
Si Si1 0.020190 0.890890 0.024790
Si Si2 0.490432 0.798766 0.410961
Si Si3 0.822173 0.057163 0.321363
Si Si4 0.907347 0.387634 0.829957
Si Si5 0.188805 0.908350 0.812035
Si Si6 0.415602 0.475083 0.907109
Si Si7 0.811131 0.315611 0.402758
Si Si8 0.792236 0.583987 0.336996
O O1 0.240162 0.941998 0.102050
O O2 0.965943 0.716731 0.270566
O O3 0.112852 0.793734 0.022831
O O4 0.776603 0.123429 0.674216
O O5 0.664290 0.588563 0.604722
O O6 0.398196 0.699116 0.601491
O O7 0.665934 0.922504 0.369143
O O8 0.932012 0.160422 0.140032
O O9 0.613608 0.268081 0.107330
O O10 0.044719 0.917270 0.634032
O O11 0.847219 0.410948 0.645504
O O12 0.155278 0.439346 0.874964
O O13 0.496674 0.774155 0.039058
O O14 0.056220 0.164872 0.550960
O O15 0.560164 0.448471 0.105694
O O16 0.859766 0.466959 0.353572
#
# Coordination Sequence:
#
# PCOD9000323 Si02
#       8
#     1   1   1   1   1   1   1   1
#     4  10  23  44  62  98 132 165 225 266 313 401
#     4  11  23  43  65  94 132 175 209 269 331 376
#     4  10  25  42  67  92 132 174 206 273 330 374
#     4  11  24  41  63 100 129 167 224 262 319 400
#     4   9  23  47  60  99 130 163 225 269 310 403
#     4  10  23  43  62  96 136 161 222 268 312 402
#     4   9  24  42  63  99 126 172 213 270 325 380
#     4  12  23  44  70  92 133 177 210 273 332 374
#
# _framework density 21.039546999999999
#
# number of rings (size 3 to 8) (size 9 to 14) (size 15 to 20)
#    0.750    1.000    2.500    0.000    7.000    2.000 
#    2.250    0.000    0.000    0.000    0.000    0.000 
#    0.000    0.000    0.000    0.000    0.000    0.000 
#
# Total GULP energy -44601.444720 kJ/mol
# GULP energy per Si atom -5575.180590 kJ/mol
# Density = 2.099166 g / cm^3
# Si number density = 21.039547 Si / 1000 Ang^3
#
#
#
# Elastic Constant Matrix: (Units=GPa)
#
#
# Indices 1 2 3 4 5 6 
#
# 1 67.2471 34.4190 44.7329 9.5763 -13.5965 18.1564
# 2 34.4190 114.2729 48.8277 24.9548 -25.7619 7.8584
# 3 44.7329 48.8277 103.1220 37.0459 -26.4823 6.8039
# 4 9.5763 24.9548 37.0459 37.5214 -5.5497 -0.3274
# 5 -13.5965 -25.7619 -26.4823 -5.5497 28.7462 -9.1135
# 6 18.1564 7.8584 6.8039 -0.3274 -9.1135 27.6544
#
#
#
# Elastic Compliance Matrix: (Units=1/GPa)
#
#
# Indices 1 2 3 4 5 6 
#
# 1 0.028203 -0.005015 -0.013690 0.008448 -0.007207 -0.015999
# 2 -0.005015 0.013538 0.000545 -0.006803 0.009721 0.002434
# 3 -0.013690 0.000545 0.026633 -0.020583 0.016996 0.007638
# 4 0.008448 -0.006803 -0.020583 0.047464 -0.012576 -0.002131
# 5 -0.007207 0.009721 0.016996 -0.012576 0.058705 0.016985
# 6 -0.015999 0.002434 0.007638 -0.002131 0.016985 0.049666
#
#
# Mechanical properties :
#
#
# Convention : Reuss Voigt Hill
#
# Bulk Modulus (GPa) = 31.19639 60.06681 45.63160
# Shear Modulus (GPa) = 18.43567 29.22856 23.83211
#
# Velocity S-wave (km/s) = 2.96334 3.73127 3.36926
# Velocity P-wave (km/s) = 5.15444 6.86838 6.07218
#
# Compressibility (1/GPa) = 0.03205499
#
# Stress axis : x y z
#
# Youngs Moduli (GPa) = 35.45732 73.86352 37.54743
#
# Poissons Ratio (x) = 0.37040 0.51401
# Poissons Ratio (y) = 0.17781 -0.02045
# Poissons Ratio (z) = 0.48540 -0.04024
#
# Static dielectric constant tensor:
#      x y z
#    x 1.768950 -0.015120 -0.010640 
#    y -0.015120 1.736360 -0.011480 
#    z -0.010640 -0.011480 1.760600 
# 
# From -- ./inp_files/2195.got.cif
#   From: 2010.05.17/outbox.cif.g08.bks.cpg/sg1_2_cif.got.tgz:2195.got - 2010.05.17 20:27:59.
