data_PCOD9000169
_publ_section_title
;
Structure prediction by ZEFSAII (Michael W. Deem and Ramdas Pophale) SiO2 
 PCOD9000169
Probable space group: P 1
;
_chemical_formula_sum "Si O2"
_cell_formula_units_Z 8
_cell_length_a 7.638088
_cell_length_b 10.976782
_cell_length_c 5.972069
_cell_angle_alpha 102.202587
_cell_angle_beta 89.543904
_cell_angle_gamma 40.479438
_cell_volume 306.263267
_symmetry_space_group_name_H-M "P 1"
_symmetry_group_IT_number 1
_symmetry_cell_setting 'triclinic'
loop_
_space_group_symop_operation_xyz
x,y,z
loop_
_atom_site_type_symbol
_atom_site_label
_atom_site_fract_x
_atom_site_fract_y
_atom_site_fract_z
Si Si1 0.439550 0.291400 0.359520
Si Si2 0.308049 0.577328 0.127603
Si Si3 0.693494 0.964242 0.866898
Si Si4 0.594287 0.809528 0.112869
Si Si5 0.242686 0.174403 0.571015
Si Si6 0.630704 0.517688 0.815938
Si Si7 0.971283 0.962328 0.497873
Si Si8 0.596129 0.630490 0.368896
O O1 0.331638 0.462963 0.272838
O O2 0.243165 0.317524 0.533718
O O3 0.714895 0.170429 0.459598
O O4 0.534036 0.141761 0.108672
O O5 0.571680 0.529651 0.150977
O O6 0.038698 0.808082 0.272695
O O7 0.398065 0.533177 0.852050
O O8 0.491188 0.032040 0.695237
O O9 0.905108 0.937657 0.726597
O O10 0.771813 0.797518 0.941779
O O11 0.757517 0.654782 0.262199
O O12 0.345010 0.031518 0.305610
O O13 0.514812 0.725942 0.954253
O O14 0.961820 0.300695 0.757639
O O15 0.670826 0.521862 0.548531
O O16 0.273759 0.856625 0.476317
#
# Coordination Sequence:
#
# PCOD9000169 Si02
#       8
#     1   1   1   1   1   1   1   1
#     4  10  22  42  64  93 126 165 213 259 316 375
#     4   9  23  41  61  98 124 164 214 256 313 380
#     4  10  22  41  64  92 121 169 205 260 327 359
#     4  10  22  41  63  92 124 167 209 257 318 371
#     4  10  24  42  60  96 126 161 218 260 308 382
#     4  11  23  42  63  93 128 170 206 259 322 369
#     4   9  22  41  61  93 128 160 209 260 308 379
#     4   9  22  40  60  93 129 162 210 255 316 373
#
# _framework density 26.121316
#
# number of rings (size 3 to 8) (size 9 to 14) (size 15 to 20)
#    0.750    1.500    0.000    0.750    3.500    9.000 
#    6.750    0.000    0.000    0.000    0.000    0.000 
#    0.000    0.000    0.000    0.000    0.000    0.000 
#
# Total GULP energy -44534.579987 kJ/mol
# GULP energy per Si atom -5566.822498 kJ/mol
# Density = 2.606186 g / cm^3
# Si number density = 26.121316 Si / 1000 Ang^3
#
#
#
# Elastic Constant Matrix: (Units=GPa)
#
#
# Indices 1 2 3 4 5 6 
#
# 1 78.9508 26.9803 16.1717 -10.4604 -29.3556 5.6500
# 2 26.9803 72.5654 11.1931 -0.7775 -6.2858 17.0156
# 3 16.1717 11.1931 70.4135 14.4672 -23.0520 0.5307
# 4 -10.4604 -0.7775 14.4672 49.1410 15.3143 -14.8067
# 5 -29.3556 -6.2858 -23.0520 15.3143 48.1473 -3.4284
# 6 5.6500 17.0156 0.5307 -14.8067 -3.4284 38.0798
#
#
#
# Elastic Compliance Matrix: (Units=1/GPa)
#
#
# Indices 1 2 3 4 5 6 
#
# 1 0.018743 -0.006382 -0.000204 0.001205 0.010218 0.001462
# 2 -0.006382 0.018125 -0.001514 -0.002482 -0.002050 -0.008280
# 3 -0.000204 -0.001514 0.021126 -0.011223 0.013166 -0.002766
# 4 0.001205 -0.002482 -0.011223 0.032009 -0.014272 0.012248
# 5 0.010218 -0.002050 0.013166 -0.014272 0.037364 -0.002969
# 6 0.001462 -0.008280 -0.002766 0.012248 -0.002969 0.034277
#
#
# Mechanical properties :
#
#
# Convention : Reuss Voigt Hill
#
# Bulk Modulus (GPa) = 23.92678 36.73555 30.33116
# Shear Modulus (GPa) = 26.07212 38.24593 32.15902
#
# Velocity S-wave (km/s) = 3.16273 3.83059 3.51257
# Velocity P-wave (km/s) = 4.74519 5.80160 5.29978
#
# Compressibility (1/GPa) = 0.04179418
#
# Stress axis : x y z
#
# Youngs Moduli (GPa) = 53.35291 55.17340 47.33420
#
# Poissons Ratio (x) = 0.35213 0.00964
# Poissons Ratio (y) = 0.34051 0.07167
# Poissons Ratio (z) = 0.01086 0.08354
#
# Static dielectric constant tensor:
#      x y z
#    x 2.152340 0.010710 0.049220 
#    y 0.010710 2.089670 -0.109260 
#    z 0.049220 -0.109260 2.308480 
# 
# From -- ./inp_files/1725.got.cif
#   From: 2010.05.17/outbox.cif.g08.bks.cpg/sg1_1_cif.got.tgz:1725.got - 2010.05.17 20:27:59.
