data_PCOD9000070
_publ_section_title
;
Structure prediction by ZEFSAII (Michael W. Deem and Ramdas Pophale) SiO2 
 PCOD9000070
Probable space group: P 1
;
_chemical_formula_sum "Si O2"
_cell_formula_units_Z 8
_cell_length_a 13.160969
_cell_length_b 7.956758
_cell_length_c 13.283259
_cell_angle_alpha 149.789524
_cell_angle_beta 147.747086
_cell_angle_gamma 39.000664
_cell_volume 367.925267
_symmetry_space_group_name_H-M "P 1"
_symmetry_group_IT_number 1
_symmetry_cell_setting 'triclinic'
loop_
_space_group_symop_operation_xyz
x,y,z
loop_
_atom_site_type_symbol
_atom_site_label
_atom_site_fract_x
_atom_site_fract_y
_atom_site_fract_z
Si Si1 0.224360 0.598120 0.095150
Si Si2 0.902601 0.226408 0.653544
Si Si3 0.520072 0.167643 0.987185
Si Si4 0.072250 0.115108 0.950082
Si Si5 0.429413 0.925624 0.276170
Si Si6 0.847204 0.760344 0.188349
Si Si7 0.521339 0.699928 0.556649
Si Si8 0.713336 0.107308 0.757812
O O1 0.339890 0.264125 0.962308
O O2 0.271897 0.897430 0.218794
O O3 0.330474 0.623198 0.302502
O O4 0.005777 0.554180 0.896820
O O5 0.006800 0.055649 0.751718
O O6 0.930774 0.981723 0.455294
O O7 0.674392 0.366981 0.542238
O O8 0.702794 0.994913 0.114769
O O9 0.544504 0.542041 0.163747
O O10 0.482112 0.936201 0.743063
O O11 0.926925 0.945020 0.812230
O O12 0.295226 0.018193 0.115565
O O13 0.003573 0.511071 0.125242
O O14 0.574477 0.141527 0.560370
O O15 0.733559 0.485626 0.004012
O O16 0.625133 0.890921 0.654879
#
# Coordination Sequence:
#
# PCOD9000070 Si02
#       8
#     1   1   1   1   1   1   1   1
#     4   9  23  39  63  89 122 160 212 249 297 369
#     4  12  22  40  67  89 127 165 208 248 310 373
#     4  10  21  43  63  92 123 164 206 252 311 363
#     4  10  23  40  59  96 125 161 200 260 307 359
#     4   9  20  44  62  85 128 161 201 256 307 357
#     4  10  22  41  61  93 124 161 204 254 307 360
#     4  11  20  43  66  90 122 168 204 252 314 365
#     4   9  21  40  65  86 129 154 207 255 303 364
#
# _framework density 21.743547
#
# number of rings (size 3 to 8) (size 9 to 14) (size 15 to 20)
#    1.500    0.500    2.500    0.750    0.000    5.000 
#    6.750    0.000    0.000    0.000    0.000    0.000 
#    0.000    0.000    0.000    0.000    0.000    0.000 
#
# Total GULP energy -44597.324224 kJ/mol
# GULP energy per Si atom -5574.665528 kJ/mol
# Density = 2.169406 g / cm^3
# Si number density = 21.743547 Si / 1000 Ang^3
#
#
#
# Elastic Constant Matrix: (Units=GPa)
#
#
# Indices 1 2 3 4 5 6 
#
# 1 62.2264 2.4602 27.8758 -8.4786 -19.4097 12.6341
# 2 2.4602 76.6713 15.3966 -21.6752 -7.9144 13.1343
# 3 27.8758 15.3966 132.0970 -30.7318 -24.5266 2.7275
# 4 -8.4786 -21.6752 -30.7318 31.9862 5.9012 -8.6053
# 5 -19.4097 -7.9144 -24.5266 5.9012 46.1658 -2.9573
# 6 12.6341 13.1343 2.7275 -8.6053 -2.9573 24.4263
#
#
#
# Elastic Compliance Matrix: (Units=1/GPa)
#
#
# Indices 1 2 3 4 5 6 
#
# 1 0.022096 0.002699 -0.003413 -0.000054 0.007200 -0.011646
# 2 0.002699 0.017271 0.000508 0.010634 0.002578 -0.006681
# 3 -0.003413 0.000508 0.011332 0.010876 0.003570 0.004491
# 4 -0.000054 0.010634 0.010876 0.051687 0.001709 0.011512
# 5 0.007200 0.002578 0.003570 0.001709 0.026701 -0.001674
# 6 -0.011646 -0.006681 0.004491 0.011512 -0.001674 0.053907
#
#
# Mechanical properties :
#
#
# Convention : Reuss Voigt Hill
#
# Bulk Modulus (GPa) = 19.88571 40.27331 30.07951
# Shear Modulus (GPa) = 24.97922 35.53314 30.25618
#
# Velocity S-wave (km/s) = 3.39309 4.04690 3.73433
# Velocity P-wave (km/s) = 4.95138 6.35600 5.69714
#
# Compressibility (1/GPa) = 0.05028737
#
# Stress axis : x y z
#
# Youngs Moduli (GPa) = 45.25804 57.90050 88.24909
#
# Poissons Ratio (x) = -0.15629 0.30116
# Poissons Ratio (y) = -0.12216 -0.04483
# Poissons Ratio (z) = 0.15445 -0.02941
#
# Static dielectric constant tensor:
#      x y z
#    x 1.852660 0.048030 0.055240 
#    y 0.048030 1.803640 0.006710 
#    z 0.055240 0.006710 1.764080 
# 
# From -- ./inp_files/7304.got.cif
#   From: 2010.05.17/outbox.cif.g08.bks.cpg/sg1_4_cif.got.tgz:7304.got - 2010.05.17 20:27:59.
