data_PCOD9000093
_publ_section_title
;
Structure prediction by ZEFSAII (Michael W. Deem and Ramdas Pophale) SiO2 
 PCOD9000093
Probable space group: P 1
;
_chemical_formula_sum "Si O2"
_cell_formula_units_Z 8
_cell_length_a 8.358593
_cell_length_b 5.680229
_cell_length_c 7.590991
_cell_angle_alpha 75.922100
_cell_angle_beta 72.547047
_cell_angle_gamma 108.443782
_cell_volume 302.535981
_symmetry_space_group_name_H-M "P 1"
_symmetry_group_IT_number 1
_symmetry_cell_setting 'triclinic'
loop_
_space_group_symop_operation_xyz
x,y,z
loop_
_atom_site_type_symbol
_atom_site_label
_atom_site_fract_x
_atom_site_fract_y
_atom_site_fract_z
Si Si1 0.880930 0.998450 0.984640
Si Si2 0.190392 0.872401 0.896850
Si Si3 0.436379 0.313156 0.961181
Si Si4 0.902942 0.923589 0.398354
Si Si5 0.184979 0.479376 0.265372
Si Si6 0.489450 0.886654 0.247217
Si Si7 0.554904 0.987735 0.576037
Si Si8 0.808354 0.415757 0.703106
O O1 0.003877 0.867291 0.874061
O O2 0.892596 0.263722 0.832109
O O3 0.948728 0.015221 0.163455
O O4 0.661947 0.842493 0.121884
O O5 0.347721 0.825769 0.743521
O O6 0.308986 0.187320 0.855210
O O7 0.125373 0.655994 0.116789
O O8 0.655322 0.484990 0.844035
O O9 0.333544 0.423504 0.108023
O O10 0.434262 0.040078 0.087819
O O11 0.684046 0.836747 0.513017
O O12 0.939853 0.678501 0.504795
O O13 0.019565 0.196319 0.412949
O O14 0.303756 0.619420 0.372902
O O15 0.537475 0.076488 0.367452
O O16 0.674286 0.205572 0.639581
#
# Coordination Sequence:
#
# PCOD9000093 Si02
#       8
#     1   1   1   1   1   1   1   1
#     4  10  22  47  73 108 137 190 242 294 360 417
#     4  10  21  43  73 102 143 183 242 297 362 417
#     4   9  19  42  71 102 135 195 233 297 357 415
#     4  11  24  44  76 105 144 191 236 294 362 422
#     4  11  22  42  73 103 145 189 239 290 358 438
#     4   9  22  42  72 105 145 191 241 289 361 422
#     4  10  23  46  71 106 143 190 238 301 353 421
#     4  10  23  44  75 107 146 179 247 296 357 426
#
# _framework density 26.443135000000002
#
# number of rings (size 3 to 8) (size 9 to 14) (size 15 to 20)
#    0.000    2.000    1.250    1.500    1.750    2.000 
#    9.000    1.250   13.750    3.000    0.000    0.000 
#    0.000    0.000    0.000    0.000    0.000    0.000 
#
# Total GULP energy -44632.691532 kJ/mol
# GULP energy per Si atom -5579.086442 kJ/mol
# Density = 2.638295 g / cm^3
# Si number density = 26.443135 Si / 1000 Ang^3
#
#
#
# Elastic Constant Matrix: (Units=GPa)
#
#
# Indices 1 2 3 4 5 6 
#
# 1 144.5934 42.2960 59.1474 -15.9291 -15.3496 -25.8305
# 2 42.2960 53.2062 38.8412 -12.0756 13.9280 0.5430
# 3 59.1474 38.8412 127.6221 -12.1658 -7.2550 -8.6039
# 4 -15.9291 -12.0756 -12.1658 45.3095 -9.9298 -4.1640
# 5 -15.3496 13.9280 -7.2550 -9.9298 36.6918 19.6297
# 6 -25.8305 0.5430 -8.6039 -4.1640 19.6297 25.0606
#
#
#
# Elastic Compliance Matrix: (Units=1/GPa)
#
#
# Indices 1 2 3 4 5 6 
#
# 1 0.013149 -0.009371 -0.001979 0.003429 0.003949 0.010553
# 2 -0.009371 0.037995 -0.008188 0.000166 -0.022067 0.004020
# 3 -0.001979 -0.008188 0.011559 0.001375 0.006350 -0.002639
# 4 0.003429 0.000166 0.001375 0.025494 0.007117 0.002664
# 5 0.003949 -0.022067 0.006350 0.007117 0.062367 -0.040941
# 6 0.010553 0.004020 -0.002639 0.002664 -0.040941 0.082298
#
#
# Mechanical properties :
#
#
# Convention : Reuss Voigt Hill
#
# Bulk Modulus (GPa) = 42.32560 67.33230 54.82895
# Shear Modulus (GPa) = 17.86897 33.75486 25.81192
#
# Velocity S-wave (km/s) = 2.60234 3.57670 3.12770
# Velocity P-wave (km/s) = 5.00705 6.52498 5.81575
#
# Compressibility (1/GPa) = 0.02362636
#
# Stress axis : x y z
#
# Youngs Moduli (GPa) = 76.05231 26.31915 86.51264
#
# Poissons Ratio (x) = 0.24664 0.17122
# Poissons Ratio (y) = 0.71268 0.70839
# Poissons Ratio (z) = 0.15052 0.21551
#
# Static dielectric constant tensor:
#      x y z
#    x 2.070890 0.006320 -0.044090 
#    y 0.006320 2.099800 0.018830 
#    z -0.044090 0.018830 2.140540 
# 
# From -- ./inp_files/1303.got.cif
#   From: 2010.05.17/outbox.cif.g08.bks.cpg/sg1_1_cif.got.tgz:1303.got - 2010.05.17 20:27:59.
