data_PCOD9000525
_publ_section_title
;
Structure prediction by ZEFSAII (Michael W. Deem and Ramdas Pophale) SiO2 
 PCOD9000525
Probable space group: P 1
;
_chemical_formula_sum "Si O2"
_cell_formula_units_Z 8
_cell_length_a 7.944675
_cell_length_b 7.843454
_cell_length_c 12.063493
_cell_angle_alpha 45.309787
_cell_angle_beta 36.448517
_cell_angle_gamma 51.594685
_cell_volume 314.740473
_symmetry_space_group_name_H-M "P 1"
_symmetry_group_IT_number 1
_symmetry_cell_setting 'triclinic'
loop_
_space_group_symop_operation_xyz
x,y,z
loop_
_atom_site_type_symbol
_atom_site_label
_atom_site_fract_x
_atom_site_fract_y
_atom_site_fract_z
Si Si1 0.126620 0.196850 0.794990
Si Si2 0.761707 0.785833 0.943679
Si Si3 0.757564 0.751976 0.407061
Si Si4 0.191290 0.003806 0.199279
Si Si5 0.731740 0.264250 0.192016
Si Si6 0.096655 0.675267 0.043325
Si Si7 0.667072 0.457294 0.787725
Si Si8 0.100799 0.709125 0.579942
O O1 0.283284 0.438184 0.603861
O O2 0.911649 0.236715 0.785285
O O3 0.254718 0.920014 0.860111
O O4 0.929181 0.230551 0.993502
O O5 0.929182 0.730550 0.993501
O O6 0.988994 0.788892 0.723381
O O7 0.603642 0.541087 0.126894
O O8 0.504929 0.005836 0.982057
O O9 0.040899 0.806949 0.297774
O O10 0.630704 0.554242 0.637820
O O11 0.575078 0.022915 0.383144
O O12 0.869366 0.672208 0.263623
O O13 0.227660 0.906857 0.349183
O O14 0.946710 0.224384 0.201721
O O15 0.353433 0.455264 0.004946
O O16 0.817464 0.654152 0.689228
#
# Coordination Sequence:
#
# PCOD9000525 Si02
#       8
#     1   1   1   1   1   1   1   1
#     4   8  17  33  53  77  95 130 175 200 246 297
#     4  11  21  32  52  78 104 135 161 200 262 299
#     4   8  18  37  53  74  98 130 174 209 242 286
#     4   9  18  36  56  70 104 128 171 215 234 292
#     4   8  17  33  53  77  95 130 175 200 246 297
#     4  11  21  32  52  78 104 135 161 200 262 299
#     4   9  18  36  56  70 104 128 171 215 234 292
#     4   8  18  37  53  74  98 130 174 209 242 286
#
# _framework density 25.417767000000001
#
# number of rings (size 3 to 8) (size 9 to 14) (size 15 to 20)
#    1.500    1.500    0.000    0.750    0.000    3.000 
#    0.000    1.250    0.000    0.000    0.000    0.000 
#    0.000    0.000    0.000    0.000    0.000    0.000 
#
# Total GULP energy -44550.315658 kJ/mol
# GULP energy per Si atom -5568.789457 kJ/mol
# Density = 2.535992 g / cm^3
# Si number density = 25.417767 Si / 1000 Ang^3
#
#
#
# Elastic Constant Matrix: (Units=GPa)
#
#
# Indices 1 2 3 4 5 6 
#
# 1 47.5457 -12.2148 37.4493 14.3040 15.7177 4.2060
# 2 -12.2148 91.7606 31.1352 -9.3095 0.9512 -28.7007
# 3 37.4493 31.1352 66.4382 -21.3388 28.4581 16.3836
# 4 14.3040 -9.3095 -21.3388 28.9727 -5.1254 9.3526
# 5 15.7177 0.9512 28.4581 -5.1254 43.5389 6.7274
# 6 4.2060 -28.7007 16.3836 9.3526 6.7274 21.0298
#
#
#
# Elastic Compliance Matrix: (Units=1/GPa)
#
#
# Indices 1 2 3 4 5 6 
#
# 1 0.009689 -0.011372 0.012849 0.009620 -0.005901 -0.029858
# 2 -0.011372 0.005839 0.010488 0.016973 -0.000035 -0.005465
# 3 0.012849 0.010488 -0.006320 -0.017449 -0.006906 0.026637
# 4 0.009620 0.016973 -0.017449 0.014680 0.005172 0.026650
# 5 -0.005901 -0.000035 -0.006906 0.005172 0.031109 -0.005738
# 6 -0.029858 -0.005465 0.026637 0.026650 -0.005738 0.015297
#
#
# Mechanical properties :
#
#
# Convention : Reuss Voigt Hill
#
# Bulk Modulus (GPa) = 30.17864 35.38712 32.78288
# Shear Modulus (GPa) = 87.09535 28.66659 57.88097
#
# Velocity S-wave (km/s) = 5.86003 3.36194 4.77716
# Velocity P-wave (km/s) = 7.59509 5.38727 6.58438
#
# Compressibility (1/GPa) = 0.03313602
#
# Stress axis : x y z
#
# Youngs Moduli (GPa) = 103.21440 171.27182 -158.21868
#
# Poissons Ratio (x) = 1.94766 2.03291
# Poissons Ratio (y) = 1.17373 1.65933
# Poissons Ratio (z) = -1.32618 -1.79622
#
# Static dielectric constant tensor:
#      x y z
#    x 1.987630 0.068750 -0.009210 
#    y 0.068750 2.197450 -0.123620 
#    z -0.009210 -0.123620 2.027070 
# 
# From -- ./inp_files/6350.got.cif
#   From: 2010.05.17/outbox.cif.g08.bks.cpg/sg1_4_cif.got.tgz:6350.got - 2010.05.17 20:27:59.
