data_PCOD9000516
_publ_section_title
;
Structure prediction by ZEFSAII (Michael W. Deem and Ramdas Pophale) SiO2 
 PCOD9000516
Probable space group: P 1
;
_chemical_formula_sum "Si O2"
_cell_formula_units_Z 8
_cell_length_a 8.571320
_cell_length_b 7.380895
_cell_length_c 9.876861
_cell_angle_alpha 130.724358
_cell_angle_beta 45.708813
_cell_angle_gamma 127.660188
_cell_volume 324.761286
_symmetry_space_group_name_H-M "P 1"
_symmetry_group_IT_number 1
_symmetry_cell_setting 'triclinic'
loop_
_space_group_symop_operation_xyz
x,y,z
loop_
_atom_site_type_symbol
_atom_site_label
_atom_site_fract_x
_atom_site_fract_y
_atom_site_fract_z
Si Si1 0.585150 0.719030 0.556910
Si Si2 0.533107 0.945887 0.107388
Si Si3 0.621274 0.234843 0.943928
Si Si4 0.107433 0.588728 0.862213
Si Si5 0.059894 0.813199 0.299356
Si Si6 0.831762 0.104837 0.422744
Si Si7 0.018295 0.059439 0.007643
Si Si8 0.492152 0.410598 0.844978
O O1 0.342947 0.536827 0.651650
O O2 0.814514 0.649363 0.422978
O O3 0.576963 0.974150 0.762594
O O4 0.647439 0.825342 0.416407
O O5 0.542073 0.691258 0.904140
O O6 0.516495 0.158860 0.116731
O O7 0.279946 0.856818 0.280818
O O8 0.772956 0.027674 0.075474
O O9 0.523841 0.405911 0.987445
O O10 0.885621 0.359561 0.870765
O O11 0.105149 0.700030 0.070464
O O12 0.072049 0.798884 0.880714
O O13 0.000758 0.069516 0.421740
O O14 0.684633 0.293385 0.618765
O O15 0.982160 0.157527 0.225393
O O16 0.235798 0.241670 0.890871
#
# Coordination Sequence:
#
# PCOD9000516 Si02
#       8
#     1   1   1   1   1   1   1   1
#     4   9  19  41  66  88 130 172 212 254 321 379
#     4  12  25  41  68 100 129 168 218 263 324 379
#     4  11  22  42  67  96 126 174 210 260 323 382
#     4  11  19  41  69  91 130 174 210 261 324 381
#     4   9  20  41  64  91 133 167 210 267 314 381
#     4   8  19  41  67  88 127 173 210 260 318 377
#     4  11  21  41  63  99 129 164 219 262 319 383
#     4  11  23  46  68  89 134 174 207 269 319 378
#
# _framework density 24.633479000000001
#
# number of rings (size 3 to 8) (size 9 to 14) (size 15 to 20)
#    0.750    1.000    5.000    0.750    1.750    0.000 
#    6.750    2.500    0.000    0.000    0.000    0.000 
#    0.000    0.000    0.000    0.000    0.000    0.000 
#
# Total GULP energy -44599.831019 kJ/mol
# GULP energy per Si atom -5574.978877 kJ/mol
# Density = 2.457741 g / cm^3
# Si number density = 24.633479 Si / 1000 Ang^3
#
#
#
# Elastic Constant Matrix: (Units=GPa)
#
#
# Indices 1 2 3 4 5 6 
#
# 1 97.1010 10.9801 17.7993 -9.5532 -34.9725 16.1658
# 2 10.9801 74.2590 9.9979 -13.5257 -10.2694 10.2839
# 3 17.7993 9.9979 89.3411 -24.4966 -36.1965 9.2854
# 4 -9.5532 -13.5257 -24.4966 30.0697 11.5605 -13.3447
# 5 -34.9725 -10.2694 -36.1965 11.5605 40.0168 -13.7591
# 6 16.1658 10.2839 9.2854 -13.3447 -13.7591 44.6883
#
#
#
# Elastic Compliance Matrix: (Units=1/GPa)
#
#
# Indices 1 2 3 4 5 6 
#
# 1 0.015958 -0.000181 0.004219 0.001486 0.016964 -0.000941
# 2 -0.000181 0.014965 0.001266 0.006249 0.002697 -0.000945
# 3 0.004219 0.001266 0.022308 0.013642 0.021732 0.004312
# 4 0.001486 0.006249 0.013642 0.051175 0.004539 0.011869
# 5 0.016964 0.002697 0.021732 0.004539 0.062007 0.009174
# 6 -0.000941 -0.000945 0.004312 0.011869 0.009174 0.028408
#
#
# Mechanical properties :
#
#
# Convention : Reuss Voigt Hill
#
# Bulk Modulus (GPa) = 15.66455 37.58395 26.62425
# Shear Modulus (GPa) = 24.33185 37.74987 31.04086
#
# Velocity S-wave (km/s) = 3.14627 3.91891 3.55365
# Velocity P-wave (km/s) = 4.42397 5.98060 5.26018
#
# Compressibility (1/GPa) = 0.06383840
#
# Stress axis : x y z
#
# Youngs Moduli (GPa) = 62.66361 66.82390 44.82760
#
# Poissons Ratio (x) = 0.01207 -0.18913
# Poissons Ratio (y) = 0.01132 -0.05673
# Poissons Ratio (z) = -0.26438 -0.08457
#
# Static dielectric constant tensor:
#      x y z
#    x 2.022140 0.006280 0.021860 
#    y 0.006280 1.969210 -0.014540 
#    z 0.021860 -0.014540 2.001930 
# 
# From -- ./inp_files/5587.got.cif
#   From: 2010.05.17/outbox.cif.g08.bks.cpg/sg1_3_cif.got.tgz:5587.got - 2010.05.17 20:27:59.
