data_PCOD9000170
_publ_section_title
;
Structure prediction by ZEFSAII (Michael W. Deem and Ramdas Pophale) SiO2 
 PCOD9000170
Probable space group: P 1
;
_chemical_formula_sum "Si O2"
_cell_formula_units_Z 8
_cell_length_a 8.071879
_cell_length_b 10.354091
_cell_length_c 11.987268
_cell_angle_alpha 146.785463
_cell_angle_beta 142.881130
_cell_angle_gamma 45.770169
_cell_volume 329.775350
_symmetry_space_group_name_H-M "P 1"
_symmetry_group_IT_number 1
_symmetry_cell_setting 'triclinic'
loop_
_space_group_symop_operation_xyz
x,y,z
loop_
_atom_site_type_symbol
_atom_site_label
_atom_site_fract_x
_atom_site_fract_y
_atom_site_fract_z
Si Si1 0.684520 0.168490 0.615330
Si Si2 0.026095 0.775743 0.255628
Si Si3 0.196502 0.280822 0.069172
Si Si4 0.799874 0.274320 0.444421
Si Si5 0.111320 0.818083 0.788657
Si Si6 0.539183 0.712976 0.320300
Si Si7 0.553271 0.586080 0.712693
Si Si8 0.359996 0.457165 0.833604
O O1 0.514476 0.320273 0.541602
O O2 0.594513 0.307827 0.782526
O O3 0.602282 0.909977 0.405001
O O4 0.009766 0.199851 0.808453
O O5 0.114803 0.565468 0.239885
O O6 0.289554 0.782892 0.321236
O O7 0.892588 0.041320 0.402165
O O8 0.785188 0.681393 0.983571
O O9 0.526956 0.231519 0.196445
O O10 0.115059 0.101634 0.993180
O O11 0.695580 0.524241 0.627694
O O12 0.087159 0.319250 0.576203
O O13 0.276833 0.739229 0.706561
O O14 0.277150 0.697731 0.893920
O O15 0.817980 0.711350 0.541648
O O16 0.450841 0.501327 0.041235
#
# Coordination Sequence:
#
# PCOD9000170 Si02
#       8
#     1   1   1   1   1   1   1   1
#     4   9  22  40  62  93 131 166 219 272 321 394
#     4  11  22  44  64  96 137 171 218 281 325 398
#     4  10  23  41  67  93 132 174 216 279 327 385
#     4  12  23  41  68  97 132 174 220 270 338 394
#     4  10  23  45  68 100 134 170 231 274 327 404
#     4  11  22  41  68  94 135 176 217 275 337 385
#     4  10  22  41  63  98 128 172 217 270 333 389
#     4  11  23  41  68  97 131 179 218 271 336 393
#
# _framework density 24.258939999999999
#
# number of rings (size 3 to 8) (size 9 to 14) (size 15 to 20)
#    0.000    1.500    3.750    0.750    3.500    0.000 
#    4.500    0.000    0.000    0.000    0.000    0.000 
#    0.000    0.000    0.000    0.000    0.000    0.000 
#
# Total GULP energy -44581.709239 kJ/mol
# GULP energy per Si atom -5572.713655 kJ/mol
# Density = 2.420373 g / cm^3
# Si number density = 24.258940 Si / 1000 Ang^3
#
#
#
# Elastic Constant Matrix: (Units=GPa)
#
#
# Indices 1 2 3 4 5 6 
#
# 1 47.8363 10.9474 31.4222 -16.1026 6.2161 -26.4937
# 2 10.9474 121.0873 41.3350 3.1014 6.2100 -7.1488
# 3 31.4222 41.3350 116.3355 -27.5831 13.4973 -9.0158
# 4 -16.1026 3.1014 -27.5831 33.5039 0.0738 16.5899
# 5 6.2161 6.2100 13.4973 0.0738 39.4038 -3.1200
# 6 -26.4937 -7.1488 -9.0158 16.5899 -3.1200 36.6830
#
#
#
# Elastic Compliance Matrix: (Units=1/GPa)
#
#
# Indices 1 2 3 4 5 6 
#
# 1 0.043362 0.001583 -0.010499 -0.002942 -0.001090 0.030284
# 2 0.001583 0.010477 -0.005535 -0.007330 0.000419 0.005175
# 3 -0.010499 -0.005535 0.016479 0.014815 -0.004067 -0.011657
# 4 -0.002942 -0.007330 0.014815 0.053486 -0.005501 -0.024569
# 5 -0.001090 0.000419 -0.004067 -0.005501 0.027132 0.003090
# 6 0.030284 0.005175 -0.011657 -0.024569 0.003090 0.058650
#
#
# Mechanical properties :
#
#
# Convention : Reuss Voigt Hill
#
# Bulk Modulus (GPa) = 24.14539 50.29647 37.22093
# Shear Modulus (GPa) = 19.81806 35.35511 27.58659
#
# Velocity S-wave (km/s) = 2.86131 3.82174 3.37586
# Velocity P-wave (km/s) = 4.57066 6.34448 5.52917
#
# Compressibility (1/GPa) = 0.04141577
#
# Stress axis : x y z
#
# Youngs Moduli (GPa) = 23.06152 95.44935 60.68223
#
# Poissons Ratio (x) = -0.15107 0.63708
# Poissons Ratio (y) = -0.03650 0.33590
# Poissons Ratio (z) = 0.24211 0.52835
#
# Static dielectric constant tensor:
#      x y z
#    x 1.935200 0.035430 0.009000 
#    y 0.035430 1.994200 0.015340 
#    z 0.009000 0.015340 1.984510 
# 
# From -- ./inp_files/2420.got.cif
#   From: 2010.05.17/outbox.cif.g08.bks.cpg/sg1_2_cif.got.tgz:2420.got - 2010.05.17 20:27:59.
