data_PCOD9000282
_publ_section_title
;
Structure prediction by ZEFSAII (Michael W. Deem and Ramdas Pophale) SiO2 
 PCOD9000282
Probable space group: P 1
;
_chemical_formula_sum "Si O2"
_cell_formula_units_Z 8
_cell_length_a 9.473769
_cell_length_b 5.182907
_cell_length_c 6.828043
_cell_angle_alpha 107.472222
_cell_angle_beta 104.664345
_cell_angle_gamma 102.807575
_cell_volume 292.842277
_symmetry_space_group_name_H-M "P 1"
_symmetry_group_IT_number 1
_symmetry_cell_setting 'triclinic'
loop_
_space_group_symop_operation_xyz
x,y,z
loop_
_atom_site_type_symbol
_atom_site_label
_atom_site_fract_x
_atom_site_fract_y
_atom_site_fract_z
Si Si1 0.335370 0.097170 0.690630
Si Si2 0.107807 0.194982 0.923662
Si Si3 0.383114 0.579443 0.576196
Si Si4 0.609646 0.038610 0.965349
Si Si5 0.841717 0.694720 0.875723
Si Si6 0.651101 0.556593 0.394923
Si Si7 0.916654 0.085288 0.453503
Si Si8 0.998735 0.547360 0.244046
O O1 0.263617 0.184870 0.877830
O O2 0.306967 0.256939 0.528974
O O3 0.520036 0.148825 0.783983
O O4 0.268183 0.758375 0.560893
O O5 0.997154 0.223617 0.713711
O O6 0.118053 0.443814 0.135311
O O7 0.012834 0.894949 0.922221
O O8 0.499110 0.599972 0.444596
O O9 0.473811 0.723468 0.843826
O O10 0.751380 0.919579 0.950918
O O11 0.753948 0.538251 0.617204
O O12 0.856421 0.505654 0.022329
O O13 0.619063 0.268610 0.190815
O O14 0.748195 0.851988 0.386303
O O15 0.943686 0.330285 0.357108
O O16 0.007787 0.864736 0.379655
#
# Coordination Sequence:
#
# PCOD9000282 Si02
#       8
#     1   1   1   1   1   1   1   1
#     4  10  24  49  72 103 150 197 236 305 363 433
#     4  11  26  49  78 107 152 192 246 305 371 431
#     4   9  23  46  68 103 144 192 240 296 354 430
#     4   9  22  47  72 105 146 188 242 301 362 437
#     4  10  23  45  74 111 148 190 239 313 366 429
#     4  10  22  46  75 108 145 193 243 297 371 435
#     4  11  28  45  73 115 144 193 246 304 376 434
#     4  12  26  47  68 114 151 189 240 309 363 445
#
# _framework density 27.318460000000002
#
# number of rings (size 3 to 8) (size 9 to 14) (size 15 to 20)
#    0.750    1.000    1.250    0.750    5.250    5.000 
#    6.750    0.000    0.000    0.000    0.000    0.000 
#    0.000    0.000    0.000    0.000    0.000    0.000 
#
# Total GULP energy -44723.146760 kJ/mol
# GULP energy per Si atom -5590.393345 kJ/mol
# Density = 2.725628 g / cm^3
# Si number density = 27.318460 Si / 1000 Ang^3
#
#
#
# Elastic Constant Matrix: (Units=GPa)
#
#
# Indices 1 2 3 4 5 6 
#
# 1 138.0880 57.7851 16.9937 6.0947 -48.0587 -5.1709
# 2 57.7851 209.7790 50.3391 -25.9685 -28.4285 -7.3716
# 3 16.9937 50.3391 168.8811 22.8695 -26.7901 4.8905
# 4 6.0947 -25.9685 22.8695 53.7047 -3.6318 -7.5830
# 5 -48.0587 -28.4285 -26.7901 -3.6318 48.4327 10.9591
# 6 -5.1709 -7.3716 4.8905 -7.5830 10.9591 40.9812
#
#
#
# Elastic Compliance Matrix: (Units=1/GPa)
#
#
# Indices 1 2 3 4 5 6 
#
# 1 0.012464 -0.002760 0.002050 -0.003220 0.012333 -0.003062
# 2 -0.002760 0.006785 -0.002521 0.004955 -0.000268 0.002162
# 3 0.002050 -0.002521 0.008121 -0.005042 0.005474 -0.003561
# 4 -0.003220 0.004955 -0.005042 0.024235 -0.002682 0.006288
# 5 0.012333 -0.000268 0.005474 -0.002682 0.037758 -0.009739
# 6 -0.003062 0.002162 -0.003561 0.006288 -0.009739 0.028597
#
#
# Mechanical properties :
#
#
# Convention : Reuss Voigt Hill
#
# Bulk Modulus (GPa) = 47.82937 85.22045 66.52491
# Shear Modulus (GPa) = 38.05420 54.73242 46.39331
#
# Velocity S-wave (km/s) = 3.73632 4.48090 4.12544
# Velocity P-wave (km/s) = 6.01328 7.61802 6.86272
#
# Compressibility (1/GPa) = 0.02090765
#
# Stress axis : x y z
#
# Youngs Moduli (GPa) = 80.22902 147.38241 123.14231
#
# Poissons Ratio (x) = 0.40680 -0.25241
# Poissons Ratio (y) = 0.22144 0.31042
# Poissons Ratio (z) = -0.16445 0.37152
#
# Static dielectric constant tensor:
#      x y z
#    x 2.305860 -0.009540 0.141700 
#    y -0.009540 2.192130 0.021450 
#    z 0.141700 0.021450 2.207160 
# 
# From -- ./inp_files/3249.got.cif
#   From: 2010.05.17/outbox.cif.g08.bks.cpg/sg1_2_cif.got.tgz:3249.got - 2010.05.17 20:27:59.
