data_PCOD9000206
_publ_section_title
;
Structure prediction by ZEFSAII (Michael W. Deem and Ramdas Pophale) SiO2 
 PCOD9000206
Probable space group: P 1
;
_chemical_formula_sum "Si O2"
_cell_formula_units_Z 8
_cell_length_a 9.683288
_cell_length_b 9.426971
_cell_length_c 5.255345
_cell_angle_alpha 103.655108
_cell_angle_beta 108.755857
_cell_angle_gamma 121.869134
_cell_volume 333.045188
_symmetry_space_group_name_H-M "P 1"
_symmetry_group_IT_number 1
_symmetry_cell_setting 'triclinic'
loop_
_space_group_symop_operation_xyz
x,y,z
loop_
_atom_site_type_symbol
_atom_site_label
_atom_site_fract_x
_atom_site_fract_y
_atom_site_fract_z
Si Si1 0.913160 0.840550 0.911360
Si Si2 0.251690 0.577492 0.210446
Si Si3 0.673424 0.422838 0.386849
Si Si4 0.257757 0.739386 0.781738
Si Si5 0.226584 0.978432 0.522702
Si Si6 0.636088 0.909484 0.828407
Si Si7 0.662185 0.230296 0.785376
Si Si8 0.239893 0.232361 0.978511
O O1 0.797225 0.650180 0.590545
O O2 0.769741 0.863632 0.965080
O O3 0.063881 0.039123 0.932790
O O4 0.037111 0.833505 0.186522
O O5 0.191746 0.640926 0.970691
O O6 0.213083 0.386301 0.038917
O O7 0.172279 0.583731 0.435631
O O8 0.482715 0.746158 0.463149
O O9 0.726363 0.344121 0.608885
O O10 0.692521 0.358414 0.097013
O O11 0.449225 0.323309 0.249343
O O12 0.217763 0.877853 0.733362
O O13 0.490144 0.868898 0.945392
O O14 0.427086 0.058038 0.551617
O O15 0.241870 0.159897 0.670383
O O16 0.736360 0.118233 0.856960
#
# Coordination Sequence:
#
# PCOD9000206 Si02
#       8
#     1   1   1   1   1   1   1   1
#     4  12  25  46  68 108 139 179 228 293 340 409
#     4  10  22  42  71  98 135 185 227 273 342 413
#     4  11  24  46  72  97 139 182 230 279 344 407
#     4   9  22  42  72  96 132 187 226 273 343 399
#     4  10  24  41  73  99 142 176 234 284 339 404
#     4   9  23  41  71 100 140 178 229 280 345 404
#     4  10  23  45  71  98 136 187 228 277 343 409
#     4  11  25  43  68 106 135 186 226 283 344 409
#
# _framework density 24.020766999999999
#
# number of rings (size 3 to 8) (size 9 to 14) (size 15 to 20)
#    0.750    1.000    2.500    0.000   10.500    3.000 
#    2.250    0.000    0.000    0.000    0.000    0.000 
#    0.000    0.000    0.000    0.000    0.000    0.000 
#
# Total GULP energy -44747.891526 kJ/mol
# GULP energy per Si atom -5593.486441 kJ/mol
# Density = 2.396609 g / cm^3
# Si number density = 24.020767 Si / 1000 Ang^3
#
#
#
# Elastic Constant Matrix: (Units=GPa)
#
#
# Indices 1 2 3 4 5 6 
#
# 1 89.9122 20.9816 32.9055 8.8728 8.2519 -21.1298
# 2 20.9816 91.4735 45.2989 14.3839 6.3745 -19.9492
# 3 32.9055 45.2989 104.0055 6.0819 -1.0769 -8.1611
# 4 8.8728 14.3839 6.0819 47.8719 -1.5544 -7.9694
# 5 8.2519 6.3745 -1.0769 -1.5544 25.3734 9.0738
# 6 -21.1298 -19.9492 -8.1611 -7.9694 9.0738 38.1340
#
#
#
# Elastic Compliance Matrix: (Units=1/GPa)
#
#
# Indices 1 2 3 4 5 6 
#
# 1 0.016215 0.002253 -0.005255 -0.001489 -0.010137 0.011139
# 2 0.002253 0.017534 -0.007439 -0.003320 -0.009363 0.010363
# 3 -0.005255 -0.007439 0.014139 0.000768 0.006032 -0.005053
# 4 -0.001489 -0.003320 0.000768 0.022431 0.002083 0.001794
# 5 -0.010137 -0.009363 0.006032 0.002083 0.053106 -0.021425
# 6 0.011139 0.010363 -0.005053 0.001794 -0.021425 0.042208
#
#
# Mechanical properties :
#
#
# Convention : Reuss Voigt Hill
#
# Bulk Modulus (GPa) = 37.03066 53.75147 45.39106
# Shear Modulus (GPa) = 25.57328 34.68956 30.13142
#
# Velocity S-wave (km/s) = 3.26641 3.80432 3.54558
# Velocity P-wave (km/s) = 5.44752 6.45932 5.97487
#
# Compressibility (1/GPa) = 0.02700465
#
# Stress axis : x y z
#
# Youngs Moduli (GPa) = 61.67302 57.03265 70.72776
#
# Poissons Ratio (x) = -0.12851 0.37168
# Poissons Ratio (y) = -0.13896 0.52616
# Poissons Ratio (z) = 0.32410 0.42428
#
# Static dielectric constant tensor:
#      x y z
#    x 1.946660 0.041540 0.001360 
#    y 0.041540 1.886470 0.011400 
#    z 0.001360 0.011400 1.925960 
# 
# From -- ./inp_files/2238.got.cif
#   From: 2010.05.17/outbox.cif.g08.bks.cpg/sg1_2_cif.got.tgz:2238.got - 2010.05.17 20:27:59.
