data_PCOD9000028
_publ_section_title
;
Structure prediction by ZEFSAII (Michael W. Deem and Ramdas Pophale) SiO2 
 PCOD9000028
Probable space group: P 1
;
_chemical_formula_sum "Si O2"
_cell_formula_units_Z 8
_cell_length_a 5.306759
_cell_length_b 8.854941
_cell_length_c 10.395116
_cell_angle_alpha 52.226716
_cell_angle_beta 63.417516
_cell_angle_gamma 71.700090
_cell_volume 344.746630
_symmetry_space_group_name_H-M "P 1"
_symmetry_group_IT_number 1
_symmetry_cell_setting 'triclinic'
loop_
_space_group_symop_operation_xyz
x,y,z
loop_
_atom_site_type_symbol
_atom_site_label
_atom_site_fract_x
_atom_site_fract_y
_atom_site_fract_z
Si Si1 0.758160 0.796590 0.180330
Si Si2 0.162137 0.264102 0.054423
Si Si3 0.655948 0.493522 0.933084
Si Si4 0.396628 0.741351 0.060410
Si Si5 0.528720 0.407490 0.390232
Si Si6 0.433656 0.825708 0.498369
Si Si7 0.883858 0.023291 0.439458
Si Si8 0.192211 0.421294 0.709431
O O1 0.597298 0.847462 0.057488
O O2 0.732436 0.566696 0.314664
O O3 0.083811 0.834539 0.079765
O O4 0.588040 0.873834 0.303012
O O5 0.402727 0.356883 0.034546
O O6 0.253788 0.258552 0.887477
O O7 0.884734 0.411493 0.029532
O O8 0.051842 0.078953 0.242549
O O9 0.860136 0.479948 0.769465
O O10 0.528020 0.691843 0.917179
O O11 0.388154 0.528510 0.240553
O O12 0.709108 0.214455 0.422035
O O13 0.295414 0.374043 0.568841
O O14 0.655772 0.875009 0.529464
O O15 0.134725 0.946431 0.514922
O O16 0.348877 0.607793 0.623675
#
# Coordination Sequence:
#
# PCOD9000028 Si02
#       8
#     1   1   1   1   1   1   1   1
#     4   9  20  35  60  86 117 157 210 243 291 358
#     4  10  21  38  62  88 119 166 205 244 296 376
#     4  10  19  35  63  91 116 154 213 249 291 348
#     4  10  17  33  63  89 111 147 223 248 274 347
#     4   9  20  36  63  88 118 160 213 244 292 366
#     4  11  25  39  63  92 131 157 198 260 320 355
#     4  12  23  39  65  94 124 157 207 259 312 349
#     4   9  23  41  65  88 124 166 209 243 304 375
#
# _framework density 23.205448000000001
#
# number of rings (size 3 to 8) (size 9 to 14) (size 15 to 20)
#    1.500    0.500    1.250    3.000    3.500    1.000 
#    0.000    0.000    8.250    0.000    0.000    0.000 
#    0.000    0.000    0.000    0.000    0.000    0.000 
#
# Total GULP energy -44624.346157 kJ/mol
# GULP energy per Si atom -5578.043270 kJ/mol
# Density = 2.315263 g / cm^3
# Si number density = 23.205448 Si / 1000 Ang^3
#
#
#
# Elastic Constant Matrix: (Units=GPa)
#
#
# Indices 1 2 3 4 5 6 
#
# 1 171.3565 40.7256 29.3507 6.9419 -28.8474 -17.3062
# 2 40.7256 76.3629 23.1244 8.9650 -1.9591 -15.2566
# 3 29.3507 23.1244 90.5181 19.4560 0.2114 -6.8476
# 4 6.9419 8.9650 19.4560 29.5328 -1.2926 -1.6153
# 5 -28.8474 -1.9591 0.2114 -1.2926 18.9403 1.5406
# 6 -17.3062 -15.2566 -6.8476 -1.6153 1.5406 28.4346
#
#
#
# Elastic Compliance Matrix: (Units=1/GPa)
#
#
# Indices 1 2 3 4 5 6 
#
# 1 0.009757 -0.003744 -0.002280 0.001119 0.014359 0.002667
# 2 -0.003744 0.017246 -0.002076 -0.002831 -0.004622 0.006564
# 3 -0.002280 -0.002076 0.014169 -0.008327 -0.004469 0.000680
# 4 0.001119 -0.002831 -0.008327 0.040087 0.004305 -0.000799
# 5 0.014359 -0.004622 -0.004469 0.004305 0.074418 0.001396
# 6 0.002667 0.006564 0.000680 -0.000799 0.001396 0.040356
#
#
# Mechanical properties :
#
#
# Convention : Reuss Voigt Hill
#
# Bulk Modulus (GPa) = 40.04341 58.29320 49.16830
# Shear Modulus (GPa) = 22.66993 31.71735 27.19364
#
# Velocity S-wave (km/s) = 3.12897 3.70105 3.42696
# Velocity P-wave (km/s) = 5.50885 6.59080 6.07396
#
# Compressibility (1/GPa) = 0.02497290
#
# Stress axis : x y z
#
# Youngs Moduli (GPa) = 102.48852 57.98511 70.57822
#
# Poissons Ratio (x) = 0.21707 0.16090
# Poissons Ratio (y) = 0.38367 0.14652
# Poissons Ratio (z) = 0.23365 0.12038
#
# Static dielectric constant tensor:
#      x y z
#    x 1.849750 -0.009370 0.026460 
#    y -0.009370 1.845180 0.002130 
#    z 0.026460 0.002130 1.908990 
# 
# From -- ./inp_files/1380.got.cif
#   From: 2010.05.17/outbox.cif.g08.bks.cpg/sg1_1_cif.got.tgz:1380.got - 2010.05.17 20:27:59.
