data_PCOD9000112
_publ_section_title
;
Structure prediction by ZEFSAII (Michael W. Deem and Ramdas Pophale) SiO2 
 PCOD9000112
Probable space group: P 1
;
_chemical_formula_sum "Si O2"
_cell_formula_units_Z 8
_cell_length_a 8.188547
_cell_length_b 8.171932
_cell_length_c 7.258606
_cell_angle_alpha 51.120209
_cell_angle_beta 73.805207
_cell_angle_gamma 101.104749
_cell_volume 316.160577
_symmetry_space_group_name_H-M "P 1"
_symmetry_group_IT_number 1
_symmetry_cell_setting 'triclinic'
loop_
_space_group_symop_operation_xyz
x,y,z
loop_
_atom_site_type_symbol
_atom_site_label
_atom_site_fract_x
_atom_site_fract_y
_atom_site_fract_z
Si Si1 0.623580 0.200190 0.602800
Si Si2 0.021925 0.757559 0.395589
Si Si3 0.399057 0.471836 0.526891
Si Si4 0.176856 0.244506 0.210063
Si Si5 0.018659 0.316033 0.573367
Si Si6 0.876426 0.379172 0.039370
Si Si7 0.528043 0.698556 0.926991
Si Si8 0.693206 0.847854 0.405108
O O1 0.490289 0.300061 0.655393
O O2 0.787660 0.207101 0.685816
O O3 0.745169 0.357797 0.273878
O O4 0.486175 0.923003 0.780918
O O5 0.089890 0.606468 0.350306
O O6 0.850557 0.779123 0.327781
O O7 0.936331 0.582229 0.724931
O O8 0.156293 0.021049 0.256148
O O9 0.502533 0.615474 0.204219
O O10 0.482113 0.676879 0.510141
O O11 0.165680 0.323979 0.681096
O O12 0.394068 0.447308 0.044037
O O13 0.078381 0.191361 0.480627
O O14 0.065029 0.372634 0.062067
O O15 0.755225 0.121985 0.158454
O O16 0.708613 0.820526 0.641065
#
# Coordination Sequence:
#
# PCOD9000112 Si02
#       8
#     1   1   1   1   1   1   1   1
#     4  10  21  45  68  92 133 173 217 272 334 386
#     4  11  21  43  66  94 132 175 216 272 330 388
#     4  11  23  42  65  99 130 176 216 267 337 388
#     4   9  22  43  62  96 135 170 220 272 325 393
#     4  10  23  42  64  97 130 167 224 266 318 402
#     4   9  21  39  68  93 126 179 212 271 336 380
#     4  10  23  43  65  96 137 169 218 282 318 394
#     4  10  22  41  64  97 131 167 225 266 326 401
#
# _framework density 25.303594
#
# number of rings (size 3 to 8) (size 9 to 14) (size 15 to 20)
#    0.000    2.000    1.250    1.500    3.500    2.000 
#   11.250    2.500    0.000    0.000    0.000    0.000 
#    0.000    0.000    0.000    0.000    0.000    0.000 
#
# Total GULP energy -44594.623482 kJ/mol
# GULP energy per Si atom -5574.327935 kJ/mol
# Density = 2.524600 g / cm^3
# Si number density = 25.303594 Si / 1000 Ang^3
#
#
#
# Elastic Constant Matrix: (Units=GPa)
#
#
# Indices 1 2 3 4 5 6 
#
# 1 73.2008 14.9488 16.4488 -11.2231 -7.7567 5.1717
# 2 14.9488 104.2982 25.1679 -17.2228 -7.8642 14.9565
# 3 16.4488 25.1679 97.4732 8.3684 -3.0706 0.7416
# 4 -11.2231 -17.2228 8.3684 57.5063 1.4767 5.1739
# 5 -7.7567 -7.8642 -3.0706 1.4767 11.4759 -0.2521
# 6 5.1717 14.9565 0.7416 5.1739 -0.2521 40.3717
#
#
#
# Elastic Compliance Matrix: (Units=1/GPa)
#
#
# Indices 1 2 3 4 5 6 
#
# 1 0.015979 -0.000008 -0.002673 0.003473 0.009581 -0.002380
# 2 -0.000008 0.012372 -0.003321 0.004464 0.006899 -0.005050
# 3 -0.002673 -0.003321 0.011831 -0.003387 -0.000441 0.001787
# 4 0.003473 0.004464 -0.003387 0.020267 0.001791 -0.004623
# 5 0.009581 0.006899 -0.000441 0.001791 0.097919 -0.003393
# 6 -0.002380 -0.005050 0.001787 -0.004623 -0.003393 0.027484
#
#
# Mechanical properties :
#
#
# Convention : Reuss Voigt Hill
#
# Bulk Modulus (GPa) = 35.48713 43.12258 39.30485
# Shear Modulus (GPa) = 24.12566 36.43123 30.27845
#
# Velocity S-wave (km/s) = 3.09114 3.79854 3.46295
# Velocity P-wave (km/s) = 5.17641 6.02641 5.61751
#
# Compressibility (1/GPa) = 0.02817923
#
# Stress axis : x y z
#
# Youngs Moduli (GPa) = 62.58156 80.82813 84.52410
#
# Poissons Ratio (x) = 0.00065 0.22591
# Poissons Ratio (y) = 0.00051 0.28067
# Poissons Ratio (z) = 0.16726 0.26840
#
# Static dielectric constant tensor:
#      x y z
#    x 2.000580 -0.001810 -0.027070 
#    y -0.001810 2.035840 0.051100 
#    z -0.027070 0.051100 2.076540 
# 
# From -- ./inp_files/2992.got.cif
#   From: 2010.05.17/outbox.cif.g08.bks.cpg/sg1_2_cif.got.tgz:2992.got - 2010.05.17 20:27:59.
