data_PCOD9000387
_publ_section_title
;
Structure prediction by ZEFSAII (Michael W. Deem and Ramdas Pophale) SiO2 
 PCOD9000387
Probable space group: P 1
;
_chemical_formula_sum "Si O2"
_cell_formula_units_Z 8
_cell_length_a 8.171818
_cell_length_b 13.854817
_cell_length_c 11.000125
_cell_angle_alpha 30.329572
_cell_angle_beta 136.555176
_cell_angle_gamma 147.118466
_cell_volume 341.432047
_symmetry_space_group_name_H-M "P 1"
_symmetry_group_IT_number 1
_symmetry_cell_setting 'triclinic'
loop_
_space_group_symop_operation_xyz
x,y,z
loop_
_atom_site_type_symbol
_atom_site_label
_atom_site_fract_x
_atom_site_fract_y
_atom_site_fract_z
Si Si1 0.877720 0.359300 0.263110
Si Si2 0.785298 0.748727 0.797000
Si Si3 0.664549 0.949068 0.748640
Si Si4 0.881453 0.147728 0.084144
Si Si5 0.864984 0.489348 0.539056
Si Si6 0.573880 0.708526 0.211649
Si Si7 0.485344 0.936796 0.315025
Si Si8 0.307142 0.079870 0.533241
O O1 0.212599 0.538828 0.196044
O O2 0.896299 0.230157 0.530004
O O3 0.647812 0.136943 0.291195
O O4 0.749007 0.505767 0.057488
O O5 0.702814 0.816004 0.804600
O O6 0.591691 0.768261 0.571097
O O7 0.115593 0.937388 0.707083
O O8 0.360123 0.926816 0.635915
O O9 0.699862 0.855619 0.993994
O O10 0.142590 0.172991 0.274828
O O11 0.716713 0.908413 0.174596
O O12 0.622281 0.087522 0.102607
O O13 0.984490 0.372680 0.811118
O O14 0.676954 0.542707 0.462088
O O15 0.632504 0.298185 0.521918
O O16 0.132593 0.744055 0.348536
#
# Coordination Sequence:
#
# PCOD9000387 Si02
#       8
#     1   1   1   1   1   1   1   1
#     4  11  25  48  76 109 154 203 246 311 379 443
#     4  10  23  47  77 111 151 197 249 311 379 442
#     4  11  25  44  79 114 144 199 250 304 379 443
#     4  11  27  49  74 111 152 199 248 316 374 443
#     4  12  27  48  74 111 149 201 251 303 378 447
#     4  12  27  45  76 115 152 197 256 307 377 453
#     4  10  27  45  71 113 148 196 258 304 371 449
#     4  11  25  52  77 108 158 196 252 312 375 446
#
# _framework density 23.430726
#
# number of rings (size 3 to 8) (size 9 to 14) (size 15 to 20)
#    0.000    1.000    2.500    2.250    8.750    7.000 
#    0.000    0.000    0.000    0.000    0.000    0.000 
#    0.000    0.000    0.000    0.000    0.000    0.000 
#
# Total GULP energy -44717.691833 kJ/mol
# GULP energy per Si atom -5589.711479 kJ/mol
# Density = 2.337740 g / cm^3
# Si number density = 23.430726 Si / 1000 Ang^3
#
#
#
# Elastic Constant Matrix: (Units=GPa)
#
#
# Indices 1 2 3 4 5 6 
#
# 1 142.1067 46.5025 34.9969 -11.1649 -1.9798 -3.3918
# 2 46.5025 68.9829 49.0464 -3.0853 -16.4905 3.2386
# 3 34.9969 49.0464 134.2602 -6.4971 8.4479 -0.5265
# 4 -11.1649 -3.0853 -6.4971 25.2329 0.1712 2.1610
# 5 -1.9798 -16.4905 8.4479 0.1712 53.4891 -3.2531
# 6 -3.3918 3.2386 -0.5265 2.1610 -3.2531 29.4712
#
#
#
# Elastic Compliance Matrix: (Units=1/GPa)
#
#
# Indices 1 2 3 4 5 6 
#
# 1 0.009516 -0.007020 0.000364 0.003335 -0.001793 0.001431
# 2 -0.007020 0.028094 -0.009142 -0.001846 0.009678 -0.002855
# 3 0.000364 -0.009142 0.011071 0.001872 -0.004523 0.000608
# 4 0.003335 -0.001846 0.001872 0.041588 -0.001029 -0.002543
# 5 -0.001793 0.009678 -0.004523 -0.001029 0.022403 0.001198
# 6 0.001431 -0.002855 0.000608 -0.002543 0.001198 0.034739
#
#
# Mechanical properties :
#
#
# Convention : Reuss Voigt Hill
#
# Bulk Modulus (GPa) = 58.53772 67.38236 62.96004
# Shear Modulus (GPa) = 27.07059 35.95892 31.51476
#
# Velocity S-wave (km/s) = 3.40273 3.92176 3.67143
# Velocity P-wave (km/s) = 6.36204 7.02336 6.70086
#
# Compressibility (1/GPa) = 0.01708300
#
# Stress axis : x y z
#
# Youngs Moduli (GPa) = 105.08831 35.59493 90.32812
#
# Poissons Ratio (x) = 0.24988 -0.03287
# Poissons Ratio (y) = 0.73774 0.82582
# Poissons Ratio (z) = -0.03825 0.32543
#
# Static dielectric constant tensor:
#      x y z
#    x 1.953160 -0.000810 -0.007310 
#    y -0.000810 1.870820 0.010050 
#    z -0.007310 0.010050 1.875030 
# 
# From -- ./inp_files/6619.got.cif
#   From: 2010.05.17/outbox.cif.g08.bks.cpg/sg1_4_cif.got.tgz:6619.got - 2010.05.17 20:27:59.
