data_PCOD9000314
_publ_section_title
;
Structure prediction by ZEFSAII (Michael W. Deem and Ramdas Pophale) SiO2 
 PCOD9000314
Probable space group: P 1
;
_chemical_formula_sum "Si O2"
_cell_formula_units_Z 8
_cell_length_a 13.790665
_cell_length_b 10.996872
_cell_length_c 13.548167
_cell_angle_alpha 30.662067
_cell_angle_beta 158.533729
_cell_angle_gamma 149.154679
_cell_volume 364.439557
_symmetry_space_group_name_H-M "P 1"
_symmetry_group_IT_number 1
_symmetry_cell_setting 'triclinic'
loop_
_space_group_symop_operation_xyz
x,y,z
loop_
_atom_site_type_symbol
_atom_site_label
_atom_site_fract_x
_atom_site_fract_y
_atom_site_fract_z
Si Si1 0.085860 0.001840 0.785520
Si Si2 0.451096 0.177665 0.622222
Si Si3 0.323988 0.887667 0.501771
Si Si4 0.372975 0.032472 0.227340
Si Si5 0.896803 0.110845 0.239354
Si Si6 0.114237 0.482486 0.359606
Si Si7 0.736607 0.553181 0.123197
Si Si8 0.546860 0.762533 0.318479
O O1 0.188985 0.272626 0.641640
O O2 0.117694 0.031290 0.912816
O O3 0.781322 0.861907 0.554956
O O4 0.289081 0.854485 0.040203
O O5 0.169992 0.044164 0.510908
O O6 0.467895 0.467778 0.435244
O O7 0.419633 0.062932 0.564054
O O8 0.721811 0.154716 0.950428
O O9 0.512528 0.702158 0.803756
O O10 0.345620 0.044499 0.310831
O O11 0.003040 0.715576 0.324842
O O12 0.610510 0.273755 0.243000
O O13 0.361332 0.742174 0.405067
O O14 0.003106 0.356526 0.238414
O O15 0.693062 0.901334 0.261428
O O16 0.867461 0.534688 0.152761
#
# Coordination Sequence:
#
# PCOD9000314 Si02
#       8
#     1   1   1   1   1   1   1   1
#     4  11  23  40  68 102 136 163 210 269 329 399
#     4  12  25  45  67  94 131 177 224 262 314 387
#     4  11  28  45  64  96 131 173 229 268 307 382
#     4  11  22  42  68  91 130 177 206 264 331 372
#     4  11  24  42  69  97 133 171 208 272 330 376
#     4  10  23  42  67 104 134 163 212 267 331 400
#     4  11  25  45  67  97 131 168 220 273 322 385
#     4  11  24  43  66 101 132 168 215 265 328 395
#
# _framework density 21.951514
#
# number of rings (size 3 to 8) (size 9 to 14) (size 15 to 20)
#    0.000    1.000    0.000    7.500    0.000   11.000 
#    0.000    1.250    0.000    0.000    0.000    0.000 
#    0.000    0.000    0.000    0.000    0.000    0.000 
#
# Total GULP energy -44766.469831 kJ/mol
# GULP energy per Si atom -5595.808729 kJ/mol
# Density = 2.190155 g / cm^3
# Si number density = 21.951514 Si / 1000 Ang^3
#
#
#
# Elastic Constant Matrix: (Units=GPa)
#
#
# Indices 1 2 3 4 5 6 
#
# 1 113.9721 63.2821 19.8295 -2.2982 -35.2041 -6.4857
# 2 63.2821 115.3698 47.6778 -3.8600 -20.9834 12.4830
# 3 19.8295 47.6778 106.3431 -3.5859 -15.5252 -8.6371
# 4 -2.2982 -3.8600 -3.5859 22.9446 -5.7522 -10.6601
# 5 -35.2041 -20.9834 -15.5252 -5.7522 37.8676 11.6912
# 6 -6.4857 12.4830 -8.6371 -10.6601 11.6912 44.9947
#
#
#
# Elastic Compliance Matrix: (Units=1/GPa)
#
#
# Indices 1 2 3 4 5 6 
#
# 1 0.017043 -0.008557 0.002880 0.005370 0.012007 0.003536
# 2 -0.008557 0.017066 -0.006671 -0.002566 0.000872 -0.008083
# 3 0.002880 -0.006671 0.012897 0.004303 0.003417 0.004873
# 4 0.005370 -0.002566 0.004303 0.052445 0.009515 0.012265
# 5 0.012007 0.000872 0.003417 0.009515 0.042990 -0.006771
# 6 0.003536 -0.008083 0.004873 0.012265 -0.006771 0.030578
#
#
# Mechanical properties :
#
#
# Convention : Reuss Voigt Hill
#
# Bulk Modulus (GPa) = 44.82664 66.36265 55.59465
# Shear Modulus (GPa) = 24.37200 34.82109 29.59654
#
# Velocity S-wave (km/s) = 3.33568 3.98712 3.67586
# Velocity P-wave (km/s) = 5.94144 7.17588 6.58764
#
# Compressibility (1/GPa) = 0.02230816
#
# Stress axis : x y z
#
# Youngs Moduli (GPa) = 58.67617 58.59585 77.53528
#
# Poissons Ratio (x) = 0.50143 -0.22330
# Poissons Ratio (y) = 0.50212 0.51727
# Poissons Ratio (z) = -0.16898 0.39092
#
# Static dielectric constant tensor:
#      x y z
#    x 1.808460 0.018410 -0.008810 
#    y 0.018410 1.797390 0.004220 
#    z -0.008810 0.004220 1.803760 
# 
# From -- ./inp_files/7311.got.cif
#   From: 2010.05.17/outbox.cif.g08.bks.cpg/sg1_4_cif.got.tgz:7311.got - 2010.05.17 20:27:59.
