data_PCOD9000322
_publ_section_title
;
Structure prediction by ZEFSAII (Michael W. Deem and Ramdas Pophale) SiO2 
 PCOD9000322
Probable space group: P 1
;
_chemical_formula_sum "Si O2"
_cell_formula_units_Z 8
_cell_length_a 13.211844
_cell_length_b 5.282407
_cell_length_c 5.282338
_cell_angle_alpha 92.521910
_cell_angle_beta 63.419461
_cell_angle_gamma 112.797463
_cell_volume 300.170472
_symmetry_space_group_name_H-M "P 1"
_symmetry_group_IT_number 1
_symmetry_cell_setting 'triclinic'
loop_
_space_group_symop_operation_xyz
x,y,z
loop_
_atom_site_type_symbol
_atom_site_label
_atom_site_fract_x
_atom_site_fract_y
_atom_site_fract_z
Si Si1 0.348170 0.681790 0.756350
Si Si2 0.793038 0.679676 0.938397
Si Si3 0.111216 0.445995 0.300054
Si Si4 0.033391 0.112960 0.891136
Si Si5 0.478291 0.184878 0.999204
Si Si6 0.715251 0.115117 0.760971
Si Si7 0.228958 0.923664 0.517104
Si Si8 0.597500 0.662561 0.518835
O O1 0.266180 0.704480 0.617935
O O2 0.465093 0.619662 0.556860
O O3 0.413213 0.984619 0.826522
O O4 0.251088 0.487064 0.063976
O O5 0.796560 0.439343 0.740694
O O6 0.674670 0.551401 0.249717
O O7 0.772618 0.927885 0.829836
O O8 0.913186 0.826763 0.984362
O O9 0.141356 0.759990 0.372620
O O10 0.053853 0.262410 0.602050
O O11 0.029894 0.303638 0.138497
O O12 0.151722 0.038268 0.782687
O O13 0.560292 0.487276 0.812454
O O14 0.575368 0.071387 0.999659
O O15 0.361375 0.150536 0.295223
O O16 0.685125 0.982257 0.507252
#
# Coordination Sequence:
#
# PCOD9000322 Si02
#       8
#     1   1   1   1   1   1   1   1
#     4  10  23  42  77 116 153 200 255 322 395 471
#     4  12  30  47  78 107 152 209 264 316 386 462
#     4  11  26  50  72 112 148 203 254 325 384 461
#     4  12  30  47  78 107 152 209 264 316 386 462
#     4  10  23  42  77 116 153 200 255 322 395 471
#     4  11  26  50  72 112 148 203 254 325 384 461
#     4  11  25  47  75 112 160 197 259 321 395 462
#     4  11  25  47  75 112 160 197 259 321 395 462
#
# _framework density 26.651520999999999
#
# number of rings (size 3 to 8) (size 9 to 14) (size 15 to 20)
#    0.000    1.000    2.500    1.500   14.000    0.000 
#    0.000    1.250    0.000    0.000    0.000    0.000 
#    0.000    0.000    0.000    0.000    0.000    0.000 
#
# Total GULP energy -44790.684921 kJ/mol
# GULP energy per Si atom -5598.835615 kJ/mol
# Density = 2.659086 g / cm^3
# Si number density = 26.651521 Si / 1000 Ang^3
#
#
#
# Elastic Constant Matrix: (Units=GPa)
#
#
# Indices 1 2 3 4 5 6 
#
# 1 65.6537 27.5765 19.0136 12.3031 7.4633 -6.4536
# 2 27.5765 160.7226 38.4987 43.0919 14.9281 16.5177
# 3 19.0136 38.4987 97.2404 12.9947 13.9933 4.4680
# 4 12.3031 43.0919 12.9947 46.5688 4.6197 16.9400
# 5 7.4633 14.9281 13.9933 4.6197 34.4604 3.9391
# 6 -6.4536 16.5177 4.4680 16.9400 3.9391 43.6585
#
#
#
# Elastic Compliance Matrix: (Units=1/GPa)
#
#
# Indices 1 2 3 4 5 6 
#
# 1 0.018231 -0.001795 -0.002196 -0.004305 -0.002329 0.005479
# 2 -0.001795 0.009120 -0.002049 -0.006991 -0.001720 -0.000639
# 3 -0.002196 -0.002049 0.012095 -0.000446 -0.003454 -0.000302
# 4 -0.004305 -0.006991 -0.000446 0.033060 0.000951 -0.010860
# 5 -0.002329 -0.001720 -0.003454 0.000951 0.031838 -0.002582
# 6 0.005479 -0.000639 -0.000302 -0.010860 -0.002582 0.028434
#
#
# Mechanical properties :
#
#
# Convention : Reuss Voigt Hill
#
# Bulk Modulus (GPa) = 36.53894 54.86606 45.70250
# Shear Modulus (GPa) = 32.47181 40.83941 36.65561
#
# Velocity S-wave (km/s) = 3.49432 3.91877 3.71262
# Velocity P-wave (km/s) = 5.47906 6.41146 5.96351
#
# Compressibility (1/GPa) = 0.02736807
#
# Stress axis : x y z
#
# Youngs Moduli (GPa) = 54.85105 109.64614 82.67992
#
# Poissons Ratio (x) = 0.19678 0.18153
# Poissons Ratio (y) = 0.09844 0.16940
# Poissons Ratio (z) = 0.12043 0.22465
#
# Static dielectric constant tensor:
#      x y z
#    x 2.110010 0.022490 0.041990 
#    y 0.022490 2.148840 -0.007680 
#    z 0.041990 -0.007680 2.076490 
# 
# From -- ./inp_files/329.got.cif
#   From: 2010.05.17/outbox.cif.g08.bks.cpg/sg1_1_cif.got.tgz:329.got - 2010.05.17 20:27:59.
