data_PCOD9000816
_publ_section_title
;
Structure prediction by ZEFSAII (Michael W. Deem and Ramdas Pophale) SiO2 
 PCOD9000816
Probable space group: P 1
;
_chemical_formula_sum "Si O2"
_cell_formula_units_Z 8
_cell_length_a 14.559875
_cell_length_b 11.502782
_cell_length_c 7.261116
_cell_angle_alpha 44.232153
_cell_angle_beta 38.917277
_cell_angle_gamma 27.750743
_cell_volume 354.082803
_symmetry_space_group_name_H-M "P 1"
_symmetry_group_IT_number 1
_symmetry_cell_setting 'triclinic'
loop_
_space_group_symop_operation_xyz
x,y,z
loop_
_atom_site_type_symbol
_atom_site_label
_atom_site_fract_x
_atom_site_fract_y
_atom_site_fract_z
Si Si1 0.719330 0.340870 0.654780
Si Si2 0.611400 0.013345 0.695963
Si Si3 0.755752 0.236341 0.331263
Si Si4 0.341510 0.986819 0.981125
Si Si5 0.118448 0.839728 0.462439
Si Si6 0.060798 0.436560 0.629319
Si Si7 0.794569 0.481243 0.699951
Si Si8 0.401646 0.384056 0.301160
O O1 0.674766 0.416048 0.425500
O O2 0.820173 0.408611 0.531589
O O3 0.507320 0.452535 0.961408
O O4 0.900694 0.036049 0.705222
O O5 0.835421 0.721781 0.712377
O O6 0.630712 0.166484 0.609270
O O7 0.411866 0.050222 0.965202
O O8 0.587402 0.111238 0.415462
O O9 0.754311 0.340682 0.029799
O O10 0.009261 0.983780 0.273187
O O11 0.153272 0.229687 0.872543
O O12 0.568296 0.773408 0.753688
O O13 0.267967 0.861559 0.279389
O O14 0.253663 0.563908 0.505550
O O15 0.253431 0.409313 0.360192
O O16 0.993066 0.402669 0.584756
#
# Coordination Sequence:
#
# PCOD9000816 Si02
#       8
#     1   1   1   1   1   1   1   1
#     4  10  22  36  68  94 118 164 208 250 300 372
#     4  10  20  36  65  89 122 167 199 252 313 356
#     4  10  20  39  63  90 121 161 203 254 301 358
#     4  10  20  36  65  89 122 167 199 252 313 356
#     4  10  20  39  63  90 121 161 203 254 301 358
#     4  10  20  36  62  92 124 164 200 254 312 350
#     4  11  20  40  66  87 126 164 202 254 307 362
#     4  11  20  40  66  87 126 164 202 254 307 362
#
# _framework density 22.593585999999998
#
# number of rings (size 3 to 8) (size 9 to 14) (size 15 to 20)
#    0.750    1.000    5.000    0.000    0.000    0.000 
#    2.250    7.500   44.000    0.000    0.000    0.000 
#    0.000    0.000    0.000    0.000    0.000    0.000 
#
# Total GULP energy -44543.823556 kJ/mol
# GULP energy per Si atom -5567.977945 kJ/mol
# Density = 2.254216 g / cm^3
# Si number density = 22.593586 Si / 1000 Ang^3
#
#
#
# Elastic Constant Matrix: (Units=GPa)
#
#
# Indices 1 2 3 4 5 6 
#
# 1 168.9450 25.6613 36.6866 1.7242 -38.3816 4.9408
# 2 25.6613 94.5450 -1.3310 -1.3359 2.5265 -13.2611
# 3 36.6866 -1.3310 26.9566 5.1337 -19.9090 3.8423
# 4 1.7242 -1.3359 5.1337 24.4684 4.1071 -5.0316
# 5 -38.3816 2.5265 -19.9090 4.1071 31.8140 -1.4641
# 6 4.9408 -13.2611 3.8423 -5.0316 -1.4641 44.4107
#
#
#
# Elastic Compliance Matrix: (Units=1/GPa)
#
#
# Indices 1 2 3 4 5 6 
#
# 1 0.009767 -0.003126 -0.007906 -0.000635 0.007112 -0.001174
# 2 -0.003126 0.012158 0.000426 0.002401 -0.004593 0.004062
# 3 -0.007906 0.000426 0.093342 -0.029563 0.052257 -0.008695
# 4 -0.000635 0.002401 -0.029563 0.053359 -0.025953 0.008535
# 5 0.007112 -0.004593 0.052257 -0.025953 0.076103 -0.007115
# 6 -0.001174 0.004062 -0.008695 0.008535 -0.007115 0.025345
#
#
# Mechanical properties :
#
#
# Convention : Reuss Voigt Hill
#
# Bulk Modulus (GPa) = 10.63206 45.83116 28.23161
# Shear Modulus (GPa) = 15.49726 35.43393 25.46560
#
# Velocity S-wave (km/s) = 2.62184 3.96450 3.36090
# Velocity P-wave (km/s) = 3.72577 6.42537 5.25199
#
# Compressibility (1/GPa) = 0.09405513
#
# Stress axis : x y z
#
# Youngs Moduli (GPa) = 102.38219 82.25169 10.71332
#
# Poissons Ratio (x) = 0.25712 0.08470
# Poissons Ratio (y) = 0.32004 -0.00457
# Poissons Ratio (z) = 0.80944 -0.03505
#
# Static dielectric constant tensor:
#      x y z
#    x 1.894860 0.018510 -0.049260 
#    y 0.018510 1.894330 -0.004290 
#    z -0.049260 -0.004290 1.825090 
# 
# From -- ./inp_files/3821.got.cif
#   From: 2010.05.17/outbox.cif.g08.bks.cpg/sg1_2_cif.got.tgz:3821.got - 2010.05.17 20:27:59.
