data_PCOD9000833
_publ_section_title
;
Structure prediction by ZEFSAII (Michael W. Deem and Ramdas Pophale) SiO2 
 PCOD9000833
Probable space group: P 1
;
_chemical_formula_sum "Si O2"
_cell_formula_units_Z 8
_cell_length_a 4.767146
_cell_length_b 11.365677
_cell_length_c 8.865004
_cell_angle_alpha 72.888705
_cell_angle_beta 122.757383
_cell_angle_gamma 87.831989
_cell_volume 374.276296
_symmetry_space_group_name_H-M "P 1"
_symmetry_group_IT_number 1
_symmetry_cell_setting 'triclinic'
loop_
_space_group_symop_operation_xyz
x,y,z
loop_
_atom_site_type_symbol
_atom_site_label
_atom_site_fract_x
_atom_site_fract_y
_atom_site_fract_z
Si Si1 0.193240 0.042500 0.611540
Si Si2 0.347756 0.288020 0.579287
Si Si3 0.680031 0.511596 0.075342
Si Si4 0.825219 0.685428 0.496477
Si Si5 0.802580 0.868645 0.703420
Si Si6 0.642455 0.287954 0.344125
Si Si7 0.535867 0.521509 0.680526
Si Si8 0.193218 0.670996 0.114055
O O1 0.417684 0.139651 0.697413
O O2 0.842755 0.143693 0.417414
O O3 0.419985 0.955273 0.585267
O O4 0.070130 0.956936 0.731712
O O5 0.382421 0.289396 0.405182
O O6 0.531098 0.381899 0.677304
O O7 0.949483 0.341113 0.487878
O O8 0.643445 0.518698 0.884798
O O9 0.582940 0.380938 0.150163
O O10 0.403342 0.613329 0.048890
O O11 0.033349 0.560814 0.183866
O O12 0.829272 0.793432 0.581066
O O13 0.804499 0.566010 0.637616
O O14 0.478855 0.712677 0.284450
O O15 0.177564 0.632690 0.526587
O O16 0.894597 0.781951 0.912691
#
# Coordination Sequence:
#
# PCOD9000833 Si02
#       8
#     1   1   1   1   1   1   1   1
#     4  10  22  40  68  86 128 182 210 260 312 382
#     4  10  20  38  62  93 118 174 211 254 324 372
#     4  12  22  40  63 101 137 159 214 272 328 389
#     4  12  25  41  65  98 131 173 209 269 330 380
#     4  12  22  44  64  94 132 168 228 250 314 394
#     4  10  20  38  62  93 118 174 211 254 324 372
#     4  12  22  40  63 101 137 159 214 272 328 389
#     4  12  25  41  65  98 131 173 209 269 330 380
#
# _framework density 21.374583999999999
#
# number of rings (size 3 to 8) (size 9 to 14) (size 15 to 20)
#    0.750    0.000    3.750    6.000    0.000    0.000 
#    0.000    2.500    0.000    0.000    0.000    0.000 
#    0.000    0.000    0.000    0.000    0.000    0.000 
#
# Total GULP energy -44543.292476 kJ/mol
# GULP energy per Si atom -5567.911559 kJ/mol
# Density = 2.132593 g / cm^3
# Si number density = 21.374584 Si / 1000 Ang^3
#
#
#
# Elastic Constant Matrix: (Units=GPa)
#
#
# Indices 1 2 3 4 5 6 
#
# 1 80.9471 9.1585 -8.3982 -5.5945 -10.9678 -0.3337
# 2 9.1585 88.2874 24.1139 -10.0003 -2.1661 -0.9065
# 3 -8.3982 24.1139 71.8127 2.6127 -5.0407 -4.0870
# 4 -5.5945 -10.0003 2.6127 24.4143 3.4138 -8.2742
# 5 -10.9678 -2.1661 -5.0407 3.4138 25.8313 -5.3695
# 6 -0.3337 -0.9065 -4.0870 -8.2742 -5.3695 33.7852
#
#
#
# Elastic Compliance Matrix: (Units=1/GPa)
#
#
# Indices 1 2 3 4 5 6 
#
# 1 0.013842 -0.001783 0.002706 0.001901 0.006399 0.001899
# 2 -0.001783 0.013567 -0.005013 0.006215 -0.001196 0.001072
# 3 0.002706 -0.005013 0.016482 -0.003235 0.004757 0.001850
# 4 0.001901 0.006215 -0.003235 0.048539 -0.003402 0.011141
# 5 0.006399 -0.001196 0.004757 -0.003402 0.044118 0.006785
# 6 0.001899 0.001072 0.001850 0.011141 0.006785 0.033677
#
#
# Mechanical properties :
#
#
# Convention : Reuss Voigt Hill
#
# Bulk Modulus (GPa) = 28.00370 32.31061 30.15715
# Shear Modulus (GPa) = 26.27314 31.21770 28.74542
#
# Velocity S-wave (km/s) = 3.50977 3.82580 3.67119
# Velocity P-wave (km/s) = 5.43640 5.88769 5.66654
#
# Compressibility (1/GPa) = 0.03570957
#
# Stress axis : x y z
#
# Youngs Moduli (GPa) = 72.24144 73.71080 60.67320
#
# Poissons Ratio (x) = 0.13144 -0.16416
# Poissons Ratio (y) = 0.12882 0.30416
# Poissons Ratio (z) = -0.19546 0.36952
#
# Static dielectric constant tensor:
#      x y z
#    x 1.785180 0.029980 0.043980 
#    y 0.029980 1.805440 -0.059710 
#    z 0.043980 -0.059710 1.823900 
# 
# From -- ./inp_files/3102.got.cif
#   From: 2010.05.17/outbox.cif.g08.bks.cpg/sg1_2_cif.got.tgz:3102.got - 2010.05.17 20:27:59.
