data_PCOD9000276
_publ_section_title
;
Structure prediction by ZEFSAII (Michael W. Deem and Ramdas Pophale) SiO2 
 PCOD9000276
Probable space group: P 1
;
_chemical_formula_sum "Si O2"
_cell_formula_units_Z 8
_cell_length_a 8.149187
_cell_length_b 11.544690
_cell_length_c 14.969728
_cell_angle_alpha 150.461158
_cell_angle_beta 26.124579
_cell_angle_gamma 141.081938
_cell_volume 305.701710
_symmetry_space_group_name_H-M "P 1"
_symmetry_group_IT_number 1
_symmetry_cell_setting 'triclinic'
loop_
_space_group_symop_operation_xyz
x,y,z
loop_
_atom_site_type_symbol
_atom_site_label
_atom_site_fract_x
_atom_site_fract_y
_atom_site_fract_z
Si Si1 0.582370 0.716470 0.709770
Si Si2 0.682742 0.357546 0.885617
Si Si3 0.933972 0.107546 0.420767
Si Si4 0.833326 0.786702 0.005744
Si Si5 0.903328 0.219220 0.168287
Si Si6 0.797223 0.153377 0.977881
Si Si7 0.857867 0.529487 0.630862
Si Si8 0.716382 0.571607 0.187523
O O1 0.733562 0.479996 0.429195
O O2 0.589741 0.639945 0.760732
O O3 0.202210 0.783840 0.887037
O O4 0.847676 0.946390 0.741717
O O5 0.876778 0.433225 0.931028
O O6 0.324918 0.217302 0.995043
O O7 0.903837 0.223717 0.611120
O O8 0.562554 0.607496 0.067316
O O9 0.734653 0.273343 0.555367
O O10 0.357243 0.127361 0.195967
O O11 0.795410 0.844574 0.321826
O O12 0.904405 0.670696 0.795705
O O13 0.692938 0.043899 0.219353
O O14 0.963711 0.123624 0.974368
O O15 0.872565 0.419776 0.091223
O O16 0.268530 0.536336 0.389756
#
# Coordination Sequence:
#
# PCOD9000276 Si02
#       8
#     1   1   1   1   1   1   1   1
#     4  12  24  45  76 105 136 192 236 284 356 420
#     4  11  24  42  69 106 138 181 234 294 347 410
#     4  10  24  44  73 101 144 186 231 296 351 413
#     4  11  25  48  71 102 150 184 233 296 349 417
#     4  12  25  46  73 102 148 186 232 297 352 416
#     4  11  26  46  70 107 142 190 239 286 354 426
#     4  10  22  46  71 103 145 186 234 286 351 424
#     4  11  22  43  73 102 139 185 233 291 352 414
#
# _framework density 26.169302999999999
#
# number of rings (size 3 to 8) (size 9 to 14) (size 15 to 20)
#    0.000    1.000    2.500    4.500    3.500    2.000 
#    4.500    5.000    0.000    0.000    0.000    0.000 
#    0.000    0.000    0.000    0.000    0.000    0.000 
#
# Total GULP energy -44720.682020 kJ/mol
# GULP energy per Si atom -5590.085252 kJ/mol
# Density = 2.610974 g / cm^3
# Si number density = 26.169303 Si / 1000 Ang^3
#
#
#
# Elastic Constant Matrix: (Units=GPa)
#
#
# Indices 1 2 3 4 5 6 
#
# 1 121.0127 50.1702 14.4612 11.1019 14.3521 -1.4299
# 2 50.1702 164.4785 27.2742 41.6295 -0.8421 -33.7542
# 3 14.4612 27.2742 84.4553 16.0543 13.9953 2.5172
# 4 11.1019 41.6295 16.0543 41.6888 -1.5806 -2.2367
# 5 14.3521 -0.8421 13.9953 -1.5806 46.7572 6.8637
# 6 -1.4299 -33.7542 2.5172 -2.2367 6.8637 43.7555
#
#
#
# Elastic Compliance Matrix: (Units=1/GPa)
#
#
# Indices 1 2 3 4 5 6 
#
# 1 0.010035 -0.003677 -0.000174 0.000853 -0.002769 -0.002020
# 2 -0.003677 0.011603 -0.001599 -0.009531 0.000262 0.008394
# 3 -0.000174 -0.001599 0.013847 -0.003928 -0.004017 -0.001607
# 4 0.000853 -0.009531 -0.003928 0.034585 0.002757 -0.005763
# 5 -0.002769 0.000262 -0.004017 0.002757 0.024019 -0.003284
# 6 -0.002020 0.008394 -0.001607 -0.005763 -0.003284 0.029577
#
#
# Mechanical properties :
#
#
# Convention : Reuss Voigt Hill
#
# Bulk Modulus (GPa) = 40.67529 61.52862 51.10196
# Shear Modulus (GPa) = 35.02342 44.97635 39.99989
#
# Velocity S-wave (km/s) = 3.66230 4.15018 3.91385
# Velocity P-wave (km/s) = 5.78447 6.82115 6.32409
#
# Compressibility (1/GPa) = 0.02458495
#
# Stress axis : x y z
#
# Youngs Moduli (GPa) = 99.65123 86.18569 72.21772
#
# Poissons Ratio (x) = 0.31688 0.01256
# Poissons Ratio (y) = 0.36639 0.11550
# Poissons Ratio (z) = 0.01733 0.13784
#
# Static dielectric constant tensor:
#      x y z
#    x 2.112510 0.066860 -0.016650 
#    y 0.066860 2.112150 0.039320 
#    z -0.016650 0.039320 2.087550 
# 
# From -- ./inp_files/7169.got.cif
#   From: 2010.05.17/outbox.cif.g08.bks.cpg/sg1_4_cif.got.tgz:7169.got - 2010.05.17 20:27:59.
