data_PCOD9000461
_publ_section_title
;
Structure prediction by ZEFSAII (Michael W. Deem and Ramdas Pophale) SiO2 
 PCOD9000461
Probable space group: P 1
;
_chemical_formula_sum "Si O2"
_cell_formula_units_Z 8
_cell_length_a 6.797159
_cell_length_b 7.110634
_cell_length_c 8.226177
_cell_angle_alpha 85.299009
_cell_angle_beta 77.140623
_cell_angle_gamma 59.211042
_cell_volume 332.742768
_symmetry_space_group_name_H-M "P 1"
_symmetry_group_IT_number 1
_symmetry_cell_setting 'triclinic'
loop_
_space_group_symop_operation_xyz
x,y,z
loop_
_atom_site_type_symbol
_atom_site_label
_atom_site_fract_x
_atom_site_fract_y
_atom_site_fract_z
Si Si1 0.178320 0.412030 0.023690
Si Si2 0.652608 0.146260 0.150630
Si Si3 0.048278 0.660633 0.542601
Si Si4 0.561582 0.261340 0.513990
Si Si5 0.771162 0.703747 0.292770
Si Si6 0.943467 0.871520 0.857648
Si Si7 0.636203 0.582595 0.637997
Si Si8 0.452735 0.997969 0.795187
O O1 0.410537 0.329440 0.098830
O O2 0.942981 0.495845 0.166545
O O3 0.247280 0.210728 0.903176
O O4 0.109166 0.633015 0.921679
O O5 0.688350 0.210629 0.321001
O O6 0.630871 0.931105 0.209514
O O7 0.873569 0.058981 0.992876
O O8 0.305394 0.461588 0.510656
O O9 0.953163 0.732216 0.374257
O O10 0.026439 0.846471 0.656460
O O11 0.880131 0.567951 0.641633
O O12 0.649488 0.352726 0.639558
O O13 0.523231 0.072174 0.609546
O O14 0.615752 0.655384 0.447157
O O15 0.679636 0.917284 0.871336
O O16 0.442457 0.782456 0.766935
#
# Coordination Sequence:
#
# PCOD9000461 Si02
#       8
#     1   1   1   1   1   1   1   1
#     4  10  18  32  64  82 115 165 185 235 307 337
#     4  10  18  31  60  86 111 159 191 230 304 339
#     4   9  18  37  59  81 119 151 189 247 283 337
#     4  12  19  37  67  85 114 162 193 239 299 344
#     4   9  18  36  57  83 118 149 192 242 283 344
#     4   9  18  33  58  84 116 154 189 239 293 341
#     4   9  21  37  60  91 114 150 203 242 283 355
#     4  10  20  37  61  86 117 156 192 244 296 339
#
# _framework density 24.042597000000001
#
# number of rings (size 3 to 8) (size 9 to 14) (size 15 to 20)
#    0.750    1.500    3.750    0.000    0.000    0.000 
#    0.000    5.000   27.500    0.000    0.000    0.000 
#    0.000    0.000    0.000    0.000    0.000    0.000 
#
# Total GULP energy -44551.046976 kJ/mol
# GULP energy per Si atom -5568.880872 kJ/mol
# Density = 2.398787 g / cm^3
# Si number density = 24.042597 Si / 1000 Ang^3
#
#
#
# Elastic Constant Matrix: (Units=GPa)
#
#
# Indices 1 2 3 4 5 6 
#
# 1 53.1282 32.6870 4.5694 5.1719 9.8144 7.7682
# 2 32.6870 127.4579 37.4361 19.2806 -0.6761 -22.1929
# 3 4.5694 37.4361 143.2483 32.8774 -4.4754 0.7898
# 4 5.1719 19.2806 32.8774 58.1911 -5.4350 5.6460
# 5 9.8144 -0.6761 -4.4754 -5.4350 18.5406 -0.5428
# 6 7.7682 -22.1929 0.7898 5.6460 -0.5428 25.2826
#
#
#
# Elastic Compliance Matrix: (Units=1/GPa)
#
#
# Indices 1 2 3 4 5 6 
#
# 1 0.033346 -0.013214 0.001736 0.000926 -0.018102 -0.022495
# 2 -0.013214 0.016007 -0.002792 -0.003821 0.006347 0.019188
# 3 0.001736 -0.002792 0.008545 -0.003838 -0.000153 -0.002398
# 4 0.000926 -0.003821 -0.003838 0.021768 0.004583 -0.008281
# 5 -0.018102 0.006347 -0.000153 0.004583 0.065393 0.011518
# 6 -0.022495 0.019188 -0.002398 -0.008281 0.011518 0.065479
#
#
# Mechanical properties :
#
#
# Convention : Reuss Voigt Hill
#
# Bulk Modulus (GPa) = 34.06459 52.57991 43.32225
# Shear Modulus (GPa) = 20.09112 37.01233 28.55172
#
# Velocity S-wave (km/s) = 2.89389 3.92784 3.44982
# Velocity P-wave (km/s) = 5.03640 6.51824 5.82464
#
# Compressibility (1/GPa) = 0.02935599
#
# Stress axis : x y z
#
# Youngs Moduli (GPa) = 29.98848 62.47122 117.03189
#
# Poissons Ratio (x) = 0.82552 -0.20314
# Poissons Ratio (y) = 0.39628 0.32681
# Poissons Ratio (z) = -0.05205 0.17445
#
# Static dielectric constant tensor:
#      x y z
#    x 1.929820 0.018880 0.003200 
#    y 0.018880 1.930910 0.056380 
#    z 0.003200 0.056380 2.028360 
# 
# From -- ./inp_files/2097.got.cif
#   From: 2010.05.17/outbox.cif.g08.bks.cpg/sg1_2_cif.got.tgz:2097.got - 2010.05.17 20:27:59.
