data_PCOD9000521
_publ_section_title
;
Structure prediction by ZEFSAII (Michael W. Deem and Ramdas Pophale) SiO2 
 PCOD9000521
Probable space group: P 1
;
_chemical_formula_sum "Si O2"
_cell_formula_units_Z 8
_cell_length_a 5.131568
_cell_length_b 7.166310
_cell_length_c 12.309942
_cell_angle_alpha 71.829441
_cell_angle_beta 102.805307
_cell_angle_gamma 68.400813
_cell_volume 369.778331
_symmetry_space_group_name_H-M "P 1"
_symmetry_group_IT_number 1
_symmetry_cell_setting 'triclinic'
loop_
_space_group_symop_operation_xyz
x,y,z
loop_
_atom_site_type_symbol
_atom_site_label
_atom_site_fract_x
_atom_site_fract_y
_atom_site_fract_z
Si Si1 0.754940 0.021050 0.672370
Si Si2 0.367612 0.604922 0.842890
Si Si3 0.010831 0.748616 0.414108
Si Si4 0.472028 0.711402 0.292422
Si Si5 0.687148 0.109035 0.891967
Si Si6 0.398814 0.836609 0.014476
Si Si7 0.469341 0.776335 0.598721
Si Si8 0.895721 0.392375 0.538219
O O1 0.595329 0.116123 0.755948
O O2 0.923278 0.162358 0.625075
O O3 0.537992 0.983727 0.575155
O O4 0.012201 0.769745 0.767347
O O5 0.485407 0.347292 0.882463
O O6 0.449902 0.656506 0.959276
O O7 0.496198 0.682662 0.739039
O O8 0.658192 0.830906 0.341076
O O9 0.126938 0.486036 0.505574
O O10 0.160207 0.780404 0.312872
O O11 0.141929 0.838174 0.505581
O O12 0.683885 0.459374 0.399005
O O13 0.450928 0.743901 0.157374
O O14 0.618755 0.936398 0.983148
O O15 0.046644 0.027278 0.939553
O O16 0.705412 0.575707 0.580983
#
# Coordination Sequence:
#
# PCOD9000521 Si02
#       8
#     1   1   1   1   1   1   1   1
#     4  11  23  40  67 105 143 182 218 275 362 406
#     4  11  25  38  68 103 139 174 225 282 338 411
#     4   9  20  38  69  95 135 178 216 282 333 387
#     4   9  20  42  70  94 131 186 224 274 334 402
#     4  11  25  42  67 102 136 180 222 283 337 403
#     4  11  24  45  72  97 134 183 230 271 344 394
#     4  11  20  39  66 104 138 174 223 275 340 418
#     4   9  21  40  67  98 140 179 216 288 334 405
#
# _framework density 21.634582000000002
#
# number of rings (size 3 to 8) (size 9 to 14) (size 15 to 20)
#    0.750    1.000    2.500    1.500    1.750    4.000 
#    0.000    2.500    5.500    0.000    0.000    0.000 
#    0.000    0.000    0.000    0.000    0.000    0.000 
#
# Total GULP energy -44608.103347 kJ/mol
# GULP energy per Si atom -5576.012918 kJ/mol
# Density = 2.158534 g / cm^3
# Si number density = 21.634582 Si / 1000 Ang^3
#
#
#
# Elastic Constant Matrix: (Units=GPa)
#
#
# Indices 1 2 3 4 5 6 
#
# 1 86.6298 22.1476 24.9588 11.6684 -19.3530 25.1052
# 2 22.1476 119.4174 43.7250 23.3160 -2.2166 -0.8938
# 3 24.9588 43.7250 141.4058 22.8830 -19.7191 10.4080
# 4 11.6684 23.3160 22.8830 21.9223 1.8767 1.8886
# 5 -19.3530 -2.2166 -19.7191 1.8767 32.7180 -2.9588
# 6 25.1052 -0.8938 10.4080 1.8886 -2.9588 24.9197
#
#
#
# Elastic Compliance Matrix: (Units=1/GPa)
#
#
# Indices 1 2 3 4 5 6 
#
# 1 0.021820 -0.002702 0.001869 -0.009991 0.012560 -0.020612
# 2 -0.002702 0.011369 -0.002129 -0.008719 -0.001201 0.004537
# 3 0.001869 -0.002129 0.010345 -0.009755 0.007334 -0.004670
# 4 -0.009991 -0.008719 -0.009755 0.071184 -0.015871 0.006548
# 5 0.012560 -0.001201 0.007334 -0.015871 0.042381 -0.009524
# 6 -0.020612 0.004537 -0.004670 0.006548 -0.009524 0.061380
#
#
# Mechanical properties :
#
#
# Convention : Reuss Voigt Hill
#
# Bulk Modulus (GPa) = 26.58729 58.79065 42.68897
# Shear Modulus (GPa) = 21.10244 33.02012 27.06128
#
# Velocity S-wave (km/s) = 3.12653 3.91098 3.54055
# Velocity P-wave (km/s) = 5.03483 6.90129 6.04058
#
# Compressibility (1/GPa) = 0.03761196
#
# Stress axis : x y z
#
# Youngs Moduli (GPa) = 45.82876 87.96120 96.66332
#
# Poissons Ratio (x) = 0.23765 -0.18071
# Poissons Ratio (y) = 0.12382 0.20578
# Poissons Ratio (z) = -0.08567 0.18726
#
# Static dielectric constant tensor:
#      x y z
#    x 1.890670 -0.017810 0.032020 
#    y -0.017810 1.802120 -0.001640 
#    z 0.032020 -0.001640 1.784680 
# 
# From -- ./inp_files/5890.got.cif
#   From: 2010.05.17/outbox.cif.g08.bks.cpg/sg1_3_cif.got.tgz:5890.got - 2010.05.17 20:27:59.
