data_PCOD9000004
_publ_section_title
;
Structure prediction by ZEFSAII (Michael W. Deem and Ramdas Pophale) SiO2 
 PCOD9000004
Probable space group: P 1
;
_chemical_formula_sum "Si O2"
_cell_formula_units_Z 8
_cell_length_a 9.026681
_cell_length_b 9.808254
_cell_length_c 7.814097
_cell_angle_alpha 97.060401
_cell_angle_beta 67.693657
_cell_angle_gamma 49.203060
_cell_volume 411.016265
_symmetry_space_group_name_H-M "P 1"
_symmetry_group_IT_number 1
_symmetry_cell_setting 'triclinic'
loop_
_space_group_symop_operation_xyz
x,y,z
loop_
_atom_site_type_symbol
_atom_site_label
_atom_site_fract_x
_atom_site_fract_y
_atom_site_fract_z
Si Si1 0.175890 0.155780 0.756830
Si Si2 0.336159 0.356149 0.679287
Si Si3 0.901637 0.775150 0.090551
Si Si4 0.869086 0.079066 0.329490
Si Si5 0.749381 0.446868 0.266660
Si Si6 0.978561 0.739957 0.677198
Si Si7 0.183845 0.886194 0.485684
Si Si8 0.713936 0.747268 0.497626
O O1 0.249631 0.257722 0.672788
O O2 0.130333 0.068088 0.623416
O O3 0.426806 0.940594 0.707464
O O4 0.944783 0.326981 0.008587
O O5 0.624810 0.185876 0.553896
O O6 0.244115 0.502413 0.577951
O O7 0.172257 0.527002 0.930339
O O8 0.742965 0.800498 0.306147
O O9 0.922257 0.921130 0.150512
O O10 0.822635 0.816397 0.932393
O O11 0.792646 0.270921 0.305196
O O12 0.097249 0.946491 0.337112
O O13 0.471095 0.658404 0.353852
O O14 0.796364 0.537316 0.397946
O O15 0.869871 0.731184 0.562796
O O16 0.023442 0.869971 0.640956
#
# Coordination Sequence:
#
# PCOD9000004 Si02
#       8
#     1   1   1   1   1   1   1   1
#     4  11  23  43  64  96 131 171 218 270 323 390
#     4  10  22  41  67  94 129 171 221 267 316 394
#     4  10  21  39  68  93 129 168 217 269 313 388
#     4  12  23  43  69  95 131 178 215 266 333 385
#     4  11  24  44  63  98 135 169 215 277 324 384
#     4  10  21  43  65  96 131 170 214 275 317 383
#     4  11  24  41  66  97 136 168 219 272 323 391
#     4  11  22  44  66  93 136 167 223 270 319 393
#
# _framework density 19.463950000000001
#
# number of rings (size 3 to 8) (size 9 to 14) (size 15 to 20)
#    0.750    0.500    5.000    0.750    1.750    1.000 
#    9.000    1.250    0.000    0.000    0.000    0.000 
#    0.000    0.000    0.000    0.000    0.000    0.000 
#
# Total GULP energy -44596.175122 kJ/mol
# GULP energy per Si atom -5574.521890 kJ/mol
# Density = 1.941965 g / cm^3
# Si number density = 19.463950 Si / 1000 Ang^3
#
#
#
# Elastic Constant Matrix: (Units=GPa)
#
#
# Indices 1 2 3 4 5 6 
#
# 1 101.3798 41.9816 36.3774 7.0672 8.5634 18.0581
# 2 41.9816 92.6366 15.3856 7.7188 16.4486 22.7297
# 3 36.3774 15.3856 74.9115 12.2479 9.9474 -8.2091
# 4 7.0672 7.7188 12.2479 30.3608 8.4050 5.2604
# 5 8.5634 16.4486 9.9474 8.4050 18.8731 9.6747
# 6 18.0581 22.7297 -8.2091 5.2604 9.6747 37.3490
#
#
#
# Elastic Compliance Matrix: (Units=1/GPa)
#
#
# Indices 1 2 3 4 5 6 
#
# 1 0.015788 -0.004779 -0.008394 0.000893 0.005143 -0.008028
# 2 -0.004779 0.015852 -0.000403 0.000653 -0.009078 -0.005166
# 3 -0.008394 -0.000403 0.021281 -0.005670 -0.011006 0.012631
# 4 0.000893 0.000653 -0.005670 0.039264 -0.013345 -0.004149
# 5 0.005143 -0.009078 -0.011006 -0.013345 0.079596 -0.018120
# 6 -0.008028 -0.005166 0.012631 -0.004149 -0.018120 0.041854
#
#
# Mechanical properties :
#
#
# Convention : Reuss Voigt Hill
#
# Bulk Modulus (GPa) = 38.80422 50.71303 44.75862
# Shear Modulus (GPa) = 20.05008 28.99547 24.52277
#
# Velocity S-wave (km/s) = 3.21302 3.86385 3.55337
# Velocity P-wave (km/s) = 5.80899 6.78360 6.31513
#
# Compressibility (1/GPa) = 0.02577039
#
# Stress axis : x y z
#
# Youngs Moduli (GPa) = 63.33919 63.08215 46.99110
#
# Poissons Ratio (x) = 0.30144 0.39445
# Poissons Ratio (y) = 0.30267 0.01892
# Poissons Ratio (z) = 0.53167 0.02540
#
# Static dielectric constant tensor:
#      x y z
#    x 1.669230 0.013220 -0.020070 
#    y 0.013220 1.709790 -0.006460 
#    z -0.020070 -0.006460 1.699500 
# 
# From -- ./inp_files/3770.got.cif
#   From: 2010.05.17/outbox.cif.g08.bks.cpg/sg1_2_cif.got.tgz:3770.got - 2010.05.17 20:27:59.
