data_PCOD9000537
_publ_section_title
;
Structure prediction by ZEFSAII (Michael W. Deem and Ramdas Pophale) SiO2 
 PCOD9000537
Probable space group: P 1
;
_chemical_formula_sum "Si O2"
_cell_formula_units_Z 8
_cell_length_a 9.352392
_cell_length_b 9.586191
_cell_length_c 8.258058
_cell_angle_alpha 54.522470
_cell_angle_beta 64.234101
_cell_angle_gamma 41.475419
_cell_volume 399.308031
_symmetry_space_group_name_H-M "P 1"
_symmetry_group_IT_number 1
_symmetry_cell_setting 'triclinic'
loop_
_space_group_symop_operation_xyz
x,y,z
loop_
_atom_site_type_symbol
_atom_site_label
_atom_site_fract_x
_atom_site_fract_y
_atom_site_fract_z
Si Si1 0.486540 0.962060 0.550300
Si Si2 0.875428 0.908212 0.826910
Si Si3 0.784985 0.490811 0.905168
Si Si4 0.542800 0.925631 0.178486
Si Si5 0.414707 0.692265 0.178451
Si Si6 0.081859 0.061472 0.826783
Si Si7 0.470602 0.284252 0.550297
Si Si8 0.172325 0.400544 0.905101
O O1 0.656692 0.751391 0.731543
O O2 0.565279 0.867007 0.394941
O O3 0.256960 0.041178 0.650712
O O4 0.478570 0.167759 0.461085
O O5 0.978636 0.987106 0.822329
O O6 0.067084 0.659028 0.820873
O O7 0.700149 0.104628 0.650906
O O8 0.745561 0.872645 0.032927
O O9 0.978690 0.408682 0.979092
O O10 0.611917 0.513152 0.078023
O O11 0.890185 0.316655 0.820839
O O12 0.478794 0.806814 0.182667
O O13 0.345592 0.205204 0.077894
O O14 0.392044 0.534593 0.394876
O O15 0.211964 0.890919 0.032739
O O16 0.300372 0.313822 0.731378
#
# Coordination Sequence:
#
# PCOD9000537 Si02
#       8
#     1   1   1   1   1   1   1   1
#     4  11  25  42  64  95 127 162 209 258 308 369
#     4  11  25  43  65  93 125 167 209 253 312 370
#     4  11  21  45  67  84 129 171 203 254 311 367
#     4  11  25  42  64  95 127 162 209 258 308 369
#     4  11  25  42  64  95 127 162 209 258 308 369
#     4  11  25  43  65  93 125 167 209 253 312 370
#     4  11  25  42  64  95 127 162 209 258 308 369
#     4  11  21  45  67  84 129 171 203 254 311 367
#
# _framework density 20.034659000000001
#
# number of rings (size 3 to 8) (size 9 to 14) (size 15 to 20)
#    0.000    1.000    5.000    1.500    7.000    6.000 
#    0.000    0.000    0.000    0.000    0.000    0.000 
#    0.000    0.000    0.000    0.000    0.000    0.000 
#
# Total GULP energy -44703.341113 kJ/mol
# GULP energy per Si atom -5587.917639 kJ/mol
# Density = 1.998906 g / cm^3
# Si number density = 20.034659 Si / 1000 Ang^3
#
#
#
# Elastic Constant Matrix: (Units=GPa)
#
#
# Indices 1 2 3 4 5 6 
#
# 1 113.9159 23.0379 9.0771 -0.5006 1.0614 20.2466
# 2 23.0379 82.2978 -13.4496 -1.6608 1.5313 5.8112
# 3 9.0771 -13.4496 61.2169 1.6984 -1.0841 -1.8061
# 4 -0.5006 -1.6608 1.6984 19.7075 11.7870 0.5398
# 5 1.0614 1.5313 -1.0841 11.7870 18.8433 -0.2633
# 6 20.2466 5.8112 -1.8061 0.5398 -0.2633 35.8922
#
#
#
# Elastic Compliance Matrix: (Units=1/GPa)
#
#
# Indices 1 2 3 4 5 6 
#
# 1 0.010582 -0.002913 -0.002431 0.001172 -0.001311 -0.005647
# 2 -0.002913 0.013618 0.003320 0.002002 -0.002010 -0.000439
# 3 -0.002431 0.003320 0.017611 -0.003020 0.002795 0.001786
# 4 0.001172 0.002002 -0.003020 0.082349 -0.051953 -0.002757
# 5 -0.001311 -0.002010 0.002795 -0.051953 0.086002 0.002618
# 6 -0.005647 -0.000439 0.001786 -0.002757 0.002618 0.031269
#
#
# Mechanical properties :
#
#
# Convention : Reuss Voigt Hill
#
# Bulk Modulus (GPa) = 26.48160 32.75124 29.61642
# Shear Modulus (GPa) = 19.37479 30.80628 25.09053
#
# Velocity S-wave (km/s) = 3.11314 3.92554 3.54270
# Velocity P-wave (km/s) = 5.11554 6.07695 5.61685
#
# Compressibility (1/GPa) = 0.03776206
#
# Stress axis : x y z
#
# Youngs Moduli (GPa) = 94.49704 73.43360 56.78196
#
# Poissons Ratio (x) = 0.21390 0.13806
# Poissons Ratio (y) = 0.27526 -0.18850
# Poissons Ratio (z) = 0.22976 -0.24378
#
# Static dielectric constant tensor:
#      x y z
#    x 1.691250 0.018420 -0.000190 
#    y 0.018420 1.707190 -0.000360 
#    z -0.000190 -0.000360 1.679110 
# 
# From -- ./inp_files/1210.got.cif
#   From: 2010.05.17/outbox.cif.g08.bks.cpg/sg1_1_cif.got.tgz:1210.got - 2010.05.17 20:27:59.
