data_PCOD9000614
_publ_section_title
;
Structure prediction by ZEFSAII (Michael W. Deem and Ramdas Pophale) SiO2 
 PCOD9000614
Probable space group: P 1
;
_chemical_formula_sum "Si O2"
_cell_formula_units_Z 6
_cell_length_a 5.295840
_cell_length_b 7.913835
_cell_length_c 7.814407
_cell_angle_alpha 58.439500
_cell_angle_beta 87.847809
_cell_angle_gamma 63.485597
_cell_volume 241.311337
_symmetry_space_group_name_H-M "P 1"
_symmetry_group_IT_number 1
_symmetry_cell_setting 'triclinic'
loop_
_space_group_symop_operation_xyz
x,y,z
loop_
_atom_site_type_symbol
_atom_site_label
_atom_site_fract_x
_atom_site_fract_y
_atom_site_fract_z
Si Si1 0.225720 0.497840 0.804640
Si Si2 0.888951 0.232668 0.860042
Si Si3 0.297302 0.868759 0.470157
Si Si4 0.413658 0.794942 0.138877
Si Si5 0.757167 0.267830 0.447696
Si Si6 0.675018 0.867762 0.762977
O O1 0.571697 0.340134 0.897041
O O2 0.077476 0.344900 0.860067
O O3 0.019889 0.684854 0.850759
O O4 0.197310 0.677257 0.560885
O O5 0.863832 0.274357 0.634169
O O6 0.068784 0.962315 0.034498
O O7 0.024939 0.116136 0.392850
O O8 0.462987 0.849698 0.302031
O O9 0.513340 0.795370 0.665276
O O10 0.547632 0.524633 0.257210
O O11 0.550139 0.876676 0.945896
O O12 0.610608 0.112564 0.566140
#
# Coordination Sequence:
#
# PCOD9000614 Si02
#       6
#     1   1   1   1   1   1
#     4  11  24  50  82 112 169 201 260 343 384 463
#     4  12  25  51  82 118 158 210 265 329 392 477
#     4  11  25  51  80 119 157 209 266 331 391 475
#     4  12  27  50  82 117 156 222 258 323 416 461
#     4  11  26  52  76 119 164 202 272 332 387 483
#     4  11  25  54  80 117 164 208 265 336 392 473
#
# _framework density 24.864145000000001
#
# number of rings (size 3 to 8) (size 9 to 14) (size 15 to 20)
#    0.000    0.667    5.000    1.000    2.333    0.000 
#   27.000    0.000    0.000    0.000    0.000    0.000 
#    0.000    0.000    0.000    0.000    0.000    0.000 
#
# Total GULP energy -33578.839688 kJ/mol
# GULP energy per Si atom -5596.473281 kJ/mol
# Density = 2.480755 g / cm^3
# Si number density = 24.864145 Si / 1000 Ang^3
#
#
#
# Elastic Constant Matrix: (Units=GPa)
#
#
# Indices 1 2 3 4 5 6 
#
# 1 134.2853 65.9374 34.3173 -12.9963 -2.8844 -17.0186
# 2 65.9374 142.9283 59.9901 -23.4604 5.0378 -41.1583
# 3 34.3173 59.9901 65.2826 -8.7884 11.0780 -16.8519
# 4 -12.9963 -23.4604 -8.7884 74.1571 -17.3279 2.9482
# 5 -2.8844 5.0378 11.0780 -17.3279 23.5739 -9.3104
# 6 -17.0186 -41.1583 -16.8519 2.9482 -9.3104 54.3563
#
#
#
# Elastic Compliance Matrix: (Units=1/GPa)
#
#
# Indices 1 2 3 4 5 6 
#
# 1 0.010043 -0.003276 -0.002700 0.001422 0.004445 0.000511
# 2 -0.003276 0.016771 -0.012180 0.005042 0.009070 0.009177
# 3 -0.002700 -0.012180 0.029145 -0.004502 -0.016135 -0.003552
# 4 0.001422 0.005042 -0.004502 0.018505 0.016678 0.004721
# 5 0.004445 0.009070 -0.016135 0.016678 0.066280 0.013705
# 6 0.000511 0.009177 -0.003552 0.004721 0.013705 0.026496
#
#
# Mechanical properties :
#
#
# Convention : Reuss Voigt Hill
#
# Bulk Modulus (GPa) = 50.89937 73.66508 62.28223
# Shear Modulus (GPa) = 23.79791 42.56756 33.18274
#
# Velocity S-wave (km/s) = 3.09709 4.14213 3.65713
# Velocity P-wave (km/s) = 5.77102 7.25036 6.55257
#
# Compressibility (1/GPa) = 0.01964661
#
# Stress axis : x y z
#
# Youngs Moduli (GPa) = 99.56836 59.62680 34.31089
#
# Poissons Ratio (x) = 0.19536 0.09263
# Poissons Ratio (y) = 0.32622 0.41792
# Poissons Ratio (z) = 0.26881 0.72628
#
# Static dielectric constant tensor:
#      x y z
#    x 2.012680 0.005880 0.013490 
#    y 0.005880 2.013120 -0.014130 
#    z 0.013490 -0.014130 1.986450 
# 
# From -- ./inp_files/2939.got.cif
#   From: 2010.05.17/outbox.cif.g08.bks.cpg/sg1_2_cif.got.tgz:2939.got - 2010.05.17 20:27:59.
