data_PCOD9000812
_publ_section_title
;
Structure prediction by ZEFSAII (Michael W. Deem and Ramdas Pophale) SiO2 
 PCOD9000812
Probable space group: P 1
;
_chemical_formula_sum "Si O2"
_cell_formula_units_Z 8
_cell_length_a 9.383155
_cell_length_b 7.002839
_cell_length_c 8.343106
_cell_angle_alpha 55.132582
_cell_angle_beta 71.739711
_cell_angle_gamma 108.796411
_cell_volume 326.984172
_symmetry_space_group_name_H-M "P 1"
_symmetry_group_IT_number 1
_symmetry_cell_setting 'triclinic'
loop_
_space_group_symop_operation_xyz
x,y,z
loop_
_atom_site_type_symbol
_atom_site_label
_atom_site_fract_x
_atom_site_fract_y
_atom_site_fract_z
Si Si1 0.494190 0.830360 0.106910
Si Si2 0.621197 0.666651 0.693682
Si Si3 0.850298 0.054283 0.719608
Si Si4 0.114260 0.894128 0.773308
Si Si5 0.290921 0.472040 0.653743
Si Si6 0.026849 0.050078 0.193777
Si Si7 0.146320 0.689402 0.160857
Si Si8 0.345771 0.246988 0.238150
O O1 0.392166 0.740478 0.359168
O O2 0.378703 0.890451 0.002485
O O3 0.445387 0.529635 0.188322
O O4 0.728314 0.060883 0.898772
O O5 0.452231 0.595042 0.674730
O O6 0.713292 0.926170 0.671966
O O7 0.512686 0.363629 0.989474
O O8 0.805947 0.808325 0.447310
O O9 0.922962 0.863252 0.820854
O O10 0.044898 0.384895 0.444104
O O11 0.246397 0.195903 0.695361
O O12 0.231931 0.961028 0.535909
O O13 0.079157 0.642185 0.023228
O O14 0.090197 0.293295 0.914184
O O15 0.173095 0.204775 0.220330
O O16 0.076823 0.851545 0.194407
#
# Coordination Sequence:
#
# PCOD9000812 Si02
#       8
#     1   1   1   1   1   1   1   1
#     4  10  21  40  63  89 122 162 205 248 301 357
#     4  10  20  36  67  90 117 167 200 245 306 362
#     4  11  22  42  65  87 124 161 206 249 296 366
#     4  10  20  41  67  87 121 164 200 250 307 350
#     4   9  20  35  63  87 118 162 196 246 298 357
#     4  10  20  36  61  92 123 153 202 247 304 355
#     4  11  23  38  62  94 123 158 201 256 299 360
#     4   9  18  40  62  84 120 163 198 249 297 359
#
# _framework density 24.466016
#
# number of rings (size 3 to 8) (size 9 to 14) (size 15 to 20)
#    0.000    2.000    3.750    0.000    3.500    3.000 
#    4.500    6.250    5.500    0.000    0.000    0.000 
#    0.000    0.000    0.000    0.000    0.000    0.000 
#
# Total GULP energy -44599.087668 kJ/mol
# GULP energy per Si atom -5574.885958 kJ/mol
# Density = 2.441033 g / cm^3
# Si number density = 24.466016 Si / 1000 Ang^3
#
#
#
# Elastic Constant Matrix: (Units=GPa)
#
#
# Indices 1 2 3 4 5 6 
#
# 1 94.0920 10.8535 80.6625 17.6109 -22.4342 16.8018
# 2 10.8535 47.9966 6.3609 16.0281 -4.1839 13.6889
# 3 80.6625 6.3609 208.4173 38.8222 -19.4719 -8.9148
# 4 17.6109 16.0281 38.8222 37.0999 -2.6179 -2.0623
# 5 -22.4342 -4.1839 -19.4719 -2.6179 47.9247 6.3603
# 6 16.8018 13.6889 -8.9148 -2.0623 6.3603 39.2830
#
#
#
# Elastic Compliance Matrix: (Units=1/GPa)
#
#
# Indices 1 2 3 4 5 6 
#
# 1 0.022320 0.001743 -0.007815 -0.003287 0.009046 -0.013565
# 2 0.001743 0.029166 0.001133 -0.014965 0.004623 -0.012186
# 3 -0.007815 0.001133 0.009037 -0.006029 -0.000856 0.004820
# 4 -0.003287 -0.014965 -0.006029 0.041449 -0.004105 0.008093
# 5 0.009046 0.004623 -0.000856 -0.004105 0.026278 -0.010145
# 6 -0.013565 -0.012186 0.004820 0.008093 -0.010145 0.038666
#
#
# Mechanical properties :
#
#
# Convention : Reuss Voigt Hill
#
# Bulk Modulus (GPa) = 19.74409 60.69552 40.21981
# Shear Modulus (GPa) = 25.81634 41.70347 33.75990
#
# Velocity S-wave (km/s) = 3.25190 4.13309 3.71869
# Velocity P-wave (km/s) = 4.71034 6.90207 5.90872
#
# Compressibility (1/GPa) = 0.05064806
#
# Stress axis : x y z
#
# Youngs Moduli (GPa) = 44.80242 34.28595 110.65435
#
# Poissons Ratio (x) = -0.05977 0.86471
# Poissons Ratio (y) = -0.07810 -0.12542
# Poissons Ratio (z) = 0.35011 -0.03886
#
# Static dielectric constant tensor:
#      x y z
#    x 1.914410 -0.038340 0.012330 
#    y -0.038340 2.036160 -0.027030 
#    z 0.012330 -0.027030 2.086060 
# 
# From -- ./inp_files/4064.got.cif
#   From: 2010.05.17/outbox.cif.g08.bks.cpg/sg1_3_cif.got.tgz:4064.got - 2010.05.17 20:27:59.
