data_PCOD9000120
_publ_section_title
;
Structure prediction by ZEFSAII (Michael W. Deem and Ramdas Pophale) SiO2 
 PCOD9000120
Probable space group: P 1
;
_chemical_formula_sum "Si O2"
_cell_formula_units_Z 8
_cell_length_a 8.832403
_cell_length_b 8.691471
_cell_length_c 7.576741
_cell_angle_alpha 105.371774
_cell_angle_beta 53.083731
_cell_angle_gamma 67.760449
_cell_volume 321.318613
_symmetry_space_group_name_H-M "P 1"
_symmetry_group_IT_number 1
_symmetry_cell_setting 'triclinic'
loop_
_space_group_symop_operation_xyz
x,y,z
loop_
_atom_site_type_symbol
_atom_site_label
_atom_site_fract_x
_atom_site_fract_y
_atom_site_fract_z
Si Si1 0.857460 0.599760 0.255370
Si Si2 0.946399 0.210155 0.907549
Si Si3 0.435753 0.361554 0.474626
Si Si4 0.626232 0.512459 0.899765
Si Si5 0.892804 0.659064 0.845473
Si Si6 0.025198 0.765179 0.453546
Si Si7 0.291194 0.814300 0.762437
Si Si8 0.784842 0.137519 0.460969
O O1 0.965951 0.359797 0.056904
O O2 0.569217 0.733939 0.577428
O O3 0.013945 0.614381 0.289965
O O4 0.837519 0.700756 0.107952
O O5 0.697045 0.249622 0.151847
O O6 0.854532 0.321843 0.816892
O O7 0.195561 0.953528 0.690014
O O8 0.197729 0.414353 0.559787
O O9 0.321423 0.606603 0.665966
O O10 0.547258 0.213005 0.526980
O O11 0.692844 0.370635 0.639038
O O12 0.677473 0.669391 0.913427
O O13 0.330329 0.641438 0.203599
O O14 0.916781 0.790073 0.731449
O O15 0.841836 0.999863 0.551261
O O16 0.060553 0.980568 0.114901
#
# Coordination Sequence:
#
# PCOD9000120 Si02
#       8
#     1   1   1   1   1   1   1   1
#     4  10  24  45  69 105 144 187 236 289 351 422
#     4   9  21  42  71 102 137 186 231 287 355 412
#     4  10  21  46  70  96 142 184 237 289 345 419
#     4  11  25  45  67 109 146 177 236 300 345 420
#     4  11  25  46  78  99 143 192 230 293 357 409
#     4  12  27  47  73 107 145 186 236 293 352 420
#     4  10  22  42  77  99 139 191 235 286 355 418
#     4  11  25  43  73 105 144 187 233 293 356 414
#
# _framework density 24.897407000000001
#
# number of rings (size 3 to 8) (size 9 to 14) (size 15 to 20)
#    0.000    1.500    1.250    2.250    8.750    3.000 
#    0.000    3.750    0.000    0.000    0.000    0.000 
#    0.000    0.000    0.000    0.000    0.000    0.000 
#
# Total GULP energy -44729.523852 kJ/mol
# GULP energy per Si atom -5591.190481 kJ/mol
# Density = 2.484074 g / cm^3
# Si number density = 24.897407 Si / 1000 Ang^3
#
#
#
# Elastic Constant Matrix: (Units=GPa)
#
#
# Indices 1 2 3 4 5 6 
#
# 1 126.9689 49.1546 34.8928 -3.6865 -20.8001 18.8526
# 2 49.1546 137.1758 36.0946 -10.3810 -7.2412 -25.8214
# 3 34.8928 36.0946 82.0727 -15.0859 -9.2265 20.3620
# 4 -3.6865 -10.3810 -15.0859 36.1716 6.1755 5.5051
# 5 -20.8001 -7.2412 -9.2265 6.1755 46.3234 -5.9049
# 6 18.8526 -25.8214 20.3620 5.5051 -5.9049 42.4018
#
#
#
# Elastic Compliance Matrix: (Units=1/GPa)
#
#
# Indices 1 2 3 4 5 6 
#
# 1 0.011817 -0.005519 -0.000175 0.000207 0.003349 -0.008091
# 2 -0.005519 0.014082 -0.007988 -0.002230 0.000368 0.015206
# 3 -0.000175 -0.007988 0.021476 0.009195 -0.000359 -0.016344
# 4 0.000207 -0.002230 0.009195 0.033222 -0.004225 -0.010767
# 5 0.003349 0.000368 -0.000359 -0.004225 0.023997 0.002797
# 6 -0.008091 0.015206 -0.016344 -0.010767 0.002797 0.046078
#
#
# Mechanical properties :
#
#
# Convention : Reuss Voigt Hill
#
# Bulk Modulus (GPa) = 49.96908 65.16683 57.56796
# Shear Modulus (GPa) = 27.06997 40.05106 33.56051
#
# Velocity S-wave (km/s) = 3.30094 4.01514 3.67543
# Velocity P-wave (km/s) = 5.88573 6.90841 6.41747
#
# Compressibility (1/GPa) = 0.02001238
#
# Stress axis : x y z
#
# Youngs Moduli (GPa) = 84.62629 71.01035 46.56301
#
# Poissons Ratio (x) = 0.39190 0.00813
# Poissons Ratio (y) = 0.46705 0.37195
# Poissons Ratio (z) = 0.01477 0.56723
#
# Static dielectric constant tensor:
#      x y z
#    x 2.052530 -0.013250 0.035390 
#    y -0.013250 2.039350 -0.033450 
#    z 0.035390 -0.033450 1.952780 
# 
# From -- ./inp_files/4303.got.cif
#   From: 2010.05.17/outbox.cif.g08.bks.cpg/sg1_3_cif.got.tgz:4303.got - 2010.05.17 20:27:59.
