data_PCOD9000145
_publ_section_title
;
Structure prediction by ZEFSAII (Michael W. Deem and Ramdas Pophale) SiO2 
 PCOD9000145
Probable space group: P 1
;
_chemical_formula_sum "Si O2"
_cell_formula_units_Z 8
_cell_length_a 8.214648
_cell_length_b 7.946196
_cell_length_c 8.370638
_cell_angle_alpha 109.297199
_cell_angle_beta 47.257608
_cell_angle_gamma 119.338655
_cell_volume 349.809081
_symmetry_space_group_name_H-M "P 1"
_symmetry_group_IT_number 1
_symmetry_cell_setting 'triclinic'
loop_
_space_group_symop_operation_xyz
x,y,z
loop_
_atom_site_type_symbol
_atom_site_label
_atom_site_fract_x
_atom_site_fract_y
_atom_site_fract_z
Si Si1 0.391010 0.930640 0.333860
Si Si2 0.996516 0.696681 0.731374
Si Si3 0.402702 0.237780 0.924565
Si Si4 0.269471 0.243455 0.352315
Si Si5 0.867919 0.352795 0.475871
Si Si6 0.931251 0.068068 0.985882
Si Si7 0.267597 0.582477 0.063582
Si Si8 0.173411 0.460059 0.750263
O O1 0.272979 0.817849 0.536824
O O2 0.344121 0.776469 0.173243
O O3 0.249800 0.065217 0.420795
O O4 0.670938 0.051431 0.210705
O O5 0.995148 0.554169 0.829770
O O6 0.901072 0.553984 0.602769
O O7 0.887392 0.855470 0.882137
O O8 0.427788 0.214693 0.090072
O O9 0.414054 0.456067 0.983241
O O10 0.596609 0.223487 0.665336
O O11 0.139462 0.106658 0.992279
O O12 0.333815 0.424654 0.489093
O O13 0.037688 0.259505 0.423375
O O14 0.993325 0.437441 0.249374
O O15 0.035252 0.246999 0.850302
O O16 0.301066 0.595080 0.856019
#
# Coordination Sequence:
#
# PCOD9000145 Si02
#       8
#     1   1   1   1   1   1   1   1
#     4  11  23  42  68  97 138 173 220 279 327 397
#     4  10  22  40  64  96 132 172 222 274 331 389
#     4  10  22  41  68  95 134 176 224 271 327 400
#     4  10  22  39  66 100 132 172 219 270 334 389
#     4   9  20  42  68  94 131 178 221 274 330 391
#     4  11  24  42  66  99 132 178 221 271 334 389
#     4   9  21  42  65  98 130 174 223 273 333 390
#     4  10  22  44  65  97 137 171 224 268 332 397
#
# _framework density 22.869620000000001
#
# number of rings (size 3 to 8) (size 9 to 14) (size 15 to 20)
#    0.000    2.000    1.250    1.500    5.250    3.000 
#    0.000    1.250    0.000    0.000    0.000    0.000 
#    0.000    0.000    0.000    0.000    0.000    0.000 
#
# Total GULP energy -44560.726401 kJ/mol
# GULP energy per Si atom -5570.090800 kJ/mol
# Density = 2.281757 g / cm^3
# Si number density = 22.869620 Si / 1000 Ang^3
#
#
#
# Elastic Constant Matrix: (Units=GPa)
#
#
# Indices 1 2 3 4 5 6 
#
# 1 41.0303 23.2023 37.9570 -2.4736 9.9711 3.8087
# 2 23.2023 74.6038 21.9216 20.4184 -12.5005 -1.3785
# 3 37.9570 21.9216 101.9597 -0.6785 -0.7530 11.4432
# 4 -2.4736 20.4184 -0.6785 32.6640 -1.7945 -10.8200
# 5 9.9711 -12.5005 -0.7530 -1.7945 28.0284 -7.3095
# 6 3.8087 -1.3785 11.4432 -10.8200 -7.3095 33.5495
#
#
#
# Elastic Compliance Matrix: (Units=1/GPa)
#
#
# Indices 1 2 3 4 5 6 
#
# 1 0.066915 -0.026179 -0.018940 0.017611 -0.036003 -0.004376
# 2 -0.026179 0.029310 0.003273 -0.018423 0.021780 0.001864
# 3 -0.018940 0.003273 0.016508 -0.003663 0.007661 -0.002858
# 4 0.017611 -0.018423 -0.003663 0.046806 -0.008524 0.011732
# 5 -0.036003 0.021780 0.007661 -0.008524 0.061241 0.012963
# 6 -0.004376 0.001864 -0.002858 0.011732 0.012963 0.037963
#
#
# Mechanical properties :
#
#
# Convention : Reuss Voigt Hill
#
# Bulk Modulus (GPa) = 34.43350 42.63950 38.53650
# Shear Modulus (GPa) = 14.19994 27.81589 21.00792
#
# Velocity S-wave (km/s) = 2.49451 3.49131 3.03412
# Velocity P-wave (km/s) = 4.83589 5.91078 5.40015
#
# Compressibility (1/GPa) = 0.02904149
#
# Stress axis : x y z
#
# Youngs Moduli (GPa) = 14.94438 34.11779 60.57754
#
# Poissons Ratio (x) = 0.89318 1.14731
# Poissons Ratio (y) = 0.39123 -0.19828
# Poissons Ratio (z) = 0.28304 -0.11167
#
# Static dielectric constant tensor:
#      x y z
#    x 1.885290 0.034510 0.031410 
#    y 0.034510 1.845630 -0.023320 
#    z 0.031410 -0.023320 1.997620 
# 
# From -- ./inp_files/1321.got.cif
#   From: 2010.05.17/outbox.cif.g08.bks.cpg/sg1_1_cif.got.tgz:1321.got - 2010.05.17 20:27:59.
