data_PCOD9000984
_publ_section_title
;
Structure prediction by ZEFSAII (Michael W. Deem and Ramdas Pophale) SiO2 
 PCOD9000984
Probable space group: P 1
;
_chemical_formula_sum "Si O2"
_cell_formula_units_Z 8
_cell_length_a 14.332583
_cell_length_b 7.949556
_cell_length_c 5.822322
_cell_angle_alpha 92.037102
_cell_angle_beta 101.905476
_cell_angle_gamma 142.913359
_cell_volume 368.229792
_symmetry_space_group_name_H-M "P 1"
_symmetry_group_IT_number 1
_symmetry_cell_setting 'triclinic'
loop_
_space_group_symop_operation_xyz
x,y,z
loop_
_atom_site_type_symbol
_atom_site_label
_atom_site_fract_x
_atom_site_fract_y
_atom_site_fract_z
Si Si1 0.689230 0.607650 0.677210
Si Si2 0.001670 0.204609 0.647765
Si Si3 0.536044 0.718870 0.381323
Si Si4 0.955607 0.679096 0.180218
Si Si5 0.719472 0.852230 0.101484
Si Si6 0.765526 0.377721 0.569028
Si Si7 0.185082 0.337935 0.367911
Si Si8 0.031901 0.449168 0.072036
O O1 0.587575 0.618885 0.526006
O O2 0.645823 0.368454 0.529836
O O3 0.889134 0.925698 0.743426
O O4 0.673587 0.612165 0.941654
O O5 0.161712 0.349410 0.625673
O O6 0.860574 0.028431 0.374623
O O7 0.047561 0.444682 0.807602
O O8 0.559423 0.707407 0.123570
O O9 0.360560 0.528397 0.374606
O O10 0.666616 0.059709 0.501006
O O11 0.860568 0.528409 0.374625
O O12 0.075312 0.688368 0.219416
O O13 0.860567 0.528408 0.874622
O O14 0.054508 0.997097 0.248231
O O15 0.831994 0.131124 0.005802
O O16 0.133549 0.437918 0.223233
#
# Coordination Sequence:
#
# PCOD9000984 Si02
#       8
#     1   1   1   1   1   1   1   1
#     4  10  21  39  66  92 130 175 225 274 326 400
#     4   9  17  36  63  89 122 170 216 268 324 391
#     4  11  25  42  64  99 138 176 217 281 346 393
#     4  12  25  43  72 104 128 179 236 275 329 411
#     4   9  17  36  63  89 122 170 216 268 324 391
#     4  12  25  43  72 104 128 179 236 275 329 411
#     4  11  25  42  64  99 138 176 217 281 346 393
#     4  10  21  39  66  92 130 175 225 274 326 400
#
# _framework density 21.725563000000001
#
# number of rings (size 3 to 8) (size 9 to 14) (size 15 to 20)
#    0.000    1.500    2.500    4.500    3.500    2.000 
#    0.000    1.250    0.000    0.000    0.000    0.000 
#    0.000    0.000    0.000    0.000    0.000    0.000 
#
# Total GULP energy -44544.315960 kJ/mol
# GULP energy per Si atom -5568.039495 kJ/mol
# Density = 2.167611 g / cm^3
# Si number density = 21.725563 Si / 1000 Ang^3
#
#
#
# Elastic Constant Matrix: (Units=GPa)
#
#
# Indices 1 2 3 4 5 6 
#
# 1 201.0985 55.6397 55.7246 -13.8235 -26.5761 0.4243
# 2 55.6397 62.5558 35.0702 -14.5635 -0.1345 4.2284
# 3 55.7246 35.0702 87.2207 -19.7960 -29.9096 0.2617
# 4 -13.8235 -14.5635 -19.7960 14.7361 -2.6387 -10.1512
# 5 -26.5761 -0.1345 -29.9096 -2.6387 48.0114 -5.2663
# 6 0.4243 4.2284 0.2617 -10.1512 -5.2663 56.3619
#
#
#
# Elastic Compliance Matrix: (Units=1/GPa)
#
#
# Indices 1 2 3 4 5 6 
#
# 1 0.007413 -0.005901 -0.000660 0.001654 0.003882 0.001051
# 2 -0.005901 0.027938 -0.008132 0.008955 -0.007887 -0.001138
# 3 -0.000660 -0.008132 0.036499 0.053864 0.026696 0.012641
# 4 0.001654 0.008955 0.053864 0.184756 0.048697 0.036892
# 5 0.003882 -0.007887 0.026696 0.048697 0.043721 0.013294
# 6 0.001051 -0.001138 0.012641 0.036892 0.013294 0.025648
#
#
# Mechanical properties :
#
#
# Convention : Reuss Voigt Hill
#
# Bulk Modulus (GPa) = 23.54951 71.52710 47.53831
# Shear Modulus (GPa) = 13.53132 37.45125 25.49128
#
# Velocity S-wave (km/s) = 2.49836 4.15641 3.42911
# Velocity P-wave (km/s) = 4.38012 7.48524 6.13247
#
# Compressibility (1/GPa) = 0.04246372
#
# Stress axis : x y z
#
# Youngs Moduli (GPa) = 134.90513 35.79375 27.39833
#
# Poissons Ratio (x) = 0.21121 0.01808
# Poissons Ratio (y) = 0.79603 0.22281
# Poissons Ratio (z) = 0.08901 0.29108
#
# Static dielectric constant tensor:
#      x y z
#    x 1.884480 -0.022900 -0.013400 
#    y -0.022900 1.839400 -0.091470 
#    z -0.013400 -0.091470 2.008110 
# 
# From -- ./inp_files/2717.got.cif
#   From: 2010.05.17/outbox.cif.g08.bks.cpg/sg1_2_cif.got.tgz:2717.got - 2010.05.17 20:27:59.
