data_PCOD9000605
_publ_section_title
;
Structure prediction by ZEFSAII (Michael W. Deem and Ramdas Pophale) SiO2 
 PCOD9000605
Probable space group: P 1
;
_chemical_formula_sum "Si O2"
_cell_formula_units_Z 8
_cell_length_a 12.430703
_cell_length_b 9.005274
_cell_length_c 5.437209
_cell_angle_alpha 104.263861
_cell_angle_beta 106.137127
_cell_angle_gamma 33.782915
_cell_volume 324.969728
_symmetry_space_group_name_H-M "P 1"
_symmetry_group_IT_number 1
_symmetry_cell_setting 'triclinic'
loop_
_space_group_symop_operation_xyz
x,y,z
loop_
_atom_site_type_symbol
_atom_site_label
_atom_site_fract_x
_atom_site_fract_y
_atom_site_fract_z
Si Si1 0.770620 0.808420 0.612380
Si Si2 0.098773 0.920615 0.415166
Si Si3 0.450507 0.314357 0.255678
Si Si4 0.982323 0.341095 0.206302
Si Si5 0.501817 0.843473 0.552956
Si Si6 0.793693 0.324712 0.760605
Si Si7 0.767737 0.090991 0.012517
Si Si8 0.293668 0.152586 0.032973
O O1 0.916179 0.541395 0.440865
O O2 0.634961 0.843201 0.685837
O O3 0.621916 0.063298 0.440999
O O4 0.862519 0.832220 0.853436
O O5 0.099623 0.072231 0.307825
O O6 0.012220 0.061621 0.684188
O O7 0.927852 0.998508 0.239699
O O8 0.299292 0.603253 0.398235
O O9 0.569912 0.261740 0.091053
O O10 0.331126 0.293441 0.098983
O O11 0.085575 0.318637 0.046111
O O12 0.802706 0.451051 0.016070
O O13 0.646505 0.537968 0.540476
O O14 0.412993 0.964669 0.276907
O O15 0.356293 0.006232 0.756796
O O16 0.725941 0.251473 0.827078
#
# Coordination Sequence:
#
# PCOD9000605 Si02
#       8
#     1   1   1   1   1   1   1   1
#     4  11  24  49  75 104 146 200 251 314 374 448
#     4  11  27  48  70 110 151 195 250 308 382 453
#     4  11  26  47  71 109 152 194 250 307 384 448
#     4  11  27  46  74 110 149 199 254 313 376 448
#     4  11  24  47  75 108 151 199 253 315 377 449
#     4  11  25  48  72 105 153 200 250 306 386 451
#     4  11  26  46  75 106 147 202 246 313 378 451
#     4  11  27  45  76 114 149 197 258 316 375 452
#
# _framework density 24.617675999999999
#
# number of rings (size 3 to 8) (size 9 to 14) (size 15 to 20)
#    0.000    1.000    2.500    2.250    8.750    4.000 
#    0.000    0.000    0.000    0.000    0.000    0.000 
#    0.000    0.000    0.000    0.000    0.000    0.000 
#
# Total GULP energy -44808.719737 kJ/mol
# GULP energy per Si atom -5601.089967 kJ/mol
# Density = 2.456164 g / cm^3
# Si number density = 24.617676 Si / 1000 Ang^3
#
#
#
# Elastic Constant Matrix: (Units=GPa)
#
#
# Indices 1 2 3 4 5 6 
#
# 1 170.6367 39.8341 44.9509 11.6050 -23.3223 8.2850
# 2 39.8341 139.5328 43.7481 13.1014 -20.0982 16.1211
# 3 44.9509 43.7481 95.7884 22.4257 -10.8339 5.5253
# 4 11.6050 13.1014 22.4257 49.7811 -0.3662 -12.0426
# 5 -23.3223 -20.0982 -10.8339 -0.3662 60.0117 -0.5522
# 6 8.2850 16.1211 5.5253 -12.0426 -0.5522 27.2096
#
#
#
# Elastic Compliance Matrix: (Units=1/GPa)
#
#
# Indices 1 2 3 4 5 6 
#
# 1 0.007088 -0.000700 -0.002532 -0.000671 0.002045 -0.001485
# 2 -0.000700 0.009502 -0.002829 -0.002470 0.002330 -0.005887
# 3 -0.002532 -0.002829 0.014576 -0.005988 0.000634 -0.003150
# 4 -0.000671 -0.002470 -0.005988 0.027177 -0.001866 0.014874
# 5 0.002045 0.002330 0.000634 -0.001866 0.018318 -0.002586
# 6 -0.001485 -0.005887 -0.003150 0.014874 -0.002586 0.047862
#
#
# Mechanical properties :
#
#
# Convention : Reuss Voigt Hill
#
# Bulk Modulus (GPa) = 52.51781 73.66934 63.09358
# Shear Modulus (GPa) = 34.96658 45.89548 40.43103
#
# Velocity S-wave (km/s) = 3.77289 4.32247 4.05700
# Velocity P-wave (km/s) = 6.35289 7.40959 6.90150
#
# Compressibility (1/GPa) = 0.01904116
#
# Stress axis : x y z
#
# Youngs Moduli (GPa) = 141.07776 105.24561 68.60731
#
# Poissons Ratio (x) = 0.07372 0.17373
# Poissons Ratio (y) = 0.09882 0.19412
# Poissons Ratio (z) = 0.35725 0.29779
#
# Static dielectric constant tensor:
#      x y z
#    x 1.918990 -0.021390 0.023160 
#    y -0.021390 1.995920 -0.023350 
#    z 0.023160 -0.023350 1.973970 
# 
# From -- ./inp_files/2231.got.cif
#   From: 2010.05.17/outbox.cif.g08.bks.cpg/sg1_2_cif.got.tgz:2231.got - 2010.05.17 20:27:59.
