data_PCOD9000413
_publ_section_title
;
Structure prediction by ZEFSAII (Michael W. Deem and Ramdas Pophale) SiO2 
 PCOD9000413
Probable space group: P 1
;
_chemical_formula_sum "Si O2"
_cell_formula_units_Z 8
_cell_length_a 8.073134
_cell_length_b 12.566736
_cell_length_c 7.752223
_cell_angle_alpha 135.979909
_cell_angle_beta 101.148641
_cell_angle_gamma 46.011106
_cell_volume 310.926583
_symmetry_space_group_name_H-M "P 1"
_symmetry_group_IT_number 1
_symmetry_cell_setting 'triclinic'
loop_
_space_group_symop_operation_xyz
x,y,z
loop_
_atom_site_type_symbol
_atom_site_label
_atom_site_fract_x
_atom_site_fract_y
_atom_site_fract_z
Si Si1 0.511100 0.753270 0.315440
Si Si2 0.132178 0.297311 0.926798
Si Si3 0.512226 0.662868 0.829787
Si Si4 0.074194 0.407323 0.636719
Si Si5 0.564321 0.376276 0.777568
Si Si6 0.407362 0.395985 0.103200
Si Si7 0.000630 0.934242 0.840518
Si Si8 0.739311 0.970579 0.165645
O O1 0.249222 0.039415 0.681179
O O2 0.476869 0.794701 0.147706
O O3 0.571543 0.527278 0.066256
O O4 0.814817 0.587341 0.259393
O O5 0.105679 0.329853 0.751240
O O6 0.357678 0.257537 0.986713
O O7 0.825938 0.471928 0.592116
O O8 0.502844 0.497639 0.719582
O O9 0.241705 0.871822 0.892097
O O10 0.394183 0.186691 0.359817
O O11 0.913911 0.688613 0.910485
O O12 0.798476 0.070825 0.426646
O O13 0.358132 0.436223 0.934683
O O14 0.183697 0.674646 0.469697
O O15 0.738294 0.193945 0.978364
O O16 0.845456 0.962266 0.999214
#
# Coordination Sequence:
#
# PCOD9000413 Si02
#       8
#     1   1   1   1   1   1   1   1
#     4   9  23  39  71 102 133 176 245 297 343 398
#     4  11  21  43  66 105 136 181 229 304 346 411
#     4   9  23  46  72 106 140 187 240 297 357 414
#     4  11  23  42  78 108 134 183 253 306 344 411
#     4  10  24  42  76 108 135 190 247 297 340 432
#     4  12  27  44  71 106 151 191 235 291 373 428
#     4  12  28  46  68 108 156 191 228 298 369 436
#     4  12  25  44  74 109 141 187 251 292 352 428
#
# _framework density 25.729547
#
# number of rings (size 3 to 8) (size 9 to 14) (size 15 to 20)
#    0.750    0.500    1.250    4.500    3.500    4.000 
#    0.000    5.000    0.000    1.500    0.000    0.000 
#    0.000    0.000    0.000    0.000    0.000    0.000 
#
# Total GULP energy -44632.050727 kJ/mol
# GULP energy per Si atom -5579.006341 kJ/mol
# Density = 2.567099 g / cm^3
# Si number density = 25.729547 Si / 1000 Ang^3
#
#
#
# Elastic Constant Matrix: (Units=GPa)
#
#
# Indices 1 2 3 4 5 6 
#
# 1 75.0669 56.2389 25.9479 19.0339 -10.0417 -3.3558
# 2 56.2389 102.3414 54.8263 28.3543 -9.0971 -16.1376
# 3 25.9479 54.8263 161.3060 38.0869 -10.5739 17.8063
# 4 19.0339 28.3543 38.0869 38.6038 1.7362 -7.4972
# 5 -10.0417 -9.0971 -10.5739 1.7362 34.5319 15.7820
# 6 -3.3558 -16.1376 17.8063 -7.4972 15.7820 30.5426
#
#
#
# Elastic Compliance Matrix: (Units=1/GPa)
#
#
# Indices 1 2 3 4 5 6 
#
# 1 0.030850 -0.020527 0.010489 -0.016916 0.020588 -0.028362
# 2 -0.020527 0.029374 -0.013580 0.009067 -0.017730 0.032569
# 3 0.010489 -0.013580 0.019693 -0.022351 0.022431 -0.034581
# 4 -0.016916 0.009067 -0.022351 0.060677 -0.034729 0.048802
# 5 0.020588 -0.017730 0.022431 -0.034729 0.068089 -0.063890
# 6 -0.028362 0.032569 -0.034581 0.048802 -0.063890 0.111987
#
#
# Mechanical properties :
#
#
# Convention : Reuss Voigt Hill
#
# Bulk Modulus (GPa) = 30.59996 68.08229 49.34113
# Shear Modulus (GPa) = 13.19959 34.18241 23.69100
#
# Velocity S-wave (km/s) = 2.26744 3.64885 3.03771
# Velocity P-wave (km/s) = 4.33287 6.65360 5.61445
#
# Compressibility (1/GPa) = 0.03267978
#
# Stress axis : x y z
#
# Youngs Moduli (GPa) = 32.41504 34.04338 50.77935
#
# Poissons Ratio (x) = 0.69882 -0.53262
# Poissons Ratio (y) = 0.66539 0.68960
# Poissons Ratio (z) = -0.34000 0.46232
#
# Static dielectric constant tensor:
#      x y z
#    x 2.185770 -0.036680 0.044580 
#    y -0.036680 2.036600 -0.012130 
#    z 0.044580 -0.012130 2.010400 
# 
# From -- ./inp_files/5022.got.cif
#   From: 2010.05.17/outbox.cif.g08.bks.cpg/sg1_3_cif.got.tgz:5022.got - 2010.05.17 20:27:59.
