data_PCOD9000353
_publ_section_title
;
Structure prediction by ZEFSAII (Michael W. Deem and Ramdas Pophale) SiO2 
 PCOD9000353
Probable space group: P 1
;
_chemical_formula_sum "Si O2"
_cell_formula_units_Z 8
_cell_length_a 10.884822
_cell_length_b 13.999737
_cell_length_c 5.273163
_cell_angle_alpha 126.321477
_cell_angle_beta 61.120477
_cell_angle_gamma 149.212404
_cell_volume 330.736019
_symmetry_space_group_name_H-M "P 1"
_symmetry_group_IT_number 1
_symmetry_cell_setting 'triclinic'
loop_
_space_group_symop_operation_xyz
x,y,z
loop_
_atom_site_type_symbol
_atom_site_label
_atom_site_fract_x
_atom_site_fract_y
_atom_site_fract_z
Si Si1 0.456070 0.478000 0.310290
Si Si2 0.813354 0.153350 0.801735
Si Si3 0.998212 0.855739 0.508982
Si Si4 0.490838 0.124852 0.318278
Si Si5 0.196582 0.233301 0.686207
Si Si6 0.348287 0.780885 0.448754
Si Si7 0.196174 0.548648 0.723170
Si Si8 0.356849 0.073848 0.874420
O O1 0.727166 0.642475 0.386041
O O2 0.291584 0.302879 0.413407
O O3 0.379432 0.563782 0.534492
O O4 0.396015 0.394244 0.955370
O O5 0.661734 0.132881 0.109369
O O6 0.008262 0.212574 0.851885
O O7 0.948293 0.323594 0.722195
O O8 0.620631 0.938898 0.513502
O O9 0.091308 0.930751 0.825652
O O10 0.061952 0.022123 0.569068
O O11 0.200505 0.901658 0.278134
O O12 0.491258 0.207003 0.200564
O O13 0.528152 0.215820 0.687144
O O14 0.187036 0.612516 0.567264
O O15 0.344415 0.921423 0.670516
O O16 0.287450 0.690238 0.091063
#
# Coordination Sequence:
#
# PCOD9000353 Si02
#       8
#     1   1   1   1   1   1   1   1
#     4  11  26  44  66  99 132 168 226 268 312 402
#     4  10  23  45  66  99 137 160 221 283 307 395
#     4  10  25  46  68  90 141 172 213 273 319 385
#     4   9  21  40  67  91 129 172 207 269 326 364
#     4  11  26  42  71  98 126 179 218 258 341 378
#     4  11  22  42  66  96 132 175 210 263 341 374
#     4  11  24  40  66 101 128 171 220 265 329 384
#     4   9  21  39  64  94 127 167 221 253 317 394
#
# _framework density 24.188475
#
# number of rings (size 3 to 8) (size 9 to 14) (size 15 to 20)
#    0.750    1.000    0.000    3.750    3.500   11.000 
#    2.250    0.000    0.000    0.000    0.000    0.000 
#    0.000    0.000    0.000    0.000    0.000    0.000 
#
# Total GULP energy -44683.947269 kJ/mol
# GULP energy per Si atom -5585.493409 kJ/mol
# Density = 2.413342 g / cm^3
# Si number density = 24.188475 Si / 1000 Ang^3
#
#
#
# Elastic Constant Matrix: (Units=GPa)
#
#
# Indices 1 2 3 4 5 6 
#
# 1 128.7602 33.6689 15.8783 -9.3724 11.8364 -9.1161
# 2 33.6689 89.1794 12.1414 -0.8426 -1.7181 5.5723
# 3 15.8783 12.1414 93.0068 -6.2954 31.0692 -4.4126
# 4 -9.3724 -0.8426 -6.2954 25.6422 -2.2170 -4.1361
# 5 11.8364 -1.7181 31.0692 -2.2170 49.1835 -6.7034
# 6 -9.1161 5.5723 -4.4126 -4.1361 -6.7034 48.6037
#
#
#
# Elastic Compliance Matrix: (Units=1/GPa)
#
#
# Indices 1 2 3 4 5 6 
#
# 1 0.009308 -0.003629 -0.000177 0.003437 -0.001802 0.002190
# 2 -0.003629 0.013026 -0.002042 -0.001557 0.002251 -0.002182
# 3 -0.000177 -0.002042 0.014195 0.002673 -0.008807 0.000502
# 4 0.003437 -0.001557 0.002673 0.041595 -0.000069 0.004596
# 5 -0.001802 0.002251 -0.008807 -0.000069 0.026716 0.002283
# 6 0.002190 -0.002182 0.000502 0.004596 0.002283 0.021987
#
#
# Mechanical properties :
#
#
# Convention : Reuss Voigt Hill
#
# Bulk Modulus (GPa) = 40.26677 48.25819 44.26248
# Shear Modulus (GPa) = 34.05970 41.30305 37.68138
#
# Velocity S-wave (km/s) = 3.75653 4.13673 3.95121
# Velocity P-wave (km/s) = 5.95807 6.54301 6.25738
#
# Compressibility (1/GPa) = 0.02483437
#
# Stress axis : x y z
#
# Youngs Moduli (GPa) = 107.43467 76.76701 70.44532
#
# Poissons Ratio (x) = 0.27860 0.01246
# Poissons Ratio (y) = 0.38989 0.14383
# Poissons Ratio (z) = 0.01901 0.15673
#
# Static dielectric constant tensor:
#      x y z
#    x 1.973280 -0.012100 0.018640 
#    y -0.012100 1.912230 -0.021520 
#    z 0.018640 -0.021520 2.090110 
# 
# From -- ./inp_files/2473.got.cif
#   From: 2010.05.17/outbox.cif.g08.bks.cpg/sg1_2_cif.got.tgz:2473.got - 2010.05.17 20:27:59.
