data_PCOD9000078
_publ_section_title
;
Structure prediction by ZEFSAII (Michael W. Deem and Ramdas Pophale) SiO2 
 PCOD9000078
Probable space group: P 1
;
_chemical_formula_sum "Si O2"
_cell_formula_units_Z 8
_cell_length_a 5.330140
_cell_length_b 11.624006
_cell_length_c 8.917888
_cell_angle_alpha 142.530512
_cell_angle_beta 107.781564
_cell_angle_gamma 82.880286
_cell_volume 313.307134
_symmetry_space_group_name_H-M "P 1"
_symmetry_group_IT_number 1
_symmetry_cell_setting 'triclinic'
loop_
_space_group_symop_operation_xyz
x,y,z
loop_
_atom_site_type_symbol
_atom_site_label
_atom_site_fract_x
_atom_site_fract_y
_atom_site_fract_z
Si Si1 0.784490 0.750000 0.639670
Si Si2 0.273855 0.953157 0.740214
Si Si3 0.081939 0.400731 0.893031
Si Si4 0.870472 0.357025 0.132695
Si Si5 0.653836 0.017347 0.312820
Si Si6 0.636836 0.261930 0.280090
Si Si7 0.837445 0.646234 0.870935
Si Si8 0.406630 0.112029 0.636650
O O1 0.512195 0.833394 0.679316
O O2 0.729701 0.535458 0.337245
O O3 0.916797 0.739199 0.817603
O O4 0.015288 0.867111 0.698382
O O5 0.220315 0.974389 0.576748
O O6 0.380725 0.176759 0.042605
O O7 0.870523 0.200896 0.605614
O O8 0.028415 0.560634 0.931938
O O9 0.351304 0.326182 0.828797
O O10 0.051864 0.438014 0.103825
O O11 0.896858 0.293958 0.248653
O O12 0.690813 0.162624 0.827878
O O13 0.624132 0.088405 0.213941
O O14 0.406759 0.014774 0.376618
O O15 0.717718 0.806961 0.101498
O O16 0.632241 0.452037 0.572576
#
# Coordination Sequence:
#
# PCOD9000078 Si02
#       8
#     1   1   1   1   1   1   1   1
#     4  11  25  46  71 111 133 188 239 293 346 421
#     4  11  25  44  76  99 146 181 239 293 352 410
#     4  10  23  42  66 102 140 187 226 295 348 424
#     4   9  22  43  68  98 137 180 234 289 349 411
#     4  10  21  43  67 100 142 181 237 283 354 414
#     4   9  20  45  66 100 132 184 228 296 339 421
#     4  10  22  45  71  99 143 183 236 287 352 422
#     4  10  24  42  67  99 141 190 227 292 356 415
#
# _framework density 25.534049
#
# number of rings (size 3 to 8) (size 9 to 14) (size 15 to 20)
#    0.000    2.000    1.250    0.000    8.750    1.000 
#    9.000    0.000    0.000    0.000    0.000    0.000 
#    0.000    0.000    0.000    0.000    0.000    0.000 
#
# Total GULP energy -44612.639616 kJ/mol
# GULP energy per Si atom -5576.579952 kJ/mol
# Density = 2.547593 g / cm^3
# Si number density = 25.534049 Si / 1000 Ang^3
#
#
#
# Elastic Constant Matrix: (Units=GPa)
#
#
# Indices 1 2 3 4 5 6 
#
# 1 79.7513 66.1591 36.3352 -1.7278 -25.3792 12.2257
# 2 66.1591 221.1223 55.3585 -8.1455 -45.3292 3.3533
# 3 36.3352 55.3585 146.1211 0.5465 -33.4847 0.0116
# 4 -1.7278 -8.1455 0.5465 41.3023 3.2320 -2.6317
# 5 -25.3792 -45.3292 -33.4847 3.2320 48.2685 5.9421
# 6 12.2257 3.3533 0.0116 -2.6317 5.9421 24.2371
#
#
#
# Elastic Compliance Matrix: (Units=1/GPa)
#
#
# Indices 1 2 3 4 5 6 
#
# 1 0.021029 -0.004159 -0.001965 -0.001252 0.007346 -0.011968
# 2 -0.004159 0.006686 -0.000702 0.000907 0.003493 0.000415
# 3 -0.001965 -0.000702 0.008590 -0.000675 0.004318 -0.000048
# 4 -0.001252 0.000907 -0.000675 0.024776 -0.002400 0.003785
# 5 0.007346 0.003493 0.004318 -0.002400 0.032547 -0.012431
# 6 -0.011968 0.000415 -0.000048 0.003785 -0.012431 0.050697
#
#
# Mechanical properties :
#
#
# Convention : Reuss Voigt Hill
#
# Bulk Modulus (GPa) = 44.14109 84.74450 64.44280
# Shear Modulus (GPa) = 30.20657 42.03771 36.12214
#
# Velocity S-wave (km/s) = 3.44320 4.06191 3.76528
# Velocity P-wave (km/s) = 5.75605 7.43369 6.64800
#
# Compressibility (1/GPa) = 0.02265463
#
# Stress axis : x y z
#
# Youngs Moduli (GPa) = 47.55263 149.57652 116.41301
#
# Poissons Ratio (x) = 0.62206 0.22872
# Poissons Ratio (y) = 0.19776 0.08168
# Poissons Ratio (z) = 0.09343 0.10495
#
# Static dielectric constant tensor:
#      x y z
#    x 2.319260 -0.032480 0.011960 
#    y -0.032480 2.078590 -0.005530 
#    z 0.011960 -0.005530 1.993450 
# 
# From -- ./inp_files/1683.got.cif
#   From: 2010.05.17/outbox.cif.g08.bks.cpg/sg1_1_cif.got.tgz:1683.got - 2010.05.17 20:27:59.
