data_PCOD9000475
_publ_section_title
;
Structure prediction by ZEFSAII (Michael W. Deem and Ramdas Pophale) SiO2 
 PCOD9000475
Probable space group: P 1
;
_chemical_formula_sum "Si O2"
_cell_formula_units_Z 8
_cell_length_a 14.445240
_cell_length_b 4.916294
_cell_length_c 5.238490
_cell_angle_alpha 92.141415
_cell_angle_beta 93.388914
_cell_angle_gamma 126.826919
_cell_volume 296.028012
_symmetry_space_group_name_H-M "P 1"
_symmetry_group_IT_number 1
_symmetry_cell_setting 'triclinic'
loop_
_space_group_symop_operation_xyz
x,y,z
loop_
_atom_site_type_symbol
_atom_site_label
_atom_site_fract_x
_atom_site_fract_y
_atom_site_fract_z
Si Si1 0.635420 0.489150 0.169530
Si Si2 0.867077 0.253734 0.224233
Si Si3 0.058994 0.229136 0.101779
Si Si4 0.535771 0.797782 0.454213
Si Si5 0.946553 0.991377 0.577713
Si Si6 0.732177 0.329798 0.782697
Si Si7 0.320810 0.636971 0.136623
Si Si8 0.426320 0.332806 0.916953
O O1 0.760398 0.845180 0.193505
O O2 0.602949 0.198919 0.349053
O O3 0.628406 0.328650 0.888346
O O4 0.536354 0.567677 0.169368
O O5 0.921343 0.265476 0.511466
O O6 0.977706 0.352269 0.081196
O O7 0.801050 0.361805 0.051591
O O8 0.193461 0.502258 0.189778
O O9 0.996953 0.963943 0.318018
O O10 0.040610 0.090833 0.810596
O O11 0.408854 0.729928 0.380608
O O12 0.475056 0.492567 0.659925
O O13 0.667948 0.971442 0.617874
O O14 0.827311 0.648809 0.640436
O O15 0.325494 0.360182 0.978523
O O16 0.380918 0.960422 0.971079
#
# Coordination Sequence:
#
# PCOD9000475 Si02
#       8
#     1   1   1   1   1   1   1   1
#     4  11  25  45  67 118 160 193 268 323 403 495
#     4  10  25  45  71 116 153 201 259 330 404 486
#     4  10  25  52  74 115 162 205 280 335 394 498
#     4  11  28  47  79 118 160 214 265 343 410 491
#     4  10  25  48  76 117 156 206 270 327 409 483
#     4  12  24  48  81 116 164 210 259 338 427 489
#     4  11  28  52  77 115 156 216 278 333 404 486
#     4  11  26  49  75 113 157 207 273 329 407 478
#
# _framework density 27.024464999999999
#
# number of rings (size 3 to 8) (size 9 to 14) (size 15 to 20)
#    0.750    0.500    2.500    0.750    8.750    5.000 
#    0.000    0.000    0.000    0.000    0.000    0.000 
#    0.000    0.000    0.000    0.000    0.000    0.000 
#
# Total GULP energy -44535.685610 kJ/mol
# GULP energy per Si atom -5566.960701 kJ/mol
# Density = 2.696296 g / cm^3
# Si number density = 27.024465 Si / 1000 Ang^3
#
#
#
# Elastic Constant Matrix: (Units=GPa)
#
#
# Indices 1 2 3 4 5 6 
#
# 1 145.1620 59.3942 41.9114 -6.3878 11.2837 27.5174
# 2 59.3942 79.0372 62.9240 -25.1330 19.8664 23.1251
# 3 41.9114 62.9240 200.9821 -36.3394 10.4251 9.3570
# 4 -6.3878 -25.1330 -36.3394 53.9963 -9.2387 7.6573
# 5 11.2837 19.8664 10.4251 -9.2387 37.3103 0.9979
# 6 27.5174 23.1251 9.3570 7.6573 0.9979 62.0445
#
#
#
# Elastic Compliance Matrix: (Units=1/GPa)
#
#
# Indices 1 2 3 4 5 6 
#
# 1 0.010393 -0.008471 0.000072 -0.002361 0.000794 -0.001184
# 2 -0.008471 0.031132 -0.005412 0.009273 -0.009992 -0.008014
# 3 0.000072 -0.005412 0.006974 0.002347 0.001476 0.000620
# 4 -0.002361 0.009273 0.002347 0.025235 0.001527 -0.005902
# 5 0.000794 -0.009992 0.001476 0.001527 0.031783 0.002450
# 6 -0.001184 -0.008014 0.000620 -0.005902 0.002450 0.020225
#
#
# Mechanical properties :
#
#
# Convention : Reuss Voigt Hill
#
# Bulk Modulus (GPa) = 47.90277 83.73782 65.82030
# Shear Modulus (GPa) = 31.18686 48.06699 39.62693
#
# Velocity S-wave (km/s) = 3.40078 4.22198 3.83343
# Velocity P-wave (km/s) = 5.76060 7.40405 6.63342
#
# Compressibility (1/GPa) = 0.02087562
#
# Stress axis : x y z
#
# Youngs Moduli (GPa) = 96.21812 32.12106 143.38797
#
# Poissons Ratio (x) = 0.27211 -0.01032
# Poissons Ratio (y) = 0.81511 0.77607
# Poissons Ratio (z) = -0.00692 0.17385
#
# Static dielectric constant tensor:
#      x y z
#    x 2.240390 -0.140560 -0.103260 
#    y -0.140560 2.153430 0.184570 
#    z -0.103260 0.184570 2.270060 
# 
# From -- ./inp_files/2621.got.cif
#   From: 2010.05.17/outbox.cif.g08.bks.cpg/sg1_2_cif.got.tgz:2621.got - 2010.05.17 20:27:59.
