data_PCOD9000807
_publ_section_title
;
Structure prediction by ZEFSAII (Michael W. Deem and Ramdas Pophale) SiO2 
 PCOD9000807
Probable space group: P 1
;
_chemical_formula_sum "Si O2"
_cell_formula_units_Z 8
_cell_length_a 9.227494
_cell_length_b 7.042461
_cell_length_c 9.135842
_cell_angle_alpha 131.982026
_cell_angle_beta 117.785558
_cell_angle_gamma 89.665785
_cell_volume 345.600390
_symmetry_space_group_name_H-M "P 1"
_symmetry_group_IT_number 1
_symmetry_cell_setting 'triclinic'
loop_
_space_group_symop_operation_xyz
x,y,z
loop_
_atom_site_type_symbol
_atom_site_label
_atom_site_fract_x
_atom_site_fract_y
_atom_site_fract_z
Si Si1 0.345570 0.284010 0.155840
Si Si2 0.596498 0.927258 0.576459
Si Si3 0.578587 0.713460 0.055672
Si Si4 0.483206 0.153217 0.879064
Si Si5 0.906880 0.744986 0.030629
Si Si6 0.994186 0.218455 0.817934
Si Si7 0.603508 0.280972 0.504030
Si Si8 0.188394 0.213044 0.601338
O O1 0.434551 0.612721 0.311195
O O2 0.430221 0.296665 0.360065
O O3 0.427854 0.125808 0.006456
O O4 0.132625 0.171503 0.966959
O O5 0.594479 0.002360 0.784528
O O6 0.791176 0.970625 0.632605
O O7 0.563465 0.162824 0.590203
O O8 0.592512 0.491996 0.065770
O O9 0.734027 0.755605 0.034735
O O10 0.361033 0.528293 0.814229
O O11 0.619666 0.019884 0.297758
O O12 0.292977 0.047303 0.641704
O O13 0.976682 0.510846 0.990989
O O14 0.795661 0.578732 0.744233
O O15 0.074630 0.048290 0.319333
O O16 0.064327 0.227591 0.687777
#
# Coordination Sequence:
#
# PCOD9000807 Si02
#       8
#     1   1   1   1   1   1   1   1
#     4  11  24  40  62  95 128 160 209 258 315 371
#     4  11  20  41  63  89 124 167 206 257 311 365
#     4  10  20  39  61  94 123 166 206 255 311 367
#     4   9  19  39  63  87 122 167 202 254 307 365
#     4  11  20  36  66  94 121 167 214 254 311 374
#     4  10  20  35  62  92 121 162 210 258 307 370
#     4  11  22  39  67  95 127 165 206 261 315 373
#     4   9  19  33  60  94 118 160 213 247 305 373
#
# _framework density 23.148122000000001
#
# number of rings (size 3 to 8) (size 9 to 14) (size 15 to 20)
#    0.750    1.000    3.750    2.250    0.000    2.000 
#    0.000    8.750    0.000    6.000    0.000    0.000 
#    0.000    0.000    0.000    0.000    0.000    0.000 
#
# Total GULP energy -44538.518051 kJ/mol
# GULP energy per Si atom -5567.314756 kJ/mol
# Density = 2.309544 g / cm^3
# Si number density = 23.148122 Si / 1000 Ang^3
#
#
#
# Elastic Constant Matrix: (Units=GPa)
#
#
# Indices 1 2 3 4 5 6 
#
# 1 116.3166 14.6555 50.6901 1.7535 0.4967 8.2752
# 2 14.6555 37.2346 21.4144 -12.1127 9.1858 -5.3923
# 3 50.6901 21.4144 162.4236 8.3617 10.6473 0.4863
# 4 1.7535 -12.1127 8.3617 32.6431 -13.3151 6.4244
# 5 0.4967 9.1858 10.6473 -13.3151 41.5309 5.9819
# 6 8.2752 -5.3923 0.4863 6.4244 5.9819 15.5158
#
#
#
# Elastic Compliance Matrix: (Units=1/GPa)
#
#
# Indices 1 2 3 4 5 6 
#
# 1 0.011172 -0.004136 -0.003260 0.002075 0.003660 -0.009564
# 2 -0.004136 0.037332 -0.003791 0.009948 -0.005989 0.013488
# 3 -0.003260 -0.003791 0.008179 -0.005521 -0.003539 0.003815
# 4 0.002075 0.009948 -0.005521 0.047712 0.017967 -0.024158
# 5 0.003660 -0.005989 -0.003539 0.017967 0.035642 -0.025103
# 6 -0.009564 0.013488 0.003815 -0.024158 -0.025103 0.093800
#
#
# Mechanical properties :
#
#
# Convention : Reuss Voigt Hill
#
# Bulk Modulus (GPa) = 29.14579 54.38830 41.76705
# Shear Modulus (GPa) = 18.68132 33.21895 25.95014
#
# Velocity S-wave (km/s) = 2.84392 3.79233 3.35184
# Velocity P-wave (km/s) = 4.83758 6.53624 5.74998
#
# Compressibility (1/GPa) = 0.03431027
#
# Stress axis : x y z
#
# Youngs Moduli (GPa) = 89.50715 26.78659 122.26975
#
# Poissons Ratio (x) = 0.11078 0.39855
# Poissons Ratio (y) = 0.37016 0.46356
# Poissons Ratio (z) = 0.29176 0.10156
#
# Static dielectric constant tensor:
#      x y z
#    x 1.899070 0.006040 -0.034160 
#    y 0.006040 1.890770 -0.040250 
#    z -0.034160 -0.040250 1.951340 
# 
# From -- ./inp_files/4430.got.cif
#   From: 2010.05.17/outbox.cif.g08.bks.cpg/sg1_3_cif.got.tgz:4430.got - 2010.05.17 20:27:59.
