data_PCOD9000146
_publ_section_title
;
Structure prediction by ZEFSAII (Michael W. Deem and Ramdas Pophale) SiO2 
 PCOD9000146
Probable space group: P 1
;
_chemical_formula_sum "Si O2"
_cell_formula_units_Z 8
_cell_length_a 13.938813
_cell_length_b 9.771721
_cell_length_c 16.977448
_cell_angle_alpha 155.001531
_cell_angle_beta 156.254297
_cell_angle_gamma 30.454049
_cell_volume 386.286972
_symmetry_space_group_name_H-M "P 1"
_symmetry_group_IT_number 1
_symmetry_cell_setting 'triclinic'
loop_
_space_group_symop_operation_xyz
x,y,z
loop_
_atom_site_type_symbol
_atom_site_label
_atom_site_fract_x
_atom_site_fract_y
_atom_site_fract_z
Si Si1 0.836250 0.430810 0.953270
Si Si2 0.590141 0.265343 0.828195
Si Si3 0.812162 0.187878 0.507726
Si Si4 0.735606 0.872770 0.884704
Si Si5 0.461234 0.951608 0.021470
Si Si6 0.918569 0.945254 0.620393
Si Si7 0.176973 0.884437 0.491181
Si Si8 0.064609 0.211940 0.415725
O O1 0.779809 0.211971 0.871181
O O2 0.627784 0.762438 0.978077
O O3 0.821429 0.225401 0.757040
O O4 0.087161 0.556012 0.221474
O O5 0.496751 0.658210 0.960066
O O6 0.346635 0.123776 0.554377
O O7 0.699813 0.145059 0.930906
O O8 0.847588 0.536434 0.748929
O O9 0.771430 0.985912 0.450210
O O10 0.032980 0.993675 0.520200
O O11 0.583650 0.229278 0.297782
O O12 0.465021 0.844285 0.694152
O O13 0.903796 0.973887 0.131524
O O14 0.180458 0.020126 0.829518
O O15 0.957258 0.584298 0.500496
O O16 0.085094 0.156198 0.495876
#
# Coordination Sequence:
#
# PCOD9000146 Si02
#       8
#     1   1   1   1   1   1   1   1
#     4   9  19  39  62  85 112 154 194 237 288 339
#     4   8  19  40  61  82 119 152 190 239 292 332
#     4  11  23  36  61  89 115 153 196 234 291 345
#     4  11  22  40  59  87 123 152 189 244 286 347
#     4   8  19  39  57  84 116 149 189 244 280 337
#     4  11  21  37  62  88 113 155 195 234 290 346
#     4  10  23  41  60  87 117 152 195 242 289 337
#     4  10  22  40  60  86 121 153 190 240 290 345
#
# _framework density 20.709993000000001
#
# number of rings (size 3 to 8) (size 9 to 14) (size 15 to 20)
#    0.750    1.500    0.000    2.250    1.750    4.000 
#    2.250    1.250    0.000    0.000    0.000    0.000 
#    0.000    0.000    0.000    0.000    0.000    0.000 
#
# Total GULP energy -44592.592164 kJ/mol
# GULP energy per Si atom -5574.074020 kJ/mol
# Density = 2.066286 g / cm^3
# Si number density = 20.709993 Si / 1000 Ang^3
#
#
#
# Elastic Constant Matrix: (Units=GPa)
#
#
# Indices 1 2 3 4 5 6 
#
# 1 83.1726 3.4138 40.8299 2.4594 -7.1488 0.3221
# 2 3.4138 39.2940 15.0578 6.6426 -11.8888 8.7410
# 3 40.8299 15.0578 114.9243 -7.1990 -15.4693 -10.0019
# 4 2.4594 6.6426 -7.1990 25.1501 -1.1860 1.2391
# 5 -7.1488 -11.8888 -15.4693 -1.1860 33.6080 3.8881
# 6 0.3221 8.7410 -10.0019 1.2391 3.8881 25.9822
#
#
#
# Elastic Compliance Matrix: (Units=1/GPa)
#
#
# Indices 1 2 3 4 5 6 
#
# 1 0.015169 0.002994 -0.006095 -0.003757 0.001768 -0.003627
# 2 0.002994 0.036623 -0.006272 -0.010392 0.012201 -0.016103
# 3 -0.006095 -0.006272 0.012868 0.005698 0.001846 0.006591
# 4 -0.003757 -0.010392 0.005698 0.044287 -0.000722 0.003732
# 5 0.001768 0.012201 0.001846 -0.000722 0.036291 -0.008813
# 6 -0.003627 -0.016103 0.006591 0.003732 -0.008813 0.047628
#
#
# Mechanical properties :
#
#
# Convention : Reuss Voigt Hill
#
# Bulk Modulus (GPa) = 21.77952 39.55487 30.66720
# Shear Modulus (GPa) = 22.03458 28.82069 25.42764
#
# Velocity S-wave (km/s) = 3.26538 3.73451 3.50779
# Velocity P-wave (km/s) = 4.97556 6.14298 5.58983
#
# Compressibility (1/GPa) = 0.04591469
#
# Stress axis : x y z
#
# Youngs Moduli (GPa) = 65.92290 27.30505 77.71489
#
# Poissons Ratio (x) = -0.08176 0.47364
# Poissons Ratio (y) = -0.19740 0.48746
# Poissons Ratio (z) = 0.40178 0.17127
#
# Static dielectric constant tensor:
#      x y z
#    x 1.746830 0.007380 0.041800 
#    y 0.007380 1.747910 0.005710 
#    z 0.041800 0.005710 1.767710 
# 
# From -- ./inp_files/3054.got.cif
#   From: 2010.05.17/outbox.cif.g08.bks.cpg/sg1_2_cif.got.tgz:3054.got - 2010.05.17 20:27:59.
