data_PCOD9000846
_publ_section_title
;
Structure prediction by ZEFSAII (Michael W. Deem and Ramdas Pophale) SiO2 
 PCOD9000846
Probable space group: P 1
;
_chemical_formula_sum "Si O2"
_cell_formula_units_Z 8
_cell_length_a 7.154037
_cell_length_b 10.351734
_cell_length_c 7.764330
_cell_angle_alpha 105.614364
_cell_angle_beta 128.516627
_cell_angle_gamma 44.508662
_cell_volume 298.912677
_symmetry_space_group_name_H-M "P 1"
_symmetry_group_IT_number 1
_symmetry_cell_setting 'triclinic'
loop_
_space_group_symop_operation_xyz
x,y,z
loop_
_atom_site_type_symbol
_atom_site_label
_atom_site_fract_x
_atom_site_fract_y
_atom_site_fract_z
Si Si1 0.736680 0.651740 0.667170
Si Si2 0.273306 0.636717 0.847849
Si Si3 0.160827 0.004554 0.259923
Si Si4 0.090409 0.299947 0.496416
Si Si5 0.679125 0.226492 0.766357
Si Si6 0.810265 0.858802 0.364606
Si Si7 0.321427 0.081456 0.894300
Si Si8 0.765905 0.645068 0.049729
O O1 0.854244 0.542246 0.880586
O O2 0.971199 0.693391 0.809300
O O3 0.843754 0.506116 0.523274
O O4 0.336405 0.844588 0.453290
O O5 0.459859 0.429170 0.809225
O O6 0.586275 0.610871 0.060836
O O7 0.079025 0.794115 0.637725
O O8 0.971152 0.211503 0.307079
O O9 0.498965 0.918239 0.317565
O O10 0.918240 0.052783 0.983449
O O11 0.384598 0.249926 0.528326
O O12 0.300808 0.162118 0.733418
O O13 0.942209 0.198342 0.786307
O O14 0.991798 0.660290 0.292651
O O15 0.593506 0.037277 0.170372
O O16 0.495839 0.864987 0.902530
#
# Coordination Sequence:
#
# PCOD9000846 Si02
#       8
#     1   1   1   1   1   1   1   1
#     4  10  22  39  63  89 117 160 195 238 302 348
#     4  10  21  38  61  87 117 157 201 237 295 350
#     4  10  20  40  60  88 121 153 199 240 295 350
#     4  11  22  41  62  87 124 151 196 252 284 352
#     4  10  23  38  59  90 116 157 200 239 296 349
#     4   8  20  36  60  90 112 159 198 231 301 349
#     4   9  20  39  58  86 119 154 193 240 296 341
#     4  10  20  39  63  83 122 155 192 247 287 351
#
# _framework density 26.763670999999999
#
# number of rings (size 3 to 8) (size 9 to 14) (size 15 to 20)
#    0.750    1.500    1.250    0.750    3.500    4.000 
#    0.000    6.250    0.000    0.000    0.000    0.000 
#    0.000    0.000    0.000    0.000    0.000    0.000 
#
# Total GULP energy -44597.900168 kJ/mol
# GULP energy per Si atom -5574.737521 kJ/mol
# Density = 2.670276 g / cm^3
# Si number density = 26.763671 Si / 1000 Ang^3
#
#
#
# Elastic Constant Matrix: (Units=GPa)
#
#
# Indices 1 2 3 4 5 6 
#
# 1 76.2497 -2.2633 9.4763 4.7181 3.5709 -3.6974
# 2 -2.2633 69.4065 -7.7374 9.7319 1.7490 3.8664
# 3 9.4763 -7.7374 64.6870 19.9603 -8.5351 -2.3287
# 4 4.7181 9.7319 19.9603 34.6984 0.5917 -4.3610
# 5 3.5709 1.7490 -8.5351 0.5917 42.8070 -2.1688
# 6 -3.6974 3.8664 -2.3287 -4.3610 -2.1688 34.1423
#
#
#
# Elastic Compliance Matrix: (Units=1/GPa)
#
#
# Indices 1 2 3 4 5 6 
#
# 1 0.013522 0.000298 -0.001890 -0.000669 -0.001451 0.001124
# 2 0.000298 0.015995 0.003995 -0.007129 0.000095 -0.002411
# 3 -0.001890 0.003995 0.020753 -0.012953 0.004280 -0.000624
# 4 -0.000669 -0.007129 -0.012953 0.038992 -0.002538 0.004671
# 5 -0.001451 0.000095 0.004280 -0.002538 0.024435 0.001352
# 6 0.001124 -0.002411 -0.000624 0.004671 0.001352 0.030324
#
#
# Mechanical properties :
#
#
# Convention : Reuss Voigt Hill
#
# Bulk Modulus (GPa) = 18.15656 23.25493 20.70575
# Shear Modulus (GPa) = 31.73144 36.38739 34.05941
#
# Velocity S-wave (km/s) = 3.44701 3.69125 3.57122
# Velocity P-wave (km/s) = 4.75829 5.18411 4.97575
#
# Compressibility (1/GPa) = 0.05507651
#
# Stress axis : x y z
#
# Youngs Moduli (GPa) = 73.95152 62.52130 48.18610
#
# Poissons Ratio (x) = -0.01863 0.09106
# Poissons Ratio (y) = -0.02204 -0.19251
# Poissons Ratio (z) = 0.13975 -0.24978
#
# Static dielectric constant tensor:
#      x y z
#    x 2.177550 -0.054950 -0.062940 
#    y -0.054950 2.162910 0.051770 
#    z -0.062940 0.051770 2.190940 
# 
# From -- ./inp_files/3738.got.cif
#   From: 2010.05.17/outbox.cif.g08.bks.cpg/sg1_2_cif.got.tgz:3738.got - 2010.05.17 20:27:59.
