data_PCOD9000735
_publ_section_title
;
Structure prediction by ZEFSAII (Michael W. Deem and Ramdas Pophale) SiO2 
 PCOD9000735
Probable space group: P 1
;
_chemical_formula_sum "Si O2"
_cell_formula_units_Z 8
_cell_length_a 7.408094
_cell_length_b 6.850814
_cell_length_c 9.786812
_cell_angle_alpha 122.443315
_cell_angle_beta 62.482883
_cell_angle_gamma 86.851942
_cell_volume 339.977037
_symmetry_space_group_name_H-M "P 1"
_symmetry_group_IT_number 1
_symmetry_cell_setting 'triclinic'
loop_
_space_group_symop_operation_xyz
x,y,z
loop_
_atom_site_type_symbol
_atom_site_label
_atom_site_fract_x
_atom_site_fract_y
_atom_site_fract_z
Si Si1 0.871670 0.230040 0.004550
Si Si2 0.981849 0.714984 0.515836
Si Si3 0.015584 0.229050 0.682808
Si Si4 0.643786 0.676841 0.844251
Si Si5 0.666105 0.730753 0.404917
Si Si6 0.312654 0.919853 0.833119
Si Si7 0.391229 0.378490 0.109688
Si Si8 0.434362 0.903803 0.267202
O O1 0.778564 0.431686 0.233164
O O2 0.646500 0.245837 0.017777
O O3 0.995172 0.335409 0.884815
O O4 0.057063 0.984024 0.915466
O O5 0.818086 0.698373 0.682237
O O6 0.847394 0.789204 0.447640
O O7 0.201722 0.461854 0.323843
O O8 0.039081 0.951405 0.612997
O O9 0.784738 0.402730 0.756855
O O10 0.223347 0.157573 0.480463
O O11 0.425223 0.733479 0.850086
O O12 0.567565 0.878669 0.071027
O O13 0.590315 0.844681 0.324534
O O14 0.454579 0.809737 0.606720
O O15 0.340400 0.181908 0.958308
O O16 0.367586 0.660146 0.177849
#
# Coordination Sequence:
#
# PCOD9000735 Si02
#       8
#     1   1   1   1   1   1   1   1
#     4  11  20  39  70  95 131 177 215 270 329 392
#     4  10  23  41  72  94 134 177 222 266 338 393
#     4  11  22  43  68  92 137 178 213 273 337 391
#     4  11  24  39  69 100 130 172 225 273 330 388
#     4  10  19  37  66  98 125 178 218 261 333 394
#     4  11  23  39  68  99 133 173 222 271 331 391
#     4  10  21  41  69  96 129 181 218 258 339 400
#     4  10  22  39  70  96 131 174 221 270 333 387
#
# _framework density 23.531001
#
# number of rings (size 3 to 8) (size 9 to 14) (size 15 to 20)
#    0.000    1.500    5.000    1.500    1.750    0.000 
#    0.000    0.000   38.500    0.000    0.000    0.000 
#    0.000    0.000    0.000    0.000    0.000    0.000 
#
# Total GULP energy -44612.152958 kJ/mol
# GULP energy per Si atom -5576.519120 kJ/mol
# Density = 2.347744 g / cm^3
# Si number density = 23.531001 Si / 1000 Ang^3
#
#
#
# Elastic Constant Matrix: (Units=GPa)
#
#
# Indices 1 2 3 4 5 6 
#
# 1 88.5423 21.1482 39.2969 -2.7124 -11.8748 -43.5543
# 2 21.1482 73.9970 35.2674 -6.3808 -5.6141 -32.5140
# 3 39.2969 35.2674 193.1051 -0.1043 -28.2547 -28.0223
# 4 -2.7124 -6.3808 -0.1043 41.3534 -10.1618 -3.4772
# 5 -11.8748 -5.6141 -28.2547 -10.1618 45.4744 11.7660
# 6 -43.5543 -32.5140 -28.0223 -3.4772 11.7660 47.7380
#
#
#
# Elastic Compliance Matrix: (Units=1/GPa)
#
#
# Indices 1 2 3 4 5 6 
#
# 1 0.022489 0.005067 -0.002141 0.004225 0.000167 0.022979
# 2 0.005067 0.021785 -0.002481 0.004949 -0.001254 0.018674
# 3 -0.002141 -0.002481 0.006467 0.000269 0.003384 -0.000661
# 4 0.004225 0.004949 0.000269 0.027350 0.005946 0.007910
# 5 0.000167 -0.001254 0.003384 0.005946 0.026560 -0.004829
# 6 0.022979 0.018674 -0.000661 0.007910 -0.004829 0.056010
#
#
# Mechanical properties :
#
#
# Convention : Reuss Voigt Hill
#
# Bulk Modulus (GPa) = 19.36790 60.78545 40.07668
# Shear Modulus (GPa) = 28.25173 44.24196 36.24685
#
# Velocity S-wave (km/s) = 3.46875 4.34078 3.92903
# Velocity P-wave (km/s) = 4.92866 7.14222 6.13608
#
# Compressibility (1/GPa) = 0.05163182
#
# Stress axis : x y z
#
# Youngs Moduli (GPa) = 44.46557 45.90270 154.64256
#
# Poissons Ratio (x) = -0.23258 0.33104
# Poissons Ratio (y) = -0.22530 0.38364
# Poissons Ratio (z) = 0.09519 0.11388
#
# Static dielectric constant tensor:
#      x y z
#    x 1.924610 0.013410 -0.017100 
#    y 0.013410 1.920000 -0.011960 
#    z -0.017100 -0.011960 2.018640 
# 
# From -- ./inp_files/4192.got.cif
#   From: 2010.05.17/outbox.cif.g08.bks.cpg/sg1_3_cif.got.tgz:4192.got - 2010.05.17 20:27:59.
