data_PCOD9000959
_publ_section_title
;
Structure prediction by ZEFSAII (Michael W. Deem and Ramdas Pophale) SiO2 
 PCOD9000959
Probable space group: P 1
;
_chemical_formula_sum "Si O2"
_cell_formula_units_Z 6
_cell_length_a 8.399265
_cell_length_b 5.236343
_cell_length_c 4.980388
_cell_angle_alpha 78.983179
_cell_angle_beta 85.152139
_cell_angle_gamma 100.733081
_cell_volume 209.601943
_symmetry_space_group_name_H-M "P 1"
_symmetry_group_IT_number 1
_symmetry_cell_setting 'triclinic'
loop_
_space_group_symop_operation_xyz
x,y,z
loop_
_atom_site_type_symbol
_atom_site_label
_atom_site_fract_x
_atom_site_fract_y
_atom_site_fract_z
Si Si1 0.783640 0.060810 0.561540
Si Si2 0.185106 0.556334 0.179976
Si Si3 0.850452 0.657950 0.185478
Si Si4 0.517572 0.528718 0.982573
Si Si5 0.116520 0.190087 0.764437
Si Si6 0.448987 0.162464 0.567033
O O1 0.817049 0.359368 0.373480
O O2 0.589127 0.003585 0.653893
O O3 0.924700 0.081543 0.760966
O O4 0.817048 0.859358 0.373536
O O5 0.376101 0.674137 0.083277
O O6 0.155436 0.451137 0.507718
O O7 0.044964 0.715203 0.093108
O O8 0.148426 0.301925 0.036301
O O9 0.709390 0.637274 0.986053
O O10 0.478656 0.267670 0.239292
O O11 0.485673 0.416870 0.710712
O O12 0.257991 0.044669 0.663728
#
# Coordination Sequence:
#
# PCOD9000959 Si02
#       6
#     1   1   1   1   1   1
#     4  10  21  38  60  86 118 154 194 240 290 346
#     4   9  18  35  58  84 115 151 192 238 288 343
#     4  10  21  38  60  86 118 154 194 240 290 346
#     4   9  18  35  58  84 115 151 192 238 288 343
#     4   9  18  35  58  84 115 151 192 238 288 343
#     4   9  18  35  58  84 115 151 192 238 288 343
#
# _framework density 28.625686999999999
#
# number of rings (size 3 to 8) (size 9 to 14) (size 15 to 20)
#    0.000    2.667    0.000    1.000    0.000    1.333 
#    0.000   26.667    0.000   36.000    0.000    0.000 
#    0.000    0.000    0.000    0.000    0.000    0.000 
#
# Total GULP energy -33642.847332 kJ/mol
# GULP energy per Si atom -5607.141222 kJ/mol
# Density = 2.856053 g / cm^3
# Si number density = 28.625687 Si / 1000 Ang^3
#
#
#
# Elastic Constant Matrix: (Units=GPa)
#
#
# Indices 1 2 3 4 5 6 
#
# 1 296.5995 56.3756 37.4521 -14.5165 -14.5523 -25.2668
# 2 56.3756 94.1932 13.5840 17.6770 1.9596 -17.3163
# 3 37.4521 13.5840 90.7230 12.0821 19.3783 15.3333
# 4 -14.5165 17.6770 12.0821 45.2820 -10.4137 8.2934
# 5 -14.5523 1.9596 19.3783 -10.4137 71.1627 -18.1332
# 6 -25.2668 -17.3163 15.3333 8.2934 -18.1332 78.9309
#
#
#
# Elastic Compliance Matrix: (Units=1/GPa)
#
#
# Indices 1 2 3 4 5 6 
#
# 1 0.004759 -0.002876 -0.002933 0.003769 0.002841 0.001719
# 2 -0.002876 0.014240 -0.000157 -0.007233 -0.001310 0.002693
# 3 -0.002933 -0.000157 0.015301 -0.005633 -0.006842 -0.004926
# 4 0.003769 -0.007233 -0.005633 0.029286 0.006572 -0.000853
# 5 0.002841 -0.001310 -0.006842 0.006572 0.018923 0.005608
# 6 0.001719 0.002693 -0.004926 -0.000853 0.005608 0.016145
#
#
# Mechanical properties :
#
#
# Convention : Reuss Voigt Hill
#
# Bulk Modulus (GPa) = 44.70718 77.37102 61.03910
# Shear Modulus (GPa) = 42.35763 64.01540 53.18652
#
# Velocity S-wave (km/s) = 3.85087 4.73408 4.31513
# Velocity P-wave (km/s) = 5.95181 7.54779 6.79681
#
# Compressibility (1/GPa) = 0.02236777
#
# Stress axis : x y z
#
# Youngs Moduli (GPa) = 210.13787 70.22432 65.35536
#
# Poissons Ratio (x) = 0.20194 0.19170
# Poissons Ratio (y) = 0.60428 0.01027
# Poissons Ratio (z) = 0.61637 0.01104
#
# Static dielectric constant tensor:
#      x y z
#    x 2.360880 0.093610 -0.078950 
#    y 0.093610 2.339980 -0.244870 
#    z -0.078950 -0.244870 2.132920 
# 
# From -- ./inp_files/53.got.cif
#   From: 2010.05.17/outbox.cif.g08.bks.cpg/sg1_1_cif.got.tgz:53.got - 2010.05.17 20:27:59.
