data_PCOD9000583
_publ_section_title
;
Structure prediction by ZEFSAII (Michael W. Deem and Ramdas Pophale) SiO2 
 PCOD9000583
Probable space group: P 1
;
_chemical_formula_sum "Si O2"
_cell_formula_units_Z 8
_cell_length_a 16.351635
_cell_length_b 8.617071
_cell_length_c 11.888957
_cell_angle_alpha 35.262744
_cell_angle_beta 157.369490
_cell_angle_gamma 147.835484
_cell_volume 338.054904
_symmetry_space_group_name_H-M "P 1"
_symmetry_group_IT_number 1
_symmetry_cell_setting 'triclinic'
loop_
_space_group_symop_operation_xyz
x,y,z
loop_
_atom_site_type_symbol
_atom_site_label
_atom_site_fract_x
_atom_site_fract_y
_atom_site_fract_z
Si Si1 0.579030 0.587200 0.315110
Si Si2 0.173316 0.263297 0.127028
Si Si3 0.058065 0.742616 0.116928
Si Si4 0.524086 0.279660 0.743079
Si Si5 0.034159 0.081187 0.662166
Si Si6 0.436497 0.673908 0.862705
Si Si7 0.191002 0.231681 0.533730
Si Si8 0.790519 0.116759 0.906274
O O1 0.315248 0.507848 0.069390
O O2 0.683095 0.362681 0.631671
O O3 0.758324 0.914633 0.386009
O O4 0.562885 0.535630 0.191211
O O5 0.358871 0.377056 0.397202
O O6 0.925739 0.181559 0.920819
O O7 0.145737 0.968452 0.198522
O O8 0.791373 0.509568 0.938581
O O9 0.073773 0.921779 0.916136
O O10 0.200210 0.549707 0.387706
O O11 0.419058 0.248063 0.751917
O O12 0.470377 0.964017 0.805379
O O13 0.173120 0.429433 0.657650
O O14 0.136808 0.047948 0.690037
O O15 0.584581 0.801742 0.862516
O O16 0.978711 0.130153 0.233368
#
# Coordination Sequence:
#
# PCOD9000583 Si02
#       8
#     1   1   1   1   1   1   1   1
#     4  12  23  47  68  95 144 181 220 284 329 402
#     4  11  24  42  74  97 134 180 228 274 337 402
#     4  12  23  47  67 102 135 181 224 276 343 401
#     4  11  24  46  70  98 138 182 222 280 340 398
#     4  12  24  41  73 101 133 182 224 277 343 395
#     4  12  24  45  70 102 140 179 224 281 341 399
#     4  11  24  44  74  96 139 176 226 279 339 401
#     4  11  24  46  70  99 139 183 224 275 344 400
#
# _framework density 23.664795999999999
#
# number of rings (size 3 to 8) (size 9 to 14) (size 15 to 20)
#    0.000    0.500    7.500    0.750    1.750    1.000 
#    0.000    0.000    5.500    0.000    0.000    0.000 
#    0.000    0.000    0.000    0.000    0.000    0.000 
#
# Total GULP energy -44642.834378 kJ/mol
# GULP energy per Si atom -5580.354297 kJ/mol
# Density = 2.361093 g / cm^3
# Si number density = 23.664796 Si / 1000 Ang^3
#
#
#
# Elastic Constant Matrix: (Units=GPa)
#
#
# Indices 1 2 3 4 5 6 
#
# 1 151.1922 63.4209 42.8925 19.1491 18.0906 34.4755
# 2 63.4209 176.5815 47.5437 43.2259 5.0355 24.2841
# 3 42.8925 47.5437 68.6179 18.2284 -4.6607 11.1343
# 4 19.1491 43.2259 18.2284 36.4483 0.7694 -9.8797
# 5 18.0906 5.0355 -4.6607 0.7694 37.0979 6.5788
# 6 34.4755 24.2841 11.1343 -9.8797 6.5788 42.1534
#
#
#
# Elastic Compliance Matrix: (Units=1/GPa)
#
#
# Indices 1 2 3 4 5 6 
#
# 1 0.011045 -0.000128 -0.004181 -0.005788 -0.004258 -0.008548
# 2 -0.000128 0.011102 -0.002294 -0.014421 0.000179 -0.009093
# 3 -0.004181 -0.002294 0.021586 -0.006950 0.005827 -0.003499
# 4 -0.005788 -0.014421 -0.006950 0.058992 -0.002476 0.029090
# 5 -0.004258 0.000179 0.005827 -0.002476 0.030409 -0.003486
# 6 -0.008548 -0.009093 -0.003499 0.029090 -0.003486 0.044238
#
#
# Mechanical properties :
#
#
# Convention : Reuss Voigt Hill
#
# Bulk Modulus (GPa) = 32.75587 78.23397 55.49492
# Shear Modulus (GPa) = 24.90604 39.30890 32.10747
#
# Velocity S-wave (km/s) = 3.24767 4.08005 3.68742
# Velocity P-wave (km/s) = 5.28534 7.43819 6.45219
#
# Compressibility (1/GPa) = 0.03052888
#
# Stress axis : x y z
#
# Youngs Moduli (GPa) = 90.53638 90.07228 46.32623
#
# Poissons Ratio (x) = 0.01150 0.19367
# Poissons Ratio (y) = 0.01156 0.10628
# Poissons Ratio (z) = 0.37849 0.20663
#
# Static dielectric constant tensor:
#      x y z
#    x 1.958500 0.054010 -0.055790 
#    y 0.054010 1.942120 -0.031300 
#    z -0.055790 -0.031300 1.981620 
# 
# From -- ./inp_files/5767.got.cif
#   From: 2010.05.17/outbox.cif.g08.bks.cpg/sg1_3_cif.got.tgz:5767.got - 2010.05.17 20:27:59.
