data_PCOD9000673
_publ_section_title
;
Structure prediction by ZEFSAII (Michael W. Deem and Ramdas Pophale) SiO2 
 PCOD9000673
Probable space group: P 1
;
_chemical_formula_sum "Si O2"
_cell_formula_units_Z 8
_cell_length_a 10.747598
_cell_length_b 5.279510
_cell_length_c 7.760268
_cell_angle_alpha 89.877183
_cell_angle_beta 136.425582
_cell_angle_gamma 87.584417
_cell_volume 302.908905
_symmetry_space_group_name_H-M "P 1"
_symmetry_group_IT_number 1
_symmetry_cell_setting 'triclinic'
loop_
_space_group_symop_operation_xyz
x,y,z
loop_
_atom_site_type_symbol
_atom_site_label
_atom_site_fract_x
_atom_site_fract_y
_atom_site_fract_z
Si Si1 0.893060 0.556370 0.619840
Si Si2 0.650362 0.579771 0.834397
Si Si3 0.407441 0.812423 0.287450
Si Si4 0.088391 0.053657 0.506660
Si Si5 0.645327 0.078567 0.010263
Si Si6 0.037087 0.558918 0.363030
Si Si7 0.055980 0.044372 0.870752
Si Si8 0.506236 0.327856 0.207195
O O1 0.963691 0.553478 0.491250
O O2 0.695954 0.456819 0.416624
O O3 0.996759 0.336254 0.837630
O O4 0.904747 0.840183 0.701303
O O5 0.540294 0.687004 0.562262
O O6 0.621511 0.284058 0.833741
O O7 0.599402 0.791183 0.930168
O O8 0.868965 0.588222 0.064710
O O9 0.375581 0.574872 0.124007
O O10 0.485244 0.074298 0.297666
O O11 0.207973 0.916127 0.143847
O O12 0.144229 0.292402 0.456449
O O13 0.137125 0.051537 0.756174
O O14 0.153672 0.797142 0.481282
O O15 0.863627 0.068531 0.272102
O O16 0.523051 0.210184 0.034734
#
# Coordination Sequence:
#
# PCOD9000673 Si02
#       8
#     1   1   1   1   1   1   1   1
#     4  10  18  35  64  82 100 156 216 231 253 355
#     4  10  19  35  52  86 115 156 185 233 283 367
#     4  12  26  34  54  98 134 138 172 262 328 316
#     4   8  14  26  52  80  92 129 206 231 239 302
#     4  10  18  35  64  82 100 156 216 231 253 355
#     4   8  14  26  52  80  92 129 206 231 239 302
#     4  10  19  35  52  86 115 156 185 233 283 367
#     4  12  22  38  58  98 114 144 198 260 294 312
#
# _framework density 26.410581000000001
#
# number of rings (size 3 to 8) (size 9 to 14) (size 15 to 20)
#    0.000    2.000    3.750    3.000    1.750    0.000 
#    0.000    0.000    0.000    0.000   97.500    0.000 
#    0.000    0.000    0.000    0.000    0.000    0.000 
#
# Total GULP energy -44699.570839 kJ/mol
# GULP energy per Si atom -5587.446355 kJ/mol
# Density = 2.635047 g / cm^3
# Si number density = 26.410581 Si / 1000 Ang^3
#
#
#
# Elastic Constant Matrix: (Units=GPa)
#
#
# Indices 1 2 3 4 5 6 
#
# 1 37.2867 14.3113 20.6513 5.0226 -2.3563 -1.8593
# 2 14.3113 189.1792 20.7874 -25.0795 -6.6571 9.7138
# 3 20.6513 20.7874 104.2748 -22.3749 -6.9629 2.7148
# 4 5.0226 -25.0795 -22.3749 37.8826 7.0171 -6.0617
# 5 -2.3563 -6.6571 -6.9629 7.0171 27.5921 4.2403
# 6 -1.8593 9.7138 2.7148 -6.0617 4.2403 27.0803
#
#
#
# Elastic Compliance Matrix: (Units=1/GPa)
#
#
# Indices 1 2 3 4 5 6 
#
# 1 0.034790 -0.003261 -0.008708 -0.012257 0.002915 0.001231
# 2 -0.003261 0.006169 0.000439 0.004448 0.000428 -0.001552
# 3 -0.008708 0.000439 0.013222 0.009171 0.000380 -0.000088
# 4 -0.012257 0.004448 0.009171 0.039060 -0.008628 0.006738
# 5 0.002915 0.000428 0.000380 -0.008628 0.040146 -0.008209
# 6 0.001231 -0.001552 -0.000088 0.006738 -0.008209 0.040371
#
#
# Mechanical properties :
#
#
# Convention : Reuss Voigt Hill
#
# Bulk Modulus (GPa) = 32.12969 49.13785 40.63377
# Shear Modulus (GPa) = 24.13234 36.84372 30.48803
#
# Velocity S-wave (km/s) = 3.02609 3.73907 3.40131
# Velocity P-wave (km/s) = 4.93979 6.10628 5.55374
#
# Compressibility (1/GPa) = 0.03112386
#
# Stress axis : x y z
#
# Youngs Moduli (GPa) = 28.74381 162.10549 75.62915
#
# Poissons Ratio (x) = 0.52857 0.65855
# Poissons Ratio (y) = 0.09372 -0.03324
# Poissons Ratio (z) = 0.25029 -0.07124
#
# Static dielectric constant tensor:
#      x y z
#    x 2.120310 -0.006600 -0.004880 
#    y -0.006600 2.152610 0.024240 
#    z -0.004880 0.024240 2.098910 
# 
# From -- ./inp_files/1180.got.cif
#   From: 2010.05.17/outbox.cif.g08.bks.cpg/sg1_1_cif.got.tgz:1180.got - 2010.05.17 20:27:59.
