data_PCOD9000409
_publ_section_title
;
Structure prediction by ZEFSAII (Michael W. Deem and Ramdas Pophale) SiO2 
 PCOD9000409
Probable space group: P 1
;
_chemical_formula_sum "Si O2"
_cell_formula_units_Z 8
_cell_length_a 5.414409
_cell_length_b 12.404954
_cell_length_c 13.137229
_cell_angle_alpha 23.920110
_cell_angle_beta 67.174713
_cell_angle_gamma 69.674319
_cell_volume 329.689229
_symmetry_space_group_name_H-M "P 1"
_symmetry_group_IT_number 1
_symmetry_cell_setting 'triclinic'
loop_
_space_group_symop_operation_xyz
x,y,z
loop_
_atom_site_type_symbol
_atom_site_label
_atom_site_fract_x
_atom_site_fract_y
_atom_site_fract_z
Si Si1 0.505760 0.097240 0.453040
Si Si2 0.983532 0.671738 0.173201
Si Si3 0.145984 0.472373 0.515529
Si Si4 0.701698 0.120600 0.946109
Si Si5 0.121305 0.308385 0.870681
Si Si6 0.015923 0.783063 0.853453
Si Si7 0.596255 0.187391 0.591583
Si Si8 0.805548 0.534569 0.913519
O O1 0.542102 0.228885 0.444849
O O2 0.197415 0.005853 0.577127
O O3 0.670053 0.819543 0.667402
O O4 0.593423 0.299693 0.176557
O O5 0.176528 0.652514 0.256711
O O6 0.770560 0.886044 0.060869
O O7 0.817630 0.400697 0.410820
O O8 0.131335 0.728257 0.993898
O O9 0.200106 0.517592 0.586468
O O10 0.331805 0.226542 0.666515
O O11 0.833182 0.383393 0.645016
O O12 0.391680 0.158157 0.983752
O O13 0.893269 0.117690 0.018321
O O14 0.990184 0.451754 0.862422
O O15 0.976285 0.558754 0.969695
O O16 0.728935 0.902208 0.822459
#
# Coordination Sequence:
#
# PCOD9000409 Si02
#       8
#     1   1   1   1   1   1   1   1
#     4  11  26  47  76 113 148 205 257 322 393 459
#     4  12  22  39  74 110 147 202 242 331 384 470
#     4  10  24  41  69 106 149 192 249 309 388 449
#     4  10  25  47  71 105 152 193 257 309 389 455
#     4  10  25  51  71 109 149 203 256 317 379 463
#     4  11  26  44  75 108 154 199 256 321 398 463
#     4  11  23  42  66 110 158 185 262 312 396 464
#     4  11  27  51  76 109 153 203 263 321 381 469
#
# _framework density 24.265273000000001
#
# number of rings (size 3 to 8) (size 9 to 14) (size 15 to 20)
#    0.750    0.500    1.250    3.750    7.000    1.000 
#    2.250    0.000    0.000    0.000    0.000    0.000 
#    0.000    0.000    0.000    0.000    0.000    0.000 
#
# Total GULP energy -44698.604749 kJ/mol
# GULP energy per Si atom -5587.325594 kJ/mol
# Density = 2.421004 g / cm^3
# Si number density = 24.265273 Si / 1000 Ang^3
#
#
#
# Elastic Constant Matrix: (Units=GPa)
#
#
# Indices 1 2 3 4 5 6 
#
# 1 117.1455 53.4568 21.4506 5.3924 -0.8220 -12.1419
# 2 53.4568 200.9549 44.6158 21.0479 -0.5627 -17.2527
# 3 21.4506 44.6158 79.8746 8.9618 -3.8358 -5.9152
# 4 5.3924 21.0479 8.9618 28.9203 1.2579 -4.5347
# 5 -0.8220 -0.5627 -3.8358 1.2579 23.6462 -1.7978
# 6 -12.1419 -17.2527 -5.9152 -4.5347 -1.7978 27.9860
#
#
#
# Elastic Compliance Matrix: (Units=1/GPa)
#
#
# Indices 1 2 3 4 5 6 
#
# 1 0.010049 -0.002197 -0.001312 0.000565 0.000270 0.002837
# 2 -0.002197 0.006664 -0.002608 -0.003307 -0.000008 0.002067
# 3 -0.001312 -0.002608 0.014773 -0.002431 0.002472 0.000710
# 4 0.000565 -0.003307 -0.002431 0.038318 -0.002206 0.003759
# 5 0.000270 -0.000008 0.002472 -0.002206 0.043049 0.003043
# 6 0.002837 0.002067 0.000710 0.003759 0.003043 0.039192
#
#
# Mechanical properties :
#
#
# Convention : Reuss Voigt Hill
#
# Bulk Modulus (GPa) = 51.94403 70.78015 61.36209
# Shear Modulus (GPa) = 29.29178 34.67394 31.98286
#
# Velocity S-wave (km/s) = 3.47817 3.78425 3.63444
# Velocity P-wave (km/s) = 6.13053 6.95174 6.55401
#
# Compressibility (1/GPa) = 0.01925149
#
# Stress axis : x y z
#
# Youngs Moduli (GPa) = 99.51233 150.06989 67.69108
#
# Poissons Ratio (x) = 0.32966 0.08881
# Poissons Ratio (y) = 0.21860 0.17656
# Poissons Ratio (z) = 0.13056 0.39144
#
# Static dielectric constant tensor:
#      x y z
#    x 1.983760 0.030020 0.025010 
#    y 0.030020 1.864820 -0.023780 
#    z 0.025010 -0.023780 2.054830 
# 
# From -- ./inp_files/2566.got.cif
#   From: 2010.05.17/outbox.cif.g08.bks.cpg/sg1_2_cif.got.tgz:2566.got - 2010.05.17 20:27:59.
