data_PCOD9000524
_publ_section_title
;
Structure prediction by ZEFSAII (Michael W. Deem and Ramdas Pophale) SiO2 
 PCOD9000524
Probable space group: P 1
;
_chemical_formula_sum "Si O2"
_cell_formula_units_Z 8
_cell_length_a 8.509263
_cell_length_b 9.202939
_cell_length_c 11.756203
_cell_angle_alpha 152.023784
_cell_angle_beta 124.745715
_cell_angle_gamma 63.253616
_cell_volume 351.457256
_symmetry_space_group_name_H-M "P 1"
_symmetry_group_IT_number 1
_symmetry_cell_setting 'triclinic'
loop_
_space_group_symop_operation_xyz
x,y,z
loop_
_atom_site_type_symbol
_atom_site_label
_atom_site_fract_x
_atom_site_fract_y
_atom_site_fract_z
Si Si1 0.058810 0.688450 0.866270
Si Si2 0.034131 0.728789 0.143669
Si Si3 0.667025 0.025529 0.148326
Si Si4 0.077449 0.416716 0.323850
Si Si5 0.799491 0.614938 0.513301
Si Si6 0.366494 0.252283 0.630163
Si Si7 0.473817 0.381869 0.511349
Si Si8 0.782935 0.304025 0.921665
O O1 0.225029 0.514208 0.761692
O O2 0.851843 0.619912 0.671416
O O3 0.052137 0.609143 0.940749
O O4 0.089187 0.059191 0.114759
O O5 0.882083 0.979111 0.246068
O O6 0.928788 0.447221 0.981754
O O7 0.239280 0.931310 0.401516
O O8 0.668628 0.282210 0.224842
O O9 0.555267 0.146137 0.293545
O O10 0.593903 0.691686 0.830658
O O11 0.301898 0.523089 0.469510
O O12 0.001892 0.594262 0.521023
O O13 0.910601 0.424001 0.166999
O O14 0.739243 0.928676 0.657616
O O15 0.413194 0.202212 0.481652
O O16 0.567841 0.380587 0.864037
#
# Coordination Sequence:
#
# PCOD9000524 Si02
#       8
#     1   1   1   1   1   1   1   1
#     4  11  20  44  82 103 148 198 270 305 374 464
#     4  12  25  45  75 114 148 204 254 324 378 459
#     4  12  25  44  83 116 146 201 272 312 375 466
#     4  11  24  47  72 105 153 203 249 322 385 455
#     4  11  24  47  72 105 153 203 249 322 385 455
#     4  12  25  45  75 114 148 204 254 324 378 459
#     4  12  25  44  83 116 146 201 272 312 375 466
#     4  11  30  46  70 113 162 196 250 323 404 440
#
# _framework density 22.762370000000001
#
# number of rings (size 3 to 8) (size 9 to 14) (size 15 to 20)
#    0.000    0.500    6.250    1.500    3.500    4.000 
#    0.000    0.000    0.000    0.000    0.000    0.000 
#    0.000    0.000    0.000    0.000    0.000    0.000 
#
# Total GULP energy -44591.810814 kJ/mol
# GULP energy per Si atom -5573.976352 kJ/mol
# Density = 2.271056 g / cm^3
# Si number density = 22.762370 Si / 1000 Ang^3
#
#
#
# Elastic Constant Matrix: (Units=GPa)
#
#
# Indices 1 2 3 4 5 6 
#
# 1 105.8813 28.8387 18.5915 -13.7407 -7.2923 -6.5280
# 2 28.8387 96.4527 24.5271 -9.5087 12.2871 2.3308
# 3 18.5915 24.5271 66.5691 -2.2130 20.0737 -2.9441
# 4 -13.7407 -9.5087 -2.2130 37.6597 -7.6771 13.4566
# 5 -7.2923 12.2871 20.0737 -7.6771 47.4117 2.3742
# 6 -6.5280 2.3308 -2.9441 13.4566 2.3742 32.2991
#
#
#
# Elastic Compliance Matrix: (Units=1/GPa)
#
#
# Indices 1 2 3 4 5 6 
#
# 1 0.011706 -0.002787 -0.003511 0.004275 0.004695 0.000121
# 2 -0.002787 0.012601 -0.003386 0.002597 -0.001703 -0.002738
# 3 -0.003511 -0.003386 0.019986 -0.004127 -0.008980 0.003736
# 4 0.004275 0.002597 -0.004127 0.035623 0.008258 -0.015148
# 5 0.004695 -0.001703 -0.008980 0.008258 0.027656 -0.005220
# 6 0.000121 -0.002738 0.003736 -0.015148 -0.005220 0.038218
#
#
# Mechanical properties :
#
#
# Convention : Reuss Voigt Hill
#
# Bulk Modulus (GPa) = 40.11871 45.86864 42.99367
# Shear Modulus (GPa) = 28.82442 36.60383 32.71412
#
# Velocity S-wave (km/s) = 3.56240 4.01444 3.79516
# Velocity P-wave (km/s) = 5.88083 6.45620 6.17522
#
# Compressibility (1/GPa) = 0.02492603
#
# Stress axis : x y z
#
# Youngs Moduli (GPa) = 85.42914 79.35816 50.03572
#
# Poissons Ratio (x) = 0.22115 0.17566
# Poissons Ratio (y) = 0.23807 0.16941
# Poissons Ratio (z) = 0.29992 0.26868
#
# Static dielectric constant tensor:
#      x y z
#    x 1.923120 0.039810 0.131300 
#    y 0.039810 1.862010 -0.019450 
#    z 0.131300 -0.019450 2.073920 
# 
# From -- ./inp_files/3063.got.cif
#   From: 2010.05.17/outbox.cif.g08.bks.cpg/sg1_2_cif.got.tgz:3063.got - 2010.05.17 20:27:59.
