data_PCOD9000432
_publ_section_title
;
Structure prediction by ZEFSAII (Michael W. Deem and Ramdas Pophale) SiO2 
 PCOD9000432
Probable space group: P 1
;
_chemical_formula_sum "Si O2"
_cell_formula_units_Z 8
_cell_length_a 13.518755
_cell_length_b 5.216971
_cell_length_c 7.142224
_cell_angle_alpha 99.032543
_cell_angle_beta 43.590459
_cell_angle_gamma 82.358773
_cell_volume 319.709195
_symmetry_space_group_name_H-M "P 1"
_symmetry_group_IT_number 1
_symmetry_cell_setting 'triclinic'
loop_
_space_group_symop_operation_xyz
x,y,z
loop_
_atom_site_type_symbol
_atom_site_label
_atom_site_fract_x
_atom_site_fract_y
_atom_site_fract_z
Si Si1 0.213100 0.729980 0.164680
Si Si2 0.783841 0.917553 0.340586
Si Si3 0.566726 0.271516 0.132280
Si Si4 0.221616 0.981998 0.807171
Si Si5 0.452091 0.208331 0.671728
Si Si6 0.902029 0.392384 0.377857
Si Si7 0.411660 0.831286 0.193727
Si Si8 0.885003 0.808154 0.763777
O O1 0.340018 0.841132 0.088499
O O2 0.047872 0.831170 0.496338
O O3 0.310560 0.405003 0.008708
O O4 0.184184 0.796466 0.993055
O O5 0.811898 0.653799 0.402225
O O6 0.604569 0.069107 0.562235
O O7 0.844816 0.140382 0.379849
O O8 0.860614 0.814950 0.020727
O O9 0.497942 0.359398 0.446864
O O10 0.532903 0.536570 0.072187
O O11 0.479676 0.073010 0.151398
O O12 0.741880 0.067299 0.906756
O O13 0.384029 0.000817 0.643666
O O14 0.259442 0.873765 0.534488
O O15 0.080066 0.271830 0.052904
O O16 0.889868 0.525749 0.617359
#
# Coordination Sequence:
#
# PCOD9000432 Si02
#       8
#     1   1   1   1   1   1   1   1
#     4  12  25  44  72 104 140 187 235 293 356 423
#     4  11  29  48  74 108 147 193 243 298 359 432
#     4  10  25  48  70 103 144 188 232 298 353 423
#     4  11  25  47  69 106 146 186 234 300 357 424
#     4  10  24  46  71  99 147 182 236 292 356 417
#     4  12  27  47  77 106 148 194 240 294 370 430
#     4  11  26  44  75 102 142 186 242 288 357 425
#     4  11  27  48  72 110 148 188 242 301 362 430
#
# _framework density 25.022742999999998
#
# number of rings (size 3 to 8) (size 9 to 14) (size 15 to 20)
#    0.000    1.000    2.500    1.500    7.000    9.000 
#    0.000    0.000    0.000    0.000    0.000    0.000 
#    0.000    0.000    0.000    0.000    0.000    0.000 
#
# Total GULP energy -44782.178362 kJ/mol
# GULP energy per Si atom -5597.772295 kJ/mol
# Density = 2.496579 g / cm^3
# Si number density = 25.022743 Si / 1000 Ang^3
#
#
#
# Elastic Constant Matrix: (Units=GPa)
#
#
# Indices 1 2 3 4 5 6 
#
# 1 98.6568 30.5517 21.0559 6.6126 -13.7717 8.7858
# 2 30.5517 83.6516 -9.4793 11.0182 -1.7387 -12.9278
# 3 21.0559 -9.4793 107.1832 9.6870 -3.4504 -13.0458
# 4 6.6126 11.0182 9.6870 35.6806 -2.7661 2.2181
# 5 -13.7717 -1.7387 -3.4504 -2.7661 51.9710 -7.0445
# 6 8.7858 -12.9278 -13.0458 2.2181 -7.0445 33.9809
#
#
#
# Elastic Compliance Matrix: (Units=1/GPa)
#
#
# Indices 1 2 3 4 5 6 
#
# 1 0.014124 -0.006959 -0.004365 0.001364 0.002263 -0.007595
# 2 -0.006959 0.017497 0.004774 -0.006061 0.000189 0.010723
# 3 -0.004365 0.004774 0.011995 -0.004367 0.000647 0.007969
# 4 0.001364 -0.006061 -0.004367 0.031272 0.000688 -0.006234
# 5 0.002263 0.000189 0.000647 0.000688 0.020460 0.003932
# 6 -0.007595 0.010723 0.007969 -0.006234 0.003932 0.039753
#
#
# Mechanical properties :
#
#
# Convention : Reuss Voigt Hill
#
# Bulk Modulus (GPa) = 32.77206 41.52757 37.14982
# Shear Modulus (GPa) = 31.57112 40.81741 36.19426
#
# Velocity S-wave (km/s) = 3.55589 4.04321 3.80735
# Velocity P-wave (km/s) = 5.47581 6.19909 5.84864
#
# Compressibility (1/GPa) = 0.03051379
#
# Stress axis : x y z
#
# Youngs Moduli (GPa) = 70.80279 57.15423 83.36864
#
# Poissons Ratio (x) = 0.39776 0.36390
# Poissons Ratio (y) = 0.49274 -0.39797
# Poissons Ratio (z) = 0.30905 -0.27283
#
# Static dielectric constant tensor:
#      x y z
#    x 2.002140 0.009570 0.050630 
#    y 0.009570 1.977530 -0.007950 
#    z 0.050630 -0.007950 2.040970 
# 
# From -- ./inp_files/5655.got.cif
#   From: 2010.05.17/outbox.cif.g08.bks.cpg/sg1_3_cif.got.tgz:5655.got - 2010.05.17 20:27:59.
