data_PCOD9000162
_publ_section_title
;
Structure prediction by ZEFSAII (Michael W. Deem and Ramdas Pophale) SiO2 
 PCOD9000162
Probable space group: P 1
;
_chemical_formula_sum "Si O2"
_cell_formula_units_Z 8
_cell_length_a 14.936381
_cell_length_b 8.414920
_cell_length_c 4.973433
_cell_angle_alpha 118.880910
_cell_angle_beta 113.511870
_cell_angle_gamma 33.678650
_cell_volume 303.522092
_symmetry_space_group_name_H-M "P 1"
_symmetry_group_IT_number 1
_symmetry_cell_setting 'triclinic'
loop_
_space_group_symop_operation_xyz
x,y,z
loop_
_atom_site_type_symbol
_atom_site_label
_atom_site_fract_x
_atom_site_fract_y
_atom_site_fract_z
Si Si1 0.551010 0.958440 0.442330
Si Si2 0.251462 0.884221 0.634585
Si Si3 0.857416 0.121861 0.111324
Si Si4 0.743842 0.981802 0.509898
Si Si5 0.443128 0.309636 0.112624
Si Si6 0.970474 0.120644 0.746117
Si Si7 0.357987 0.924681 0.271855
Si Si8 0.069603 0.604616 0.307662
O O1 0.713911 0.836156 0.510111
O O2 0.522776 0.794457 0.359658
O O3 0.476219 0.088344 0.162207
O O4 0.452423 0.225123 0.756168
O O5 0.292201 0.641618 0.318096
O O6 0.071431 0.131891 0.743726
O O7 0.294668 0.966494 0.525123
O O8 0.358646 0.756843 0.926100
O O9 0.739211 0.160032 0.849368
O O10 0.898442 0.224401 0.039569
O O11 0.089898 0.769288 0.611778
O O12 0.008525 0.760464 0.068612
O O13 0.913200 0.740609 0.363533
O O14 0.598315 0.203574 0.298809
O O15 0.837921 0.243034 0.477189
O O16 0.222105 0.255024 0.246206
#
# Coordination Sequence:
#
# PCOD9000162 Si02
#       8
#     1   1   1   1   1   1   1   1
#     4  10  22  41  66  95 120 172 220 264 298 383
#     4  12  25  42  60  95 140 170 201 265 327 389
#     4   9  18  34  65  91 117 149 218 264 302 352
#     4   9  20  37  70  93 120 159 227 268 301 362
#     4  10  22  40  68  87 125 168 223 252 315 364
#     4   9  20  36  63  87 122 164 211 261 300 373
#     4  12  26  39  65  96 136 167 209 258 336 373
#     4   9  21  39  67  94 120 165 213 270 305 378
#
# _framework density 26.357223999999999
#
# number of rings (size 3 to 8) (size 9 to 14) (size 15 to 20)
#    1.500    0.500    0.000    3.750    3.500    2.000 
#    0.000    0.000   13.750    0.000    0.000    0.000 
#    0.000    0.000    0.000    0.000    0.000    0.000 
#
# Total GULP energy -44632.886373 kJ/mol
# GULP energy per Si atom -5579.110797 kJ/mol
# Density = 2.629723 g / cm^3
# Si number density = 26.357224 Si / 1000 Ang^3
#
#
#
# Elastic Constant Matrix: (Units=GPa)
#
#
# Indices 1 2 3 4 5 6 
#
# 1 201.0678 20.1860 37.9274 -16.2708 -14.2716 -13.5539
# 2 20.1860 68.6399 11.3437 -6.7779 -2.4501 -12.0884
# 3 37.9274 11.3437 118.2329 -13.9381 -8.3584 7.1087
# 4 -16.2708 -6.7779 -13.9381 28.5662 7.1681 4.2177
# 5 -14.2716 -2.4501 -8.3584 7.1681 46.3454 -9.1076
# 6 -13.5539 -12.0884 7.1087 4.2177 -9.1076 25.0775
#
#
#
# Elastic Compliance Matrix: (Units=1/GPa)
#
#
# Indices 1 2 3 4 5 6 
#
# 1 0.005876 -0.000542 -0.001778 0.001255 0.002042 0.003949
# 2 -0.000542 0.016731 -0.001698 0.001037 0.001980 0.008799
# 3 -0.001778 -0.001698 0.010008 0.004448 -0.000619 -0.005589
# 4 0.001255 0.001037 0.004448 0.041317 -0.007030 -0.009585
# 5 0.002042 0.001980 -0.000619 -0.007030 0.025799 0.012786
# 6 0.003949 0.008799 -0.005589 -0.009585 0.012786 0.054092
#
#
# Mechanical properties :
#
#
# Convention : Reuss Voigt Hill
#
# Bulk Modulus (GPa) = 40.68531 58.53943 49.61237
# Shear Modulus (GPa) = 29.40269 41.23004 35.31637
#
# Velocity S-wave (km/s) = 3.34360 3.95939 3.66445
# Velocity P-wave (km/s) = 5.51143 6.56967 6.06368
#
# Compressibility (1/GPa) = 0.02457889
#
# Stress axis : x y z
#
# Youngs Moduli (GPa) = 170.18447 59.76789 99.92154
#
# Poissons Ratio (x) = 0.03238 0.17767
# Poissons Ratio (y) = 0.09221 0.16969
# Poissons Ratio (z) = 0.30260 0.10150
#
# Static dielectric constant tensor:
#      x y z
#    x 2.143720 -0.005910 0.014670 
#    y -0.005910 2.157560 0.058280 
#    z 0.014670 0.058280 2.042270 
# 
# From -- ./inp_files/698.got.cif
#   From: 2010.05.17/outbox.cif.g08.bks.cpg/sg1_1_cif.got.tgz:698.got - 2010.05.17 20:27:59.
