data_PCOD9000043
_publ_section_title
;
Structure prediction by ZEFSAII (Michael W. Deem and Ramdas Pophale) SiO2 
 PCOD9000043
Probable space group: P 1
;
_chemical_formula_sum "Si O2"
_cell_formula_units_Z 8
_cell_length_a 8.003217
_cell_length_b 7.871949
_cell_length_c 7.995786
_cell_angle_alpha 121.713477
_cell_angle_beta 54.485962
_cell_angle_gamma 125.283722
_cell_volume 320.714794
_symmetry_space_group_name_H-M "P 1"
_symmetry_group_IT_number 1
_symmetry_cell_setting 'triclinic'
loop_
_space_group_symop_operation_xyz
x,y,z
loop_
_atom_site_type_symbol
_atom_site_label
_atom_site_fract_x
_atom_site_fract_y
_atom_site_fract_z
Si Si1 0.785240 0.605660 0.521990
Si Si2 0.127487 0.695088 0.644865
Si Si3 0.403386 0.258488 0.458844
Si Si4 0.212371 0.113699 0.982564
Si Si5 0.859660 0.921175 0.338338
Si Si6 0.798162 0.203822 0.126363
Si Si7 0.934310 0.254850 0.706624
Si Si8 0.476656 0.531749 0.216115
O O1 0.529298 0.444249 0.618106
O O2 0.806137 0.792423 0.477093
O O3 0.873399 0.446539 0.284579
O O4 0.921201 0.691098 0.653501
O O5 0.035330 0.512796 0.748249
O O6 0.278405 0.613694 0.398538
O O7 0.264755 0.934728 0.758118
O O8 0.540742 0.103566 0.291649
O O9 0.142833 0.186400 0.589094
O O10 0.468093 0.396045 0.320074
O O11 0.407864 0.347492 0.019441
O O12 0.990672 0.131028 0.040766
O O13 0.110016 0.004510 0.164872
O O14 0.700787 0.748120 0.208448
O O15 0.832502 0.140573 0.529479
O O16 0.789481 0.197877 0.927707
#
# Coordination Sequence:
#
# PCOD9000043 Si02
#       8
#     1   1   1   1   1   1   1   1
#     4   9  19  41  64  94 137 167 220 284 320 398
#     4  11  22  42  68  97 134 175 223 278 332 403
#     4   8  19  39  67  87 136 169 212 282 320 391
#     4  12  23  44  66  97 138 174 222 278 334 401
#     4  11  22  41  69  93 135 177 214 281 337 387
#     4  10  21  41  67  95 138 172 222 280 326 404
#     4  11  21  42  70  99 132 181 223 270 348 393
#     4  10  21  44  63  96 132 171 224 277 329 395
#
# _framework density 24.944279999999999
#
# number of rings (size 3 to 8) (size 9 to 14) (size 15 to 20)
#    0.750    1.000    3.750    1.500    0.000    1.000 
#    6.750    1.250    0.000    0.000    0.000    0.000 
#    0.000    0.000    0.000    0.000    0.000    0.000 
#
# Total GULP energy -44643.207347 kJ/mol
# GULP energy per Si atom -5580.400918 kJ/mol
# Density = 2.488751 g / cm^3
# Si number density = 24.944280 Si / 1000 Ang^3
#
#
#
# Elastic Constant Matrix: (Units=GPa)
#
#
# Indices 1 2 3 4 5 6 
#
# 1 89.6574 29.0374 22.2979 12.4491 9.1374 22.8454
# 2 29.0374 83.9342 37.8565 24.1413 12.3845 23.1626
# 3 22.2979 37.8565 107.7994 26.6090 22.0405 17.0403
# 4 12.4491 24.1413 26.6090 47.8894 5.7617 8.3562
# 5 9.1374 12.3845 22.0405 5.7617 32.4042 10.0649
# 6 22.8454 23.1626 17.0403 8.3562 10.0649 33.2566
#
#
#
# Elastic Compliance Matrix: (Units=1/GPa)
#
#
# Indices 1 2 3 4 5 6 
#
# 1 0.014095 -0.002222 -0.000713 -0.000817 -0.000161 -0.007516
# 2 -0.002222 0.017856 -0.003145 -0.005235 -0.000716 -0.007767
# 3 -0.000713 -0.003145 0.013121 -0.004582 -0.006411 -0.000951
# 4 -0.000817 -0.005235 -0.004582 0.026234 0.000767 -0.000268
# 5 -0.000161 -0.000716 -0.006411 0.000767 0.037808 -0.007741
# 6 -0.007516 -0.007767 -0.000951 -0.000268 -0.007741 0.043539
#
#
# Mechanical properties :
#
#
# Convention : Reuss Voigt Hill
#
# Bulk Modulus (GPa) = 30.38302 51.08608 40.73455
# Shear Modulus (GPa) = 28.44438 35.52333 31.98386
#
# Velocity S-wave (km/s) = 3.38052 3.77783 3.58468
# Velocity P-wave (km/s) = 5.23870 6.28919 5.78783
#
# Compressibility (1/GPa) = 0.03291313
#
# Stress axis : x y z
#
# Youngs Moduli (GPa) = 70.94490 56.00454 76.21643
#
# Poissons Ratio (x) = 0.12445 0.05431
# Poissons Ratio (y) = 0.15764 0.23968
# Poissons Ratio (z) = 0.05055 0.17612
#
# Static dielectric constant tensor:
#      x y z
#    x 2.083410 0.008350 0.021310 
#    y 0.008350 1.977670 0.026020 
#    z 0.021310 0.026020 1.997420 
# 
# From -- ./inp_files/4402.got.cif
#   From: 2010.05.17/outbox.cif.g08.bks.cpg/sg1_3_cif.got.tgz:4402.got - 2010.05.17 20:27:59.
