data_PCOD9000311
_publ_section_title
;
Structure prediction by ZEFSAII (Michael W. Deem and Ramdas Pophale) SiO2 
 PCOD9000311
Probable space group: P 1
;
_chemical_formula_sum "Si O2"
_cell_formula_units_Z 6
_cell_length_a 7.520832
_cell_length_b 10.253344
_cell_length_c 8.761602
_cell_angle_alpha 29.189725
_cell_angle_beta 53.438930
_cell_angle_gamma 44.183837
_cell_volume 228.739181
_symmetry_space_group_name_H-M "P 1"
_symmetry_group_IT_number 1
_symmetry_cell_setting 'triclinic'
loop_
_space_group_symop_operation_xyz
x,y,z
loop_
_atom_site_type_symbol
_atom_site_label
_atom_site_fract_x
_atom_site_fract_y
_atom_site_fract_z
Si Si1 0.362450 0.936000 0.062130
Si Si2 0.681332 0.496667 0.619479
Si Si3 0.093519 0.966976 0.734724
Si Si4 0.859977 0.798112 0.765238
Si Si5 0.010429 0.666167 0.488090
Si Si6 0.333724 0.329205 0.165144
O O1 0.469862 0.751570 0.354492
O O2 0.325054 0.034550 0.529089
O O3 0.173542 0.828962 0.199381
O O4 0.602110 0.842929 0.924191
O O5 0.557712 0.357621 0.940555
O O6 0.818564 0.654397 0.476386
O O7 0.886030 0.219335 0.693679
O O8 0.217512 0.600626 0.075816
O O9 0.940500 0.004436 0.615770
O O10 0.861508 0.834730 0.547493
O O11 0.103021 0.464852 0.020629
O O12 0.211482 0.303415 0.785811
#
# Coordination Sequence:
#
# PCOD9000311 Si02
#       6
#     1   1   1   1   1   1
#     4  12  27  49  74 102 153 187 232 303 353 423
#     4  12  26  49  77 104 146 190 238 297 355 424
#     4  10  23  41  72 105 133 193 232 278 366 417
#     4  10  25  44  74 102 145 187 235 291 362 412
#     4  12  31  45  74 114 137 190 247 287 359 427
#     4  10  24  40  77  99 138 189 234 282 361 413
#
# _framework density 26.230747999999998
#
# number of rings (size 3 to 8) (size 9 to 14) (size 15 to 20)
#    1.000    0.000    3.333    1.000    4.667    9.333 
#    0.000    0.000    0.000    2.000    0.000    0.000 
#    0.000    0.000    0.000    0.000    0.000    0.000 
#
# Total GULP energy -33630.463640 kJ/mol
# GULP energy per Si atom -5605.077273 kJ/mol
# Density = 2.617105 g / cm^3
# Si number density = 26.230748 Si / 1000 Ang^3
#
#
#
# Elastic Constant Matrix: (Units=GPa)
#
#
# Indices 1 2 3 4 5 6 
#
# 1 156.2153 63.5731 46.8018 11.8290 -30.6484 3.7339
# 2 63.5731 146.4252 30.3701 12.4091 -34.0580 11.1311
# 3 46.8018 30.3701 107.1402 -13.3187 -36.0907 -0.1110
# 4 11.8290 12.4091 -13.3187 36.8559 -4.6422 -10.4826
# 5 -30.6484 -34.0580 -36.0907 -4.6422 70.6335 5.2158
# 6 3.7339 11.1311 -0.1110 -10.4826 5.2158 47.8167
#
#
#
# Elastic Compliance Matrix: (Units=1/GPa)
#
#
# Indices 1 2 3 4 5 6 
#
# 1 0.008885 -0.002655 -0.003291 -0.003306 0.000742 -0.000889
# 2 -0.002655 0.009330 -0.000893 -0.003088 0.002906 -0.002961
# 3 -0.003291 -0.000893 0.013842 0.007499 0.005594 0.001531
# 4 -0.003306 -0.003088 0.007499 0.034630 0.002571 0.008306
# 5 0.000742 0.002906 0.005594 0.002571 0.019074 -0.002238
# 6 -0.000889 -0.002961 0.001531 0.008306 -0.002238 0.023740
#
#
# Mechanical properties :
#
#
# Convention : Reuss Voigt Hill
#
# Bulk Modulus (GPa) = 54.40484 76.80784 65.60634
# Shear Modulus (GPa) = 38.66849 48.99693 43.83271
#
# Velocity S-wave (km/s) = 3.84365 4.32663 4.09227
# Velocity P-wave (km/s) = 6.36271 7.36918 6.88436
#
# Compressibility (1/GPa) = 0.01838072
#
# Stress axis : x y z
#
# Youngs Moduli (GPa) = 112.55163 107.18200 72.24183
#
# Poissons Ratio (x) = 0.28452 0.23772
# Poissons Ratio (y) = 0.29877 0.06452
# Poissons Ratio (z) = 0.37036 0.09572
#
# Static dielectric constant tensor:
#      x y z
#    x 2.038440 -0.027190 0.096840 
#    y -0.027190 2.059800 0.005230 
#    z 0.096840 0.005230 2.090020 
# 
# From -- ./inp_files/2935.got.cif
#   From: 2010.05.17/outbox.cif.g08.bks.cpg/sg1_2_cif.got.tgz:2935.got - 2010.05.17 20:27:59.
