data_PCOD9000038
_publ_section_title
;
Structure prediction by ZEFSAII (Michael W. Deem and Ramdas Pophale) SiO2 
 PCOD9000038
Probable space group: P 1
;
_chemical_formula_sum "Si O2"
_cell_formula_units_Z 8
_cell_length_a 5.310647
_cell_length_b 8.224488
_cell_length_c 11.055450
_cell_angle_alpha 48.856835
_cell_angle_beta 65.011363
_cell_angle_gamma 86.734502
_cell_volume 311.846406
_symmetry_space_group_name_H-M "P 1"
_symmetry_group_IT_number 1
_symmetry_cell_setting 'triclinic'
loop_
_space_group_symop_operation_xyz
x,y,z
loop_
_atom_site_type_symbol
_atom_site_label
_atom_site_fract_x
_atom_site_fract_y
_atom_site_fract_z
Si Si1 0.707150 0.358130 0.652510
Si Si2 0.240359 0.622717 0.565524
Si Si3 0.175356 0.734747 0.795896
Si Si4 0.586374 0.850856 0.876026
Si Si5 0.025777 0.537524 0.271648
Si Si6 0.491447 0.095036 0.149987
Si Si7 0.780262 0.277189 0.215435
Si Si8 0.003480 0.012929 0.138138
O O1 0.459723 0.471598 0.606820
O O2 0.908118 0.488861 0.657802
O O3 0.957997 0.396716 0.476827
O O4 0.574401 0.087074 0.815065
O O5 0.238412 0.733903 0.642682
O O6 0.353438 0.827441 0.343205
O O7 0.458153 0.835799 0.773376
O O8 0.914155 0.840392 0.820723
O O9 0.028927 0.477162 0.998526
O O10 0.354247 0.645150 0.099223
O O11 0.808853 0.376694 0.294279
O O12 0.960679 0.768932 0.210651
O O13 0.827002 0.128977 0.033089
O O14 0.328732 0.148756 0.043961
O O15 0.498099 0.231379 0.206736
O O16 0.854442 0.042883 0.285388
#
# Coordination Sequence:
#
# PCOD9000038 Si02
#       8
#     1   1   1   1   1   1   1   1
#     4  12  26  46  72 107 138 193 232 292 371 407
#     4  12  24  46  71 102 144 184 240 291 354 433
#     4  11  26  47  69 100 147 184 236 297 352 428
#     4  11  28  47  69 108 141 187 238 293 360 421
#     4  11  24  47  74 103 147 180 242 297 346 436
#     4  10  21  41  64  99 133 170 240 273 346 416
#     4   9  25  41  70 102 135 188 232 280 371 400
#     4  10  22  41  65 103 133 180 234 285 344 425
#
# _framework density 25.653655000000001
#
# number of rings (size 3 to 8) (size 9 to 14) (size 15 to 20)
#    0.750    0.500    2.500    1.500    7.000    6.000 
#    0.000    0.000    0.000    0.000    0.000    0.000 
#    0.000    0.000    0.000    0.000    0.000    0.000 
#
# Total GULP energy -44647.773867 kJ/mol
# GULP energy per Si atom -5580.971733 kJ/mol
# Density = 2.559527 g / cm^3
# Si number density = 25.653655 Si / 1000 Ang^3
#
#
#
# Elastic Constant Matrix: (Units=GPa)
#
#
# Indices 1 2 3 4 5 6 
#
# 1 113.5565 21.3325 -1.5348 -14.6777 5.2613 -3.8892
# 2 21.3325 141.9309 7.6701 -8.7253 10.6142 -0.3538
# 3 -1.5348 7.6701 68.9883 3.1557 -2.3836 -6.6064
# 4 -14.6777 -8.7253 3.1557 41.8192 4.3324 6.2752
# 5 5.2613 10.6142 -2.3836 4.3324 20.3842 -9.2956
# 6 -3.8892 -0.3538 -6.6064 6.2752 -9.2956 46.8341
#
#
#
# Elastic Compliance Matrix: (Units=1/GPa)
#
#
# Indices 1 2 3 4 5 6 
#
# 1 0.009567 -0.001022 0.000052 0.003460 -0.002766 -0.000219
# 2 -0.001022 0.007775 -0.001302 0.002112 -0.005069 -0.001499
# 3 0.000052 -0.001302 0.015225 -0.002368 0.004475 0.003348
# 4 0.003460 0.002112 -0.002368 0.027758 -0.010863 -0.005906
# 5 -0.002766 -0.005069 0.004475 -0.010863 0.061653 0.014056
# 6 -0.000219 -0.001499 0.003348 -0.005906 0.014056 0.025376
#
#
# Mechanical properties :
#
#
# Convention : Reuss Voigt Hill
#
# Bulk Modulus (GPa) = 35.68710 42.15682 38.92196
# Shear Modulus (GPa) = 31.01003 41.60801 36.30902
#
# Velocity S-wave (km/s) = 3.48055 4.03167 3.76620
# Velocity P-wave (km/s) = 5.48576 6.17586 5.84101
#
# Compressibility (1/GPa) = 0.02802133
#
# Stress axis : x y z
#
# Youngs Moduli (GPa) = 104.52902 128.61998 65.68272
#
# Poissons Ratio (x) = 0.13140 -0.00339
# Poissons Ratio (y) = 0.10679 0.08555
# Poissons Ratio (z) = -0.00540 0.16752
#
# Static dielectric constant tensor:
#      x y z
#    x 2.205330 0.000070 -0.070950 
#    y 0.000070 2.060640 0.016840 
#    z -0.070950 0.016840 2.044740 
# 
# From -- ./inp_files/5947.got.cif
#   From: 2010.05.17/outbox.cif.g08.bks.cpg/sg1_3_cif.got.tgz:5947.got - 2010.05.17 20:27:59.
