data_PCOD9000272
_publ_section_title
;
Structure prediction by ZEFSAII (Michael W. Deem and Ramdas Pophale) SiO2 
 PCOD9000272
Probable space group: P 1
;
_chemical_formula_sum "Si O2"
_cell_formula_units_Z 6
_cell_length_a 7.383325
_cell_length_b 5.641781
_cell_length_c 8.497345
_cell_angle_alpha 39.730805
_cell_angle_beta 101.053925
_cell_angle_gamma 101.390776
_cell_volume 221.338044
_symmetry_space_group_name_H-M "P 1"
_symmetry_group_IT_number 1
_symmetry_cell_setting 'triclinic'
loop_
_space_group_symop_operation_xyz
x,y,z
loop_
_atom_site_type_symbol
_atom_site_label
_atom_site_fract_x
_atom_site_fract_y
_atom_site_fract_z
Si Si1 0.320030 0.168590 0.063220
Si Si2 0.431418 0.029753 0.646962
Si Si3 0.762078 0.231255 0.808227
Si Si4 0.651113 0.037389 0.387504
Si Si5 0.976327 0.256282 0.130249
Si Si6 0.103994 0.092470 0.753434
O O1 0.515710 0.045693 0.211485
O O2 0.177037 0.108632 0.216721
O O3 0.224959 0.008813 0.971120
O O4 0.347824 0.612789 0.810650
O O5 0.593752 0.991622 0.821957
O O6 0.542863 0.204621 0.428109
O O7 0.259781 0.239044 0.579578
O O8 0.676640 0.610560 0.646237
O O9 0.855878 0.080127 0.055286
O O10 0.933597 0.313042 0.672803
O O11 0.855173 0.208334 0.290553
O O12 0.008322 0.698472 0.881775
#
# Coordination Sequence:
#
# PCOD9000272 Si02
#       6
#     1   1   1   1   1   1
#     4  10  24  44  65  93 130 170 211 259 316 377
#     4  11  24  42  67  95 129 167 211 263 316 374
#     4  11  24  42  67  95 129 167 211 263 316 374
#     4  12  24  40  66 100 128 162 214 264 316 374
#     4  10  24  44  65  93 130 170 211 259 316 377
#     4  10  22  46  68  88 130 174 208 258 318 376
#
# _framework density 27.107855000000001
#
# number of rings (size 3 to 8) (size 9 to 14) (size 15 to 20)
#    0.000    1.333    0.000    5.000    0.000   13.333 
#    0.000    3.333    0.000    0.000    0.000    0.000 
#    0.000    0.000    0.000    0.000    0.000    0.000 
#
# Total GULP energy -33621.356668 kJ/mol
# GULP energy per Si atom -5603.559445 kJ/mol
# Density = 2.704616 g / cm^3
# Si number density = 27.107855 Si / 1000 Ang^3
#
#
#
# Elastic Constant Matrix: (Units=GPa)
#
#
# Indices 1 2 3 4 5 6 
#
# 1 228.9983 22.9891 35.0419 10.0727 -51.3208 -23.9394
# 2 22.9891 83.5257 8.7915 18.5520 -6.7680 13.1926
# 3 35.0419 8.7915 55.0232 4.6509 -16.1169 1.5027
# 4 10.0727 18.5520 4.6509 20.7566 0.8797 0.7872
# 5 -51.3208 -6.7680 -16.1169 0.8797 64.0138 11.9076
# 6 -23.9394 13.1926 1.5027 0.7872 11.9076 42.3836
#
#
#
# Elastic Compliance Matrix: (Units=1/GPa)
#
#
# Indices 1 2 3 4 5 6 
#
# 1 0.006052 -0.001231 -0.002568 -0.001523 0.003553 0.002923
# 2 -0.001231 0.016586 0.000125 -0.014110 0.002146 -0.006203
# 3 -0.002568 0.000125 0.021363 -0.003696 0.003998 -0.003301
# 4 -0.001523 -0.014110 -0.003696 0.062428 -0.005241 0.003976
# 5 0.003553 0.002146 0.003998 -0.005241 0.020612 -0.004497
# 6 0.002923 -0.006203 -0.003301 0.003976 -0.004497 0.028482
#
#
# Mechanical properties :
#
#
# Convention : Reuss Voigt Hill
#
# Bulk Modulus (GPa) = 27.28361 55.68802 41.48581
# Shear Modulus (GPa) = 28.55684 45.47911 37.01797
#
# Velocity S-wave (km/s) = 3.24921 4.10043 3.69939
# Velocity P-wave (km/s) = 4.91561 6.55788 5.79521
#
# Compressibility (1/GPa) = 0.03665204
#
# Stress axis : x y z
#
# Youngs Moduli (GPa) = 165.23185 60.29259 46.80898
#
# Poissons Ratio (x) = 0.07422 0.12021
# Poissons Ratio (y) = 0.20341 -0.00583
# Poissons Ratio (z) = 0.42435 -0.00751
#
# Static dielectric constant tensor:
#      x y z
#    x 2.061220 -0.039540 -0.073170 
#    y -0.039540 2.052760 0.025810 
#    z -0.073170 0.025810 2.095120 
# 
# From -- ./inp_files/3355.got.cif
#   From: 2010.05.17/outbox.cif.g08.bks.cpg/sg1_2_cif.got.tgz:3355.got - 2010.05.17 20:27:59.
