data_PCOD9000639
_publ_section_title
;
Structure prediction by ZEFSAII (Michael W. Deem and Ramdas Pophale) SiO2 
 PCOD9000639
Probable space group: P 1
;
_chemical_formula_sum "Si O2"
_cell_formula_units_Z 8
_cell_length_a 11.740578
_cell_length_b 4.985340
_cell_length_c 5.184248
_cell_angle_alpha 88.735585
_cell_angle_beta 100.331417
_cell_angle_gamma 67.874525
_cell_volume 275.195689
_symmetry_space_group_name_H-M "P 1"
_symmetry_group_IT_number 1
_symmetry_cell_setting 'triclinic'
loop_
_space_group_symop_operation_xyz
x,y,z
loop_
_atom_site_type_symbol
_atom_site_label
_atom_site_fract_x
_atom_site_fract_y
_atom_site_fract_z
Si Si1 0.266770 0.743130 0.657930
Si Si2 0.695962 0.753679 0.747820
Si Si3 0.495605 0.659094 0.313038
Si Si4 0.482355 0.182805 0.955154
Si Si5 0.928177 0.895604 0.671379
Si Si6 0.111393 0.455015 0.381734
Si Si7 0.224754 0.940687 0.218423
Si Si8 0.887096 0.291387 0.145233
O O1 0.181198 0.698277 0.369428
O O2 0.181186 0.104623 0.526633
O O3 0.366804 0.400486 0.742181
O O4 0.247361 0.805015 0.949953
O O5 0.750989 0.513593 0.997844
O O6 0.611392 0.656102 0.523460
O O7 0.468583 0.897717 0.070398
O O8 0.603585 0.055701 0.826184
O O9 0.507875 0.359593 0.198674
O O10 0.367228 0.786389 0.433936
O O11 0.813891 0.791916 0.668026
O O12 0.941066 0.062383 0.934639
O O13 0.889227 0.125091 0.413603
O O14 0.051527 0.634725 0.630520
O O15 0.187591 0.275574 0.145266
O O16 0.973984 0.471665 0.217227
#
# Coordination Sequence:
#
# PCOD9000639 Si02
#       8
#     1   1   1   1   1   1   1   1
#     4  11  28  50  81 119 163 208 271 341 415 498
#     4  12  31  50  84 116 169 222 276 346 414 506
#     4  11  30  52  83 123 165 217 276 342 420 500
#     4  11  30  52  83 123 165 217 276 342 420 500
#     4  12  30  52  78 121 166 217 283 344 414 495
#     4  12  27  52  84 116 159 220 270 346 414 500
#     4  11  28  50  81 119 163 208 271 341 415 498
#     4  12  30  52  78 121 166 217 283 344 414 495
#
# _framework density 29.070218000000001
#
# number of rings (size 3 to 8) (size 9 to 14) (size 15 to 20)
#    0.000    0.500    0.000    3.750   22.750    4.000 
#    0.000    0.000    0.000    0.000    0.000    0.000 
#    0.000    0.000    0.000    0.000    0.000    0.000 
#
# Total GULP energy -44705.866173 kJ/mol
# GULP energy per Si atom -5588.233272 kJ/mol
# Density = 2.900405 g / cm^3
# Si number density = 29.070218 Si / 1000 Ang^3
#
#
#
# Elastic Constant Matrix: (Units=GPa)
#
#
# Indices 1 2 3 4 5 6 
#
# 1 156.6668 62.1209 70.9325 0.0481 1.1055 31.3856
# 2 62.1209 215.7694 86.9276 26.6627 -9.4558 -3.3245
# 3 70.9325 86.9276 222.7463 -13.1201 2.7112 7.3438
# 4 0.0481 26.6627 -13.1201 75.5803 6.3060 6.0609
# 5 1.1055 -9.4558 2.7112 6.3060 48.4887 -2.3362
# 6 31.3856 -3.3245 7.3438 6.0609 -2.3362 42.4399
#
#
#
# Elastic Compliance Matrix: (Units=1/GPa)
#
#
# Indices 1 2 3 4 5 6 
#
# 1 0.009573 -0.002321 -0.001825 0.001160 -0.001065 -0.007170
# 2 -0.002321 0.006722 -0.002201 -0.003179 0.002054 0.003191
# 3 -0.001825 -0.002201 0.006062 0.001929 -0.000987 -0.000202
# 4 0.001160 -0.003179 0.001929 0.015233 -0.002917 -0.003777
# 5 -0.001065 0.002054 -0.000987 -0.002917 0.021614 0.002726
# 6 -0.007170 0.003191 -0.000202 -0.003777 0.002726 0.029839
#
#
# Mechanical properties :
#
#
# Convention : Reuss Voigt Hill
#
# Bulk Modulus (GPa) = 103.50457 115.01607 109.26032
# Shear Modulus (GPa) = 47.63726 58.31522 52.97624
#
# Velocity S-wave (km/s) = 4.05247 4.48371 4.27354
# Velocity P-wave (km/s) = 7.58808 8.15204 7.87511
#
# Compressibility (1/GPa) = 0.00966141
#
# Stress axis : x y z
#
# Youngs Moduli (GPa) = 104.45716 148.76729 164.96350
#
# Poissons Ratio (x) = 0.34536 0.30105
# Poissons Ratio (y) = 0.24249 0.36316
# Poissons Ratio (z) = 0.19063 0.32751
#
# Static dielectric constant tensor:
#      x y z
#    x 2.401250 -0.054480 -0.037640 
#    y -0.054480 2.213750 0.038070 
#    z -0.037640 0.038070 2.267120 
# 
# From -- ./inp_files/2618.got.cif
#   From: 2010.05.17/outbox.cif.g08.bks.cpg/sg1_2_cif.got.tgz:2618.got - 2010.05.17 20:27:59.
