data_PCOD9000454
_publ_section_title
;
Structure prediction by ZEFSAII (Michael W. Deem and Ramdas Pophale) SiO2 
 PCOD9000454
Probable space group: P 1
;
_chemical_formula_sum "Si O2"
_cell_formula_units_Z 8
_cell_length_a 9.179629
_cell_length_b 10.144783
_cell_length_c 9.321989
_cell_angle_alpha 151.356866
_cell_angle_beta 124.273983
_cell_angle_gamma 55.213252
_cell_volume 337.434926
_symmetry_space_group_name_H-M "P 1"
_symmetry_group_IT_number 1
_symmetry_cell_setting 'triclinic'
loop_
_space_group_symop_operation_xyz
x,y,z
loop_
_atom_site_type_symbol
_atom_site_label
_atom_site_fract_x
_atom_site_fract_y
_atom_site_fract_z
Si Si1 0.857380 0.439020 0.863840
Si Si2 0.973192 0.677652 0.577762
Si Si3 0.712303 0.959962 0.469201
Si Si4 0.139451 0.875667 0.119581
Si Si5 0.809650 0.628013 0.717668
Si Si6 0.206610 0.530192 0.291087
Si Si7 0.364598 0.285222 0.729922
Si Si8 0.426742 0.009246 0.811599
O O1 0.802818 0.433237 0.662987
O O2 0.837039 0.153542 0.654336
O O3 0.726914 0.692815 0.118013
O O4 0.060329 0.481385 0.044595
O O5 0.803625 0.853784 0.569214
O O6 0.887218 0.508919 0.492226
O O7 0.093997 0.852692 0.904303
O O8 0.099609 0.536365 0.386528
O O9 0.520235 0.151138 0.577648
O O10 0.956486 0.812242 0.023715
O O11 0.303606 0.619939 0.007670
O O12 0.192398 0.158663 0.468643
O O13 0.619754 0.823939 0.771106
O O14 0.282799 0.806530 0.557942
O O15 0.370243 0.268864 0.134661
O O16 0.420171 0.160071 0.797353
#
# Coordination Sequence:
#
# PCOD9000454 Si02
#       8
#     1   1   1   1   1   1   1   1
#     4  11  24  44  69 101 137 182 224 281 344 404
#     4   9  23  50  66 105 135 189 218 282 346 411
#     4  11  24  44  70  98 142 178 227 279 345 408
#     4  10  25  39  71  93 138 175 231 271 336 408
#     4  10  24  49  67 106 136 185 225 287 340 410
#     4  11  25  45  72 101 137 183 225 284 341 409
#     4  12  22  44  65 106 131 185 223 285 338 407
#     4  12  25  43  72 100 142 173 237 279 344 399
#
# _framework density 23.708273999999999
#
# number of rings (size 3 to 8) (size 9 to 14) (size 15 to 20)
#    0.750    0.500    1.250    4.500    0.000    9.000 
#    0.000    0.000    0.000    0.000    0.000    0.000 
#    0.000    0.000    0.000    0.000    0.000    0.000 
#
# Total GULP energy -44748.492918 kJ/mol
# GULP energy per Si atom -5593.561615 kJ/mol
# Density = 2.365431 g / cm^3
# Si number density = 23.708274 Si / 1000 Ang^3
#
#
#
# Elastic Constant Matrix: (Units=GPa)
#
#
# Indices 1 2 3 4 5 6 
#
# 1 82.4785 35.1757 6.5936 4.3465 -20.0900 -7.2393
# 2 35.1757 114.6698 22.8719 -9.3013 -20.0126 10.3063
# 3 6.5936 22.8719 61.9159 14.9153 -11.8327 10.8687
# 4 4.3465 -9.3013 14.9153 32.6898 1.3203 -6.4500
# 5 -20.0900 -20.0126 -11.8327 1.3203 35.2018 4.7394
# 6 -7.2393 10.3063 10.8687 -6.4500 4.7394 37.3220
#
#
#
# Elastic Compliance Matrix: (Units=1/GPa)
#
#
# Indices 1 2 3 4 5 6 
#
# 1 0.016078 -0.004632 0.001979 -0.004211 0.007070 0.002196
# 2 -0.004632 0.012181 -0.004331 0.005459 0.002949 -0.002432
# 3 0.001979 -0.004331 0.024357 -0.014766 0.008642 -0.009162
# 4 -0.004211 0.005459 -0.014766 0.041724 -0.007188 0.010099
# 5 0.007070 0.002949 0.008642 -0.007188 0.038381 -0.008075
# 6 0.002196 -0.002432 -0.009162 0.010099 -0.008075 0.033330
#
#
# Mechanical properties :
#
#
# Convention : Reuss Voigt Hill
#
# Bulk Modulus (GPa) = 25.87426 43.14960 34.51193
# Shear Modulus (GPa) = 25.91976 34.00426 29.96201
#
# Velocity S-wave (km/s) = 3.31006 3.79130 3.55882
# Velocity P-wave (km/s) = 5.05430 6.11596 5.61030
#
# Compressibility (1/GPa) = 0.03864844
#
# Stress axis : x y z
#
# Youngs Moduli (GPa) = 62.19525 82.09202 41.05584
#
# Poissons Ratio (x) = 0.38024 -0.08125
# Poissons Ratio (y) = 0.28808 0.17783
# Poissons Ratio (z) = -0.12308 0.35557
#
# Static dielectric constant tensor:
#      x y z
#    x 1.934980 0.029580 -0.026680 
#    y 0.029580 1.908980 -0.019530 
#    z -0.026680 -0.019530 1.880230 
# 
# From -- ./inp_files/4496.got.cif
#   From: 2010.05.17/outbox.cif.g08.bks.cpg/sg1_3_cif.got.tgz:4496.got - 2010.05.17 20:27:59.
