data_PCOD9000208
_publ_section_title
;
Structure prediction by ZEFSAII (Michael W. Deem and Ramdas Pophale) SiO2 
 PCOD9000208
Probable space group: P 1
;
_chemical_formula_sum "Si O2"
_cell_formula_units_Z 8
_cell_length_a 11.180899
_cell_length_b 5.571857
_cell_length_c 9.041270
_cell_angle_alpha 112.208030
_cell_angle_beta 43.722997
_cell_angle_gamma 129.685597
_cell_volume 295.878877
_symmetry_space_group_name_H-M "P 1"
_symmetry_group_IT_number 1
_symmetry_cell_setting 'triclinic'
loop_
_space_group_symop_operation_xyz
x,y,z
loop_
_atom_site_type_symbol
_atom_site_label
_atom_site_fract_x
_atom_site_fract_y
_atom_site_fract_z
Si Si1 0.478720 0.623680 0.843030
Si Si2 0.594023 0.561560 0.305027
Si Si3 0.216118 0.993280 0.262025
Si Si4 0.046073 0.511605 0.526006
Si Si5 0.153606 0.354179 0.657964
Si Si6 0.674387 0.008822 0.069045
Si Si7 0.603796 0.265193 0.783106
Si Si8 0.013680 0.044243 0.213953
O O1 0.586112 0.430436 0.692678
O O2 0.600189 0.843778 0.934124
O O3 0.522294 0.900197 0.758592
O O4 0.229366 0.334665 0.012716
O O5 0.369169 0.437894 0.557035
O O6 0.809998 0.831443 0.251215
O O7 0.622856 0.274071 0.190315
O O8 0.577888 0.745615 0.222109
O O9 0.219545 0.760744 0.315618
O O10 0.146622 0.155179 0.475372
O O11 0.068860 0.835669 0.213680
O O12 0.434683 0.230966 0.043045
O O13 0.832153 0.492255 0.704122
O O14 0.966344 0.201854 0.426016
O O15 0.140045 0.602785 0.627166
O O16 0.928348 0.175131 0.895530
#
# Coordination Sequence:
#
# PCOD9000208 Si02
#       8
#     1   1   1   1   1   1   1   1
#     4  11  21  44  70 102 133 177 245 289 345 406
#     4  12  30  48  71 103 159 189 230 296 365 431
#     4  10  22  42  72 102 137 181 239 303 340 417
#     4  11  22  40  74 101 139 177 248 293 348 415
#     4  11  26  43  73 110 139 186 248 289 360 427
#     4  12  26  49  75 105 143 196 238 295 357 428
#     4  11  22  37  68 109 132 172 228 305 349 393
#     4  10  25  47  67 104 144 190 232 296 358 421
#
# _framework density 27.038091000000001
#
# number of rings (size 3 to 8) (size 9 to 14) (size 15 to 20)
#    0.000    1.000    2.500    4.500    7.000    0.000 
#    6.750    0.000    0.000    0.000    0.000    0.000 
#    0.000    0.000    0.000    0.000    0.000    0.000 
#
# Total GULP energy -44584.731442 kJ/mol
# GULP energy per Si atom -5573.091430 kJ/mol
# Density = 2.697655 g / cm^3
# Si number density = 27.038091 Si / 1000 Ang^3
#
#
#
# Elastic Constant Matrix: (Units=GPa)
#
#
# Indices 1 2 3 4 5 6 
#
# 1 82.7009 56.3071 18.1610 -3.6854 -31.5982 10.2875
# 2 56.3071 132.4666 31.0622 -14.2125 -9.6136 -0.6620
# 3 18.1610 31.0622 140.5843 -23.3003 -45.0753 -5.6581
# 4 -3.6854 -14.2125 -23.3003 31.0520 7.2888 -5.7783
# 5 -31.5982 -9.6136 -45.0753 7.2888 49.7896 -14.7873
# 6 10.2875 -0.6620 -5.6581 -5.7783 -14.7873 48.2057
#
#
#
# Elastic Compliance Matrix: (Units=1/GPa)
#
#
# Indices 1 2 3 4 5 6 
#
# 1 0.025494 -0.010868 0.004724 -0.002757 0.018889 0.000428
# 2 -0.010868 0.012794 -0.003313 0.003976 -0.007966 0.000139
# 3 0.004724 -0.003313 0.013543 0.006713 0.015442 0.006077
# 4 -0.002757 0.003976 0.006713 0.039665 0.001238 0.006565
# 5 0.018889 -0.007966 0.015442 0.001238 0.048064 0.012564
# 6 0.000428 0.000139 0.006077 0.006565 0.012564 0.026009
#
#
# Mechanical properties :
#
#
# Convention : Reuss Voigt Hill
#
# Bulk Modulus (GPa) = 30.37622 62.97914 46.67768
# Shear Modulus (GPa) = 25.58135 42.49091 34.03613
#
# Velocity S-wave (km/s) = 3.07925 3.96854 3.55184
# Velocity P-wave (km/s) = 4.88890 6.65901 5.84139
#
# Compressibility (1/GPa) = 0.03292049
#
# Stress axis : x y z
#
# Youngs Moduli (GPa) = 39.22415 78.15896 73.83908
#
# Poissons Ratio (x) = 0.84939 -0.34885
# Poissons Ratio (y) = 0.42627 0.24460
# Poissons Ratio (z) = -0.18531 0.25891
#
# Static dielectric constant tensor:
#      x y z
#    x 2.708730 -0.501120 -0.369730 
#    y -0.501120 2.483800 0.286080 
#    z -0.369730 0.286080 2.367310 
# 
# From -- ./inp_files/6712.got.cif
#   From: 2010.05.17/outbox.cif.g08.bks.cpg/sg1_4_cif.got.tgz:6712.got - 2010.05.17 20:27:59.
