data_PCOD9000463
_publ_section_title
;
Structure prediction by ZEFSAII (Michael W. Deem and Ramdas Pophale) SiO2 
 PCOD9000463
Probable space group: P 1
;
_chemical_formula_sum "Si O2"
_cell_formula_units_Z 8
_cell_length_a 5.179063
_cell_length_b 5.336367
_cell_length_c 15.236554
_cell_angle_alpha 114.545795
_cell_angle_beta 66.102464
_cell_angle_gamma 119.609366
_cell_volume 322.214781
_symmetry_space_group_name_H-M "P 1"
_symmetry_group_IT_number 1
_symmetry_cell_setting 'triclinic'
loop_
_space_group_symop_operation_xyz
x,y,z
loop_
_atom_site_type_symbol
_atom_site_label
_atom_site_fract_x
_atom_site_fract_y
_atom_site_fract_z
Si Si1 0.668990 0.897320 0.636300
Si Si2 0.348346 0.279040 0.404093
Si Si3 0.226811 0.927045 0.932601
Si Si4 0.726720 0.879048 0.332172
Si Si5 0.841199 0.419913 0.582549
Si Si6 0.790508 0.728623 0.101170
Si Si7 0.319885 0.534339 0.985983
Si Si8 0.013332 0.524948 0.751538
O O1 0.794814 0.647028 0.554258
O O2 0.363424 0.719866 0.705659
O O3 0.617709 0.078871 0.585561
O O4 0.907938 0.168881 0.701639
O O5 0.562122 0.567276 0.361102
O O6 0.161470 0.389259 0.516844
O O7 0.533109 0.090996 0.390968
O O8 0.066659 0.061117 0.350450
O O9 0.997055 0.654619 0.867070
O O10 0.444281 0.795923 0.933408
O O11 0.043601 0.995025 0.049279
O O12 0.346015 0.230527 0.906699
O O13 0.746780 0.806379 0.216556
O O14 0.835650 0.577430 0.699695
O O15 0.491254 0.629826 0.068320
O O16 0.966306 0.501471 0.039569
#
# Coordination Sequence:
#
# PCOD9000463 Si02
#       8
#     1   1   1   1   1   1   1   1
#     4  10  25  39  71  92 144 175 237 272 358 395
#     4  12  28  46  76 108 142 187 239 294 356 424
#     4  10  26  40  70  98 142 178 236 276 353 407
#     4  12  28  46  77 105 146 183 243 290 360 421
#     4  10  26  43  72  97 144 177 234 285 353 411
#     4  10  26  45  70 100 141 182 230 290 350 414
#     4  10  25  40  71  95 141 180 234 279 352 405
#     4  10  26  43  69 103 136 186 227 288 340 423
#
# _framework density 24.82816
#
# number of rings (size 3 to 8) (size 9 to 14) (size 15 to 20)
#    1.500    0.000    0.000    2.250   14.000    1.000 
#    0.000    0.000    0.000    0.000    0.000    0.000 
#    0.000    0.000    0.000    0.000    0.000    0.000 
#
# Total GULP energy -44622.495697 kJ/mol
# GULP energy per Si atom -5577.811962 kJ/mol
# Density = 2.477165 g / cm^3
# Si number density = 24.828160 Si / 1000 Ang^3
#
#
#
# Elastic Constant Matrix: (Units=GPa)
#
#
# Indices 1 2 3 4 5 6 
#
# 1 113.9492 63.9460 11.3398 14.7430 10.1804 -16.9143
# 2 63.9460 179.7129 17.3217 15.0606 -10.7719 -11.1405
# 3 11.3398 17.3217 94.7639 -1.5533 13.1829 -2.2404
# 4 14.7430 15.0606 -1.5533 30.2539 4.0045 -7.1212
# 5 10.1804 -10.7719 13.1829 4.0045 37.0180 8.0560
# 6 -16.9143 -11.1405 -2.2404 -7.1212 8.0560 44.6920
#
#
#
# Elastic Compliance Matrix: (Units=1/GPa)
#
#
# Indices 1 2 3 4 5 6 
#
# 1 0.012649 -0.004387 0.000119 -0.002225 -0.005501 0.004337
# 2 -0.004387 0.007703 -0.001580 -0.002625 0.004524 -0.001053
# 3 0.000119 -0.001580 0.011631 0.002385 -0.005232 0.001557
# 4 -0.002225 -0.002625 0.002385 0.037769 -0.006346 0.005785
# 5 -0.005501 0.004524 -0.005232 -0.006346 0.034220 -0.008396
# 6 0.004337 -0.001053 0.001557 0.005785 -0.008396 0.026267
#
#
# Mechanical properties :
#
#
# Convention : Reuss Voigt Hill
#
# Bulk Modulus (GPa) = 49.29064 63.73792 56.51428
# Shear Modulus (GPa) = 33.62554 42.11402 37.86978
#
# Velocity S-wave (km/s) = 3.68412 4.12299 3.90971
# Velocity P-wave (km/s) = 6.16383 6.95649 6.57212
#
# Compressibility (1/GPa) = 0.02028783
#
# Stress axis : x y z
#
# Youngs Moduli (GPa) = 79.05980 129.81118 85.97848
#
# Poissons Ratio (x) = 0.56943 -0.01027
# Poissons Ratio (y) = 0.34680 0.13588
# Poissons Ratio (z) = -0.00945 0.20516
#
# Static dielectric constant tensor:
#      x y z
#    x 2.002520 -0.034250 0.002420 
#    y -0.034250 2.028370 -0.011830 
#    z 0.002420 -0.011830 1.994820 
# 
# From -- ./inp_files/515.got.cif
#   From: 2010.05.17/outbox.cif.g08.bks.cpg/sg1_1_cif.got.tgz:515.got - 2010.05.17 20:27:59.
