data_PCOD9000716
_publ_section_title
;
Structure prediction by ZEFSAII (Michael W. Deem and Ramdas Pophale) SiO2 
 PCOD9000716
Probable space group: P 1
;
_chemical_formula_sum "Si O2"
_cell_formula_units_Z 8
_cell_length_a 8.918912
_cell_length_b 12.940584
_cell_length_c 6.150679
_cell_angle_alpha 66.009461
_cell_angle_beta 79.784429
_cell_angle_gamma 30.782761
_cell_volume 308.663412
_symmetry_space_group_name_H-M "P 1"
_symmetry_group_IT_number 1
_symmetry_cell_setting 'triclinic'
loop_
_space_group_symop_operation_xyz
x,y,z
loop_
_atom_site_type_symbol
_atom_site_label
_atom_site_fract_x
_atom_site_fract_y
_atom_site_fract_z
Si Si1 0.543840 0.587840 0.125000
Si Si2 0.840441 0.806658 0.068916
Si Si3 0.251290 0.955386 0.660297
Si Si4 0.763804 0.650089 0.465876
Si Si5 0.972681 0.920903 0.693559
Si Si6 0.229322 0.426452 0.920068
Si Si7 0.294581 0.592352 0.516740
Si Si8 0.168120 0.257755 0.333785
O O1 0.527590 0.531432 0.401811
O O2 0.899802 0.376902 0.145037
O O3 0.379759 0.817571 0.968227
O O4 0.312898 0.680037 0.931791
O O5 0.632749 0.848869 0.210453
O O6 0.102030 0.664512 0.304719
O O7 0.734553 0.994900 0.826713
O O8 0.009013 0.631681 0.978445
O O9 0.480396 0.773413 0.556397
O O10 0.944874 0.075108 0.583084
O O11 0.302186 0.056237 0.572535
O O12 0.965021 0.450209 0.410100
O O13 0.004754 0.528064 0.699781
O O14 0.037000 0.829630 0.519610
O O15 0.426145 0.403052 0.789363
O O16 0.356652 0.233023 0.180248
#
# Coordination Sequence:
#
# PCOD9000716 Si02
#       8
#     1   1   1   1   1   1   1   1
#     4   9  19  34  53  80 114 144 178 230 270 320
#     4   8  16  29  58  80 106 148 182 226 278 321
#     4  10  21  37  55  86 113 145 185 225 272 334
#     4  10  19  36  56  82 112 149 181 227 279 318
#     4   8  16  32  53  82 109 144 185 223 275 326
#     4   9  17  34  56  82 109 145 186 227 275 324
#     4   9  15  31  60  79 104 153 181 221 286 317
#     4  11  21  37  57  83 115 146 184 225 275 332
#
# _framework density 25.918199999999999
#
# number of rings (size 3 to 8) (size 9 to 14) (size 15 to 20)
#    0.750    2.000    1.250    0.750    0.000    0.000 
#    4.500    1.250    0.000   22.500    0.000    0.000 
#    0.000    0.000    0.000    0.000    0.000    0.000 
#
# Total GULP energy -44573.542706 kJ/mol
# GULP energy per Si atom -5571.692838 kJ/mol
# Density = 2.585921 g / cm^3
# Si number density = 25.918200 Si / 1000 Ang^3
#
#
#
# Elastic Constant Matrix: (Units=GPa)
#
#
# Indices 1 2 3 4 5 6 
#
# 1 108.8546 32.6081 68.2935 2.4263 -41.2309 10.2087
# 2 32.6081 66.9617 46.3284 -3.2056 -18.7357 22.1761
# 3 68.2935 46.3284 129.8388 7.7484 -66.7477 17.5640
# 4 2.4263 -3.2056 7.7484 29.8477 6.1068 -8.4275
# 5 -41.2309 -18.7357 -66.7477 6.1068 84.3231 -3.5157
# 6 10.2087 22.1761 17.5640 -8.4275 -3.5157 36.8613
#
#
#
# Elastic Compliance Matrix: (Units=1/GPa)
#
#
# Indices 1 2 3 4 5 6 
#
# 1 0.014173 -0.002693 -0.005495 -0.000305 0.002022 0.000436
# 2 -0.002693 0.023898 -0.006966 0.002197 -0.002097 -0.010010
# 3 -0.005495 -0.006966 0.021024 -0.009907 0.012902 -0.005340
# 4 -0.000305 0.002197 -0.009907 0.041799 -0.010026 0.012084
# 5 0.002022 -0.002097 0.012902 -0.010026 0.023090 -0.005536
# 6 0.000436 -0.010010 -0.005340 0.012084 -0.005536 0.037809
#
#
# Mechanical properties :
#
#
# Convention : Reuss Voigt Hill
#
# Bulk Modulus (GPa) = 34.73792 66.67945 50.70869
# Shear Modulus (GPa) = 24.78976 40.76809 32.77893
#
# Velocity S-wave (km/s) = 3.09603 3.97035 3.56013
# Velocity P-wave (km/s) = 5.11982 6.84112 6.04208
#
# Compressibility (1/GPa) = 0.02878699
#
# Stress axis : x y z
#
# Youngs Moduli (GPa) = 70.55905 41.84404 47.56500
#
# Poissons Ratio (x) = 0.11270 0.26136
# Poissons Ratio (y) = 0.19003 0.33133
# Poissons Ratio (z) = 0.38771 0.29148
#
# Static dielectric constant tensor:
#      x y z
#    x 2.057450 0.054340 -0.079990 
#    y 0.054340 2.051580 -0.072660 
#    z -0.079990 -0.072660 2.117710 
# 
# From -- ./inp_files/1415.got.cif
#   From: 2010.05.17/outbox.cif.g08.bks.cpg/sg1_1_cif.got.tgz:1415.got - 2010.05.17 20:27:59.
