data_PCOD9000879
_publ_section_title
;
Structure prediction by ZEFSAII (Michael W. Deem and Ramdas Pophale) SiO2 
 PCOD9000879
Probable space group: P 1
;
_chemical_formula_sum "Si O2"
_cell_formula_units_Z 8
_cell_length_a 14.690648
_cell_length_b 11.293137
_cell_length_c 8.469003
_cell_angle_alpha 40.856171
_cell_angle_beta 147.364139
_cell_angle_gamma 151.871050
_cell_volume 356.720127
_symmetry_space_group_name_H-M "P 1"
_symmetry_group_IT_number 1
_symmetry_cell_setting 'triclinic'
loop_
_space_group_symop_operation_xyz
x,y,z
loop_
_atom_site_type_symbol
_atom_site_label
_atom_site_fract_x
_atom_site_fract_y
_atom_site_fract_z
Si Si1 0.302740 0.455820 0.582930
Si Si2 0.687096 0.029102 0.656350
Si Si3 0.973213 0.748355 0.158762
Si Si4 0.473278 0.198881 0.551653
Si Si5 0.536087 0.550445 0.527139
Si Si6 0.053725 0.398301 0.556700
Si Si7 0.639743 0.411888 0.270993
Si Si8 0.565164 0.851115 0.989354
O O1 0.471285 0.753894 0.553770
O O2 0.318358 0.439784 0.434450
O O3 0.073801 0.325325 0.485731
O O4 0.435944 0.383656 0.928477
O O5 0.733702 0.986672 0.944459
O O6 0.608494 0.177981 0.417358
O O7 0.890658 0.183387 0.667085
O O8 0.878648 0.649230 0.297813
O O9 0.985497 0.559380 0.287098
O O10 0.770223 0.703793 0.818676
O O11 0.227477 0.022803 0.274263
O O12 0.474196 0.313422 0.595300
O O13 0.650785 0.427262 0.459284
O O14 0.533615 0.032733 0.822887
O O15 0.598909 0.741794 0.292551
O O16 0.316427 0.599761 0.806727
#
# Coordination Sequence:
#
# PCOD9000879 Si02
#       8
#     1   1   1   1   1   1   1   1
#     4  10  21  35  57  90 122 153 198 247 293 354
#     4   9  18  37  63  84 117 159 196 248 298 344
#     4   9  21  41  64  88 117 161 204 242 300 358
#     4  10  20  41  63  84 125 161 192 252 301 343
#     4  11  23  39  61  94 125 154 201 248 296 363
#     4   9  18  39  65  86 116 161 204 240 296 360
#     4   9  19  37  62  89 115 157 206 243 293 357
#     4   9  20  37  61  91 119 154 199 248 301 351
#
# _framework density 22.426545000000001
#
# number of rings (size 3 to 8) (size 9 to 14) (size 15 to 20)
#    0.000    2.500    0.000    2.250    0.000    7.000 
#    0.000   13.750    0.000    4.500    0.000    0.000 
#    0.000    0.000    0.000    0.000    0.000    0.000 
#
# Total GULP energy -44678.004948 kJ/mol
# GULP energy per Si atom -5584.750618 kJ/mol
# Density = 2.237550 g / cm^3
# Si number density = 22.426545 Si / 1000 Ang^3
#
#
#
# Elastic Constant Matrix: (Units=GPa)
#
#
# Indices 1 2 3 4 5 6 
#
# 1 179.3106 50.8893 5.7223 -10.0164 6.9317 7.3186
# 2 50.8893 76.0955 18.1521 -12.1031 -5.2392 12.5138
# 3 5.7223 18.1521 47.0339 -5.3071 1.9652 9.1668
# 4 -10.0164 -12.1031 -5.3071 21.1014 7.7403 -3.4102
# 5 6.9317 -5.2392 1.9652 7.7403 16.8978 2.8203
# 6 7.3186 12.5138 9.1668 -3.4102 2.8203 33.2814
#
#
#
# Elastic Compliance Matrix: (Units=1/GPa)
#
#
# Indices 1 2 3 4 5 6 
#
# 1 0.007490 -0.005469 0.001699 0.003436 -0.006684 0.000860
# 2 -0.005469 0.020238 -0.006107 0.003557 0.008447 -0.005076
# 3 0.001699 -0.006107 0.025111 0.005771 -0.007526 -0.003764
# 4 0.003436 0.003557 0.005771 0.065069 -0.031731 0.005674
# 5 -0.006684 0.008447 -0.007526 -0.031731 0.081586 -0.009798
# 6 0.000860 -0.005076 -0.003764 0.005674 -0.009798 0.034215
#
#
# Mechanical properties :
#
#
# Convention : Reuss Voigt Hill
#
# Bulk Modulus (GPa) = 30.22663 50.21858 40.22261
# Shear Modulus (GPa) = 18.90412 29.43454 24.16933
#
# Velocity S-wave (km/s) = 2.90648 3.62676 3.28641
# Velocity P-wave (km/s) = 4.97703 6.32289 5.68989
#
# Compressibility (1/GPa) = 0.03308341
#
# Stress axis : x y z
#
# Youngs Moduli (GPa) = 133.50832 49.41206 39.82313
#
# Poissons Ratio (x) = 0.27025 -0.06766
# Poissons Ratio (y) = 0.73021 0.24322
# Poissons Ratio (z) = -0.22683 0.30178
#
# Static dielectric constant tensor:
#      x y z
#    x 1.905930 0.011970 0.008220 
#    y 0.011970 1.813190 -0.008040 
#    z 0.008220 -0.008040 1.824230 
# 
# From -- ./inp_files/4066.got.cif
#   From: 2010.05.17/outbox.cif.g08.bks.cpg/sg1_3_cif.got.tgz:4066.got - 2010.05.17 20:27:59.
