data_PCOD9000088
_publ_section_title
;
Structure prediction by ZEFSAII (Michael W. Deem and Ramdas Pophale) SiO2 
 PCOD9000088
Probable space group: P 1
;
_chemical_formula_sum "Si O2"
_cell_formula_units_Z 8
_cell_length_a 6.850883
_cell_length_b 7.539496
_cell_length_c 9.858619
_cell_angle_alpha 65.947348
_cell_angle_beta 64.261345
_cell_angle_gamma 109.318919
_cell_volume 329.515704
_symmetry_space_group_name_H-M "P 1"
_symmetry_group_IT_number 1
_symmetry_cell_setting 'triclinic'
loop_
_space_group_symop_operation_xyz
x,y,z
loop_
_atom_site_type_symbol
_atom_site_label
_atom_site_fract_x
_atom_site_fract_y
_atom_site_fract_z
Si Si1 0.519190 0.953200 0.439560
Si Si2 0.830979 0.600318 0.397313
Si Si3 0.416035 0.045562 0.077490
Si Si4 0.781502 0.819640 0.898004
Si Si5 0.356046 0.270058 0.287861
Si Si6 0.731422 0.869458 0.170112
Si Si7 0.764894 0.103135 0.595520
Si Si8 0.904024 0.598282 0.682154
O O1 0.774798 0.021498 0.247977
O O2 0.222389 0.706704 0.556596
O O3 0.490536 0.170187 0.365099
O O4 0.569900 0.928559 0.586803
O O5 0.635539 0.617882 0.352825
O O6 0.782520 0.344570 0.501203
O O7 0.840139 0.659619 0.536255
O O8 0.123621 0.825002 0.170678
O O9 0.676578 0.304356 0.856801
O O10 0.331273 0.150263 0.188264
O O11 0.516579 0.900143 0.157783
O O12 0.890805 0.736797 0.772360
O O13 0.679654 0.954489 0.807887
O O14 0.543640 0.559157 0.117185
O O15 0.937411 0.958414 0.949762
O O16 0.069789 0.188632 0.454444
#
# Coordination Sequence:
#
# PCOD9000088 Si02
#       8
#     1   1   1   1   1   1   1   1
#     4  11  23  47  72 102 139 183 224 285 350 403
#     4  12  24  46  71 100 141 185 228 280 342 412
#     4  10  22  45  69 101 133 181 226 285 336 399
#     4  11  23  45  69 105 138 179 229 286 341 404
#     4  10  21  43  71  95 141 175 226 285 337 402
#     4  11  23  44  70 101 138 178 231 278 346 402
#     4  12  25  44  72 103 140 182 230 279 345 410
#     4  11  23  48  72  99 142 177 232 284 341 410
#
# _framework density 24.278054000000001
#
# number of rings (size 3 to 8) (size 9 to 14) (size 15 to 20)
#    0.000    1.000    3.750    3.750    0.000    0.000 
#   20.250    0.000    0.000    0.000    0.000    0.000 
#    0.000    0.000    0.000    0.000    0.000    0.000 
#
# Total GULP energy -44557.966433 kJ/mol
# GULP energy per Si atom -5569.745804 kJ/mol
# Density = 2.422280 g / cm^3
# Si number density = 24.278054 Si / 1000 Ang^3
#
#
#
# Elastic Constant Matrix: (Units=GPa)
#
#
# Indices 1 2 3 4 5 6 
#
# 1 94.7096 44.9196 68.0401 8.9338 38.1785 -17.6538
# 2 44.9196 83.8236 57.7974 12.0899 13.2561 -17.9020
# 3 68.0401 57.7974 168.6029 4.2856 34.4914 9.8732
# 4 8.9338 12.0899 4.2856 57.3166 4.3199 11.6412
# 5 38.1785 13.2561 34.4914 4.3199 42.4778 2.6164
# 6 -17.6538 -17.9020 9.8732 11.6412 2.6164 39.3097
#
#
#
# Elastic Compliance Matrix: (Units=1/GPa)
#
#
# Indices 1 2 3 4 5 6 
#
# 1 0.028426 -0.002996 -0.007341 -0.005062 -0.019125 0.016017
# 2 -0.002996 0.021590 -0.007059 -0.006108 0.001571 0.011964
# 3 -0.007341 -0.007059 0.011973 0.003950 -0.000667 -0.010644
# 4 -0.005062 -0.006108 0.003950 0.021646 0.001821 -0.012578
# 5 -0.019125 0.001571 -0.000667 0.001821 0.041274 -0.010993
# 6 0.016017 0.011964 -0.010644 -0.012578 -0.010993 0.045211
#
#
# Mechanical properties :
#
#
# Convention : Reuss Voigt Hill
#
# Bulk Modulus (GPa) = 36.76891 76.51670 56.64280
# Shear Modulus (GPa) = 23.36696 39.57942 31.47319
#
# Velocity S-wave (km/s) = 3.10574 4.04202 3.60441
# Velocity P-wave (km/s) = 5.29515 7.30542 6.37996
#
# Compressibility (1/GPa) = 0.02719689
#
# Stress axis : x y z
#
# Youngs Moduli (GPa) = 35.17890 46.31787 83.52280
#
# Poissons Ratio (x) = 0.13876 0.61317
# Poissons Ratio (y) = 0.10539 0.58957
# Poissons Ratio (z) = 0.25826 0.32695
#
# Static dielectric constant tensor:
#      x y z
#    x 1.914020 -0.026060 -0.020510 
#    y -0.026060 2.108410 0.066730 
#    z -0.020510 0.066730 1.959820 
# 
# From -- ./inp_files/4201.got.cif
#   From: 2010.05.17/outbox.cif.g08.bks.cpg/sg1_3_cif.got.tgz:4201.got - 2010.05.17 20:27:59.
