data_PCOD9000042
_publ_section_title
;
Structure prediction by ZEFSAII (Michael W. Deem and Ramdas Pophale) SiO2 
 PCOD9000042
Probable space group: P 1
;
_chemical_formula_sum "Si O2"
_cell_formula_units_Z 8
_cell_length_a 11.031719
_cell_length_b 5.465591
_cell_length_c 8.942008
_cell_angle_alpha 84.963154
_cell_angle_beta 41.089842
_cell_angle_gamma 94.501618
_cell_volume 344.264008
_symmetry_space_group_name_H-M "P 1"
_symmetry_group_IT_number 1
_symmetry_cell_setting 'triclinic'
loop_
_space_group_symop_operation_xyz
x,y,z
loop_
_atom_site_type_symbol
_atom_site_label
_atom_site_fract_x
_atom_site_fract_y
_atom_site_fract_z
Si Si1 0.033160 0.973860 0.303170
Si Si2 0.357997 0.695752 0.911877
Si Si3 0.550476 0.899629 0.440151
Si Si4 0.747626 0.474132 0.148130
Si Si5 0.264830 0.399571 0.285120
Si Si6 0.080233 0.324495 0.989480
Si Si7 0.217843 0.049009 0.598746
Si Si8 0.939962 0.677709 0.676432
O O1 0.893466 0.784941 0.553363
O O2 0.149141 0.186623 0.293996
O O3 0.962327 0.118781 0.225351
O O4 0.187293 0.832898 0.099257
O O5 0.514582 0.863528 0.653131
O O6 0.404462 0.588659 0.035016
O O7 0.262043 0.466615 0.904753
O O8 0.649123 0.686932 0.294098
O O9 0.649015 0.186903 0.294195
O O10 0.346905 0.868336 0.549185
O O11 0.951256 0.505271 0.038939
O O12 0.783379 0.510157 0.935264
O O13 0.335700 0.254903 0.362984
O O14 0.110464 0.540269 0.489142
O O15 0.148967 0.186666 0.794188
O O16 0.036143 0.906782 0.683301
#
# Coordination Sequence:
#
# PCOD9000042 Si02
#       8
#     1   1   1   1   1   1   1   1
#     4   9  20  37  69  94 121 159 232 272 308 366
#     4  10  21  41  67  94 125 169 221 269 316 383
#     4  12  27  41  63  99 141 170 207 270 338 387
#     4  12  27  41  63  99 141 170 207 270 338 387
#     4   9  20  37  69  94 121 159 232 272 308 366
#     4  11  21  40  70  96 123 171 229 264 311 388
#     4  11  21  40  70  96 123 171 229 264 311 388
#     4  10  21  41  67  94 125 169 221 269 316 383
#
# _framework density 23.237981999999999
#
# number of rings (size 3 to 8) (size 9 to 14) (size 15 to 20)
#    0.000    1.500    2.500    2.250    7.000    0.000 
#    0.000    2.500    0.000    0.000    0.000    0.000 
#    0.000    0.000    0.000    0.000    0.000    0.000 
#
# Total GULP energy -44718.831908 kJ/mol
# GULP energy per Si atom -5589.853989 kJ/mol
# Density = 2.318509 g / cm^3
# Si number density = 23.237982 Si / 1000 Ang^3
#
#
#
# Elastic Constant Matrix: (Units=GPa)
#
#
# Indices 1 2 3 4 5 6 
#
# 1 67.6140 25.8178 47.4582 2.1886 25.2547 -26.0578
# 2 25.8178 116.9839 68.7173 8.7803 19.3559 -7.4990
# 3 47.4582 68.7173 196.0825 -25.6348 47.3598 -17.9266
# 4 2.1886 8.7803 -25.6348 57.8417 -6.3278 10.3345
# 5 25.2547 19.3559 47.3598 -6.3278 46.9658 -10.7736
# 6 -26.0578 -7.4990 -17.9266 10.3345 -10.7736 50.5484
#
#
#
# Elastic Compliance Matrix: (Units=1/GPa)
#
#
# Indices 1 2 3 4 5 6 
#
# 1 0.024809 -0.001118 -0.003450 -0.005062 -0.007602 0.010815
# 2 -0.001118 0.011591 -0.004138 -0.003656 -0.000419 0.000334
# 3 -0.003450 -0.004138 0.009145 0.004441 -0.005338 -0.001194
# 4 -0.005062 -0.003656 0.004441 0.021151 0.001310 -0.005622
# 5 -0.007602 -0.000419 -0.005338 0.001310 0.031230 0.000514
# 6 0.010815 0.000334 -0.001194 -0.005622 0.000514 0.026243
#
#
# Mechanical properties :
#
#
# Convention : Reuss Voigt Hill
#
# Bulk Modulus (GPa) = 35.54279 73.85191 54.69735
# Shear Modulus (GPa) = 33.12182 46.98365 40.05273
#
# Velocity S-wave (km/s) = 3.77945 4.50137 4.15612
# Velocity P-wave (km/s) = 5.86293 7.67243 6.82789
#
# Compressibility (1/GPa) = 0.02813510
#
# Stress axis : x y z
#
# Youngs Moduli (GPa) = 40.30741 86.27712 109.34393
#
# Poissons Ratio (x) = 0.09645 0.37721
# Poissons Ratio (y) = 0.04506 0.45241
# Poissons Ratio (z) = 0.13905 0.35697
#
# Static dielectric constant tensor:
#      x y z
#    x 1.902490 0.026450 0.027810 
#    y 0.026450 1.953280 -0.072220 
#    z 0.027810 -0.072220 1.958940 
# 
# From -- ./inp_files/1085.got.cif
#   From: 2010.05.17/outbox.cif.g08.bks.cpg/sg1_1_cif.got.tgz:1085.got - 2010.05.17 20:27:59.
