data_PCOD9000280
_publ_section_title
;
Structure prediction by ZEFSAII (Michael W. Deem and Ramdas Pophale) SiO2 
 PCOD9000280
Probable space group: P 1
;
_chemical_formula_sum "Si O2"
_cell_formula_units_Z 6
_cell_length_a 6.970130
_cell_length_b 7.212905
_cell_length_c 8.575906
_cell_angle_alpha 130.474182
_cell_angle_beta 137.681675
_cell_angle_gamma 64.142735
_cell_volume 220.000294
_symmetry_space_group_name_H-M "P 1"
_symmetry_group_IT_number 1
_symmetry_cell_setting 'triclinic'
loop_
_space_group_symop_operation_xyz
x,y,z
loop_
_atom_site_type_symbol
_atom_site_label
_atom_site_fract_x
_atom_site_fract_y
_atom_site_fract_z
Si Si1 0.043010 0.534730 0.863470
Si Si2 0.088189 0.861302 0.644320
Si Si3 0.639382 0.938672 0.819827
Si Si4 0.674844 0.353385 0.810264
Si Si5 0.062026 0.311592 0.428761
Si Si6 0.505635 0.839125 0.156508
O O1 0.102526 0.352615 0.660266
O O2 0.776886 0.686190 0.736909
O O3 0.953549 0.422232 0.912752
O O4 0.320779 0.724409 0.128017
O O5 0.318939 0.885270 0.657590
O O6 0.988089 0.575898 0.465849
O O7 0.796172 0.968717 0.471457
O O8 0.277781 0.946533 0.958601
O O9 0.694270 0.134185 0.822516
O O10 0.829291 0.086577 0.146893
O O11 0.362441 0.278678 0.504832
O O12 0.610694 0.611698 0.993617
#
# Coordination Sequence:
#
# PCOD9000280 Si02
#       6
#     1   1   1   1   1   1
#     4  10  23  50  71 108 147 191 251 308 362 450
#     4  10  22  46  75 102 152 190 242 309 364 438
#     4  12  23  46  80 102 141 208 235 305 385 430
#     4  10  22  46  71 107 146 192 246 307 366 445
#     4  10  24  49  66 108 153 184 248 311 363 439
#     4  10  22  49  69 105 157 187 236 326 356 426
#
# _framework density 27.272693
#
# number of rings (size 3 to 8) (size 9 to 14) (size 15 to 20)
#    0.000    2.000    5.000    0.000    2.333    0.000 
#   36.000    0.000    0.000    0.000    0.000    0.000 
#    0.000    0.000    0.000    0.000    0.000    0.000 
#
# Total GULP energy -33577.672504 kJ/mol
# GULP energy per Si atom -5596.278751 kJ/mol
# Density = 2.721062 g / cm^3
# Si number density = 27.272693 Si / 1000 Ang^3
#
#
#
# Elastic Constant Matrix: (Units=GPa)
#
#
# Indices 1 2 3 4 5 6 
#
# 1 187.4613 30.3137 53.1740 0.1846 49.3834 31.7092
# 2 30.3137 110.9882 16.1134 -10.5534 6.6970 13.7145
# 3 53.1740 16.1134 124.1414 -16.6408 26.6805 -7.7282
# 4 0.1846 -10.5534 -16.6408 45.3461 -6.9263 6.7058
# 5 49.3834 6.6970 26.6805 -6.9263 45.6372 2.5849
# 6 31.7092 13.7145 -7.7282 6.7058 2.5849 44.3202
#
#
#
# Elastic Compliance Matrix: (Units=1/GPa)
#
#
# Indices 1 2 3 4 5 6 
#
# 1 0.009594 -0.001094 -0.002753 -0.001679 -0.008513 -0.006255
# 2 -0.001094 0.009983 -0.000825 0.002567 0.000754 -0.002883
# 3 -0.002753 -0.000825 0.010559 0.002688 -0.002883 0.003827
# 4 -0.001679 0.002567 0.002688 0.024677 0.003788 -0.003079
# 5 -0.008513 0.000754 -0.002883 0.003788 0.033112 0.002850
# 6 -0.006255 -0.002883 0.003827 -0.003079 0.002850 0.028897
#
#
# Mechanical properties :
#
#
# Convention : Reuss Voigt Hill
#
# Bulk Modulus (GPa) = 48.08847 69.08812 58.58829
# Shear Modulus (GPa) = 37.56657 48.59337 43.07997
#
# Velocity S-wave (km/s) = 3.71542 4.22567 3.97873
# Velocity P-wave (km/s) = 6.00637 7.01396 6.52963
#
# Compressibility (1/GPa) = 0.02079500
#
# Stress axis : x y z
#
# Youngs Moduli (GPa) = 104.22787 100.16798 94.70167
#
# Poissons Ratio (x) = 0.10957 0.26067
# Poissons Ratio (y) = 0.11401 0.07809
# Poissons Ratio (z) = 0.28689 0.08260
#
# Static dielectric constant tensor:
#      x y z
#    x 2.146440 -0.030620 -0.092930 
#    y -0.030620 2.133450 -0.042830 
#    z -0.092930 -0.042830 2.188710 
# 
# From -- ./inp_files/940.got.cif
#   From: 2010.05.17/outbox.cif.g08.bks.cpg/sg1_1_cif.got.tgz:940.got - 2010.05.17 20:27:59.
