data_PCOD9000108
_publ_section_title
;
Structure prediction by ZEFSAII (Michael W. Deem and Ramdas Pophale) SiO2 
 PCOD9000108
Probable space group: P 1
;
_chemical_formula_sum "Si O2"
_cell_formula_units_Z 8
_cell_length_a 8.011149
_cell_length_b 7.214225
_cell_length_c 9.092265
_cell_angle_alpha 51.872320
_cell_angle_beta 131.843893
_cell_angle_gamma 109.205915
_cell_volume 304.842486
_symmetry_space_group_name_H-M "P 1"
_symmetry_group_IT_number 1
_symmetry_cell_setting 'triclinic'
loop_
_space_group_symop_operation_xyz
x,y,z
loop_
_atom_site_type_symbol
_atom_site_label
_atom_site_fract_x
_atom_site_fract_y
_atom_site_fract_z
Si Si1 0.753960 0.590790 0.475650
Si Si2 0.277978 0.115900 0.304676
Si Si3 0.226281 0.599553 0.610268
Si Si4 0.885561 0.087174 0.867020
Si Si5 0.690919 0.382028 0.029373
Si Si6 0.762450 0.846183 0.654817
Si Si7 0.174614 0.310425 0.448031
Si Si8 0.565546 0.951532 0.973358
O O1 0.793839 0.767429 0.544921
O O2 0.574537 0.721104 0.192248
O O3 0.991637 0.535427 0.558844
O O4 0.716496 0.334908 0.637976
O O5 0.228360 0.315949 0.302617
O O6 0.669850 0.148119 0.036421
O O7 0.220191 0.879599 0.469970
O O8 0.103078 0.143119 0.054829
O O9 0.250222 0.516501 0.494116
O O10 0.532799 0.035401 0.440818
O O11 0.936695 0.968159 0.796933
O O12 0.436782 0.471687 0.891010
O O13 0.733180 0.600420 0.841517
O O14 0.903423 0.325411 0.289021
O O15 0.741772 0.914499 0.959067
O O16 0.322658 0.074847 0.716593
#
# Coordination Sequence:
#
# PCOD9000108 Si02
#       8
#     1   1   1   1   1   1   1   1
#     4  12  26  47  69 112 145 181 242 292 349 426
#     4  11  22  42  75 101 140 188 237 287 354 420
#     4  10  24  40  69 105 140 184 236 288 347 422
#     4  12  24  47  72 103 146 188 232 291 351 426
#     4  10  21  44  76 100 138 190 234 286 354 416
#     4  11  25  45  74 106 143 189 234 294 360 411
#     4  11  21  40  74 104 135 190 234 283 359 416
#     4  11  23  45  73 103 145 186 233 291 350 423
#
# _framework density 26.243061999999998
#
# number of rings (size 3 to 8) (size 9 to 14) (size 15 to 20)
#    0.000    1.000    5.000    0.750    0.000    4.000 
#    0.000    3.750    0.000    0.000    0.000    0.000 
#    0.000    0.000    0.000    0.000    0.000    0.000 
#
# Total GULP energy -44826.735352 kJ/mol
# GULP energy per Si atom -5603.341919 kJ/mol
# Density = 2.618333 g / cm^3
# Si number density = 26.243062 Si / 1000 Ang^3
#
#
#
# Elastic Constant Matrix: (Units=GPa)
#
#
# Indices 1 2 3 4 5 6 
#
# 1 51.8034 18.8015 32.6471 10.0025 13.3320 -10.4442
# 2 18.8015 132.3806 50.1548 30.1410 -9.8406 -20.5700
# 3 32.6471 50.1548 177.0656 19.7930 25.4503 0.3968
# 4 10.0025 30.1410 19.7930 43.0739 4.3902 0.2151
# 5 13.3320 -9.8406 25.4503 4.3902 47.9916 6.2217
# 6 -10.4442 -20.5700 0.3968 0.2151 6.2217 29.7610
#
#
#
# Elastic Compliance Matrix: (Units=1/GPa)
#
#
# Indices 1 2 3 4 5 6 
#
# 1 0.026028 -0.000536 -0.003332 -0.003519 -0.006575 0.010208
# 2 -0.000536 0.011835 -0.003025 -0.007200 0.003896 0.007270
# 3 -0.003332 -0.003025 0.007640 -0.000263 -0.003378 -0.002654
# 4 -0.003519 -0.007200 -0.000263 0.029455 -0.002283 -0.005944
# 5 -0.006575 0.003896 -0.003378 -0.002283 0.026112 -0.005012
# 6 0.010208 0.007270 -0.002654 -0.005944 -0.005012 0.043334
#
#
# Mechanical properties :
#
#
# Convention : Reuss Voigt Hill
#
# Bulk Modulus (GPa) = 31.52836 62.71739 47.12287
# Shear Modulus (GPa) = 29.62793 41.47506 35.55149
#
# Velocity S-wave (km/s) = 3.36368 3.97976 3.68462
# Velocity P-wave (km/s) = 5.20825 6.71331 6.00809
#
# Compressibility (1/GPa) = 0.03171748
#
# Stress axis : x y z
#
# Youngs Moduli (GPa) = 38.42090 84.49737 130.89781
#
# Poissons Ratio (x) = 0.04526 0.43611
# Poissons Ratio (y) = 0.02058 0.39595
# Poissons Ratio (z) = 0.12801 0.25559
#
# Static dielectric constant tensor:
#      x y z
#    x 2.056240 0.002850 -0.005330 
#    y 0.002850 2.017120 0.003710 
#    z -0.005330 0.003710 2.060910 
# 
# From -- ./inp_files/3796.got.cif
#   From: 2010.05.17/outbox.cif.g08.bks.cpg/sg1_2_cif.got.tgz:3796.got - 2010.05.17 20:27:59.
