data_PCOD9000724
_publ_section_title
;
Structure prediction by ZEFSAII (Michael W. Deem and Ramdas Pophale) SiO2 
 PCOD9000724
Probable space group: P 1
;
_chemical_formula_sum "Si O2"
_cell_formula_units_Z 8
_cell_length_a 11.555490
_cell_length_b 5.568991
_cell_length_c 12.493403
_cell_angle_alpha 134.865477
_cell_angle_beta 147.385997
_cell_angle_gamma 52.088248
_cell_volume 306.695674
_symmetry_space_group_name_H-M "P 1"
_symmetry_group_IT_number 1
_symmetry_cell_setting 'triclinic'
loop_
_space_group_symop_operation_xyz
x,y,z
loop_
_atom_site_type_symbol
_atom_site_label
_atom_site_fract_x
_atom_site_fract_y
_atom_site_fract_z
Si Si1 0.866390 0.681200 0.495580
Si Si2 0.484868 0.831406 0.995190
Si Si3 0.908437 0.877307 0.993720
Si Si4 0.244547 0.413709 0.398807
Si Si5 0.628187 0.964484 0.593594
Si Si6 0.984223 0.999565 0.474032
Si Si7 0.564008 0.196213 0.972511
Si Si8 0.291774 0.376424 0.173731
O O1 0.986298 0.399177 0.576675
O O2 0.696659 0.463651 0.229199
O O3 0.741772 0.941623 0.559876
O O4 0.997655 0.870214 0.566738
O O5 0.741506 0.892658 0.220303
O O6 0.423788 0.009774 0.891362
O O7 0.366441 0.042492 0.063599
O O8 0.458095 0.436315 0.873162
O O9 0.724937 0.923665 0.954208
O O10 0.065646 0.179984 0.234171
O O11 0.798581 0.929646 0.809971
O O12 0.062409 0.541947 0.010879
O O13 0.472181 0.297468 0.589535
O O14 0.272148 0.323051 0.267628
O O15 0.146498 0.790494 0.456169
O O16 0.472488 0.648741 0.379150
#
# Coordination Sequence:
#
# PCOD9000724 Si02
#       8
#     1   1   1   1   1   1   1   1
#     4  10  19  39  65  90 127 175 216 265 326 390
#     4  10  19  36  67  91 122 175 221 261 321 395
#     4  11  25  42  65  99 133 169 220 277 328 390
#     4  11  23  41  69  94 131 177 217 268 336 394
#     4  11  25  42  65  99 133 169 220 277 328 390
#     4  10  19  36  67  91 122 175 221 261 321 395
#     4  10  19  39  65  90 127 175 216 265 326 390
#     4  11  23  41  69  94 131 177 217 268 336 394
#
# _framework density 26.084491
#
# number of rings (size 3 to 8) (size 9 to 14) (size 15 to 20)
#    0.000    1.500    5.000    3.000    3.500    1.000 
#    0.000    2.500    0.000    0.000    0.000    0.000 
#    0.000    0.000    0.000    0.000    0.000    0.000 
#
# Total GULP energy -44866.607486 kJ/mol
# GULP energy per Si atom -5608.325936 kJ/mol
# Density = 2.602512 g / cm^3
# Si number density = 26.084491 Si / 1000 Ang^3
#
#
#
# Elastic Constant Matrix: (Units=GPa)
#
#
# Indices 1 2 3 4 5 6 
#
# 1 143.2421 56.7737 13.9431 6.7086 -17.2977 12.4165
# 2 56.7737 163.6648 24.8908 -24.7650 3.0278 -7.9618
# 3 13.9431 24.8908 79.2203 -1.9930 -3.3860 -2.0100
# 4 6.7086 -24.7650 -1.9930 30.2507 13.1027 -5.6443
# 5 -17.2977 3.0278 -3.3860 13.1027 42.6791 8.0591
# 6 12.4165 -7.9618 -2.0100 -5.6443 8.0591 63.4175
#
#
#
# Elastic Compliance Matrix: (Units=1/GPa)
#
#
# Indices 1 2 3 4 5 6 
#
# 1 0.012176 -0.006839 -0.000034 -0.014100 0.010856 -0.005878
# 2 -0.006839 0.011743 -0.002359 0.016232 -0.009801 0.005429
# 3 -0.000034 -0.002359 0.013395 -0.001891 0.001847 -0.000268
# 4 -0.014100 0.016232 -0.001891 0.064840 -0.029618 0.014273
# 5 0.010856 -0.009801 0.001847 -0.029618 0.039842 -0.010997
# 6 -0.005878 0.005429 -0.000268 0.014273 -0.010997 0.020260
#
#
# Mechanical properties :
#
#
# Convention : Reuss Voigt Hill
#
# Bulk Modulus (GPa) = 53.05022 64.14916 58.59969
# Shear Modulus (GPa) = 26.73765 46.63744 36.68754
#
# Velocity S-wave (km/s) = 3.20510 4.23299 3.75439
# Velocity P-wave (km/s) = 5.83771 6.96686 6.42713
#
# Compressibility (1/GPa) = 0.01885006
#
# Stress axis : x y z
#
# Youngs Moduli (GPa) = 82.12905 85.15915 74.65644
#
# Poissons Ratio (x) = 0.58239 0.00255
# Poissons Ratio (y) = 0.56167 0.17609
# Poissons Ratio (z) = 0.00280 0.20086
#
# Static dielectric constant tensor:
#      x y z
#    x 1.994040 0.023480 0.041410 
#    y 0.023480 2.077510 -0.061850 
#    z 0.041410 -0.061850 2.072600 
# 
# From -- ./inp_files/1616.got.cif
#   From: 2010.05.17/outbox.cif.g08.bks.cpg/sg1_1_cif.got.tgz:1616.got - 2010.05.17 20:27:59.
