data_PCOD9000586
_publ_section_title
;
Structure prediction by ZEFSAII (Michael W. Deem and Ramdas Pophale) SiO2 
 PCOD9000586
Probable space group: P 1
;
_chemical_formula_sum "Si O2"
_cell_formula_units_Z 8
_cell_length_a 15.965510
_cell_length_b 9.454025
_cell_length_c 12.460405
_cell_angle_alpha 37.380154
_cell_angle_beta 153.972494
_cell_angle_gamma 152.727130
_cell_volume 378.089262
_symmetry_space_group_name_H-M "P 1"
_symmetry_group_IT_number 1
_symmetry_cell_setting 'triclinic'
loop_
_space_group_symop_operation_xyz
x,y,z
loop_
_atom_site_type_symbol
_atom_site_label
_atom_site_fract_x
_atom_site_fract_y
_atom_site_fract_z
Si Si1 0.521720 0.668710 0.300850
Si Si2 0.978592 0.209262 0.988558
Si Si3 0.761345 0.265274 0.499030
Si Si4 0.606559 0.998217 0.880015
Si Si5 0.776355 0.311677 0.106123
Si Si6 0.388892 0.347989 0.113059
Si Si7 0.070904 0.745109 0.370996
Si Si8 0.788250 0.796196 0.731728
O O1 0.465403 0.472323 0.248271
O O2 0.735136 0.729167 0.584785
O O3 0.267051 0.478302 0.191372
O O4 0.600148 0.990189 0.160292
O O5 0.936900 0.328983 0.762153
O O6 0.966356 0.921876 0.127095
O O7 0.774626 0.114886 0.898099
O O8 0.545129 0.258349 0.299568
O O9 0.920105 0.514844 0.436831
O O10 0.668569 0.944207 0.540604
O O11 0.367438 0.977420 0.600747
O O12 0.472090 0.643631 0.964623
O O13 0.786399 0.206889 0.062174
O O14 0.012670 0.548202 0.315124
O O15 0.681658 0.494789 0.857905
O O16 0.090486 0.060747 0.936048
#
# Coordination Sequence:
#
# PCOD9000586 Si02
#       8
#     1   1   1   1   1   1   1   1
#     4  11  24  47  69 100 144 179 229 290 336 408
#     4  12  26  44  73 105 137 189 228 279 356 405
#     4  12  24  43  74 101 138 183 228 279 346 413
#     4  11  25  46  72 103 138 182 231 286 346 408
#     4  11  24  43  72  98 135 184 229 279 343 403
#     4  11  24  47  71 102 140 182 232 281 347 411
#     4  12  23  50  70  98 145 181 228 292 339 410
#     4  12  24  46  71  99 137 188 225 284 345 400
#
# _framework density 21.159025
#
# number of rings (size 3 to 8) (size 9 to 14) (size 15 to 20)
#    0.000    0.500    6.250    1.500    5.250    1.000 
#    0.000    0.000    0.000    0.000    0.000    0.000 
#    0.000    0.000    0.000    0.000    0.000    0.000 
#
# Total GULP energy -44701.249728 kJ/mol
# GULP energy per Si atom -5587.656216 kJ/mol
# Density = 2.111087 g / cm^3
# Si number density = 21.159025 Si / 1000 Ang^3
#
#
#
# Elastic Constant Matrix: (Units=GPa)
#
#
# Indices 1 2 3 4 5 6 
#
# 1 97.4985 40.9259 57.6504 14.5028 -4.0280 -0.2385
# 2 40.9259 96.1585 43.5197 -6.5500 -15.3359 -8.2479
# 3 57.6504 43.5197 109.1226 -4.9569 -9.8690 -7.8153
# 4 14.5028 -6.5500 -4.9569 45.0531 -5.1411 -13.0801
# 5 -4.0280 -15.3359 -9.8690 -5.1411 41.5617 -3.9577
# 6 -0.2385 -8.2479 -7.8153 -13.0801 -3.9577 27.0846
#
#
#
# Elastic Compliance Matrix: (Units=1/GPa)
#
#
# Indices 1 2 3 4 5 6 
#
# 1 0.020987 -0.007167 -0.010219 -0.013105 -0.005813 -0.012125
# 2 -0.007167 0.016440 -0.001074 0.008173 0.007043 0.009609
# 3 -0.010219 -0.001074 0.016375 0.007982 0.004327 0.008795
# 4 -0.013105 0.008173 0.007982 0.036606 0.010443 0.023881
# 5 -0.005813 0.007043 0.004327 0.010443 0.029626 0.012714
# 6 -0.012125 0.009609 0.008795 0.023881 0.012714 0.055669
#
#
# Mechanical properties :
#
#
# Convention : Reuss Voigt Hill
#
# Bulk Modulus (GPa) = 59.23271 65.21907 62.22589
# Shear Modulus (GPa) = 22.90966 33.45212 28.18089
#
# Velocity S-wave (km/s) = 3.29407 3.98048 3.65343
# Velocity P-wave (km/s) = 6.52094 7.21220 6.87526
#
# Compressibility (1/GPa) = 0.01688256
#
# Stress axis : x y z
#
# Youngs Moduli (GPa) = 47.64886 60.82759 61.07055
#
# Poissons Ratio (x) = 0.43596 0.62405
# Poissons Ratio (y) = 0.34151 0.06557
# Poissons Ratio (z) = 0.48690 0.06531
#
# Static dielectric constant tensor:
#      x y z
#    x 1.751170 -0.040500 -0.045130 
#    y -0.040500 1.777860 -0.016000 
#    z -0.045130 -0.016000 1.766240 
# 
# From -- ./inp_files/4406.got.cif
#   From: 2010.05.17/outbox.cif.g08.bks.cpg/sg1_3_cif.got.tgz:4406.got - 2010.05.17 20:27:59.
