data_PCOD9000921
_publ_section_title
;
Structure prediction by ZEFSAII (Michael W. Deem and Ramdas Pophale) SiO2 
 PCOD9000921
Probable space group: P 1
;
_chemical_formula_sum "Si O2"
_cell_formula_units_Z 8
_cell_length_a 7.573543
_cell_length_b 8.495177
_cell_length_c 12.123424
_cell_angle_alpha 35.793051
_cell_angle_beta 111.040624
_cell_angle_gamma 123.944213
_cell_volume 371.294560
_symmetry_space_group_name_H-M "P 1"
_symmetry_group_IT_number 1
_symmetry_cell_setting 'triclinic'
loop_
_space_group_symop_operation_xyz
x,y,z
loop_
_atom_site_type_symbol
_atom_site_label
_atom_site_fract_x
_atom_site_fract_y
_atom_site_fract_z
Si Si1 0.163930 0.217580 0.685040
Si Si2 0.650527 0.380435 0.730035
Si Si3 0.714704 0.590810 0.405383
Si Si4 0.513715 0.249153 0.347281
Si Si5 0.859931 0.050451 0.501427
Si Si6 0.871914 0.581742 0.077691
Si Si7 0.192073 0.860427 0.320878
Si Si8 0.590331 0.103947 0.108722
O O1 0.407153 0.284304 0.694401
O O2 0.183853 0.543080 0.532790
O O3 0.024560 0.112860 0.601307
O O4 0.041302 0.934425 0.901489
O O5 0.749988 0.399518 0.620470
O O6 0.788807 0.728542 0.609786
O O7 0.618277 0.163566 0.950424
O O8 0.529088 0.373193 0.402188
O O9 0.946324 0.774474 0.291350
O O10 0.653738 0.840229 0.296864
O O11 0.635278 0.041476 0.495082
O O12 0.679558 0.529830 0.147121
O O13 0.293787 0.080991 0.324633
O O14 0.959151 0.357961 0.272685
O O15 0.756355 0.417240 0.030968
O O16 0.358281 0.998064 0.176347
#
# Coordination Sequence:
#
# PCOD9000921 Si02
#       8
#     1   1   1   1   1   1   1   1
#     4  12  21  38  75 100 123 184 222 268 341 394
#     4  12  25  42  70  99 140 175 227 275 338 399
#     4  12  24  45  67  99 140 178 218 284 331 394
#     4   9  21  42  64  97 134 174 221 281 320 401
#     4  10  20  43  66  96 135 177 221 281 322 405
#     4   9  20  40  71  93 133 177 220 275 337 383
#     4  11  23  46  73  93 135 183 224 271 342 388
#     4  11  24  48  66 101 138 176 225 281 325 410
#
# _framework density 21.546234999999999
#
# number of rings (size 3 to 8) (size 9 to 14) (size 15 to 20)
#    0.750    0.500    6.250    0.000    3.500    2.000 
#    2.250    0.000    0.000    0.000    0.000    0.000 
#    0.000    0.000    0.000    0.000    0.000    0.000 
#
# Total GULP energy -44600.911075 kJ/mol
# GULP energy per Si atom -5575.113884 kJ/mol
# Density = 2.149719 g / cm^3
# Si number density = 21.546235 Si / 1000 Ang^3
#
#
#
# Elastic Constant Matrix: (Units=GPa)
#
#
# Indices 1 2 3 4 5 6 
#
# 1 29.1828 -9.2558 -0.3701 4.8298 -8.9178 5.7875
# 2 -9.2558 82.6489 25.8787 5.6901 -7.3096 5.3466
# 3 -0.3701 25.8787 123.4963 1.7041 -17.9276 5.6054
# 4 4.8298 5.6901 1.7041 38.2507 6.8420 -0.5729
# 5 -8.9178 -7.3096 -17.9276 6.8420 16.3944 7.0064
# 6 5.7875 5.3466 5.6054 -0.5729 7.0064 27.6692
#
#
#
# Elastic Compliance Matrix: (Units=1/GPa)
#
#
# Indices 1 2 3 4 5 6 
#
# 1 0.100026 0.023909 0.017155 -0.040658 0.127338 -0.062104
# 2 0.023909 0.019501 0.002596 -0.013168 0.038264 -0.019257
# 3 0.017155 0.002596 0.013830 -0.009997 0.036800 -0.016417
# 4 -0.040658 -0.013168 -0.009997 0.047122 -0.072427 0.032390
# 5 0.127338 0.038264 0.036800 -0.072427 0.264818 -0.110041
# 6 -0.062104 -0.019257 -0.016417 0.032390 -0.110041 0.084714
#
#
# Mechanical properties :
#
#
# Convention : Reuss Voigt Hill
#
# Bulk Modulus (GPa) = 4.53155 29.75927 17.14541
# Shear Modulus (GPa) = 9.68524 31.06788 20.37656
#
# Velocity S-wave (km/s) = 2.12246 3.80138 3.07858
# Velocity P-wave (km/s) = 2.84855 5.75405 4.54001
#
# Compressibility (1/GPa) = 0.22067520
#
# Stress axis : x y z
#
# Youngs Moduli (GPa) = 9.99745 51.28035 72.30556
#
# Poissons Ratio (x) = -1.22607 -1.24038
# Poissons Ratio (y) = -0.23903 -0.18768
# Poissons Ratio (z) = -0.17150 -0.13311
#
# Static dielectric constant tensor:
#      x y z
#    x 1.794560 -0.020680 -0.046530 
#    y -0.020680 1.772820 0.038540 
#    z -0.046530 0.038540 1.834700 
# 
# From -- ./inp_files/6421.got.cif
#   From: 2010.05.17/outbox.cif.g08.bks.cpg/sg1_4_cif.got.tgz:6421.got - 2010.05.17 20:27:59.
