data_PCOD9000192
_publ_section_title
;
Structure prediction by ZEFSAII (Michael W. Deem and Ramdas Pophale) SiO2 
 PCOD9000192
Probable space group: P 1
;
_chemical_formula_sum "Si O2"
_cell_formula_units_Z 6
_cell_length_a 7.050593
_cell_length_b 6.824304
_cell_length_c 9.972585
_cell_angle_alpha 46.270417
_cell_angle_beta 132.612991
_cell_angle_gamma 118.021324
_cell_volume 255.174924
_symmetry_space_group_name_H-M "P 1"
_symmetry_group_IT_number 1
_symmetry_cell_setting 'triclinic'
loop_
_space_group_symop_operation_xyz
x,y,z
loop_
_atom_site_type_symbol
_atom_site_label
_atom_site_fract_x
_atom_site_fract_y
_atom_site_fract_z
Si Si1 0.312600 0.193540 0.526120
Si Si2 0.758756 0.179234 0.283977
Si Si3 0.189542 0.190170 0.011733
Si Si4 0.050803 0.171115 0.677896
Si Si5 0.734718 0.795624 0.010905
Si Si6 0.332983 0.618996 0.106083
O O1 0.254727 0.278422 0.613423
O O2 0.366294 0.445220 0.337625
O O3 0.030148 0.066154 0.413803
O O4 0.539212 0.977090 0.743980
O O5 0.474819 0.081381 0.160795
O O6 0.793087 0.163873 0.469956
O O7 0.769090 0.499604 0.103736
O O8 0.232360 0.412311 0.040802
O O9 0.066681 0.317372 0.757757
O O10 0.997820 0.957102 0.078057
O O11 0.130140 0.863976 0.897545
O O12 0.593357 0.744801 0.108850
#
# Coordination Sequence:
#
# PCOD9000192 Si02
#       6
#     1   1   1   1   1   1
#     4   9  21  42  69  89 140 170 210 288 319 376
#     4   9  22  46  64  99 135 171 223 278 321 399
#     4  11  23  42  73  96 130 184 221 262 352 386
#     4   9  22  46  65  98 136 171 221 280 322 395
#     4  10  22  42  65 102 133 169 223 277 322 400
#     4  10  22  46  66 100 136 169 228 277 320 406
#
# _framework density 23.513280000000002
#
# number of rings (size 3 to 8) (size 9 to 14) (size 15 to 20)
#    1.000    1.333    0.000    1.000    4.667    2.667 
#   15.000    0.000    0.000    0.000    0.000    0.000 
#    0.000    0.000    0.000    0.000    0.000    0.000 
#
# Total GULP energy -33483.609490 kJ/mol
# GULP energy per Si atom -5580.601582 kJ/mol
# Density = 2.345976 g / cm^3
# Si number density = 23.513280 Si / 1000 Ang^3
#
#
#
# Elastic Constant Matrix: (Units=GPa)
#
#
# Indices 1 2 3 4 5 6 
#
# 1 106.5525 44.8580 42.6456 -6.5588 0.1404 44.7065
# 2 44.8580 74.8313 35.6754 1.9281 -4.0770 19.7279
# 3 42.6456 35.6754 169.2142 -4.7995 -18.5355 11.8106
# 4 -6.5588 1.9281 -4.7995 28.6554 -3.4809 0.9627
# 5 0.1404 -4.0770 -18.5355 -3.4809 58.3853 7.4397
# 6 44.7065 19.7279 11.8106 0.9627 7.4397 45.8199
#
#
#
# Elastic Compliance Matrix: (Units=1/GPa)
#
#
# Indices 1 2 3 4 5 6 
#
# 1 0.020619 -0.006904 -0.002272 0.005519 0.001226 -0.016875
# 2 -0.006904 0.018892 -0.002211 -0.003125 0.000556 -0.000853
# 3 -0.002272 -0.002211 0.007135 0.001041 0.002054 0.000975
# 4 0.005519 -0.003125 0.001041 0.037100 0.003021 -0.005578
# 5 0.001226 0.000556 0.002054 0.003021 0.018640 -0.005055
# 6 -0.016875 -0.000853 0.000975 -0.005578 -0.005055 0.039344
#
#
# Mechanical properties :
#
#
# Convention : Reuss Voigt Hill
#
# Bulk Modulus (GPa) = 41.89068 66.32843 54.10955
# Shear Modulus (GPa) = 28.99202 41.73338 35.36270
#
# Velocity S-wave (km/s) = 3.51523 4.21751 3.88228
# Velocity P-wave (km/s) = 5.85920 7.21018 6.56951
#
# Compressibility (1/GPa) = 0.02387166
#
# Stress axis : x y z
#
# Youngs Moduli (GPa) = 48.49789 52.93349 140.15359
#
# Poissons Ratio (x) = 0.36543 0.31847
# Poissons Ratio (y) = 0.33481 0.30992
# Poissons Ratio (z) = 0.11020 0.11705
#
# Static dielectric constant tensor:
#      x y z
#    x 1.967970 -0.050290 0.002440 
#    y -0.050290 1.891700 0.016370 
#    z 0.002440 0.016370 1.877760 
# 
# From -- ./inp_files/896.got.cif
#   From: 2010.05.17/outbox.cif.g08.bks.cpg/sg1_1_cif.got.tgz:896.got - 2010.05.17 20:27:59.
