data_PCOD9000473
_publ_section_title
;
Structure prediction by ZEFSAII (Michael W. Deem and Ramdas Pophale) SiO2 
 PCOD9000473
Probable space group: P 1
;
_chemical_formula_sum "Si O2"
_cell_formula_units_Z 8
_cell_length_a 5.270743
_cell_length_b 10.224743
_cell_length_c 10.655599
_cell_angle_alpha 34.833200
_cell_angle_beta 94.934612
_cell_angle_gamma 87.801890
_cell_volume 320.744361
_symmetry_space_group_name_H-M "P 1"
_symmetry_group_IT_number 1
_symmetry_cell_setting 'triclinic'
loop_
_space_group_symop_operation_xyz
x,y,z
loop_
_atom_site_type_symbol
_atom_site_label
_atom_site_fract_x
_atom_site_fract_y
_atom_site_fract_z
Si Si1 0.598860 0.836070 0.491380
Si Si2 0.410381 0.257505 0.277596
Si Si3 0.486075 0.123233 0.821813
Si Si4 0.086720 0.482299 0.855689
Si Si5 0.324095 0.735515 0.978502
Si Si6 0.270875 0.613478 0.495595
Si Si7 0.850627 0.046470 0.130883
Si Si8 0.759052 0.971817 0.707177
O O1 0.531972 0.711757 0.456645
O O2 0.808307 0.658063 0.721000
O O3 0.367403 0.001318 0.428376
O O4 0.739927 0.028773 0.279951
O O5 0.677813 0.143385 0.451395
O O6 0.289311 0.417608 0.028006
O O7 0.313140 0.465003 0.211978
O O8 0.297982 0.372937 0.614409
O O9 0.358642 0.896028 0.973957
O O10 0.688381 0.111924 0.724370
O O11 0.627571 0.114646 0.966639
O O12 0.216612 0.581231 0.666235
O O13 0.018278 0.244385 0.990191
O O14 0.571110 0.780209 0.870455
O O15 0.057790 0.859213 0.806285
O O16 0.040250 0.810442 0.284306
#
# Coordination Sequence:
#
# PCOD9000473 Si02
#       8
#     1   1   1   1   1   1   1   1
#     4  11  25  41  67 105 140 180 234 291 357 427
#     4  12  25  45  74  98 145 185 242 285 364 422
#     4  10  25  45  70 100 146 179 242 291 351 428
#     4  11  25  42  70 107 142 180 235 298 361 424
#     4  10  27  48  69 105 141 193 236 295 345 422
#     4  11  24  42  66 106 140 180 230 294 355 427
#     4  11  24  43  72 106 137 189 228 297 368 415
#     4  10  27  48  70 107 139 194 237 297 345 423
#
# _framework density 24.941983
#
# number of rings (size 3 to 8) (size 9 to 14) (size 15 to 20)
#    0.750    0.500    2.500    1.500    3.500    6.000 
#    0.000    0.000    0.000    0.000    0.000    0.000 
#    0.000    0.000    0.000    0.000    0.000    0.000 
#
# Total GULP energy -44548.601759 kJ/mol
# GULP energy per Si atom -5568.575220 kJ/mol
# Density = 2.488521 g / cm^3
# Si number density = 24.941983 Si / 1000 Ang^3
#
#
#
# Elastic Constant Matrix: (Units=GPa)
#
#
# Indices 1 2 3 4 5 6 
#
# 1 62.2686 15.2971 14.0194 4.7253 22.4670 4.4249
# 2 15.2971 112.5242 29.7864 -35.1682 3.2554 -2.6928
# 3 14.0194 29.7864 82.8814 -17.3142 31.4210 -11.8037
# 4 4.7253 -35.1682 -17.3142 60.5224 -8.3605 6.0467
# 5 22.4670 3.2554 31.4210 -8.3605 38.5044 -0.1748
# 6 4.4249 -2.6928 -11.8037 6.0467 -0.1748 30.1082
#
#
#
# Elastic Compliance Matrix: (Units=1/GPa)
#
#
# Indices 1 2 3 4 5 6 
#
# 1 0.023492 -0.005499 0.002873 -0.006390 -0.016982 -0.001633
# 2 -0.005499 0.013304 -0.005631 0.007881 0.008382 -0.001744
# 3 0.002873 -0.005631 0.021790 -0.000663 -0.019091 0.007639
# 4 -0.006390 0.007881 -0.000663 0.022911 0.008564 -0.003167
# 5 -0.016982 0.008382 -0.019091 0.008564 0.052584 -0.005654
# 6 -0.001633 -0.001744 0.007639 -0.003167 -0.005654 0.036896
#
#
# Mechanical properties :
#
#
# Convention : Reuss Voigt Hill
#
# Bulk Modulus (GPa) = 23.76864 41.76446 32.76655
# Shear Modulus (GPa) = 24.81214 39.06509 31.93861
#
# Velocity S-wave (km/s) = 3.15746 3.96187 3.58231
# Velocity P-wave (km/s) = 4.77943 6.14081 5.50239
#
# Compressibility (1/GPa) = 0.04207224
#
# Stress axis : x y z
#
# Youngs Moduli (GPa) = 42.56824 75.16503 45.89247
#
# Poissons Ratio (x) = 0.41334 -0.13185
# Poissons Ratio (y) = 0.23409 0.25841
# Poissons Ratio (z) = -0.12230 0.42323
#
# Static dielectric constant tensor:
#      x y z
#    x 2.044570 0.008720 -0.063190 
#    y 0.008720 2.082550 -0.004630 
#    z -0.063190 -0.004630 1.931980 
# 
# From -- ./inp_files/2610.got.cif
#   From: 2010.05.17/outbox.cif.g08.bks.cpg/sg1_2_cif.got.tgz:2610.got - 2010.05.17 20:27:59.
