data_PCOD9000456
_publ_section_title
;
Structure prediction by ZEFSAII (Michael W. Deem and Ramdas Pophale) SiO2 
 PCOD9000456
Probable space group: P 1
;
_chemical_formula_sum "Si O2"
_cell_formula_units_Z 8
_cell_length_a 4.976280
_cell_length_b 8.941040
_cell_length_c 11.433290
_cell_angle_alpha 139.610566
_cell_angle_beta 75.729250
_cell_angle_gamma 90.938769
_cell_volume 307.332568
_symmetry_space_group_name_H-M "P 1"
_symmetry_group_IT_number 1
_symmetry_cell_setting 'triclinic'
loop_
_space_group_symop_operation_xyz
x,y,z
loop_
_atom_site_type_symbol
_atom_site_label
_atom_site_fract_x
_atom_site_fract_y
_atom_site_fract_z
Si Si1 0.625000 0.163780 0.587910
Si Si2 0.519435 0.903502 0.838683
Si Si3 0.875948 0.387462 0.878735
Si Si4 0.051440 0.201582 0.385308
Si Si5 0.018614 0.398490 0.137923
Si Si6 0.903614 0.852462 0.542997
Si Si7 0.155569 0.544134 0.736822
Si Si8 0.671591 0.155009 0.182826
O O1 0.603646 0.365851 0.814366
O O2 0.394786 0.290226 0.593064
O O3 0.931371 0.084298 0.438297
O O4 0.643965 0.930556 0.521886
O O5 0.746648 0.826794 0.664454
O O6 0.328335 0.725784 0.785579
O O7 0.688512 0.950765 0.963680
O O8 0.285846 0.157121 0.977563
O O9 0.989313 0.569111 0.892785
O O10 0.014216 0.093465 0.685729
O O11 0.908534 0.445468 0.044351
O O12 0.973003 0.469806 0.608119
O O13 0.367056 0.178043 0.288535
O O14 0.892100 0.132056 0.250563
O O15 0.104829 0.613152 0.323871
O O16 0.750865 0.359367 0.218604
#
# Coordination Sequence:
#
# PCOD9000456 Si02
#       8
#     1   1   1   1   1   1   1   1
#     4   9  21  46  71 108 155 199 259 322 389 462
#     4  12  27  47  79 118 159 205 264 334 397 477
#     4   9  23  46  71 112 153 202 266 320 392 473
#     4  11  23  43  75 111 154 204 262 318 398 470
#     4  12  25  49  77 111 158 209 266 318 403 479
#     4  10  24  49  75 110 154 213 256 330 391 474
#     4  11  23  47  78 114 158 206 259 337 395 471
#     4  12  24  45  70 116 159 198 262 327 389 478
#
# _framework density 26.030432999999999
#
# number of rings (size 3 to 8) (size 9 to 14) (size 15 to 20)
#    0.750    0.500    3.750    1.500    0.000    4.000 
#    6.750    0.000    0.000    0.000    0.000    0.000 
#    0.000    0.000    0.000    0.000    0.000    0.000 
#
# Total GULP energy -44582.391987 kJ/mol
# GULP energy per Si atom -5572.798998 kJ/mol
# Density = 2.597119 g / cm^3
# Si number density = 26.030433 Si / 1000 Ang^3
#
#
#
# Elastic Constant Matrix: (Units=GPa)
#
#
# Indices 1 2 3 4 5 6 
#
# 1 82.4389 18.0432 12.7112 -13.8415 19.1359 -11.9838
# 2 18.0432 160.1558 69.5670 -24.5705 20.4430 0.3827
# 3 12.7112 69.5670 143.8040 -29.0515 34.2882 -13.8699
# 4 -13.8415 -24.5705 -29.0515 48.3139 -4.5833 6.1601
# 5 19.1359 20.4430 34.2882 -4.5833 39.3236 3.8092
# 6 -11.9838 0.3827 -13.8699 6.1601 3.8092 20.0351
#
#
#
# Elastic Compliance Matrix: (Units=1/GPa)
#
#
# Indices 1 2 3 4 5 6 
#
# 1 0.017518 -0.001789 0.004484 0.003726 -0.012509 0.014850
# 2 -0.001789 0.008487 -0.004228 0.001971 0.000852 -0.004927
# 3 0.004484 -0.004228 0.013882 0.004552 -0.012859 0.013419
# 4 0.003726 0.001971 0.004552 0.025380 -0.003677 -0.001763
# 5 -0.012509 0.000852 -0.012859 -0.003677 0.044150 -0.023664
# 6 0.014850 -0.004927 0.013419 -0.001763 -0.023664 0.073220
#
#
# Mechanical properties :
#
#
# Convention : Reuss Voigt Hill
#
# Bulk Modulus (GPa) = 27.15640 65.22684 46.19162
# Shear Modulus (GPa) = 25.25547 40.60634 32.93091
#
# Velocity S-wave (km/s) = 3.11823 3.95391 3.56067
# Velocity P-wave (km/s) = 4.83939 6.77915 5.88968
#
# Compressibility (1/GPa) = 0.03682373
#
# Stress axis : x y z
#
# Youngs Moduli (GPa) = 57.08371 117.82354 72.03316
#
# Poissons Ratio (x) = 0.21075 -0.32303
# Poissons Ratio (y) = 0.10210 0.30454
# Poissons Ratio (z) = -0.25599 0.49814
#
# Static dielectric constant tensor:
#      x y z
#    x 2.194600 -0.072480 -0.113470 
#    y -0.072480 2.072710 0.050930 
#    z -0.113470 0.050930 2.136100 
# 
# From -- ./inp_files/6020.got.cif
#   From: 2010.05.17/outbox.cif.g08.bks.cpg/sg1_4_cif.got.tgz:6020.got - 2010.05.17 20:27:59.
