data_PCOD9000569
_publ_section_title
;
Structure prediction by ZEFSAII (Michael W. Deem and Ramdas Pophale) SiO2 
 PCOD9000569
Probable space group: P 1
;
_chemical_formula_sum "Si O2"
_cell_formula_units_Z 8
_cell_length_a 7.789692
_cell_length_b 6.738022
_cell_length_c 11.121936
_cell_angle_alpha 97.047787
_cell_angle_beta 141.593108
_cell_angle_gamma 80.742217
_cell_volume 357.926068
_symmetry_space_group_name_H-M "P 1"
_symmetry_group_IT_number 1
_symmetry_cell_setting 'triclinic'
loop_
_space_group_symop_operation_xyz
x,y,z
loop_
_atom_site_type_symbol
_atom_site_label
_atom_site_fract_x
_atom_site_fract_y
_atom_site_fract_z
Si Si1 0.849620 0.216720 0.838760
Si Si2 0.659551 0.397484 0.996298
Si Si3 0.992608 0.179413 0.347937
Si Si4 0.470253 0.932135 0.457139
Si Si5 0.469023 0.013442 0.178606
Si Si6 0.142406 0.194921 0.685179
Si Si7 0.776086 0.525880 0.621440
Si Si8 0.290404 0.767608 0.854089
O O1 0.772737 0.261528 0.937368
O O2 0.785796 0.427562 0.750063
O O3 0.686310 0.048451 0.667027
O O4 0.179039 0.152205 0.010675
O O5 0.392363 0.296544 0.891511
O O6 0.530929 0.621424 0.910559
O O7 0.884956 0.371323 0.223562
O O8 0.736018 0.092128 0.268038
O O9 0.181966 0.224058 0.567476
O O10 0.169536 0.022871 0.347004
O O11 0.514277 0.690595 0.477884
O O12 0.503597 0.973718 0.336590
O O13 0.415695 0.820176 0.055418
O O14 0.851495 0.323958 0.568662
O O15 0.188203 0.965406 0.735690
O O16 0.022215 0.655844 0.727165
#
# Coordination Sequence:
#
# PCOD9000569 Si02
#       8
#     1   1   1   1   1   1   1   1
#     4  12  24  50  69 100 147 182 236 291 341 419
#     4  11  25  44  72 102 138 190 231 282 354 411
#     4  12  25  45  72 105 142 183 231 292 346 414
#     4  12  27  47  71 106 141 185 233 292 348 412
#     4  12  24  47  73  99 144 183 232 290 347 411
#     4  11  23  47  71  98 144 181 235 289 344 416
#     4  11  23  44  72 101 134 194 227 281 358 407
#     4  11  23  46  72 101 138 188 231 285 350 414
#
# _framework density 22.350987
#
# number of rings (size 3 to 8) (size 9 to 14) (size 15 to 20)
#    0.000    0.500    6.250    2.250    3.500    0.000 
#    6.750    0.000    0.000    0.000    0.000    0.000 
#    0.000    0.000    0.000    0.000    0.000    0.000 
#
# Total GULP energy -44648.189619 kJ/mol
# GULP energy per Si atom -5581.023702 kJ/mol
# Density = 2.230011 g / cm^3
# Si number density = 22.350987 Si / 1000 Ang^3
#
#
#
# Elastic Constant Matrix: (Units=GPa)
#
#
# Indices 1 2 3 4 5 6 
#
# 1 81.6439 22.6818 30.9270 -18.5425 5.4854 -31.4658
# 2 22.6818 106.6183 40.0179 -32.4076 1.3967 -14.3405
# 3 30.9270 40.0179 101.6769 -20.2418 -14.5405 -9.3694
# 4 -18.5425 -32.4076 -20.2418 35.4470 -4.4827 -0.6481
# 5 5.4854 1.3967 -14.5405 -4.4827 42.1047 -2.1324
# 6 -31.4658 -14.3405 -9.3694 -0.6481 -2.1324 36.2968
#
#
#
# Elastic Compliance Matrix: (Units=1/GPa)
#
#
# Indices 1 2 3 4 5 6 
#
# 1 0.024550 0.003541 -0.004489 0.013619 -0.002321 0.021630
# 2 0.003541 0.015360 -0.003612 0.013949 -0.000306 0.008437
# 3 -0.004489 -0.003612 0.013922 0.003004 0.005765 -0.001332
# 4 0.013619 0.013949 0.003004 0.050812 0.005188 0.019305
# 5 -0.002321 -0.000306 0.005765 0.005188 0.026657 0.001014
# 6 0.021630 0.008437 -0.001332 0.019305 0.001014 0.049695
#
#
# Mechanical properties :
#
#
# Convention : Reuss Voigt Hill
#
# Bulk Modulus (GPa) = 22.36487 53.02137 37.69312
# Shear Modulus (GPa) = 24.38791 35.85721 30.12256
#
# Velocity S-wave (km/s) = 3.30681 4.00969 3.67509
# Velocity P-wave (km/s) = 4.96064 6.72387 5.90840
#
# Compressibility (1/GPa) = 0.04471298
#
# Stress axis : x y z
#
# Youngs Moduli (GPa) = 40.73356 65.10291 71.83047
#
# Poissons Ratio (x) = -0.23054 0.32242
# Poissons Ratio (y) = -0.14425 0.25945
# Poissons Ratio (z) = 0.18284 0.23515
#
# Static dielectric constant tensor:
#      x y z
#    x 1.869180 -0.039080 0.010030 
#    y -0.039080 1.841690 0.017490 
#    z 0.010030 0.017490 1.934160 
# 
# From -- ./inp_files/1698.got.cif
#   From: 2010.05.17/outbox.cif.g08.bks.cpg/sg1_1_cif.got.tgz:1698.got - 2010.05.17 20:27:59.
