data_PCOD9000317
_publ_section_title
;
Structure prediction by ZEFSAII (Michael W. Deem and Ramdas Pophale) SiO2 
 PCOD9000317
Probable space group: P 1
;
_chemical_formula_sum "Si O2"
_cell_formula_units_Z 8
_cell_length_a 7.162372
_cell_length_b 13.699640
_cell_length_c 5.100981
_cell_angle_alpha 88.037105
_cell_angle_beta 113.576417
_cell_angle_gamma 131.816681
_cell_volume 321.488203
_symmetry_space_group_name_H-M "P 1"
_symmetry_group_IT_number 1
_symmetry_cell_setting 'triclinic'
loop_
_space_group_symop_operation_xyz
x,y,z
loop_
_atom_site_type_symbol
_atom_site_label
_atom_site_fract_x
_atom_site_fract_y
_atom_site_fract_z
Si Si1 0.172650 0.592980 0.033560
Si Si2 0.312779 0.941526 0.734016
Si Si3 0.720538 0.701727 0.160679
Si Si4 0.139139 0.199609 0.978082
Si Si5 0.003989 0.253835 0.403966
Si Si6 0.612935 0.464376 0.930289
Si Si7 0.428803 0.102158 0.285130
Si Si8 0.433928 0.769084 0.685737
O O1 0.393554 0.579570 0.106062
O O2 0.344261 0.710368 0.347810
O O3 0.176246 0.652032 0.755734
O O4 0.842768 0.466487 0.943180
O O5 0.475732 0.897543 0.745764
O O6 0.971169 0.807787 0.497876
O O7 0.399028 0.055874 0.567843
O O8 0.362593 0.991799 0.053971
O O9 0.785388 0.622364 0.065255
O O10 0.682433 0.781216 0.936536
O O11 0.449783 0.359590 0.092096
O O12 0.993144 0.160404 0.615594
O O13 0.212122 0.116226 0.109427
O O14 0.968276 0.201277 0.100046
O O15 0.759297 0.242368 0.374038
O O16 0.336712 0.400714 0.604722
#
# Coordination Sequence:
#
# PCOD9000317 Si02
#       8
#     1   1   1   1   1   1   1   1
#     4  10  23  42  69 101 143 174 223 274 350 419
#     4  12  26  45  74 101 143 182 233 288 336 423
#     4  10  26  44  72 106 138 184 220 284 367 398
#     4  10  25  46  69 105 136 179 239 281 337 412
#     4  10  25  46  70 101 140 182 231 286 341 399
#     4  10  24  45  74 104 143 174 233 288 345 423
#     4  12  27  47  73  99 140 189 235 282 345 399
#     4  10  24  43  65 101 141 176 226 271 345 415
#
# _framework density 24.884270999999998
#
# number of rings (size 3 to 8) (size 9 to 14) (size 15 to 20)
#    1.500    0.000    1.250    2.250    3.500    7.000 
#    0.000    0.000    0.000    0.000    0.000    0.000 
#    0.000    0.000    0.000    0.000    0.000    0.000 
#
# Total GULP energy -44690.680341 kJ/mol
# GULP energy per Si atom -5586.335043 kJ/mol
# Density = 2.482763 g / cm^3
# Si number density = 24.884271 Si / 1000 Ang^3
#
#
#
# Elastic Constant Matrix: (Units=GPa)
#
#
# Indices 1 2 3 4 5 6 
#
# 1 89.4581 13.9071 13.0097 -7.8043 13.9945 7.2830
# 2 13.9071 57.5296 0.0047 -14.0871 4.0669 0.9089
# 3 13.0097 0.0047 71.4462 2.9124 9.7785 4.5444
# 4 -7.8043 -14.0871 2.9124 32.6445 8.5392 6.8318
# 5 13.9945 4.0669 9.7785 8.5392 37.3510 -3.6964
# 6 7.2830 0.9089 4.5444 6.8318 -3.6964 46.7217
#
#
#
# Elastic Compliance Matrix: (Units=1/GPa)
#
#
# Indices 1 2 3 4 5 6 
#
# 1 0.013219 -0.001576 -0.001623 0.004760 -0.005744 -0.003023
# 2 -0.001576 0.020540 0.000593 0.009974 -0.004280 -0.002009
# 3 -0.001623 0.000593 0.014864 -0.000260 -0.003431 -0.001438
# 4 0.004760 0.009974 -0.000260 0.041164 -0.013000 -0.007958
# 5 -0.005744 -0.004280 -0.003431 -0.013000 0.033844 0.005891
# 6 -0.003023 -0.002009 -0.001438 -0.007958 0.005891 0.023683
#
#
# Mechanical properties :
#
#
# Convention : Reuss Voigt Hill
#
# Bulk Modulus (GPa) = 23.03589 30.25296 26.64442
# Shear Modulus (GPa) = 29.94066 36.11093 33.02579
#
# Velocity S-wave (km/s) = 3.47247 3.81354 3.64699
# Velocity P-wave (km/s) = 5.03535 5.61913 5.33523
#
# Compressibility (1/GPa) = 0.04341052
#
# Stress axis : x y z
#
# Youngs Moduli (GPa) = 75.64687 48.68578 67.27857
#
# Poissons Ratio (x) = 0.07673 0.10917
# Poissons Ratio (y) = 0.11923 -0.03987
# Poissons Ratio (z) = 0.12275 -0.02885
#
# Static dielectric constant tensor:
#      x y z
#    x 1.933460 0.060340 0.051380 
#    y 0.060340 2.010060 0.048310 
#    z 0.051380 0.048310 1.938480 
# 
# From -- ./inp_files/1850.got.cif
#   From: 2010.05.17/outbox.cif.g08.bks.cpg/sg1_1_cif.got.tgz:1850.got - 2010.05.17 20:27:59.
