data_PCOD9000157
_publ_section_title
;
Structure prediction by ZEFSAII (Michael W. Deem and Ramdas Pophale) SiO2 
 PCOD9000157
Probable space group: P 1
;
_chemical_formula_sum "Si O2"
_cell_formula_units_Z 8
_cell_length_a 7.868468
_cell_length_b 6.822671
_cell_length_c 12.179888
_cell_angle_alpha 48.847107
_cell_angle_beta 115.307687
_cell_angle_gamma 81.650152
_cell_volume 346.865342
_symmetry_space_group_name_H-M "P 1"
_symmetry_group_IT_number 1
_symmetry_cell_setting 'triclinic'
loop_
_space_group_symop_operation_xyz
x,y,z
loop_
_atom_site_type_symbol
_atom_site_label
_atom_site_fract_x
_atom_site_fract_y
_atom_site_fract_z
Si Si1 0.168120 0.557350 0.446860
Si Si2 0.701231 0.874656 0.076940
Si Si3 0.794536 0.220621 0.371834
Si Si4 0.379160 0.676646 0.263925
Si Si5 0.302559 0.842506 0.753208
Si Si6 0.526864 0.530058 0.705843
Si Si7 0.687339 0.743020 0.476616
Si Si8 0.202301 0.048581 0.874688
O O1 0.286346 0.541070 0.370551
O O2 0.273736 0.659382 0.530568
O O3 0.882735 0.791637 0.256434
O O4 0.269111 0.182172 0.633140
O O5 0.792834 0.503847 0.205900
O O6 0.689188 0.126416 0.897494
O O7 0.418128 0.067403 0.953000
O O8 0.609542 0.407858 0.353049
O O9 0.718452 0.021178 0.368697
O O10 0.056902 0.950234 0.594448
O O11 0.472340 0.828530 0.309817
O O12 0.178943 0.922972 0.029539
O O13 0.496107 0.620310 0.793521
O O14 0.303588 0.770866 0.908809
O O15 0.626206 0.681862 0.604175
O O16 0.945360 0.391054 0.647179
#
# Coordination Sequence:
#
# PCOD9000157 Si02
#       8
#     1   1   1   1   1   1   1   1
#     4  10  22  43  66  93 134 172 216 265 329 384
#     4  10  22  42  64  97 127 171 215 271 314 383
#     4  10  22  40  65  97 130 169 214 272 320 382
#     4  10  22  43  65  95 133 173 212 271 323 390
#     4  11  22  41  66  98 130 170 216 271 324 384
#     4  11  23  43  70  95 131 174 215 269 326 389
#     4  11  23  44  69  95 131 175 216 265 331 386
#     4  11  22  42  65  98 130 168 218 270 319 384
#
# _framework density 23.063706
#
# number of rings (size 3 to 8) (size 9 to 14) (size 15 to 20)
#    0.000    1.500    2.500    2.250    0.000    0.000 
#   20.250    0.000    0.000    0.000    0.000    0.000 
#    0.000    0.000    0.000    0.000    0.000    0.000 
#
# Total GULP energy -44629.009657 kJ/mol
# GULP energy per Si atom -5578.626207 kJ/mol
# Density = 2.301121 g / cm^3
# Si number density = 23.063706 Si / 1000 Ang^3
#
#
#
# Elastic Constant Matrix: (Units=GPa)
#
#
# Indices 1 2 3 4 5 6 
#
# 1 94.2799 37.7495 19.0153 0.4764 -5.3363 1.9497
# 2 37.7495 86.3536 27.8731 7.1498 -10.8756 -6.9294
# 3 19.0153 27.8731 98.3522 8.0302 -8.8153 1.3633
# 4 0.4764 7.1498 8.0302 19.3276 1.3582 -5.0195
# 5 -5.3363 -10.8756 -8.8153 1.3582 38.1590 7.3045
# 6 1.9497 -6.9294 1.3633 -5.0195 7.3045 29.1074
#
#
#
# Elastic Compliance Matrix: (Units=1/GPa)
#
#
# Indices 1 2 3 4 5 6 
#
# 1 0.013131 -0.005671 -0.001013 0.001661 0.000305 -0.001972
# 2 -0.005671 0.015889 -0.002887 -0.003958 0.002644 0.002952
# 3 -0.001013 -0.002887 0.011815 -0.004658 0.002426 -0.002585
# 4 0.001661 -0.003958 -0.004658 0.058320 -0.006106 0.010754
# 5 0.000305 0.002644 0.002426 -0.006106 0.029294 -0.007909
# 6 -0.001972 0.002952 -0.002585 0.010754 -0.007909 0.039150
#
#
# Mechanical properties :
#
#
# Convention : Reuss Voigt Hill
#
# Bulk Modulus (GPa) = 46.09683 49.80682 47.95182
# Shear Modulus (GPa) = 25.77692 30.27532 28.02612
#
# Velocity S-wave (km/s) = 3.34674 3.62703 3.48970
# Velocity P-wave (km/s) = 5.91307 6.25960 6.08880
#
# Compressibility (1/GPa) = 0.02169347
#
# Stress axis : x y z
#
# Youngs Moduli (GPa) = 76.15459 62.93736 84.63751
#
# Poissons Ratio (x) = 0.35691 0.08571
# Poissons Ratio (y) = 0.43186 0.24437
# Poissons Ratio (z) = 0.07712 0.18172
#
# Static dielectric constant tensor:
#      x y z
#    x 1.871050 -0.006590 -0.025640 
#    y -0.006590 1.882140 0.018730 
#    z -0.025640 0.018730 1.940710 
# 
# From -- ./inp_files/1625.got.cif
#   From: 2010.05.17/outbox.cif.g08.bks.cpg/sg1_1_cif.got.tgz:1625.got - 2010.05.17 20:27:59.
