data_PCOD9000675
_publ_section_title
;
Structure prediction by ZEFSAII (Michael W. Deem and Ramdas Pophale) SiO2 
 PCOD9000675
Probable space group: P 1
;
_chemical_formula_sum "Si O2"
_cell_formula_units_Z 8
_cell_length_a 5.453836
_cell_length_b 8.423694
_cell_length_c 11.036518
_cell_angle_alpha 40.730447
_cell_angle_beta 84.687313
_cell_angle_gamma 68.550362
_cell_volume 293.368915
_symmetry_space_group_name_H-M "P 1"
_symmetry_group_IT_number 1
_symmetry_cell_setting 'triclinic'
loop_
_space_group_symop_operation_xyz
x,y,z
loop_
_atom_site_type_symbol
_atom_site_label
_atom_site_fract_x
_atom_site_fract_y
_atom_site_fract_z
Si Si1 0.788700 0.766570 0.057050
Si Si2 0.104100 0.188173 0.017368
Si Si3 0.715109 0.120170 0.413280
Si Si4 0.268118 0.559825 0.329286
Si Si5 0.324820 0.887817 0.514638
Si Si6 0.555687 0.322916 0.902711
Si Si7 0.225475 0.176968 0.745705
Si Si8 0.032069 0.880121 0.764312
O O1 0.002974 0.565542 0.265249
O O2 0.001244 0.697558 0.975488
O O3 0.701263 0.043018 0.981763
O O4 0.493049 0.885396 0.929684
O O5 0.303345 0.303551 0.994105
O O6 0.100348 0.280913 0.823068
O O7 0.784870 0.314822 0.990297
O O8 0.229611 0.858387 0.198359
O O9 0.526901 0.019365 0.406539
O O10 0.012799 0.060665 0.379814
O O11 0.811615 0.932640 0.638630
O O12 0.531073 0.415960 0.309724
O O13 0.306847 0.373943 0.551145
O O14 0.459544 0.567954 0.668813
O O15 0.282512 0.855836 0.680486
O O16 0.001547 0.132450 0.703137
#
# Coordination Sequence:
#
# PCOD9000675 Si02
#       8
#     1   1   1   1   1   1   1   1
#     4  10  21  37  59  95 119 158 209 253 305 360
#     4  10  23  36  61  94 120 161 209 250 314 359
#     4  10  21  33  60  91 117 163 205 241 315 356
#     4  11  20  38  63  96 127 158 202 271 302 365
#     4  10  20  35  61  86 122 170 200 242 312 372
#     4  10  20  38  57  88 128 160 205 250 300 377
#     4  11  19  39  59  94 130 154 202 263 311 354
#     4  10  18  36  58  90 121 156 206 248 303 359
#
# _framework density 27.269418000000002
#
# number of rings (size 3 to 8) (size 9 to 14) (size 15 to 20)
#    0.750    1.000    5.000    0.750    0.000    6.000 
#    0.000    0.000    0.000   12.000    0.000    0.000 
#    0.000    0.000    0.000    0.000    0.000    0.000 
#
# Total GULP energy -44579.104501 kJ/mol
# GULP energy per Si atom -5572.388063 kJ/mol
# Density = 2.720735 g / cm^3
# Si number density = 27.269418 Si / 1000 Ang^3
#
#
#
# Elastic Constant Matrix: (Units=GPa)
#
#
# Indices 1 2 3 4 5 6 
#
# 1 212.5097 10.3170 37.2832 -21.1496 13.0620 10.9647
# 2 10.3170 48.7510 14.3097 0.8338 13.7574 -4.8181
# 3 37.2832 14.3097 134.9725 3.2388 8.2118 6.5373
# 4 -21.1496 0.8338 3.2388 45.1968 0.3449 8.0380
# 5 13.0620 13.7574 8.2118 0.3449 26.5092 -7.7734
# 6 10.9647 -4.8181 6.5373 8.0380 -7.7734 28.0872
#
#
#
# Elastic Compliance Matrix: (Units=1/GPa)
#
#
# Indices 1 2 3 4 5 6 
#
# 1 0.005700 -0.000319 -0.001222 0.003491 -0.003470 -0.003955
# 2 -0.000319 0.024560 -0.001889 -0.000701 -0.011465 0.001805
# 3 -0.001222 -0.001889 0.008150 -0.000764 -0.001502 -0.001941
# 4 0.003491 -0.000701 -0.000764 0.025609 -0.004336 -0.009834
# 5 -0.003470 -0.011465 -0.001502 -0.004336 0.050271 0.014891
# 6 -0.003955 0.001805 -0.001941 -0.009834 0.014891 0.044844
#
#
# Mechanical properties :
#
#
# Convention : Reuss Voigt Hill
#
# Bulk Modulus (GPa) = 31.69434 57.78367 44.73900
# Shear Modulus (GPa) = 28.32687 42.24685 35.28686
#
# Velocity S-wave (km/s) = 3.22650 3.94031 3.60114
# Velocity P-wave (km/s) = 5.05256 6.47590 5.80800
#
# Compressibility (1/GPa) = 0.03155138
#
# Stress axis : x y z
#
# Youngs Moduli (GPa) = 175.43088 40.71641 122.69369
#
# Poissons Ratio (x) = 0.01299 0.14991
# Poissons Ratio (y) = 0.05598 0.23174
# Poissons Ratio (z) = 0.21435 0.07690
#
# Static dielectric constant tensor:
#      x y z
#    x 2.369570 0.009480 0.020540 
#    y 0.009480 2.158860 -0.115020 
#    z 0.020540 -0.115020 2.165020 
# 
# From -- ./inp_files/7015.got.cif
#   From: 2010.05.17/outbox.cif.g08.bks.cpg/sg1_4_cif.got.tgz:7015.got - 2010.05.17 20:27:59.
