data_PCOD9000705
_publ_section_title
;
Structure prediction by ZEFSAII (Michael W. Deem and Ramdas Pophale) SiO2 
 PCOD9000705
Probable space group: P 1
;
_chemical_formula_sum "Si O2"
_cell_formula_units_Z 8
_cell_length_a 13.766581
_cell_length_b 5.208305
_cell_length_c 7.786460
_cell_angle_alpha 95.288818
_cell_angle_beta 35.346938
_cell_angle_gamma 93.479562
_cell_volume 321.510470
_symmetry_space_group_name_H-M "P 1"
_symmetry_group_IT_number 1
_symmetry_cell_setting 'triclinic'
loop_
_space_group_symop_operation_xyz
x,y,z
loop_
_atom_site_type_symbol
_atom_site_label
_atom_site_fract_x
_atom_site_fract_y
_atom_site_fract_z
Si Si1 0.812370 0.671450 0.250000
Si Si2 0.139262 0.572268 0.581511
Si Si3 0.741551 0.765921 0.915341
Si Si4 0.257320 0.274190 0.723538
Si Si5 0.633007 0.294406 0.273259
Si Si6 0.267678 0.059634 0.345804
Si Si7 0.641356 0.047651 0.744657
Si Si8 0.943081 0.439568 0.383243
O O1 0.711040 0.416183 0.338029
O O2 0.686393 0.904140 0.492855
O O3 0.914155 0.624882 0.273389
O O4 0.955462 0.687988 0.901074
O O5 0.232235 0.499883 0.627016
O O6 0.134909 0.281065 0.493528
O O7 0.235829 0.765373 0.331226
O O8 0.646366 0.837046 0.878925
O O9 0.916976 0.632218 0.591791
O O10 0.653763 0.537732 0.129332
O O11 0.727835 0.035810 0.053901
O O12 0.435860 0.252310 0.554902
O O13 0.246934 0.047439 0.583629
O O14 0.113761 0.291608 0.075104
O O15 0.450861 0.151797 0.033506
O O16 0.788104 0.243162 0.592539
#
# Coordination Sequence:
#
# PCOD9000705 Si02
#       8
#     1   1   1   1   1   1   1   1
#     4  10  25  38  64  93 132 156 203 257 319 356
#     4   9  20  38  57  90 113 164 199 250 291 368
#     4  11  22  41  64  89 123 163 212 244 304 370
#     4   9  20  36  63  87 122 155 212 244 302 359
#     4  12  24  42  63  94 125 167 197 259 313 365
#     4  10  19  34  64  87 114 153 214 249 285 354
#     4  11  21  39  67  95 121 162 214 252 298 369
#     4  10  21  42  66  95 118 166 209 259 292 371
#
# _framework density 24.882550999999999
#
# number of rings (size 3 to 8) (size 9 to 14) (size 15 to 20)
#    0.750    1.000    2.500    1.500    5.250    0.000 
#    0.000    2.500    0.000    0.000    0.000    0.000 
#    0.000    0.000    0.000    0.000    0.000    0.000 
#
# Total GULP energy -44633.326540 kJ/mol
# GULP energy per Si atom -5579.165817 kJ/mol
# Density = 2.482592 g / cm^3
# Si number density = 24.882551 Si / 1000 Ang^3
#
#
#
# Elastic Constant Matrix: (Units=GPa)
#
#
# Indices 1 2 3 4 5 6 
#
# 1 49.0561 9.3110 30.3625 8.9042 -6.5315 6.6452
# 2 9.3110 146.9438 54.8055 14.2128 -8.0959 -4.3913
# 3 30.3625 54.8055 112.4943 27.6254 -13.7375 -0.3372
# 4 8.9042 14.2128 27.6254 41.8533 2.7787 9.6542
# 5 -6.5315 -8.0959 -13.7375 2.7787 41.6944 1.5902
# 6 6.6452 -4.3913 -0.3372 9.6542 1.5902 34.5622
#
#
#
# Elastic Compliance Matrix: (Units=1/GPa)
#
#
# Indices 1 2 3 4 5 6 
#
# 1 0.025566 0.001016 -0.007145 -0.000066 0.002041 -0.004931
# 2 0.001016 0.008405 -0.004177 -0.000565 0.000416 0.000971
# 3 -0.007145 -0.004177 0.015280 -0.008094 0.003526 0.003091
# 4 -0.000066 -0.000565 -0.008094 0.031776 -0.004569 -0.008804
# 5 0.002041 0.000416 0.003526 -0.004569 0.025859 -0.000219
# 6 -0.004931 0.000971 0.003091 -0.008804 -0.000219 0.032504
#
#
# Mechanical properties :
#
#
# Convention : Reuss Voigt Hill
#
# Bulk Modulus (GPa) = 34.91519 55.27246 45.09382
# Shear Modulus (GPa) = 29.49028 37.88967 33.68997
#
# Velocity S-wave (km/s) = 3.44638 3.90646 3.68361
# Velocity P-wave (km/s) = 5.46801 6.52755 6.02113
#
# Compressibility (1/GPa) = 0.02864083
#
# Stress axis : x y z
#
# Youngs Moduli (GPa) = 39.11477 118.97260 65.44449
#
# Poissons Ratio (x) = -0.12091 0.46758
# Poissons Ratio (y) = -0.03975 0.27335
# Poissons Ratio (z) = 0.27946 0.49692
#
# Static dielectric constant tensor:
#      x y z
#    x 2.015420 0.031580 0.042540 
#    y 0.031580 2.040540 0.049200 
#    z 0.042540 0.049200 1.995830 
# 
# From -- ./inp_files/5816.got.cif
#   From: 2010.05.17/outbox.cif.g08.bks.cpg/sg1_3_cif.got.tgz:5816.got - 2010.05.17 20:27:59.
