data_PCOD9000351
_publ_section_title
;
Structure prediction by ZEFSAII (Michael W. Deem and Ramdas Pophale) SiO2 
 PCOD9000351
Probable space group: P 1
;
_chemical_formula_sum "Si O2"
_cell_formula_units_Z 8
_cell_length_a 7.134178
_cell_length_b 8.735640
_cell_length_c 10.827924
_cell_angle_alpha 47.838879
_cell_angle_beta 137.756729
_cell_angle_gamma 124.875250
_cell_volume 332.463678
_symmetry_space_group_name_H-M "P 1"
_symmetry_group_IT_number 1
_symmetry_cell_setting 'triclinic'
loop_
_space_group_symop_operation_xyz
x,y,z
loop_
_atom_site_type_symbol
_atom_site_label
_atom_site_fract_x
_atom_site_fract_y
_atom_site_fract_z
Si Si1 0.818230 0.256410 0.439040
Si Si2 0.506574 0.728555 0.817418
Si Si3 0.144339 0.150281 0.145527
Si Si4 0.499660 0.766383 0.283223
Si Si5 0.059646 0.931480 0.586236
Si Si6 0.180098 0.684785 0.431561
Si Si7 0.046248 0.022448 0.902925
Si Si8 0.224831 0.579603 0.008965
O O1 0.484530 0.190799 0.301050
O O2 0.934303 0.495982 0.388869
O O3 0.967891 0.150423 0.457126
O O4 0.927720 0.141555 0.671334
O O5 0.370015 0.650300 0.662861
O O6 0.838590 0.801138 0.935915
O O7 0.401229 0.585702 0.961366
O O8 0.364088 0.935412 0.670992
O O9 0.068119 0.906761 0.273524
O O10 0.048010 0.348693 0.058174
O O11 0.041092 0.153593 0.953506
O O12 0.827976 0.810240 0.447973
O O13 0.365309 0.701945 0.386865
O O14 0.404287 0.621120 0.198650
O O15 0.363454 0.973852 0.071092
O O16 0.065526 0.777234 0.792068
#
# Coordination Sequence:
#
# PCOD9000351 Si02
#       8
#     1   1   1   1   1   1   1   1
#     4  12  23  47  73 102 149 188 230 299 354 419
#     4  10  23  44  73 105 143 180 239 292 357 409
#     4  11  25  42  72 104 142 185 240 280 357 421
#     4  11  23  44  75 100 147 183 239 286 356 426
#     4  10  23  46  69 105 145 177 238 295 352 410
#     4  11  25  43  72 106 138 192 234 284 354 424
#     4  11  21  44  71 103 143 188 232 292 350 431
#     4  10  25  44  71 103 145 183 230 298 350 414
#
# _framework density 24.062777000000001
#
# number of rings (size 3 to 8) (size 9 to 14) (size 15 to 20)
#    0.750    0.500    5.000    0.750    5.250    1.000 
#    2.250    0.000    0.000    0.000    0.000    0.000 
#    0.000    0.000    0.000    0.000    0.000    0.000 
#
# Total GULP energy -44669.795352 kJ/mol
# GULP energy per Si atom -5583.724419 kJ/mol
# Density = 2.400801 g / cm^3
# Si number density = 24.062777 Si / 1000 Ang^3
#
#
#
# Elastic Constant Matrix: (Units=GPa)
#
#
# Indices 1 2 3 4 5 6 
#
# 1 62.2033 8.0827 26.7888 -0.5351 -19.7830 -4.1079
# 2 8.0827 152.6378 29.3743 2.3001 -14.0094 -13.7252
# 3 26.7888 29.3743 112.2067 26.8446 -18.7414 -4.3271
# 4 -0.5351 2.3001 26.8446 45.3636 -11.0162 -7.4518
# 5 -19.7830 -14.0094 -18.7414 -11.0162 44.1634 9.8580
# 6 -4.1079 -13.7252 -4.3271 -7.4518 9.8580 27.7019
#
#
#
# Elastic Compliance Matrix: (Units=1/GPa)
#
#
# Indices 1 2 3 4 5 6 
#
# 1 0.021004 0.000655 -0.005009 0.005444 0.008613 0.001056
# 2 0.000655 0.007335 -0.002142 0.001800 0.001406 0.003381
# 3 -0.005009 -0.002142 0.012547 -0.007491 0.001029 -0.002226
# 4 0.005444 0.001800 -0.007491 0.028848 0.005623 0.006288
# 5 0.008613 0.001406 0.001029 0.005623 0.030386 -0.007166
# 6 0.001056 0.003381 -0.002226 0.006288 -0.007166 0.041824
#
#
# Mechanical properties :
#
#
# Convention : Reuss Voigt Hill
#
# Bulk Modulus (GPa) = 35.85002 50.61548 43.23275
# Shear Modulus (GPa) = 30.44400 40.96592 35.70496
#
# Velocity S-wave (km/s) = 3.56081 4.13056 3.85622
# Velocity P-wave (km/s) = 5.64240 6.62036 6.15085
#
# Compressibility (1/GPa) = 0.02789399
#
# Stress axis : x y z
#
# Youngs Moduli (GPa) = 47.60912 136.33490 79.69954
#
# Poissons Ratio (x) = -0.08933 0.39924
# Poissons Ratio (y) = -0.03120 0.17073
# Poissons Ratio (z) = 0.23849 0.29205
#
# Static dielectric constant tensor:
#      x y z
#    x 1.971900 -0.035570 -0.020970 
#    y -0.035570 1.909020 -0.061530 
#    z -0.020970 -0.061530 1.913370 
# 
# From -- ./inp_files/4321.got.cif
#   From: 2010.05.17/outbox.cif.g08.bks.cpg/sg1_3_cif.got.tgz:4321.got - 2010.05.17 20:27:59.
