data_PCOD9000853
_publ_section_title
;
Structure prediction by ZEFSAII (Michael W. Deem and Ramdas Pophale) SiO2 
 PCOD9000853
Probable space group: P 1
;
_chemical_formula_sum "Si O2"
_cell_formula_units_Z 8
_cell_length_a 12.247126
_cell_length_b 9.039103
_cell_length_c 8.471804
_cell_angle_alpha 45.929805
_cell_angle_beta 145.848947
_cell_angle_gamma 146.052826
_cell_volume 293.884545
_symmetry_space_group_name_H-M "P 1"
_symmetry_group_IT_number 1
_symmetry_cell_setting 'triclinic'
loop_
_space_group_symop_operation_xyz
x,y,z
loop_
_atom_site_type_symbol
_atom_site_label
_atom_site_fract_x
_atom_site_fract_y
_atom_site_fract_z
Si Si1 0.755990 0.045370 0.251640
Si Si2 0.545827 0.541890 0.170551
Si Si3 0.713142 0.275499 0.749375
Si Si4 0.041851 0.886152 0.302021
Si Si5 0.153529 0.789805 0.006274
Si Si6 0.294409 0.247499 0.631936
Si Si7 0.788053 0.837918 0.731817
Si Si8 0.338354 0.731052 0.594556
O O1 0.040442 0.189782 0.431034
O O2 0.591544 0.751423 0.198666
O O3 0.736763 0.008578 0.442910
O O4 0.684517 0.203893 0.955052
O O5 0.535672 0.324618 0.417029
O O6 0.341662 0.501486 0.837026
O O7 0.791432 0.672990 0.259794
O O8 0.161922 0.755956 0.474589
O O9 0.999876 0.541991 0.885263
O O10 0.216894 0.120435 0.460035
O O11 0.962474 0.968271 0.995486
O O12 0.271611 0.746122 0.325258
O O13 0.936485 0.786674 0.827267
O O14 0.323777 0.065574 0.912711
O O15 0.534932 0.552033 0.688759
O O16 0.621500 0.004294 0.760334
#
# Coordination Sequence:
#
# PCOD9000853 Si02
#       8
#     1   1   1   1   1   1   1   1
#     4   9  21  41  64  98 129 176 219 265 332 391
#     4  10  21  44  65  94 136 167 220 270 323 396
#     4  11  20  43  69  87 136 177 207 275 331 377
#     4  10  21  40  66  99 127 169 223 265 326 393
#     4  10  21  41  64  96 135 169 223 267 325 401
#     4  10  20  39  68  94 132 175 213 273 328 387
#     4  10  20  39  64  96 132 165 225 270 316 401
#     4  10  24  41  66  98 131 178 216 267 339 382
#
# _framework density 27.221572999999999
#
# number of rings (size 3 to 8) (size 9 to 14) (size 15 to 20)
#    0.000    2.000    3.750    0.750    1.750    1.000 
#    9.000    5.000    2.750    0.000    0.000    0.000 
#    0.000    0.000    0.000    0.000    0.000    0.000 
#
# Total GULP energy -44828.579748 kJ/mol
# GULP energy per Si atom -5603.572469 kJ/mol
# Density = 2.715962 g / cm^3
# Si number density = 27.221573 Si / 1000 Ang^3
#
#
#
# Elastic Constant Matrix: (Units=GPa)
#
#
# Indices 1 2 3 4 5 6 
#
# 1 88.7032 21.2533 53.5132 -2.3015 3.2217 15.7639
# 2 21.2533 103.9433 72.6140 -16.7227 -4.2422 6.8994
# 3 53.5132 72.6140 275.7246 -33.1788 -29.6367 2.8690
# 4 -2.3015 -16.7227 -33.1788 60.3716 -0.6564 -7.8677
# 5 3.2217 -4.2422 -29.6367 -0.6564 41.2132 -0.0235
# 6 15.7639 6.8994 2.8690 -7.8677 -0.0235 35.4078
#
#
#
# Elastic Compliance Matrix: (Units=1/GPa)
#
#
# Indices 1 2 3 4 5 6 
#
# 1 0.014668 -0.000828 -0.003229 -0.002348 -0.003595 -0.006631
# 2 -0.000828 0.012139 -0.002919 0.001533 -0.000761 -0.001420
# 3 -0.003229 -0.002919 0.005751 0.002549 0.004129 0.002109
# 4 -0.002348 0.001533 0.002549 0.018946 0.002479 0.004752
# 5 -0.003595 -0.000761 0.004129 0.002479 0.027477 0.001983
# 6 -0.006631 -0.001420 0.002109 0.004752 0.001983 0.032358
#
#
# Mechanical properties :
#
#
# Convention : Reuss Voigt Hill
#
# Bulk Modulus (GPa) = 53.74357 84.79246 69.26802
# Shear Modulus (GPa) = 38.02561 48.79790 43.41175
#
# Velocity S-wave (km/s) = 3.74156 4.23853 3.99777
# Velocity P-wave (km/s) = 6.20093 7.42766 6.84184
#
# Compressibility (1/GPa) = 0.01860688
#
# Stress axis : x y z
#
# Youngs Moduli (GPa) = 68.17627 82.38081 173.89401
#
# Poissons Ratio (x) = 0.06820 0.56144
# Poissons Ratio (y) = 0.05644 0.50753
# Poissons Ratio (z) = 0.22012 0.24044
#
# Static dielectric constant tensor:
#      x y z
#    x 2.161110 0.003600 0.009660 
#    y 0.003600 2.111110 0.003740 
#    z 0.009660 0.003740 2.139320 
# 
# From -- ./inp_files/4100.got.cif
#   From: 2010.05.17/outbox.cif.g08.bks.cpg/sg1_3_cif.got.tgz:4100.got - 2010.05.17 20:27:59.
