data_PCOD9000419
_publ_section_title
;
Structure prediction by ZEFSAII (Michael W. Deem and Ramdas Pophale) SiO2 
 PCOD9000419
Probable space group: P 1
;
_chemical_formula_sum "Si O2"
_cell_formula_units_Z 8
_cell_length_a 9.276431
_cell_length_b 7.297736
_cell_length_c 7.681642
_cell_angle_alpha 122.546117
_cell_angle_beta 49.407620
_cell_angle_gamma 133.106758
_cell_volume 284.182643
_symmetry_space_group_name_H-M "P 1"
_symmetry_group_IT_number 1
_symmetry_cell_setting 'triclinic'
loop_
_space_group_symop_operation_xyz
x,y,z
loop_
_atom_site_type_symbol
_atom_site_label
_atom_site_fract_x
_atom_site_fract_y
_atom_site_fract_z
Si Si1 0.067240 0.303830 0.954020
Si Si2 0.536021 0.371876 0.096024
Si Si3 0.862100 0.791686 0.277871
Si Si4 0.721183 0.613023 0.725545
Si Si5 0.571781 0.087026 0.387328
Si Si6 0.823377 0.108981 0.710526
Si Si7 0.145755 0.869149 0.760988
Si Si8 0.228170 0.859691 0.220283
O O1 0.032657 0.272932 0.756287
O O2 0.174710 0.144231 0.847565
O O3 0.207960 0.597813 0.045031
O O4 0.814021 0.152240 0.159280
O O5 0.570239 0.537142 0.984068
O O6 0.688407 0.248464 0.888842
O O7 0.624050 0.558546 0.288081
O O8 0.305119 0.114477 0.173678
O O9 0.964675 0.757346 0.358071
O O10 0.856801 0.043438 0.454290
O O11 0.012764 0.783173 0.001587
O O12 0.630704 0.352676 0.560727
O O13 0.698828 0.835734 0.766007
O O14 0.965042 0.704262 0.669106
O O15 0.381636 0.886795 0.572844
O O16 0.401406 0.988798 0.306844
#
# Coordination Sequence:
#
# PCOD9000419 Si02
#       8
#     1   1   1   1   1   1   1   1
#     4  11  24  43  69 109 141 191 248 288 368 449
#     4  11  24  45  72 104 146 188 239 304 362 434
#     4  11  24  48  69 105 145 183 252 303 355 444
#     4  10  24  44  71 104 145 187 242 301 357 435
#     4  12  23  43  73 104 146 192 238 304 366 428
#     4  11  22  46  71 101 142 189 235 299 363 427
#     4  10  25  44  72 102 143 194 236 307 367 423
#     4  12  22  43  69 103 144 190 236 298 368 428
#
# _framework density 28.150907
#
# number of rings (size 3 to 8) (size 9 to 14) (size 15 to 20)
#    0.000    1.000    2.500    4.500    3.500    0.000 
#    2.250    0.000    0.000    0.000    0.000    0.000 
#    0.000    0.000    0.000    0.000    0.000    0.000 
#
# Total GULP energy -44693.063334 kJ/mol
# GULP energy per Si atom -5586.632917 kJ/mol
# Density = 2.808683 g / cm^3
# Si number density = 28.150907 Si / 1000 Ang^3
#
#
#
# Elastic Constant Matrix: (Units=GPa)
#
#
# Indices 1 2 3 4 5 6 
#
# 1 106.2386 46.0961 44.0370 12.5400 2.0468 25.9963
# 2 46.0961 150.7852 50.5322 20.7653 1.8530 28.4964
# 3 44.0370 50.5322 135.2192 27.1710 7.8965 25.4248
# 4 12.5400 20.7653 27.1710 61.7397 19.0067 4.1866
# 5 2.0468 1.8530 7.8965 19.0067 52.1342 1.0562
# 6 25.9963 28.4964 25.4248 4.1866 1.0562 60.0888
#
#
#
# Elastic Compliance Matrix: (Units=1/GPa)
#
#
# Indices 1 2 3 4 5 6 
#
# 1 0.012238 -0.002254 -0.002463 -0.000497 0.000218 -0.003152
# 2 -0.002254 0.008555 -0.001737 -0.001725 0.000722 -0.002239
# 3 -0.002463 -0.001737 0.009861 -0.003060 -0.000178 -0.002066
# 4 -0.000497 -0.001725 -0.003060 0.020268 -0.006866 0.001036
# 5 0.000218 0.000722 -0.000178 -0.006866 0.021682 -0.000264
# 6 -0.003152 -0.002239 -0.002066 0.001036 -0.000264 0.019875
#
#
# Mechanical properties :
#
#
# Convention : Reuss Voigt Hill
#
# Bulk Modulus (GPa) = 56.35733 74.84152 65.59943
# Shear Modulus (GPa) = 44.92225 51.56438 48.24331
#
# Velocity S-wave (km/s) = 3.99904 4.28449 4.14422
# Velocity P-wave (km/s) = 6.43321 7.14978 6.80094
#
# Compressibility (1/GPa) = 0.01774392
#
# Stress axis : x y z
#
# Youngs Moduli (GPa) = 81.71478 116.88689 101.41277
#
# Poissons Ratio (x) = 0.26348 0.24981
# Poissons Ratio (y) = 0.18420 0.17620
# Poissons Ratio (z) = 0.20128 0.20308
#
# Static dielectric constant tensor:
#      x y z
#    x 2.208520 -0.017710 0.044220 
#    y -0.017710 2.270740 -0.219520 
#    z 0.044220 -0.219520 2.470540 
# 
# From -- ./inp_files/5418.got.cif
#   From: 2010.05.17/outbox.cif.g08.bks.cpg/sg1_3_cif.got.tgz:5418.got - 2010.05.17 20:27:59.
