data_PCOD9000787
_publ_section_title
;
Structure prediction by ZEFSAII (Michael W. Deem and Ramdas Pophale) SiO2 
 PCOD9000787
Probable space group: P 1
;
_chemical_formula_sum "Si O2"
_cell_formula_units_Z 8
_cell_length_a 7.740880
_cell_length_b 11.867775
_cell_length_c 7.389133
_cell_angle_alpha 129.476808
_cell_angle_beta 120.383828
_cell_angle_gamma 34.521629
_cell_volume 296.689032
_symmetry_space_group_name_H-M "P 1"
_symmetry_group_IT_number 1
_symmetry_cell_setting 'triclinic'
loop_
_space_group_symop_operation_xyz
x,y,z
loop_
_atom_site_type_symbol
_atom_site_label
_atom_site_fract_x
_atom_site_fract_y
_atom_site_fract_z
Si Si1 0.363420 0.326710 0.343410
Si Si2 0.045718 0.743117 0.346513
Si Si3 0.046654 0.251518 0.902165
Si Si4 0.478082 0.756261 0.471924
Si Si5 0.466219 0.901093 0.234616
Si Si6 0.628113 0.230016 0.758933
Si Si7 0.960527 0.374828 0.592715
Si Si8 0.820877 0.143105 0.144155
O O1 0.193440 0.270256 0.151643
O O2 0.394831 0.352391 0.594640
O O3 0.704434 0.111573 0.218374
O O4 0.202408 0.545796 0.370561
O O5 0.287477 0.708117 0.324197
O O6 0.756569 0.805152 0.183031
O O7 0.877496 0.967763 0.590004
O O8 0.772759 0.310717 0.899079
O O9 0.953207 0.396900 0.825853
O O10 0.172742 0.964575 0.075456
O O11 0.269258 0.003398 0.688199
O O12 0.767772 0.588718 0.586577
O O13 0.567164 0.754283 0.314762
O O14 0.298192 0.139344 0.469997
O O15 0.577279 0.245174 0.961571
O O16 0.793143 0.314793 0.399532
#
# Coordination Sequence:
#
# PCOD9000787 Si02
#       8
#     1   1   1   1   1   1   1   1
#     4  12  25  49  71 104 144 186 239 290 354 425
#     4  11  23  44  71 103 142 185 237 289 350 428
#     4  10  23  42  71 101 141 182 234 298 346 418
#     4  10  19  43  74 100 142 190 229 294 358 410
#     4   9  22  40  65 106 140 175 233 290 340 426
#     4  11  25  45  69 105 142 185 235 293 354 413
#     4   9  19  44  68  98 145 182 227 294 351 411
#     4  10  22  45  71  97 146 183 224 304 343 409
#
# _framework density 26.964261
#
# number of rings (size 3 to 8) (size 9 to 14) (size 15 to 20)
#    0.750    1.000    2.500    0.750    5.250    3.000 
#    6.750    0.000    0.000    0.000    0.000    0.000 
#    0.000    0.000    0.000    0.000    0.000    0.000 
#
# Total GULP energy -44658.626747 kJ/mol
# GULP energy per Si atom -5582.328343 kJ/mol
# Density = 2.690289 g / cm^3
# Si number density = 26.964261 Si / 1000 Ang^3
#
#
#
# Elastic Constant Matrix: (Units=GPa)
#
#
# Indices 1 2 3 4 5 6 
#
# 1 191.0211 56.9505 35.9200 -8.4358 9.9040 -10.9726
# 2 56.9505 143.9660 39.9515 -27.8451 -2.1839 9.4020
# 3 35.9200 39.9515 108.8874 -30.8651 18.0141 -4.1721
# 4 -8.4358 -27.8451 -30.8651 50.8439 1.8681 6.6191
# 5 9.9040 -2.1839 18.0141 1.8681 37.8229 0.2290
# 6 -10.9726 9.4020 -4.1721 6.6191 0.2290 41.5133
#
#
#
# Elastic Compliance Matrix: (Units=1/GPa)
#
#
# Indices 1 2 3 4 5 6 
#
# 1 0.006390 -0.002625 -0.001260 -0.001410 -0.001170 0.002388
# 2 -0.002625 0.009586 -0.001988 0.004018 0.002012 -0.003716
# 3 -0.001260 -0.001988 0.013418 0.007038 -0.006525 0.000380
# 4 -0.001410 0.004018 0.007038 0.026681 -0.004040 -0.004807
# 5 -0.001170 0.002012 -0.006525 -0.004040 0.030175 -0.000943
# 6 0.002388 -0.003716 0.000380 -0.004807 -0.000943 0.026371
#
#
# Mechanical properties :
#
#
# Convention : Reuss Voigt Hill
#
# Bulk Modulus (GPa) = 56.65681 78.83540 67.74611
# Shear Modulus (GPa) = 38.38827 46.77284 42.58055
#
# Velocity S-wave (km/s) = 3.77725 4.16940 3.97816
# Velocity P-wave (km/s) = 6.33095 7.24424 6.80294
#
# Compressibility (1/GPa) = 0.01765013
#
# Stress axis : x y z
#
# Youngs Moduli (GPa) = 156.49663 104.31618 74.52834
#
# Poissons Ratio (x) = 0.27378 0.09387
# Poissons Ratio (y) = 0.41074 0.14815
# Poissons Ratio (z) = 0.19711 0.20736
#
# Static dielectric constant tensor:
#      x y z
#    x 2.191550 -0.073580 -0.030850 
#    y -0.073580 2.181530 0.013340 
#    z -0.030850 0.013340 2.031450 
# 
# From -- ./inp_files/4573.got.cif
#   From: 2010.05.17/outbox.cif.g08.bks.cpg/sg1_3_cif.got.tgz:4573.got - 2010.05.17 20:27:59.
