data_PCOD9000779
_publ_section_title
;
Structure prediction by ZEFSAII (Michael W. Deem and Ramdas Pophale) SiO2 
 PCOD9000779
Probable space group: P 1
;
_chemical_formula_sum "Si O2"
_cell_formula_units_Z 8
_cell_length_a 5.057800
_cell_length_b 5.220674
_cell_length_c 13.464471
_cell_angle_alpha 64.029639
_cell_angle_beta 92.973743
_cell_angle_gamma 89.524983
_cell_volume 319.008917
_symmetry_space_group_name_H-M "P 1"
_symmetry_group_IT_number 1
_symmetry_cell_setting 'triclinic'
loop_
_space_group_symop_operation_xyz
x,y,z
loop_
_atom_site_type_symbol
_atom_site_label
_atom_site_fract_x
_atom_site_fract_y
_atom_site_fract_z
Si Si1 0.081040 0.239430 0.975320
Si Si2 0.619544 0.114939 0.259263
Si Si3 0.698259 0.921926 0.712866
Si Si4 0.566291 0.560034 0.936206
Si Si5 0.276303 0.378719 0.354982
Si Si6 0.874012 0.727551 0.171725
Si Si7 0.791789 0.119363 0.468696
Si Si8 0.244253 0.088115 0.800446
O O1 0.366489 0.323683 0.004916
O O2 0.112447 0.282634 0.850224
O O3 0.863520 0.459729 0.979197
O O4 0.978842 0.931173 0.053418
O O5 0.331924 0.187638 0.288561
O O6 0.742144 0.429424 0.192312
O O7 0.764436 0.979939 0.383279
O O8 0.669452 0.914466 0.202136
O O9 0.727760 0.937796 0.593664
O O10 0.470613 0.147470 0.713023
O O11 0.986094 0.973799 0.758185
O O12 0.587064 0.630425 0.805758
O O13 0.420496 0.858997 0.911395
O O14 0.564970 0.372299 0.410970
O O15 0.120724 0.648675 0.261975
O O16 0.082664 0.237697 0.453573
#
# Coordination Sequence:
#
# PCOD9000779 Si02
#       8
#     1   1   1   1   1   1   1   1
#     4  12  25  40  66  93 132 177 216 273 334 389
#     4   9  24  43  67 101 135 170 229 277 322 415
#     4  10  19  41  70  89 136 171 211 280 330 390
#     4  10  23  41  60  95 132 162 229 264 324 396
#     4   9  21  42  65  98 136 165 229 272 329 406
#     4  11  25  44  71  98 137 180 223 275 344 389
#     4   9  19  41  70  94 132 172 215 277 340 390
#     4  10  22  40  63  90 134 161 222 268 317 399
#
# _framework density 25.077670999999999
#
# number of rings (size 3 to 8) (size 9 to 14) (size 15 to 20)
#    1.500    0.500    1.250    1.500    3.500    3.000 
#    0.000    6.250    0.000    0.000    0.000    0.000 
#    0.000    0.000    0.000    0.000    0.000    0.000 
#
# Total GULP energy -44557.759792 kJ/mol
# GULP energy per Si atom -5569.719974 kJ/mol
# Density = 2.502059 g / cm^3
# Si number density = 25.077671 Si / 1000 Ang^3
#
#
#
# Elastic Constant Matrix: (Units=GPa)
#
#
# Indices 1 2 3 4 5 6 
#
# 1 166.0724 39.3943 35.7946 0.5470 -27.1930 -25.7137
# 2 39.3943 86.2873 26.7145 9.9719 -7.3183 -8.4568
# 3 35.7946 26.7145 117.6644 9.7682 -30.9258 -8.0520
# 4 0.5470 9.9719 9.7682 22.2128 -7.5990 -8.2075
# 5 -27.1930 -7.3183 -30.9258 -7.5990 41.9709 0.2455
# 6 -25.7137 -8.4568 -8.0520 -8.2075 0.2455 27.6273
#
#
#
# Elastic Compliance Matrix: (Units=1/GPa)
#
#
# Indices 1 2 3 4 5 6 
#
# 1 0.009508 -0.003585 -0.000285 0.007383 0.006605 0.009804
# 2 -0.003585 0.014379 -0.002473 -0.006881 -0.002874 -0.001675
# 3 -0.000285 -0.002473 0.011336 -0.000491 0.007636 0.002068
# 4 0.007383 -0.006881 -0.000491 0.061404 0.014206 0.022737
# 5 0.006605 -0.002874 0.007636 0.014206 0.035736 0.011396
# 6 0.009804 -0.001675 0.002068 0.022737 0.011396 0.052065
#
#
# Mechanical properties :
#
#
# Convention : Reuss Voigt Hill
#
# Bulk Modulus (GPa) = 44.36764 63.75898 54.06331
# Shear Modulus (GPa) = 24.43491 36.23691 30.33591
#
# Velocity S-wave (km/s) = 3.12488 3.80542 3.48182
# Velocity P-wave (km/s) = 5.54529 6.69239 6.14567
#
# Compressibility (1/GPa) = 0.02253895
#
# Stress axis : x y z
#
# Youngs Moduli (GPa) = 105.16999 69.54658 88.21405
#
# Poissons Ratio (x) = 0.24933 0.02510
# Poissons Ratio (y) = 0.37704 0.21811
# Poissons Ratio (z) = 0.02993 0.17196
#
# Static dielectric constant tensor:
#      x y z
#    x 2.017590 0.017420 0.029530 
#    y 0.017420 2.042620 -0.010910 
#    z 0.029530 -0.010910 2.004230 
# 
# From -- ./inp_files/575.got.cif
#   From: 2010.05.17/outbox.cif.g08.bks.cpg/sg1_1_cif.got.tgz:575.got - 2010.05.17 20:27:59.
