data_PCOD9000843
_publ_section_title
;
Structure prediction by ZEFSAII (Michael W. Deem and Ramdas Pophale) SiO2 
 PCOD9000843
Probable space group: P 1
;
_chemical_formula_sum "Si O2"
_cell_formula_units_Z 8
_cell_length_a 4.960849
_cell_length_b 13.766034
_cell_length_c 14.175848
_cell_angle_alpha 22.483496
_cell_angle_beta 108.389932
_cell_angle_gamma 106.077611
_cell_volume 351.023555
_symmetry_space_group_name_H-M "P 1"
_symmetry_group_IT_number 1
_symmetry_cell_setting 'triclinic'
loop_
_space_group_symop_operation_xyz
x,y,z
loop_
_atom_site_type_symbol
_atom_site_label
_atom_site_fract_x
_atom_site_fract_y
_atom_site_fract_z
Si Si1 0.397050 0.870890 0.049830
Si Si2 0.301290 0.037604 0.610691
Si Si3 0.283307 0.850238 0.573027
Si Si4 0.703731 0.606581 0.710071
Si Si5 0.543685 0.899447 0.251783
Si Si6 0.101106 0.582483 0.131364
Si Si7 0.800123 0.981351 0.843293
Si Si8 0.121963 0.141109 0.116189
O O1 0.326487 0.621057 0.206726
O O2 0.674712 0.974565 0.939840
O O3 0.125273 0.053273 0.825664
O O4 0.422690 0.832576 0.197264
O O5 0.102516 0.295099 0.354870
O O6 0.384225 0.947297 0.596713
O O7 0.578824 0.116841 0.628112
O O8 0.169554 0.797530 0.866941
O O9 0.479627 0.615795 0.763079
O O10 0.947475 0.803106 0.588384
O O11 0.290549 0.052739 0.307682
O O12 0.912818 0.373709 0.913248
O O13 0.535491 0.694132 0.518697
O O14 0.351166 0.135536 0.062305
O O15 0.879483 0.943530 0.238748
O O16 0.823866 0.700046 0.048929
#
# Coordination Sequence:
#
# PCOD9000843 Si02
#       8
#     1   1   1   1   1   1   1   1
#     4   9  19  42  62  90 129 167 207 270 319 382
#     4  11  23  44  66  98 130 178 213 271 324 385
#     4  10  24  37  64  88 126 161 211 260 319 384
#     4  10  22  42  58  94 122 161 211 265 317 381
#     4  10  20  39  61  92 123 162 210 255 319 380
#     4   9  24  42  65  95 134 166 224 264 319 388
#     4   9  21  41  60  92 129 167 211 268 309 389
#     4  10  21  39  62  89 125 158 211 263 312 387
#
# _framework density 22.790490999999999
#
# number of rings (size 3 to 8) (size 9 to 14) (size 15 to 20)
#    0.750    1.500    0.000    1.500    3.500    2.000 
#    6.750    0.000    0.000    0.000    0.000    0.000 
#    0.000    0.000    0.000    0.000    0.000    0.000 
#
# Total GULP energy -44542.594547 kJ/mol
# GULP energy per Si atom -5567.824318 kJ/mol
# Density = 2.273862 g / cm^3
# Si number density = 22.790491 Si / 1000 Ang^3
#
#
#
# Elastic Constant Matrix: (Units=GPa)
#
#
# Indices 1 2 3 4 5 6 
#
# 1 111.9018 19.3682 18.1221 2.5026 9.5705 -29.2681
# 2 19.3682 125.8742 47.4046 20.9971 -1.5873 -30.8297
# 3 18.1221 47.4046 86.2247 -7.7415 11.1824 -9.9555
# 4 2.5026 20.9971 -7.7415 27.5524 -6.4994 5.7383
# 5 9.5705 -1.5873 11.1824 -6.4994 25.0035 -5.8207
# 6 -29.2681 -30.8297 -9.9555 5.7383 -5.8207 31.4068
#
#
#
# Elastic Compliance Matrix: (Units=1/GPa)
#
#
# Indices 1 2 3 4 5 6 
#
# 1 0.014428 0.007095 -0.005544 -0.012865 -0.001094 0.020800
# 2 0.007095 0.026274 -0.015509 -0.030766 0.005851 0.034192
# 3 -0.005544 -0.015509 0.021984 0.020563 -0.007680 -0.018603
# 4 -0.012865 -0.030766 0.020563 0.077547 0.002435 -0.049389
# 5 -0.001094 0.005851 -0.007680 0.002435 0.047324 0.010615
# 6 0.020800 0.034192 -0.018603 -0.049389 0.010615 0.089882
#
#
# Mechanical properties :
#
#
# Convention : Reuss Voigt Hill
#
# Bulk Modulus (GPa) = 28.76233 54.86562 41.81398
# Shear Modulus (GPa) = 15.77558 32.73294 24.25426
#
# Velocity S-wave (km/s) = 2.63382 3.79391 3.26579
# Velocity P-wave (km/s) = 4.67943 6.58163 5.71029
#
# Compressibility (1/GPa) = 0.03476770
#
# Stress axis : x y z
#
# Youngs Moduli (GPa) = 69.31000 38.06051 45.48785
#
# Poissons Ratio (x) = -0.27003 0.25221
# Poissons Ratio (y) = -0.49174 0.70548
# Poissons Ratio (z) = 0.38429 0.59029
#
# Static dielectric constant tensor:
#      x y z
#    x 1.924590 0.003550 -0.017530 
#    y 0.003550 1.850880 -0.073060 
#    z -0.017530 -0.073060 1.925440 
# 
# From -- ./inp_files/396.got.cif
#   From: 2010.05.17/outbox.cif.g08.bks.cpg/sg1_1_cif.got.tgz:396.got - 2010.05.17 20:27:59.
