data_PCOD9000562
_publ_section_title
;
Structure prediction by ZEFSAII (Michael W. Deem and Ramdas Pophale) SiO2 
 PCOD9000562
Probable space group: P 1
;
_chemical_formula_sum "Si O2"
_cell_formula_units_Z 8
_cell_length_a 9.281541
_cell_length_b 9.099417
_cell_length_c 8.879505
_cell_angle_alpha 66.466322
_cell_angle_beta 97.538043
_cell_angle_gamma 43.103125
_cell_volume 346.748664
_symmetry_space_group_name_H-M "P 1"
_symmetry_group_IT_number 1
_symmetry_cell_setting 'triclinic'
loop_
_space_group_symop_operation_xyz
x,y,z
loop_
_atom_site_type_symbol
_atom_site_label
_atom_site_fract_x
_atom_site_fract_y
_atom_site_fract_z
Si Si1 0.004530 0.424940 0.692730
Si Si2 0.697350 0.488909 0.457477
Si Si3 0.772614 0.365216 0.843349
Si Si4 0.645557 0.250080 0.391646
Si Si5 0.737777 0.082409 0.138135
Si Si6 0.294431 0.035293 0.633783
Si Si7 0.127063 0.493641 0.242557
Si Si8 0.068290 0.640724 0.842206
O O1 0.279436 0.158787 0.731670
O O2 0.726156 0.646938 0.457250
O O3 0.020571 0.254279 0.874245
O O4 0.973482 0.609172 0.711519
O O5 0.630599 0.470391 0.616612
O O6 0.543230 0.528928 0.295057
O O7 0.024152 0.176137 0.567761
O O8 0.565958 0.670248 0.791588
O O9 0.825734 0.148900 0.019341
O O10 0.786924 0.088651 0.314513
O O11 0.388334 0.370681 0.326790
O O12 0.877794 0.978705 0.658792
O O13 0.907225 0.769824 0.223826
O O14 0.399019 0.368695 0.972134
O O15 0.229779 0.219629 0.415066
O O16 0.015461 0.610397 0.008964
#
# Coordination Sequence:
#
# PCOD9000562 Si02
#       8
#     1   1   1   1   1   1   1   1
#     4   8  21  37  60  90 122 160 209 256 309 369
#     4   8  21  37  60  90 122 160 209 256 309 369
#     4   9  19  39  63  88 126 165 208 255 314 379
#     4  11  23  42  67  92 131 171 211 266 317 379
#     4  11  25  40  65 100 127 164 220 261 319 381
#     4   9  19  39  63  88 126 165 208 255 314 379
#     4  11  25  40  65 100 127 164 220 261 319 381
#     4  11  23  42  67  92 131 171 211 266 317 379
#
# _framework density 23.071465
#
# number of rings (size 3 to 8) (size 9 to 14) (size 15 to 20)
#    1.500    0.500    0.000    3.000    0.000   11.000 
#    0.000    2.500    0.000    0.000    0.000    0.000 
#    0.000    0.000    0.000    0.000    0.000    0.000 
#
# Total GULP energy -44550.473576 kJ/mol
# GULP energy per Si atom -5568.809197 kJ/mol
# Density = 2.301895 g / cm^3
# Si number density = 23.071465 Si / 1000 Ang^3
#
#
#
# Elastic Constant Matrix: (Units=GPa)
#
#
# Indices 1 2 3 4 5 6 
#
# 1 68.4828 15.3067 20.2680 9.9031 -16.9840 9.3991
# 2 15.3067 100.1294 15.2244 11.1188 2.4757 6.5308
# 3 20.2680 15.2244 17.2838 5.7238 -9.9089 4.1092
# 4 9.9031 11.1188 5.7238 35.5628 2.8304 -1.0499
# 5 -16.9840 2.4757 -9.9089 2.8304 26.6878 6.8304
# 6 9.3991 6.5308 4.1092 -1.0499 6.8304 44.5165
#
#
#
# Elastic Compliance Matrix: (Units=1/GPa)
#
#
# Indices 1 2 3 4 5 6 
#
# 1 0.024324 -0.000061 -0.020346 -0.004389 0.009633 -0.004830
# 2 -0.000061 0.012433 -0.014436 -0.001009 -0.006574 0.000506
# 3 -0.020346 -0.014436 0.123506 -0.013095 0.038504 -0.011204
# 4 -0.004389 -0.001009 -0.013095 0.032891 -0.012316 0.004949
# 5 0.009633 -0.006574 0.038504 -0.012316 0.063567 -0.014667
# 6 -0.004830 0.000506 -0.011204 0.004949 -0.014667 0.026811
#
#
# Mechanical properties :
#
#
# Convention : Reuss Voigt Hill
#
# Bulk Modulus (GPa) = 11.04011 31.94380 21.49195
# Shear Modulus (GPa) = 13.04095 30.35989 21.70042
#
# Velocity S-wave (km/s) = 2.38006 3.63148 3.07020
# Velocity P-wave (km/s) = 3.51404 5.60885 4.68015
#
# Compressibility (1/GPa) = 0.09057880
#
# Stress axis : x y z
#
# Youngs Moduli (GPa) = 41.11194 80.43256 8.09676
#
# Poissons Ratio (x) = 0.00487 0.16473
# Poissons Ratio (y) = 0.00249 0.11688
# Poissons Ratio (z) = 0.83645 1.16110
#
# Static dielectric constant tensor:
#      x y z
#    x 1.872650 0.036080 0.014900 
#    y 0.036080 1.882440 0.012450 
#    z 0.014900 0.012450 1.942830 
# 
# From -- ./inp_files/4212.got.cif
#   From: 2010.05.17/outbox.cif.g08.bks.cpg/sg1_3_cif.got.tgz:4212.got - 2010.05.17 20:27:59.
