data_PCOD9000962
_publ_section_title
;
Structure prediction by ZEFSAII (Michael W. Deem and Ramdas Pophale) SiO2 
 PCOD9000962
Probable space group: P 1
;
_chemical_formula_sum "Si O2"
_cell_formula_units_Z 8
_cell_length_a 6.525805
_cell_length_b 11.988444
_cell_length_c 15.853399
_cell_angle_alpha 24.763266
_cell_angle_beta 126.908586
_cell_angle_gamma 132.819709
_cell_volume 380.502452
_symmetry_space_group_name_H-M "P 1"
_symmetry_group_IT_number 1
_symmetry_cell_setting 'triclinic'
loop_
_space_group_symop_operation_xyz
x,y,z
loop_
_atom_site_type_symbol
_atom_site_label
_atom_site_fract_x
_atom_site_fract_y
_atom_site_fract_z
Si Si1 0.470720 0.717760 0.112330
Si Si2 0.945258 0.618014 0.601895
Si Si3 0.808380 0.197328 0.006362
Si Si4 0.881696 0.402859 0.438822
Si Si5 0.834817 0.089517 0.813729
Si Si6 0.356688 0.130054 0.256975
Si Si7 0.492336 0.882000 0.297899
Si Si8 0.915170 0.541377 0.178010
O O1 0.624446 0.499758 0.302936
O O2 0.144158 0.560784 0.153509
O O3 0.619542 0.941323 0.071862
O O4 0.546052 0.904169 0.917477
O O5 0.961826 0.377842 0.704859
O O6 0.678204 0.692797 0.463463
O O7 0.218073 0.908164 0.451757
O O8 0.895867 0.487036 0.773279
O O9 0.624559 0.141473 0.084343
O O10 0.096053 0.168460 0.121911
O O11 0.825756 0.176551 0.655420
O O12 0.925970 0.337344 0.397999
O O13 0.169578 0.674980 0.345394
O O14 0.990861 0.870099 0.004214
O O15 0.500157 0.998957 0.313557
O O16 0.601961 0.422154 0.148361
#
# Coordination Sequence:
#
# PCOD9000962 Si02
#       8
#     1   1   1   1   1   1   1   1
#     4  10  21  38  62  98 122 166 212 262 306 375
#     4  10  23  39  69  98 123 161 221 261 305 381
#     4  10  21  39  66  92 126 164 214 257 310 374
#     4  11  21  39  65  93 126 168 211 258 309 375
#     4  10  23  39  65  96 125 163 217 261 305 376
#     4  11  24  44  61  95 134 166 204 266 321 370
#     4  11  21  37  68  97 124 165 212 261 311 372
#     4  11  26  41  64  93 136 165 205 264 325 365
#
# _framework density 21.024830000000001
#
# number of rings (size 3 to 8) (size 9 to 14) (size 15 to 20)
#    0.000    1.500    3.750    0.750    3.500    6.000 
#    0.000    0.000    0.000    0.000    0.000    0.000 
#    0.000    0.000    0.000    0.000    0.000    0.000 
#
# Total GULP energy -44636.758596 kJ/mol
# GULP energy per Si atom -5579.594824 kJ/mol
# Density = 2.097698 g / cm^3
# Si number density = 21.024830 Si / 1000 Ang^3
#
#
#
# Elastic Constant Matrix: (Units=GPa)
#
#
# Indices 1 2 3 4 5 6 
#
# 1 91.1956 19.5427 44.8093 -5.7087 -26.9206 15.5716
# 2 19.5427 56.4440 18.8091 -5.5790 -2.3389 17.0207
# 3 44.8093 18.8091 137.4000 19.7475 -40.8789 11.4926
# 4 -5.7087 -5.5790 19.7475 18.8267 -10.1154 -6.8135
# 5 -26.9206 -2.3389 -40.8789 -10.1154 42.2347 -1.7424
# 6 15.5716 17.0207 11.4926 -6.8135 -1.7424 24.7225
#
#
#
# Elastic Compliance Matrix: (Units=1/GPa)
#
#
# Indices 1 2 3 4 5 6 
#
# 1 0.017947 -0.002004 -0.004116 0.013478 0.010426 -0.003562
# 2 -0.002004 0.023391 -0.002596 0.003146 -0.002275 -0.012928
# 3 -0.004116 -0.002596 0.013483 -0.014608 0.006559 -0.005452
# 4 0.013478 0.003146 -0.014608 0.090866 0.017312 0.022398
# 5 0.010426 -0.002275 0.006559 0.017312 0.040674 -0.000412
# 6 -0.003562 -0.012928 -0.005452 0.022398 -0.000412 0.060271
#
#
# Mechanical properties :
#
#
# Convention : Reuss Voigt Hill
#
# Bulk Modulus (GPa) = 26.74631 50.15130 38.44881
# Shear Modulus (GPa) = 18.08152 30.61535 24.34844
#
# Velocity S-wave (km/s) = 2.93577 3.82010 3.40675
# Velocity P-wave (km/s) = 4.92347 6.58503 5.81392
#
# Compressibility (1/GPa) = 0.03738833
#
# Stress axis : x y z
#
# Youngs Moduli (GPa) = 55.72085 42.75190 74.16964
#
# Poissons Ratio (x) = 0.08567 0.30527
# Poissons Ratio (y) = 0.11166 0.19254
# Poissons Ratio (z) = 0.22934 0.11098
#
# Static dielectric constant tensor:
#      x y z
#    x 1.761000 -0.036750 -0.019770 
#    y -0.036750 1.756490 0.009590 
#    z -0.019770 0.009590 1.770700 
# 
# From -- ./inp_files/1614.got.cif
#   From: 2010.05.17/outbox.cif.g08.bks.cpg/sg1_1_cif.got.tgz:1614.got - 2010.05.17 20:27:59.
