data_PCOD9000891
_publ_section_title
;
Structure prediction by ZEFSAII (Michael W. Deem and Ramdas Pophale) SiO2 
 PCOD9000891
Probable space group: P 1
;
_chemical_formula_sum "Si O2"
_cell_formula_units_Z 8
_cell_length_a 11.572829
_cell_length_b 7.553148
_cell_length_c 8.052747
_cell_angle_alpha 50.901529
_cell_angle_beta 40.111932
_cell_angle_gamma 56.943139
_cell_volume 349.134787
_symmetry_space_group_name_H-M "P 1"
_symmetry_group_IT_number 1
_symmetry_cell_setting 'triclinic'
loop_
_space_group_symop_operation_xyz
x,y,z
loop_
_atom_site_type_symbol
_atom_site_label
_atom_site_fract_x
_atom_site_fract_y
_atom_site_fract_z
Si Si1 0.052620 0.678280 0.284990
Si Si2 0.495331 0.416852 0.301262
Si Si3 0.554476 0.131333 0.084909
Si Si4 0.909588 0.916083 0.977096
Si Si5 0.900427 0.394961 0.897808
Si Si6 0.199430 0.148515 0.937204
Si Si7 0.287998 0.781581 0.504834
Si Si8 0.330905 0.365474 0.960001
O O1 0.205364 0.473185 0.183816
O O2 0.929230 0.746033 0.216151
O O3 0.946728 0.598707 0.606782
O O4 0.148755 0.902136 0.088724
O O5 0.536408 0.335153 0.117689
O O6 0.383516 0.218583 0.612740
O O7 0.374260 0.661454 0.314904
O O8 0.691046 0.427303 0.161131
O O9 0.530310 0.256540 0.860247
O O10 0.725192 0.954832 0.053921
O O11 0.383550 0.990985 0.344730
O O12 0.074985 0.842494 0.716561
O O13 0.928065 0.164699 0.889856
O O14 0.039891 0.335728 0.929756
O O15 0.228134 0.183604 0.079783
O O16 0.338492 0.575151 0.702832
#
# Coordination Sequence:
#
# PCOD9000891 Si02
#       8
#     1   1   1   1   1   1   1   1
#     4  10  20  41  70  92 122 171 212 255 319 374
#     4  10  22  40  65  93 126 164 208 261 315 369
#     4  11  22  40  62  92 129 163 204 260 315 371
#     4   9  21  40  65  95 128 164 210 262 312 373
#     4  10  21  41  66  96 129 165 210 264 318 371
#     4  10  22  42  64  91 131 165 208 265 311 371
#     4  10  22  42  63  89 125 167 211 256 312 372
#     4  10  22  38  63  94 122 165 213 253 310 375
#
# _framework density 22.913788
#
# number of rings (size 3 to 8) (size 9 to 14) (size 15 to 20)
#    0.000    2.000    0.000    3.750    0.000    8.000 
#    0.000   21.250    0.000    3.000    0.000    0.000 
#    0.000    0.000    0.000    0.000    0.000    0.000 
#
# Total GULP energy -44691.647112 kJ/mol
# GULP energy per Si atom -5586.455889 kJ/mol
# Density = 2.286164 g / cm^3
# Si number density = 22.913788 Si / 1000 Ang^3
#
#
#
# Elastic Constant Matrix: (Units=GPa)
#
#
# Indices 1 2 3 4 5 6 
#
# 1 151.6136 53.2289 39.0529 16.1678 -10.0374 -34.4075
# 2 53.2289 110.0955 24.5640 12.9070 -5.6359 -10.9676
# 3 39.0529 24.5640 69.8532 3.7302 -17.0391 -19.6059
# 4 16.1678 12.9070 3.7302 33.4565 -2.3727 -2.0324
# 5 -10.0374 -5.6359 -17.0391 -2.3727 17.6348 -0.9498
# 6 -34.4075 -10.9676 -19.6059 -2.0324 -0.9498 47.5047
#
#
#
# Elastic Compliance Matrix: (Units=1/GPa)
#
#
# Indices 1 2 3 4 5 6 
#
# 1 0.010053 -0.003379 -0.002103 -0.002803 0.002533 0.005564
# 2 -0.003379 0.011437 -0.002549 -0.002636 -0.001139 -0.000994
# 3 -0.002103 -0.002549 0.023938 0.001375 0.021748 0.008261
# 4 -0.002803 -0.002636 0.001375 0.032297 0.003203 -0.000625
# 5 0.002533 -0.001139 0.021748 0.003203 0.079889 0.012281
# 6 0.005564 -0.000994 0.008261 -0.000625 0.012281 0.028479
#
#
# Mechanical properties :
#
#
# Convention : Reuss Voigt Hill
#
# Bulk Modulus (GPa) = 34.05247 62.80598 48.42923
# Shear Modulus (GPa) = 23.59117 34.03363 28.81240
#
# Velocity S-wave (km/s) = 3.21216 3.85813 3.54987
# Velocity P-wave (km/s) = 5.35263 6.87867 6.16307
#
# Compressibility (1/GPa) = 0.02936644
#
# Stress axis : x y z
#
# Youngs Moduli (GPa) = 99.47444 87.43567 41.77435
#
# Poissons Ratio (x) = 0.29541 0.08785
# Poissons Ratio (y) = 0.33609 0.10649
# Poissons Ratio (z) = 0.20920 0.22288
#
# Static dielectric constant tensor:
#      x y z
#    x 1.899930 -0.006210 0.037750 
#    y -0.006210 1.901060 -0.008460 
#    z 0.037750 -0.008460 1.872290 
# 
# From -- ./inp_files/4818.got.cif
#   From: 2010.05.17/outbox.cif.g08.bks.cpg/sg1_3_cif.got.tgz:4818.got - 2010.05.17 20:27:59.
