data_PCOD9000670
_publ_section_title
;
Structure prediction by ZEFSAII (Michael W. Deem and Ramdas Pophale) SiO2 
 PCOD9000670
Probable space group: P 1
;
_chemical_formula_sum "Si O2"
_cell_formula_units_Z 8
_cell_length_a 8.616708
_cell_length_b 7.472491
_cell_length_c 13.827931
_cell_angle_alpha 132.628909
_cell_angle_beta 150.560269
_cell_angle_gamma 50.664283
_cell_volume 319.579789
_symmetry_space_group_name_H-M "P 1"
_symmetry_group_IT_number 1
_symmetry_cell_setting 'triclinic'
loop_
_space_group_symop_operation_xyz
x,y,z
loop_
_atom_site_type_symbol
_atom_site_label
_atom_site_fract_x
_atom_site_fract_y
_atom_site_fract_z
Si Si1 0.034650 0.195720 0.150070
Si Si2 0.461015 0.212512 0.567823
Si Si3 0.604631 0.595941 0.945577
Si Si4 0.069600 0.485814 0.724865
Si Si5 0.444993 0.957137 0.755203
Si Si6 0.108404 0.862296 0.372374
Si Si7 0.133767 0.226031 0.854963
Si Si8 0.524177 0.242511 0.264071
O O1 0.179105 0.243074 0.348973
O O2 0.307036 0.170978 0.207801
O O3 0.791838 0.426851 0.069356
O O4 0.815137 0.976778 0.953072
O O5 0.792371 0.152852 0.670472
O O6 0.365915 0.000192 0.507404
O O7 0.508355 0.444819 0.745584
O O8 0.916949 0.725955 0.138214
O O9 0.269600 0.677134 0.850224
O O10 0.262127 0.214810 0.707148
O O11 0.081663 0.454754 0.835559
O O12 0.720749 0.462984 0.485125
O O13 0.332978 0.999768 0.821039
O O14 0.302381 0.761350 0.537625
O O15 0.790310 0.019528 0.300300
O O16 0.320436 0.290712 0.074441
#
# Coordination Sequence:
#
# PCOD9000670 Si02
#       8
#     1   1   1   1   1   1   1   1
#     4  11  20  38  69  83 121 164 199 244 304 353
#     4  12  20  40  64  88 123 161 201 242 302 362
#     4  11  23  41  60  92 122 159 197 256 295 355
#     4   8  18  35  55  85 114 152 197 234 296 342
#     4   8  17  36  58  86 111 160 189 240 295 349
#     4  11  22  40  63  88 130 151 201 251 300 355
#     4  10  18  34  67  85 112 162 201 236 298 357
#     4  11  18  36  64  87 113 165 191 245 302 351
#
# _framework density 25.032871
#
# number of rings (size 3 to 8) (size 9 to 14) (size 15 to 20)
#    0.750    1.000    6.250    0.750    0.000    0.000 
#    4.500    5.000    0.000    0.000    0.000    0.000 
#    0.000    0.000    0.000    0.000    0.000    0.000 
#
# Total GULP energy -44591.958320 kJ/mol
# GULP energy per Si atom -5573.994790 kJ/mol
# Density = 2.497590 g / cm^3
# Si number density = 25.032871 Si / 1000 Ang^3
#
#
#
# Elastic Constant Matrix: (Units=GPa)
#
#
# Indices 1 2 3 4 5 6 
#
# 1 140.7221 3.5236 64.2145 2.4532 11.6271 10.5555
# 2 3.5236 27.8247 8.9738 0.3227 -6.4501 -5.9733
# 3 64.2145 8.9738 211.7608 -10.4233 -11.7530 6.6898
# 4 2.4532 0.3227 -10.4233 31.2955 13.0710 -3.1352
# 5 11.6271 -6.4501 -11.7530 13.0710 64.5208 -10.4039
# 6 10.5555 -5.9733 6.6898 -3.1352 -10.4039 21.3340
#
#
#
# Elastic Compliance Matrix: (Units=1/GPa)
#
#
# Indices 1 2 3 4 5 6 
#
# 1 0.009117 -0.002286 -0.002697 -0.000872 -0.003149 -0.005969
# 2 -0.002286 0.041979 -0.001301 -0.002149 0.007488 0.016629
# 3 -0.002697 -0.001301 0.005739 0.001692 0.001047 -0.000070
# 4 -0.000872 -0.002149 0.001692 0.035551 -0.006753 0.001231
# 5 -0.003149 0.007488 0.001047 -0.006753 0.020350 0.012258
# 6 -0.005969 0.016629 -0.000070 0.001231 0.012258 0.060663
#
#
# Mechanical properties :
#
#
# Convention : Reuss Voigt Hill
#
# Bulk Modulus (GPa) = 22.59028 59.30349 40.94689
# Shear Modulus (GPa) = 24.90989 43.66977 34.28983
#
# Velocity S-wave (km/s) = 3.15792 4.18125 3.70509
# Velocity P-wave (km/s) = 4.72657 6.85946 5.89036
#
# Compressibility (1/GPa) = 0.04426683
#
# Stress axis : x y z
#
# Youngs Moduli (GPa) = 109.68286 23.82149 174.24960
#
# Poissons Ratio (x) = 0.05445 0.46994
# Poissons Ratio (y) = 0.25072 0.22675
# Poissons Ratio (z) = 0.29581 0.03100
#
# Static dielectric constant tensor:
#      x y z
#    x 1.980010 0.016190 0.015090 
#    y 0.016190 2.201870 0.187680 
#    z 0.015090 0.187680 2.165600 
# 
# From -- ./inp_files/7130.got.cif
#   From: 2010.05.17/outbox.cif.g08.bks.cpg/sg1_4_cif.got.tgz:7130.got - 2010.05.17 20:27:59.
