data_PCOD9000284
_publ_section_title
;
Structure prediction by ZEFSAII (Michael W. Deem and Ramdas Pophale) SiO2 
 PCOD9000284
Probable space group: P 1
;
_chemical_formula_sum "Si O2"
_cell_formula_units_Z 8
_cell_length_a 7.451861
_cell_length_b 10.064252
_cell_length_c 4.981958
_cell_angle_alpha 115.333247
_cell_angle_beta 65.619972
_cell_angle_gamma 83.709035
_cell_volume 288.402853
_symmetry_space_group_name_H-M "P 1"
_symmetry_group_IT_number 1
_symmetry_cell_setting 'triclinic'
loop_
_space_group_symop_operation_xyz
x,y,z
loop_
_atom_site_type_symbol
_atom_site_label
_atom_site_fract_x
_atom_site_fract_y
_atom_site_fract_z
Si Si1 0.006030 0.569240 0.725670
Si Si2 0.955303 0.005655 0.936304
Si Si3 0.277715 0.250171 0.381312
Si Si4 0.479069 0.433994 0.776142
Si Si5 0.163820 0.758763 0.201857
Si Si6 0.393687 0.928187 0.855562
Si Si7 0.721195 0.601582 0.419446
Si Si8 0.839420 0.192048 0.668774
O O1 0.981773 0.859110 0.599534
O O2 0.191453 0.407757 0.393211
O O3 0.842274 0.617096 0.628613
O O4 0.088057 0.697948 0.922605
O O5 0.200933 0.981301 0.812703
O O6 0.851783 0.049259 0.330192
O O7 0.835970 0.151965 0.947037
O O8 0.370404 0.314789 0.629648
O O9 0.068311 0.207625 0.511747
O O10 0.439309 0.086019 0.030110
O O11 0.585375 0.499000 0.519513
O O12 0.654538 0.339841 0.796031
O O13 0.310497 0.600283 0.117461
O O14 0.299448 0.862525 0.111508
O O15 0.583026 0.771145 0.530482
O O16 0.891225 0.527618 0.021800
#
# Coordination Sequence:
#
# PCOD9000284 Si02
#       8
#     1   1   1   1   1   1   1   1
#     4  11  26  44  70 103 141 183 231 286 347 411
#     4  11  23  43  70  98 138 186 221 286 343 405
#     4  10  22  47  69 105 136 188 224 286 346 412
#     4  10  24  45  73 104 140 183 232 287 346 411
#     4  10  23  46  71 104 138 184 231 285 349 412
#     4  10  24  44  73  98 145 178 234 286 346 411
#     4  11  26  45  69 103 142 180 233 288 343 412
#     4  11  24  44  71  99 144 178 232 282 342 412
#
# _framework density 27.738980000000002
#
# number of rings (size 3 to 8) (size 9 to 14) (size 15 to 20)
#    0.000    1.500    3.750    0.000    7.000    2.000 
#    2.250    6.250    0.000    0.000    0.000    0.000 
#    0.000    0.000    0.000    0.000    0.000    0.000 
#
# Total GULP energy -44804.117093 kJ/mol
# GULP energy per Si atom -5600.514637 kJ/mol
# Density = 2.767584 g / cm^3
# Si number density = 27.738980 Si / 1000 Ang^3
#
#
#
# Elastic Constant Matrix: (Units=GPa)
#
#
# Indices 1 2 3 4 5 6 
#
# 1 125.2065 46.2546 24.9569 7.1982 17.8618 -25.9412
# 2 46.2546 141.4644 63.9376 22.0626 10.3251 -27.4259
# 3 24.9569 63.9376 143.9367 22.5445 18.2495 -8.0365
# 4 7.1982 22.0626 22.5445 65.0496 -6.3203 0.0507
# 5 17.8618 10.3251 18.2495 -6.3203 37.3429 4.9179
# 6 -25.9412 -27.4259 -8.0365 0.0507 4.9179 52.5803
#
#
#
# Elastic Compliance Matrix: (Units=1/GPa)
#
#
# Indices 1 2 3 4 5 6 
#
# 1 0.010491 -0.002071 0.000199 -0.001049 -0.005330 0.004626
# 2 -0.002071 0.010601 -0.003642 -0.002211 -0.001069 0.004053
# 3 0.000199 -0.003642 0.009440 -0.002459 -0.004122 0.000030
# 4 -0.001049 -0.002211 -0.002459 0.017641 0.005642 -0.002591
# 5 -0.005330 -0.001069 -0.004122 0.005642 0.033509 -0.006956
# 6 0.004626 0.004053 0.000030 -0.002591 -0.006956 0.024072
#
#
# Mechanical properties :
#
#
# Convention : Reuss Voigt Hill
#
# Bulk Modulus (GPa) = 51.26909 75.65620 63.46264
# Shear Modulus (GPa) = 40.55713 49.35846 44.95780
#
# Velocity S-wave (km/s) = 3.82789 4.22286 4.03021
# Velocity P-wave (km/s) = 6.16926 7.14914 6.67720
#
# Compressibility (1/GPa) = 0.01950493
#
# Stress axis : x y z
#
# Youngs Moduli (GPa) = 95.31827 94.33453 105.93204
#
# Poissons Ratio (x) = 0.19536 -0.02110
# Poissons Ratio (y) = 0.19740 0.38577
# Poissons Ratio (z) = -0.01899 0.34353
#
# Static dielectric constant tensor:
#      x y z
#    x 2.149890 0.045080 -0.006650 
#    y 0.045080 2.202900 0.070140 
#    z -0.006650 0.070140 2.212970 
# 
# From -- ./inp_files/1333.got.cif
#   From: 2010.05.17/outbox.cif.g08.bks.cpg/sg1_1_cif.got.tgz:1333.got - 2010.05.17 20:27:59.
