data_PCOD9000481
_publ_section_title
;
Structure prediction by ZEFSAII (Michael W. Deem and Ramdas Pophale) SiO2 
 PCOD9000481
Probable space group: P 1
;
_chemical_formula_sum "Si O2"
_cell_formula_units_Z 8
_cell_length_a 15.112576
_cell_length_b 11.419308
_cell_length_c 4.921289
_cell_angle_alpha 127.941224
_cell_angle_beta 60.811567
_cell_angle_gamma 151.385424
_cell_volume 317.708191
_symmetry_space_group_name_H-M "P 1"
_symmetry_group_IT_number 1
_symmetry_cell_setting 'triclinic'
loop_
_space_group_symop_operation_xyz
x,y,z
loop_
_atom_site_type_symbol
_atom_site_label
_atom_site_fract_x
_atom_site_fract_y
_atom_site_fract_z
Si Si1 0.371670 0.144430 0.715080
Si Si2 0.304002 0.560966 0.995357
Si Si3 0.270536 0.189638 0.407803
Si Si4 0.900280 0.792675 0.051078
Si Si5 0.727549 0.443519 0.317683
Si Si6 0.080484 0.560850 0.559335
Si Si7 0.732522 0.140593 0.114978
Si Si8 0.986772 0.230251 0.625861
O O1 0.273131 0.078862 0.493836
O O2 0.548440 0.281318 0.517349
O O3 0.242031 0.870001 0.680751
O O4 0.411611 0.318515 0.134020
O O5 0.302922 0.384819 0.791625
O O6 0.197484 0.440069 0.693032
O O7 0.155920 0.488080 0.259131
O O8 0.516534 0.871975 0.150150
O O9 0.082853 0.970375 0.199886
O O10 0.745634 0.538350 0.130071
O O11 0.887076 0.702024 0.648706
O O12 0.909013 0.981055 0.262209
O O13 0.726728 0.265026 0.078146
O O14 0.032322 0.456408 0.785784
O O15 0.889887 0.375031 0.435781
O O16 0.802145 0.058208 0.825892
#
# Coordination Sequence:
#
# PCOD9000481 Si02
#       8
#     1   1   1   1   1   1   1   1
#     4  12  27  46  72 106 143 187 238 292 350 422
#     4  10  25  46  70 102 141 182 237 286 355 420
#     4  11  26  47  72 104 142 189 233 293 355 418
#     4  11  26  48  72 104 141 188 237 289 357 421
#     4  12  27  46  72 105 144 187 239 290 350 424
#     4  11  25  47  70 103 141 184 235 292 351 420
#     4  11  25  46  69 103 138 189 232 290 353 416
#     4  10  27  44  73 101 142 184 233 294 349 421
#
# _framework density 25.180339
#
# number of rings (size 3 to 8) (size 9 to 14) (size 15 to 20)
#    0.000    1.000    1.250    3.000   19.250    2.000 
#    0.000    0.000    0.000    0.000    0.000    0.000 
#    0.000    0.000    0.000    0.000    0.000    0.000 
#
# Total GULP energy -44572.582355 kJ/mol
# GULP energy per Si atom -5571.572794 kJ/mol
# Density = 2.512303 g / cm^3
# Si number density = 25.180339 Si / 1000 Ang^3
#
#
#
# Elastic Constant Matrix: (Units=GPa)
#
#
# Indices 1 2 3 4 5 6 
#
# 1 107.1249 46.3383 20.4413 -9.6080 -8.9215 4.4317
# 2 46.3383 94.9236 6.0455 -6.0957 -5.5983 23.8732
# 3 20.4413 6.0455 55.4412 -13.1308 -12.6567 2.3032
# 4 -9.6080 -6.0957 -13.1308 31.6587 3.7863 -1.5175
# 5 -8.9215 -5.5983 -12.6567 3.7863 40.3728 -10.3560
# 6 4.4317 23.8732 2.3032 -1.5175 -10.3560 54.2798
#
#
#
# Elastic Compliance Matrix: (Units=1/GPa)
#
#
# Indices 1 2 3 4 5 6 
#
# 1 0.012953 -0.006507 -0.003592 0.001140 0.001301 0.002237
# 2 -0.006507 0.015269 0.001123 0.001212 -0.000707 -0.006333
# 3 -0.003592 0.001123 0.022361 0.007728 0.005686 0.000151
# 4 0.001140 0.001212 0.007728 0.035428 -0.000495 -0.000058
# 5 0.001301 -0.000707 0.005686 -0.000495 0.028152 0.005321
# 6 0.002237 -0.006333 0.000151 -0.000058 0.005321 0.022033
#
#
# Mechanical properties :
#
#
# Convention : Reuss Voigt Hill
#
# Bulk Modulus (GPa) = 30.64653 44.79334 37.71993
# Shear Modulus (GPa) = 30.29835 37.57323 33.93579
#
# Velocity S-wave (km/s) = 3.47256 3.86705 3.67510
# Velocity P-wave (km/s) = 5.31747 6.14543 5.74638
#
# Compressibility (1/GPa) = 0.03263013
#
# Stress axis : x y z
#
# Youngs Moduli (GPa) = 77.20125 65.49368 44.72032
#
# Poissons Ratio (x) = 0.42618 0.16065
# Poissons Ratio (y) = 0.50236 -0.05022
# Poissons Ratio (z) = 0.27733 -0.07355
#
# Static dielectric constant tensor:
#      x y z
#    x 2.269750 -0.140570 0.152690 
#    y -0.140570 2.188290 -0.190000 
#    z 0.152690 -0.190000 2.225880 
# 
# From -- ./inp_files/1620.got.cif
#   From: 2010.05.17/outbox.cif.g08.bks.cpg/sg1_1_cif.got.tgz:1620.got - 2010.05.17 20:27:59.
