data_PCOD9000185
_publ_section_title
;
Structure prediction by ZEFSAII (Michael W. Deem and Ramdas Pophale) SiO2 
 PCOD9000185
Probable space group: P 1
;
_chemical_formula_sum "Si O2"
_cell_formula_units_Z 8
_cell_length_a 5.156447
_cell_length_b 9.823089
_cell_length_c 8.427231
_cell_angle_alpha 132.419535
_cell_angle_beta 79.946580
_cell_angle_gamma 92.598810
_cell_volume 308.735561
_symmetry_space_group_name_H-M "P 1"
_symmetry_group_IT_number 1
_symmetry_cell_setting 'triclinic'
loop_
_space_group_symop_operation_xyz
x,y,z
loop_
_atom_site_type_symbol
_atom_site_label
_atom_site_fract_x
_atom_site_fract_y
_atom_site_fract_z
Si Si1 0.959560 0.576100 0.136190
Si Si2 0.739827 0.316734 0.733723
Si Si3 0.566671 0.159406 0.955220
Si Si4 0.146994 0.047722 0.113511
Si Si5 0.831215 0.407618 0.329809
Si Si6 0.950127 0.797208 0.721409
Si Si7 0.389289 0.775902 0.392461
Si Si8 0.317534 0.129918 0.480095
O O1 0.692903 0.698278 0.316846
O O2 0.992131 0.427123 0.160648
O O3 0.224600 0.676159 0.196191
O O4 0.874544 0.499303 0.916161
O O5 0.605414 0.261371 0.868849
O O6 0.507692 0.293634 0.613752
O O7 0.002875 0.178962 0.568566
O O8 0.301310 0.071990 0.952595
O O9 0.783424 0.981673 0.813415
O O10 0.580394 0.317299 0.214198
O O11 0.968174 0.243608 0.294684
O O12 0.343632 0.036162 0.231096
O O13 0.005853 0.864906 0.947473
O O14 0.811592 0.606072 0.573207
O O15 0.211187 0.753438 0.549093
O O16 0.394893 0.982871 0.493113
#
# Coordination Sequence:
#
# PCOD9000185 Si02
#       8
#     1   1   1   1   1   1   1   1
#     4  10  23  41  71 101 127 165 236 282 323 386
#     4  11  24  44  70  97 133 178 225 273 337 391
#     4  10  22  41  70  99 127 176 229 278 323 399
#     4  11  26  43  65  99 141 175 222 271 339 404
#     4   9  23  40  67  98 130 169 225 281 326 389
#     4  10  22  41  69  97 128 174 229 275 332 383
#     4  11  22  42  68 103 129 171 224 281 329 397
#     4  12  26  44  66  98 141 180 212 273 341 407
#
# _framework density 25.912143
#
# number of rings (size 3 to 8) (size 9 to 14) (size 15 to 20)
#    0.000    1.500    1.250    2.250   19.250    0.000 
#    4.500    0.000    0.000    0.000    0.000    0.000 
#    0.000    0.000    0.000    0.000    0.000    0.000 
#
# Total GULP energy -44682.167554 kJ/mol
# GULP energy per Si atom -5585.270944 kJ/mol
# Density = 2.585317 g / cm^3
# Si number density = 25.912143 Si / 1000 Ang^3
#
#
#
# Elastic Constant Matrix: (Units=GPa)
#
#
# Indices 1 2 3 4 5 6 
#
# 1 101.9419 17.2786 35.6224 0.5455 18.7757 -5.9510
# 2 17.2786 51.5660 31.2360 1.4103 4.3607 -2.2812
# 3 35.6224 31.2360 124.7839 15.8817 55.8260 -5.9883
# 4 0.5455 1.4103 15.8817 25.5911 8.1310 7.4213
# 5 18.7757 4.3607 55.8260 8.1310 73.9294 5.1945
# 6 -5.9510 -2.2812 -5.9883 7.4213 5.1945 33.1289
#
#
#
# Elastic Compliance Matrix: (Units=1/GPa)
#
#
# Indices 1 2 3 4 5 6 
#
# 1 0.011273 -0.002359 -0.002100 0.001215 -0.001372 0.001426
# 2 -0.002359 0.024569 -0.008197 0.002608 0.005166 -0.001608
# 3 -0.002100 -0.008197 0.017070 -0.008150 -0.011381 0.005754
# 4 0.001215 0.002608 -0.008150 0.046957 0.001357 -0.011807
# 5 -0.001372 0.005166 -0.011381 0.001357 0.022421 -0.005767
# 6 0.001426 -0.001608 0.005754 -0.011807 -0.005767 0.034920
#
#
# Mechanical properties :
#
#
# Convention : Reuss Voigt Hill
#
# Bulk Modulus (GPa) = 36.23193 49.61841 42.92517
# Shear Modulus (GPa) = 26.07950 39.47355 32.77652
#
# Velocity S-wave (km/s) = 3.17591 3.90726 3.56042
# Velocity P-wave (km/s) = 5.24038 6.28855 5.78824
#
# Compressibility (1/GPa) = 0.02759996
#
# Stress axis : x y z
#
# Youngs Moduli (GPa) = 88.71075 40.70161 58.58086
#
# Poissons Ratio (x) = 0.09603 0.12302
# Poissons Ratio (y) = 0.20929 0.48017
# Poissons Ratio (z) = 0.18629 0.33362
#
# Static dielectric constant tensor:
#      x y z
#    x 2.039190 0.000600 0.053230 
#    y 0.000600 2.005180 0.001460 
#    z 0.053230 0.001460 2.214840 
# 
# From -- ./inp_files/1640.got.cif
#   From: 2010.05.17/outbox.cif.g08.bks.cpg/sg1_1_cif.got.tgz:1640.got - 2010.05.17 20:27:59.
