data_PCOD9000150
_publ_section_title
;
Structure prediction by ZEFSAII (Michael W. Deem and Ramdas Pophale) SiO2 
 PCOD9000150
Probable space group: P 1
;
_chemical_formula_sum "Si O2"
_cell_formula_units_Z 8
_cell_length_a 5.287965
_cell_length_b 13.184385
_cell_length_c 5.154312
_cell_angle_alpha 60.680868
_cell_angle_beta 91.511660
_cell_angle_gamma 105.140727
_cell_volume 300.236025
_symmetry_space_group_name_H-M "P 1"
_symmetry_group_IT_number 1
_symmetry_cell_setting 'triclinic'
loop_
_space_group_symop_operation_xyz
x,y,z
loop_
_atom_site_type_symbol
_atom_site_label
_atom_site_fract_x
_atom_site_fract_y
_atom_site_fract_z
Si Si1 0.967370 0.822200 0.879130
Si Si2 0.503307 0.634337 0.904153
Si Si3 0.036275 0.447923 0.346320
Si Si4 0.149132 0.220803 0.858265
Si Si5 0.723896 0.018708 0.848300
Si Si6 0.605596 0.124843 0.207781
Si Si7 0.207278 0.779560 0.438801
Si Si8 0.797149 0.507152 0.764530
O O1 0.766306 0.687857 0.009585
O O2 0.095062 0.853085 0.560889
O O3 0.790396 0.902744 0.881001
O O4 0.191346 0.826353 0.091893
O O5 0.460340 0.746503 0.599489
O O6 0.530394 0.531978 0.829519
O O7 0.264031 0.574616 0.162138
O O8 0.174706 0.346337 0.557059
O O9 0.828180 0.452668 0.557669
O O10 0.888375 0.432141 0.088020
O O11 0.012771 0.113655 0.787789
O O12 0.403845 0.197786 0.024070
O O13 0.910028 0.202224 0.081179
O O14 0.574096 0.074787 0.558549
O O15 0.587182 0.018348 0.124999
O O16 0.999228 0.643398 0.599978
#
# Coordination Sequence:
#
# PCOD9000150 Si02
#       8
#     1   1   1   1   1   1   1   1
#     4  11  23  42  69  99 136 175 232 280 350 417
#     4  10  24  44  70  99 144 182 228 288 354 417
#     4  11  25  42  68 103 133 189 227 290 347 424
#     4  10  27  47  72 104 142 183 237 291 351 424
#     4  10  25  44  70 104 134 186 232 295 347 421
#     4  10  25  45  74 100 144 178 238 290 357 411
#     4  10  22  40  63 100 132 178 223 280 337 419
#     4  10  23  42  64  97 141 175 235 276 347 417
#
# _framework density 26.645703999999999
#
# number of rings (size 3 to 8) (size 9 to 14) (size 15 to 20)
#    0.750    1.000    0.000    3.000    5.250   11.000 
#    0.000    0.000    0.000    0.000    0.000    0.000 
#    0.000    0.000    0.000    0.000    0.000    0.000 
#
# Total GULP energy -44825.432750 kJ/mol
# GULP energy per Si atom -5603.179094 kJ/mol
# Density = 2.658506 g / cm^3
# Si number density = 26.645704 Si / 1000 Ang^3
#
#
#
# Elastic Constant Matrix: (Units=GPa)
#
#
# Indices 1 2 3 4 5 6 
#
# 1 122.3485 29.4141 48.1600 3.5121 11.7166 -26.4599
# 2 29.4141 83.6664 37.1820 12.1542 -8.6039 -24.8377
# 3 48.1600 37.1820 160.1517 15.2874 8.7579 -15.7736
# 4 3.5121 12.1542 15.2874 43.4501 -8.5281 7.2720
# 5 11.7166 -8.6039 8.7579 -8.5281 38.4630 -4.1295
# 6 -26.4599 -24.8377 -15.7736 7.2720 -4.1295 41.0163
#
#
#
# Elastic Compliance Matrix: (Units=1/GPa)
#
#
# Indices 1 2 3 4 5 6 
#
# 1 0.010782 -0.001422 -0.002138 -0.001142 -0.002812 0.005191
# 2 -0.001422 0.017819 -0.002528 -0.004703 0.005052 0.010243
# 3 -0.002138 -0.002528 0.007850 -0.002364 -0.002193 0.000307
# 4 -0.001142 -0.004703 -0.002364 0.027731 0.005027 -0.008904
# 5 -0.002812 0.005052 -0.002193 0.005027 0.029870 0.002518
# 6 0.005191 0.010243 0.000307 -0.008904 0.002518 0.035883
#
#
# Mechanical properties :
#
#
# Convention : Reuss Voigt Hill
#
# Bulk Modulus (GPa) = 41.19591 66.18651 53.69121
# Shear Modulus (GPa) = 33.28857 41.34658 37.31757
#
# Velocity S-wave (km/s) = 3.53838 3.94346 3.74640
# Velocity P-wave (km/s) = 5.67342 6.75484 6.23761
#
# Compressibility (1/GPa) = 0.02427425
#
# Stress axis : x y z
#
# Youngs Moduli (GPa) = 92.75067 56.11901 127.39479
#
# Poissons Ratio (x) = 0.07983 0.27236
# Poissons Ratio (y) = 0.13194 0.32202
# Poissons Ratio (z) = 0.19829 0.14185
#
# Static dielectric constant tensor:
#      x y z
#    x 2.068770 0.034020 -0.020740 
#    y 0.034020 2.121200 -0.049530 
#    z -0.020740 -0.049530 2.038410 
# 
# From -- ./inp_files/483.got.cif
#   From: 2010.05.17/outbox.cif.g08.bks.cpg/sg1_1_cif.got.tgz:483.got - 2010.05.17 20:27:59.
