data_PCOD9000750
_publ_section_title
;
Structure prediction by ZEFSAII (Michael W. Deem and Ramdas Pophale) SiO2 
 PCOD9000750
Probable space group: P 1
;
_chemical_formula_sum "Si O2"
_cell_formula_units_Z 8
_cell_length_a 7.395467
_cell_length_b 9.378986
_cell_length_c 4.931946
_cell_angle_alpha 68.509802
_cell_angle_beta 72.864781
_cell_angle_gamma 94.291544
_cell_volume 297.683641
_symmetry_space_group_name_H-M "P 1"
_symmetry_group_IT_number 1
_symmetry_cell_setting 'triclinic'
loop_
_space_group_symop_operation_xyz
x,y,z
loop_
_atom_site_type_symbol
_atom_site_label
_atom_site_fract_x
_atom_site_fract_y
_atom_site_fract_z
Si Si1 0.448540 0.449310 0.824640
Si Si2 0.266833 0.704198 0.026650
Si Si3 0.629327 0.089549 0.248568
Si Si4 0.669981 0.375806 0.307886
Si Si5 0.919535 0.196663 0.639878
Si Si6 0.234681 0.126690 0.193809
Si Si7 0.684873 0.859728 0.771090
Si Si8 0.058129 0.787749 0.542646
O O1 0.329387 0.564163 0.933350
O O2 0.577692 0.483928 0.476122
O O3 0.600307 0.418780 0.010694
O O4 0.291253 0.294906 0.912128
O O5 0.469396 0.792789 0.005447
O O6 0.179948 0.794562 0.761373
O O7 0.119502 0.677958 0.362194
O O8 0.574702 0.188531 0.460766
O O9 0.442567 0.083160 0.158314
O O10 0.653679 0.919542 0.439078
O O11 0.832175 0.196302 0.980030
O O12 0.865183 0.342834 0.394285
O O13 0.130914 0.175048 0.479204
O O14 0.794644 0.020591 0.747147
O O15 0.099456 0.964202 0.273718
O O16 0.835857 0.747191 0.761758
#
# Coordination Sequence:
#
# PCOD9000750 Si02
#       8
#     1   1   1   1   1   1   1   1
#     4  11  24  44  66  94 134 174 213 268 336 388
#     4  12  26  47  67  97 139 178 213 279 333 391
#     4  10  19  38  67  97 133 163 219 277 325 376
#     4  10  20  41  63  89 131 168 214 262 322 386
#     4  10  20  39  67 103 127 167 225 276 319 388
#     4  10  21  41  68 100 126 174 218 278 319 391
#     4  10  24  39  69 100 133 175 221 274 329 391
#     4  11  26  43  71  98 131 175 231 266 327 397
#
# _framework density 26.874167
#
# number of rings (size 3 to 8) (size 9 to 14) (size 15 to 20)
#    0.000    1.500    3.750    1.500    5.250    0.000 
#   13.500    0.000    0.000    0.000    0.000    0.000 
#    0.000    0.000    0.000    0.000    0.000    0.000 
#
# Total GULP energy -44562.617864 kJ/mol
# GULP energy per Si atom -5570.327233 kJ/mol
# Density = 2.681300 g / cm^3
# Si number density = 26.874167 Si / 1000 Ang^3
#
#
#
# Elastic Constant Matrix: (Units=GPa)
#
#
# Indices 1 2 3 4 5 6 
#
# 1 87.2564 26.8104 37.4830 10.8791 -15.3619 -18.8225
# 2 26.8104 88.8919 7.2908 29.0616 -8.1768 -4.3714
# 3 37.4830 7.2908 92.2278 34.5433 0.8890 -8.9109
# 4 10.8791 29.0616 34.5433 42.1883 -1.7978 -5.9121
# 5 -15.3619 -8.1768 0.8890 -1.7978 38.0738 10.3729
# 6 -18.8225 -4.3714 -8.9109 -5.9121 10.3729 35.3497
#
#
#
# Elastic Compliance Matrix: (Units=1/GPa)
#
#
# Indices 1 2 3 4 5 6 
#
# 1 0.019294 -0.007334 -0.010260 0.009661 0.005019 0.006923
# 2 -0.007334 0.018523 0.007851 -0.017658 0.000769 -0.002814
# 3 -0.010260 0.007851 0.022295 -0.021365 -0.003605 -0.001387
# 4 0.009661 -0.017658 -0.021365 0.051745 0.001468 0.005798
# 5 0.005019 0.000769 -0.003605 0.001468 0.030471 -0.006837
# 6 0.006923 -0.002814 -0.001387 0.005798 -0.006837 0.034253
#
#
# Mechanical properties :
#
#
# Convention : Reuss Voigt Hill
#
# Bulk Modulus (GPa) = 24.61486 45.72719 35.17102
# Shear Modulus (GPa) = 23.85404 36.24182 30.04793
#
# Velocity S-wave (km/s) = 2.98253 3.67628 3.34742
# Velocity P-wave (km/s) = 4.58692 5.92218 5.29679
#
# Compressibility (1/GPa) = 0.04062587
#
# Stress axis : x y z
#
# Youngs Moduli (GPa) = 51.83047 53.98653 44.85382
#
# Poissons Ratio (x) = 0.39594 0.46018
# Poissons Ratio (y) = 0.38013 -0.35214
# Poissons Ratio (z) = 0.53176 -0.42385
#
# Static dielectric constant tensor:
#      x y z
#    x 2.222260 -0.013250 0.047250 
#    y -0.013250 2.164240 0.043570 
#    z 0.047250 0.043570 2.299760 
# 
# From -- ./inp_files/1489.got.cif
#   From: 2010.05.17/outbox.cif.g08.bks.cpg/sg1_1_cif.got.tgz:1489.got - 2010.05.17 20:27:59.
