data_PCOD9000861
_publ_section_title
;
Structure prediction by ZEFSAII (Michael W. Deem and Ramdas Pophale) SiO2 
 PCOD9000861
Probable space group: P 1
;
_chemical_formula_sum "Si O2"
_cell_formula_units_Z 8
_cell_length_a 12.067311
_cell_length_b 16.302436
_cell_length_c 5.187675
_cell_angle_alpha 116.852420
_cell_angle_beta 124.906620
_cell_angle_gamma 21.894784
_cell_volume 301.430639
_symmetry_space_group_name_H-M "P 1"
_symmetry_group_IT_number 1
_symmetry_cell_setting 'triclinic'
loop_
_space_group_symop_operation_xyz
x,y,z
loop_
_atom_site_type_symbol
_atom_site_label
_atom_site_fract_x
_atom_site_fract_y
_atom_site_fract_z
Si Si1 0.500000 0.856290 0.692150
Si Si2 0.313557 0.790692 0.235121
Si Si3 0.292501 0.427535 0.610327
Si Si4 0.171522 0.685907 0.047889
Si Si5 0.394205 0.164284 0.467312
Si Si6 0.898329 0.094530 0.615052
Si Si7 0.109655 0.145874 0.099819
Si Si8 0.824212 0.821095 0.171596
O O1 0.592149 0.692515 0.546388
O O2 0.736126 0.792313 0.821610
O O3 0.194535 0.058525 0.374681
O O4 0.380627 0.950311 0.957658
O O5 0.024510 0.989538 0.350423
O O6 0.374744 0.645204 0.155418
O O7 0.188431 0.886326 0.914003
O O8 0.360515 0.472441 0.945985
O O9 0.580532 0.240209 0.512025
O O10 0.245686 0.357514 0.571092
O O11 0.981312 0.661367 0.375288
O O12 0.086726 0.732603 0.302728
O O13 0.777312 0.932751 0.769134
O O14 0.491190 0.079954 0.180444
O O15 0.145928 0.233785 0.296648
O O16 0.832447 0.245603 0.773652
#
# Coordination Sequence:
#
# PCOD9000861 Si02
#       8
#     1   1   1   1   1   1   1   1
#     4   9  18  37  62  88 114 156 204 245 293 359
#     4  10  21  38  66  86 117 165 201 241 305 355
#     4  11  24  37  59  93 124 155 203 251 298 360
#     4  11  22  37  60  90 120 161 201 246 300 359
#     4  10  20  40  61  85 119 162 201 246 303 355
#     4  10  21  39  63  89 119 160 201 246 300 360
#     4   9  18  36  64  87 112 159 204 241 297 358
#     4  10  22  38  61  86 123 158 201 252 300 354
#
# _framework density 26.540106000000002
#
# number of rings (size 3 to 8) (size 9 to 14) (size 15 to 20)
#    0.000    2.000    2.500    0.750    3.500    1.000 
#    0.000    2.500    2.750    0.000    0.000    0.000 
#    0.000    0.000    0.000    0.000    0.000    0.000 
#
# Total GULP energy -44572.905467 kJ/mol
# GULP energy per Si atom -5571.613183 kJ/mol
# Density = 2.647970 g / cm^3
# Si number density = 26.540106 Si / 1000 Ang^3
#
#
#
# Elastic Constant Matrix: (Units=GPa)
#
#
# Indices 1 2 3 4 5 6 
#
# 1 137.6228 18.6914 9.2444 21.2401 14.5988 41.1824
# 2 18.6914 76.9266 20.2982 30.4845 2.1757 35.8381
# 3 9.2444 20.2982 57.0086 13.2014 2.0027 12.3838
# 4 21.2401 30.4845 13.2014 32.6937 7.9054 11.4053
# 5 14.5988 2.1757 2.0027 7.9054 49.1778 23.6188
# 6 41.1824 35.8381 12.3838 11.4053 23.6188 49.1948
#
#
#
# Elastic Compliance Matrix: (Units=1/GPa)
#
#
# Indices 1 2 3 4 5 6 
#
# 1 0.012807 0.010713 0.001197 -0.013868 0.007022 -0.018982
# 2 0.010713 0.046152 -0.000133 -0.039989 0.022351 -0.044016
# 3 0.001197 -0.000133 0.020254 -0.007549 0.002706 -0.005552
# 4 -0.013868 -0.039989 -0.007549 0.072659 -0.023233 0.036950
# 5 0.007022 0.022351 0.002706 -0.023233 0.038041 -0.035719
# 6 -0.018982 -0.044016 -0.005552 0.036950 -0.035719 0.078264
#
#
# Mechanical properties :
#
#
# Convention : Reuss Voigt Hill
#
# Bulk Modulus (GPa) = 9.73086 40.89178 25.31132
# Shear Modulus (GPa) = 17.92898 41.10151 29.51525
#
# Velocity S-wave (km/s) = 2.60194 3.93957 3.33843
# Velocity P-wave (km/s) = 3.56388 6.01120 4.94145
#
# Compressibility (1/GPa) = 0.10276581
#
# Stress axis : x y z
#
# Youngs Moduli (GPa) = 78.08427 21.66743 49.37351
#
# Poissons Ratio (x) = -0.23212 -0.05911
# Poissons Ratio (y) = -0.83651 0.00659
# Poissons Ratio (z) = -0.09348 0.00289
#
# Static dielectric constant tensor:
#      x y z
#    x 2.130860 0.028860 0.030550 
#    y 0.028860 2.084080 0.063900 
#    z 0.030550 0.063900 2.366190 
# 
# From -- ./inp_files/2470.got.cif
#   From: 2010.05.17/outbox.cif.g08.bks.cpg/sg1_2_cif.got.tgz:2470.got - 2010.05.17 20:27:59.
