data_PCOD9000712
_publ_section_title
;
Structure prediction by ZEFSAII (Michael W. Deem and Ramdas Pophale) SiO2 
 PCOD9000712
Probable space group: P 1
;
_chemical_formula_sum "Si O2"
_cell_formula_units_Z 8
_cell_length_a 13.435370
_cell_length_b 7.905094
_cell_length_c 12.230998
_cell_angle_alpha 146.276728
_cell_angle_beta 147.889928
_cell_angle_gamma 36.210029
_cell_volume 359.551747
_symmetry_space_group_name_H-M "P 1"
_symmetry_group_IT_number 1
_symmetry_cell_setting 'triclinic'
loop_
_space_group_symop_operation_xyz
x,y,z
loop_
_atom_site_type_symbol
_atom_site_label
_atom_site_fract_x
_atom_site_fract_y
_atom_site_fract_z
Si Si1 0.256980 0.133320 0.316550
Si Si2 0.533333 0.748900 0.028340
Si Si3 0.883149 0.051123 0.996669
Si Si4 0.733242 0.117271 0.548701
Si Si5 0.023883 0.157090 0.420508
Si Si6 0.393087 0.641836 0.604530
Si Si7 0.683705 0.681174 0.476136
Si Si8 0.160120 0.665314 0.708653
O O1 0.317784 0.337389 0.390112
O O2 0.208680 0.399079 0.512662
O O3 0.057332 0.052004 0.075112
O O4 0.446748 0.812457 0.345602
O O5 0.440600 0.776329 0.836416
O O6 0.359528 0.747390 0.950088
O O7 0.708265 0.399979 0.012353
O O8 0.628616 0.012256 0.292660
O O9 0.975505 0.024210 0.188597
O O10 0.787968 0.787539 0.732436
O O11 0.605132 0.486875 0.656888
O O12 0.708464 0.898829 0.512081
O O13 0.970181 0.985777 0.679067
O O14 0.099398 0.461491 0.635416
O O15 0.812185 0.311506 0.368566
O O16 0.208606 0.898955 0.512100
#
# Coordination Sequence:
#
# PCOD9000712 Si02
#       8
#     1   1   1   1   1   1   1   1
#     4   9  18  35  61  81 107 146 190 222 269 329
#     4  11  19  37  63  79 109 149 189 225 267 330
#     4  11  19  37  63  79 109 149 189 225 267 330
#     4  10  19  35  60  83 108 146 190 222 271 330
#     4  10  22  38  55  85 119 139 181 237 275 322
#     4  10  22  38  55  85 119 139 181 237 275 322
#     4  10  19  35  60  83 108 146 190 222 271 330
#     4   9  18  35  61  81 107 146 190 222 269 329
#
# _framework density 22.249925999999999
#
# number of rings (size 3 to 8) (size 9 to 14) (size 15 to 20)
#    0.000    2.000    7.500    0.000    0.000    5.000 
#    0.000    6.250    0.000    0.000    0.000    0.000 
#    0.000    0.000    0.000    0.000    0.000    0.000 
#
# Total GULP energy -44645.252002 kJ/mol
# GULP energy per Si atom -5580.656500 kJ/mol
# Density = 2.219928 g / cm^3
# Si number density = 22.249926 Si / 1000 Ang^3
#
#
#
# Elastic Constant Matrix: (Units=GPa)
#
#
# Indices 1 2 3 4 5 6 
#
# 1 45.3662 39.6574 27.9135 -17.3951 13.2624 -28.8032
# 2 39.6574 132.6670 35.6257 -43.8497 -4.1776 -29.8124
# 3 27.9135 35.6257 110.3462 -24.4547 -10.9055 -0.5988
# 4 -17.3951 -43.8497 -24.4547 45.2038 -10.0334 4.4531
# 5 13.2624 -4.1776 -10.9055 -10.0334 43.0149 -14.0739
# 6 -28.8032 -29.8124 -0.5988 4.4531 -14.0739 30.5442
#
#
#
# Elastic Compliance Matrix: (Units=1/GPa)
#
#
# Indices 1 2 3 4 5 6 
#
# 1 0.100125 0.004635 -0.021320 0.022216 0.000627 0.095574
# 2 0.004635 0.019943 -0.001505 0.020712 0.013846 0.027167
# 3 -0.021320 -0.001505 0.015650 0.001701 0.004418 -0.019480
# 4 0.022216 0.020712 0.001701 0.052279 0.022106 0.043763
# 5 0.000627 0.013846 0.004418 0.022106 0.040347 0.029560
# 6 0.095574 0.027167 -0.019480 0.043763 0.029560 0.156241
#
#
# Mechanical properties :
#
#
# Convention : Reuss Voigt Hill
#
# Bulk Modulus (GPa) = 10.06675 54.97473 32.52074
# Shear Modulus (GPa) = 11.01134 36.09808 23.55471
#
# Velocity S-wave (km/s) = 2.22703 4.03226 3.25721
# Velocity P-wave (km/s) = 3.33873 6.81471 5.36598
#
# Compressibility (1/GPa) = 0.09933689
#
# Stress axis : x y z
#
# Youngs Moduli (GPa) = 9.98750 50.14320 63.89950
#
# Poissons Ratio (x) = -0.23242 1.36236
# Poissons Ratio (y) = -0.04629 0.09618
# Poissons Ratio (z) = 0.21294 0.07548
#
# Static dielectric constant tensor:
#      x y z
#    x 1.954690 -0.046900 -0.008250 
#    y -0.046900 1.849880 0.032820 
#    z -0.008250 0.032820 1.833580 
# 
# From -- ./inp_files/3499.got.cif
#   From: 2010.05.17/outbox.cif.g08.bks.cpg/sg1_2_cif.got.tgz:3499.got - 2010.05.17 20:27:59.
