data_PCOD9000577
_publ_section_title
;
Structure prediction by ZEFSAII (Michael W. Deem and Ramdas Pophale) SiO2 
 PCOD9000577
Probable space group: P 1
;
_chemical_formula_sum "Si O2"
_cell_formula_units_Z 8
_cell_length_a 7.217505
_cell_length_b 7.110378
_cell_length_c 11.393108
_cell_angle_alpha 40.731187
_cell_angle_beta 49.852715
_cell_angle_gamma 60.287020
_cell_volume 291.595543
_symmetry_space_group_name_H-M "P 1"
_symmetry_group_IT_number 1
_symmetry_cell_setting 'triclinic'
loop_
_space_group_symop_operation_xyz
x,y,z
loop_
_atom_site_type_symbol
_atom_site_label
_atom_site_fract_x
_atom_site_fract_y
_atom_site_fract_z
Si Si1 0.365260 0.618870 0.417480
Si Si2 0.477244 0.528356 0.907476
Si Si3 0.272723 0.183598 0.348418
Si Si4 0.741121 0.353101 0.567643
Si Si5 0.045446 0.314517 0.029768
Si Si6 0.975808 0.178065 0.865367
Si Si7 0.676661 0.930394 0.473385
Si Si8 0.702828 0.804826 0.990052
O O1 0.586147 0.461828 0.469483
O O2 0.147091 0.395479 0.622531
O O3 0.292513 0.906129 0.384615
O O4 0.472905 0.706179 0.206518
O O5 0.288031 0.441958 0.923595
O O6 0.582365 0.836311 0.683388
O O7 0.706484 0.313633 0.916787
O O8 0.349458 0.466499 0.111253
O O9 0.461337 0.095182 0.415001
O O10 0.007951 0.247461 0.473837
O O11 0.639384 0.081164 0.807963
O O12 0.736843 0.633561 0.520683
O O13 0.846697 0.567465 0.967937
O O14 0.069656 0.153802 0.971477
O O15 0.913542 0.119847 0.272679
O O16 0.917956 0.890497 0.954415
#
# Coordination Sequence:
#
# PCOD9000577 Si02
#       8
#     1   1   1   1   1   1   1   1
#     4  11  25  47  76 113 160 202 255 324 387 455
#     4  12  25  49  77 113 155 204 256 321 384 458
#     4  11  23  47  79 119 158 196 268 320 376 481
#     4  11  23  47  82 116 152 205 264 314 387 469
#     4  12  28  51  82 113 158 207 258 322 392 459
#     4  12  26  51  77 110 159 205 251 324 385 453
#     4  11  24  49  75 112 159 206 254 321 389 458
#     4  12  26  53  76 118 155 199 268 318 378 477
#
# _framework density 27.435262000000002
#
# number of rings (size 3 to 8) (size 9 to 14) (size 15 to 20)
#    0.000    0.500    3.750    4.500    1.750    2.000 
#    9.000    0.000    0.000    0.000    0.000    0.000 
#    0.000    0.000    0.000    0.000    0.000    0.000 
#
# Total GULP energy -44957.647762 kJ/mol
# GULP energy per Si atom -5619.705970 kJ/mol
# Density = 2.737282 g / cm^3
# Si number density = 27.435262 Si / 1000 Ang^3
#
#
#
# Elastic Constant Matrix: (Units=GPa)
#
#
# Indices 1 2 3 4 5 6 
#
# 1 125.5022 34.0754 27.4402 18.4301 -1.6654 -21.6867
# 2 34.0754 146.4252 43.8714 6.2471 -4.3443 -10.5607
# 3 27.4402 43.8714 206.0344 8.1023 -5.6410 -11.9300
# 4 18.4301 6.2471 8.1023 41.0613 -5.4361 -1.5521
# 5 -1.6654 -4.3443 -5.6410 -5.4361 58.2957 -1.1325
# 6 -21.6867 -10.5607 -11.9300 -1.5521 -1.1325 45.3239
#
#
#
# Elastic Compliance Matrix: (Units=1/GPa)
#
#
# Indices 1 2 3 4 5 6 
#
# 1 0.009810 -0.001661 -0.000572 -0.003910 -0.000185 0.004018
# 2 -0.001661 0.007686 -0.001364 -0.000078 0.000399 0.000645
# 3 -0.000572 -0.001364 0.005296 -0.000503 0.000363 0.000794
# 4 -0.003910 -0.000078 -0.000503 0.026482 0.002283 -0.001058
# 5 -0.000185 0.000399 0.000363 0.002283 0.017438 0.000614
# 6 0.004018 0.000645 0.000794 -0.001058 0.000614 0.024324
#
#
# Mechanical properties :
#
#
# Convention : Reuss Voigt Hill
#
# Bulk Modulus (GPa) = 64.10506 76.52619 70.31562
# Shear Modulus (GPa) = 48.34220 53.77450 51.05835
#
# Velocity S-wave (km/s) = 4.20223 4.43205 4.31867
# Velocity P-wave (km/s) = 6.85285 7.35831 7.11007
#
# Compressibility (1/GPa) = 0.01559939
#
# Stress axis : x y z
#
# Youngs Moduli (GPa) = 101.93783 130.10288 188.82615
#
# Poissons Ratio (x) = 0.21604 0.10793
# Poissons Ratio (y) = 0.16927 0.25760
# Poissons Ratio (z) = 0.05827 0.17749
#
# Static dielectric constant tensor:
#      x y z
#    x 2.104470 0.071860 0.017510 
#    y 0.071860 2.137120 -0.014330 
#    z 0.017510 -0.014330 2.074730 
# 
# From -- ./inp_files/7246.got.cif
#   From: 2010.05.17/outbox.cif.g08.bks.cpg/sg1_4_cif.got.tgz:7246.got - 2010.05.17 20:27:59.
