data_PCOD9000388
_publ_section_title
;
Structure prediction by ZEFSAII (Michael W. Deem and Ramdas Pophale) SiO2 
 PCOD9000388
Probable space group: P 1
;
_chemical_formula_sum "Si O2"
_cell_formula_units_Z 6
_cell_length_a 8.261549
_cell_length_b 5.172200
_cell_length_c 5.185302
_cell_angle_alpha 88.853742
_cell_angle_beta 87.753884
_cell_angle_gamma 102.286555
_cell_volume 216.237486
_symmetry_space_group_name_H-M "P 1"
_symmetry_group_IT_number 1
_symmetry_cell_setting 'triclinic'
loop_
_space_group_symop_operation_xyz
x,y,z
loop_
_atom_site_type_symbol
_atom_site_label
_atom_site_fract_x
_atom_site_fract_y
_atom_site_fract_z
Si Si1 0.684690 0.267220 0.371460
Si Si2 0.848247 0.702891 0.741058
Si Si3 0.119946 0.986416 0.404112
Si Si4 0.028957 0.430826 0.110243
Si Si5 0.520733 0.572875 0.052492
Si Si6 0.429105 0.823944 0.570913
O O1 0.734822 0.533103 0.532495
O O2 0.851872 0.257501 0.217644
O O3 0.600944 0.039423 0.573435
O O4 0.549177 0.293334 0.160604
O O5 0.714199 0.714169 0.972334
O O6 0.965592 0.962862 0.612957
O O7 0.981042 0.530670 0.833389
O O8 0.077301 0.708919 0.255395
O O9 0.280574 0.976264 0.563295
O O10 0.143119 0.232664 0.200571
O O11 0.417080 0.616681 0.807740
O O12 0.444709 0.694048 0.296532
#
# Coordination Sequence:
#
# PCOD9000388 Si02
#       6
#     1   1   1   1   1   1
#     4  10  24  45  73 108 139 193 245 302 355 439
#     4  10  23  47  78 103 146 191 252 296 361 437
#     4  11  27  47  69 111 148 193 239 305 366 435
#     4  10  25  45  74 104 148 194 245 295 365 435
#     4  11  25  47  70 107 141 190 242 295 365 429
#     4  12  28  43  76 105 150 185 241 303 370 427
#
# _framework density 27.747267999999998
#
# number of rings (size 3 to 8) (size 9 to 14) (size 15 to 20)
#    0.000    1.333    1.667    1.000   14.000    2.667 
#    0.000    0.000    0.000    0.000    0.000    0.000 
#    0.000    0.000    0.000    0.000    0.000    0.000 
#
# Total GULP energy -33588.698827 kJ/mol
# GULP energy per Si atom -5598.116471 kJ/mol
# Density = 2.768411 g / cm^3
# Si number density = 27.747268 Si / 1000 Ang^3
#
#
#
# Elastic Constant Matrix: (Units=GPa)
#
#
# Indices 1 2 3 4 5 6 
#
# 1 92.9086 8.1936 21.7045 -12.2231 25.0625 -8.2401
# 2 8.1936 102.5865 34.6429 -26.9332 14.8928 -3.2301
# 3 21.7045 34.6429 169.0334 -33.3955 22.9217 -17.4390
# 4 -12.2231 -26.9332 -33.3955 54.0664 -17.0280 11.2384
# 5 25.0625 14.8928 22.9217 -17.0280 45.7424 -19.6203
# 6 -8.2401 -3.2301 -17.4390 11.2384 -19.6203 37.7701
#
#
#
# Elastic Compliance Matrix: (Units=1/GPa)
#
#
# Indices 1 2 3 4 5 6 
#
# 1 0.012789 0.000404 -0.000775 0.000670 -0.007113 -0.001428
# 2 0.000404 0.011735 -0.001411 0.004738 -0.002557 -0.002298
# 3 -0.000775 -0.001411 0.007178 0.002921 -0.000902 0.001687
# 4 0.000670 0.004738 0.002921 0.024897 0.004545 -0.003147
# 5 -0.007113 -0.002557 -0.000902 0.004545 0.035020 0.014652
# 6 -0.001428 -0.002298 0.001687 -0.003147 0.014652 0.035295
#
#
# Mechanical properties :
#
#
# Convention : Reuss Voigt Hill
#
# Bulk Modulus (GPa) = 35.54028 54.84560 45.19294
# Shear Modulus (GPa) = 35.75055 47.51495 41.63275
#
# Velocity S-wave (km/s) = 3.59337 4.14263 3.87774
# Velocity P-wave (km/s) = 5.48204 6.53382 6.03091
#
# Compressibility (1/GPa) = 0.02813709
#
# Stress axis : x y z
#
# Youngs Moduli (GPa) = 78.19155 85.21626 139.31153
#
# Poissons Ratio (x) = -0.03443 0.10800
# Poissons Ratio (y) = -0.03159 0.19660
# Poissons Ratio (z) = 0.06062 0.12026
#
# Static dielectric constant tensor:
#      x y z
#    x 2.257490 -0.058230 0.025520 
#    y -0.058230 2.132940 0.016830 
#    z 0.025520 0.016830 2.147540 
# 
# From -- ./inp_files/39.got.cif
#   From: 2010.05.17/outbox.cif.g08.bks.cpg/sg1_1_cif.got.tgz:39.got - 2010.05.17 20:27:59.
