data_PCOD9000177
_publ_section_title
;
Structure prediction by ZEFSAII (Michael W. Deem and Ramdas Pophale) SiO2 
 PCOD9000177
Probable space group: P 1
;
_chemical_formula_sum "Si O2"
_cell_formula_units_Z 8
_cell_length_a 5.362428
_cell_length_b 11.370901
_cell_length_c 7.486461
_cell_angle_alpha 104.552348
_cell_angle_beta 86.261045
_cell_angle_gamma 128.049728
_cell_volume 345.528415
_symmetry_space_group_name_H-M "P 1"
_symmetry_group_IT_number 1
_symmetry_cell_setting 'triclinic'
loop_
_space_group_symop_operation_xyz
x,y,z
loop_
_atom_site_type_symbol
_atom_site_label
_atom_site_fract_x
_atom_site_fract_y
_atom_site_fract_z
Si Si1 0.144500 0.275820 0.887120
Si Si2 0.376101 0.207501 0.526262
Si Si3 0.620841 0.936187 0.784857
Si Si4 0.055490 0.341452 0.543241
Si Si5 0.277789 0.901792 0.447681
Si Si6 0.142856 0.750802 0.036320
Si Si7 0.425236 0.598288 0.112537
Si Si8 0.622220 0.681208 0.528163
O O1 0.388585 0.273213 0.748804
O O2 0.989471 0.307370 0.745000
O O3 0.280423 0.418895 0.065115
O O4 0.901828 0.104394 0.912098
O O5 0.159657 0.237547 0.439673
O O6 0.729351 0.296327 0.464435
O O7 0.219244 0.028326 0.483793
O O8 0.552477 0.966617 0.602260
O O9 0.688713 0.815705 0.702282
O O10 0.306651 0.844333 0.884154
O O11 0.368459 0.516598 0.567355
O O12 0.330926 0.871374 0.235899
O O13 0.969719 0.738071 0.477924
O O14 0.213683 0.629337 0.021408
O O15 0.775639 0.680435 0.042687
O O16 0.473037 0.666724 0.335023
#
# Coordination Sequence:
#
# PCOD9000177 Si02
#       8
#     1   1   1   1   1   1   1   1
#     4  10  24  42  65 101 138 176 231 278 344 406
#     4  10  22  41  65  95 137 181 216 289 334 404
#     4  12  24  44  74 101 136 192 227 283 355 409
#     4  10  23  38  67  97 130 181 227 271 340 404
#     4  11  23  47  68 104 144 178 237 286 345 412
#     4  11  28  44  72 104 139 182 234 289 341 411
#     4  11  26  47  66 104 147 176 231 296 335 415
#     4  11  24  43  71 102 139 186 233 282 350 411
#
# _framework density 23.152944999999999
#
# number of rings (size 3 to 8) (size 9 to 14) (size 15 to 20)
#    0.750    0.500    3.750    0.750    8.750    1.000 
#    0.000    1.250    0.000    0.000    0.000    0.000 
#    0.000    0.000    0.000    0.000    0.000    0.000 
#
# Total GULP energy -44641.964987 kJ/mol
# GULP energy per Si atom -5580.245623 kJ/mol
# Density = 2.310025 g / cm^3
# Si number density = 23.152945 Si / 1000 Ang^3
#
#
#
# Elastic Constant Matrix: (Units=GPa)
#
#
# Indices 1 2 3 4 5 6 
#
# 1 96.5847 23.3480 6.5508 7.4245 -17.3612 -10.1091
# 2 23.3480 126.9316 16.5200 13.8048 -14.5783 1.2211
# 3 6.5508 16.5200 62.0443 12.3179 -8.5368 -9.9247
# 4 7.4245 13.8048 12.3179 26.5020 -3.6536 -4.0372
# 5 -17.3612 -14.5783 -8.5368 -3.6536 24.5488 3.3505
# 6 -10.1091 1.2211 -9.9247 -4.0372 3.3505 27.1004
#
#
#
# Elastic Compliance Matrix: (Units=1/GPa)
#
#
# Indices 1 2 3 4 5 6 
#
# 1 0.012531 -0.001433 0.001054 -0.001605 0.007600 0.003946
# 2 -0.001433 0.009172 -0.001467 -0.003557 0.003732 -0.002476
# 3 0.001054 -0.001467 0.019388 -0.006982 0.004768 0.005930
# 4 -0.001605 -0.003557 -0.006982 0.043865 0.000376 0.003493
# 5 0.007600 0.003732 0.004768 0.000376 0.050279 -0.001747
# 6 0.003946 -0.002476 0.005930 0.003493 -0.001747 0.041391
#
#
# Mechanical properties :
#
#
# Convention : Reuss Voigt Hill
#
# Bulk Modulus (GPa) = 26.73875 42.04423 34.39149
# Shear Modulus (GPa) = 25.93583 31.57303 28.75443
#
# Velocity S-wave (km/s) = 3.35056 3.69680 3.52793
# Velocity P-wave (km/s) = 5.15191 6.03494 5.61083
#
# Compressibility (1/GPa) = 0.03739891
#
# Stress axis : x y z
#
# Youngs Moduli (GPa) = 79.80188 109.02687 51.57955
#
# Poissons Ratio (x) = 0.15619 -0.05437
# Poissons Ratio (y) = 0.11433 0.07568
# Poissons Ratio (z) = -0.08412 0.15998
#
# Static dielectric constant tensor:
#      x y z
#    x 1.911830 -0.010040 0.016770 
#    y -0.010040 1.862690 0.011760 
#    z 0.016770 0.011760 1.866060 
# 
# From -- ./inp_files/3174.got.cif
#   From: 2010.05.17/outbox.cif.g08.bks.cpg/sg1_2_cif.got.tgz:3174.got - 2010.05.17 20:27:59.
