data_PCOD9000546
_publ_section_title
;
Structure prediction by ZEFSAII (Michael W. Deem and Ramdas Pophale) SiO2 
 PCOD9000546
Probable space group: P 1
;
_chemical_formula_sum "Si O2"
_cell_formula_units_Z 8
_cell_length_a 5.381460
_cell_length_b 5.381432
_cell_length_c 13.912342
_cell_angle_alpha 118.235418
_cell_angle_beta 112.038212
_cell_angle_gamma 84.458980
_cell_volume 327.403762
_symmetry_space_group_name_H-M "P 1"
_symmetry_group_IT_number 1
_symmetry_cell_setting 'triclinic'
loop_
_space_group_symop_operation_xyz
x,y,z
loop_
_atom_site_type_symbol
_atom_site_label
_atom_site_fract_x
_atom_site_fract_y
_atom_site_fract_z
Si Si1 0.903510 0.879790 0.343550
Si Si2 0.387300 0.170011 0.055063
Si Si3 0.997140 0.668236 0.109093
Si Si4 0.560785 0.295073 0.901167
Si Si5 0.129948 0.607467 0.820607
Si Si6 0.429998 0.149514 0.262991
Si Si7 0.539395 0.708825 0.717713
Si Si8 0.210655 0.495026 0.446444
O O1 0.921689 0.697378 0.215461
O O2 0.008302 0.712806 0.418095
O O3 0.597794 0.955228 0.318312
O O4 0.068091 0.190009 0.405931
O O5 0.203942 0.430846 0.082076
O O6 0.552441 0.177477 0.179763
O O7 0.580086 0.206965 0.998243
O O8 0.203709 0.881821 0.948697
O O9 0.147739 0.974662 0.165914
O O10 0.755200 0.583979 0.984396
O O11 0.255856 0.352221 0.845843
O O12 0.631387 0.044450 0.798282
O O13 0.315407 0.647291 0.758228
O O14 0.813876 0.563169 0.746061
O O15 0.385140 0.425878 0.365876
O O16 0.397567 0.624471 0.582079
#
# Coordination Sequence:
#
# PCOD9000546 Si02
#       8
#     1   1   1   1   1   1   1   1
#     4  11  26  47  75 108 150 199 250 316 386 450
#     4  11  22  42  69 108 144 194 243 315 383 462
#     4  11  22  42  69 108 144 194 243 315 383 462
#     4  11  26  44  74 106 153 193 252 314 389 459
#     4  11  26  47  75 108 150 199 250 316 386 450
#     4  11  26  44  74 106 153 193 252 314 389 459
#     4  11  28  49  74 111 148 201 260 316 377 459
#     4  11  28  49  74 111 148 201 260 316 377 459
#
# _framework density 24.434660999999998
#
# number of rings (size 3 to 8) (size 9 to 14) (size 15 to 20)
#    0.000    1.000    2.500    2.250   10.500    0.000 
#    0.000    0.000    0.000    0.000    0.000    0.000 
#    0.000    0.000    0.000    0.000    0.000    0.000 
#
# Total GULP energy -44795.027303 kJ/mol
# GULP energy per Si atom -5599.378413 kJ/mol
# Density = 2.437905 g / cm^3
# Si number density = 24.434661 Si / 1000 Ang^3
#
#
#
# Elastic Constant Matrix: (Units=GPa)
#
#
# Indices 1 2 3 4 5 6 
#
# 1 90.3764 28.4991 52.7248 -9.1688 11.0435 -13.2147
# 2 28.4991 102.6909 56.1913 -16.1428 8.0076 -16.5050
# 3 52.7248 56.1913 183.2648 -19.1478 13.4901 -7.5585
# 4 -9.1688 -16.1428 -19.1478 29.1819 -0.9838 7.5789
# 5 11.0435 8.0076 13.4901 -0.9838 28.1157 -6.9034
# 6 -13.2147 -16.5050 -7.5585 7.5789 -6.9034 42.1202
#
#
#
# Elastic Compliance Matrix: (Units=1/GPa)
#
#
# Indices 1 2 3 4 5 6 
#
# 1 0.014239 -0.001378 -0.003266 0.000763 -0.002938 0.002722
# 2 -0.001378 0.012948 -0.002974 0.003901 -0.000778 0.003278
# 3 -0.003266 -0.002974 0.007661 0.002710 -0.001845 -0.001605
# 4 0.000763 0.003901 0.002710 0.039739 -0.002628 -0.005327
# 5 -0.002938 -0.000778 -0.001845 -0.002628 0.039041 0.005314
# 6 0.002722 0.003278 -0.001605 -0.005327 0.005314 0.027422
#
#
# Mechanical properties :
#
#
# Convention : Reuss Voigt Hill
#
# Bulk Modulus (GPa) = 50.98599 72.35139 61.66869
# Shear Modulus (GPa) = 30.70832 35.81135 33.25983
#
# Velocity S-wave (km/s) = 3.54892 3.83246 3.69341
# Velocity P-wave (km/s) = 6.14041 7.01841 6.59404
#
# Compressibility (1/GPa) = 0.01961323
#
# Stress axis : x y z
#
# Youngs Moduli (GPa) = 70.22903 77.22983 130.53702
#
# Poissons Ratio (x) = 0.10643 0.42630
# Poissons Ratio (y) = 0.09679 0.38816
# Poissons Ratio (z) = 0.22935 0.22965
#
# Static dielectric constant tensor:
#      x y z
#    x 2.041610 0.074180 0.010140 
#    y 0.074180 2.016080 -0.003100 
#    z 0.010140 -0.003100 1.868160 
# 
# From -- ./inp_files/407.got.cif
#   From: 2010.05.17/outbox.cif.g08.bks.cpg/sg1_1_cif.got.tgz:407.got - 2010.05.17 20:27:59.
