data_PCOD9000685
_publ_section_title
;
Structure prediction by ZEFSAII (Michael W. Deem and Ramdas Pophale) SiO2 
 PCOD9000685
Probable space group: P 1
;
_chemical_formula_sum "Si O2"
_cell_formula_units_Z 8
_cell_length_a 9.770875
_cell_length_b 8.180506
_cell_length_c 8.441515
_cell_angle_alpha 124.823207
_cell_angle_beta 122.135191
_cell_angle_gamma 34.277722
_cell_volume 309.318121
_symmetry_space_group_name_H-M "P 1"
_symmetry_group_IT_number 1
_symmetry_cell_setting 'triclinic'
loop_
_space_group_symop_operation_xyz
x,y,z
loop_
_atom_site_type_symbol
_atom_site_label
_atom_site_fract_x
_atom_site_fract_y
_atom_site_fract_z
Si Si1 0.401300 0.642670 0.509810
Si Si2 0.903137 0.285702 0.445782
Si Si3 0.274768 0.016618 0.952062
Si Si4 0.114893 0.585125 0.440495
Si Si5 0.933881 0.994888 0.838224
Si Si6 0.725633 0.654993 0.261546
Si Si7 0.512011 0.123957 0.661588
Si Si8 0.155215 0.418735 0.847828
O O1 0.658575 0.430472 0.462336
O O2 0.378892 0.790583 0.741147
O O3 0.335803 0.476343 0.419943
O O4 0.158939 0.929369 0.419856
O O5 0.837298 0.363838 0.262444
O O6 0.977815 0.417671 0.659929
O O7 0.060465 0.090507 0.949762
O O8 0.184264 0.308676 0.981788
O O9 0.491580 0.838485 0.112638
O O10 0.975389 0.884844 0.618761
O O11 0.919168 0.615699 0.270852
O O12 0.252036 0.352247 0.540599
O O13 0.060530 0.723975 0.895219
O O14 0.646278 0.212358 0.802063
O O15 0.659564 0.843286 0.483400
O O16 0.432474 0.138584 0.795059
#
# Coordination Sequence:
#
# PCOD9000685 Si02
#       8
#     1   1   1   1   1   1   1   1
#     4  10  24  41  66  95 118 170 220 257 302 387
#     4  11  21  40  67  90 125 166 217 253 311 385
#     4  10  23  40  58  98 127 160 210 268 321 368
#     4   9  20  37  62  90 117 164 214 258 309 376
#     4   9  19  38  62  86 121 165 215 255 311 378
#     4  11  21  39  60  92 128 162 201 267 326 367
#     4  10  18  38  68  85 121 170 216 254 311 384
#     4  10  20  39  63  90 115 173 215 254 307 383
#
# _framework density 25.863339
#
# number of rings (size 3 to 8) (size 9 to 14) (size 15 to 20)
#    0.000    2.000    3.750    1.500    7.000    0.000 
#    6.750    1.250    0.000    0.000    0.000    0.000 
#    0.000    0.000    0.000    0.000    0.000    0.000 
#
# Total GULP energy -44638.055556 kJ/mol
# GULP energy per Si atom -5579.756944 kJ/mol
# Density = 2.580447 g / cm^3
# Si number density = 25.863339 Si / 1000 Ang^3
#
#
#
# Elastic Constant Matrix: (Units=GPa)
#
#
# Indices 1 2 3 4 5 6 
#
# 1 216.9483 39.7237 53.0083 -5.7409 3.2061 -29.3192
# 2 39.7237 70.0181 31.0795 -21.9471 -9.1589 -1.4503
# 3 53.0083 31.0795 99.6498 -23.1404 0.1533 -3.8334
# 4 -5.7409 -21.9471 -23.1404 46.3991 -1.5595 -2.2669
# 5 3.2061 -9.1589 0.1533 -1.5595 41.4760 -8.2916
# 6 -29.3192 -1.4503 -3.8334 -2.2669 -8.2916 56.4559
#
#
#
# Elastic Compliance Matrix: (Units=1/GPa)
#
#
# Indices 1 2 3 4 5 6 
#
# 1 0.006125 -0.002883 -0.002676 -0.001826 -0.000617 0.002761
# 2 -0.002883 0.020394 -0.002991 0.007961 0.005013 -0.000121
# 3 -0.002676 -0.002991 0.013530 0.004969 -0.000398 -0.000407
# 4 -0.001826 0.007961 0.004969 0.027733 0.003158 0.001171
# 5 -0.000617 0.005013 -0.000398 0.003158 0.026134 0.003746
# 6 0.002761 -0.000121 -0.000407 0.001171 0.003746 0.019713
#
#
# Mechanical properties :
#
#
# Convention : Reuss Voigt Hill
#
# Bulk Modulus (GPa) = 43.57378 70.47105 57.02241
# Shear Modulus (GPa) = 36.13275 46.38651 41.25963
#
# Velocity S-wave (km/s) = 3.74179 4.23960 3.99845
# Velocity P-wave (km/s) = 5.96257 7.16046 6.58879
#
# Compressibility (1/GPa) = 0.02294958
#
# Stress axis : x y z
#
# Youngs Moduli (GPa) = 163.26323 49.03491 73.90904
#
# Poissons Ratio (x) = 0.14137 0.19777
# Poissons Ratio (y) = 0.47071 0.22103
# Poissons Ratio (z) = 0.43688 0.14664
#
# Static dielectric constant tensor:
#      x y z
#    x 2.071970 0.113640 0.004920 
#    y 0.113640 2.262380 0.079960 
#    z 0.004920 0.079960 2.040400 
# 
# From -- ./inp_files/1099.got.cif
#   From: 2010.05.17/outbox.cif.g08.bks.cpg/sg1_1_cif.got.tgz:1099.got - 2010.05.17 20:27:59.
