data_PCOD9000631
_publ_section_title
;
Structure prediction by ZEFSAII (Michael W. Deem and Ramdas Pophale) SiO2 
 PCOD9000631
Probable space group: P 1
;
_chemical_formula_sum "Si O2"
_cell_formula_units_Z 8
_cell_length_a 8.648234
_cell_length_b 12.322171
_cell_length_c 5.176127
_cell_angle_alpha 86.263350
_cell_angle_beta 94.565613
_cell_angle_gamma 143.942617
_cell_volume 323.635090
_symmetry_space_group_name_H-M "P 1"
_symmetry_group_IT_number 1
_symmetry_cell_setting 'triclinic'
loop_
_space_group_symop_operation_xyz
x,y,z
loop_
_atom_site_type_symbol
_atom_site_label
_atom_site_fract_x
_atom_site_fract_y
_atom_site_fract_z
Si Si1 0.580570 0.042440 0.346260
Si Si2 0.936813 0.445790 0.483369
Si Si3 0.039929 0.815888 0.141800
Si Si4 0.453449 0.477640 0.349562
Si Si5 0.255738 0.575797 0.024427
Si Si6 0.728287 0.993815 0.872286
Si Si7 0.248490 0.177196 0.055679
Si Si8 0.726129 0.520968 0.758738
O O1 0.722211 0.234811 0.410322
O O2 0.648411 0.994818 0.584475
O O3 0.271027 0.888529 0.315074
O O4 0.683857 0.058889 0.079740
O O5 0.810580 0.486739 0.551632
O O6 0.094929 0.488591 0.748173
O O7 0.110372 0.561409 0.232300
O O8 0.985013 0.719005 0.886387
O O9 0.141303 0.995862 0.097461
O O10 0.747464 0.651124 0.244394
O O11 0.534900 0.513644 0.653353
O O12 0.295941 0.484870 0.194364
O O13 0.299475 0.278954 0.300344
O O14 0.535092 0.786942 0.962139
O O15 0.023405 0.116547 0.886360
O O16 0.535374 0.341143 0.939319
#
# Coordination Sequence:
#
# PCOD9000631 Si02
#       8
#     1   1   1   1   1   1   1   1
#     4  12  28  49  77 113 152 202 255 311 378 454
#     4  12  28  51  76 112 153 203 252 314 380 449
#     4  11  27  49  76 111 153 198 255 309 381 451
#     4  11  26  49  74 111 150 202 249 316 377 449
#     4  12  28  50  78 110 156 199 255 313 380 448
#     4  12  28  50  77 114 150 203 254 314 376 454
#     4  11  26  51  75 112 151 199 255 311 381 451
#     4  11  29  47  79 109 155 200 251 316 377 452
#
# _framework density 24.719199
#
# number of rings (size 3 to 8) (size 9 to 14) (size 15 to 20)
#    0.000    0.500    1.250    4.500   19.250    2.000 
#    0.000    0.000    0.000    0.000    0.000    0.000 
#    0.000    0.000    0.000    0.000    0.000    0.000 
#
# Total GULP energy -44813.684669 kJ/mol
# GULP energy per Si atom -5601.710584 kJ/mol
# Density = 2.466294 g / cm^3
# Si number density = 24.719199 Si / 1000 Ang^3
#
#
#
# Elastic Constant Matrix: (Units=GPa)
#
#
# Indices 1 2 3 4 5 6 
#
# 1 105.2018 37.2305 31.4884 17.9697 27.0675 7.2161
# 2 37.2305 153.9203 35.4259 27.4402 1.8218 -10.1550
# 3 31.4884 35.4259 103.6417 16.3384 21.6756 10.0286
# 4 17.9697 27.4402 16.3384 42.1472 8.3369 -1.5289
# 5 27.0675 1.8218 21.6756 8.3369 51.8958 0.2509
# 6 7.2161 -10.1550 10.0286 -1.5289 0.2509 45.5744
#
#
#
# Elastic Compliance Matrix: (Units=1/GPa)
#
#
# Indices 1 2 3 4 5 6 
#
# 1 0.012771 -0.002475 -0.001258 -0.002310 -0.005666 -0.002343
# 2 -0.002475 0.008483 -0.002316 -0.003986 0.002588 0.002644
# 3 -0.001258 -0.002316 0.012287 -0.002028 -0.004054 -0.003066
# 4 -0.002310 -0.003986 -0.002028 0.028601 -0.002407 0.000897
# 5 -0.005666 0.002588 -0.004054 -0.002407 0.024203 0.002152
# 6 -0.002343 0.002644 -0.003066 0.000897 0.002152 0.023595
#
#
# Mechanical properties :
#
#
# Convention : Reuss Voigt Hill
#
# Bulk Modulus (GPa) = 46.63834 63.45041 55.04438
# Shear Modulus (GPa) = 38.70335 45.16474 41.93405
#
# Velocity S-wave (km/s) = 3.96121 4.27911 4.12323
# Velocity P-wave (km/s) = 6.31109 7.08086 6.70703
#
# Compressibility (1/GPa) = 0.02144159
#
# Stress axis : x y z
#
# Youngs Moduli (GPa) = 78.30037 117.88163 81.38796
#
# Poissons Ratio (x) = 0.29179 0.10240
# Poissons Ratio (y) = 0.19382 0.18853
# Poissons Ratio (z) = 0.09851 0.27306
#
# Static dielectric constant tensor:
#      x y z
#    x 1.958950 -0.022080 0.015620 
#    y -0.022080 1.912340 -0.033260 
#    z 0.015620 -0.033260 2.059170 
# 
# From -- ./inp_files/1738.got.cif
#   From: 2010.05.17/outbox.cif.g08.bks.cpg/sg1_1_cif.got.tgz:1738.got - 2010.05.17 20:27:59.
