data_PCOD9000977
_publ_section_title
;
Structure prediction by ZEFSAII (Michael W. Deem and Ramdas Pophale) SiO2 
 PCOD9000977
Probable space group: P 1
;
_chemical_formula_sum "Si O2"
_cell_formula_units_Z 8
_cell_length_a 7.053287
_cell_length_b 10.840982
_cell_length_c 7.260324
_cell_angle_alpha 47.041856
_cell_angle_beta 84.254504
_cell_angle_gamma 111.026178
_cell_volume 327.447236
_symmetry_space_group_name_H-M "P 1"
_symmetry_group_IT_number 1
_symmetry_cell_setting 'triclinic'
loop_
_space_group_symop_operation_xyz
x,y,z
loop_
_atom_site_type_symbol
_atom_site_label
_atom_site_fract_x
_atom_site_fract_y
_atom_site_fract_z
Si Si1 0.663840 0.922670 0.927050
Si Si2 0.658122 0.071953 0.153180
Si Si3 0.115134 0.007094 0.617824
Si Si4 0.627869 0.276738 0.445846
Si Si5 0.622155 0.426023 0.671972
Si Si6 0.170855 0.341588 0.981217
Si Si7 0.446270 0.717188 0.810240
Si Si8 0.839720 0.631502 0.788786
O O1 0.449441 0.747067 0.998477
O O2 0.892599 0.932360 0.845469
O O3 0.722290 0.144640 0.631821
O O4 0.612450 0.914184 0.155093
O O5 0.563707 0.204054 0.967198
O O6 0.936366 0.232314 0.996420
O O7 0.547140 0.937313 0.483483
O O8 0.349626 0.116371 0.602616
O O9 0.393392 0.416325 0.753568
O O10 0.059760 0.816054 0.691520
O O11 0.738846 0.411376 0.115543
O O12 0.673541 0.434508 0.443930
O O13 0.836552 0.601625 0.600548
O O14 0.142994 0.174341 0.299521
O O15 0.226228 0.532628 0.907522
O O16 0.642998 0.674349 0.799508
#
# Coordination Sequence:
#
# PCOD9000977 Si02
#       8
#     1   1   1   1   1   1   1   1
#     4  10  23  41  62  89 120 158 194 247 295 348
#     4  11  22  43  61  87 125 152 198 248 291 351
#     4  11  22  40  62  89 118 160 197 240 300 347
#     4  11  22  43  61  87 125 152 198 248 291 351
#     4  10  23  41  62  89 120 158 194 247 295 348
#     4  11  22  40  62  89 118 160 197 240 300 347
#     4  10  21  39  61  90 117 158 198 240 297 348
#     4  10  21  39  61  90 117 158 198 240 297 348
#
# _framework density 24.431415000000001
#
# number of rings (size 3 to 8) (size 9 to 14) (size 15 to 20)
#    0.000    1.500    5.000    1.500    0.000    5.000 
#    4.500    2.500    0.000    0.000    0.000    0.000 
#    0.000    0.000    0.000    0.000    0.000    0.000 
#
# Total GULP energy -44806.553919 kJ/mol
# GULP energy per Si atom -5600.819240 kJ/mol
# Density = 2.437581 g / cm^3
# Si number density = 24.431415 Si / 1000 Ang^3
#
#
#
# Elastic Constant Matrix: (Units=GPa)
#
#
# Indices 1 2 3 4 5 6 
#
# 1 92.1431 35.3274 4.4425 -2.1412 7.6030 2.3664
# 2 35.3274 211.3335 -10.9053 -4.0478 -16.1602 -2.1450
# 3 4.4425 -10.9053 52.9030 -11.8837 16.3077 5.4051
# 4 -2.1412 -4.0478 -11.8837 37.7220 -2.5419 0.6275
# 5 7.6030 -16.1602 16.3077 -2.5419 19.7950 -2.5851
# 6 2.3664 -2.1450 5.4051 0.6275 -2.5851 33.2997
#
#
#
# Elastic Compliance Matrix: (Units=1/GPa)
#
#
# Indices 1 2 3 4 5 6 
#
# 1 0.012553 -0.002678 0.001173 0.000275 -0.008186 -0.001896
# 2 -0.002678 0.005660 -0.000507 0.000702 0.006303 0.001113
# 3 0.001173 -0.000507 0.028574 0.007487 -0.024329 -0.006784
# 4 0.000275 0.000702 0.007487 0.028840 -0.002247 -0.001907
# 5 -0.008186 0.006303 -0.024329 -0.002247 0.080023 0.011191
# 6 -0.001896 0.001113 -0.006784 -0.001907 0.011191 0.032243
#
#
# Mechanical properties :
#
#
# Convention : Reuss Voigt Hill
#
# Bulk Modulus (GPa) = 23.38525 46.01209 34.69867
# Shear Modulus (GPa) = 24.25152 39.99768 32.12460
#
# Velocity S-wave (km/s) = 3.15403 4.05055 3.63007
# Velocity P-wave (km/s) = 4.78084 6.38357 5.63944
#
# Compressibility (1/GPa) = 0.04276199
#
# Stress axis : x y z
#
# Youngs Moduli (GPa) = 79.65985 176.67757 34.99678
#
# Poissons Ratio (x) = 0.47313 -0.04104
# Poissons Ratio (y) = 0.21332 0.01776
# Poissons Ratio (z) = -0.09341 0.08964
#
# Static dielectric constant tensor:
#      x y z
#    x 1.929210 -0.016620 0.027700 
#    y -0.016620 1.968880 -0.039800 
#    z 0.027700 -0.039800 1.889690 
# 
# From -- ./inp_files/4788.got.cif
#   From: 2010.05.17/outbox.cif.g08.bks.cpg/sg1_3_cif.got.tgz:4788.got - 2010.05.17 20:27:59.
