data_PCOD9000359
_publ_section_title
;
Structure prediction by ZEFSAII (Michael W. Deem and Ramdas Pophale) SiO2 
 PCOD9000359
Probable space group: P 1
;
_chemical_formula_sum "Si O2"
_cell_formula_units_Z 8
_cell_length_a 7.314823
_cell_length_b 9.598768
_cell_length_c 5.164252
_cell_angle_alpha 69.208126
_cell_angle_beta 98.107249
_cell_angle_gamma 62.026945
_cell_volume 277.839021
_symmetry_space_group_name_H-M "P 1"
_symmetry_group_IT_number 1
_symmetry_cell_setting 'triclinic'
loop_
_space_group_symop_operation_xyz
x,y,z
loop_
_atom_site_type_symbol
_atom_site_label
_atom_site_fract_x
_atom_site_fract_y
_atom_site_fract_z
Si Si1 0.503990 0.036310 0.031390
Si Si2 0.885250 0.780818 0.949329
Si Si3 0.834758 0.431644 0.780564
Si Si4 0.749315 0.135452 0.449038
Si Si5 0.097365 0.040491 0.184237
Si Si6 0.195761 0.696907 0.646215
Si Si7 0.575442 0.535780 0.176781
Si Si8 0.219635 0.417168 0.575192
O O1 0.632048 0.087063 0.229615
O O2 0.325232 0.021474 0.171024
O O3 0.375700 0.205880 0.690511
O O4 0.658794 0.854321 0.015610
O O5 0.966665 0.737574 0.694455
O O6 0.832315 0.984996 0.786749
O O7 0.067972 0.585877 0.241612
O O8 0.649835 0.558881 0.452850
O O9 0.054889 0.417721 0.751085
O O10 0.751257 0.496950 0.010061
O O11 0.908043 0.226667 0.886790
O O12 0.589132 0.348451 0.326330
O O13 0.983782 0.097330 0.411047
O O14 0.145436 0.842314 0.326536
O O15 0.341159 0.496381 0.696268
O O16 0.339294 0.693352 0.914621
#
# Coordination Sequence:
#
# PCOD9000359 Si02
#       8
#     1   1   1   1   1   1   1   1
#     4  11  24  49  73 105 151 204 249 324 386 465
#     4  11  26  41  74 108 149 194 256 319 383 459
#     4  10  26  48  74 111 157 201 259 321 390 467
#     4  10  23  45  72 106 152 195 259 312 388 454
#     4   9  23  48  70 107 150 202 252 316 388 462
#     4  11  25  45  75 111 153 199 263 317 387 468
#     4  11  25  45  79 110 154 201 256 322 391 452
#     4  11  26  47  75 108 150 200 262 313 391 463
#
# _framework density 28.793651000000001
#
# number of rings (size 3 to 8) (size 9 to 14) (size 15 to 20)
#    0.000    1.500    1.250    1.500   12.250    1.000 
#   11.250    0.000    0.000    0.000    0.000    0.000 
#    0.000    0.000    0.000    0.000    0.000    0.000 
#
# Total GULP energy -44655.238752 kJ/mol
# GULP energy per Si atom -5581.904844 kJ/mol
# Density = 2.872812 g / cm^3
# Si number density = 28.793651 Si / 1000 Ang^3
#
#
#
# Elastic Constant Matrix: (Units=GPa)
#
#
# Indices 1 2 3 4 5 6 
#
# 1 92.4010 41.3629 65.7918 1.8790 -25.0811 -26.0165
# 2 41.3629 131.3288 51.3290 -34.9856 0.3857 -16.1221
# 3 65.7918 51.3290 191.6673 -44.5371 -17.2911 4.7196
# 4 1.8790 -34.9856 -44.5371 59.0627 -5.2721 -3.4175
# 5 -25.0811 0.3857 -17.2911 -5.2721 53.0065 -5.3458
# 6 -26.0165 -16.1221 4.7196 -3.4175 -5.3458 46.2102
#
#
#
# Elastic Compliance Matrix: (Units=1/GPa)
#
#
# Indices 1 2 3 4 5 6 
#
# 1 0.027373 -0.005656 -0.009544 -0.009625 0.010426 0.014907
# 2 -0.005656 0.011250 0.000368 0.007016 -0.001838 0.001010
# 3 -0.009544 0.000368 0.010273 0.007844 -0.000975 -0.005827
# 4 -0.009625 0.007016 0.007844 0.027254 0.000493 -0.001700
# 5 0.010426 -0.001838 -0.000975 0.000493 0.024368 0.008184
# 6 0.014907 0.001010 -0.005827 -0.001700 0.008184 0.031801
#
#
# Mechanical properties :
#
#
# Convention : Reuss Voigt Hill
#
# Bulk Modulus (GPa) = 51.99544 81.37384 66.68464
# Shear Modulus (GPa) = 29.69214 48.78343 39.23779
#
# Velocity S-wave (km/s) = 3.21472 4.12058 3.69551
# Velocity P-wave (km/s) = 5.64592 7.13872 6.43575
#
# Compressibility (1/GPa) = 0.01923246
#
# Stress axis : x y z
#
# Youngs Moduli (GPa) = 36.53251 88.88726 97.33973
#
# Poissons Ratio (x) = 0.50270 0.92906
# Poissons Ratio (y) = 0.20661 -0.03582
# Poissons Ratio (z) = 0.34868 -0.03271
#
# Static dielectric constant tensor:
#      x y z
#    x 2.378790 0.009250 0.003430 
#    y 0.009250 2.285480 0.053780 
#    z 0.003430 0.053780 2.224540 
# 
# From -- ./inp_files/1481.got.cif
#   From: 2010.05.17/outbox.cif.g08.bks.cpg/sg1_1_cif.got.tgz:1481.got - 2010.05.17 20:27:59.
