data_PCOD9000223
_publ_section_title
;
Structure prediction by ZEFSAII (Michael W. Deem and Ramdas Pophale) SiO2 
 PCOD9000223
Probable space group: P 1
;
_chemical_formula_sum "Si O2"
_cell_formula_units_Z 6
_cell_length_a 7.391267
_cell_length_b 8.817622
_cell_length_c 7.391256
_cell_angle_alpha 124.871488
_cell_angle_beta 36.877311
_cell_angle_gamma 124.871763
_cell_volume 230.679290
_symmetry_space_group_name_H-M "P 1"
_symmetry_group_IT_number 1
_symmetry_cell_setting 'triclinic'
loop_
_space_group_symop_operation_xyz
x,y,z
loop_
_atom_site_type_symbol
_atom_site_label
_atom_site_fract_x
_atom_site_fract_y
_atom_site_fract_z
Si Si1 0.693840 0.750000 0.182210
Si Si2 0.814703 0.965766 0.579839
Si Si3 0.114895 0.480583 0.591995
Si Si4 0.460096 0.670477 0.937195
Si Si5 0.472253 0.185295 0.237387
Si Si6 0.869881 0.401060 0.358251
O O1 0.343260 0.674653 0.476055
O O2 0.652043 0.786888 0.029729
O O3 0.839838 0.916014 0.315735
O O4 0.848708 0.567905 0.953173
O O5 0.168883 0.016128 0.403612
O O6 0.648480 0.134933 0.883206
O O7 0.582646 0.789294 0.742967
O O8 0.309127 0.361767 0.469443
O O9 0.022358 0.364171 0.400051
O O10 0.098918 0.583157 0.203385
O O11 0.576033 0.476406 0.708830
O O12 0.736359 0.235047 0.212250
#
# Coordination Sequence:
#
# PCOD9000223 Si02
#       6
#     1   1   1   1   1   1
#     4  10  22  43  69  93 124 173 225 266 311 382
#     4  12  25  40  65 100 136 170 206 268 339 386
#     4  10  22  43  69  93 124 173 225 266 311 382
#     4  10  22  43  69  93 124 173 225 266 311 382
#     4  12  25  40  65 100 136 170 206 268 339 386
#     4  10  22  43  69  93 124 173 225 266 311 382
#
# _framework density 26.010135999999999
#
# number of rings (size 3 to 8) (size 9 to 14) (size 15 to 20)
#    0.000    1.333    0.000    5.000    0.000    4.000 
#    0.000    3.333    0.000    0.000    0.000    0.000 
#    0.000    0.000    0.000    0.000    0.000    0.000 
#
# Total GULP energy -33544.455201 kJ/mol
# GULP energy per Si atom -5590.742534 kJ/mol
# Density = 2.595094 g / cm^3
# Si number density = 26.010136 Si / 1000 Ang^3
#
#
#
# Elastic Constant Matrix: (Units=GPa)
#
#
# Indices 1 2 3 4 5 6 
#
# 1 137.7130 33.3299 27.2619 15.0959 25.7391 49.0928
# 2 33.3299 94.5100 21.8974 5.5329 8.6150 28.7679
# 3 27.2619 21.8974 120.0421 4.7786 -0.0151 18.0244
# 4 15.0959 5.5329 4.7786 44.0595 8.7921 0.9489
# 5 25.7391 8.6150 -0.0151 8.7921 44.5042 9.0470
# 6 49.0928 28.7679 18.0244 0.9489 9.0470 38.8644
#
#
#
# Elastic Compliance Matrix: (Units=1/GPa)
#
#
# Indices 1 2 3 4 5 6 
#
# 1 0.014826 0.001060 -0.000690 -0.003883 -0.004336 -0.018088
# 2 0.001060 0.013954 -0.001078 -0.001609 -0.000771 -0.010949
# 3 -0.000690 -0.001078 0.009148 -0.000829 0.001358 -0.002868
# 4 -0.003883 -0.001609 -0.000829 0.024919 -0.003737 0.006742
# 5 -0.004336 -0.000771 0.001358 -0.003737 0.025975 -0.000537
# 6 -0.018088 -0.010949 -0.002868 0.006742 -0.000537 0.057974
#
#
# Mechanical properties :
#
#
# Convention : Reuss Voigt Hill
#
# Bulk Modulus (GPa) = 27.38957 57.47149 42.43053
# Shear Modulus (GPa) = 31.17531 43.47069 37.32300
#
# Velocity S-wave (km/s) = 3.46581 4.09259 3.79217
# Velocity P-wave (km/s) = 5.15451 6.66904 5.96008
#
# Compressibility (1/GPa) = 0.03651025
#
# Stress axis : x y z
#
# Youngs Moduli (GPa) = 67.45015 71.66312 109.31685
#
# Poissons Ratio (x) = -0.07595 0.07547
# Poissons Ratio (y) = -0.07149 0.11786
# Poissons Ratio (z) = 0.04657 0.07727
#
# Static dielectric constant tensor:
#      x y z
#    x 2.032680 0.013590 0.021370 
#    y 0.013590 2.106960 0.036180 
#    z 0.021370 0.036180 1.980610 
# 
# From -- ./inp_files/4736.got.cif
#   From: 2010.05.17/outbox.cif.g08.bks.cpg/sg1_3_cif.got.tgz:4736.got - 2010.05.17 20:27:59.
