data_PCOD9000607
_publ_section_title
;
Structure prediction by ZEFSAII (Michael W. Deem and Ramdas Pophale) SiO2 
 PCOD9000607
Probable space group: P 1
;
_chemical_formula_sum "Si O2"
_cell_formula_units_Z 6
_cell_length_a 8.285694
_cell_length_b 5.383963
_cell_length_c 9.666856
_cell_angle_alpha 101.197007
_cell_angle_beta 136.081594
_cell_angle_gamma 62.030886
_cell_volume 256.818048
_symmetry_space_group_name_H-M "P 1"
_symmetry_group_IT_number 1
_symmetry_cell_setting 'triclinic'
loop_
_space_group_symop_operation_xyz
x,y,z
loop_
_atom_site_type_symbol
_atom_site_label
_atom_site_fract_x
_atom_site_fract_y
_atom_site_fract_z
Si Si1 0.061110 0.759830 0.513660
Si Si2 0.160270 0.148144 0.394995
Si Si3 0.705790 0.635653 0.637153
Si Si4 0.226361 0.674324 0.903607
Si Si5 0.528219 0.294457 0.282685
Si Si6 0.014562 0.253827 0.016850
O O1 0.103584 0.453890 0.454000
O O2 0.239970 0.721748 0.755154
O O3 0.112413 0.946207 0.450587
O O4 0.751358 0.962166 0.384672
O O5 0.994213 0.189898 0.156624
O O6 0.473537 0.963276 0.531355
O O7 0.623258 0.462783 0.461365
O O8 0.987696 0.597781 0.761146
O O9 0.756405 0.493405 0.805374
O O10 0.479204 0.428656 0.112718
O O11 0.128859 0.966741 0.962702
O O12 0.243117 0.347404 0.163175
#
# Coordination Sequence:
#
# PCOD9000607 Si02
#       6
#     1   1   1   1   1   1
#     4  12  28  46  70 110 151 183 231 305 368 413
#     4  12  28  46  70 110 151 183 231 305 368 413
#     4  11  24  47  76 102 141 191 245 291 346 435
#     4  11  25  45  78 102 134 196 250 280 350 436
#     4  11  24  47  76 102 141 191 245 291 346 435
#     4  11  25  45  78 102 134 196 250 280 350 436
#
# _framework density 23.362846999999999
#
# number of rings (size 3 to 8) (size 9 to 14) (size 15 to 20)
#    0.000    0.667    3.333    3.000    9.333    2.667 
#    0.000    0.000    0.000    0.000    0.000    0.000 
#    0.000    0.000    0.000    0.000    0.000    0.000 
#
# Total GULP energy -33626.306596 kJ/mol
# GULP energy per Si atom -5604.384433 kJ/mol
# Density = 2.330967 g / cm^3
# Si number density = 23.362847 Si / 1000 Ang^3
#
#
#
# Elastic Constant Matrix: (Units=GPa)
#
#
# Indices 1 2 3 4 5 6 
#
# 1 69.7084 4.0210 34.6996 3.4384 -18.3893 14.4672
# 2 4.0210 123.7660 34.5779 -11.1965 12.5411 -13.5189
# 3 34.6996 34.5779 183.6417 -21.3310 -26.3763 3.1111
# 4 3.4384 -11.1965 -21.3310 47.1288 14.2846 5.0742
# 5 -18.3893 12.5411 -26.3763 14.2846 52.3435 -5.2131
# 6 14.4672 -13.5189 3.1111 5.0742 -5.2131 39.7950
#
#
#
# Elastic Compliance Matrix: (Units=1/GPa)
#
#
# Indices 1 2 3 4 5 6 
#
# 1 0.018853 -0.001469 -0.002797 -0.004229 0.006144 -0.005790
# 2 -0.001469 0.009639 -0.001900 0.002460 -0.004145 0.003100
# 3 -0.002797 -0.001900 0.006926 0.002190 0.002351 -0.000141
# 4 -0.004229 0.002460 0.002190 0.025833 -0.008238 -0.002171
# 5 0.006144 -0.004145 0.002351 -0.008238 0.025748 0.000598
# 6 -0.005790 0.003100 -0.000141 -0.002171 0.000598 0.028653
#
#
# Mechanical properties :
#
#
# Convention : Reuss Voigt Hill
#
# Bulk Modulus (GPa) = 43.31112 58.19034 50.75073
# Shear Modulus (GPa) = 36.85144 48.10796 42.47970
#
# Velocity S-wave (km/s) = 3.97590 4.54273 4.26873
# Velocity P-wave (km/s) = 6.29728 7.24406 6.78720
#
# Compressibility (1/GPa) = 0.02308876
#
# Stress axis : x y z
#
# Youngs Moduli (GPa) = 53.04111 103.74016 144.38473
#
# Poissons Ratio (x) = 0.15237 0.40378
# Poissons Ratio (y) = 0.07791 0.27428
# Poissons Ratio (z) = 0.14833 0.19707
#
# Static dielectric constant tensor:
#      x y z
#    x 1.990630 0.044200 -0.032280 
#    y 0.044200 1.866260 -0.009780 
#    z -0.032280 -0.009780 1.914790 
# 
# From -- ./inp_files/154.got.cif
#   From: 2010.05.17/outbox.cif.g08.bks.cpg/sg1_1_cif.got.tgz:154.got - 2010.05.17 20:27:59.
