data_PCOD9000492
_publ_section_title
;
Structure prediction by ZEFSAII (Michael W. Deem and Ramdas Pophale) SiO2 
 PCOD9000492
Probable space group: P 1
;
_chemical_formula_sum "Si O2"
_cell_formula_units_Z 8
_cell_length_a 4.731957
_cell_length_b 12.507181
_cell_length_c 8.336067
_cell_angle_alpha 128.002573
_cell_angle_beta 123.506736
_cell_angle_gamma 85.809176
_cell_volume 296.224293
_symmetry_space_group_name_H-M "P 1"
_symmetry_group_IT_number 1
_symmetry_cell_setting 'triclinic'
loop_
_space_group_symop_operation_xyz
x,y,z
loop_
_atom_site_type_symbol
_atom_site_label
_atom_site_fract_x
_atom_site_fract_y
_atom_site_fract_z
Si Si1 0.664680 0.418120 0.872920
Si Si2 0.979981 0.505593 0.385391
Si Si3 0.392790 0.908673 0.246907
Si Si4 0.163806 0.111382 0.562740
Si Si5 0.577541 0.418314 0.503409
Si Si6 0.823040 0.123070 0.009190
Si Si7 0.253816 0.933055 0.872250
Si Si8 0.720323 0.700920 0.299181
O O1 0.311057 0.266207 0.656786
O O2 0.797656 0.417003 0.733077
O O3 0.922364 0.432449 0.120914
O O4 0.638330 0.576491 0.024707
O O5 0.792011 0.422438 0.412157
O O6 0.744699 0.607147 0.376507
O O7 0.418097 0.547622 0.581904
O O8 0.274292 0.860504 0.982034
O O9 0.459393 0.784239 0.254712
O O10 0.776737 0.057161 0.484412
O O11 0.133266 0.970877 0.315401
O O12 0.491462 0.133755 0.812994
O O13 0.198663 0.269984 0.258457
O O14 0.948169 0.998864 0.863597
O O15 0.640119 0.066556 0.072741
O O16 0.128199 0.830911 0.579465
#
# Coordination Sequence:
#
# PCOD9000492 Si02
#       8
#     1   1   1   1   1   1   1   1
#     4  10  26  48  73 109 143 191 239 301 359 432
#     4  10  27  43  70 105 142 189 233 298 351 427
#     4  12  26  46  74 102 142 193 236 294 358 432
#     4  12  24  48  72 105 143 186 241 299 357 421
#     4  12  24  48  72 107 141 192 241 293 365 422
#     4  12  23  45  74 103 144 185 237 303 352 424
#     4  12  25  45  71 105 141 187 241 289 360 432
#     4  10  25  49  68 108 144 191 232 303 358 430
#
# _framework density 27.006565999999999
#
# number of rings (size 3 to 8) (size 9 to 14) (size 15 to 20)
#    0.750    0.000    3.750    3.000    3.500    4.000 
#    2.250    0.000    0.000    0.000    0.000    0.000 
#    0.000    0.000    0.000    0.000    0.000    0.000 
#
# Total GULP energy -44671.430625 kJ/mol
# GULP energy per Si atom -5583.928828 kJ/mol
# Density = 2.694510 g / cm^3
# Si number density = 27.006566 Si / 1000 Ang^3
#
#
#
# Elastic Constant Matrix: (Units=GPa)
#
#
# Indices 1 2 3 4 5 6 
#
# 1 107.0486 30.3214 18.8329 -19.3613 -9.1648 13.1435
# 2 30.3214 120.6644 40.0998 -23.8838 -21.2282 -10.8038
# 3 18.8329 40.0998 107.5824 -26.8642 -18.3042 0.9275
# 4 -19.3613 -23.8838 -26.8642 45.4450 7.7792 -7.1043
# 5 -9.1648 -21.2282 -18.3042 7.7792 25.0940 -4.8546
# 6 13.1435 -10.8038 0.9275 -7.1043 -4.8546 39.2421
#
#
#
# Elastic Compliance Matrix: (Units=1/GPa)
#
#
# Indices 1 2 3 4 5 6 
#
# 1 0.011059 -0.002486 -0.000302 0.002591 0.000159 -0.003893
# 2 -0.002486 0.012232 -0.001850 0.003825 0.008052 0.005933
# 3 -0.000302 -0.001850 0.012367 0.005360 0.005877 0.000997
# 4 0.002591 0.003825 0.005360 0.029104 0.000102 0.005340
# 5 0.000159 0.008052 0.005877 0.000102 0.052630 0.008554
# 6 -0.003893 0.005933 0.000997 0.005340 0.008554 0.030421
#
#
# Mechanical properties :
#
#
# Convention : Reuss Voigt Hill
#
# Bulk Modulus (GPa) = 37.90472 57.08926 47.49699
# Shear Modulus (GPa) = 30.14153 38.35897 34.25025
#
# Velocity S-wave (km/s) = 3.34441 3.77285 3.56507
# Velocity P-wave (km/s) = 5.38324 6.33752 5.87977
#
# Compressibility (1/GPa) = 0.02638194
#
# Stress axis : x y z
#
# Youngs Moduli (GPa) = 90.42356 81.75350 80.85836
#
# Poissons Ratio (x) = 0.20328 0.02438
# Poissons Ratio (y) = 0.22484 0.14960
# Poissons Ratio (z) = 0.02727 0.15125
#
# Static dielectric constant tensor:
#      x y z
#    x 1.995320 -0.052540 -0.032540 
#    y -0.052540 2.220070 0.077950 
#    z -0.032540 0.077950 2.165040 
# 
# From -- ./inp_files/3179.got.cif
#   From: 2010.05.17/outbox.cif.g08.bks.cpg/sg1_2_cif.got.tgz:3179.got - 2010.05.17 20:27:59.
