data_PCOD9000136
_publ_section_title
;
Structure prediction by ZEFSAII (Michael W. Deem and Ramdas Pophale) SiO2 
 PCOD9000136
Probable space group: P 1
;
_chemical_formula_sum "Si O2"
_cell_formula_units_Z 6
_cell_length_a 11.310821
_cell_length_b 7.403405
_cell_length_c 11.310811
_cell_angle_alpha 141.575268
_cell_angle_beta 156.578522
_cell_angle_gamma 38.424683
_cell_volume 225.851152
_symmetry_space_group_name_H-M "P 1"
_symmetry_group_IT_number 1
_symmetry_cell_setting 'triclinic'
loop_
_space_group_symop_operation_xyz
x,y,z
loop_
_atom_site_type_symbol
_atom_site_label
_atom_site_fract_x
_atom_site_fract_y
_atom_site_fract_z
Si Si1 0.697960 0.787720 0.912050
Si Si2 0.065130 0.811900 0.461028
Si Si3 0.577736 0.814333 0.391590
Si Si4 0.246938 0.763540 0.279219
Si Si5 0.177500 0.761102 0.791823
Si Si6 0.754616 0.287719 0.968706
O O1 0.420189 0.730915 0.707896
O O2 0.493805 0.844526 0.634278
O O3 0.847543 0.982497 0.242579
O O4 0.028487 0.592944 0.061631
O O5 0.045869 0.937942 0.641367
O O6 0.943438 0.514338 0.209267
O O7 0.427280 0.637495 0.259962
O O8 0.901271 0.657750 0.547363
O O9 0.651043 0.088865 0.671220
O O10 0.333275 0.917683 0.115360
O O11 0.995178 0.061101 0.157528
O O12 0.457130 0.486573 0.865132
#
# Coordination Sequence:
#
# PCOD9000136 Si02
#       6
#     1   1   1   1   1   1
#     4  10  22  38  66  98 140 178 222 264 346 414
#     4  11  22  41  66 104 132 180 224 275 336 398
#     4  12  24  40  68 109 136 167 226 291 332 387
#     4  11  22  41  66 104 132 180 224 275 336 398
#     4  12  24  40  68 109 136 167 226 291 332 387
#     4  12  24  42  72 110 126 176 238 270 338 388
#
# _framework density 26.566168000000001
#
# number of rings (size 3 to 8) (size 9 to 14) (size 15 to 20)
#    0.000    0.667    6.667    1.000    0.000    0.000 
#    0.000    0.000    0.000   12.000    8.667    0.000 
#    0.000    0.000    0.000    0.000    0.000    0.000 
#
# Total GULP energy -33468.037219 kJ/mol
# GULP energy per Si atom -5578.006203 kJ/mol
# Density = 2.650570 g / cm^3
# Si number density = 26.566168 Si / 1000 Ang^3
#
#
#
# Elastic Constant Matrix: (Units=GPa)
#
#
# Indices 1 2 3 4 5 6 
#
# 1 205.4071 36.4443 94.8866 -13.4395 10.4190 -51.9415
# 2 36.4443 68.4724 32.7536 -5.8075 3.9907 -25.1289
# 3 94.8866 32.7536 264.3934 -18.9015 -24.6133 -22.1397
# 4 -13.4395 -5.8075 -18.9015 42.2391 -18.8405 7.2224
# 5 10.4190 3.9907 -24.6133 -18.8405 102.3432 -16.6049
# 6 -51.9415 -25.1289 -22.1397 7.2224 -16.6049 33.2052
#
#
#
# Elastic Compliance Matrix: (Units=1/GPa)
#
#
# Indices 1 2 3 4 5 6 
#
# 1 0.009260 0.001393 -0.002203 0.000047 0.000830 0.014476
# 2 0.001393 0.021054 -0.001425 0.000383 0.001672 0.017915
# 3 -0.002203 -0.001425 0.005011 0.002272 0.001775 -0.000790
# 4 0.000047 0.000383 0.002272 0.027381 0.005339 -0.001407
# 5 0.000830 0.001672 0.001775 0.005339 0.012462 0.008818
# 6 0.014476 0.017915 -0.000790 -0.001407 0.008818 0.070507
#
#
# Mechanical properties :
#
#
# Convention : Reuss Voigt Hill
#
# Bulk Modulus (GPa) = 32.40870 96.27134 64.34002
# Shear Modulus (GPa) = 31.16597 60.50338 45.83467
#
# Velocity S-wave (km/s) = 3.42884 4.77745 4.15818
# Velocity P-wave (km/s) = 5.28220 8.17001 6.87934
#
# Compressibility (1/GPa) = 0.03085591
#
# Stress axis : x y z
#
# Youngs Moduli (GPa) = 107.98554 47.49597 199.56150
#
# Poissons Ratio (x) = -0.06618 0.43966
# Poissons Ratio (y) = -0.15045 0.28440
# Poissons Ratio (z) = 0.23791 0.06769
#
# Static dielectric constant tensor:
#      x y z
#    x 2.404430 0.088910 -0.048290 
#    y 0.088910 2.058130 -0.010140 
#    z -0.048290 -0.010140 2.037230 
# 
# From -- ./inp_files/3722.got.cif
#   From: 2010.05.17/outbox.cif.g08.bks.cpg/sg1_2_cif.got.tgz:3722.got - 2010.05.17 20:27:59.
