data_PCOD9000491
_publ_section_title
;
Structure prediction by ZEFSAII (Michael W. Deem and Ramdas Pophale) SiO2 
 PCOD9000491
Probable space group: P 1
;
_chemical_formula_sum "Si O2"
_cell_formula_units_Z 8
_cell_length_a 13.305441
_cell_length_b 4.849216
_cell_length_c 10.309713
_cell_angle_alpha 57.984240
_cell_angle_beta 33.323466
_cell_angle_gamma 72.241933
_cell_volume 295.944460
_symmetry_space_group_name_H-M "P 1"
_symmetry_group_IT_number 1
_symmetry_cell_setting 'triclinic'
loop_
_space_group_symop_operation_xyz
x,y,z
loop_
_atom_site_type_symbol
_atom_site_label
_atom_site_fract_x
_atom_site_fract_y
_atom_site_fract_z
Si Si1 0.758350 0.844570 0.274740
Si Si2 0.318857 0.770095 0.804015
Si Si3 0.884549 0.078690 0.816200
Si Si4 0.113989 0.075277 0.316233
Si Si5 0.156676 0.371175 0.824146
Si Si6 0.604890 0.371721 0.903835
Si Si7 0.745883 0.105474 0.573016
Si Si8 0.277872 0.522248 0.374687
O O1 0.546760 0.879503 0.515416
O O2 0.764167 0.472200 0.405619
O O3 0.767870 0.825247 0.111529
O O4 0.935776 0.148287 0.074769
O O5 0.205372 0.644712 0.820837
O O6 0.251639 0.086698 0.841855
O O7 0.248839 0.460354 0.059197
O O8 0.769799 0.336945 0.832202
O O9 0.976761 0.976636 0.614377
O O10 0.071786 0.258167 0.647950
O O11 0.956108 0.067330 0.380185
O O12 0.248073 0.835164 0.244660
O O13 0.282301 0.557031 0.516970
O O14 0.628362 0.109304 0.833800
O O15 0.646898 0.746512 0.703016
O O16 0.423410 0.351348 0.192878
#
# Coordination Sequence:
#
# PCOD9000491 Si02
#       8
#     1   1   1   1   1   1   1   1
#     4  11  26  50  78 108 153 202 246 307 385 442
#     4  12  28  50  77 112 148 200 253 309 367 458
#     4  10  25  48  68 109 148 194 244 312 372 444
#     4  11  25  45  76 106 151 191 252 312 369 442
#     4  11  29  48  76 110 154 193 253 309 374 445
#     4  11  25  45  71 105 147 190 249 301 368 447
#     4  11  25  46  71 107 148 195 243 308 368 443
#     4  11  25  44  75 105 147 197 246 308 375 443
#
# _framework density 27.032101000000001
#
# number of rings (size 3 to 8) (size 9 to 14) (size 15 to 20)
#    0.000    1.000    2.500    1.500   10.500    4.000 
#    4.500    0.000    0.000    0.000    0.000    0.000 
#    0.000    0.000    0.000    0.000    0.000    0.000 
#
# Total GULP energy -44738.684539 kJ/mol
# GULP energy per Si atom -5592.335567 kJ/mol
# Density = 2.697057 g / cm^3
# Si number density = 27.032101 Si / 1000 Ang^3
#
#
#
# Elastic Constant Matrix: (Units=GPa)
#
#
# Indices 1 2 3 4 5 6 
#
# 1 111.6041 28.8168 42.4555 -4.4907 9.4666 -37.6983
# 2 28.8168 140.0437 38.3463 9.4240 0.1646 -29.9708
# 3 42.4555 38.3463 126.9752 41.0583 -15.8205 -6.6678
# 4 -4.4907 9.4240 41.0583 71.8254 -20.7629 47.5089
# 5 9.4666 0.1646 -15.8205 -20.7629 55.4535 -12.4893
# 6 -37.6983 -29.9708 -6.6678 47.5089 -12.4893 139.6802
#
#
#
# Elastic Compliance Matrix: (Units=1/GPa)
#
#
# Indices 1 2 3 4 5 6 
#
# 1 0.011769 -0.000874 -0.004211 0.001146 -0.002285 0.002194
# 2 -0.000874 0.008308 -0.001634 -0.001680 -0.000522 0.001994
# 3 -0.004211 -0.001634 0.012757 -0.008201 0.001758 0.002068
# 4 0.001146 -0.001680 -0.008201 0.026347 0.005324 -0.008928
# 5 -0.002285 -0.000522 0.001758 0.005324 0.020785 -0.000597
# 6 0.002194 0.001994 0.002068 -0.008928 -0.000597 0.011261
#
#
# Mechanical properties :
#
#
# Convention : Reuss Voigt Hill
#
# Bulk Modulus (GPa) = 51.55749 66.42892 58.99320
# Shear Modulus (GPa) = 44.99240 71.32545 58.15893
#
# Velocity S-wave (km/s) = 4.08414 5.14225 4.64343
# Velocity P-wave (km/s) = 6.43074 7.73850 7.11473
#
# Compressibility (1/GPa) = 0.01939582
#
# Stress axis : x y z
#
# Youngs Moduli (GPa) = 84.97099 120.36373 78.39054
#
# Poissons Ratio (x) = 0.10514 0.33013
# Poissons Ratio (y) = 0.07422 0.12809
# Poissons Ratio (z) = 0.35784 0.19667
#
# Static dielectric constant tensor:
#      x y z
#    x 2.126000 0.021870 0.061470 
#    y 0.021870 1.991040 -0.055610 
#    z 0.061470 -0.055610 2.259750 
# 
# From -- ./inp_files/6792.got.cif
#   From: 2010.05.17/outbox.cif.g08.bks.cpg/sg1_4_cif.got.tgz:6792.got - 2010.05.17 20:27:59.
