data_PCOD9000868
_publ_section_title
;
Structure prediction by ZEFSAII (Michael W. Deem and Ramdas Pophale) SiO2 
 PCOD9000868
Probable space group: P 1
;
_chemical_formula_sum "Si O2"
_cell_formula_units_Z 8
_cell_length_a 9.471774
_cell_length_b 8.625525
_cell_length_c 7.200259
_cell_angle_alpha 65.564230
_cell_angle_beta 70.199694
_cell_angle_gamma 43.472372
_cell_volume 367.770861
_symmetry_space_group_name_H-M "P 1"
_symmetry_group_IT_number 1
_symmetry_cell_setting 'triclinic'
loop_
_space_group_symop_operation_xyz
x,y,z
loop_
_atom_site_type_symbol
_atom_site_label
_atom_site_fract_x
_atom_site_fract_y
_atom_site_fract_z
Si Si1 0.280130 0.649990 0.480300
Si Si2 0.080163 0.467131 0.781849
Si Si3 0.389860 0.916525 0.349345
Si Si4 0.320588 0.939517 0.926291
Si Si5 0.552456 0.262584 0.254017
Si Si6 0.004204 0.902259 0.158962
Si Si7 0.660561 0.817692 0.576050
Si Si8 0.156019 0.430755 0.182608
O O1 0.341872 0.763627 0.515239
O O2 0.446971 0.482514 0.326291
O O3 0.071257 0.867300 0.360641
O O4 0.230232 0.511338 0.665690
O O5 0.882188 0.639897 0.656798
O O6 0.187144 0.209492 0.809238
O O7 0.047011 0.488648 0.006402
O O8 0.608181 0.796475 0.400918
O O9 0.218767 0.192354 0.344838
O O10 0.384035 0.909787 0.130992
O O11 0.517427 0.810825 0.773275
O O12 0.171568 0.892440 0.988622
O O13 0.386101 0.335491 0.137336
O O14 0.592870 0.067549 0.465201
O O15 0.769550 0.140858 0.127152
O O16 0.030981 0.680580 0.212718
#
# Coordination Sequence:
#
# PCOD9000868 Si02
#       8
#     1   1   1   1   1   1   1   1
#     4  10  20  40  65  92 129 165 208 265 313 379
#     4  11  22  39  63  95 127 165 213 262 317 372
#     4   9  22  42  65  90 131 168 208 262 320 372
#     4  10  23  42  61  95 132 163 211 266 312 382
#     4  10  20  41  67  89 129 171 208 256 325 375
#     4  10  21  41  66  93 126 170 211 259 322 376
#     4  11  22  40  66  93 126 171 211 259 316 380
#     4   9  22  39  63  93 128 165 210 267 315 374
#
# _framework density 21.752675
#
# number of rings (size 3 to 8) (size 9 to 14) (size 15 to 20)
#    0.000    2.000    2.500    0.000    1.750    6.000 
#    0.000    7.500    0.000    0.000    0.000    0.000 
#    0.000    0.000    0.000    0.000    0.000    0.000 
#
# Total GULP energy -44572.029904 kJ/mol
# GULP energy per Si atom -5571.503738 kJ/mol
# Density = 2.170316 g / cm^3
# Si number density = 21.752675 Si / 1000 Ang^3
#
#
#
# Elastic Constant Matrix: (Units=GPa)
#
#
# Indices 1 2 3 4 5 6 
#
# 1 125.8448 63.5333 41.5572 -14.1129 -5.7338 7.6834
# 2 63.5333 71.9342 27.3002 -15.1829 -0.3493 -2.5194
# 3 41.5572 27.3002 78.9292 -7.4933 -0.7933 -5.3481
# 4 -14.1129 -15.1829 -7.4933 33.5673 -3.7126 -5.5458
# 5 -5.7338 -0.3493 -0.7933 -3.7126 50.8291 -10.4089
# 6 7.6834 -2.5194 -5.3481 -5.5458 -10.4089 35.2880
#
#
#
# Elastic Compliance Matrix: (Units=1/GPa)
#
#
# Indices 1 2 3 4 5 6 
#
# 1 0.016219 -0.012980 -0.004468 -0.000829 0.000566 -0.005099
# 2 -0.012980 0.027850 -0.001651 0.007805 0.000487 0.005935
# 3 -0.004468 -0.001651 0.016006 0.001630 0.000615 0.003718
# 4 -0.000829 0.007805 0.001630 0.035067 0.004126 0.007713
# 5 0.000566 0.000487 0.000615 0.004126 0.021483 0.006990
# 6 -0.005099 0.005935 0.003718 0.007713 0.006990 0.033710
#
#
# Mechanical properties :
#
#
# Convention : Reuss Voigt Hill
#
# Bulk Modulus (GPa) = 45.71041 60.16551 52.93796
# Shear Modulus (GPa) = 25.53299 33.55805 29.54552
#
# Velocity S-wave (km/s) = 3.42977 3.93199 3.68944
# Velocity P-wave (km/s) = 6.06166 6.95220 6.52215
#
# Compressibility (1/GPa) = 0.02187686
#
# Stress axis : x y z
#
# Youngs Moduli (GPa) = 61.65665 35.90720 62.47605
#
# Poissons Ratio (x) = 0.46606 0.27917
# Poissons Ratio (y) = 0.80028 0.10313
# Poissons Ratio (z) = 0.27551 0.05927
#
# Static dielectric constant tensor:
#      x y z
#    x 1.796200 0.001230 -0.042430 
#    y 0.001230 1.816460 0.025160 
#    z -0.042430 0.025160 1.842300 
# 
# From -- ./inp_files/1289.got.cif
#   From: 2010.05.17/outbox.cif.g08.bks.cpg/sg1_1_cif.got.tgz:1289.got - 2010.05.17 20:27:59.
