data_PCOD9000560
_publ_section_title
;
Structure prediction by ZEFSAII (Michael W. Deem and Ramdas Pophale) SiO2 
 PCOD9000560
Probable space group: P 1
;
_chemical_formula_sum "Si O2"
_cell_formula_units_Z 8
_cell_length_a 10.056729
_cell_length_b 12.150987
_cell_length_c 5.106271
_cell_angle_alpha 77.165951
_cell_angle_beta 65.227588
_cell_angle_gamma 37.118490
_cell_volume 334.683672
_symmetry_space_group_name_H-M "P 1"
_symmetry_group_IT_number 1
_symmetry_cell_setting 'triclinic'
loop_
_space_group_symop_operation_xyz
x,y,z
loop_
_atom_site_type_symbol
_atom_site_label
_atom_site_fract_x
_atom_site_fract_y
_atom_site_fract_z
Si Si1 0.880120 0.169070 0.717400
Si Si2 0.622666 0.824301 0.071686
Si Si3 0.180117 0.066785 0.026390
Si Si4 0.997309 0.744926 0.527904
Si Si5 0.311724 0.164382 0.516918
Si Si6 0.062947 0.490898 0.215857
Si Si7 0.748547 0.071443 0.226848
Si Si8 0.437582 0.411527 0.672095
O O1 0.627011 0.249830 0.387558
O O2 0.030113 0.117936 0.371896
O O3 0.600859 0.373372 0.775366
O O4 0.030114 0.117933 0.871897
O O5 0.833664 0.625602 0.143151
O O6 0.459369 0.862469 0.968439
O O7 0.433251 0.985996 0.356220
O O8 0.761840 0.848342 0.828164
O O9 0.216726 0.176982 0.865905
O O10 0.030133 0.617913 0.371865
O O11 0.953459 0.882525 0.321333
O O12 0.226584 0.610224 0.600624
O O13 0.106803 0.353303 0.422445
O O14 0.530137 0.117911 0.371872
O O15 0.298416 0.387475 0.915593
O O16 0.843550 0.058844 0.877863
#
# Coordination Sequence:
#
# PCOD9000560 Si02
#       8
#     1   1   1   1   1   1   1   1
#     4  12  26  46  72 102 147 192 231 288 360 425
#     4  11  23  42  72 103 148 178 238 290 357 405
#     4  12  26  46  72 102 147 192 231 288 360 425
#     4  11  23  40  70 113 140 176 239 304 344 412
#     4  12  23  43  75 106 138 188 240 288 352 419
#     4  11  23  40  70 113 140 176 239 304 344 412
#     4  12  23  43  75 106 138 188 240 288 352 419
#     4  11  23  42  72 103 148 178 238 290 357 405
#
# _framework density 23.903168000000001
#
# number of rings (size 3 to 8) (size 9 to 14) (size 15 to 20)
#    0.000    0.500    7.500    0.750    0.000    0.000 
#    0.000    2.500    0.000    0.000    0.000    0.000 
#    0.000    0.000    0.000    0.000    0.000    0.000 
#
# Total GULP energy -44709.979281 kJ/mol
# GULP energy per Si atom -5588.747410 kJ/mol
# Density = 2.384876 g / cm^3
# Si number density = 23.903168 Si / 1000 Ang^3
#
#
#
# Elastic Constant Matrix: (Units=GPa)
#
#
# Indices 1 2 3 4 5 6 
#
# 1 131.1834 46.4807 47.1931 -13.8544 1.6193 -58.4693
# 2 46.4807 125.4199 62.3668 -34.8004 -2.7778 -46.4795
# 3 47.1931 62.3668 187.6250 -29.5475 -24.8402 -15.1744
# 4 -13.8544 -34.8004 -29.5475 48.0483 -0.3061 20.5638
# 5 1.6193 -2.7778 -24.8402 -0.3061 51.9100 -11.7936
# 6 -58.4693 -46.4795 -15.1744 20.5638 -11.7936 49.1402
#
#
#
# Elastic Compliance Matrix: (Units=1/GPa)
#
#
# Indices 1 2 3 4 5 6 
#
# 1 0.021346 0.004549 -0.004810 -0.007341 0.004591 0.032390
# 2 0.004549 0.016203 -0.004211 0.002242 0.003095 0.019243
# 3 -0.004810 -0.004211 0.008176 0.004237 0.001933 -0.008491
# 4 -0.007341 0.002242 0.004237 0.030889 -0.001675 -0.018634
# 5 0.004591 0.003095 0.001933 -0.001675 0.023695 0.015375
# 6 0.032390 0.019243 -0.008491 -0.018634 0.015375 0.085956
#
#
# Mechanical properties :
#
#
# Convention : Reuss Voigt Hill
#
# Bulk Modulus (GPa) = 27.18793 84.03440 55.61116
# Shear Modulus (GPa) = 24.10000 49.03219 36.56610
#
# Velocity S-wave (km/s) = 3.17872 4.53402 3.91546
# Velocity P-wave (km/s) = 4.98710 7.91469 6.61489
#
# Compressibility (1/GPa) = 0.03678103
#
# Stress axis : x y z
#
# Youngs Moduli (GPa) = 46.84769 61.71641 122.31127
#
# Poissons Ratio (x) = -0.28075 0.58830
# Poissons Ratio (y) = -0.21311 0.51506
# Poissons Ratio (z) = 0.22533 0.25989
#
# Static dielectric constant tensor:
#      x y z
#    x 2.023040 0.031890 0.085850 
#    y 0.031890 1.924560 0.005510 
#    z 0.085850 0.005510 2.035980 
# 
# From -- ./inp_files/1648.got.cif
#   From: 2010.05.17/outbox.cif.g08.bks.cpg/sg1_1_cif.got.tgz:1648.got - 2010.05.17 20:27:59.
