data_PCOD9000876
_publ_section_title
;
Structure prediction by ZEFSAII (Michael W. Deem and Ramdas Pophale) SiO2 
 PCOD9000876
Probable space group: P 1
;
_chemical_formula_sum "Si O2"
_cell_formula_units_Z 8
_cell_length_a 13.339485
_cell_length_b 17.545195
_cell_length_c 5.443836
_cell_angle_alpha 127.336198
_cell_angle_beta 63.453078
_cell_angle_gamma 159.491780
_cell_volume 319.596212
_symmetry_space_group_name_H-M "P 1"
_symmetry_group_IT_number 1
_symmetry_cell_setting 'triclinic'
loop_
_space_group_symop_operation_xyz
x,y,z
loop_
_atom_site_type_symbol
_atom_site_label
_atom_site_fract_x
_atom_site_fract_y
_atom_site_fract_z
Si Si1 0.312020 0.212240 0.777520
Si Si2 0.782381 0.466280 0.996904
Si Si3 0.175833 0.464329 0.677810
Si Si4 0.866537 0.702654 0.751434
Si Si5 0.625660 0.643683 0.528874
Si Si6 0.314095 0.932180 0.937148
Si Si7 0.223531 0.696054 0.254219
Si Si8 0.922142 0.320732 0.175712
O O1 0.433249 0.212456 0.783823
O O2 0.558381 0.426605 0.707253
O O3 0.393038 0.371515 0.165732
O O4 0.939764 0.907231 0.531100
O O5 0.011609 0.651762 0.872945
O O6 0.887919 0.461401 0.039703
O O7 0.866449 0.626992 0.380064
O O8 0.426998 0.581022 0.640488
O O9 0.337770 0.700134 0.970844
O O10 0.954453 0.285595 0.816775
O O11 0.988330 0.315436 0.336443
O O12 0.790545 0.744273 0.800622
O O13 0.191118 0.938799 0.006413
O O14 0.612530 0.140147 0.178571
O O15 0.366797 0.911352 0.592261
O O16 0.191260 0.614636 0.389588
#
# Coordination Sequence:
#
# PCOD9000876 Si02
#       8
#     1   1   1   1   1   1   1   1
#     4  10  24  44  71 102 139 186 241 299 363 424
#     4   9  19  40  63 101 137 172 237 291 367 427
#     4  10  25  45  64 105 136 188 236 293 352 432
#     4   9  22  43  66 108 133 189 231 307 360 434
#     4  11  25  47  71  99 142 189 243 297 356 432
#     4  10  20  40  69  99 138 179 232 296 362 432
#     4   9  21  39  64  97 135 176 225 286 354 418
#     4  10  24  42  66  99 136 181 231 289 356 421
#
# _framework density 25.031583000000001
#
# number of rings (size 3 to 8) (size 9 to 14) (size 15 to 20)
#    0.750    1.500    0.000    0.750    7.000    3.000 
#   24.750    0.000    0.000    0.000    0.000    0.000 
#    0.000    0.000    0.000    0.000    0.000    0.000 
#
# Total GULP energy -44617.256923 kJ/mol
# GULP energy per Si atom -5577.157115 kJ/mol
# Density = 2.497461 g / cm^3
# Si number density = 25.031583 Si / 1000 Ang^3
#
#
#
# Elastic Constant Matrix: (Units=GPa)
#
#
# Indices 1 2 3 4 5 6 
#
# 1 196.1115 70.4436 55.4996 -11.9165 15.0437 49.2455
# 2 70.4436 107.9879 33.4684 -1.7149 4.2896 19.9135
# 3 55.4996 33.4684 73.9936 -14.1964 15.2571 1.2089
# 4 -11.9165 -1.7149 -14.1964 34.9273 -4.4184 -4.5726
# 5 15.0437 4.2896 15.2571 -4.4184 36.6269 0.3190
# 6 49.2455 19.9135 1.2089 -4.5726 0.3190 38.7844
#
#
#
# Elastic Compliance Matrix: (Units=1/GPa)
#
#
# Indices 1 2 3 4 5 6 
#
# 1 0.011354 -0.002862 -0.006890 -0.000931 -0.001459 -0.012830
# 2 -0.002862 0.012988 -0.004385 -0.002384 0.001221 -0.003189
# 3 -0.006890 -0.004385 0.023061 0.007587 -0.005445 0.011220
# 4 -0.000931 -0.002384 0.007587 0.032229 0.001337 0.005959
# 5 -0.001459 0.001221 -0.005445 0.001337 0.030177 0.001305
# 6 -0.012830 -0.003189 0.011220 0.005959 0.001305 0.044054
#
#
# Mechanical properties :
#
#
# Convention : Reuss Voigt Hill
#
# Bulk Modulus (GPa) = 52.27651 77.43515 64.85583
# Shear Modulus (GPa) = 26.52325 36.64651 31.58488
#
# Velocity S-wave (km/s) = 3.25867 3.83039 3.55604
# Velocity P-wave (km/s) = 5.92352 7.11088 6.54419
#
# Compressibility (1/GPa) = 0.01912905
#
# Stress axis : x y z
#
# Youngs Moduli (GPa) = 88.07308 76.99360 43.36296
#
# Poissons Ratio (x) = 0.22037 0.29877
# Poissons Ratio (y) = 0.25208 0.19015
# Poissons Ratio (z) = 0.60682 0.33762
#
# Static dielectric constant tensor:
#      x y z
#    x 1.969030 -0.063370 0.021400 
#    y -0.063370 2.042940 0.025610 
#    z 0.021400 0.025610 2.093820 
# 
# From -- ./inp_files/2369.got.cif
#   From: 2010.05.17/outbox.cif.g08.bks.cpg/sg1_2_cif.got.tgz:2369.got - 2010.05.17 20:27:59.
