data_PCOD9000034
_publ_section_title
;
Structure prediction by ZEFSAII (Michael W. Deem and Ramdas Pophale) SiO2 
 PCOD9000034
Probable space group: P 1
;
_chemical_formula_sum "Si O2"
_cell_formula_units_Z 8
_cell_length_a 7.026252
_cell_length_b 9.654927
_cell_length_c 7.440885
_cell_angle_alpha 59.657766
_cell_angle_beta 49.737417
_cell_angle_gamma 72.742307
_cell_volume 332.085941
_symmetry_space_group_name_H-M "P 1"
_symmetry_group_IT_number 1
_symmetry_cell_setting 'triclinic'
loop_
_space_group_symop_operation_xyz
x,y,z
loop_
_atom_site_type_symbol
_atom_site_label
_atom_site_fract_x
_atom_site_fract_y
_atom_site_fract_z
Si Si1 0.325780 0.549610 0.869850
Si Si2 0.069174 0.474422 0.720941
Si Si3 0.650180 0.266353 0.978923
Si Si4 0.348791 0.179981 0.597790
Si Si5 0.866687 0.952332 0.979806
Si Si6 0.098122 0.304594 0.369659
Si Si7 0.828585 0.739084 0.462080
Si Si8 0.839620 0.024610 0.537536
O O1 0.183044 0.569172 0.759568
O O2 0.536397 0.682081 0.706029
O O3 0.471114 0.382035 0.898957
O O4 0.119899 0.487669 0.179256
O O5 0.268684 0.341799 0.637452
O O6 0.999544 0.605124 0.529635
O O7 0.812091 0.365905 0.970535
O O8 0.659290 0.070993 0.103436
O O9 0.361490 0.246597 0.337038
O O10 0.887023 0.279353 0.665880
O O11 0.583401 0.105558 0.591773
O O12 0.135328 0.038306 0.808668
O O13 0.848428 0.789118 0.209618
O O14 0.837627 0.940521 0.790249
O O15 0.034040 0.176138 0.339016
O O16 0.892005 0.898965 0.434005
#
# Coordination Sequence:
#
# PCOD9000034 Si02
#       8
#     1   1   1   1   1   1   1   1
#     4   9  21  39  63  93 123 170 209 254 316 382
#     4  10  21  41  64  91 127 173 205 256 329 371
#     4   8  18  37  67  89 122 164 218 260 298 379
#     4  10  22  41  66  96 124 165 223 259 305 387
#     4  10  22  41  64  96 128 166 215 263 312 382
#     4   9  21  38  67  97 120 165 220 262 303 385
#     4  11  25  43  62  96 137 164 207 267 324 374
#     4  11  24  40  69  98 125 169 213 265 319 368
#
# _framework density 24.090150999999999
#
# number of rings (size 3 to 8) (size 9 to 14) (size 15 to 20)
#    0.750    1.500    0.000    1.500    5.250    5.000 
#    6.750    0.000    0.000    0.000    0.000    0.000 
#    0.000    0.000    0.000    0.000    0.000    0.000 
#
# Total GULP energy -44610.759228 kJ/mol
# GULP energy per Si atom -5576.344904 kJ/mol
# Density = 2.403532 g / cm^3
# Si number density = 24.090151 Si / 1000 Ang^3
#
#
#
# Elastic Constant Matrix: (Units=GPa)
#
#
# Indices 1 2 3 4 5 6 
#
# 1 139.1771 35.9038 31.1288 -1.2743 16.3435 4.2000
# 2 35.9038 76.6847 9.5736 -6.4988 3.1595 -14.4142
# 3 31.1288 9.5736 103.2218 -15.7640 19.7933 -0.8070
# 4 -1.2743 -6.4988 -15.7640 22.7164 1.4548 6.9330
# 5 16.3435 3.1595 19.7933 1.4548 39.4438 -8.8481
# 6 4.2000 -14.4142 -0.8070 6.9330 -8.8481 41.9175
#
#
#
# Elastic Compliance Matrix: (Units=1/GPa)
#
#
# Indices 1 2 3 4 5 6 
#
# 1 0.009264 -0.004625 -0.001942 -0.001019 -0.003140 -0.003050
# 2 -0.004625 0.016496 -0.000091 0.002397 0.001931 0.006145
# 3 -0.001942 -0.000091 0.013117 0.010225 -0.006753 -0.002701
# 4 -0.001019 0.002397 0.010225 0.055377 -0.009180 -0.009974
# 5 -0.003140 0.001931 -0.006753 -0.009180 0.032286 0.009182
# 6 -0.003050 0.006145 -0.002701 -0.009974 0.009182 0.029811
#
#
# Mechanical properties :
#
#
# Convention : Reuss Voigt Hill
#
# Bulk Modulus (GPa) = 39.12348 52.47734 45.80041
# Shear Modulus (GPa) = 28.06001 36.98069 32.52035
#
# Velocity S-wave (km/s) = 3.41661 3.92228 3.67814
# Velocity P-wave (km/s) = 5.64269 6.50718 6.09029
#
# Compressibility (1/GPa) = 0.02556010
#
# Stress axis : x y z
#
# Youngs Moduli (GPa) = 107.94255 60.62023 76.23460
#
# Poissons Ratio (x) = 0.28039 0.14806
# Poissons Ratio (y) = 0.49928 0.00695
# Poissons Ratio (z) = 0.20964 0.00553
#
# Static dielectric constant tensor:
#      x y z
#    x 2.017030 -0.094990 -0.152140 
#    y -0.094990 2.048140 0.233580 
#    z -0.152140 0.233580 2.244780 
# 
# From -- ./inp_files/3131.got.cif
#   From: 2010.05.17/outbox.cif.g08.bks.cpg/sg1_2_cif.got.tgz:3131.got - 2010.05.17 20:27:59.
