data_PCOD9000133
_publ_section_title
;
Structure prediction by ZEFSAII (Michael W. Deem and Ramdas Pophale) SiO2 
 PCOD9000133
Probable space group: P 1
;
_chemical_formula_sum "Si O2"
_cell_formula_units_Z 8
_cell_length_a 8.398236
_cell_length_b 11.095271
_cell_length_c 7.574941
_cell_angle_alpha 138.768804
_cell_angle_beta 100.555216
_cell_angle_gamma 59.767327
_cell_volume 377.516117
_symmetry_space_group_name_H-M "P 1"
_symmetry_group_IT_number 1
_symmetry_cell_setting 'triclinic'
loop_
_space_group_symop_operation_xyz
x,y,z
loop_
_atom_site_type_symbol
_atom_site_label
_atom_site_fract_x
_atom_site_fract_y
_atom_site_fract_z
Si Si1 0.802730 0.194220 0.037730
Si Si2 0.936213 0.706828 0.492827
Si Si3 0.922796 0.337971 0.905194
Si Si4 0.814862 0.706840 0.863055
Si Si5 0.377323 0.392967 0.137592
Si Si6 0.687608 0.392974 0.590553
Si Si7 0.460947 0.194224 0.292914
Si Si8 0.197123 0.337981 0.712956
O O1 0.935816 0.223396 0.964670
O O2 0.572316 0.391420 0.181843
O O3 0.832207 0.211039 0.270521
O O4 0.823497 0.969055 0.744116
O O5 0.874658 0.578426 0.213339
O O6 0.900017 0.657871 0.628978
O O7 0.165153 0.602555 0.384907
O O8 0.765800 0.345601 0.753175
O O9 0.114032 0.229822 0.700912
O O10 0.690196 0.602562 0.762428
O O11 0.004817 0.578443 0.885740
O O12 0.665344 0.969068 0.136213
O O13 0.414657 0.211030 0.093748
O O14 0.346491 0.345601 0.880230
O O15 0.494159 0.391431 0.543206
O O16 0.298679 0.223408 0.424328
#
# Coordination Sequence:
#
# PCOD9000133 Si02
#       8
#     1   1   1   1   1   1   1   1
#     4  11  22  43  65  91 131 166 209 256 320 372
#     4  11  21  42  66  91 127 170 206 257 319 371
#     4  10  23  40  64  94 128 163 211 261 308 375
#     4  11  21  42  66  91 127 170 206 257 319 371
#     4  10  22  38  64  96 122 166 208 260 310 371
#     4  10  22  38  64  96 122 166 208 260 310 371
#     4  11  22  43  65  91 131 166 209 256 320 372
#     4  10  23  40  64  94 128 163 211 261 308 375
#
# _framework density 21.191148999999999
#
# number of rings (size 3 to 8) (size 9 to 14) (size 15 to 20)
#    0.000    1.500    5.000    0.750    0.000    6.000 
#    0.000   20.000    0.000    0.000    0.000    0.000 
#    0.000    0.000    0.000    0.000    0.000    0.000 
#
# Total GULP energy -44572.374196 kJ/mol
# GULP energy per Si atom -5571.546774 kJ/mol
# Density = 2.114292 g / cm^3
# Si number density = 21.191149 Si / 1000 Ang^3
#
#
#
# Elastic Constant Matrix: (Units=GPa)
#
#
# Indices 1 2 3 4 5 6 
#
# 1 53.1229 18.4558 18.0006 -0.3378 -8.5193 12.0074
# 2 18.4558 80.8222 37.9950 -16.2183 -6.1000 4.3675
# 3 18.0006 37.9950 62.7144 -7.8636 1.0519 3.0965
# 4 -0.3378 -16.2183 -7.8636 26.3172 2.8963 -5.7080
# 5 -8.5193 -6.1000 1.0519 2.8963 39.5442 -7.4862
# 6 12.0074 4.3675 3.0965 -5.7080 -7.4862 45.3663
#
#
#
# Elastic Compliance Matrix: (Units=1/GPa)
#
#
# Indices 1 2 3 4 5 6 
#
# 1 0.023600 -0.003356 -0.005155 -0.004948 0.004019 -0.005531
# 2 -0.003356 0.019756 -0.009949 0.009178 0.002139 0.001173
# 3 -0.005155 -0.009949 0.023655 0.001306 -0.003308 0.000326
# 4 -0.004948 0.009178 0.001306 0.045437 -0.001927 0.005736
# 5 0.004019 0.002139 -0.003308 -0.001927 0.027323 0.003222
# 6 -0.005531 0.001173 0.000326 0.005736 0.003222 0.024625
#
#
# Mechanical properties :
#
#
# Convention : Reuss Voigt Hill
#
# Bulk Modulus (GPa) = 33.23201 38.39581 35.81391
# Shear Modulus (GPa) = 23.65772 30.39275 27.02524
#
# Velocity S-wave (km/s) = 3.34488 3.79122 3.57502
# Velocity P-wave (km/s) = 5.53477 6.10922 5.82908
#
# Compressibility (1/GPa) = 0.03009147
#
# Stress axis : x y z
#
# Youngs Moduli (GPa) = 42.37224 50.61766 42.27360
#
# Poissons Ratio (x) = 0.16989 0.21793
# Poissons Ratio (y) = 0.14221 0.42056
# Poissons Ratio (z) = 0.21844 0.50358
#
# Static dielectric constant tensor:
#      x y z
#    x 1.802690 -0.003400 0.002750 
#    y -0.003400 1.772070 -0.025000 
#    z 0.002750 -0.025000 1.753350 
# 
# From -- ./inp_files/4762.got.cif
#   From: 2010.05.17/outbox.cif.g08.bks.cpg/sg1_3_cif.got.tgz:4762.got - 2010.05.17 20:27:59.
