data_PCOD9000725
_publ_section_title
;
Structure prediction by ZEFSAII (Michael W. Deem and Ramdas Pophale) SiO2 
 PCOD9000725
Probable space group: P 1
;
_chemical_formula_sum "Si O2"
_cell_formula_units_Z 8
_cell_length_a 5.060579
_cell_length_b 15.315590
_cell_length_c 12.181589
_cell_angle_alpha 30.868156
_cell_angle_beta 62.738012
_cell_angle_gamma 70.867373
_cell_volume 426.146059
_symmetry_space_group_name_H-M "P 1"
_symmetry_group_IT_number 1
_symmetry_cell_setting 'triclinic'
loop_
_space_group_symop_operation_xyz
x,y,z
loop_
_atom_site_type_symbol
_atom_site_label
_atom_site_fract_x
_atom_site_fract_y
_atom_site_fract_z
Si Si1 0.300480 0.777540 0.739000
Si Si2 0.889991 0.004182 0.464212
Si Si3 0.625274 0.238840 0.411665
Si Si4 0.909421 0.517074 0.237558
Si Si5 0.469986 0.332285 0.666933
Si Si6 0.601404 0.449319 0.967518
Si Si7 0.086816 0.242998 0.637929
Si Si8 0.217643 0.341351 0.943389
O O1 0.561322 0.919028 0.582145
O O2 0.467676 0.623443 0.829110
O O3 0.104946 0.862492 0.596013
O O4 0.067044 0.691709 0.967991
O O5 0.843226 0.105012 0.477572
O O6 0.037558 0.148827 0.195810
O O7 0.799004 0.383035 0.304453
O O8 0.324276 0.149936 0.626368
O O9 0.547633 0.329001 0.215514
O O10 0.627137 0.504023 0.388075
O O11 0.139914 0.428890 0.364619
O O12 0.186280 0.259199 0.726939
O O13 0.394041 0.361999 0.773846
O O14 0.727376 0.206946 0.740109
O O15 0.433105 0.369456 0.977385
O O16 0.959647 0.464507 0.865534
#
# Coordination Sequence:
#
# PCOD9000725 Si02
#       8
#     1   1   1   1   1   1   1   1
#     4  12  22  37  53  89 115 147 173 234 298 330
#     4  11  25  32  57  84 125 140 175 231 291 337
#     4  10  19  37  57  88 110 146 190 229 276 331
#     4   9  20  35  64  80 112 142 189 232 270 331
#     4   9  19  34  58  86 103 141 200 234 259 305
#     4  11  21  35  61  78 114 149 192 228 272 327
#     4   9  18  31  60  84 104 137 184 246 261 312
#     4  11  22  39  58  85 109 152 193 230 259 339
#
# _framework density 18.772907
#
# number of rings (size 3 to 8) (size 9 to 14) (size 15 to 20)
#    0.750    1.000    1.250    5.250    3.500    0.000 
#    0.000    0.000    0.000   13.500    0.000    0.000 
#    0.000    0.000    0.000    0.000    0.000    0.000 
#
# Total GULP energy -44548.108227 kJ/mol
# GULP energy per Si atom -5568.513528 kJ/mol
# Density = 1.873018 g / cm^3
# Si number density = 18.772907 Si / 1000 Ang^3
#
#
#
# Elastic Constant Matrix: (Units=GPa)
#
#
# Indices 1 2 3 4 5 6 
#
# 1 104.4691 20.3474 10.1253 10.1680 6.0137 8.7497
# 2 20.3474 80.9997 33.3874 28.2542 6.3990 3.4971
# 3 10.1253 33.3874 62.6346 12.0138 -4.6076 5.0646
# 4 10.1680 28.2542 12.0138 26.8902 -2.6606 6.2629
# 5 6.0137 6.3990 -4.6076 -2.6606 25.3997 -4.6732
# 6 8.7497 3.4971 5.0646 6.2629 -4.6732 38.5440
#
#
#
# Elastic Compliance Matrix: (Units=1/GPa)
#
#
# Indices 1 2 3 4 5 6 
#
# 1 0.010439 -0.001334 -0.000619 -0.002045 -0.002863 -0.002182
# 2 -0.001334 0.025631 -0.009837 -0.023460 -0.010041 0.001864
# 3 -0.000619 -0.009837 0.021528 0.001900 0.006486 -0.001318
# 4 -0.002045 -0.023460 0.001900 0.064527 0.012274 -0.006654
# 5 -0.002863 -0.010041 0.006486 0.012274 0.045826 0.004270
# 6 -0.002182 0.001864 -0.001318 -0.006654 0.004270 0.028043
#
#
# Mechanical properties :
#
#
# Convention : Reuss Voigt Hill
#
# Bulk Modulus (GPa) = 29.39411 41.75818 35.57615
# Shear Modulus (GPa) = 21.65328 30.44966 26.05147
#
# Velocity S-wave (km/s) = 3.39991 4.03178 3.72925
# Velocity P-wave (km/s) = 5.57711 6.63067 6.12658
#
# Compressibility (1/GPa) = 0.03402042
#
# Stress axis : x y z
#
# Youngs Moduli (GPa) = 95.79913 39.01464 46.45033
#
# Poissons Ratio (x) = 0.05203 0.02873
# Poissons Ratio (y) = 0.12776 0.45692
# Poissons Ratio (z) = 0.05926 0.38378
#
# Static dielectric constant tensor:
#      x y z
#    x 1.692440 -0.027690 -0.020610 
#    y -0.027690 1.668610 0.000820 
#    z -0.020610 0.000820 1.645550 
# 
# From -- ./inp_files/1795.got.cif
#   From: 2010.05.17/outbox.cif.g08.bks.cpg/sg1_1_cif.got.tgz:1795.got - 2010.05.17 20:27:59.
