data_PCOD9000500
_publ_section_title
;
Structure prediction by ZEFSAII (Michael W. Deem and Ramdas Pophale) SiO2 
 PCOD9000500
Probable space group: P 1
;
_chemical_formula_sum "Si O2"
_cell_formula_units_Z 8
_cell_length_a 11.177076
_cell_length_b 5.724169
_cell_length_c 8.115513
_cell_angle_alpha 112.813933
_cell_angle_beta 102.198786
_cell_angle_gamma 128.353550
_cell_volume 292.935033
_symmetry_space_group_name_H-M "P 1"
_symmetry_group_IT_number 1
_symmetry_cell_setting 'triclinic'
loop_
_space_group_symop_operation_xyz
x,y,z
loop_
_atom_site_type_symbol
_atom_site_label
_atom_site_fract_x
_atom_site_fract_y
_atom_site_fract_z
Si Si1 0.268650 0.877610 0.055110
Si Si2 0.961181 0.928557 0.663107
Si Si3 0.683757 0.877935 0.490488
Si Si4 0.995979 0.914371 0.039369
Si Si5 0.363282 0.891514 0.754696
Si Si6 0.727688 0.165997 0.947713
Si Si7 0.951507 0.391533 0.398635
Si Si8 0.382906 0.834757 0.393079
O O1 0.403242 0.036919 0.293558
O O2 0.134907 0.414421 0.859700
O O3 0.128116 0.875956 0.062434
O O4 0.378061 0.097197 0.973654
O O5 0.769651 0.731246 0.468471
O O6 0.903047 0.774229 0.793237
O O7 0.042775 0.821286 0.557795
O O8 0.741860 0.043277 0.743273
O O9 0.795622 0.151819 0.434366
O O10 0.488979 0.735197 0.385272
O O11 0.844748 0.618071 0.061311
O O12 0.153370 0.393504 0.218985
O O13 0.501689 0.875482 0.835674
O O14 0.129422 0.500958 0.544353
O O15 0.834450 0.197489 0.138413
O O16 0.439910 0.073365 0.641733
#
# Coordination Sequence:
#
# PCOD9000500 Si02
#       8
#     1   1   1   1   1   1   1   1
#     4  11  21  45  66  91 137 170 222 274 320 394
#     4  11  21  41  70  91 133 177 213 268 334 386
#     4  11  23  48  64  98 136 170 223 276 324 399
#     4  11  22  45  67  95 133 178 215 271 334 388
#     4  11  23  43  66  99 134 168 222 274 323 395
#     4  11  24  43  68  98 133 173 222 273 327 391
#     4  12  24  43  72  94 136 181 214 274 337 381
#     4  10  26  40  71  98 128 177 219 270 341 382
#
# _framework density 27.309808
#
# number of rings (size 3 to 8) (size 9 to 14) (size 15 to 20)
#    0.000    1.000    5.000    1.500    3.500    2.000 
#    2.250    0.000    0.000    0.000    0.000    0.000 
#    0.000    0.000    0.000    0.000    0.000    0.000 
#
# Total GULP energy -44655.781439 kJ/mol
# GULP energy per Si atom -5581.972680 kJ/mol
# Density = 2.724765 g / cm^3
# Si number density = 27.309808 Si / 1000 Ang^3
#
#
#
# Elastic Constant Matrix: (Units=GPa)
#
#
# Indices 1 2 3 4 5 6 
#
# 1 112.7482 15.3578 61.1385 -11.7128 30.0794 24.1682
# 2 15.3578 55.8576 41.5547 -13.2786 10.7439 15.1675
# 3 61.1385 41.5547 155.6473 -57.3473 22.9858 18.2833
# 4 -11.7128 -13.2786 -57.3473 51.0811 3.5555 4.2841
# 5 30.0794 10.7439 22.9858 3.5555 59.7685 -5.2449
# 6 24.1682 15.1675 18.2833 4.2841 -5.2449 40.9668
#
#
#
# Elastic Compliance Matrix: (Units=1/GPa)
#
#
# Indices 1 2 3 4 5 6 
#
# 1 0.014592 0.003039 -0.004242 0.000604 -0.007067 -0.008808
# 2 0.003039 0.025075 -0.004886 0.002918 -0.005197 -0.009866
# 3 -0.004242 -0.004886 0.017842 0.018701 -0.005515 -0.006313
# 4 0.000604 0.002918 0.018701 0.043637 -0.012010 -0.015884
# 5 -0.007067 -0.005197 -0.005515 -0.012010 0.025201 0.013037
# 6 -0.008808 -0.009866 -0.006313 -0.015884 0.013037 0.039407
#
#
# Mechanical properties :
#
#
# Convention : Reuss Voigt Hill
#
# Bulk Modulus (GPa) = 22.06107 62.26167 42.16137
# Shear Modulus (GPa) = 25.90096 44.11010 35.00553
#
# Velocity S-wave (km/s) = 3.08297 4.02328 3.58410
# Velocity P-wave (km/s) = 4.55725 6.66560 5.70959
#
# Compressibility (1/GPa) = 0.04532872
#
# Stress axis : x y z
#
# Youngs Moduli (GPa) = 68.53052 39.88076 56.04809
#
# Poissons Ratio (x) = -0.12118 0.23776
# Poissons Ratio (y) = -0.20824 0.27387
# Poissons Ratio (z) = 0.29072 0.19487
#
# Static dielectric constant tensor:
#      x y z
#    x 2.127150 -0.017200 -0.090140 
#    y -0.017200 2.215270 0.071230 
#    z -0.090140 0.071230 2.193030 
# 
# From -- ./inp_files/1607.got.cif
#   From: 2010.05.17/outbox.cif.g08.bks.cpg/sg1_1_cif.got.tgz:1607.got - 2010.05.17 20:27:59.
