data_PCOD9000318
_publ_section_title
;
Structure prediction by ZEFSAII (Michael W. Deem and Ramdas Pophale) SiO2 
 PCOD9000318
Probable space group: P 1
;
_chemical_formula_sum "Si O2"
_cell_formula_units_Z 8
_cell_length_a 7.937459
_cell_length_b 8.778496
_cell_length_c 7.430413
_cell_angle_alpha 77.118255
_cell_angle_beta 88.556068
_cell_angle_gamma 143.111192
_cell_volume 284.048970
_symmetry_space_group_name_H-M "P 1"
_symmetry_group_IT_number 1
_symmetry_cell_setting 'triclinic'
loop_
_space_group_symop_operation_xyz
x,y,z
loop_
_atom_site_type_symbol
_atom_site_label
_atom_site_fract_x
_atom_site_fract_y
_atom_site_fract_z
Si Si1 0.816860 0.299350 0.191060
Si Si2 0.176295 0.280476 0.122068
Si Si3 0.216929 0.102070 0.673111
Si Si4 0.922412 0.409858 0.548417
Si Si5 0.397043 0.925648 0.891362
Si Si6 0.607577 0.775883 0.729435
Si Si7 0.196362 0.954635 0.312089
Si Si8 0.465971 0.590915 0.420263
O O1 0.732235 0.225100 0.423128
O O2 0.899294 0.191399 0.140612
O O3 0.514415 0.145825 0.162456
O O4 0.124525 0.635342 0.086531
O O5 0.383655 0.490955 0.237302
O O6 0.086329 0.027378 0.190421
O O7 0.380067 0.472543 0.893723
O O8 0.920538 0.971663 0.760411
O O9 0.245542 0.970725 0.823850
O O10 0.216076 0.037779 0.488022
O O11 0.473081 0.426668 0.556958
O O12 0.026556 0.663955 0.434449
O O13 0.186607 0.487955 0.507471
O O14 0.746309 0.256096 0.780753
O O15 0.464741 0.827459 0.786778
O O16 0.685904 0.839128 0.498662
#
# Coordination Sequence:
#
# PCOD9000318 Si02
#       8
#     1   1   1   1   1   1   1   1
#     4  10  23  46  65  95 142 181 228 295 339 412
#     4   9  23  45  67 101 139 178 236 290 336 423
#     4  11  23  40  68 100 136 183 230 288 341 420
#     4  11  23  44  67 101 140 183 231 284 353 415
#     4  11  23  45  70  98 144 179 232 292 343 418
#     4  11  23  45  69 101 140 182 233 289 347 412
#     4  11  23  41  69  99 137 184 229 284 355 408
#     4  10  23  42  69  99 136 186 225 286 354 402
#
# _framework density 28.164159999999999
#
# number of rings (size 3 to 8) (size 9 to 14) (size 15 to 20)
#    0.000    1.500    2.500    1.500    1.750    1.000 
#    6.750    2.500    0.000    0.000    0.000    0.000 
#    0.000    0.000    0.000    0.000    0.000    0.000 
#
# Total GULP energy -44585.803218 kJ/mol
# GULP energy per Si atom -5573.225402 kJ/mol
# Density = 2.810006 g / cm^3
# Si number density = 28.164160 Si / 1000 Ang^3
#
#
#
# Elastic Constant Matrix: (Units=GPa)
#
#
# Indices 1 2 3 4 5 6 
#
# 1 162.4439 41.5914 47.0590 5.3827 13.9566 -16.5483
# 2 41.5914 61.2163 16.0329 -18.1716 4.5531 -28.3511
# 3 47.0590 16.0329 145.2787 -21.0126 2.8588 -17.4632
# 4 5.3827 -18.1716 -21.0126 37.7510 -12.8213 15.8701
# 5 13.9566 4.5531 2.8588 -12.8213 45.9697 -19.4611
# 6 -16.5483 -28.3511 -17.4632 15.8701 -19.4611 52.6501
#
#
#
# Elastic Compliance Matrix: (Units=1/GPa)
#
#
# Indices 1 2 3 4 5 6 
#
# 1 0.010083 -0.009159 -0.003694 -0.008739 -0.005348 -0.002331
# 2 -0.009159 0.032450 0.003253 0.016017 0.009986 0.014538
# 3 -0.003694 0.003253 0.009006 0.007122 0.003357 0.002672
# 4 -0.008739 0.016017 0.007122 0.043849 0.012740 -0.000268
# 5 -0.005348 0.009986 0.003357 0.012740 0.030993 0.012425
# 6 -0.002331 0.014538 0.002672 -0.000268 0.012425 0.031649
#
#
# Mechanical properties :
#
#
# Convention : Reuss Voigt Hill
#
# Bulk Modulus (GPa) = 30.92149 64.25618 47.58884
# Shear Modulus (GPa) = 26.59443 44.89121 35.74282
#
# Velocity S-wave (km/s) = 3.07622 3.99671 3.56629
# Velocity P-wave (km/s) = 4.86008 6.64550 5.82164
#
# Compressibility (1/GPa) = 0.03233996
#
# Stress axis : x y z
#
# Youngs Moduli (GPa) = 99.17956 30.81619 111.03458
#
# Poissons Ratio (x) = 0.28223 0.41018
# Poissons Ratio (y) = 0.90834 -0.36120
# Poissons Ratio (z) = 0.36639 -0.10025
#
# Static dielectric constant tensor:
#      x y z
#    x 2.202190 0.074360 0.009650 
#    y 0.074360 2.499240 0.033650 
#    z 0.009650 0.033650 2.341340 
# 
# From -- ./inp_files/2206.got.cif
#   From: 2010.05.17/outbox.cif.g08.bks.cpg/sg1_2_cif.got.tgz:2206.got - 2010.05.17 20:27:59.
