data_PCOD9000815
_publ_section_title
;
Structure prediction by ZEFSAII (Michael W. Deem and Ramdas Pophale) SiO2 
 PCOD9000815
Probable space group: P 1
;
_chemical_formula_sum "Si O2"
_cell_formula_units_Z 8
_cell_length_a 6.968244
_cell_length_b 13.573778
_cell_length_c 10.988756
_cell_angle_alpha 38.087919
_cell_angle_beta 130.324745
_cell_angle_gamma 150.690398
_cell_volume 311.211416
_symmetry_space_group_name_H-M "P 1"
_symmetry_group_IT_number 1
_symmetry_cell_setting 'triclinic'
loop_
_space_group_symop_operation_xyz
x,y,z
loop_
_atom_site_type_symbol
_atom_site_label
_atom_site_fract_x
_atom_site_fract_y
_atom_site_fract_z
Si Si1 0.279710 0.872690 0.632960
Si Si2 0.277405 0.351209 0.457367
Si Si3 0.079860 0.263172 0.947322
Si Si4 0.425354 0.313482 0.290128
Si Si5 0.168888 0.871333 0.122897
Si Si6 0.202446 0.692079 0.531420
Si Si7 0.440615 0.328747 0.790150
Si Si8 0.489535 0.776170 0.048847
O O1 0.429529 0.869007 0.571111
O O2 0.329033 0.791401 0.852577
O O3 0.810496 0.629604 0.650871
O O4 0.420062 0.120602 0.464475
O O5 0.217914 0.246323 0.401289
O O6 0.138077 0.239704 0.646327
O O7 0.742706 0.525259 0.497234
O O8 0.219972 0.511157 0.257783
O O9 0.176506 0.490451 0.727661
O O10 0.324852 0.281985 0.929470
O O11 0.206016 0.281804 0.115728
O O12 0.645528 0.982280 0.009235
O O13 0.861089 0.608884 0.179021
O O14 0.364444 0.849525 0.322471
O O15 0.840141 0.833874 0.082996
O O16 0.490912 0.165555 0.933933
#
# Coordination Sequence:
#
# PCOD9000815 Si02
#       8
#     1   1   1   1   1   1   1   1
#     4  11  20  37  61  88 115 153 195 238 284 342
#     4   9  19  38  58  84 115 150 190 238 284 340
#     4  11  20  37  61  88 115 153 195 238 284 342
#     4  10  20  36  62  84 112 156 196 224 280 358
#     4   9  19  38  58  84 115 150 190 238 284 340
#     4   9  18  35  59  82 113 157 194 223 281 358
#     4  10  22  38  58  88 122 144 186 254 294 318
#     4   9  18  35  59  82 113 157 194 223 281 358
#
# _framework density 25.705997
#
# number of rings (size 3 to 8) (size 9 to 14) (size 15 to 20)
#    0.000    2.500    0.000    6.000    0.000    1.000 
#    0.000   17.500    0.000    0.000    0.000    0.000 
#    0.000    0.000    0.000    0.000    0.000    0.000 
#
# Total GULP energy -44623.721245 kJ/mol
# GULP energy per Si atom -5577.965156 kJ/mol
# Density = 2.564749 g / cm^3
# Si number density = 25.705997 Si / 1000 Ang^3
#
#
#
# Elastic Constant Matrix: (Units=GPa)
#
#
# Indices 1 2 3 4 5 6 
#
# 1 54.2772 51.6976 22.5753 -8.7693 -0.2914 -10.9803
# 2 51.6976 146.3150 76.3443 12.9113 7.4682 -56.9332
# 3 22.5753 76.3443 221.9397 8.9076 17.6483 -39.8796
# 4 -8.7693 12.9113 8.9076 73.5906 -18.3398 -1.4509
# 5 -0.2914 7.4682 17.6483 -18.3398 49.2029 -12.9638
# 6 -10.9803 -56.9332 -39.8796 -1.4509 -12.9638 42.5304
#
#
#
# Elastic Compliance Matrix: (Units=1/GPa)
#
#
# Indices 1 2 3 4 5 6 
#
# 1 0.034848 -0.019243 -0.000294 0.007701 0.001830 -0.016218
# 2 -0.019243 0.026180 -0.001810 -0.005582 0.002075 0.028823
# 3 -0.000294 -0.001810 0.005735 -0.000716 -0.001412 0.002423
# 4 0.007701 -0.005582 -0.000716 0.017148 0.006604 -0.003557
# 5 0.001830 0.002075 -0.001412 0.006604 0.025612 0.009958
# 6 -0.016218 0.028823 0.002423 -0.003557 0.009958 0.063095
#
#
# Mechanical properties :
#
#
# Convention : Reuss Voigt Hill
#
# Bulk Modulus (GPa) = 41.54831 80.41851 60.98341
# Shear Modulus (GPa) = 22.38792 51.19241 36.79016
#
# Velocity S-wave (km/s) = 2.95434 4.46742 3.78721
# Velocity P-wave (km/s) = 5.27593 7.61330 6.54972
#
# Compressibility (1/GPa) = 0.02406837
#
# Stress axis : x y z
#
# Youngs Moduli (GPa) = 28.69636 38.19686 174.37405
#
# Poissons Ratio (x) = 0.73502 0.05128
# Poissons Ratio (y) = 0.55220 0.31565
# Poissons Ratio (z) = 0.00844 0.06914
#
# Static dielectric constant tensor:
#      x y z
#    x 2.348160 0.190940 -0.242910 
#    y 0.190940 2.085340 -0.128260 
#    z -0.242910 -0.128260 2.103730 
# 
# From -- ./inp_files/5294.got.cif
#   From: 2010.05.17/outbox.cif.g08.bks.cpg/sg1_3_cif.got.tgz:5294.got - 2010.05.17 20:27:59.
