data_PCOD9000364
_publ_section_title
;
Structure prediction by ZEFSAII (Michael W. Deem and Ramdas Pophale) SiO2 
 PCOD9000364
Probable space group: P 1
;
_chemical_formula_sum "Si O2"
_cell_formula_units_Z 8
_cell_length_a 11.478515
_cell_length_b 7.227279
_cell_length_c 5.682734
_cell_angle_alpha 103.427616
_cell_angle_beta 88.849269
_cell_angle_gamma 136.979249
_cell_volume 304.784307
_symmetry_space_group_name_H-M "P 1"
_symmetry_group_IT_number 1
_symmetry_cell_setting 'triclinic'
loop_
_space_group_symop_operation_xyz
x,y,z
loop_
_atom_site_type_symbol
_atom_site_label
_atom_site_fract_x
_atom_site_fract_y
_atom_site_fract_z
Si Si1 0.032660 0.609580 0.234550
Si Si2 0.242256 0.311880 0.114835
Si Si3 0.536361 0.339139 0.744493
Si Si4 0.083284 0.382562 0.511650
Si Si5 0.421526 0.622117 0.805552
Si Si6 0.792265 0.163242 0.765236
Si Si7 0.909035 0.724685 0.920679
Si Si8 0.396803 0.109171 0.183905
O O1 0.097039 0.615890 0.483829
O O2 0.202045 0.786488 0.114772
O O3 0.879458 0.283429 0.056433
O O4 0.959612 0.726671 0.191940
O O5 0.109227 0.280085 0.256315
O O6 0.350089 0.278872 0.231749
O O7 0.391869 0.625782 0.084904
O O8 0.089680 0.014310 0.885040
O O9 0.424265 0.396149 0.755929
O O10 0.739824 0.646080 0.862095
O O11 0.500663 0.199627 0.450209
O O12 0.486369 0.176582 0.947852
O O13 0.250350 0.512820 0.682313
O O14 0.903587 0.157473 0.597397
O O15 0.590183 0.882227 0.729231
O O16 0.833022 0.427211 0.749587
#
# Coordination Sequence:
#
# PCOD9000364 Si02
#       8
#     1   1   1   1   1   1   1   1
#     4   9  24  43  66 101 146 191 241 299 377 435
#     4  10  23  49  69 105 144 198 246 307 371 449
#     4  11  24  44  74 110 150 192 257 310 373 446
#     4  12  24  43  76 103 148 197 246 311 375 449
#     4  11  26  43  72 109 148 193 248 309 381 441
#     4  10  26  47  65 112 144 192 248 304 380 443
#     4   9  24  46  69 103 144 192 248 311 366 448
#     4  10  23  45  73 107 146 199 248 309 371 451
#
# _framework density 26.248066999999999
#
# number of rings (size 3 to 8) (size 9 to 14) (size 15 to 20)
#    0.750    1.000    1.250    0.750    7.000    4.000 
#    0.000    0.000    0.000    1.500    0.000    0.000 
#    0.000    0.000    0.000    0.000    0.000    0.000 
#
# Total GULP energy -44577.394033 kJ/mol
# GULP energy per Si atom -5572.174254 kJ/mol
# Density = 2.618833 g / cm^3
# Si number density = 26.248067 Si / 1000 Ang^3
#
#
#
# Elastic Constant Matrix: (Units=GPa)
#
#
# Indices 1 2 3 4 5 6 
#
# 1 119.4604 36.7361 41.5891 -16.5222 13.0120 20.1541
# 2 36.7361 146.7158 43.6782 -30.5567 -7.7603 39.7664
# 3 41.5891 43.6782 89.9471 -14.6649 19.7973 14.9267
# 4 -16.5222 -30.5567 -14.6649 25.3467 1.8971 -8.0074
# 5 13.0120 -7.7603 19.7973 1.8971 41.5899 2.1593
# 6 20.1541 39.7664 14.9267 -8.0074 2.1593 41.6634
#
#
#
# Elastic Compliance Matrix: (Units=1/GPa)
#
#
# Indices 1 2 3 4 5 6 
#
# 1 0.010875 -0.000126 -0.003378 0.004163 -0.001850 -0.003034
# 2 -0.000126 0.012754 -0.003995 0.009807 0.004342 -0.009021
# 3 -0.003378 -0.003995 0.016840 0.003471 -0.007888 0.000489
# 4 0.004163 0.009807 0.003471 0.055721 -0.003577 -0.001724
# 5 -0.001850 0.004342 -0.007888 -0.003577 0.029488 -0.002638
# 6 -0.003034 -0.009021 0.000489 -0.001724 -0.002638 0.033711
#
#
# Mechanical properties :
#
#
# Convention : Reuss Voigt Hill
#
# Bulk Modulus (GPa) = 39.25767 66.68111 52.96939
# Shear Modulus (GPa) = 27.34089 37.32799 32.33444
#
# Velocity S-wave (km/s) = 3.23094 3.77520 3.51362
# Velocity P-wave (km/s) = 5.37657 6.66800 6.05680
#
# Compressibility (1/GPa) = 0.02547273
#
# Stress axis : x y z
#
# Youngs Moduli (GPa) = 91.95611 78.40587 59.38209
#
# Poissons Ratio (x) = 0.00987 0.20057
# Poissons Ratio (y) = 0.01157 0.23721
# Poissons Ratio (z) = 0.31059 0.31321
#
# Static dielectric constant tensor:
#      x y z
#    x 2.072180 -0.059180 -0.028230 
#    y -0.059180 2.090480 -0.029280 
#    z -0.028230 -0.029280 2.267200 
# 
# From -- ./inp_files/2223.got.cif
#   From: 2010.05.17/outbox.cif.g08.bks.cpg/sg1_2_cif.got.tgz:2223.got - 2010.05.17 20:27:59.
