data_PCOD9000573
_publ_section_title
;
Structure prediction by ZEFSAII (Michael W. Deem and Ramdas Pophale) SiO2 
 PCOD9000573
Probable space group: P 1
;
_chemical_formula_sum "Si O2"
_cell_formula_units_Z 8
_cell_length_a 5.033279
_cell_length_b 14.601178
_cell_length_c 11.399820
_cell_angle_alpha 150.370356
_cell_angle_beta 82.274417
_cell_angle_gamma 77.510465
_cell_volume 300.956257
_symmetry_space_group_name_H-M "P 1"
_symmetry_group_IT_number 1
_symmetry_cell_setting 'triclinic'
loop_
_space_group_symop_operation_xyz
x,y,z
loop_
_atom_site_type_symbol
_atom_site_label
_atom_site_fract_x
_atom_site_fract_y
_atom_site_fract_z
Si Si1 0.621350 0.792610 0.270830
Si Si2 0.518171 0.425270 0.849499
Si Si3 0.304917 0.365969 0.349863
Si Si4 0.528226 0.868392 0.855138
Si Si5 0.573137 0.501593 0.321527
Si Si6 0.310097 0.294038 0.939334
Si Si7 0.279762 0.967771 0.242741
Si Si8 0.154422 0.595602 0.861320
O O1 0.619706 0.822132 0.156674
O O2 0.488677 0.005540 0.606139
O O3 0.446134 0.678248 0.171914
O O4 0.054901 0.613067 0.031276
O O5 0.429428 0.310953 0.825026
O O6 0.571960 0.366954 0.637292
O O7 0.974883 0.221358 0.613590
O O8 0.618723 0.360678 0.282041
O O9 0.171398 0.467417 0.601770
O O10 0.942506 0.595826 0.551970
O O11 0.460532 0.085363 0.025741
O O12 0.347058 0.782428 0.698999
O O13 0.392538 0.969379 0.108233
O O14 0.442842 0.396709 0.128505
O O15 0.893487 0.446893 0.166278
O O16 0.160776 0.810110 0.070841
#
# Coordination Sequence:
#
# PCOD9000573 Si02
#       8
#     1   1   1   1   1   1   1   1
#     4  11  25  45  73 112 159 203 264 331 411 479
#     4  11  27  44  77 118 156 211 258 344 409 486
#     4  12  28  52  84 122 162 214 273 347 411 489
#     4  12  28  51  83 120 167 211 275 342 413 488
#     4  12  29  54  79 117 161 226 275 333 399 491
#     4  12  28  52  78 115 164 216 277 324 400 494
#     4  11  23  45  75 115 163 199 264 335 422 478
#     4  11  24  43  77 121 156 202 264 344 419 481
#
# _framework density 26.581935999999999
#
# number of rings (size 3 to 8) (size 9 to 14) (size 15 to 20)
#    0.000    0.500    5.000    1.500   10.500    3.000 
#    0.000    0.000    0.000    0.000    0.000    0.000 
#    0.000    0.000    0.000    0.000    0.000    0.000 
#
# Total GULP energy -44583.979096 kJ/mol
# GULP energy per Si atom -5572.997387 kJ/mol
# Density = 2.652143 g / cm^3
# Si number density = 26.581936 Si / 1000 Ang^3
#
#
#
# Elastic Constant Matrix: (Units=GPa)
#
#
# Indices 1 2 3 4 5 6 
#
# 1 148.3059 9.4089 66.3579 2.0795 22.9284 12.3596
# 2 9.4089 5.8349 70.0681 -1.8697 -16.2678 16.7670
# 3 66.3579 70.0681 97.0031 13.7547 51.1508 -17.5315
# 4 2.0795 -1.8697 13.7547 37.7262 7.1718 14.9431
# 5 22.9284 -16.2678 51.1508 7.1718 46.4684 5.0543
# 6 12.3596 16.7670 -17.5315 14.9431 5.0543 37.4956
#
#
#
# Elastic Compliance Matrix: (Units=1/GPa)
#
#
# Indices 1 2 3 4 5 6 
#
# 1 0.008303 -0.003780 -0.001309 0.001229 -0.003993 -0.001610
# 2 -0.003780 -0.000080 0.010157 -0.005443 -0.009535 0.009485
# 3 -0.001309 0.010157 0.001185 0.001326 0.003184 -0.004514
# 4 0.001229 -0.005443 0.001326 0.030514 -0.007761 -0.008466
# 5 -0.003993 -0.009535 0.003184 -0.007761 0.016989 0.007872
# 6 -0.001610 0.009485 -0.004514 -0.008466 0.007872 0.023161
#
#
# Mechanical properties :
#
#
# Convention : Reuss Voigt Hill
#
# Bulk Modulus (GPa) = 51.16480 60.31265 55.73873
# Shear Modulus (GPa) = 65.40167 31.35865 48.38016
#
# Velocity S-wave (km/s) = 4.96560 3.43840 4.27082
# Velocity P-wave (km/s) = 7.22261 6.20500 6.73306
#
# Compressibility (1/GPa) = 0.01954469
#
# Stress axis : x y z
#
# Youngs Moduli (GPa) = 120.44205 -12565.49065 844.01096
#
# Poissons Ratio (x) = -47.49361 1.10495
# Poissons Ratio (y) = 0.45523 -8.57279
# Poissons Ratio (z) = 0.15768 127.63016
#
# Static dielectric constant tensor:
#      x y z
#    x 2.217560 -0.119830 -0.123390 
#    y -0.119830 2.218860 0.103830 
#    z -0.123390 0.103830 2.284370 
# 
# From -- ./inp_files/650.got.cif
#   From: 2010.05.17/outbox.cif.g08.bks.cpg/sg1_1_cif.got.tgz:650.got - 2010.05.17 20:27:59.
