data_PCOD9000859
_publ_section_title
;
Structure prediction by ZEFSAII (Michael W. Deem and Ramdas Pophale) SiO2 
 PCOD9000859
Probable space group: P 1
;
_chemical_formula_sum "Si O2"
_cell_formula_units_Z 8
_cell_length_a 7.017264
_cell_length_b 6.824034
_cell_length_c 11.350138
_cell_angle_alpha 94.939805
_cell_angle_beta 132.086781
_cell_angle_gamma 68.064966
_cell_volume 363.349506
_symmetry_space_group_name_H-M "P 1"
_symmetry_group_IT_number 1
_symmetry_cell_setting 'triclinic'
loop_
_space_group_symop_operation_xyz
x,y,z
loop_
_atom_site_type_symbol
_atom_site_label
_atom_site_fract_x
_atom_site_fract_y
_atom_site_fract_z
Si Si1 0.879800 0.335080 0.441700
Si Si2 0.803665 0.495959 0.016780
Si Si3 0.448079 0.121523 0.556885
Si Si4 0.710541 0.746729 0.221580
Si Si5 0.434061 0.140087 0.292711
Si Si6 0.230147 0.515321 0.746666
Si Si7 0.300945 0.630157 0.534720
Si Si8 0.823395 0.720682 0.794271
O O1 0.750729 0.548768 0.316794
O O2 0.138540 0.147919 0.469594
O O3 0.052539 0.383955 0.622207
O O4 0.635628 0.263371 0.367177
O O5 0.570913 0.401542 0.893121
O O6 0.856860 0.611647 0.929256
O O7 0.096264 0.618852 0.820201
O O8 0.664544 0.677136 0.069634
O O9 0.407994 0.370311 0.550940
O O10 0.106107 0.311405 0.170999
O O11 0.689511 0.980428 0.741512
O O12 0.494711 0.968649 0.203323
O O13 0.022844 0.743894 0.347673
O O14 0.515900 0.028274 0.448709
O O15 0.198828 0.677869 0.631942
O O16 0.566159 0.680757 0.626306
#
# Coordination Sequence:
#
# PCOD9000859 Si02
#       8
#     1   1   1   1   1   1   1   1
#     4  10  22  44  73  99 128 174 236 271 316 407
#     4  11  25  45  61 104 146 162 221 285 328 398
#     4  10  20  39  67  99 124 167 227 269 314 395
#     4  10  22  45  67  99 138 169 222 283 322 395
#     4  12  23  43  75  97 128 183 223 271 339 386
#     4   9  21  41  63  92 135 172 211 276 322 387
#     4   9  19  41  65  95 129 163 230 275 300 399
#     4  11  22  40  67  91 132 182 208 266 343 381
#
# _framework density 22.01737
#
# number of rings (size 3 to 8) (size 9 to 14) (size 15 to 20)
#    0.000    2.000    2.500    3.000    1.750    1.000 
#   13.500    0.000    0.000    0.000    0.000    0.000 
#    0.000    0.000    0.000    0.000    0.000    0.000 
#
# Total GULP energy -44653.487298 kJ/mol
# GULP energy per Si atom -5581.685912 kJ/mol
# Density = 2.196726 g / cm^3
# Si number density = 22.017370 Si / 1000 Ang^3
#
#
#
# Elastic Constant Matrix: (Units=GPa)
#
#
# Indices 1 2 3 4 5 6 
#
# 1 131.1472 31.4200 41.6466 9.0463 -4.2731 -2.4860
# 2 31.4200 66.2319 25.0778 5.2130 -10.0001 -8.8371
# 3 41.6466 25.0778 83.9877 7.5986 -13.2786 3.5801
# 4 9.0463 5.2130 7.5986 28.1765 -2.6860 -3.5914
# 5 -4.2731 -10.0001 -13.2786 -2.6860 32.0789 7.1519
# 6 -2.4860 -8.8371 3.5801 -3.5914 7.1519 23.2874
#
#
#
# Elastic Compliance Matrix: (Units=1/GPa)
#
#
# Indices 1 2 3 4 5 6 
#
# 1 0.009720 -0.003107 -0.004047 -0.001515 -0.001643 0.000752
# 2 -0.003107 0.019453 -0.004155 -0.000376 0.002359 0.006907
# 3 -0.004047 -0.004155 0.016709 -0.002715 0.006408 -0.006964
# 4 -0.001515 -0.000376 -0.002715 0.037555 0.000414 0.005778
# 5 -0.001643 0.002359 0.006408 0.000414 0.036952 -0.011550
# 6 0.000752 0.006907 -0.006964 0.005778 -0.011550 0.051152
#
#
# Mechanical properties :
#
#
# Convention : Reuss Voigt Hill
#
# Bulk Modulus (GPa) = 42.98493 53.07284 48.02888
# Shear Modulus (GPa) = 24.76314 28.92338 26.84326
#
# Velocity S-wave (km/s) = 3.35731 3.62838 3.49547
# Velocity P-wave (km/s) = 5.88169 6.45839 6.17677
#
# Compressibility (1/GPa) = 0.02326397
#
# Stress axis : x y z
#
# Youngs Moduli (GPa) = 102.88345 51.40561 59.84691
#
# Poissons Ratio (x) = 0.15974 0.24218
# Poissons Ratio (y) = 0.31970 0.24867
# Poissons Ratio (z) = 0.41633 0.21360
#
# Static dielectric constant tensor:
#      x y z
#    x 1.800050 0.000410 -0.008630 
#    y 0.000410 1.866920 0.019600 
#    z -0.008630 0.019600 1.833880 
# 
# From -- ./inp_files/3410.got.cif
#   From: 2010.05.17/outbox.cif.g08.bks.cpg/sg1_2_cif.got.tgz:3410.got - 2010.05.17 20:27:59.
