data_PCOD9000440
_publ_section_title
;
Structure prediction by ZEFSAII (Michael W. Deem and Ramdas Pophale) SiO2 
 PCOD9000440
Probable space group: P 1
;
_chemical_formula_sum "Si O2"
_cell_formula_units_Z 8
_cell_length_a 7.040206
_cell_length_b 6.721597
_cell_length_c 9.311173
_cell_angle_alpha 113.686787
_cell_angle_beta 103.691021
_cell_angle_gamma 68.125090
_cell_volume 372.478519
_symmetry_space_group_name_H-M "P 1"
_symmetry_group_IT_number 1
_symmetry_cell_setting 'triclinic'
loop_
_space_group_symop_operation_xyz
x,y,z
loop_
_atom_site_type_symbol
_atom_site_label
_atom_site_fract_x
_atom_site_fract_y
_atom_site_fract_z
Si Si1 0.834940 0.251720 0.864460
Si Si2 0.857441 0.000539 0.289837
Si Si3 0.131281 0.729984 0.775171
Si Si4 0.603106 0.069549 0.541344
Si Si5 0.401708 0.928510 0.708970
Si Si6 0.547810 0.225966 0.051306
Si Si7 0.143626 0.266624 0.535614
Si Si8 0.124479 0.565347 0.040639
O O1 0.694499 0.240076 0.698544
O O2 0.688397 0.319574 0.996892
O O3 0.973216 0.417691 0.933829
O O4 0.976064 0.986584 0.829190
O O5 0.754829 0.963467 0.409803
O O6 0.678842 0.111483 0.177014
O O7 0.989687 0.170191 0.393685
O O8 0.005917 0.771926 0.180745
O O9 0.055069 0.531816 0.635065
O O10 0.318825 0.741020 0.710900
O O11 0.187414 0.653955 0.926596
O O12 0.566094 0.887646 0.597570
O O13 0.371119 0.204679 0.487221
O O14 0.208779 0.117957 0.651929
O O15 0.487609 0.042539 0.887084
O O16 0.333542 0.411186 0.105338
#
# Coordination Sequence:
#
# PCOD9000440 Si02
#       8
#     1   1   1   1   1   1   1   1
#     4  11  23  47  74 110 137 189 257 283 350 440
#     4  12  26  48  72 107 152 192 224 297 380 411
#     4  12  19  44  81 100 140 190 238 299 351 408
#     4   9  23  48  69 102 149 180 246 291 346 436
#     4   9  21  45  76  99 137 188 247 289 339 430
#     4  11  24  48  71 114 139 185 251 287 355 434
#     4  10  24  47  69 105 145 187 238 300 347 426
#     4  12  26  45  76 105 151 183 235 310 346 425
#
# _framework density 21.477747999999998
#
# number of rings (size 3 to 8) (size 9 to 14) (size 15 to 20)
#    0.750    0.500    3.750    1.500    0.000    5.000 
#   15.750    0.000    0.000    0.000    0.000    0.000 
#    0.000    0.000    0.000    0.000    0.000    0.000 
#
# Total GULP energy -44681.636674 kJ/mol
# GULP energy per Si atom -5585.204584 kJ/mol
# Density = 2.142886 g / cm^3
# Si number density = 21.477748 Si / 1000 Ang^3
#
#
#
# Elastic Constant Matrix: (Units=GPa)
#
#
# Indices 1 2 3 4 5 6 
#
# 1 114.7522 58.2071 55.8462 -5.6384 -15.1527 -12.5609
# 2 58.2071 82.4654 58.1549 4.6478 -6.6081 16.5563
# 3 55.8462 58.1549 111.1764 -0.6511 -12.8299 -11.8313
# 4 -5.6384 4.6478 -0.6511 22.2358 -5.5843 -2.3214
# 5 -15.1527 -6.6081 -12.8299 -5.5843 41.5295 -10.6239
# 6 -12.5609 16.5563 -11.8313 -2.3214 -10.6239 3.1383
#
#
#
# Elastic Compliance Matrix: (Units=1/GPa)
#
#
# Indices 1 2 3 4 5 6 
#
# 1 0.009129 0.002283 -0.007918 -0.000919 -0.003134 -0.016645
# 2 0.002283 0.004179 0.001108 0.005486 0.010315 0.030243
# 3 -0.007918 0.001108 0.010391 -0.004397 -0.003793 -0.014458
# 4 -0.000919 0.005486 -0.004397 0.041206 -0.000503 -0.020416
# 5 -0.003134 0.010315 -0.003793 -0.000503 0.018329 -0.019580
# 6 -0.016645 0.030243 -0.014458 -0.020416 -0.019580 -0.043417
#
#
# Mechanical properties :
#
#
# Convention : Reuss Voigt Hill
#
# Bulk Modulus (GPa) = 68.28668 72.53447 70.41057
# Shear Modulus (GPa) = 93.01858 22.45979 57.73918
#
# Velocity S-wave (km/s) = 6.58812 3.23727 5.19053
# Velocity P-wave (km/s) = 9.47282 6.91509 8.29315
#
# Compressibility (1/GPa) = 0.01464415
#
# Stress axis : x y z
#
# Youngs Moduli (GPa) = 109.54093 239.29246 96.24123
#
# Poissons Ratio (x) = -0.54629 0.76206
# Poissons Ratio (y) = -0.25007 -0.10665
# Poissons Ratio (z) = 0.86737 -0.26517
#
# Static dielectric constant tensor:
#      x y z
#    x 1.840390 0.007440 -0.026020 
#    y 0.007440 1.784870 -0.019320 
#    z -0.026020 -0.019320 1.751020 
# 
# From -- ./inp_files/3438.got.cif
#   From: 2010.05.17/outbox.cif.g08.bks.cpg/sg1_2_cif.got.tgz:3438.got - 2010.05.17 20:27:59.
