data_PCOD9000285
_publ_section_title
;
Structure prediction by ZEFSAII (Michael W. Deem and Ramdas Pophale) SiO2 
 PCOD9000285
Probable space group: P 1
;
_chemical_formula_sum "Si O2"
_cell_formula_units_Z 8
_cell_length_a 11.361706
_cell_length_b 14.991732
_cell_length_c 8.610455
_cell_angle_alpha 30.758521
_cell_angle_beta 139.286546
_cell_angle_gamma 153.645454
_cell_volume 332.504888
_symmetry_space_group_name_H-M "P 1"
_symmetry_group_IT_number 1
_symmetry_cell_setting 'triclinic'
loop_
_space_group_symop_operation_xyz
x,y,z
loop_
_atom_site_type_symbol
_atom_site_label
_atom_site_fract_x
_atom_site_fract_y
_atom_site_fract_z
Si Si1 0.804220 0.510360 0.448010
Si Si2 0.921865 0.785168 0.425492
Si Si3 0.841670 0.921166 0.751325
Si Si4 0.270336 0.620316 0.644569
Si Si5 0.817277 0.690035 0.802563
Si Si6 0.512434 0.157232 0.430546
Si Si7 0.239579 0.447063 0.535103
Si Si8 0.427998 0.697353 0.021874
O O1 0.821876 0.540665 0.603660
O O2 0.592949 0.231251 0.581477
O O3 0.089459 0.658582 0.441949
O O4 0.741876 0.663660 0.103319
O O5 0.961942 0.778009 0.655372
O O6 0.692953 0.768086 0.202832
O O7 0.220437 0.027854 0.300819
O O8 0.583362 0.858123 0.566832
O O9 0.965012 0.932669 0.699348
O O10 0.039756 0.159098 0.704648
O O11 0.165438 0.462257 0.612873
O O12 0.271873 0.531607 0.953613
O O13 0.532638 0.578621 0.657420
O O14 0.731199 0.437648 0.152135
O O15 0.510023 0.954920 0.686027
O O16 0.273602 0.584008 0.203013
#
# Coordination Sequence:
#
# PCOD9000285 Si02
#       8
#     1   1   1   1   1   1   1   1
#     4  11  24  42  69 104 135 182 234 279 354 413
#     4  11  23  47  68 104 143 179 239 284 345 424
#     4  10  22  47  70  97 135 187 230 285 348 410
#     4  11  24  45  69 103 139 179 236 283 348 416
#     4   9  23  44  72 104 135 182 239 285 347 416
#     4  11  25  46  71  98 143 187 224 292 353 404
#     4  10  24  46  70 101 142 183 233 290 346 415
#     4  11  25  47  69 105 140 183 235 286 351 416
#
# _framework density 24.059795999999999
#
# number of rings (size 3 to 8) (size 9 to 14) (size 15 to 20)
#    0.000    1.500    2.500    0.750    1.750    6.000 
#   11.250    0.000    0.000    0.000    0.000    0.000 
#    0.000    0.000    0.000    0.000    0.000    0.000 
#
# Total GULP energy -44581.977842 kJ/mol
# GULP energy per Si atom -5572.747230 kJ/mol
# Density = 2.400504 g / cm^3
# Si number density = 24.059796 Si / 1000 Ang^3
#
#
#
# Elastic Constant Matrix: (Units=GPa)
#
#
# Indices 1 2 3 4 5 6 
#
# 1 146.2983 60.0564 56.4162 4.4135 8.0446 -44.5620
# 2 60.0564 114.8522 22.8599 9.6971 7.5775 -35.5908
# 3 56.4162 22.8599 74.6839 7.7638 -0.3391 -5.5179
# 4 4.4135 9.6971 7.7638 29.1983 -3.6913 5.2419
# 5 8.0446 7.5775 -0.3391 -3.6913 34.7413 15.8839
# 6 -44.5620 -35.5908 -5.5179 5.2419 15.8839 56.8754
#
#
#
# Elastic Compliance Matrix: (Units=1/GPa)
#
#
# Indices 1 2 3 4 5 6 
#
# 1 0.016560 -0.000990 -0.010835 -0.003275 -0.010752 0.014609
# 2 -0.000990 0.014218 -0.002095 -0.007085 -0.008672 0.010994
# 3 -0.010835 -0.002095 0.021603 -0.000704 0.007560 -0.009751
# 4 -0.003275 -0.007085 -0.000704 0.041610 0.013416 -0.014650
# 5 -0.010752 -0.008672 0.007560 0.013416 0.047262 -0.027552
# 6 0.014609 0.010994 -0.009751 -0.014650 -0.027552 0.044006
#
#
# Mechanical properties :
#
#
# Convention : Reuss Voigt Hill
#
# Bulk Modulus (GPa) = 40.74786 68.27771 54.51278
# Shear Modulus (GPa) = 22.59585 37.26314 29.92949
#
# Velocity S-wave (km/s) = 3.06789 3.93971 3.53081
# Velocity P-wave (km/s) = 5.43342 7.00964 6.27125
#
# Compressibility (1/GPa) = 0.02454117
#
# Stress axis : x y z
#
# Youngs Moduli (GPa) = 60.38759 70.33152 46.28966
#
# Poissons Ratio (x) = 0.06960 0.50156
# Poissons Ratio (y) = 0.05976 0.09698
# Poissons Ratio (z) = 0.65432 0.14735
#
# Static dielectric constant tensor:
#      x y z
#    x 2.026070 -0.071280 -0.100410 
#    y -0.071280 1.942530 0.070170 
#    z -0.100410 0.070170 1.966380 
# 
# From -- ./inp_files/5591.got.cif
#   From: 2010.05.17/outbox.cif.g08.bks.cpg/sg1_3_cif.got.tgz:5591.got - 2010.05.17 20:27:59.
