data_PCOD9000570
_publ_section_title
;
Structure prediction by ZEFSAII (Michael W. Deem and Ramdas Pophale) SiO2 
 PCOD9000570
Probable space group: P 1
;
_chemical_formula_sum "Si O2"
_cell_formula_units_Z 6
_cell_length_a 5.112672
_cell_length_b 7.335242
_cell_length_c 9.981813
_cell_angle_alpha 139.727047
_cell_angle_beta 78.335483
_cell_angle_gamma 96.134059
_cell_volume 236.324820
_symmetry_space_group_name_H-M "P 1"
_symmetry_group_IT_number 1
_symmetry_cell_setting 'triclinic'
loop_
_space_group_symop_operation_xyz
x,y,z
loop_
_atom_site_type_symbol
_atom_site_label
_atom_site_fract_x
_atom_site_fract_y
_atom_site_fract_z
Si Si1 0.131850 0.072940 0.686580
Si Si2 0.273787 0.987973 0.327951
Si Si3 0.302212 0.644715 0.635652
Si Si4 0.600605 0.441719 0.962317
Si Si5 0.584633 0.391608 0.249266
Si Si6 0.083960 0.035180 0.106585
O O1 0.216083 0.929054 0.455373
O O2 0.359252 0.257963 0.832757
O O3 0.875853 0.285366 0.795892
O O4 0.091392 0.830921 0.666155
O O5 0.316401 0.319300 0.500600
O O6 0.047008 0.954740 0.220509
O O7 0.503722 0.764695 0.122874
O O8 0.558832 0.635943 0.502611
O O9 0.249218 0.804706 0.870201
O O10 0.639963 0.448530 0.122239
O O11 0.286668 0.284549 0.223553
O O12 0.809398 0.155777 0.139013
#
# Coordination Sequence:
#
# PCOD9000570 Si02
#       6
#     1   1   1   1   1   1
#     4  12  27  48  76 105 146 194 237 295 362 429
#     4  11  28  47  73 114 142 187 245 300 354 428
#     4  11  24  47  76 105 142 193 237 293 360 425
#     4  12  25  49  73 107 148 186 242 298 356 426
#     4  11  23  44  74 105 137 190 235 290 355 423
#     4  11  25  45  72 104 145 182 238 294 353 421
#
# _framework density 25.388788000000002
#
# number of rings (size 3 to 8) (size 9 to 14) (size 15 to 20)
#    0.000    0.667    5.000    1.000    0.000   16.000 
#    0.000    0.000    0.000    0.000    0.000    0.000 
#    0.000    0.000    0.000    0.000    0.000    0.000 
#
# Total GULP energy -33481.875425 kJ/mol
# GULP energy per Si atom -5580.312571 kJ/mol
# Density = 2.533100 g / cm^3
# Si number density = 25.388788 Si / 1000 Ang^3
#
#
#
# Elastic Constant Matrix: (Units=GPa)
#
#
# Indices 1 2 3 4 5 6 
#
# 1 114.7455 25.2211 35.0719 22.3466 -4.7961 -18.2581
# 2 25.2211 122.4486 26.2316 -0.2819 18.2001 -30.8627
# 3 35.0719 26.2316 180.1458 14.1765 -6.3785 -19.2477
# 4 22.3466 -0.2819 14.1765 68.6078 -7.4986 1.5442
# 5 -4.7961 18.2001 -6.3785 -7.4986 25.9681 -0.3185
# 6 -18.2581 -30.8627 -19.2477 1.5442 -0.3185 29.3353
#
#
#
# Elastic Compliance Matrix: (Units=1/GPa)
#
#
# Indices 1 2 3 4 5 6 
#
# 1 0.010773 -0.000890 -0.001101 -0.003242 0.001471 0.005232
# 2 -0.000890 0.013140 -0.000647 -0.000862 -0.009625 0.012787
# 3 -0.001101 -0.000647 0.006282 -0.000832 0.001587 0.002817
# 4 -0.003242 -0.000862 -0.000832 0.016386 0.004480 -0.004284
# 5 0.001471 -0.009625 0.001587 0.004480 0.047113 -0.007893
# 6 0.005232 0.012787 0.002817 -0.004284 -0.007893 0.052786
#
#
# Mechanical properties :
#
#
# Convention : Reuss Voigt Hill
#
# Bulk Modulus (GPa) = 40.13166 65.59879 52.86522
# Shear Modulus (GPa) = 31.23778 46.83658 39.03718
#
# Velocity S-wave (km/s) = 3.51148 4.29974 3.92545
# Velocity P-wave (km/s) = 5.68171 7.10944 6.43529
#
# Compressibility (1/GPa) = 0.02491798
#
# Stress axis : x y z
#
# Youngs Moduli (GPa) = 92.82773 76.10337 159.17650
#
# Poissons Ratio (x) = 0.06776 0.17532
# Poissons Ratio (y) = 0.08265 0.10295
# Poissons Ratio (z) = 0.10224 0.04922
#
# Static dielectric constant tensor:
#      x y z
#    x 2.026780 0.021850 0.064240 
#    y 0.021850 2.050710 -0.006040 
#    z 0.064240 -0.006040 2.087510 
# 
# From -- ./inp_files/468.got.cif
#   From: 2010.05.17/outbox.cif.g08.bks.cpg/sg1_1_cif.got.tgz:468.got - 2010.05.17 20:27:59.
