data_PCOD9000269
_publ_section_title
;
Structure prediction by ZEFSAII (Michael W. Deem and Ramdas Pophale) SiO2 
 PCOD9000269
Probable space group: P 1
;
_chemical_formula_sum "Si O2"
_cell_formula_units_Z 8
_cell_length_a 5.040671
_cell_length_b 5.434860
_cell_length_c 12.687424
_cell_angle_alpha 112.261042
_cell_angle_beta 82.451055
_cell_angle_gamma 96.967325
_cell_volume 317.911828
_symmetry_space_group_name_H-M "P 1"
_symmetry_group_IT_number 1
_symmetry_cell_setting 'triclinic'
loop_
_space_group_symop_operation_xyz
x,y,z
loop_
_atom_site_type_symbol
_atom_site_label
_atom_site_fract_x
_atom_site_fract_y
_atom_site_fract_z
Si Si1 0.237640 0.634690 0.105590
Si Si2 0.068467 0.067752 0.052492
Si Si3 0.499233 0.741277 0.323648
Si Si4 0.557496 0.805086 0.924367
Si Si5 0.258592 0.649404 0.715181
Si Si6 0.137013 0.094524 0.661488
Si Si7 0.961918 0.635073 0.442382
Si Si8 0.548737 0.281523 0.515913
O O1 0.037785 0.380208 0.103265
O O2 0.452556 0.683227 0.194819
O O3 0.085438 0.903829 0.134443
O O4 0.400351 0.603424 0.982792
O O5 0.367550 0.048809 0.987812
O O6 0.849279 0.899735 0.966101
O O7 0.245449 0.588873 0.370077
O O8 0.759137 0.665225 0.360631
O O9 0.475937 0.055751 0.397454
O O10 0.499319 0.703303 0.793757
O O11 0.064737 0.398584 0.725571
O O12 0.379252 0.541162 0.582085
O O13 0.129597 0.919078 0.737291
O O14 0.444999 0.143252 0.608820
O O15 0.987185 0.913424 0.550862
O O16 0.840425 0.406860 0.490475
#
# Coordination Sequence:
#
# PCOD9000269 Si02
#       8
#     1   1   1   1   1   1   1   1
#     4  10  27  47  71 104 138 184 230 290 340 411
#     4  10  26  43  73  97 143 174 240 277 346 396
#     4  11  26  41  71 102 139 184 229 282 346 408
#     4  10  26  47  72 105 137 184 229 288 343 412
#     4  10  22  45  71 102 140 182 225 284 344 412
#     4   9  23  42  66 101 139 178 227 276 339 410
#     4  11  24  44  67 102 142 180 230 280 341 413
#     4   9  22  41  67  99 138 178 222 281 335 412
#
# _framework density 25.164207000000001
#
# number of rings (size 3 to 8) (size 9 to 14) (size 15 to 20)
#    1.500    0.500    0.000    1.500    8.750    3.000 
#    0.000    0.000    0.000    0.000    0.000    0.000 
#    0.000    0.000    0.000    0.000    0.000    0.000 
#
# Total GULP energy -44637.204991 kJ/mol
# GULP energy per Si atom -5579.650624 kJ/mol
# Density = 2.510693 g / cm^3
# Si number density = 25.164207 Si / 1000 Ang^3
#
#
#
# Elastic Constant Matrix: (Units=GPa)
#
#
# Indices 1 2 3 4 5 6 
#
# 1 73.2455 27.6367 22.2564 -13.9910 23.4669 4.4316
# 2 27.6367 196.0026 44.8764 5.3812 19.5203 4.3816
# 3 22.2564 44.8764 98.3733 -17.2536 37.3827 -8.7497
# 4 -13.9910 5.3812 -17.2536 29.4353 -6.1858 10.1076
# 5 23.4669 19.5203 37.3827 -6.1858 36.7626 -0.2835
# 6 4.4316 4.3816 -8.7497 10.1076 -0.2835 26.8541
#
#
#
# Elastic Compliance Matrix: (Units=1/GPa)
#
#
# Indices 1 2 3 4 5 6 
#
# 1 0.020302 -0.002385 0.002663 0.011222 -0.012563 -0.006450
# 2 -0.002385 0.006232 -0.003401 -0.003980 0.001001 -0.000223
# 3 0.002663 -0.003401 0.020059 0.008584 -0.018822 0.003222
# 4 0.011222 -0.003980 0.008584 0.049814 -0.005529 -0.017214
# 5 -0.012563 0.001001 -0.018822 -0.005529 0.052887 -0.001583
# 6 -0.006450 -0.000223 0.003222 -0.017214 -0.001583 0.045851
#
#
# Mechanical properties :
#
#
# Convention : Reuss Voigt Hill
#
# Bulk Modulus (GPa) = 24.78531 61.90673 43.34602
# Shear Modulus (GPa) = 23.27312 36.80054 30.03683
#
# Velocity S-wave (km/s) = 3.04443 3.82830 3.45865
# Velocity P-wave (km/s) = 4.71476 6.64799 5.76301
#
# Compressibility (1/GPa) = 0.04034648
#
# Stress axis : x y z
#
# Youngs Moduli (GPa) = 49.25598 160.47224 49.85250
#
# Poissons Ratio (x) = 0.38275 -0.13277
# Poissons Ratio (y) = 0.11748 0.16957
# Poissons Ratio (z) = -0.13119 0.54583
#
# Static dielectric constant tensor:
#      x y z
#    x 2.002720 -0.054990 -0.022890 
#    y -0.054990 2.037740 0.012880 
#    z -0.022890 0.012880 1.947950 
# 
# From -- ./inp_files/6917.got.cif
#   From: 2010.05.17/outbox.cif.g08.bks.cpg/sg1_4_cif.got.tgz:6917.got - 2010.05.17 20:27:59.
