data_PCOD9000970
_publ_section_title
;
Structure prediction by ZEFSAII (Michael W. Deem and Ramdas Pophale) SiO2 
 PCOD9000970
Probable space group: P 1
;
_chemical_formula_sum "Si O2"
_cell_formula_units_Z 8
_cell_length_a 5.631760
_cell_length_b 7.184491
_cell_length_c 14.593211
_cell_angle_alpha 35.902265
_cell_angle_beta 64.850874
_cell_angle_gamma 60.287552
_cell_volume 300.405214
_symmetry_space_group_name_H-M "P 1"
_symmetry_group_IT_number 1
_symmetry_cell_setting 'triclinic'
loop_
_space_group_symop_operation_xyz
x,y,z
loop_
_atom_site_type_symbol
_atom_site_label
_atom_site_fract_x
_atom_site_fract_y
_atom_site_fract_z
Si Si1 0.207290 0.741700 0.686750
Si Si2 0.653388 0.104316 0.628928
Si Si3 0.654976 0.021284 0.449469
Si Si4 0.916291 0.005218 0.236771
Si Si5 0.075441 0.382353 0.684675
Si Si6 0.644207 0.059555 0.931007
Si Si7 0.505655 0.931080 0.206801
Si Si8 0.578745 0.580735 0.975696
O O1 0.359303 0.967443 0.516098
O O2 0.060027 0.554036 0.717109
O O3 0.439778 0.435485 0.812752
O O4 0.950281 0.015272 0.664845
O O5 0.380390 0.359822 0.609846
O O6 0.676491 0.147822 0.498547
O O7 0.561391 0.781519 0.805390
O O8 0.864252 0.654911 0.550482
O O9 0.748394 0.184958 0.281609
O O10 0.739260 0.790220 0.301404
O O11 0.878426 0.313137 0.049105
O O12 0.229494 0.831658 0.275962
O O13 0.943901 0.083184 0.842497
O O14 0.640901 0.925912 0.087269
O O15 0.535709 0.847273 0.957729
O O16 0.403749 0.318812 0.102840
#
# Coordination Sequence:
#
# PCOD9000970 Si02
#       8
#     1   1   1   1   1   1   1   1
#     4  10  21  38  66  95 135 178 227 280 353 406
#     4  11  22  38  68 100 133 170 232 289 347 408
#     4  10  24  43  66  94 138 186 229 284 352 418
#     4  10  25  45  67  97 142 187 235 281 354 417
#     4  10  23  38  66 103 134 172 230 290 344 417
#     4  11  22  41  67 108 141 172 237 292 351 422
#     4  10  24  43  68 100 137 192 224 287 355 406
#     4  10  23  38  70 103 136 179 228 291 348 420
#
# _framework density 26.630694999999999
#
# number of rings (size 3 to 8) (size 9 to 14) (size 15 to 20)
#    0.750    1.000    1.250    3.000    8.750    0.000 
#    2.250    0.000    0.000    0.000    0.000    0.000 
#    0.000    0.000    0.000    0.000    0.000    0.000 
#
# Total GULP energy -44613.259434 kJ/mol
# GULP energy per Si atom -5576.657429 kJ/mol
# Density = 2.657008 g / cm^3
# Si number density = 26.630695 Si / 1000 Ang^3
#
#
#
# Elastic Constant Matrix: (Units=GPa)
#
#
# Indices 1 2 3 4 5 6 
#
# 1 140.7774 51.6400 19.6720 18.2317 -8.7595 -6.0556
# 2 51.6400 118.1628 23.0218 23.4130 -0.9129 4.2840
# 3 19.6720 23.0218 56.8602 25.1671 5.2673 6.4911
# 4 18.2317 23.4130 25.1671 47.7975 -1.9182 5.2186
# 5 -8.7595 -0.9129 5.2673 -1.9182 36.9022 10.8847
# 6 -6.0556 4.2840 6.4911 5.2186 10.8847 62.3860
#
#
#
# Elastic Compliance Matrix: (Units=1/GPa)
#
#
# Indices 1 2 3 4 5 6 
#
# 1 0.008851 -0.003402 -0.001569 -0.000916 0.001898 0.001002
# 2 -0.003402 0.010925 -0.001805 -0.003050 -0.000264 -0.000592
# 3 -0.001569 -0.001805 0.024421 -0.011451 -0.004241 -0.000871
# 4 -0.000916 -0.003050 -0.011451 0.029116 0.003359 -0.001710
# 5 0.001898 -0.000264 -0.004241 0.003359 0.029746 -0.004827
# 6 0.001002 -0.000592 -0.000871 -0.001710 -0.004827 0.017243
#
#
# Mechanical properties :
#
#
# Convention : Reuss Voigt Hill
#
# Bulk Modulus (GPa) = 32.63142 56.05200 44.34171
# Shear Modulus (GPa) = 34.70557 44.18158 39.44357
#
# Velocity S-wave (km/s) = 3.61393 4.07756 3.85272
# Velocity P-wave (km/s) = 5.44921 6.57740 6.03971
#
# Compressibility (1/GPa) = 0.03064531
#
# Stress axis : x y z
#
# Youngs Moduli (GPa) = 112.98765 91.53309 40.94771
#
# Poissons Ratio (x) = 0.31142 0.06425
# Poissons Ratio (y) = 0.38441 0.07389
# Poissons Ratio (z) = 0.17728 0.16517
#
# Static dielectric constant tensor:
#      x y z
#    x 2.053380 -0.019150 -0.009920 
#    y -0.019150 2.133360 -0.046510 
#    z -0.009920 -0.046510 2.151340 
# 
# From -- ./inp_files/5975.got.cif
#   From: 2010.05.17/outbox.cif.g08.bks.cpg/sg1_3_cif.got.tgz:5975.got - 2010.05.17 20:27:59.
