data_PCOD9000727
_publ_section_title
;
Structure prediction by ZEFSAII (Michael W. Deem and Ramdas Pophale) SiO2 
 PCOD9000727
Probable space group: P 1
;
_chemical_formula_sum "Si O2"
_cell_formula_units_Z 8
_cell_length_a 5.202430
_cell_length_b 12.080299
_cell_length_c 10.760798
_cell_angle_alpha 30.498704
_cell_angle_beta 80.199442
_cell_angle_gamma 86.112417
_cell_volume 333.985185
_symmetry_space_group_name_H-M "P 1"
_symmetry_group_IT_number 1
_symmetry_cell_setting 'triclinic'
loop_
_space_group_symop_operation_xyz
x,y,z
loop_
_atom_site_type_symbol
_atom_site_label
_atom_site_fract_x
_atom_site_fract_y
_atom_site_fract_z
Si Si1 0.457300 0.657570 0.380090
Si Si2 0.905273 0.702452 0.649252
Si Si3 0.731570 0.925986 0.899677
Si Si4 0.462899 0.173586 0.510367
Si Si5 0.983545 0.043807 0.533345
Si Si6 0.101464 0.302126 0.627124
Si Si7 0.177844 0.025118 0.136305
Si Si8 0.400761 0.444241 0.842013
O O1 0.675457 0.728657 0.190256
O O2 0.183645 0.541940 0.449910
O O3 0.514254 0.500693 0.638119
O O4 0.406786 0.885593 0.222291
O O5 0.906799 0.876830 0.590477
O O6 0.163724 0.583472 0.749991
O O7 0.642825 0.523697 0.835172
O O8 0.937469 0.851189 0.377513
O O9 0.943440 0.899202 0.803643
O O10 0.480665 0.957304 0.805557
O O11 0.834320 0.167474 0.719730
O O12 0.317655 0.309891 0.489920
O O13 0.284523 0.153241 0.421244
O O14 0.770368 0.212426 0.403737
O O15 0.129134 0.147149 0.895137
O O16 0.269207 0.192736 0.079107
#
# Coordination Sequence:
#
# PCOD9000727 Si02
#       8
#     1   1   1   1   1   1   1   1
#     4  10  20  37  62  90 114 161 187 237 303 350
#     4  11  22  41  63  84 116 163 194 238 297 340
#     4   9  19  36  59  84 122 149 186 243 287 339
#     4   9  18  36  61  82 120 150 184 249 285 331
#     4   9  19  36  62  83 114 157 195 236 288 342
#     4  10  19  37  58  92 120 149 193 239 290 359
#     4  10  21  39  60  89 122 152 195 245 292 345
#     4  10  24  38  61  90 118 149 202 243 286 352
#
# _framework density 23.953157000000001
#
# number of rings (size 3 to 8) (size 9 to 14) (size 15 to 20)
#    0.750    1.500    1.250    1.500    0.000    5.000 
#    2.250    3.750    0.000    0.000    0.000    0.000 
#    0.000    0.000    0.000    0.000    0.000    0.000 
#
# Total GULP energy -44549.537265 kJ/mol
# GULP energy per Si atom -5568.692158 kJ/mol
# Density = 2.389864 g / cm^3
# Si number density = 23.953157 Si / 1000 Ang^3
#
#
#
# Elastic Constant Matrix: (Units=GPa)
#
#
# Indices 1 2 3 4 5 6 
#
# 1 125.1960 27.3173 6.0358 -5.4753 -18.8642 23.1087
# 2 27.3173 91.7256 3.7465 -12.4527 -7.1340 15.1779
# 3 6.0358 3.7465 41.6139 -7.0411 -20.3376 -6.0936
# 4 -5.4753 -12.4527 -7.0411 18.9575 3.7076 -2.7237
# 5 -18.8642 -7.1340 -20.3376 3.7076 20.0751 -4.5014
# 6 23.1087 15.1779 -6.0936 -2.7237 -4.5014 25.9438
#
#
#
# Elastic Compliance Matrix: (Units=1/GPa)
#
#
# Indices 1 2 3 4 5 6 
#
# 1 0.011094 -0.001462 0.003671 0.000356 0.012211 -0.006008
# 2 -0.001462 0.013322 -0.000517 0.007264 0.000191 -0.005818
# 3 0.003671 -0.000517 0.065591 0.014636 0.072985 0.026638
# 4 0.000356 0.007264 0.014636 0.062524 0.007714 0.006774
# 5 0.012211 0.000191 0.072985 0.007714 0.140914 0.031413
# 6 -0.006008 -0.005818 0.026638 0.006774 0.031413 0.059718
#
#
# Mechanical properties :
#
#
# Convention : Reuss Voigt Hill
#
# Bulk Modulus (GPa) = 10.70759 36.97053 23.83906
# Shear Modulus (GPa) = 13.12651 27.75766 20.44208
#
# Velocity S-wave (km/s) = 2.34350 3.40785 2.92450
# Velocity P-wave (km/s) = 3.43548 5.56351 4.62359
#
# Compressibility (1/GPa) = 0.09339170
#
# Stress axis : x y z
#
# Youngs Moduli (GPa) = 90.13916 75.06317 15.24607
#
# Poissons Ratio (x) = 0.10971 -0.05597
# Poissons Ratio (y) = 0.13175 0.00788
# Poissons Ratio (z) = -0.33089 0.03879
#
# Static dielectric constant tensor:
#      x y z
#    x 1.974430 -0.009100 -0.066890 
#    y -0.009100 1.966030 0.036580 
#    z -0.066890 0.036580 1.951410 
# 
# From -- ./inp_files/445.got.cif
#   From: 2010.05.17/outbox.cif.g08.bks.cpg/sg1_1_cif.got.tgz:445.got - 2010.05.17 20:27:59.
