data_PCOD9000552
_publ_section_title
;
Structure prediction by ZEFSAII (Michael W. Deem and Ramdas Pophale) SiO2 
 PCOD9000552
Probable space group: P 1
;
_chemical_formula_sum "Si O2"
_cell_formula_units_Z 8
_cell_length_a 14.131589
_cell_length_b 12.253408
_cell_length_c 7.003433
_cell_angle_alpha 137.436914
_cell_angle_beta 124.862626
_cell_angle_gamma 27.682470
_cell_volume 368.325820
_symmetry_space_group_name_H-M "P 1"
_symmetry_group_IT_number 1
_symmetry_cell_setting 'triclinic'
loop_
_space_group_symop_operation_xyz
x,y,z
loop_
_atom_site_type_symbol
_atom_site_label
_atom_site_fract_x
_atom_site_fract_y
_atom_site_fract_z
Si Si1 0.906560 0.435460 0.877130
Si Si2 0.934155 0.445133 0.479459
Si Si3 0.306462 0.758760 0.934227
Si Si4 0.998387 0.835389 0.572851
Si Si5 0.593535 0.918981 0.436539
Si Si6 0.701661 0.323628 0.553223
Si Si7 0.608049 0.276242 0.978810
Si Si8 0.162459 0.327991 0.282997
O O1 0.817457 0.359420 0.697102
O O2 0.919222 0.472301 0.721537
O O3 0.747211 0.737773 0.197415
O O4 0.119445 0.219610 0.964768
O O5 0.004198 0.516510 0.525818
O O6 0.708395 0.675215 0.416467
O O7 0.121743 0.102413 0.206512
O O8 0.179432 0.756429 0.699538
O O9 0.496801 0.583886 0.787217
O O10 0.419500 0.577007 0.027999
O O11 0.113383 0.531577 0.346834
O O12 0.867074 0.016763 0.462247
O O13 0.822708 0.056338 0.822504
O O14 0.561544 0.138628 0.753711
O O15 0.384117 0.087992 0.329427
O O16 0.634620 0.322184 0.275665
#
# Coordination Sequence:
#
# PCOD9000552 Si02
#       8
#     1   1   1   1   1   1   1   1
#     4  11  25  47  70 102 141 186 230 281 347 412
#     4  11  25  44  72 100 141 186 229 281 349 407
#     4  11  25  46  71 104 139 185 228 289 344 410
#     4  11  22  45  70 103 142 177 226 289 343 407
#     4  11  24  46  69 104 142 178 229 287 343 408
#     4  11  27  45  74 102 141 182 236 282 346 411
#     4  11  24  45  71 105 139 178 230 288 342 409
#     4  11  24  44  71 102 141 180 228 285 344 408
#
# _framework density 21.719902000000001
#
# number of rings (size 3 to 8) (size 9 to 14) (size 15 to 20)
#    0.000    1.000    3.750    3.000    1.750   10.000 
#    2.250    0.000    0.000    0.000    0.000    0.000 
#    0.000    0.000    0.000    0.000    0.000    0.000 
#
# Total GULP energy -44701.410894 kJ/mol
# GULP energy per Si atom -5587.676362 kJ/mol
# Density = 2.167047 g / cm^3
# Si number density = 21.719902 Si / 1000 Ang^3
#
#
#
# Elastic Constant Matrix: (Units=GPa)
#
#
# Indices 1 2 3 4 5 6 
#
# 1 85.8227 53.6116 48.1862 -24.5387 9.7020 0.0509
# 2 53.6116 203.8986 77.9251 -38.5640 3.9866 4.8645
# 3 48.1862 77.9251 135.1958 -41.2111 2.6303 12.8670
# 4 -24.5387 -38.5640 -41.2111 39.8133 10.1727 5.9284
# 5 9.7020 3.9866 2.6303 10.1727 35.5292 -11.9036
# 6 0.0509 4.8645 12.8670 5.9284 -11.9036 35.0789
#
#
#
# Elastic Compliance Matrix: (Units=1/GPa)
#
#
# Indices 1 2 3 4 5 6 
#
# 1 0.017591 -0.001826 -0.001532 0.010309 -0.008751 -0.003922
# 2 -0.001826 0.007025 -0.001760 0.004670 -0.002110 -0.001831
# 3 -0.001532 -0.001760 0.015684 0.017785 -0.009579 -0.011763
# 4 0.010309 0.004670 0.017785 0.067622 -0.034135 -0.030198
# 5 -0.008751 -0.002110 -0.009579 -0.034135 0.050171 0.026613
# 6 -0.003922 -0.001831 -0.011763 -0.030198 0.026613 0.047216
#
#
# Mechanical properties :
#
#
# Convention : Reuss Voigt Hill
#
# Bulk Modulus (GPa) = 33.25945 87.15142 60.20544
# Shear Modulus (GPa) = 22.16646 38.43056 30.29851
#
# Velocity S-wave (km/s) = 3.19809 4.21095 3.73898
# Velocity P-wave (km/s) = 5.38360 7.99094 6.81316
#
# Compressibility (1/GPa) = 0.03006664
#
# Stress axis : x y z
#
# Youngs Moduli (GPa) = 56.84573 142.34722 63.75873
#
# Poissons Ratio (x) = 0.25987 0.09766
# Poissons Ratio (y) = 0.10378 0.11219
# Poissons Ratio (z) = 0.08708 0.25048
#
# Static dielectric constant tensor:
#      x y z
#    x 1.851450 -0.027780 0.035260 
#    y -0.027780 1.879690 0.021320 
#    z 0.035260 0.021320 1.757070 
# 
# From -- ./inp_files/2809.got.cif
#   From: 2010.05.17/outbox.cif.g08.bks.cpg/sg1_2_cif.got.tgz:2809.got - 2010.05.17 20:27:59.
