data_PCOD9000947
_publ_section_title
;
Structure prediction by ZEFSAII (Michael W. Deem and Ramdas Pophale) SiO2 
 PCOD9000947
Probable space group: P 1
;
_chemical_formula_sum "Si O2"
_cell_formula_units_Z 8
_cell_length_a 7.443412
_cell_length_b 12.261824
_cell_length_c 8.442007
_cell_angle_alpha 51.017060
_cell_angle_beta 143.899356
_cell_angle_gamma 113.919808
_cell_volume 343.885860
_symmetry_space_group_name_H-M "P 1"
_symmetry_group_IT_number 1
_symmetry_cell_setting 'triclinic'
loop_
_space_group_symop_operation_xyz
x,y,z
loop_
_atom_site_type_symbol
_atom_site_label
_atom_site_fract_x
_atom_site_fract_y
_atom_site_fract_z
Si Si1 0.505640 0.077290 0.140130
Si Si2 0.335185 0.081073 0.388773
Si Si3 0.904019 0.697673 0.079806
Si Si4 0.877384 0.889426 0.158348
Si Si5 0.409782 0.382659 0.152248
Si Si6 0.288731 0.693543 0.850587
Si Si7 0.124176 0.383277 0.603635
Si Si8 0.123388 0.896628 0.820321
O O1 0.459387 0.077646 0.298244
O O2 0.357166 0.241190 0.833528
O O3 0.876332 0.020913 0.440097
O O4 0.322365 0.973735 0.010050
O O5 0.301243 0.244799 0.266962
O O6 0.035559 0.016611 0.211308
O O7 0.570602 0.978582 0.768431
O O8 0.052081 0.785891 0.236412
O O9 0.075612 0.531358 0.336348
O O10 0.915938 0.795518 0.847589
O O11 0.570660 0.694236 0.926093
O O12 0.962458 0.775853 0.466670
O O13 0.784743 0.347254 0.425111
O O14 0.310244 0.527047 0.050845
O O15 0.252425 0.416479 0.836624
O O16 0.331698 0.785962 0.949111
#
# Coordination Sequence:
#
# PCOD9000947 Si02
#       8
#     1   1   1   1   1   1   1   1
#     4  11  21  40  61 102 129 168 222 262 324 388
#     4  11  20  36  66  94 125 167 221 262 315 384
#     4  11  23  43  66  97 127 173 216 266 320 383
#     4  12  20  38  63  96 123 166 217 260 316 379
#     4  10  21  37  62  95 128 170 213 267 322 383
#     4  11  26  43  66 100 134 169 218 266 330 384
#     4  10  21  36  66  90 130 169 215 266 322 381
#     4  12  26  41  68  96 134 172 214 269 321 390
#
# _framework density 23.263535000000001
#
# number of rings (size 3 to 8) (size 9 to 14) (size 15 to 20)
#    0.000    1.000    5.000    3.000    1.750    0.000 
#    0.000    2.500    0.000    0.000    0.000    0.000 
#    0.000    0.000    0.000    0.000    0.000    0.000 
#
# Total GULP energy -44659.717755 kJ/mol
# GULP energy per Si atom -5582.464719 kJ/mol
# Density = 2.321059 g / cm^3
# Si number density = 23.263535 Si / 1000 Ang^3
#
#
#
# Elastic Constant Matrix: (Units=GPa)
#
#
# Indices 1 2 3 4 5 6 
#
# 1 37.5360 25.0910 12.3228 -2.4256 -2.6893 -3.2366
# 2 25.0910 189.0070 78.2352 -26.2372 -3.9353 4.8483
# 3 12.3228 78.2352 115.9971 2.6241 14.2495 6.3647
# 4 -2.4256 -26.2372 2.6241 50.6380 10.1629 -5.4639
# 5 -2.6893 -3.9353 14.2495 10.1629 15.9772 0.7112
# 6 -3.2366 4.8483 6.3647 -5.4639 0.7112 23.4743
#
#
#
# Elastic Compliance Matrix: (Units=1/GPa)
#
#
# Indices 1 2 3 4 5 6 
#
# 1 0.030359 -0.003302 -0.002048 -0.000910 0.006479 0.005015
# 2 -0.003302 0.009036 -0.006448 0.003886 0.004941 0.000182
# 3 -0.002048 -0.006448 0.015139 -0.001695 -0.014222 -0.003019
# 4 -0.000910 0.003886 -0.001695 0.025245 -0.014002 0.005832
# 5 0.006479 0.004941 -0.014222 -0.014002 0.086583 -0.002153
# 6 0.005015 0.000182 -0.003019 0.005832 -0.002153 0.045495
#
#
# Mechanical properties :
#
#
# Convention : Reuss Voigt Hill
#
# Bulk Modulus (GPa) = 32.32543 63.75980 48.04262
# Shear Modulus (GPa) = 20.34446 33.14396 26.74421
#
# Velocity S-wave (km/s) = 2.96044 3.77864 3.39428
# Velocity P-wave (km/s) = 5.06074 6.81943 6.00482
#
# Compressibility (1/GPa) = 0.03093539
#
# Stress axis : x y z
#
# Youngs Moduli (GPa) = 32.93933 110.66814 66.05540
#
# Poissons Ratio (x) = 0.36547 0.13530
# Poissons Ratio (y) = 0.10878 0.42595
# Poissons Ratio (z) = 0.06747 0.71364
#
# Static dielectric constant tensor:
#      x y z
#    x 1.976520 0.001860 0.053420 
#    y 0.001860 1.895820 0.005620 
#    z 0.053420 0.005620 1.894640 
# 
# From -- ./inp_files/4932.got.cif
#   From: 2010.05.17/outbox.cif.g08.bks.cpg/sg1_3_cif.got.tgz:4932.got - 2010.05.17 20:27:59.
