data_PCOD9000749
_publ_section_title
;
Structure prediction by ZEFSAII (Michael W. Deem and Ramdas Pophale) SiO2 
 PCOD9000749
Probable space group: P 1
;
_chemical_formula_sum "Si O2"
_cell_formula_units_Z 8
_cell_length_a 8.298014
_cell_length_b 7.230530
_cell_length_c 7.312701
_cell_angle_alpha 107.573414
_cell_angle_beta 100.575525
_cell_angle_gamma 127.465618
_cell_volume 290.285762
_symmetry_space_group_name_H-M "P 1"
_symmetry_group_IT_number 1
_symmetry_cell_setting 'triclinic'
loop_
_space_group_symop_operation_xyz
x,y,z
loop_
_atom_site_type_symbol
_atom_site_label
_atom_site_fract_x
_atom_site_fract_y
_atom_site_fract_z
Si Si1 0.960400 0.998650 0.060650
Si Si2 0.797668 0.433928 0.308323
Si Si3 0.793162 0.880258 0.363989
Si Si4 0.653613 0.397674 0.793808
Si Si5 0.431540 0.881728 0.286175
Si Si6 0.300809 0.401141 0.549575
Si Si7 0.293914 0.843982 0.645565
Si Si8 0.951738 0.338828 0.938262
O O1 0.779212 0.916378 0.154150
O O2 0.894982 0.719963 0.964464
O O3 0.931942 0.094006 0.899097
O O4 0.202935 0.257559 0.285379
O O5 0.759694 0.625898 0.309593
O O6 0.019995 0.627845 0.549433
O O7 0.878771 0.375382 0.131522
O O8 0.585196 0.832635 0.378073
O O9 0.061485 0.162355 0.544499
O O10 0.507421 0.432888 0.659853
O O11 0.584301 0.156048 0.282256
O O12 0.774270 0.290199 0.748959
O O13 0.324894 0.896334 0.446666
O O14 0.217359 0.617705 0.047642
O O15 0.359397 0.678068 0.657891
O O16 0.461593 0.160678 0.835066
#
# Coordination Sequence:
#
# PCOD9000749 Si02
#       8
#     1   1   1   1   1   1   1   1
#     4  10  20  41  69  94 130 177 220 269 330 389
#     4  11  19  41  70  96 128 177 225 267 330 396
#     4  10  19  38  67  95 124 174 223 265 328 385
#     4  12  24  38  70 108 130 174 230 268 338 406
#     4  11  22  39  71  97 130 179 228 270 330 405
#     4  10  20  41  69  94 130 177 220 269 330 389
#     4  11  22  42  68  97 134 179 217 276 333 395
#     4  11  22  42  68  97 134 179 217 276 333 395
#
# _framework density 27.559051
#
# number of rings (size 3 to 8) (size 9 to 14) (size 15 to 20)
#    0.750    0.500    7.500    0.750    1.750    2.000 
#    0.000    2.500    5.500    0.000    0.000    0.000 
#    0.000    0.000    0.000    0.000    0.000    0.000 
#
# Total GULP energy -44693.651285 kJ/mol
# GULP energy per Si atom -5586.706411 kJ/mol
# Density = 2.749633 g / cm^3
# Si number density = 27.559051 Si / 1000 Ang^3
#
#
#
# Elastic Constant Matrix: (Units=GPa)
#
#
# Indices 1 2 3 4 5 6 
#
# 1 61.3704 54.0680 25.1935 1.3409 12.5143 -8.0221
# 2 54.0680 224.9330 66.9786 45.7975 15.2876 -25.6477
# 3 25.1935 66.9786 105.3044 26.9330 19.9444 -13.3628
# 4 1.3409 45.7975 26.9330 59.9282 -2.6765 2.6362
# 5 12.5143 15.2876 19.9444 -2.6765 45.7799 -1.9630
# 6 -8.0221 -25.6477 -13.3628 2.6362 -1.9630 66.4689
#
#
#
# Elastic Compliance Matrix: (Units=1/GPa)
#
#
# Indices 1 2 3 4 5 6 
#
# 1 0.022640 -0.005436 -0.002621 0.004700 -0.002964 -0.000166
# 2 -0.005436 0.007593 -0.001930 -0.004923 -0.000408 0.002069
# 3 -0.002621 -0.001930 0.013756 -0.004942 -0.004845 0.001757
# 4 0.004700 -0.004923 -0.004942 0.022868 0.003715 -0.003123
# 5 -0.002964 -0.000408 -0.004845 0.003715 0.025080 -0.000896
# 6 -0.000166 0.002069 0.001757 -0.003123 -0.000896 0.016274
#
#
# Mechanical properties :
#
#
# Convention : Reuss Voigt Hill
#
# Bulk Modulus (GPa) = 41.64156 76.00980 58.82568
# Shear Modulus (GPa) = 36.71378 50.79324 43.75351
#
# Velocity S-wave (km/s) = 3.65387 4.29776 3.98883
# Velocity P-wave (km/s) = 5.73967 7.22967 6.52733
#
# Compressibility (1/GPa) = 0.02401447
#
# Stress axis : x y z
#
# Youngs Moduli (GPa) = 44.17037 131.69714 72.69730
#
# Poissons Ratio (x) = 0.71592 0.19052
# Poissons Ratio (y) = 0.24012 0.14032
# Poissons Ratio (z) = 0.11576 0.25420
#
# Static dielectric constant tensor:
#      x y z
#    x 2.121040 0.050130 -0.091380 
#    y 0.050130 2.094520 -0.037540 
#    z -0.091380 -0.037540 2.466160 
# 
# From -- ./inp_files/7118.got.cif
#   From: 2010.05.17/outbox.cif.g08.bks.cpg/sg1_4_cif.got.tgz:7118.got - 2010.05.17 20:27:59.
