data_PCOD9000220
_publ_section_title
;
Structure prediction by ZEFSAII (Michael W. Deem and Ramdas Pophale) SiO2 
 PCOD9000220
Probable space group: P 1
;
_chemical_formula_sum "Si O2"
_cell_formula_units_Z 8
_cell_length_a 4.923404
_cell_length_b 16.699018
_cell_length_c 5.027256
_cell_angle_alpha 136.775926
_cell_angle_beta 89.703100
_cell_angle_gamma 91.510144
_cell_volume 282.906554
_symmetry_space_group_name_H-M "P 1"
_symmetry_group_IT_number 1
_symmetry_cell_setting 'triclinic'
loop_
_space_group_symop_operation_xyz
x,y,z
loop_
_atom_site_type_symbol
_atom_site_label
_atom_site_fract_x
_atom_site_fract_y
_atom_site_fract_z
Si Si1 0.221120 0.228820 0.382320
Si Si2 0.330813 0.876833 0.575606
Si Si3 0.609030 0.184204 0.765282
Si Si4 0.841998 0.031526 0.766057
Si Si5 0.563090 0.723828 0.582262
Si Si6 0.405814 0.475035 0.907383
Si Si7 0.767855 0.433479 0.303217
Si Si8 0.951064 0.679613 0.966727
O O1 0.402716 0.189468 0.533988
O O2 0.193987 0.369250 0.715208
O O3 0.405248 0.197806 0.050768
O O4 0.937631 0.156932 0.194050
O O5 0.396161 0.838115 0.784650
O O6 0.586393 0.954229 0.671042
O O7 0.086324 0.954480 0.673090
O O8 0.234060 0.752298 0.145299
O O9 0.777947 0.069665 0.554826
O O10 0.815287 0.297568 0.022271
O O11 0.758535 0.719126 0.822739
O O12 0.647045 0.449610 0.051744
O O13 0.778058 0.709437 0.302702
O O14 0.527426 0.459320 0.576799
O O15 0.356808 0.610305 0.292012
O O16 0.980379 0.539542 0.613986
#
# Coordination Sequence:
#
# PCOD9000220 Si02
#       8
#     1   1   1   1   1   1   1   1
#     4  10  22  43  69 101 136 176 224 283 341 405
#     4  12  26  47  70 101 136 188 234 280 336 404
#     4  10  22  43  69 101 136 176 224 283 341 405
#     4  12  26  47  70 101 136 188 234 280 336 404
#     4  10  22  43  69 101 136 176 224 283 341 405
#     4   8  16  35  66  98 131 169 217 274 344 404
#     4   8  16  35  66  98 131 169 217 274 344 404
#     4  10  22  43  69 101 136 176 224 283 341 405
#
# _framework density 28.277891
#
# number of rings (size 3 to 8) (size 9 to 14) (size 15 to 20)
#    0.000    2.000    2.500    0.000    0.000    5.000 
#    0.000    0.000    0.000   18.000    0.000    0.000 
#    0.000    0.000    0.000    0.000    0.000    0.000 
#
# Total GULP energy -44865.319971 kJ/mol
# GULP energy per Si atom -5608.164996 kJ/mol
# Density = 2.821353 g / cm^3
# Si number density = 28.277891 Si / 1000 Ang^3
#
#
#
# Elastic Constant Matrix: (Units=GPa)
#
#
# Indices 1 2 3 4 5 6 
#
# 1 178.4549 84.4327 58.8998 12.2212 42.7490 1.5013
# 2 84.4327 212.7169 57.3057 10.7715 19.0505 -14.1251
# 3 58.8998 57.3057 130.6964 13.2956 41.4505 11.6158
# 4 12.2212 10.7715 13.2956 81.9551 18.5225 12.2847
# 5 42.7490 19.0505 41.4505 18.5225 57.0592 15.7095
# 6 1.5013 -14.1251 11.6158 12.2847 15.7095 44.5924
#
#
#
# Elastic Compliance Matrix: (Units=1/GPa)
#
#
# Indices 1 2 3 4 5 6 
#
# 1 0.008322 -0.002493 -0.001228 0.000246 -0.004834 0.000885
# 2 -0.002493 0.006388 -0.002076 -0.000688 0.000759 0.002570
# 3 -0.001228 -0.002076 0.011182 0.000256 -0.006204 -0.001414
# 4 0.000246 -0.000688 0.000256 0.013468 -0.003777 -0.002673
# 5 -0.004834 0.000759 -0.006204 -0.003777 0.028554 -0.007000
# 6 0.000885 0.002570 -0.001414 -0.002673 -0.007000 0.026780
#
#
# Mechanical properties :
#
#
# Convention : Reuss Voigt Hill
#
# Bulk Modulus (GPa) = 69.94369 102.57163 86.25766
# Shear Modulus (GPa) = 45.02261 58.13666 51.57964
#
# Velocity S-wave (km/s) = 3.99450 4.53913 4.27550
# Velocity P-wave (km/s) = 6.78696 7.98893 7.41235
#
# Compressibility (1/GPa) = 0.01429722
#
# Stress axis : x y z
#
# Youngs Moduli (GPa) = 120.15873 156.55360 89.42683
#
# Poissons Ratio (x) = 0.39033 0.10980
# Poissons Ratio (y) = 0.29959 0.18569
# Poissons Ratio (z) = 0.14753 0.32507
#
# Static dielectric constant tensor:
#      x y z
#    x 2.134160 0.020670 -0.096230 
#    y 0.020670 2.200310 -0.023000 
#    z -0.096230 -0.023000 2.310590 
# 
# From -- ./inp_files/459.got.cif
#   From: 2010.05.17/outbox.cif.g08.bks.cpg/sg1_1_cif.got.tgz:459.got - 2010.05.17 20:27:59.
