data_PCOD9000728
_publ_section_title
;
Structure prediction by ZEFSAII (Michael W. Deem and Ramdas Pophale) SiO2 
 PCOD9000728
Probable space group: P 1
;
_chemical_formula_sum "Si O2"
_cell_formula_units_Z 8
_cell_length_a 8.998571
_cell_length_b 10.301617
_cell_length_c 7.628380
_cell_angle_alpha 88.191180
_cell_angle_beta 115.744721
_cell_angle_gamma 140.763627
_cell_volume 340.354824
_symmetry_space_group_name_H-M "P 1"
_symmetry_group_IT_number 1
_symmetry_cell_setting 'triclinic'
loop_
_space_group_symop_operation_xyz
x,y,z
loop_
_atom_site_type_symbol
_atom_site_label
_atom_site_fract_x
_atom_site_fract_y
_atom_site_fract_z
Si Si1 0.918190 0.877010 0.026840
Si Si2 0.216678 0.348012 0.611159
Si Si3 0.663210 0.067100 0.554463
Si Si4 0.753580 0.409439 0.657195
Si Si5 0.338005 0.369015 0.306929
Si Si6 0.209400 0.787828 0.594191
Si Si7 0.066985 0.683630 0.135324
Si Si8 0.954358 0.896743 0.463281
O O1 0.921897 0.886874 0.238652
O O2 0.052884 0.823528 0.053071
O O3 0.565072 0.630001 0.796705
O O4 0.123665 0.141270 0.074720
O O5 0.151803 0.316320 0.369875
O O6 0.996581 0.271168 0.640536
O O7 0.130983 0.140146 0.614565
O O8 0.588811 0.170513 0.521745
O O9 0.536743 0.947779 0.688582
O O10 0.408103 0.847653 0.295668
O O11 0.546832 0.395504 0.506271
O O12 0.063360 0.621929 0.691987
O O13 0.837464 0.457645 0.900777
O O14 0.604156 0.639887 0.358995
O O15 0.004164 0.635940 0.314815
O O16 0.160140 0.906711 0.607580
#
# Coordination Sequence:
#
# PCOD9000728 Si02
#       8
#     1   1   1   1   1   1   1   1
#     4  10  19  37  59  88 116 154 198 245 295 352
#     4  11  22  36  61  87 124 157 185 248 313 340
#     4  10  22  39  54  88 126 150 197 256 290 360
#     4  11  18  38  64  85 116 158 202 247 295 349
#     4  10  20  37  61  88 117 151 206 247 285 359
#     4   8  20  39  56  89 116 148 207 249 279 358
#     4   9  19  38  60  84 117 157 195 245 295 344
#     4   9  20  38  59  85 118 153 202 247 284 358
#
# _framework density 23.504881000000001
#
# number of rings (size 3 to 8) (size 9 to 14) (size 15 to 20)
#    0.750    1.500    2.500    0.750    0.000    4.000 
#    2.250    1.250    0.000    0.000    0.000    0.000 
#    0.000    0.000    0.000    0.000    0.000    0.000 
#
# Total GULP energy -44537.990296 kJ/mol
# GULP energy per Si atom -5567.248787 kJ/mol
# Density = 2.345138 g / cm^3
# Si number density = 23.504881 Si / 1000 Ang^3
#
#
#
# Elastic Constant Matrix: (Units=GPa)
#
#
# Indices 1 2 3 4 5 6 
#
# 1 59.5243 24.8123 8.7554 9.7235 -7.1273 16.6861
# 2 24.8123 82.2681 7.0953 24.5361 -6.5264 23.3662
# 3 8.7554 7.0953 77.6646 26.9319 -14.0446 -7.4362
# 4 9.7235 24.5361 26.9319 37.1187 4.1243 2.5214
# 5 -7.1273 -6.5264 -14.0446 4.1243 17.0409 4.6118
# 6 16.6861 23.3662 -7.4362 2.5214 4.6118 33.6893
#
#
#
# Elastic Compliance Matrix: (Units=1/GPa)
#
#
# Indices 1 2 3 4 5 6 
#
# 1 0.023664 0.000923 0.002775 -0.009970 0.018618 -0.013551
# 2 0.000923 0.027814 0.011683 -0.029454 0.033071 -0.019492
# 3 0.002775 0.011683 0.030209 -0.034469 0.040434 -0.005765
# 4 -0.009970 -0.029454 -0.034469 0.080260 -0.069021 0.021200
# 5 0.018618 0.033071 0.040434 -0.069021 0.139211 -0.037125
# 6 -0.013551 -0.019492 -0.005765 0.021200 -0.037125 0.052137
#
#
# Mechanical properties :
#
#
# Convention : Reuss Voigt Hill
#
# Bulk Modulus (GPa) = 8.89302 33.42032 21.15667
# Shear Modulus (GPa) = 13.88830 29.48938 21.68884
#
# Velocity S-wave (km/s) = 2.43342 3.54589 3.04096
# Velocity P-wave (km/s) = 3.41863 5.56900 4.62065
#
# Compressibility (1/GPa) = 0.11244771
#
# Stress axis : x y z
#
# Youngs Moduli (GPa) = 42.25917 35.95333 33.10313
#
# Poissons Ratio (x) = -0.03319 -0.09186
# Poissons Ratio (y) = -0.03901 -0.38674
# Poissons Ratio (z) = -0.11726 -0.42004
#
# Static dielectric constant tensor:
#      x y z
#    x 1.935480 -0.028030 0.007690 
#    y -0.028030 2.001140 0.046850 
#    z 0.007690 0.046850 1.872350 
# 
# From -- ./inp_files/2740.got.cif
#   From: 2010.05.17/outbox.cif.g08.bks.cpg/sg1_2_cif.got.tgz:2740.got - 2010.05.17 20:27:59.
