data_PCOD9000418
_publ_section_title
;
Structure prediction by ZEFSAII (Michael W. Deem and Ramdas Pophale) SiO2 
 PCOD9000418
Probable space group: P 1
;
_chemical_formula_sum "Si O2"
_cell_formula_units_Z 8
_cell_length_a 9.680193
_cell_length_b 4.830755
_cell_length_c 8.218815
_cell_angle_alpha 114.450561
_cell_angle_beta 87.542007
_cell_angle_gamma 63.839503
_cell_volume 301.844211
_symmetry_space_group_name_H-M "P 1"
_symmetry_group_IT_number 1
_symmetry_cell_setting 'triclinic'
loop_
_space_group_symop_operation_xyz
x,y,z
loop_
_atom_site_type_symbol
_atom_site_label
_atom_site_fract_x
_atom_site_fract_y
_atom_site_fract_z
Si Si1 0.571820 0.658960 0.623460
Si Si2 0.509256 0.563368 0.087536
Si Si3 0.993672 0.565074 0.117032
Si Si4 0.712011 0.767005 0.947439
Si Si5 0.340637 0.563673 0.430115
Si Si6 0.284308 0.451778 0.876620
Si Si7 0.884888 0.345668 0.371736
Si Si8 0.138999 0.358823 0.566090
O O1 0.677353 0.559894 0.757170
O O2 0.475078 0.463175 0.537155
O O3 0.695417 0.590027 0.455228
O O4 0.431917 0.060735 0.743304
O O5 0.424158 0.565761 0.259284
O O6 0.593977 0.788334 0.104518
O O7 0.373720 0.654419 0.979956
O O8 0.652046 0.154593 0.974759
O O9 0.964390 0.335583 0.193001
O O10 0.924073 0.947793 0.298074
O O11 0.886427 0.605114 0.974509
O O12 0.171644 0.445987 0.023017
O O13 0.252571 0.343876 0.407992
O O14 0.202746 0.974916 0.546419
O O15 0.172191 0.577067 0.753700
O O16 0.967669 0.475063 0.530031
#
# Coordination Sequence:
#
# PCOD9000418 Si02
#       8
#     1   1   1   1   1   1   1   1
#     4  10  24  44  68  99 133 172 217 269 326 388
#     4  11  22  40  65  96 130 169 214 266 323 385
#     4  12  26  45  68  97 132 174 220 269 324 387
#     4  11  23  41  64  94 129 171 215 266 322 384
#     4  11  22  40  65  96 130 169 214 266 323 385
#     4  10  24  44  68  99 133 172 217 269 326 388
#     4  12  26  45  68  97 132 174 220 269 324 387
#     4  11  23  41  64  94 129 171 215 266 322 384
#
# _framework density 26.503740000000001
#
# number of rings (size 3 to 8) (size 9 to 14) (size 15 to 20)
#    0.000    1.000    0.000    6.750    0.000   10.000 
#    0.000    8.750    0.000    0.000    0.000    0.000 
#    0.000    0.000    0.000    0.000    0.000    0.000 
#
# Total GULP energy -44819.392949 kJ/mol
# GULP energy per Si atom -5602.424119 kJ/mol
# Density = 2.644342 g / cm^3
# Si number density = 26.503740 Si / 1000 Ang^3
#
#
#
# Elastic Constant Matrix: (Units=GPa)
#
#
# Indices 1 2 3 4 5 6 
#
# 1 172.9971 27.6244 15.8540 -1.4576 -7.2295 -12.3570
# 2 27.6244 89.8487 4.7902 -8.8578 -3.3793 13.9741
# 3 15.8540 4.7902 67.1924 -3.8781 -8.1764 -8.1321
# 4 -1.4576 -8.8578 -3.8781 34.1269 -8.3240 -1.7926
# 5 -7.2295 -3.3793 -8.1764 -8.3240 61.0851 -8.5736
# 6 -12.3570 13.9741 -8.1321 -1.7926 -8.5736 36.7801
#
#
#
# Elastic Compliance Matrix: (Units=1/GPa)
#
#
# Indices 1 2 3 4 5 6 
#
# 1 0.006508 -0.002410 -0.000872 -0.000050 0.000953 0.003129
# 2 -0.002410 0.013113 -0.000928 0.002856 -0.000121 -0.005886
# 3 -0.000872 -0.000928 0.016203 0.002525 0.002985 0.004461
# 4 -0.000050 0.002856 0.002525 0.031692 0.005117 0.002194
# 5 0.000953 -0.000121 0.002985 0.005117 0.018353 0.005553
# 6 0.003129 -0.005886 0.004461 0.002194 0.005553 0.032864
#
#
# Mechanical properties :
#
#
# Convention : Reuss Voigt Hill
#
# Bulk Modulus (GPa) = 36.49213 47.39725 41.94469
# Shear Modulus (GPa) = 36.68684 45.18307 40.93495
#
# Velocity S-wave (km/s) = 3.72454 4.13338 3.93427
# Velocity P-wave (km/s) = 5.68285 6.37980 6.04138
#
# Compressibility (1/GPa) = 0.02740317
#
# Stress axis : x y z
#
# Youngs Moduli (GPa) = 153.65428 76.26113 61.71527
#
# Poissons Ratio (x) = 0.18381 0.05382
# Poissons Ratio (y) = 0.37034 0.05729
# Poissons Ratio (z) = 0.13399 0.07080
#
# Static dielectric constant tensor:
#      x y z
#    x 1.995070 -0.028610 0.016170 
#    y -0.028610 2.016320 0.013700 
#    z 0.016170 0.013700 2.240630 
# 
# From -- ./inp_files/1324.got.cif
#   From: 2010.05.17/outbox.cif.g08.bks.cpg/sg1_1_cif.got.tgz:1324.got - 2010.05.17 20:27:59.
