data_PCOD9000858
_publ_section_title
;
Structure prediction by ZEFSAII (Michael W. Deem and Ramdas Pophale) SiO2 
 PCOD9000858
Probable space group: P 1
;
_chemical_formula_sum "Si O2"
_cell_formula_units_Z 8
_cell_length_a 9.997949
_cell_length_b 5.004560
_cell_length_c 11.373040
_cell_angle_alpha 61.701577
_cell_angle_beta 38.653369
_cell_angle_gamma 67.299962
_cell_volume 312.829864
_symmetry_space_group_name_H-M "P 1"
_symmetry_group_IT_number 1
_symmetry_cell_setting 'triclinic'
loop_
_space_group_symop_operation_xyz
x,y,z
loop_
_atom_site_type_symbol
_atom_site_label
_atom_site_fract_x
_atom_site_fract_y
_atom_site_fract_z
Si Si1 0.328080 0.556970 0.184730
Si Si2 0.391544 0.597803 0.483585
Si Si3 0.697875 0.066304 0.280328
Si Si4 0.439945 0.238189 0.739838
Si Si5 0.120105 0.760917 0.044934
Si Si6 0.568478 0.124273 0.936898
Si Si7 0.042233 0.015521 0.536283
Si Si8 0.895019 0.153537 0.355493
O O1 0.511191 0.370771 0.023029
O O2 0.172832 0.711590 0.159144
O O3 0.185858 0.309634 0.396425
O O4 0.455507 0.811315 0.112337
O O5 0.544761 0.355601 0.359004
O O6 0.324500 0.481105 0.684326
O O7 0.548331 0.869297 0.345316
O O8 0.176672 0.722043 0.545409
O O9 0.776975 0.959334 0.378540
O O10 0.939079 0.010875 0.074306
O O11 0.685060 0.298780 0.530000
O O12 0.448040 0.230853 0.876670
O O13 0.344129 0.918758 0.826841
O O14 0.024704 0.429689 0.149717
O O15 0.815166 0.062649 0.747324
O O16 0.009795 0.002285 0.419749
#
# Coordination Sequence:
#
# PCOD9000858 Si02
#       8
#     1   1   1   1   1   1   1   1
#     4  10  24  41  70 103 129 170 233 281 328 399
#     4  11  25  45  62 100 138 180 215 268 347 404
#     4  11  22  43  66  93 135 171 228 267 323 402
#     4   9  20  39  64  95 130 166 218 281 316 398
#     4  10  20  39  67  99 122 170 224 275 326 375
#     4  10  23  43  68 103 128 172 237 275 328 400
#     4  10  24  47  70  98 142 183 212 286 345 395
#     4   9  20  43  67  99 122 174 227 275 327 393
#
# _framework density 25.573004999999998
#
# number of rings (size 3 to 8) (size 9 to 14) (size 15 to 20)
#    0.000    2.000    2.500    0.000    7.000    8.000 
#    6.750    0.000    0.000    0.000    0.000    0.000 
#    0.000    0.000    0.000    0.000    0.000    0.000 
#
# Total GULP energy -44608.327067 kJ/mol
# GULP energy per Si atom -5576.040883 kJ/mol
# Density = 2.551480 g / cm^3
# Si number density = 25.573005 Si / 1000 Ang^3
#
#
#
# Elastic Constant Matrix: (Units=GPa)
#
#
# Indices 1 2 3 4 5 6 
#
# 1 100.4915 58.0576 20.7699 0.9602 -15.6850 -26.1851
# 2 58.0576 122.9490 36.3531 28.8206 -23.1541 -20.3415
# 3 20.7699 36.3531 124.6403 22.3260 -30.0061 -23.1489
# 4 0.9602 28.8206 22.3260 32.8031 -9.6496 -4.3376
# 5 -15.6850 -23.1541 -30.0061 -9.6496 28.1161 0.0006
# 6 -26.1851 -20.3415 -23.1489 -4.3376 0.0006 54.9305
#
#
#
# Elastic Compliance Matrix: (Units=1/GPa)
#
#
# Indices 1 2 3 4 5 6 
#
# 1 0.017001 -0.008051 0.000642 0.008883 0.006588 0.006095
# 2 -0.008051 0.015797 0.000251 -0.012323 0.004556 0.001144
# 3 0.000642 0.000251 0.012661 -0.004453 0.012549 0.005383
# 4 0.008883 -0.012323 -0.004453 0.045989 0.005838 0.001426
# 5 0.006588 0.004556 0.012549 0.005838 0.058390 0.010576
# 6 0.006095 0.001144 0.005383 0.001426 0.010576 0.023915
#
#
# Mechanical properties :
#
#
# Convention : Reuss Voigt Hill
#
# Bulk Modulus (GPa) = 32.10992 64.27134 48.19063
# Shear Modulus (GPa) = 25.19513 38.69663 31.94588
#
# Velocity S-wave (km/s) = 3.14223 3.89418 3.53824
# Velocity P-wave (km/s) = 5.07428 6.73844 5.96468
#
# Compressibility (1/GPa) = 0.03114302
#
# Stress axis : x y z
#
# Youngs Moduli (GPa) = 58.81845 63.30257 78.98044
#
# Poissons Ratio (x) = 0.50967 -0.05070
# Poissons Ratio (y) = 0.47357 -0.01982
# Poissons Ratio (z) = -0.03776 -0.01588
#
# Static dielectric constant tensor:
#      x y z
#    x 2.042080 -0.015250 0.069020 
#    y -0.015250 2.265800 0.088980 
#    z 0.069020 0.088980 2.114140 
# 
# From -- ./inp_files/7228.got.cif
#   From: 2010.05.17/outbox.cif.g08.bks.cpg/sg1_4_cif.got.tgz:7228.got - 2010.05.17 20:27:59.
