data_PCOD9000540
_publ_section_title
;
Structure prediction by ZEFSAII (Michael W. Deem and Ramdas Pophale) SiO2 
 PCOD9000540
Probable space group: P 1
;
_chemical_formula_sum "Si O2"
_cell_formula_units_Z 8
_cell_length_a 9.908823
_cell_length_b 11.621314
_cell_length_c 14.903522
_cell_angle_alpha 28.887127
_cell_angle_beta 152.061151
_cell_angle_gamma 142.189681
_cell_volume 387.406365
_symmetry_space_group_name_H-M "P 1"
_symmetry_group_IT_number 1
_symmetry_cell_setting 'triclinic'
loop_
_space_group_symop_operation_xyz
x,y,z
loop_
_atom_site_type_symbol
_atom_site_label
_atom_site_fract_x
_atom_site_fract_y
_atom_site_fract_z
Si Si1 0.872580 0.733760 0.313200
Si Si2 0.283239 0.829600 0.165735
Si Si3 0.905039 0.978861 0.353419
Si Si4 0.448687 0.819751 0.475479
Si Si5 0.467724 0.838971 0.855274
Si Si6 0.470008 0.348247 0.088876
Si Si7 0.848978 0.480719 0.045934
Si Si8 0.890105 0.214139 0.744318
O O1 0.801287 0.453627 0.482120
O O2 0.150494 0.766509 0.390090
O O3 0.957181 0.872094 0.359622
O O4 0.605368 0.840567 0.033169
O O5 0.372574 0.769768 0.360800
O O6 0.115995 0.614368 0.162625
O O7 0.575690 0.908334 0.233199
O O8 0.066337 0.041731 0.902256
O O9 0.943834 0.262856 0.191409
O O10 0.129832 0.871751 0.627150
O O11 0.550428 0.101115 0.348863
O O12 0.682401 0.660083 0.764427
O O13 0.633773 0.049438 0.750979
O O14 0.530334 0.585816 0.019814
O O15 0.631811 0.383840 0.064161
O O16 0.128757 0.304937 0.896766
#
# Coordination Sequence:
#
# PCOD9000540 Si02
#       8
#     1   1   1   1   1   1   1   1
#     4  12  25  44  73 107 139 187 232 284 354 415
#     4  11  25  48  71 101 138 183 238 289 334 412
#     4  12  28  47  64 109 153 173 227 298 348 415
#     4  11  23  47  76 103 132 190 242 282 338 421
#     4  12  26  45  73 104 141 190 228 288 356 405
#     4  11  21  46  74 104 138 177 243 291 328 419
#     4  12  24  46  73 101 144 187 225 289 358 404
#     4  11  22  47  74 101 137 181 243 287 328 421
#
# _framework density 20.650151999999999
#
# number of rings (size 3 to 8) (size 9 to 14) (size 15 to 20)
#    0.000    0.500    8.750    0.000    3.500    2.000 
#    4.500    0.000    0.000    0.000    0.000    0.000 
#    0.000    0.000    0.000    0.000    0.000    0.000 
#
# Total GULP energy -44752.790901 kJ/mol
# GULP energy per Si atom -5594.098863 kJ/mol
# Density = 2.060315 g / cm^3
# Si number density = 20.650152 Si / 1000 Ang^3
#
#
#
# Elastic Constant Matrix: (Units=GPa)
#
#
# Indices 1 2 3 4 5 6 
#
# 1 24.4960 20.0812 7.4694 -10.7283 -10.0969 -6.2918
# 2 20.0812 127.5985 22.6658 -17.5736 -8.0120 2.0150
# 3 7.4694 22.6658 101.9361 -21.9606 -17.8817 8.8290
# 4 -10.7283 -17.5736 -21.9606 37.7947 7.8909 -2.6647
# 5 -10.0969 -8.0120 -17.8817 7.8909 19.8445 1.5762
# 6 -6.2918 2.0150 8.8290 -2.6647 1.5762 18.6470
#
#
#
# Elastic Compliance Matrix: (Units=1/GPa)
#
#
# Indices 1 2 3 4 5 6 
#
# 1 0.069757 -0.008222 0.002368 0.013289 0.027203 0.022904
# 2 -0.008222 0.009494 -0.001261 0.001540 -0.001875 -0.002825
# 3 0.002368 -0.001261 0.013497 0.005180 0.011248 -0.005666
# 4 0.013289 0.001540 0.005180 0.034958 -0.002411 0.007064
# 5 0.027203 -0.001875 0.011248 -0.002411 0.074777 -0.002609
# 6 0.022904 -0.002825 -0.005666 0.007064 -0.002609 0.065574
#
#
# Mechanical properties :
#
#
# Convention : Reuss Voigt Hill
#
# Bulk Modulus (GPa) = 12.73605 39.38484 26.06044
# Shear Modulus (GPa) = 16.20957 28.84487 22.52722
#
# Velocity S-wave (km/s) = 2.80476 3.74148 3.30646
# Velocity P-wave (km/s) = 4.08287 6.14644 5.21769
#
# Compressibility (1/GPa) = 0.07851726
#
# Stress axis : x y z
#
# Youngs Moduli (GPa) = 14.33547 105.32881 74.09200
#
# Poissons Ratio (x) = 0.86603 -0.17544
# Poissons Ratio (y) = 0.11787 0.09343
# Poissons Ratio (z) = -0.03394 0.13281
#
# Static dielectric constant tensor:
#      x y z
#    x 1.706860 -0.001150 0.000090 
#    y -0.001150 1.737810 -0.015370 
#    z 0.000090 -0.015370 1.736940 
# 
# From -- ./inp_files/5593.got.cif
#   From: 2010.05.17/outbox.cif.g08.bks.cpg/sg1_3_cif.got.tgz:5593.got - 2010.05.17 20:27:59.
