data_PCOD9000761
_publ_section_title
;
Structure prediction by ZEFSAII (Michael W. Deem and Ramdas Pophale) SiO2 
 PCOD9000761
Probable space group: P 1
;
_chemical_formula_sum "Si O2"
_cell_formula_units_Z 8
_cell_length_a 7.555911
_cell_length_b 11.562583
_cell_length_c 6.325462
_cell_angle_alpha 92.025174
_cell_angle_beta 91.914639
_cell_angle_gamma 39.407309
_cell_volume 350.589819
_symmetry_space_group_name_H-M "P 1"
_symmetry_group_IT_number 1
_symmetry_cell_setting 'triclinic'
loop_
_space_group_symop_operation_xyz
x,y,z
loop_
_atom_site_type_symbol
_atom_site_label
_atom_site_fract_x
_atom_site_fract_y
_atom_site_fract_z
Si Si1 0.682160 0.273530 0.556320
Si Si2 0.545876 0.551411 0.832337
Si Si3 0.157001 0.421637 0.786146
Si Si4 0.486787 0.807797 0.053297
Si Si5 0.024842 0.933604 0.793310
Si Si6 0.514415 0.028568 0.804228
Si Si7 0.304708 0.507510 0.177008
Si Si8 0.785817 0.741237 0.455453
O O1 0.713312 0.382252 0.676782
O O2 0.431771 0.336887 0.675212
O O3 0.568558 0.338237 0.319604
O O4 0.942458 0.064003 0.615361
O O5 0.659471 0.614963 0.934872
O O6 0.269127 0.727963 0.705205
O O7 0.421045 0.546543 0.028558
O O8 0.922939 0.588308 0.626982
O O9 0.237312 0.246063 0.799254
O O10 0.178803 0.472030 0.017943
O O11 0.512859 0.920293 0.953743
O O12 0.173140 0.925797 0.992539
O O13 0.590428 0.768429 0.291232
O O14 0.769325 0.985926 0.866095
O O15 0.601401 0.930829 0.576068
O O16 0.043537 0.666143 0.329525
#
# Coordination Sequence:
#
# PCOD9000761 Si02
#       8
#     1   1   1   1   1   1   1   1
#     4   9  18  37  64  90 123 164 209 254 316 370
#     4   9  20  40  57  94 130 156 207 258 305 373
#     4   9  21  39  63  93 127 164 211 259 312 371
#     4  10  24  41  60  96 129 163 208 256 313 373
#     4   9  20  41  61  89 124 162 204 257 307 369
#     4  11  22  44  65  90 131 166 208 264 309 371
#     4  10  19  39  70  93 120 171 210 256 318 368
#     4  11  22  41  64  97 126 166 213 254 316 375
#
# _framework density 22.818688000000002
#
# number of rings (size 3 to 8) (size 9 to 14) (size 15 to 20)
#    0.750    1.500    0.000    3.750    0.000    4.000 
#    9.000   11.250    0.000    0.000    0.000    0.000 
#    0.000    0.000    0.000    0.000    0.000    0.000 
#
# Total GULP energy -44637.029388 kJ/mol
# GULP energy per Si atom -5579.628674 kJ/mol
# Density = 2.276675 g / cm^3
# Si number density = 22.818688 Si / 1000 Ang^3
#
#
#
# Elastic Constant Matrix: (Units=GPa)
#
#
# Indices 1 2 3 4 5 6 
#
# 1 118.7523 32.3398 52.3615 -16.5861 30.9556 17.8715
# 2 32.3398 79.6680 49.5936 -10.7153 2.3177 48.3478
# 3 52.3615 49.5936 136.2991 -13.2892 26.4787 16.4629
# 4 -16.5861 -10.7153 -13.2892 19.4928 -14.5589 -2.7595
# 5 30.9556 2.3177 26.4787 -14.5589 29.8935 -1.5874
# 6 17.8715 48.3478 16.4629 -2.7595 -1.5874 22.5616
#
#
#
# Elastic Compliance Matrix: (Units=1/GPa)
#
#
# Indices 1 2 3 4 5 6 
#
# 1 0.013351 -0.006485 -0.000618 -0.002707 -0.013963 0.002459
# 2 -0.006485 -0.034923 0.003950 -0.005756 0.007205 0.076895
# 3 -0.000618 0.003950 0.009867 -0.001274 -0.009878 -0.016026
# 4 -0.002707 -0.005756 -0.001274 0.084068 0.046860 0.028988
# 5 -0.013963 0.007205 -0.009878 0.046860 0.079677 0.014167
# 6 0.002459 0.076895 -0.016026 0.028988 0.014167 -0.106169
#
#
# Mechanical properties :
#
#
# Convention : Reuss Voigt Hill
#
# Bulk Modulus (GPa) = -55.52289 67.03437 5.75574
# Shear Modulus (GPa) = 108.28573 27.75122 68.01848
#
# Velocity S-wave (km/s) = 6.89622 3.49113 5.46561
# Velocity P-wave (km/s) = 6.24704 6.75954 6.50834
#
# Compressibility (1/GPa) = -0.01801059
#
# Stress axis : x y z
#
# Youngs Moduli (GPa) = 74.90027 -28.63437 101.34339
#
# Poissons Ratio (x) = -0.18570 0.06259
# Poissons Ratio (y) = 0.48574 -0.40029
# Poissons Ratio (z) = 0.04626 0.11310
#
# Static dielectric constant tensor:
#      x y z
#    x 1.968150 -0.073800 -0.024460 
#    y -0.073800 1.949040 0.048650 
#    z -0.024460 0.048650 1.843310 
# 
# From -- ./inp_files/1740.got.cif
#   From: 2010.05.17/outbox.cif.g08.bks.cpg/sg1_1_cif.got.tgz:1740.got - 2010.05.17 20:27:59.
