data_PCOD9000478
_publ_section_title
;
Structure prediction by ZEFSAII (Michael W. Deem and Ramdas Pophale) SiO2 
 PCOD9000478
Probable space group: P 1
;
_chemical_formula_sum "Si O2"
_cell_formula_units_Z 8
_cell_length_a 6.916414
_cell_length_b 13.970579
_cell_length_c 9.296942
_cell_angle_alpha 148.479392
_cell_angle_beta 116.756048
_cell_angle_gamma 44.829738
_cell_volume 300.665489
_symmetry_space_group_name_H-M "P 1"
_symmetry_group_IT_number 1
_symmetry_cell_setting 'triclinic'
loop_
_space_group_symop_operation_xyz
x,y,z
loop_
_atom_site_type_symbol
_atom_site_label
_atom_site_fract_x
_atom_site_fract_y
_atom_site_fract_z
Si Si1 0.534200 0.978580 0.522520
Si Si2 0.139213 0.473284 0.198321
Si Si3 0.203841 0.090057 0.264963
Si Si4 0.407612 0.298026 0.380298
Si Si5 0.988406 0.806141 0.032034
Si Si6 0.680499 0.606282 0.690309
Si Si7 0.912252 0.087546 0.646815
Si Si8 0.502668 0.592284 0.319524
O O1 0.788088 0.715424 0.355349
O O2 0.372251 0.986003 0.339894
O O3 0.720432 0.039027 0.596428
O O4 0.269757 0.216104 0.835977
O O5 0.235149 0.409477 0.314483
O O6 0.324222 0.529803 0.256486
O O7 0.300404 0.202608 0.336227
O O8 0.852226 0.341028 0.485201
O O9 0.327767 0.840159 0.904683
O O10 0.750003 0.026745 0.120176
O O11 0.307145 0.543569 0.744843
O O12 0.973652 0.969858 0.358441
O O13 0.838871 0.704731 0.912138
O O14 0.706039 0.558180 0.468119
O O15 0.706913 0.383406 0.994785
O O16 0.244191 0.887743 0.570452
#
# Coordination Sequence:
#
# PCOD9000478 Si02
#       8
#     1   1   1   1   1   1   1   1
#     4  10  18  32  51  80 105 132 178 222 253 301
#     4  10  21  32  51  81 114 134 169 218 274 308
#     4  10  19  32  57  79 102 136 185 217 257 304
#     4  10  19  32  51  84 105 137 169 229 258 309
#     4  10  19  32  57  79 102 136 185 217 257 304
#     4  10  19  32  51  84 105 137 169 229 258 309
#     4  10  18  32  51  80 105 132 178 222 253 301
#     4  10  21  32  51  81 114 134 169 218 274 308
#
# _framework density 26.607645000000002
#
# number of rings (size 3 to 8) (size 9 to 14) (size 15 to 20)
#    0.000    2.000    2.500    3.000    7.000    0.000 
#    0.000    0.000    0.000    0.000   65.000    0.000 
#    0.000    0.000    0.000    0.000    0.000    0.000 
#
# Total GULP energy -44750.660166 kJ/mol
# GULP energy per Si atom -5593.832521 kJ/mol
# Density = 2.654708 g / cm^3
# Si number density = 26.607645 Si / 1000 Ang^3
#
#
#
# Elastic Constant Matrix: (Units=GPa)
#
#
# Indices 1 2 3 4 5 6 
#
# 1 97.5915 -16.0793 1.9106 19.9958 -11.3128 19.0607
# 2 -16.0793 116.6334 17.2667 13.6843 -13.6569 -11.5704
# 3 1.9106 17.2667 145.6261 17.2303 -28.4708 -8.7112
# 4 19.9958 13.6843 17.2303 62.6981 -9.5928 -2.7143
# 5 -11.3128 -13.6569 -28.4708 -9.5928 34.9292 19.8014
# 6 19.0607 -11.5704 -8.7112 -2.7143 19.8014 33.4656
#
#
#
# Elastic Compliance Matrix: (Units=1/GPa)
#
#
# Indices 1 2 3 4 5 6 
#
# 1 0.017841 0.002898 0.002527 -0.004977 0.019039 -0.020171
# 2 0.002898 0.009685 -0.000050 -0.002348 0.004804 -0.001348
# 3 0.002527 -0.000050 0.008803 -0.001827 0.010659 -0.005620
# 4 -0.004977 -0.002348 -0.001827 0.018558 -0.000982 0.003634
# 5 0.019039 0.004804 0.010659 -0.000982 0.073386 -0.049911
# 6 -0.020171 -0.001348 -0.005620 0.003634 -0.049911 0.069268
#
#
# Mechanical properties :
#
#
# Convention : Reuss Voigt Hill
#
# Bulk Modulus (GPa) = 21.24098 40.67191 30.95644
# Shear Modulus (GPa) = 24.69310 50.00211 37.34760
#
# Velocity S-wave (km/s) = 3.04969 4.33972 3.75059
# Velocity P-wave (km/s) = 4.51676 6.35845 5.51503
#
# Compressibility (1/GPa) = 0.04707881
#
# Stress axis : x y z
#
# Youngs Moduli (GPa) = 56.05027 103.25245 113.59120
#
# Poissons Ratio (x) = -0.29920 -0.28703
# Poissons Ratio (y) = -0.16242 0.00569
# Poissons Ratio (z) = -0.14163 0.00517
#
# Static dielectric constant tensor:
#      x y z
#    x 2.282240 -0.043560 -0.047760 
#    y -0.043560 2.076550 0.008720 
#    z -0.047760 0.008720 2.056110 
# 
# From -- ./inp_files/1020.got.cif
#   From: 2010.05.17/outbox.cif.g08.bks.cpg/sg1_1_cif.got.tgz:1020.got - 2010.05.17 20:27:59.
