data_PCOD9000804
_publ_section_title
;
Structure prediction by ZEFSAII (Michael W. Deem and Ramdas Pophale) SiO2 
 PCOD9000804
Probable space group: P 1
;
_chemical_formula_sum "Si O2"
_cell_formula_units_Z 8
_cell_length_a 7.536906
_cell_length_b 8.195289
_cell_length_c 9.739940
_cell_angle_alpha 107.049437
_cell_angle_beta 66.254678
_cell_angle_gamma 57.502675
_cell_volume 348.923486
_symmetry_space_group_name_H-M "P 1"
_symmetry_group_IT_number 1
_symmetry_cell_setting 'triclinic'
loop_
_space_group_symop_operation_xyz
x,y,z
loop_
_atom_site_type_symbol
_atom_site_label
_atom_site_fract_x
_atom_site_fract_y
_atom_site_fract_z
Si Si1 0.254460 0.927350 0.795620
Si Si2 0.437094 0.481036 0.733202
Si Si3 0.354982 0.292131 0.299445
Si Si4 0.719522 0.341483 0.268101
Si Si5 0.801582 0.530432 0.701903
Si Si6 0.002111 0.499092 0.203867
Si Si7 0.902134 0.895180 0.205703
Si Si8 0.154573 0.323377 0.797401
O O1 0.320591 0.682214 0.696409
O O2 0.511702 0.805101 0.794140
O O3 0.257319 0.059531 0.704211
O O4 0.946059 0.148758 0.024794
O O5 0.421449 0.450089 0.337909
O O6 0.384417 0.317883 0.680868
O O7 0.210493 0.673781 0.976507
O O8 0.644807 0.017483 0.207264
O O9 0.078242 0.411314 0.500673
O O10 0.278282 0.303674 0.169819
O O11 0.735137 0.372457 0.663434
O O12 0.772258 0.504593 0.320396
O O13 0.836069 0.140284 0.304874
O O14 0.878395 0.518808 0.831459
O O15 0.899353 0.762945 0.297072
O O16 0.078347 0.411231 0.000632
#
# Coordination Sequence:
#
# PCOD9000804 Si02
#       8
#     1   1   1   1   1   1   1   1
#     4   8  18  38  53  80 109 139 177 226 259 312
#     4   8  18  38  53  80 109 139 177 226 259 312
#     4  10  21  37  54  81 114 139 175 222 268 320
#     4   8  18  38  53  80 109 139 177 226 259 312
#     4  10  21  37  54  81 114 139 175 222 268 320
#     4  10  20  35  59  81 103 143 185 216 263 320
#     4   8  18  38  53  80 109 139 177 226 259 312
#     4  10  20  35  59  81 103 143 185 216 263 320
#
# _framework density 22.927664
#
# number of rings (size 3 to 8) (size 9 to 14) (size 15 to 20)
#    1.500    1.500    0.000    0.000    0.000   10.000 
#    4.500    1.250    0.000    0.000    0.000    0.000 
#    0.000    0.000    0.000    0.000    0.000    0.000 
#
# Total GULP energy -44544.068857 kJ/mol
# GULP energy per Si atom -5568.008607 kJ/mol
# Density = 2.287548 g / cm^3
# Si number density = 22.927664 Si / 1000 Ang^3
#
#
#
# Elastic Constant Matrix: (Units=GPa)
#
#
# Indices 1 2 3 4 5 6 
#
# 1 164.5308 45.6378 33.5006 -13.7323 -21.9079 12.5708
# 2 45.6378 102.4320 6.0348 -6.5024 -5.8009 22.3212
# 3 33.5006 6.0348 55.7954 -4.2984 -1.4466 -12.4226
# 4 -13.7323 -6.5024 -4.2984 27.3413 3.7519 7.0179
# 5 -21.9079 -5.8009 -1.4466 3.7519 34.6293 -10.4522
# 6 12.5708 22.3212 -12.4226 7.0179 -10.4522 64.5755
#
#
#
# Elastic Compliance Matrix: (Units=1/GPa)
#
#
# Indices 1 2 3 4 5 6 
#
# 1 0.008769 -0.002938 -0.004911 0.002681 0.004182 -0.001250
# 2 -0.002938 0.012086 -0.000307 0.002612 -0.001390 -0.004174
# 3 -0.004911 -0.000307 0.022028 -0.000335 -0.000621 0.005236
# 4 0.002681 0.002612 -0.000335 0.040777 -0.004296 -0.006616
# 5 0.004182 -0.001390 -0.000621 -0.004296 0.033364 0.005414
# 6 -0.001250 -0.004174 0.005236 -0.006616 0.005414 0.019774
#
#
# Mechanical properties :
#
#
# Convention : Reuss Voigt Hill
#
# Bulk Modulus (GPa) = 37.63455 54.78941 46.21198
# Shear Modulus (GPa) = 30.87027 41.14822 36.00925
#
# Velocity S-wave (km/s) = 3.67334 4.24098 3.96733
# Velocity P-wave (km/s) = 5.86868 6.92313 6.41760
#
# Compressibility (1/GPa) = 0.02657133
#
# Stress axis : x y z
#
# Youngs Moduli (GPa) = 114.03919 82.73783 45.39660
#
# Poissons Ratio (x) = 0.24309 0.22293
# Poissons Ratio (y) = 0.33506 0.01395
# Poissons Ratio (z) = 0.56001 0.02542
#
# Static dielectric constant tensor:
#      x y z
#    x 1.856520 0.086910 0.018480 
#    y 0.086910 1.914820 0.039730 
#    z 0.018480 0.039730 2.023220 
# 
# From -- ./inp_files/1629.got.cif
#   From: 2010.05.17/outbox.cif.g08.bks.cpg/sg1_1_cif.got.tgz:1629.got - 2010.05.17 20:27:59.
