data_PCOD9000930
_publ_section_title
;
Structure prediction by ZEFSAII (Michael W. Deem and Ramdas Pophale) SiO2 
 PCOD9000930
Probable space group: P 1
;
_chemical_formula_sum "Si O2"
_cell_formula_units_Z 8
_cell_length_a 5.332151
_cell_length_b 10.728841
_cell_length_c 5.166051
_cell_angle_alpha 93.442054
_cell_angle_beta 85.026328
_cell_angle_gamma 101.618100
_cell_volume 288.118648
_symmetry_space_group_name_H-M "P 1"
_symmetry_group_IT_number 1
_symmetry_cell_setting 'triclinic'
loop_
_space_group_symop_operation_xyz
x,y,z
loop_
_atom_site_type_symbol
_atom_site_label
_atom_site_fract_x
_atom_site_fract_y
_atom_site_fract_z
Si Si1 0.491810 0.096740 0.892800
Si Si2 0.724404 0.644568 0.316140
Si Si3 0.832166 0.321078 0.618506
Si Si4 0.110461 0.791167 0.675371
Si Si5 0.373890 0.406283 0.504386
Si Si6 0.126067 0.548977 0.912580
Si Si7 0.772936 0.903497 0.089071
Si Si8 0.183161 0.031609 0.412819
O O1 0.731969 0.208378 0.812021
O O2 0.288373 0.098561 0.678845
O O3 0.608853 0.969815 0.915495
O O4 0.348249 0.102385 0.174969
O O5 0.843138 0.712347 0.574961
O O6 0.476226 0.534013 0.350304
O O7 0.969207 0.590470 0.173590
O O8 0.657772 0.761319 0.174462
O O9 0.600511 0.331464 0.455795
O O10 0.098198 0.322667 0.447869
O O11 0.892284 0.458564 0.768545
O O12 0.236389 0.888146 0.453430
O O13 0.235271 0.681942 0.773512
O O14 0.027041 0.879827 0.914461
O O15 0.325001 0.455867 0.809660
O O16 0.888090 0.997287 0.330485
#
# Coordination Sequence:
#
# PCOD9000930 Si02
#       8
#     1   1   1   1   1   1   1   1
#     4  12  28  47  78 114 151 217 265 323 397 485
#     4  10  20  43  77 113 153 209 251 336 411 472
#     4  10  25  48  72 107 158 207 265 327 391 478
#     4  10  20  45  70 110 153 194 257 326 402 471
#     4  10  22  47  71 110 155 203 264 326 395 475
#     4   9  22  42  69 109 153 193 261 322 398 466
#     4  10  25  46  73 116 156 202 260 336 398 485
#     4  11  26  46  74 109 155 199 265 320 402 466
#
# _framework density 27.766338999999999
#
# number of rings (size 3 to 8) (size 9 to 14) (size 15 to 20)
#    0.750    1.000    2.500    0.000    7.000    1.000 
#    4.500    0.000    0.000    0.000    0.000    0.000 
#    0.000    0.000    0.000    0.000    0.000    0.000 
#
# Total GULP energy -44677.846264 kJ/mol
# GULP energy per Si atom -5584.730783 kJ/mol
# Density = 2.770314 g / cm^3
# Si number density = 27.766339 Si / 1000 Ang^3
#
#
#
# Elastic Constant Matrix: (Units=GPa)
#
#
# Indices 1 2 3 4 5 6 
#
# 1 159.6573 38.2623 43.6346 -15.6027 -4.7794 4.9832
# 2 38.2623 114.0394 47.2357 -35.5491 -5.0006 24.3006
# 3 43.6346 47.2357 130.9052 -11.7959 -2.8938 21.4249
# 4 -15.6027 -35.5491 -11.7959 64.9564 14.7713 -14.3382
# 5 -4.7794 -5.0006 -2.8938 14.7713 39.0780 -3.5540
# 6 4.9832 24.3006 21.4249 -14.3382 -3.5540 47.4205
#
#
#
# Elastic Compliance Matrix: (Units=1/GPa)
#
#
# Indices 1 2 3 4 5 6 
#
# 1 0.007229 -0.001655 -0.001940 0.000652 0.000390 0.001192
# 2 -0.001655 0.013081 -0.003110 0.005706 -0.001233 -0.003491
# 3 -0.001940 -0.003110 0.009796 -0.001092 0.000235 -0.002941
# 4 0.000652 0.005706 -0.001092 0.020747 -0.006816 0.003263
# 5 0.000390 -0.001233 0.000235 -0.006816 0.028122 0.000531
# 6 0.001192 -0.003491 -0.002941 0.003263 0.000531 0.025107
#
#
# Mechanical properties :
#
#
# Convention : Reuss Voigt Hill
#
# Bulk Modulus (GPa) = 59.89623 73.65191 66.77407
# Shear Modulus (GPa) = 40.63166 48.65560 44.64363
#
# Velocity S-wave (km/s) = 3.82952 4.19062 4.01413
# Velocity P-wave (km/s) = 6.41654 7.07094 6.75167
#
# Compressibility (1/GPa) = 0.01669554
#
# Stress axis : x y z
#
# Youngs Moduli (GPa) = 138.34126 76.44538 102.08153
#
# Poissons Ratio (x) = 0.12653 0.19802
# Poissons Ratio (y) = 0.22899 0.31748
# Poissons Ratio (z) = 0.26835 0.23775
#
# Static dielectric constant tensor:
#      x y z
#    x 2.203410 0.011310 -0.013610 
#    y 0.011310 2.176140 -0.015070 
#    z -0.013610 -0.015070 2.199870 
# 
# From -- ./inp_files/372.got.cif
#   From: 2010.05.17/outbox.cif.g08.bks.cpg/sg1_1_cif.got.tgz:372.got - 2010.05.17 20:27:59.
