data_PCOD9000585
_publ_section_title
;
Structure prediction by ZEFSAII (Michael W. Deem and Ramdas Pophale) SiO2 
 PCOD9000585
Probable space group: P 1
;
_chemical_formula_sum "Si O2"
_cell_formula_units_Z 8
_cell_length_a 5.266623
_cell_length_b 13.638086
_cell_length_c 6.366094
_cell_angle_alpha 93.354582
_cell_angle_beta 48.389811
_cell_angle_gamma 85.590765
_cell_volume 337.166825
_symmetry_space_group_name_H-M "P 1"
_symmetry_group_IT_number 1
_symmetry_cell_setting 'triclinic'
loop_
_space_group_symop_operation_xyz
x,y,z
loop_
_atom_site_type_symbol
_atom_site_label
_atom_site_fract_x
_atom_site_fract_y
_atom_site_fract_z
Si Si1 0.018900 0.337220 0.208220
Si Si2 0.387384 0.655224 0.562527
Si Si3 0.120066 0.078752 0.671353
Si Si4 0.668262 0.632842 0.985785
Si Si5 0.759519 0.951577 0.538963
Si Si6 0.510987 0.470951 0.789983
Si Si7 0.523739 0.212364 0.220744
Si Si8 0.315131 0.816172 0.962661
O O1 0.325687 0.258706 0.128720
O O2 0.827573 0.394719 0.518945
O O3 0.744078 0.286654 0.222860
O O4 0.189332 0.413812 0.982702
O O5 0.684886 0.648292 0.227348
O O6 0.464486 0.563817 0.668508
O O7 0.315278 0.759856 0.733509
O O8 0.019166 0.639633 0.670031
O O9 0.250941 0.177421 0.525071
O O10 0.426287 0.016526 0.626924
O O11 0.002810 0.018035 0.531708
O O12 0.788853 0.114716 0.000030
O O13 0.400397 0.726125 0.067860
O O14 0.568976 0.525397 0.982685
O O15 0.974903 0.885826 0.233812
O O16 0.618658 0.881587 0.780946
#
# Coordination Sequence:
#
# PCOD9000585 Si02
#       8
#     1   1   1   1   1   1   1   1
#     4  12  26  44  76 103 142 181 240 288 344 432
#     4  11  24  43  70  95 151 184 230 287 344 409
#     4  12  26  48  72 103 140 181 230 296 364 416
#     4  11  24  43  70  95 151 184 230 287 344 409
#     4  12  26  44  76 103 142 181 240 288 344 432
#     4  11  26  43  66 111 136 189 236 285 344 411
#     4  12  26  48  72 103 140 181 230 296 364 416
#     4  11  26  43  66 111 136 189 236 285 344 411
#
# _framework density 23.727129999999999
#
# number of rings (size 3 to 8) (size 9 to 14) (size 15 to 20)
#    0.000    0.500    0.000    7.500   10.500    4.000 
#    0.000    0.000    0.000    0.000    0.000    0.000 
#    0.000    0.000    0.000    0.000    0.000    0.000 
#
# Total GULP energy -44818.069703 kJ/mol
# GULP energy per Si atom -5602.258713 kJ/mol
# Density = 2.367313 g / cm^3
# Si number density = 23.727130 Si / 1000 Ang^3
#
#
#
# Elastic Constant Matrix: (Units=GPa)
#
#
# Indices 1 2 3 4 5 6 
#
# 1 93.0584 27.5371 -5.0669 -2.7398 -3.8603 10.0916
# 2 27.5371 80.9798 14.7849 0.0846 -4.1460 18.8330
# 3 -5.0669 14.7849 97.1082 2.4071 -8.7432 1.7672
# 4 -2.7398 0.0846 2.4071 35.0778 0.8774 -7.6900
# 5 -3.8603 -4.1460 -8.7432 0.8774 30.7328 -2.0744
# 6 10.0916 18.8330 1.7672 -7.6900 -2.0744 33.9276
#
#
#
# Elastic Compliance Matrix: (Units=1/GPa)
#
#
# Indices 1 2 3 4 5 6 
#
# 1 0.012226 -0.004053 0.001379 0.000563 0.001281 -0.001253
# 2 -0.004053 0.016054 -0.002418 -0.001954 0.000485 -0.007993
# 3 0.001379 -0.002418 0.011019 -0.000631 0.003027 0.000400
# 4 0.000563 -0.001954 -0.000631 0.030323 -0.000713 0.007779
# 5 0.001281 0.000485 0.003027 -0.000713 0.033720 0.001092
# 6 -0.001253 -0.007993 0.000400 0.007779 0.001092 0.036093
#
#
# Mechanical properties :
#
#
# Convention : Reuss Voigt Hill
#
# Bulk Modulus (GPa) = 34.34659 38.40630 36.37645
# Shear Modulus (GPa) = 31.38249 35.54041 33.46145
#
# Velocity S-wave (km/s) = 3.64076 3.87444 3.75942
# Velocity P-wave (km/s) = 5.67279 6.01971 5.84882
#
# Compressibility (1/GPa) = 0.02911497
#
# Stress axis : x y z
#
# Youngs Moduli (GPa) = 81.79368 62.28863 90.75413
#
# Poissons Ratio (x) = 0.25245 -0.12516
# Poissons Ratio (y) = 0.33150 0.21946
# Poissons Ratio (z) = -0.11280 0.15063
#
# Static dielectric constant tensor:
#      x y z
#    x 1.933370 0.002720 0.029230 
#    y 0.002720 1.872360 -0.002660 
#    z 0.029230 -0.002660 1.840920 
# 
# From -- ./inp_files/674.got.cif
#   From: 2010.05.17/outbox.cif.g08.bks.cpg/sg1_1_cif.got.tgz:674.got - 2010.05.17 20:27:59.
