data_PCOD9000612
_publ_section_title
;
Structure prediction by ZEFSAII (Michael W. Deem and Ramdas Pophale) SiO2 
 PCOD9000612
Probable space group: P 1
;
_chemical_formula_sum "Si O2"
_cell_formula_units_Z 8
_cell_length_a 4.972396
_cell_length_b 7.811542
_cell_length_c 8.873970
_cell_angle_alpha 92.222466
_cell_angle_beta 103.761157
_cell_angle_gamma 70.694826
_cell_volume 315.665855
_symmetry_space_group_name_H-M "P 1"
_symmetry_group_IT_number 1
_symmetry_cell_setting 'triclinic'
loop_
_space_group_symop_operation_xyz
x,y,z
loop_
_atom_site_type_symbol
_atom_site_label
_atom_site_fract_x
_atom_site_fract_y
_atom_site_fract_z
Si Si1 0.780590 0.809790 0.343810
Si Si2 0.971605 0.512830 0.005539
Si Si3 0.877326 0.167788 0.432830
Si Si4 0.397582 0.842936 0.837642
Si Si5 0.207686 0.785027 0.117677
Si Si6 0.260429 0.349281 0.320168
Si Si7 0.145497 0.249142 0.754793
Si Si8 0.199993 0.577197 0.591908
O O1 0.463038 0.822261 0.246120
O O2 0.953657 0.806541 0.207276
O O3 0.868203 0.660690 0.485312
O O4 0.866310 0.968467 0.439679
O O5 0.254024 0.583252 0.050914
O O6 0.993604 0.440893 0.176068
O O7 0.707716 0.691707 0.923356
O O8 0.016009 0.343055 0.897709
O O9 0.583151 0.253121 0.297120
O O10 0.152292 0.205717 0.393759
O O11 0.893056 0.236513 0.606748
O O12 0.291055 0.730138 0.693633
O O13 0.377493 0.044784 0.788351
O O14 0.188842 0.888763 0.960557
O O15 0.324850 0.497078 0.443201
O O16 0.252926 0.405784 0.701136
#
# Coordination Sequence:
#
# PCOD9000612 Si02
#       8
#     1   1   1   1   1   1   1   1
#     4  12  26  49  80 108 154 200 266 317 384 452
#     4  12  27  48  80 115 157 207 255 324 391 465
#     4  11  26  50  73 118 147 206 260 324 380 464
#     4  12  26  53  74 117 161 204 256 322 395 466
#     4  12  26  48  76 112 150 207 249 320 384 456
#     4  11  26  46  79 109 156 198 265 317 388 455
#     4  11  27  49  77 116 156 208 255 320 393 470
#     4  11  24  49  77 111 153 202 258 320 377 466
#
# _framework density 25.343250999999999
#
# number of rings (size 3 to 8) (size 9 to 14) (size 15 to 20)
#    0.000    0.500    5.000    1.500    8.750    1.000 
#   11.250    0.000    0.000    0.000    0.000    0.000 
#    0.000    0.000    0.000    0.000    0.000    0.000 
#
# Total GULP energy -44569.482090 kJ/mol
# GULP energy per Si atom -5571.185261 kJ/mol
# Density = 2.528557 g / cm^3
# Si number density = 25.343251 Si / 1000 Ang^3
#
#
#
# Elastic Constant Matrix: (Units=GPa)
#
#
# Indices 1 2 3 4 5 6 
#
# 1 88.6690 26.0009 39.4672 13.4832 15.0429 11.8868
# 2 26.0009 168.4676 73.8293 9.7147 9.4846 8.1252
# 3 39.4672 73.8293 143.6020 3.2404 28.3077 -5.4454
# 4 13.4832 9.7147 3.2404 41.3937 10.9350 8.8966
# 5 15.0429 9.4846 28.3077 10.9350 29.9465 -3.6981
# 6 11.8868 8.1252 -5.4454 8.8966 -3.6981 32.9973
#
#
#
# Elastic Compliance Matrix: (Units=1/GPa)
#
#
# Indices 1 2 3 4 5 6 
#
# 1 0.014558 -0.000192 -0.003264 -0.002160 -0.004071 -0.005609
# 2 -0.000192 0.008021 -0.004543 -0.001621 0.002199 -0.001972
# 3 -0.003264 -0.004543 0.012012 0.003070 -0.009098 0.002429
# 4 -0.002160 -0.001621 0.003070 0.030234 -0.013326 -0.007961
# 5 -0.004071 0.002199 -0.009098 -0.013326 0.049262 0.008537
# 6 -0.005609 -0.001972 0.002429 -0.007961 0.008537 0.036316
#
#
# Mechanical properties :
#
#
# Convention : Reuss Voigt Hill
#
# Bulk Modulus (GPa) = 53.77978 75.48146 64.63062
# Shear Modulus (GPa) = 28.96902 38.29693 33.63297
#
# Velocity S-wave (km/s) = 3.38459 3.89154 3.64689
# Velocity P-wave (km/s) = 6.04488 7.07393 6.57955
#
# Compressibility (1/GPa) = 0.01859435
#
# Stress axis : x y z
#
# Youngs Moduli (GPa) = 68.69027 124.67118 83.24701
#
# Poissons Ratio (x) = 0.02397 0.27170
# Poissons Ratio (y) = 0.01320 0.37816
# Poissons Ratio (z) = 0.22419 0.56633
#
# Static dielectric constant tensor:
#      x y z
#    x 2.095310 -0.135720 -0.026820 
#    y -0.135720 2.226230 -0.074760 
#    z -0.026820 -0.074760 2.069600 
# 
# From -- ./inp_files/2993.got.cif
#   From: 2010.05.17/outbox.cif.g08.bks.cpg/sg1_2_cif.got.tgz:2993.got - 2010.05.17 20:27:59.
