data_PCOD9000338
_publ_section_title
;
Structure prediction by ZEFSAII (Michael W. Deem and Ramdas Pophale) SiO2 
 PCOD9000338
Probable space group: P 1
;
_chemical_formula_sum "Si O2"
_cell_formula_units_Z 8
_cell_length_a 6.784752
_cell_length_b 8.889900
_cell_length_c 10.528385
_cell_angle_alpha 126.596537
_cell_angle_beta 138.910639
_cell_angle_gamma 50.575621
_cell_volume 313.637683
_symmetry_space_group_name_H-M "P 1"
_symmetry_group_IT_number 1
_symmetry_cell_setting 'triclinic'
loop_
_space_group_symop_operation_xyz
x,y,z
loop_
_atom_site_type_symbol
_atom_site_label
_atom_site_fract_x
_atom_site_fract_y
_atom_site_fract_z
Si Si1 0.230980 0.355490 0.932220
Si Si2 0.368457 0.669931 0.863047
Si Si3 0.200497 0.995237 0.439407
Si Si4 0.053971 0.982489 0.705926
Si Si5 0.740501 0.635577 0.658200
Si Si6 0.506293 0.272862 0.300843
Si Si7 0.622959 0.241720 0.826970
Si Si8 0.445545 0.945755 0.263829
O O1 0.546811 0.290364 0.961963
O O2 0.107818 0.168940 0.761872
O O3 0.977155 0.559607 0.857196
O O4 0.325531 0.351006 0.121343
O O5 0.612461 0.446173 0.861544
O O6 0.018869 0.647822 0.701427
O O7 0.360200 0.793813 0.793906
O O8 0.447964 0.785348 0.078437
O O9 0.326785 0.181382 0.602571
O O10 0.252894 0.922787 0.282990
O O11 0.825865 0.082586 0.328551
O O12 0.433988 0.832058 0.568497
O O13 0.917205 0.064644 0.821980
O O14 0.794700 0.917182 0.475297
O O15 0.606589 0.454347 0.489095
O O16 0.330259 0.172306 0.263600
#
# Coordination Sequence:
#
# PCOD9000338 Si02
#       8
#     1   1   1   1   1   1   1   1
#     4  11  24  44  73  97 144 177 230 285 339 412
#     4  11  22  43  69 101 136 179 232 277 348 405
#     4  11  24  46  74  99 141 185 228 283 350 406
#     4  11  22  47  67  95 142 180 224 291 338 406
#     4  11  24  45  69 104 140 180 229 284 345 406
#     4  12  25  47  69 106 139 182 231 290 342 407
#     4  10  23  44  66  98 133 187 223 275 347 404
#     4  11  24  44  71 100 139 176 231 289 337 408
#
# _framework density 25.507141000000001
#
# number of rings (size 3 to 8) (size 9 to 14) (size 15 to 20)
#    0.000    1.000    7.500    0.000    5.250    0.000 
#    6.750    1.250    0.000    0.000    0.000    0.000 
#    0.000    0.000    0.000    0.000    0.000    0.000 
#
# Total GULP energy -44734.408865 kJ/mol
# GULP energy per Si atom -5591.801108 kJ/mol
# Density = 2.544909 g / cm^3
# Si number density = 25.507141 Si / 1000 Ang^3
#
#
#
# Elastic Constant Matrix: (Units=GPa)
#
#
# Indices 1 2 3 4 5 6 
#
# 1 82.3703 40.5040 7.5310 -19.4303 1.9432 4.7435
# 2 40.5040 186.4996 52.6128 -17.2440 -13.4804 16.4442
# 3 7.5310 52.6128 124.6420 -8.7135 -11.7546 8.9340
# 4 -19.4303 -17.2440 -8.7135 53.2081 13.6306 0.2271
# 5 1.9432 -13.4804 -11.7546 13.6306 35.8479 -10.3309
# 6 4.7435 16.4442 8.9340 0.2271 -10.3309 37.1390
#
#
#
# Elastic Compliance Matrix: (Units=1/GPa)
#
#
# Indices 1 2 3 4 5 6 
#
# 1 0.015198 -0.003054 0.000489 0.005831 -0.004613 -0.002025
# 2 -0.003054 0.007019 -0.002499 0.000419 0.001322 -0.001752
# 3 0.000489 -0.002499 0.009292 0.000458 0.001699 -0.000722
# 4 0.005831 0.000419 0.000458 0.023765 -0.010204 -0.004024
# 5 -0.004613 0.001322 0.001699 -0.010204 0.035855 0.009632
# 6 -0.002025 -0.001752 -0.000722 -0.004024 0.009632 0.030837
#
#
# Mechanical properties :
#
#
# Convention : Reuss Voigt Hill
#
# Bulk Modulus (GPa) = 46.77133 66.08972 56.43052
# Shear Modulus (GPa) = 35.91349 44.76328 40.33839
#
# Velocity S-wave (km/s) = 3.75637 4.19373 3.98106
# Velocity P-wave (km/s) = 6.09837 7.02968 6.58052
#
# Compressibility (1/GPa) = 0.02138062
#
# Stress axis : x y z
#
# Youngs Moduli (GPa) = 65.79648 142.47202 107.61772
#
# Poissons Ratio (x) = 0.43517 -0.05260
# Poissons Ratio (y) = 0.20097 0.26891
# Poissons Ratio (z) = -0.03216 0.35600
#
# Static dielectric constant tensor:
#      x y z
#    x 2.094790 0.000230 -0.019680 
#    y 0.000230 1.987810 -0.022470 
#    z -0.019680 -0.022470 1.976620 
# 
# From -- ./inp_files/4782.got.cif
#   From: 2010.05.17/outbox.cif.g08.bks.cpg/sg1_3_cif.got.tgz:4782.got - 2010.05.17 20:27:59.
