data_PCOD9000708
_publ_section_title
;
Structure prediction by ZEFSAII (Michael W. Deem and Ramdas Pophale) SiO2 
 PCOD9000708
Probable space group: P 1
;
_chemical_formula_sum "Si O2"
_cell_formula_units_Z 8
_cell_length_a 8.530150
_cell_length_b 6.873807
_cell_length_c 11.118339
_cell_angle_alpha 40.313233
_cell_angle_beta 77.158463
_cell_angle_gamma 53.565650
_cell_volume 304.209818
_symmetry_space_group_name_H-M "P 1"
_symmetry_group_IT_number 1
_symmetry_cell_setting 'triclinic'
loop_
_space_group_symop_operation_xyz
x,y,z
loop_
_atom_site_type_symbol
_atom_site_label
_atom_site_fract_x
_atom_site_fract_y
_atom_site_fract_z
Si Si1 0.981300 0.779110 0.010980
Si Si2 0.105992 0.054114 0.156962
Si Si3 0.180705 0.396057 0.767378
Si Si4 0.672423 0.821297 0.178006
Si Si5 0.485171 0.378690 0.584295
Si Si6 0.785338 0.112738 0.329650
Si Si7 0.941001 0.090309 0.639628
Si Si8 0.422890 0.118619 0.309839
O O1 0.753449 0.004266 0.005687
O O2 0.037457 0.417818 0.087507
O O3 0.180486 0.522338 0.189170
O O4 0.974868 0.064805 0.787401
O O5 0.900750 0.093712 0.197883
O O6 0.322145 0.635250 0.378236
O O7 0.148576 0.150201 0.974473
O O8 0.402759 0.184054 0.757523
O O9 0.984404 0.722750 0.556227
O O10 0.154084 0.701337 0.723599
O O11 0.680805 0.526970 0.224889
O O12 0.856355 0.489594 0.399856
O O13 0.466549 0.114698 0.160071
O O14 0.742084 0.095597 0.650059
O O15 0.448224 0.730414 0.503083
O O16 0.601105 0.098205 0.350853
#
# Coordination Sequence:
#
# PCOD9000708 Si02
#       8
#     1   1   1   1   1   1   1   1
#     4   9  18  33  53  78 107 141 183 220 262 323
#     4   8  16  33  54  76 104 142 180 218 268 321
#     4   9  17  34  55  75 106 144 176 222 272 314
#     4   9  19  37  56  74 108 149 175 221 276 310
#     4   9  18  31  53  79 105 142 182 218 268 324
#     4   9  18  35  57  82 113 141 179 225 267 323
#     4   9  17  30  53  78 102 137 179 218 261 316
#     4  10  19  35  57  82 111 142 180 224 268 321
#
# _framework density 26.297640999999999
#
# number of rings (size 3 to 8) (size 9 to 14) (size 15 to 20)
#    0.000    3.000    0.000    2.250    0.000    4.000 
#    0.000   17.500    0.000   21.000    0.000    0.000 
#    0.000    0.000    0.000    0.000    0.000    0.000 
#
# Total GULP energy -44702.225419 kJ/mol
# GULP energy per Si atom -5587.778177 kJ/mol
# Density = 2.623779 g / cm^3
# Si number density = 26.297641 Si / 1000 Ang^3
#
#
#
# Elastic Constant Matrix: (Units=GPa)
#
#
# Indices 1 2 3 4 5 6 
#
# 1 101.6918 20.5327 27.8945 17.9232 -3.4103 -11.7921
# 2 20.5327 80.3354 7.5878 18.9436 -17.1619 -19.6130
# 3 27.8945 7.5878 121.4671 26.5476 -3.2370 -14.9134
# 4 17.9232 18.9436 26.5476 36.9795 -15.9767 -14.8074
# 5 -3.4103 -17.1619 -3.2370 -15.9767 37.6521 0.6491
# 6 -11.7921 -19.6130 -14.9134 -14.8074 0.6491 44.4663
#
#
#
# Elastic Compliance Matrix: (Units=1/GPa)
#
#
# Indices 1 2 3 4 5 6 
#
# 1 0.011373 -0.002147 -0.001644 -0.003885 -0.001743 0.000249
# 2 -0.002147 0.016333 0.001045 -0.003199 0.005882 0.005834
# 3 -0.001644 0.001045 0.010271 -0.007603 -0.002032 0.000968
# 4 -0.003885 -0.003199 -0.007603 0.047964 0.017704 0.010722
# 5 -0.001743 0.005882 -0.002032 0.017704 0.036302 0.006816
# 6 0.000249 0.005834 0.000968 0.010722 0.006816 0.028924
#
#
# Mechanical properties :
#
#
# Convention : Reuss Voigt Hill
#
# Bulk Modulus (GPa) = 30.78315 46.16937 38.47626
# Shear Modulus (GPa) = 29.85273 40.31819 35.08546
#
# Velocity S-wave (km/s) = 3.37291 3.91979 3.65659
# Velocity P-wave (km/s) = 5.18650 6.17098 5.70003
#
# Compressibility (1/GPa) = 0.03248530
#
# Stress axis : x y z
#
# Youngs Moduli (GPa) = 87.92424 61.22535 97.35861
#
# Poissons Ratio (x) = 0.13144 0.16010
# Poissons Ratio (y) = 0.18876 -0.10174
# Poissons Ratio (z) = 0.14459 -0.06398
#
# Static dielectric constant tensor:
#      x y z
#    x 2.070870 0.045670 0.043910 
#    y 0.045670 2.071240 0.039710 
#    z 0.043910 0.039710 2.071910 
# 
# From -- ./inp_files/3736.got.cif
#   From: 2010.05.17/outbox.cif.g08.bks.cpg/sg1_2_cif.got.tgz:3736.got - 2010.05.17 20:27:59.
