data_PCOD9000148
_publ_section_title
;
Structure prediction by ZEFSAII (Michael W. Deem and Ramdas Pophale) SiO2 
 PCOD9000148
Probable space group: P 1
;
_chemical_formula_sum "Si O2"
_cell_formula_units_Z 8
_cell_length_a 7.686855
_cell_length_b 9.439210
_cell_length_c 5.756169
_cell_angle_alpha 94.498117
_cell_angle_beta 138.489720
_cell_angle_gamma 96.898790
_cell_volume 265.648542
_symmetry_space_group_name_H-M "P 1"
_symmetry_group_IT_number 1
_symmetry_cell_setting 'triclinic'
loop_
_space_group_symop_operation_xyz
x,y,z
loop_
_atom_site_type_symbol
_atom_site_label
_atom_site_fract_x
_atom_site_fract_y
_atom_site_fract_z
Si Si1 0.269170 0.988570 0.670970
Si Si2 0.210641 0.616311 0.800310
Si Si3 0.524920 0.244889 0.229493
Si Si4 0.960827 0.117280 0.902552
Si Si5 0.211213 0.872626 0.103656
Si Si6 0.549759 0.492402 0.578051
Si Si7 0.774143 0.743917 0.126657
Si Si8 0.987963 0.368802 0.253920
O O1 0.344971 0.930596 0.992089
O O2 0.938862 0.915796 0.326471
O O3 0.353128 0.930601 0.500250
O O4 0.400870 0.162894 0.858740
O O5 0.168597 0.698303 0.004975
O O6 0.772820 0.182272 0.553558
O O7 0.095709 0.441120 0.618493
O O8 0.521153 0.678922 0.034653
O O9 0.274722 0.183681 0.148855
O O10 0.585178 0.420080 0.356641
O O11 0.932845 0.195633 0.128035
O O12 0.953672 0.945400 0.860301
O O13 0.021641 0.677519 0.441755
O O14 0.238438 0.446746 0.344761
O O15 0.667814 0.665570 0.766863
O O16 0.722297 0.414461 0.910227
#
# Coordination Sequence:
#
# PCOD9000148 Si02
#       8
#     1   1   1   1   1   1   1   1
#     4  10  22  40  62  90 124 160 202 250 304 360
#     4   9  18  34  57  87 119 157 199 247 299 357
#     4   9  18  34  57  87 119 157 199 247 299 357
#     4   9  18  34  57  87 119 157 199 247 299 357
#     4  10  22  40  62  90 124 160 202 250 304 360
#     4   8  14  28  54  82 114 152 196 242 294 352
#     4   9  18  34  57  87 119 157 199 247 299 357
#     4   8  14  28  54  82 114 152 196 242 294 352
#
# _framework density 30.114978000000001
#
# number of rings (size 3 to 8) (size 9 to 14) (size 15 to 20)
#    0.000    3.000    0.000    0.000    0.000    9.000 
#    0.000   20.000    0.000   39.000    0.000    0.000 
#    0.000    0.000    0.000    0.000    0.000    0.000 
#
# Total GULP energy -44692.177039 kJ/mol
# GULP energy per Si atom -5586.522130 kJ/mol
# Density = 3.004643 g / cm^3
# Si number density = 30.114978 Si / 1000 Ang^3
#
#
#
# Elastic Constant Matrix: (Units=GPa)
#
#
# Indices 1 2 3 4 5 6 
#
# 1 182.1373 69.6979 77.1211 20.8199 -22.1875 -23.2912
# 2 69.6979 154.9505 88.5898 24.5836 -18.5074 -28.0886
# 3 77.1211 88.5898 186.3380 17.3082 -26.0817 -16.9673
# 4 20.8199 24.5836 17.3082 74.3456 -30.8761 -22.0752
# 5 -22.1875 -18.5074 -26.0817 -30.8761 85.5624 17.3040
# 6 -23.2912 -28.0886 -16.9673 -22.0752 17.3040 50.2322
#
#
#
# Elastic Compliance Matrix: (Units=1/GPa)
#
#
# Indices 1 2 3 4 5 6 
#
# 1 0.007275 -0.001804 -0.001924 -0.000378 0.000495 0.001378
# 2 -0.001804 0.010108 -0.003725 -0.001233 -0.000507 0.003190
# 3 -0.001924 -0.003725 0.008044 0.000289 0.001374 -0.000604
# 4 -0.000378 -0.001233 0.000289 0.017517 0.004990 0.005212
# 5 0.000495 -0.000507 0.001374 0.004990 0.014403 -0.002358
# 6 0.001378 0.003190 -0.000604 0.005212 -0.002358 0.025229
#
#
# Mechanical properties :
#
#
# Convention : Reuss Voigt Hill
#
# Bulk Modulus (GPa) = 95.03283 110.47148 102.75216
# Shear Modulus (GPa) = 49.51083 61.22917 55.37000
#
# Velocity S-wave (km/s) = 4.05910 4.51397 4.29257
# Velocity P-wave (km/s) = 7.32076 7.99567 7.66565
#
# Compressibility (1/GPa) = 0.01052268
#
# Stress axis : x y z
#
# Youngs Moduli (GPa) = 137.46196 98.93018 124.31360
#
# Poissons Ratio (x) = 0.17843 0.23912
# Poissons Ratio (y) = 0.24792 0.46308
# Poissons Ratio (z) = 0.26441 0.36853
#
# Static dielectric constant tensor:
#      x y z
#    x 2.315230 -0.047740 -0.056660 
#    y -0.047740 2.492710 0.139940 
#    z -0.056660 0.139940 2.368570 
# 
# From -- ./inp_files/4721.got.cif
#   From: 2010.05.17/outbox.cif.g08.bks.cpg/sg1_3_cif.got.tgz:4721.got - 2010.05.17 20:27:59.
