data_PCOD9000627
_publ_section_title
;
Structure prediction by ZEFSAII (Michael W. Deem and Ramdas Pophale) SiO2 
 PCOD9000627
Probable space group: P 1
;
_chemical_formula_sum "Si O2"
_cell_formula_units_Z 8
_cell_length_a 4.908402
_cell_length_b 5.177112
_cell_length_c 12.560119
_cell_angle_alpha 95.405882
_cell_angle_beta 82.213448
_cell_angle_gamma 88.660937
_cell_volume 314.608909
_symmetry_space_group_name_H-M "P 1"
_symmetry_group_IT_number 1
_symmetry_cell_setting 'triclinic'
loop_
_space_group_symop_operation_xyz
x,y,z
loop_
_atom_site_type_symbol
_atom_site_label
_atom_site_fract_x
_atom_site_fract_y
_atom_site_fract_z
Si Si1 0.688100 0.912330 0.660170
Si Si2 0.070654 0.565740 0.943118
Si Si3 0.101887 0.577342 0.271929
Si Si4 0.112827 0.025936 0.802869
Si Si5 0.943436 0.486834 0.505459
Si Si6 0.532842 0.679215 0.090945
Si Si7 0.746981 0.072763 0.234130
Si Si8 0.458845 0.159229 0.467517
O O1 0.403714 0.909086 0.739162
O O2 0.883580 0.658792 0.618039
O O3 0.888851 0.087112 0.724778
O O4 0.585298 0.989630 0.550092
O O5 0.998753 0.798427 0.873883
O O6 0.805569 0.531651 0.029419
O O7 0.154136 0.294487 0.872669
O O8 0.311826 0.663450 0.009068
O O9 0.094701 0.611577 0.401218
O O10 0.928316 0.324970 0.244318
O O11 0.397024 0.555684 0.198760
O O12 0.955405 0.831611 0.240842
O O13 0.643562 0.411311 0.479431
O O14 0.142434 0.236396 0.505446
O O15 0.607510 0.972907 0.130062
O O16 0.522647 0.071225 0.341222
#
# Coordination Sequence:
#
# PCOD9000627 Si02
#       8
#     1   1   1   1   1   1   1   1
#     4  12  26  49  82 108 154 209 254 322 404 458
#     4  12  30  53  76 114 148 203 272 338 384 456
#     4  11  27  48  76 120 163 208 255 313 387 484
#     4  12  30  51  80 110 152 199 274 336 386 456
#     4  11  26  45  74 115 163 202 253 311 385 482
#     4  12  28  51  84 108 160 209 260 320 408 456
#     4  11  27  48  76 120 163 208 255 313 387 484
#     4  11  26  45  74 115 163 202 253 311 385 482
#
# _framework density 25.428397
#
# number of rings (size 3 to 8) (size 9 to 14) (size 15 to 20)
#    0.000    0.500    2.500    3.000   14.000    3.000 
#    0.000    0.000    0.000    0.000    0.000    0.000 
#    0.000    0.000    0.000    0.000    0.000    0.000 
#
# Total GULP energy -44828.584903 kJ/mol
# GULP energy per Si atom -5603.573113 kJ/mol
# Density = 2.537052 g / cm^3
# Si number density = 25.428397 Si / 1000 Ang^3
#
#
#
# Elastic Constant Matrix: (Units=GPa)
#
#
# Indices 1 2 3 4 5 6 
#
# 1 147.0337 31.4772 51.2591 19.9157 -7.6823 -5.7340
# 2 31.4772 121.9512 43.9530 13.5377 -8.3184 4.4999
# 3 51.2591 43.9530 126.3784 21.3444 -12.0804 2.2220
# 4 19.9157 13.5377 21.3444 43.8397 2.2578 -0.8259
# 5 -7.6823 -8.3184 -12.0804 2.2578 50.3472 -1.7480
# 6 -5.7340 4.4999 2.2220 -0.8259 -1.7480 34.0028
#
#
#
# Elastic Compliance Matrix: (Units=1/GPa)
#
#
# Indices 1 2 3 4 5 6 
#
# 1 0.008325 -0.000974 -0.002636 -0.002199 0.000634 0.001684
# 2 -0.000974 0.009651 -0.002637 -0.001320 0.000829 -0.001259
# 3 -0.002636 -0.002637 0.010642 -0.003279 0.001836 -0.000776
# 4 -0.002199 -0.001320 -0.003279 0.025951 -0.002486 0.000521
# 5 0.000634 0.000829 0.001836 -0.002486 0.020678 0.000880
# 6 0.001684 -0.001259 -0.000776 0.000521 0.000880 0.029969
#
#
# Mechanical properties :
#
#
# Convention : Reuss Voigt Hill
#
# Bulk Modulus (GPa) = 62.01550 72.08242 67.04896
# Shear Modulus (GPa) = 40.62241 43.54954 42.08598
#
# Velocity S-wave (km/s) = 4.00124 4.14289 4.07268
# Velocity P-wave (km/s) = 6.76667 7.16194 6.96711
#
# Compressibility (1/GPa) = 0.01612500
#
# Stress axis : x y z
#
# Youngs Moduli (GPa) = 120.11851 103.61180 93.96847
#
# Poissons Ratio (x) = 0.10088 0.24767
# Poissons Ratio (y) = 0.11696 0.24783
# Poissons Ratio (z) = 0.31659 0.27326
#
# Static dielectric constant tensor:
#      x y z
#    x 1.961110 -0.001330 0.011710 
#    y -0.001330 2.033470 -0.037640 
#    z 0.011710 -0.037640 2.034410 
# 
# From -- ./inp_files/5906.got.cif
#   From: 2010.05.17/outbox.cif.g08.bks.cpg/sg1_3_cif.got.tgz:5906.got - 2010.05.17 20:27:59.
