data_PCOD9000230
_publ_section_title
;
Structure prediction by ZEFSAII (Michael W. Deem and Ramdas Pophale) SiO2 
 PCOD9000230
Probable space group: P 1
;
_chemical_formula_sum "Si O2"
_cell_formula_units_Z 8
_cell_length_a 9.363082
_cell_length_b 8.888671
_cell_length_c 7.177167
_cell_angle_alpha 100.170732
_cell_angle_beta 70.058186
_cell_angle_gamma 145.332794
_cell_volume 313.298092
_symmetry_space_group_name_H-M "P 1"
_symmetry_group_IT_number 1
_symmetry_cell_setting 'triclinic'
loop_
_space_group_symop_operation_xyz
x,y,z
loop_
_atom_site_type_symbol
_atom_site_label
_atom_site_fract_x
_atom_site_fract_y
_atom_site_fract_z
Si Si1 0.017600 0.989490 0.090900
Si Si2 0.297539 0.761006 0.249522
Si Si3 0.696904 0.111747 0.848393
Si Si4 0.535426 0.102382 0.541162
Si Si5 0.380414 0.499066 0.295938
Si Si6 0.841185 0.617652 0.560303
Si Si7 0.975549 0.638128 0.897664
Si Si8 0.046661 0.106459 0.682903
O O1 0.703779 0.776564 0.205223
O O2 0.236213 0.247946 0.182965
O O3 0.005459 0.795376 0.068875
O O4 0.107465 0.102251 0.863836
O O5 0.254572 0.550789 0.280363
O O6 0.068198 0.690939 0.392864
O O7 0.541364 0.012453 0.332182
O O8 0.402769 0.862730 0.015585
O O9 0.716167 0.180699 0.640367
O O10 0.856940 0.376966 0.943845
O O11 0.821361 0.049011 0.793944
O O12 0.583351 0.320722 0.523176
O O13 0.250254 0.848230 0.710171
O O14 0.283720 0.384550 0.524114
O O15 0.791225 0.552159 0.791348
O O16 0.929631 0.865293 0.565221
#
# Coordination Sequence:
#
# PCOD9000230 Si02
#       8
#     1   1   1   1   1   1   1   1
#     4  11  28  48  74 110 149 188 244 304 359 433
#     4  11  25  43  68 102 137 189 241 295 353 437
#     4  11  24  42  71 102 140 187 241 292 362 427
#     4  10  22  43  70  94 142 187 238 294 357 426
#     4  12  28  47  74 110 147 193 243 299 363 432
#     4   9  22  43  68 101 138 184 238 294 357 428
#     4   9  22  43  69 100 138 189 232 297 358 428
#     4  11  25  47  72 109 145 193 241 303 365 425
#
# _framework density 25.534787000000001
#
# number of rings (size 3 to 8) (size 9 to 14) (size 15 to 20)
#    0.000    1.500    1.250    2.250   10.500    5.000 
#    2.250    0.000    0.000    0.000    0.000    0.000 
#    0.000    0.000    0.000    0.000    0.000    0.000 
#
# Total GULP energy -44738.546958 kJ/mol
# GULP energy per Si atom -5592.318370 kJ/mol
# Density = 2.547667 g / cm^3
# Si number density = 25.534787 Si / 1000 Ang^3
#
#
#
# Elastic Constant Matrix: (Units=GPa)
#
#
# Indices 1 2 3 4 5 6 
#
# 1 74.1016 16.8877 34.1778 -5.3020 -12.3735 -19.5786
# 2 16.8877 90.6129 22.9978 -10.0484 -2.0860 -16.6889
# 3 34.1778 22.9978 126.2913 -27.9988 -1.2710 -2.2330
# 4 -5.3020 -10.0484 -27.9988 47.6239 0.3076 -0.1540
# 5 -12.3735 -2.0860 -1.2710 0.3076 41.3324 5.0923
# 6 -19.5786 -16.6889 -2.2330 -0.1540 5.0923 46.4633
#
#
#
# Elastic Compliance Matrix: (Units=1/GPa)
#
#
# Indices 1 2 3 4 5 6 
#
# 1 0.018403 -0.000976 -0.004867 -0.001026 0.004496 0.006674
# 2 -0.000976 0.012541 -0.001592 0.001616 -0.000219 0.004046
# 3 -0.004867 -0.001592 0.010677 0.005400 -0.001005 -0.001981
# 4 -0.001026 0.001616 0.005400 0.024403 -0.000305 0.000522
# 5 0.004496 -0.000219 -0.001005 -0.000305 0.025629 -0.001042
# 6 0.006674 0.004046 -0.001981 0.000522 -0.001042 0.025809
#
#
# Mechanical properties :
#
#
# Convention : Reuss Voigt Hill
#
# Bulk Modulus (GPa) = 37.38024 48.79250 43.08637
# Shear Modulus (GPa) = 35.39877 41.54673 38.47275
#
# Velocity S-wave (km/s) = 3.72734 4.03806 3.88581
# Velocity P-wave (km/s) = 5.76149 6.39461 6.08629
#
# Compressibility (1/GPa) = 0.02675210
#
# Stress axis : x y z
#
# Youngs Moduli (GPa) = 54.33990 79.73661 93.65795
#
# Poissons Ratio (x) = 0.07779 0.45581
# Poissons Ratio (y) = 0.05301 0.14912
# Poissons Ratio (z) = 0.26446 0.12695
#
# Static dielectric constant tensor:
#      x y z
#    x 2.204840 0.103390 0.045130 
#    y 0.103390 2.069320 0.022840 
#    z 0.045130 0.022840 1.975000 
# 
# From -- ./inp_files/1855.got.cif
#   From: 2010.05.17/outbox.cif.g08.bks.cpg/sg1_1_cif.got.tgz:1855.got - 2010.05.17 20:27:59.
