data_PCOD9000646
_publ_section_title
;
Structure prediction by ZEFSAII (Michael W. Deem and Ramdas Pophale) SiO2 
 PCOD9000646
Probable space group: P 1
;
_chemical_formula_sum "Si O2"
_cell_formula_units_Z 6
_cell_length_a 10.995281
_cell_length_b 5.067936
_cell_length_c 5.412744
_cell_angle_alpha 87.690211
_cell_angle_beta 47.691962
_cell_angle_gamma 84.537163
_cell_volume 221.927441
_symmetry_space_group_name_H-M "P 1"
_symmetry_group_IT_number 1
_symmetry_cell_setting 'triclinic'
loop_
_space_group_symop_operation_xyz
x,y,z
loop_
_atom_site_type_symbol
_atom_site_label
_atom_site_fract_x
_atom_site_fract_y
_atom_site_fract_z
Si Si1 0.486010 0.765370 0.113600
Si Si2 0.775097 0.472101 0.527004
Si Si3 0.165818 0.098097 0.554295
Si Si4 0.318294 0.392475 0.690727
Si Si5 0.078021 0.633193 0.378164
Si Si6 0.674193 0.370566 0.172082
O O1 0.353393 0.563878 0.392208
O O2 0.618100 0.683241 0.159763
O O3 0.363219 0.023203 0.225478
O O4 0.603956 0.663284 0.735105
O O5 0.795512 0.341943 0.236740
O O6 0.923860 0.635108 0.403375
O O7 0.736854 0.278953 0.817094
O O8 0.188041 0.183027 0.806766
O O9 0.087694 0.353225 0.511386
O O10 0.071973 0.862581 0.579538
O O11 0.502255 0.262803 0.493929
O O12 0.242408 0.599622 0.986551
#
# Coordination Sequence:
#
# PCOD9000646 Si02
#       6
#     1   1   1   1   1   1
#     4   8  21  42  72  97 135 181 238 283 338 419
#     4   9  21  42  67 103 142 182 230 291 354 415
#     4  12  24  45  68 106 138 184 237 285 355 417
#     4   9  23  41  73 100 136 182 238 288 345 413
#     4  12  26  42  72 102 146 180 232 292 358 416
#     4   8  19  42  70  96 137 181 235 279 348 410
#
# _framework density 27.035862999999999
#
# number of rings (size 3 to 8) (size 9 to 14) (size 15 to 20)
#    2.000    0.000    1.667    1.000    7.000    0.000 
#    6.000    1.667    0.000    0.000    0.000    0.000 
#    0.000    0.000    0.000    0.000    0.000    0.000 
#
# Total GULP energy -33413.464619 kJ/mol
# GULP energy per Si atom -5568.910770 kJ/mol
# Density = 2.697433 g / cm^3
# Si number density = 27.035863 Si / 1000 Ang^3
#
#
#
# Elastic Constant Matrix: (Units=GPa)
#
#
# Indices 1 2 3 4 5 6 
#
# 1 146.9224 23.1675 27.6816 -4.4569 21.1279 26.6288
# 2 23.1675 113.0331 13.6317 14.5886 16.4758 2.1998
# 3 27.6816 13.6317 97.3384 -1.8689 8.0935 1.1259
# 4 -4.4569 14.5886 -1.8689 18.3375 7.9423 2.1687
# 5 21.1279 16.4758 8.0935 7.9423 41.0213 3.2859
# 6 26.6288 2.1998 1.1259 2.1687 3.2859 27.7077
#
#
#
# Elastic Compliance Matrix: (Units=1/GPa)
#
#
# Indices 1 2 3 4 5 6 
#
# 1 0.010045 -0.001846 -0.001975 0.006818 -0.004609 -0.009415
# 2 -0.001846 0.010651 -0.001017 -0.008541 -0.001619 0.001830
# 3 -0.001975 -0.001017 0.011098 0.001815 -0.001238 0.001533
# 4 0.006818 -0.008541 0.001815 0.070060 -0.013214 -0.009865
# 5 -0.004609 -0.001619 -0.001238 -0.013214 0.030038 0.002080
# 6 -0.009415 0.001830 0.001533 -0.009865 0.002080 0.045457
#
#
# Mechanical properties :
#
#
# Convention : Reuss Voigt Hill
#
# Bulk Modulus (GPa) = 45.21314 54.02840 49.62077
# Shear Modulus (GPa) = 25.72058 36.93417 31.32737
#
# Velocity S-wave (km/s) = 3.08774 3.70011 3.40771
# Velocity P-wave (km/s) = 5.42880 6.18723 5.82038
#
# Compressibility (1/GPa) = 0.02211746
#
# Stress axis : x y z
#
# Youngs Moduli (GPa) = 99.54762 93.89102 90.10902
#
# Poissons Ratio (x) = 0.17330 0.17799
# Poissons Ratio (y) = 0.18374 0.09166
# Poissons Ratio (z) = 0.19663 0.09550
#
# Static dielectric constant tensor:
#      x y z
#    x 2.202010 0.066040 -0.005900 
#    y 0.066040 2.161240 0.000120 
#    z -0.005900 0.000120 2.176100 
# 
# From -- ./inp_files/160.got.cif
#   From: 2010.05.17/outbox.cif.g08.bks.cpg/sg1_1_cif.got.tgz:160.got - 2010.05.17 20:27:59.
