data_PCOD9000068
_publ_section_title
;
Structure prediction by ZEFSAII (Michael W. Deem and Ramdas Pophale) SiO2 
 PCOD9000068
Probable space group: P 1
;
_chemical_formula_sum "Si O2"
_cell_formula_units_Z 8
_cell_length_a 11.229647
_cell_length_b 14.474062
_cell_length_c 9.513382
_cell_angle_alpha 28.956659
_cell_angle_beta 38.928900
_cell_angle_gamma 29.060092
_cell_volume 363.067551
_symmetry_space_group_name_H-M "P 1"
_symmetry_group_IT_number 1
_symmetry_cell_setting 'triclinic'
loop_
_space_group_symop_operation_xyz
x,y,z
loop_
_atom_site_type_symbol
_atom_site_label
_atom_site_fract_x
_atom_site_fract_y
_atom_site_fract_z
Si Si1 0.846010 0.509050 0.584450
Si Si2 0.832918 0.637586 0.882949
Si Si3 0.912976 0.168599 0.492600
Si Si4 0.261676 0.942168 0.005947
Si Si5 0.734255 0.910768 0.326090
Si Si6 0.084086 0.786386 0.627344
Si Si7 0.624561 0.399808 0.714855
Si Si8 0.354739 0.855817 0.722858
O O1 0.857952 0.726256 0.322851
O O2 0.765842 0.491407 0.526745
O O3 0.088139 0.239002 0.760897
O O4 0.606622 0.597557 0.779791
O O5 0.848444 0.740755 0.584753
O O6 0.979230 0.656898 0.840518
O O7 0.543605 0.813891 0.951049
O O8 0.936809 0.358513 0.144611
O O9 0.679817 0.334785 0.586627
O O10 0.139606 0.988713 0.630731
O O11 0.898983 0.016065 0.592531
O O12 0.276897 0.842111 0.967802
O O13 0.150392 0.875449 0.313934
O O14 0.453862 0.010478 0.443105
O O15 0.726584 0.141170 0.034518
O O16 0.335900 0.601702 0.727596
#
# Coordination Sequence:
#
# PCOD9000068 Si02
#       8
#     1   1   1   1   1   1   1   1
#     4  10  21  42  71  92 136 182 219 284 338 386
#     4  11  25  45  68 104 141 176 225 284 337 412
#     4  12  24  46  68 103 139 175 238 275 335 412
#     4  11  22  45  72  98 141 181 223 283 344 398
#     4   9  22  43  63 102 130 174 229 270 337 404
#     4  12  26  44  70 101 143 183 218 285 348 397
#     4  12  23  43  70 100 138 180 228 280 338 404
#     4   9  21  42  70  96 130 179 226 283 325 403
#
# _framework density 22.034465999999998
#
# number of rings (size 3 to 8) (size 9 to 14) (size 15 to 20)
#    0.750    0.500    3.750    2.250    0.000    1.000 
#   11.250    0.000    2.750    0.000    0.000    0.000 
#    0.000    0.000    0.000    0.000    0.000    0.000 
#
# Total GULP energy -44667.959956 kJ/mol
# GULP energy per Si atom -5583.494994 kJ/mol
# Density = 2.198431 g / cm^3
# Si number density = 22.034466 Si / 1000 Ang^3
#
#
#
# Elastic Constant Matrix: (Units=GPa)
#
#
# Indices 1 2 3 4 5 6 
#
# 1 61.5669 3.6854 -6.5985 -10.4984 -4.7180 -0.6934
# 2 3.6854 84.3204 -1.1428 -5.2430 5.0035 11.5862
# 3 -6.5985 -1.1428 53.3512 -5.3863 12.8254 11.3136
# 4 -10.4984 -5.2430 -5.3863 29.4184 3.3591 2.8887
# 5 -4.7180 5.0035 12.8254 3.3591 21.4557 -2.0118
# 6 -0.6934 11.5862 11.3136 2.8887 -2.0118 43.2757
#
#
#
# Elastic Compliance Matrix: (Units=1/GPa)
#
#
# Indices 1 2 3 4 5 6 
#
# 1 0.017786 -0.000292 0.002738 0.006731 0.001219 -0.000745
# 2 -0.000292 0.013204 0.003168 0.004012 -0.006127 -0.004921
# 3 0.002738 0.003168 0.026437 0.009371 -0.018269 -0.009191
# 4 0.006731 0.004012 0.009371 0.040863 -0.012083 -0.006705
# 5 0.001219 -0.006127 -0.018269 -0.012083 0.062066 0.010128
# 6 -0.000745 -0.004921 -0.009191 -0.006705 0.010128 0.027734
#
#
# Mechanical properties :
#
#
# Convention : Reuss Voigt Hill
#
# Bulk Modulus (GPa) = 14.56518 21.23628 17.90073
# Shear Modulus (GPa) = 25.03163 32.38292 28.70727
#
# Velocity S-wave (km/s) = 3.37415 3.83776 3.61340
# Velocity P-wave (km/s) = 4.66951 5.41263 5.05475
#
# Compressibility (1/GPa) = 0.06865689
#
# Stress axis : x y z
#
# Youngs Moduli (GPa) = 56.22361 75.73233 37.82583
#
# Poissons Ratio (x) = 0.02209 -0.10357
# Poissons Ratio (y) = 0.01640 -0.11984
# Poissons Ratio (z) = -0.15395 -0.23993
#
# Static dielectric constant tensor:
#      x y z
#    x 1.814380 0.012300 0.011290 
#    y 0.012300 1.814450 0.028110 
#    z 0.011290 0.028110 1.830230 
# 
# From -- ./inp_files/5586.got.cif
#   From: 2010.05.17/outbox.cif.g08.bks.cpg/sg1_3_cif.got.tgz:5586.got - 2010.05.17 20:27:59.
