data_PCOD9000257
_publ_section_title
;
Structure prediction by ZEFSAII (Michael W. Deem and Ramdas Pophale) SiO2 
 PCOD9000257
Probable space group: P 1
;
_chemical_formula_sum "Si O2"
_cell_formula_units_Z 8
_cell_length_a 10.424686
_cell_length_b 6.021484
_cell_length_c 11.998068
_cell_angle_alpha 107.431180
_cell_angle_beta 153.899655
_cell_angle_gamma 78.029131
_cell_volume 312.702824
_symmetry_space_group_name_H-M "P 1"
_symmetry_group_IT_number 1
_symmetry_cell_setting 'triclinic'
loop_
_space_group_symop_operation_xyz
x,y,z
loop_
_atom_site_type_symbol
_atom_site_label
_atom_site_fract_x
_atom_site_fract_y
_atom_site_fract_z
Si Si1 0.763330 0.122470 0.796820
Si Si2 0.582899 0.760751 0.429645
Si Si3 0.973847 0.414895 0.217417
Si Si4 0.124893 0.160074 0.499814
Si Si5 0.502527 0.664502 0.922063
Si Si6 0.025331 0.449855 0.847043
Si Si7 0.058777 0.015212 0.668323
Si Si8 0.531426 0.774014 0.709325
O O1 0.935356 0.281326 0.858021
O O2 0.526107 0.964021 0.504802
O O3 0.808943 0.887021 0.869610
O O4 0.812529 0.314636 0.964264
O O5 0.762067 0.569760 0.602192
O O6 0.293043 0.638425 0.125032
O O7 0.795562 0.885839 0.518246
O O8 0.957518 0.210981 0.265343
O O9 0.306340 0.538620 0.465766
O O10 0.813153 0.597044 0.192416
O O11 0.292354 0.414740 0.707867
O O12 0.979373 0.050668 0.482619
O O13 0.340575 0.987484 0.595493
O O14 0.598314 0.741601 0.883818
O O15 0.323125 0.858628 0.859046
O O16 0.141361 0.275130 0.822022
#
# Coordination Sequence:
#
# PCOD9000257 Si02
#       8
#     1   1   1   1   1   1   1   1
#     4  11  25  44  78 106 146 194 244 307 373 446
#     4  11  27  53  76 109 144 198 256 317 366 431
#     4  11  24  41  69 112 153 187 236 300 374 454
#     4  10  22  45  67 107 150 192 236 299 368 450
#     4  10  22  45  63 108 148 189 232 298 366 448
#     4  11  27  53  77 107 146 196 257 316 367 431
#     4  10  24  50  73 106 147 196 250 303 373 440
#     4  10  23  41  63 105 150 186 235 288 367 444
#
# _framework density 25.583394999999999
#
# number of rings (size 3 to 8) (size 9 to 14) (size 15 to 20)
#    0.000    1.500    1.250    1.500    3.500    6.000 
#   29.250    0.000    0.000    0.000    0.000    0.000 
#    0.000    0.000    0.000    0.000    0.000    0.000 
#
# Total GULP energy -44594.945805 kJ/mol
# GULP energy per Si atom -5574.368226 kJ/mol
# Density = 2.552517 g / cm^3
# Si number density = 25.583395 Si / 1000 Ang^3
#
#
#
# Elastic Constant Matrix: (Units=GPa)
#
#
# Indices 1 2 3 4 5 6 
#
# 1 131.0388 68.4501 40.8303 -1.3717 -25.5822 13.5126
# 2 68.4501 122.8062 50.4876 6.9679 -8.6907 -3.8124
# 3 40.8303 50.4876 95.7216 27.2286 0.2118 -3.5684
# 4 -1.3717 6.9679 27.2286 53.1348 -0.4507 -0.8126
# 5 -25.5822 -8.6907 0.2118 -0.4507 32.2723 7.2936
# 6 13.5126 -3.8124 -3.5684 -0.8126 7.2936 61.8328
#
#
#
# Elastic Compliance Matrix: (Units=1/GPa)
#
#
# Indices 1 2 3 4 5 6 
#
# 1 0.015009 -0.006107 -0.004383 0.003452 0.011510 -0.005222
# 2 -0.006107 0.013293 -0.004435 0.000389 -0.001703 0.002104
# 3 -0.004383 -0.004435 0.017114 -0.008314 -0.005394 0.002199
# 4 0.003452 0.000389 -0.008314 0.023128 0.003518 -0.001321
# 5 0.011510 -0.001703 -0.005394 0.003518 0.041495 -0.007780
# 6 -0.005222 0.002104 0.002199 -0.001321 -0.007780 0.018471
#
#
# Mechanical properties :
#
#
# Convention : Reuss Voigt Hill
#
# Bulk Modulus (GPa) = 64.24120 74.34471 69.29295
# Shear Modulus (GPa) = 30.57201 42.10124 36.33662
#
# Velocity S-wave (km/s) = 3.46062 4.06106 3.77280
# Velocity P-wave (km/s) = 6.41349 7.14930 6.79137
#
# Compressibility (1/GPa) = 0.01556633
#
# Stress axis : x y z
#
# Youngs Moduli (GPa) = 66.62740 75.22803 58.43010
#
# Poissons Ratio (x) = 0.45943 0.25610
# Poissons Ratio (y) = 0.40691 0.25912
# Poissons Ratio (z) = 0.29203 0.33362
#
# Static dielectric constant tensor:
#      x y z
#    x 2.101160 0.002840 0.028850 
#    y 0.002840 2.254430 0.006250 
#    z 0.028850 0.006250 2.016010 
# 
# From -- ./inp_files/2602.got.cif
#   From: 2010.05.17/outbox.cif.g08.bks.cpg/sg1_2_cif.got.tgz:2602.got - 2010.05.17 20:27:59.
