data_PCOD9000813
_publ_section_title
;
Structure prediction by ZEFSAII (Michael W. Deem and Ramdas Pophale) SiO2 
 PCOD9000813
Probable space group: P 1
;
_chemical_formula_sum "Si O2"
_cell_formula_units_Z 8
_cell_length_a 13.055144
_cell_length_b 10.502700
_cell_length_c 12.806055
_cell_angle_alpha 144.317034
_cell_angle_beta 22.098045
_cell_angle_gamma 145.049566
_cell_volume 366.868485
_symmetry_space_group_name_H-M "P 1"
_symmetry_group_IT_number 1
_symmetry_cell_setting 'triclinic'
loop_
_space_group_symop_operation_xyz
x,y,z
loop_
_atom_site_type_symbol
_atom_site_label
_atom_site_fract_x
_atom_site_fract_y
_atom_site_fract_z
Si Si1 0.695850 0.961060 0.339190
Si Si2 0.330097 0.462208 0.790134
Si Si3 0.818216 0.136101 0.574388
Si Si4 0.449862 0.438723 0.150672
Si Si5 0.952303 0.748476 0.326060
Si Si6 0.167151 0.051731 0.794572
Si Si7 0.202203 0.713892 0.268899
Si Si8 0.713548 0.666541 0.854038
O O1 0.588290 0.682764 0.240180
O O2 0.712394 0.031790 0.491197
O O3 0.470506 0.047637 0.544638
O O4 0.994885 0.083890 0.081478
O O5 0.288958 0.523371 0.991492
O O6 0.147842 0.602746 0.996614
O O7 0.655050 0.561465 0.515518
O O8 0.200301 0.192996 0.748063
O O9 0.113128 0.341541 0.421112
O O10 0.885215 0.936975 0.444862
O O11 0.593931 0.242782 0.912818
O O12 0.516391 0.474911 0.987790
O O13 0.120005 0.856311 0.346542
O O14 0.962333 0.807386 0.789085
O O15 0.910079 0.615299 0.543244
O O16 0.496561 0.807637 0.117308
#
# Coordination Sequence:
#
# PCOD9000813 Si02
#       8
#     1   1   1   1   1   1   1   1
#     4  11  25  43  62 100 131 158 215 265 307 393
#     4  10  21  38  63  83 128 153 202 263 301 364
#     4  12  25  42  71  85 127 186 207 251 333 347
#     4  11  25  41  64  99 129 161 217 263 307 390
#     4  10  22  40  59  93 118 161 222 254 282 395
#     4  11  23  39  61  95 130 156 197 264 331 375
#     4  10  20  36  62  83 123 155 197 257 302 363
#     4  11  21  37  60  94 126 154 195 261 325 375
#
# _framework density 21.806180000000001
#
# number of rings (size 3 to 8) (size 9 to 14) (size 15 to 20)
#    0.750    0.500    1.250    6.000    5.250    0.000 
#    0.000    3.750    0.000    0.000    0.000    0.000 
#    0.000    0.000    0.000    0.000    0.000    0.000 
#
# Total GULP energy -44577.704210 kJ/mol
# GULP energy per Si atom -5572.213026 kJ/mol
# Density = 2.175655 g / cm^3
# Si number density = 21.806180 Si / 1000 Ang^3
#
#
#
# Elastic Constant Matrix: (Units=GPa)
#
#
# Indices 1 2 3 4 5 6 
#
# 1 54.9097 17.6259 1.9522 9.2087 -19.9803 -7.6019
# 2 17.6259 69.2196 4.4714 0.0360 -5.5974 3.2562
# 3 1.9522 4.4714 81.3952 -1.2652 -19.4020 12.5852
# 4 9.2087 0.0360 -1.2652 28.4639 -7.3245 -6.0334
# 5 -19.9803 -5.5974 -19.4020 -7.3245 31.7599 5.5443
# 6 -7.6019 3.2562 12.5852 -6.0334 5.5443 22.3757
#
#
#
# Elastic Compliance Matrix: (Units=1/GPa)
#
#
# Indices 1 2 3 4 5 6 
#
# 1 0.027038 -0.005908 0.003014 -0.003692 0.016383 0.003295
# 2 -0.005908 0.016147 -0.000107 0.001035 0.000004 -0.004019
# 3 0.003014 -0.000107 0.017766 0.001081 0.015148 -0.012415
# 4 -0.003692 0.001035 0.001081 0.039516 0.006402 0.007056
# 5 0.016383 0.000004 0.015148 0.006402 0.055123 -0.014886
# 6 0.003295 -0.004019 -0.012415 0.007056 -0.014886 0.058969
#
#
# Mechanical properties :
#
#
# Convention : Reuss Voigt Hill
#
# Bulk Modulus (GPa) = 18.19820 28.18037 23.18929
# Shear Modulus (GPa) = 20.93133 28.61823 24.77478
#
# Velocity S-wave (km/s) = 3.10155 3.62662 3.37432
# Velocity P-wave (km/s) = 4.60323 5.52157 5.08318
#
# Compressibility (1/GPa) = 0.05495048
#
# Stress axis : x y z
#
# Youngs Moduli (GPa) = 36.98542 61.93150 56.28616
#
# Poissons Ratio (x) = 0.36588 -0.16967
# Poissons Ratio (y) = 0.21850 0.00602
# Poissons Ratio (z) = -0.11149 0.00662
#
# Static dielectric constant tensor:
#      x y z
#    x 1.846820 0.018370 0.026930 
#    y 0.018370 1.884100 0.091090 
#    z 0.026930 0.091090 1.867740 
# 
# From -- ./inp_files/7317.got.cif
#   From: 2010.05.17/outbox.cif.g08.bks.cpg/sg1_4_cif.got.tgz:7317.got - 2010.05.17 20:27:59.
