data_PCOD9000201
_publ_section_title
;
Structure prediction by ZEFSAII (Michael W. Deem and Ramdas Pophale) SiO2 
 PCOD9000201
Probable space group: P 1
;
_chemical_formula_sum "Si O2"
_cell_formula_units_Z 8
_cell_length_a 7.868651
_cell_length_b 5.406899
_cell_length_c 12.659203
_cell_angle_alpha 45.715517
_cell_angle_beta 125.282207
_cell_angle_gamma 119.512476
_cell_volume 311.044381
_symmetry_space_group_name_H-M "P 1"
_symmetry_group_IT_number 1
_symmetry_cell_setting 'triclinic'
loop_
_space_group_symop_operation_xyz
x,y,z
loop_
_atom_site_type_symbol
_atom_site_label
_atom_site_fract_x
_atom_site_fract_y
_atom_site_fract_z
Si Si1 0.658330 0.750000 0.688560
Si Si2 0.304532 0.323298 0.573766
Si Si3 0.839169 0.991836 0.478917
Si Si4 0.444942 0.371998 0.159984
Si Si5 0.987073 0.094047 0.285119
Si Si6 0.606781 0.799411 0.882048
Si Si7 0.441286 0.376769 0.382292
Si Si8 0.983756 0.914658 0.105519
O O1 0.433487 0.518963 0.656100
O O2 0.709501 0.671055 0.850290
O O3 0.795380 0.727096 0.639062
O O4 0.627537 0.159549 0.542207
O O5 0.376719 0.514472 0.431742
O O6 0.054475 0.246295 0.510667
O O7 0.408056 0.967590 0.718455
O O8 0.632045 0.160910 0.325359
O O9 0.892437 0.868674 0.417521
O O10 0.440800 0.583836 0.208804
O O11 0.214211 0.151372 0.116961
O O12 0.520285 0.561927 0.021358
O O13 0.235532 0.088939 0.371697
O O14 0.975798 0.507912 0.184093
O O15 0.904529 0.947107 0.187556
O O16 0.805388 0.048095 0.930404
#
# Coordination Sequence:
#
# PCOD9000201 Si02
#       8
#     1   1   1   1   1   1   1   1
#     4  10  23  43  64  96 144 184 230 280 350 413
#     4  10  23  42  67  92 143 180 229 288 346 417
#     4  10  22  42  69 105 125 188 232 290 344 417
#     4  10  22  43  71 101 136 181 235 292 347 409
#     4  10  22  43  71 105 137 176 229 297 342 403
#     4  11  25  45  63 103 140 190 230 283 350 421
#     4   8  20  39  65  95 126 176 228 282 337 401
#     4  11  25  45  70 105 145 175 231 294 346 409
#
# _framework density 25.719802000000001
#
# number of rings (size 3 to 8) (size 9 to 14) (size 15 to 20)
#    0.000    2.000    1.250    0.000   12.250    3.000 
#   11.250    0.000    0.000    0.000    0.000    0.000 
#    0.000    0.000    0.000    0.000    0.000    0.000 
#
# Total GULP energy -44572.002635 kJ/mol
# GULP energy per Si atom -5571.500329 kJ/mol
# Density = 2.566126 g / cm^3
# Si number density = 25.719802 Si / 1000 Ang^3
#
#
#
# Elastic Constant Matrix: (Units=GPa)
#
#
# Indices 1 2 3 4 5 6 
#
# 1 119.2719 42.7505 76.4608 9.8456 -29.2786 20.3212
# 2 42.7505 111.5598 62.3162 29.8273 -19.1151 13.6843
# 3 76.4608 62.3162 192.7975 29.5645 -60.0152 9.5503
# 4 9.8456 29.8273 29.5645 58.4007 -4.4355 -1.7423
# 5 -29.2786 -19.1151 -60.0152 -4.4355 57.6213 12.5354
# 6 20.3212 13.6843 9.5503 -1.7423 12.5354 36.5652
#
#
#
# Elastic Compliance Matrix: (Units=1/GPa)
#
#
# Indices 1 2 3 4 5 6 
#
# 1 0.013344 -0.001816 -0.002836 0.000258 0.004912 -0.007667
# 2 -0.001816 0.012989 -0.001803 -0.005390 0.002037 -0.004336
# 3 -0.002836 -0.001803 0.010593 -0.003353 0.009599 -0.003967
# 4 0.000258 -0.005390 -0.003353 0.021335 -0.004675 0.005369
# 5 0.004912 0.002037 0.009599 -0.004675 0.034058 -0.017898
# 6 -0.007667 -0.004336 -0.003967 0.005369 -0.017898 0.040660
#
#
# Mechanical properties :
#
#
# Convention : Reuss Voigt Hill
#
# Bulk Modulus (GPa) = 41.63879 87.40934 64.52406
# Shear Modulus (GPa) = 32.49047 46.65757 39.57402
#
# Velocity S-wave (km/s) = 3.55807 4.26381 3.92683
# Velocity P-wave (km/s) = 5.75364 7.63539 6.76031
#
# Compressibility (1/GPa) = 0.02401607
#
# Stress axis : x y z
#
# Youngs Moduli (GPa) = 74.94069 76.99093 94.40625
#
# Poissons Ratio (x) = 0.13984 0.26769
# Poissons Ratio (y) = 0.13612 0.17018
# Poissons Ratio (z) = 0.21250 0.13878
#
# Static dielectric constant tensor:
#      x y z
#    x 2.242640 -0.131290 -0.009030 
#    y -0.131290 2.147380 -0.043630 
#    z -0.009030 -0.043630 2.024730 
# 
# From -- ./inp_files/6218.got.cif
#   From: 2010.05.17/outbox.cif.g08.bks.cpg/sg1_4_cif.got.tgz:6218.got - 2010.05.17 20:27:59.
