data_PCOD9000714
_publ_section_title
;
Structure prediction by ZEFSAII (Michael W. Deem and Ramdas Pophale) SiO2 
 PCOD9000714
Probable space group: P 1
;
_chemical_formula_sum "Si O2"
_cell_formula_units_Z 8
_cell_length_a 9.643852
_cell_length_b 7.194784
_cell_length_c 5.097194
_cell_angle_alpha 73.793643
_cell_angle_beta 89.242949
_cell_angle_gamma 76.661229
_cell_volume 329.959162
_symmetry_space_group_name_H-M "P 1"
_symmetry_group_IT_number 1
_symmetry_cell_setting 'triclinic'
loop_
_space_group_symop_operation_xyz
x,y,z
loop_
_atom_site_type_symbol
_atom_site_label
_atom_site_fract_x
_atom_site_fract_y
_atom_site_fract_z
Si Si1 0.800830 0.549370 0.675280
Si Si2 0.658251 0.995510 0.685204
Si Si3 0.794622 0.148361 0.120993
Si Si4 0.102205 0.892941 0.095948
Si Si5 0.568556 0.532583 0.309255
Si Si6 0.391747 0.909185 0.905762
Si Si7 0.404724 0.500041 0.831031
Si Si8 0.106527 0.626758 0.692091
O O1 0.712289 0.761066 0.705307
O O2 0.728662 0.521643 0.408900
O O3 0.965686 0.552117 0.659234
O O4 0.368835 0.740872 0.769002
O O5 0.723499 0.110491 0.412303
O O6 0.723629 0.041290 0.939655
O O7 0.487748 0.037277 0.714578
O O8 0.784320 0.371647 0.934982
O O9 0.505875 0.433007 0.103452
O O10 0.962064 0.040335 0.153882
O O11 0.146879 0.724179 0.383853
O O12 0.068495 0.786290 0.869697
O O13 0.495295 0.767705 0.169502
O O14 0.496605 0.454726 0.589530
O O15 0.235700 0.989799 0.996722
O O16 0.247838 0.462354 0.841048
#
# Coordination Sequence:
#
# PCOD9000714 Si02
#       8
#     1   1   1   1   1   1   1   1
#     4  12  25  45  74 106 148 185 237 298 360 420
#     4  12  25  45  71 102 143 194 231 295 366 413
#     4  12  28  44  69 111 144 183 247 290 350 440
#     4  11  21  42  69 105 135 185 242 287 344 440
#     4  10  19  35  63 103 130 173 234 279 343 412
#     4   9  21  36  72  95 136 180 237 278 359 404
#     4   9  18  34  60 104 126 174 237 273 334 435
#     4  11  21  39  70 102 136 186 233 282 362 414
#
# _framework density 24.245424
#
# number of rings (size 3 to 8) (size 9 to 14) (size 15 to 20)
#    0.750    0.500    5.000    0.750    0.000    5.000 
#    0.000    1.250    2.750    4.500    0.000    0.000 
#    0.000    0.000    0.000    0.000    0.000    0.000 
#
# Total GULP energy -44718.487920 kJ/mol
# GULP energy per Si atom -5589.810990 kJ/mol
# Density = 2.419024 g / cm^3
# Si number density = 24.245424 Si / 1000 Ang^3
#
#
#
# Elastic Constant Matrix: (Units=GPa)
#
#
# Indices 1 2 3 4 5 6 
#
# 1 254.3580 34.8464 72.9039 1.1540 -10.0311 -18.5523
# 2 34.8464 67.5647 22.5198 -11.2030 -3.1914 19.0068
# 3 72.9039 22.5198 149.1112 21.3940 2.8896 4.5218
# 4 1.1540 -11.2030 21.3940 24.5698 1.8429 -6.3330
# 5 -10.0311 -3.1914 2.8896 1.8429 49.0617 1.6442
# 6 -18.5523 19.0068 4.5218 -6.3330 1.6442 28.6618
#
#
#
# Elastic Compliance Matrix: (Units=1/GPa)
#
#
# Indices 1 2 3 4 5 6 
#
# 1 0.005770 -0.003583 -0.002841 0.002321 0.000791 0.007027
# 2 -0.003583 0.023453 -0.002645 0.009082 0.001127 -0.015513
# 3 -0.002841 -0.002645 0.010204 -0.010946 -0.000807 -0.004068
# 4 0.002321 0.009082 -0.010946 0.056849 -0.000754 0.009811
# 5 0.000791 0.001127 -0.000807 -0.000754 0.020743 -0.001465
# 6 0.007027 -0.015513 -0.004068 0.009811 -0.001465 0.052619
#
#
# Mechanical properties :
#
#
# Convention : Reuss Voigt Hill
#
# Bulk Modulus (GPa) = 46.97195 81.28601 64.12898
# Shear Modulus (GPa) = 25.65781 43.17623 34.41702
#
# Velocity S-wave (km/s) = 3.25661 4.22453 3.77175
# Velocity P-wave (km/s) = 5.79278 7.57593 6.74355
#
# Compressibility (1/GPa) = 0.02128930
#
# Stress axis : x y z
#
# Youngs Moduli (GPa) = 173.31246 42.63800 97.99666
#
# Poissons Ratio (x) = 0.15278 0.27844
# Poissons Ratio (y) = 0.62103 0.25916
# Poissons Ratio (z) = 0.49243 0.11276
#
# Static dielectric constant tensor:
#      x y z
#    x 1.967910 -0.057140 -0.005450 
#    y -0.057140 2.015470 0.028890 
#    z -0.005450 0.028890 1.907040 
# 
# From -- ./inp_files/1068.got.cif
#   From: 2010.05.17/outbox.cif.g08.bks.cpg/sg1_1_cif.got.tgz:1068.got - 2010.05.17 20:27:59.
