data_PCOD9000827
_publ_section_title
;
Structure prediction by ZEFSAII (Michael W. Deem and Ramdas Pophale) SiO2 
 PCOD9000827
Probable space group: P 1
;
_chemical_formula_sum "Si O2"
_cell_formula_units_Z 8
_cell_length_a 5.110246
_cell_length_b 8.478501
_cell_length_c 9.510364
_cell_angle_alpha 76.434186
_cell_angle_beta 79.265395
_cell_angle_gamma 54.346775
_cell_volume 324.839568
_symmetry_space_group_name_H-M "P 1"
_symmetry_group_IT_number 1
_symmetry_cell_setting 'triclinic'
loop_
_space_group_symop_operation_xyz
x,y,z
loop_
_atom_site_type_symbol
_atom_site_label
_atom_site_fract_x
_atom_site_fract_y
_atom_site_fract_z
Si Si1 0.633170 0.884850 0.041210
Si Si2 0.315752 0.578325 0.966719
Si Si3 0.889648 0.293922 0.615649
Si Si4 0.266494 0.951266 0.817840
Si Si5 0.851419 0.653311 0.451592
Si Si6 0.760793 0.154888 0.089127
Si Si7 0.153293 0.473838 0.721573
Si Si8 0.244493 0.826058 0.291034
O O1 0.461741 0.784197 0.139687
O O2 0.531012 0.078078 0.098994
O O3 0.004726 0.721320 0.060217
O O4 0.556710 0.941018 0.873402
O O5 0.191365 0.502476 0.871982
O O6 0.382038 0.725129 0.851617
O O7 0.591291 0.385241 0.057327
O O8 0.936537 0.429714 0.475973
O O9 0.516426 0.370757 0.643011
O O10 0.125643 0.060196 0.661011
O O11 0.007354 0.347519 0.734710
O O12 0.986218 0.063601 0.944636
O O13 0.491876 0.788560 0.398158
O O14 0.910878 0.663386 0.610174
O O15 0.094129 0.700835 0.352757
O O16 0.948785 0.047760 0.235853
#
# Coordination Sequence:
#
# PCOD9000827 Si02
#       8
#     1   1   1   1   1   1   1   1
#     4  10  23  38  65  98 133 168 211 268 329 379
#     4  11  23  38  64 106 135 159 213 269 337 384
#     4  10  20  38  64  95 127 167 216 257 320 381
#     4  10  22  36  61 100 135 164 211 260 337 388
#     4  10  20  37  68  96 119 178 224 254 310 383
#     4  10  21  39  65  96 130 174 206 270 324 382
#     4  10  21  37  66  96 129 167 209 265 323 379
#     4  11  20  41  65  97 124 171 230 253 308 392
#
# _framework density 24.627544
#
# number of rings (size 3 to 8) (size 9 to 14) (size 15 to 20)
#    0.750    1.000    3.750    0.750    3.500    2.000 
#    0.000    0.000    0.000   10.500    0.000    0.000 
#    0.000    0.000    0.000    0.000    0.000    0.000 
#
# Total GULP energy -44565.333047 kJ/mol
# GULP energy per Si atom -5570.666631 kJ/mol
# Density = 2.457149 g / cm^3
# Si number density = 24.627544 Si / 1000 Ang^3
#
#
#
# Elastic Constant Matrix: (Units=GPa)
#
#
# Indices 1 2 3 4 5 6 
#
# 1 142.7137 31.5829 51.8912 -28.5243 4.3729 1.0314
# 2 31.5829 85.3517 35.1868 -50.1373 -6.5966 -4.7739
# 3 51.8912 35.1868 131.2551 -52.4095 9.7779 -7.2099
# 4 -28.5243 -50.1373 -52.4095 49.9062 -1.7399 2.7464
# 5 4.3729 -6.5966 9.7779 -1.7399 54.9190 -5.6307
# 6 1.0314 -4.7739 -7.2099 2.7464 -5.6307 19.2755
#
#
#
# Elastic Compliance Matrix: (Units=1/GPa)
#
#
# Indices 1 2 3 4 5 6 
#
# 1 0.008579 -0.002579 -0.003120 -0.000859 -0.000705 -0.002348
# 2 -0.002579 0.034696 0.008597 0.042177 0.004935 0.007379
# 3 -0.003120 0.008597 0.016306 0.023694 -0.000368 0.004912
# 4 -0.000859 0.042177 0.023694 0.086499 0.004512 0.008348
# 5 -0.000705 0.004935 -0.000368 0.004512 0.019705 0.006236
# 6 -0.002348 0.007379 0.004912 0.008348 0.006236 0.056302
#
#
# Mechanical properties :
#
#
# Convention : Reuss Voigt Hill
#
# Bulk Modulus (GPa) = 15.29584 66.29360 40.79472
# Shear Modulus (GPa) = 21.00111 40.86412 30.93261
#
# Velocity S-wave (km/s) = 2.92335 4.07785 3.54788
# Velocity P-wave (km/s) = 4.19750 7.01062 5.77788
#
# Compressibility (1/GPa) = 0.06537727
#
# Stress axis : x y z
#
# Youngs Moduli (GPa) = 116.56379 28.82176 61.32884
#
# Poissons Ratio (x) = 0.07433 0.19133
# Poissons Ratio (y) = 0.30059 -0.52724
# Poissons Ratio (z) = 0.36365 -0.24778
#
# Static dielectric constant tensor:
#      x y z
#    x 2.099430 0.007300 -0.003430 
#    y 0.007300 2.055660 -0.011040 
#    z -0.003430 -0.011040 2.028450 
# 
# From -- ./inp_files/528.got.cif
#   From: 2010.05.17/outbox.cif.g08.bks.cpg/sg1_1_cif.got.tgz:528.got - 2010.05.17 20:27:59.
