data_PCOD9000715
_publ_section_title
;
Structure prediction by ZEFSAII (Michael W. Deem and Ramdas Pophale) SiO2 
 PCOD9000715
Probable space group: P 1
;
_chemical_formula_sum "Si O2"
_cell_formula_units_Z 8
_cell_length_a 7.354789
_cell_length_b 6.956722
_cell_length_c 8.881707
_cell_angle_alpha 79.304798
_cell_angle_beta 67.441130
_cell_angle_gamma 124.640197
_cell_volume 292.517209
_symmetry_space_group_name_H-M "P 1"
_symmetry_group_IT_number 1
_symmetry_cell_setting 'triclinic'
loop_
_space_group_symop_operation_xyz
x,y,z
loop_
_atom_site_type_symbol
_atom_site_label
_atom_site_fract_x
_atom_site_fract_y
_atom_site_fract_z
Si Si1 0.378840 0.097280 0.478190
Si Si2 0.211092 0.918642 0.963201
Si Si3 0.770412 0.098418 0.669492
Si Si4 0.784168 0.662063 0.731690
Si Si5 0.609329 0.493625 0.107928
Si Si6 0.803220 0.084049 0.324171
Si Si7 0.889884 0.680164 0.374676
Si Si8 0.927877 0.102691 0.950331
O O1 0.364870 0.216971 0.313082
O O2 0.497136 0.964524 0.436551
O O3 0.618092 0.385430 0.440882
O O4 0.085929 0.899694 0.678270
O O5 0.484135 0.014240 0.796164
O O6 0.909334 0.626321 0.046740
O O7 0.161739 0.832895 0.167672
O O8 0.682602 0.809381 0.716114
O O9 0.907962 0.231749 0.438277
O O10 0.926448 0.207139 0.770168
O O11 0.881252 0.618671 0.560279
O O12 0.590587 0.430729 0.948281
O O13 0.660121 0.762894 0.074934
O O14 0.828059 0.868125 0.350529
O O15 0.913396 0.206284 0.100294
O O16 0.181161 0.127783 0.897222
#
# Coordination Sequence:
#
# PCOD9000715 Si02
#       8
#     1   1   1   1   1   1   1   1
#     4  11  21  40  71  94 136 181 222 286 347 405
#     4   8  16  35  62  86 130 175 203 283 338 376
#     4  10  19  35  64  95 128 177 228 265 347 410
#     4  10  21  39  68  98 130 183 227 277 348 415
#     4   8  18  40  63  91 140 169 218 292 333 392
#     4  10  20  37  65  93 131 180 220 279 345 399
#     4   9  21  43  63  95 140 170 228 294 333 406
#     4   8  18  37  60  90 131 179 214 282 347 385
#
# _framework density 27.34882
#
# number of rings (size 3 to 8) (size 9 to 14) (size 15 to 20)
#    0.750    2.000    1.250    0.750    1.750    0.000 
#    2.250   15.000   24.750    0.000    0.000    0.000 
#    0.000    0.000    0.000    0.000    0.000    0.000 
#
# Total GULP energy -44592.781367 kJ/mol
# GULP energy per Si atom -5574.097671 kJ/mol
# Density = 2.728657 g / cm^3
# Si number density = 27.348820 Si / 1000 Ang^3
#
#
#
# Elastic Constant Matrix: (Units=GPa)
#
#
# Indices 1 2 3 4 5 6 
#
# 1 119.8669 23.3689 18.4105 12.4193 -9.9325 -8.0647
# 2 23.3689 65.6727 41.5017 6.5965 -2.8551 3.3423
# 3 18.4105 41.5017 190.7881 40.7700 30.9781 19.1068
# 4 12.4193 6.5965 40.7700 51.0314 7.6186 5.2317
# 5 -9.9325 -2.8551 30.9781 7.6186 51.7479 18.7771
# 6 -8.0647 3.3423 19.1068 5.2317 18.7771 38.2697
#
#
#
# Elastic Compliance Matrix: (Units=1/GPa)
#
#
# Indices 1 2 3 4 5 6 
#
# 1 0.009438 -0.003053 -0.000209 -0.002142 0.001364 0.001984
# 2 -0.003053 0.019376 -0.004674 0.001619 0.003800 -0.002088
# 3 -0.000209 -0.004674 0.008134 -0.005136 -0.004044 -0.001010
# 4 -0.002142 0.001619 -0.005136 0.024187 -0.000394 -0.001142
# 5 0.001364 0.003800 -0.004044 -0.000394 0.026204 -0.010829
# 6 0.001984 -0.002088 -0.001010 -0.001142 -0.010829 0.032704
#
#
# Mechanical properties :
#
#
# Convention : Reuss Voigt Hill
#
# Bulk Modulus (GPa) = 47.44789 60.32110 53.88450
# Shear Modulus (GPa) = 34.97949 47.74625 41.36287
#
# Velocity S-wave (km/s) = 3.58021 4.18284 3.89320
# Velocity P-wave (km/s) = 5.87174 6.74035 6.32098
#
# Compressibility (1/GPa) = 0.02107575
#
# Stress axis : x y z
#
# Youngs Moduli (GPa) = 105.95106 51.61000 122.94525
#
# Poissons Ratio (x) = 0.15756 0.02569
# Poissons Ratio (y) = 0.32346 0.57468
# Poissons Ratio (z) = 0.02214 0.24124
#
# Static dielectric constant tensor:
#      x y z
#    x 2.170250 0.084090 0.201970 
#    y 0.084090 2.238150 0.134830 
#    z 0.201970 0.134830 2.222150 
# 
# From -- ./inp_files/3011.got.cif
#   From: 2010.05.17/outbox.cif.g08.bks.cpg/sg1_2_cif.got.tgz:3011.got - 2010.05.17 20:27:59.
