data_PCOD9000722
_publ_section_title
;
Structure prediction by ZEFSAII (Michael W. Deem and Ramdas Pophale) SiO2 
 PCOD9000722
Probable space group: P 1
;
_chemical_formula_sum "Si O2"
_cell_formula_units_Z 8
_cell_length_a 9.263857
_cell_length_b 11.324209
_cell_length_c 5.160049
_cell_angle_alpha 62.805823
_cell_angle_beta 90.466577
_cell_angle_gamma 48.340074
_cell_volume 317.627478
_symmetry_space_group_name_H-M "P 1"
_symmetry_group_IT_number 1
_symmetry_cell_setting 'triclinic'
loop_
_space_group_symop_operation_xyz
x,y,z
loop_
_atom_site_type_symbol
_atom_site_label
_atom_site_fract_x
_atom_site_fract_y
_atom_site_fract_z
Si Si1 0.882740 0.987530 0.315550
Si Si2 0.201778 0.986977 0.120862
Si Si3 0.984418 0.374819 0.459850
Si Si4 0.290636 0.360158 0.709217
Si Si5 0.477165 0.471246 0.809161
Si Si6 0.502579 0.633261 0.139882
Si Si7 0.389922 0.055263 0.412455
Si Si8 0.701753 0.994457 0.804811
O O1 0.085677 0.939791 0.288957
O O2 0.868134 0.933072 0.652094
O O3 0.684114 0.231171 0.077628
O O4 0.825056 0.923985 0.149377
O O5 0.314066 0.867112 0.974295
O O6 0.383712 0.926747 0.370328
O O7 0.032572 0.221998 0.817248
O O8 0.065259 0.457207 0.501610
O O9 0.159825 0.227177 0.385019
O O10 0.738293 0.536380 0.202442
O O11 0.280636 0.505970 0.707534
O O12 0.477859 0.237114 0.610180
O O13 0.385501 0.180897 0.082598
O O14 0.515220 0.538288 0.497454
O O15 0.451961 0.572393 0.964753
O O16 0.586896 0.944165 0.728669
#
# Coordination Sequence:
#
# PCOD9000722 Si02
#       8
#     1   1   1   1   1   1   1   1
#     4  11  21  38  68  95 128 166 217 264 324 384
#     4  11  26  42  64 101 134 172 220 266 324 394
#     4  10  23  42  69  96 131 177 216 268 326 385
#     4   9  20  38  68 100 122 171 223 265 322 389
#     4  11  22  42  68  95 131 171 216 272 324 383
#     4  12  27  43  66  97 136 172 216 270 325 385
#     4  10  20  39  70  96 128 173 220 262 326 388
#     4  10  19  36  65 100 122 166 220 265 319 386
#
# _framework density 25.186737999999998
#
# number of rings (size 3 to 8) (size 9 to 14) (size 15 to 20)
#    0.000    1.500    3.750    2.250    7.000    0.000 
#    0.000    2.500    0.000    1.500    0.000    0.000 
#    0.000    0.000    0.000    0.000    0.000    0.000 
#
# Total GULP energy -44794.019585 kJ/mol
# GULP energy per Si atom -5599.252448 kJ/mol
# Density = 2.512941 g / cm^3
# Si number density = 25.186738 Si / 1000 Ang^3
#
#
#
# Elastic Constant Matrix: (Units=GPa)
#
#
# Indices 1 2 3 4 5 6 
#
# 1 183.1613 91.7131 24.1704 23.8780 21.9201 5.6478
# 2 91.7131 108.8913 52.8030 30.7634 22.2101 15.5051
# 3 24.1704 52.8030 63.3578 30.1520 6.1665 -0.2655
# 4 23.8780 30.7634 30.1520 50.1255 -0.8864 8.1256
# 5 21.9201 22.2101 6.1665 -0.8864 40.5063 17.8588
# 6 5.6478 15.5051 -0.2655 8.1256 17.8588 48.6808
#
#
#
# Elastic Compliance Matrix: (Units=1/GPa)
#
#
# Indices 1 2 3 4 5 6 
#
# 1 0.011244 -0.012521 0.007862 -0.003103 -0.002284 0.004082
# 2 -0.012521 0.032083 -0.021843 0.000545 -0.004200 -0.007435
# 3 0.007862 -0.021843 0.038508 -0.015142 -0.002796 0.009808
# 4 -0.003103 0.000545 -0.015142 0.031655 0.007948 -0.008096
# 5 -0.002284 -0.004200 -0.002796 0.007948 0.034251 -0.012304
# 6 0.004082 -0.007435 0.009808 -0.008096 -0.012304 0.028355
#
#
# Mechanical properties :
#
#
# Convention : Reuss Voigt Hill
#
# Bulk Modulus (GPa) = 34.68642 76.97594 55.83118
# Shear Modulus (GPa) = 20.94588 40.31079 30.62833
#
# Velocity S-wave (km/s) = 2.88692 4.00494 3.49097
# Velocity P-wave (km/s) = 4.99139 7.21210 6.20195
#
# Compressibility (1/GPa) = 0.02882973
#
# Stress axis : x y z
#
# Youngs Moduli (GPa) = 88.93772 31.16911 25.96874
#
# Poissons Ratio (x) = 0.39028 -0.20417
# Poissons Ratio (y) = 1.11362 0.56724
# Poissons Ratio (z) = -0.69923 0.68083
#
# Static dielectric constant tensor:
#      x y z
#    x 1.998420 0.013210 -0.005310 
#    y 0.013210 1.955040 -0.020160 
#    z -0.005310 -0.020160 2.017230 
# 
# From -- ./inp_files/1084.got.cif
#   From: 2010.05.17/outbox.cif.g08.bks.cpg/sg1_1_cif.got.tgz:1084.got - 2010.05.17 20:27:59.
