data_PCOD9000811
_publ_section_title
;
Structure prediction by ZEFSAII (Michael W. Deem and Ramdas Pophale) SiO2 
 PCOD9000811
Probable space group: P 1
;
_chemical_formula_sum "Si O2"
_cell_formula_units_Z 8
_cell_length_a 9.684367
_cell_length_b 7.543821
_cell_length_c 5.371757
_cell_angle_alpha 100.949697
_cell_angle_beta 101.295581
_cell_angle_gamma 48.760713
_cell_volume 288.401753
_symmetry_space_group_name_H-M "P 1"
_symmetry_group_IT_number 1
_symmetry_cell_setting 'triclinic'
loop_
_space_group_symop_operation_xyz
x,y,z
loop_
_atom_site_type_symbol
_atom_site_label
_atom_site_fract_x
_atom_site_fract_y
_atom_site_fract_z
Si Si1 0.559810 0.735090 0.793190
Si Si2 0.032291 0.963073 0.617648
Si Si3 0.508300 0.783330 0.278619
Si Si4 0.212206 0.708448 0.114215
Si Si5 0.681396 0.115015 0.297019
Si Si6 0.904914 0.565351 0.302900
Si Si7 0.499683 0.358554 0.783055
Si Si8 0.004012 0.385886 0.794433
O O1 0.486773 0.888058 0.562673
O O2 0.505547 0.569130 0.765737
O O3 0.780502 0.557896 0.809657
O O4 0.474420 0.908375 0.042811
O O5 0.823144 0.130430 0.494127
O O6 0.088283 0.126406 0.672347
O O7 0.133004 0.764805 0.380966
O O8 0.062311 0.893053 0.901453
O O9 0.374655 0.722525 0.216387
O O10 0.733045 0.563312 0.281536
O O11 0.317511 0.474694 0.918308
O O12 0.523210 0.245212 0.491480
O O13 0.791561 0.837029 0.268352
O O14 0.643965 0.196010 0.016987
O O15 0.005216 0.508201 0.585409
O O16 0.051133 0.401015 0.095624
#
# Coordination Sequence:
#
# PCOD9000811 Si02
#       8
#     1   1   1   1   1   1   1   1
#     4   9  16  30  57  89 104 145 199 260 287 324
#     4  12  24  38  64  98 124 159 209 257 314 370
#     4   9  18  34  59  83 117 152 202 245 304 346
#     4  11  23  38  62  95 128 159 201 264 314 359
#     4  12  24  39  67  96 122 162 214 255 307 372
#     4  10  22  39  63  92 122 160 208 262 301 358
#     4  11  21  38  63  91 123 162 207 259 301 358
#     4  10  20  36  61  88 122 157 204 258 302 351
#
# _framework density 27.739083999999998
#
# number of rings (size 3 to 8) (size 9 to 14) (size 15 to 20)
#    0.000    1.500    1.250    6.000    5.250    0.000 
#    0.000    0.000   16.500    0.000    0.000    0.000 
#    0.000    0.000    0.000    0.000    0.000    0.000 
#
# Total GULP energy -44583.608388 kJ/mol
# GULP energy per Si atom -5572.951048 kJ/mol
# Density = 2.767595 g / cm^3
# Si number density = 27.739084 Si / 1000 Ang^3
#
#
#
# Elastic Constant Matrix: (Units=GPa)
#
#
# Indices 1 2 3 4 5 6 
#
# 1 73.2496 20.5880 35.1179 1.3795 0.1395 -5.1553
# 2 20.5880 82.9411 26.8638 7.1911 -8.7546 4.9538
# 3 35.1179 26.8638 253.9833 -3.8284 -44.6721 -4.5557
# 4 1.3795 7.1911 -3.8284 52.0849 -7.0914 -7.9049
# 5 0.1395 -8.7546 -44.6721 -7.0914 37.0367 3.3905
# 6 -5.1553 4.9538 -4.5557 -7.9049 3.3905 36.2967
#
#
#
# Elastic Compliance Matrix: (Units=1/GPa)
#
#
# Indices 1 2 3 4 5 6 
#
# 1 0.016152 -0.003790 -0.002548 -0.000251 -0.004339 0.002842
# 2 -0.003790 0.013811 -0.000588 -0.001992 0.002478 -0.003162
# 3 -0.002548 -0.000588 0.005589 0.001514 0.006892 0.000106
# 4 -0.000251 -0.001992 0.001514 0.020954 0.004953 0.004527
# 5 -0.004339 0.002478 0.006892 0.004953 0.037090 -0.002475
# 6 0.002842 -0.003162 0.000106 0.004527 -0.002475 0.029616
#
#
# Mechanical properties :
#
#
# Convention : Reuss Voigt Hill
#
# Bulk Modulus (GPa) = 46.08335 63.92372 55.00353
# Shear Modulus (GPa) = 34.65087 46.92394 40.78740
#
# Velocity S-wave (km/s) = 3.53820 4.11739 3.83873
# Velocity P-wave (km/s) = 5.77417 6.76007 6.28647
#
# Compressibility (1/GPa) = 0.02169981
#
# Stress axis : x y z
#
# Youngs Moduli (GPa) = 61.91215 72.40612 178.93441
#
# Poissons Ratio (x) = 0.27441 0.45599
# Poissons Ratio (y) = 0.23464 0.10515
# Poissons Ratio (z) = 0.15778 0.04255
#
# Static dielectric constant tensor:
#      x y z
#    x 2.330380 -0.076010 0.062020 
#    y -0.076010 2.184800 0.006200 
#    z 0.062020 0.006200 2.282970 
# 
# From -- ./inp_files/2232.got.cif
#   From: 2010.05.17/outbox.cif.g08.bks.cpg/sg1_2_cif.got.tgz:2232.got - 2010.05.17 20:27:59.
