data_PCOD9000971
_publ_section_title
;
Structure prediction by ZEFSAII (Michael W. Deem and Ramdas Pophale) SiO2 
 PCOD9000971
Probable space group: P 1
;
_chemical_formula_sum "Si O2"
_cell_formula_units_Z 8
_cell_length_a 9.828407
_cell_length_b 8.849692
_cell_length_c 9.044508
_cell_angle_alpha 147.128984
_cell_angle_beta 119.857877
_cell_angle_gamma 48.305877
_cell_volume 315.210854
_symmetry_space_group_name_H-M "P 1"
_symmetry_group_IT_number 1
_symmetry_cell_setting 'triclinic'
loop_
_space_group_symop_operation_xyz
x,y,z
loop_
_atom_site_type_symbol
_atom_site_label
_atom_site_fract_x
_atom_site_fract_y
_atom_site_fract_z
Si Si1 0.141990 0.363360 0.402640
Si Si2 0.210884 0.887632 0.814322
Si Si3 0.695842 0.369133 0.425359
Si Si4 0.399849 0.567004 0.211969
Si Si5 0.632482 0.371729 0.720828
Si Si6 0.562936 0.841910 0.304841
Si Si7 0.883703 0.733539 0.844816
Si Si8 0.187099 0.224358 0.776148
O O1 0.137126 0.651438 0.541787
O O2 0.016432 0.552682 0.630319
O O3 0.352283 0.110755 0.362440
O O4 0.099926 0.137547 0.093073
O O5 0.419478 0.638942 0.779719
O O6 0.207352 0.098289 0.848776
O O7 0.499249 0.443502 0.322398
O O8 0.729256 0.254651 0.518688
O O9 0.710950 0.688553 0.690053
O O10 0.831065 0.092520 0.156186
O O11 0.535575 0.627938 0.236024
O O12 0.228122 0.927302 0.447070
O O13 0.330725 0.343399 0.924080
O O14 0.645386 0.068720 0.566945
O O15 0.677879 0.588174 0.027597
O O16 0.989686 0.521564 0.871234
#
# Coordination Sequence:
#
# PCOD9000971 Si02
#       8
#     1   1   1   1   1   1   1   1
#     4  10  21  39  64  94 127 167 212 265 325 374
#     4  10  21  38  66  96 122 162 222 275 305 369
#     4  12  26  44  64  96 138 175 207 262 337 393
#     4  12  24  42  68  99 128 167 228 268 309 381
#     4  10  21  39  64  94 127 167 212 265 325 374
#     4  10  21  38  66  96 122 162 222 275 305 369
#     4  12  26  44  64  96 138 175 207 262 337 393
#     4  12  24  42  68  99 128 167 228 268 309 381
#
# _framework density 25.379835
#
# number of rings (size 3 to 8) (size 9 to 14) (size 15 to 20)
#    0.000    1.000    2.500    4.500    7.000    0.000 
#    0.000    7.500    0.000    0.000    0.000    0.000 
#    0.000    0.000    0.000    0.000    0.000    0.000 
#
# Total GULP energy -44752.718654 kJ/mol
# GULP energy per Si atom -5594.089832 kJ/mol
# Density = 2.532207 g / cm^3
# Si number density = 25.379835 Si / 1000 Ang^3
#
#
#
# Elastic Constant Matrix: (Units=GPa)
#
#
# Indices 1 2 3 4 5 6 
#
# 1 60.7598 11.7226 40.3451 2.1522 -1.6347 17.0402
# 2 11.7226 64.9586 23.9787 14.1259 7.2853 11.5702
# 3 40.3451 23.9787 150.0090 9.4129 -13.3877 11.9463
# 4 2.1522 14.1259 9.4129 20.3766 5.9400 2.6901
# 5 -1.6347 7.2853 -13.3877 5.9400 43.0527 -4.1480
# 6 17.0402 11.5702 11.9463 2.6901 -4.1480 37.3098
#
#
#
# Elastic Compliance Matrix: (Units=1/GPa)
#
#
# Indices 1 2 3 4 5 6 
#
# 1 0.022621 -0.000788 -0.005591 0.002446 -0.001921 -0.008687
# 2 -0.000788 0.019947 -0.002165 -0.011264 -0.002972 -0.004651
# 3 -0.005591 -0.002165 0.008948 -0.003182 0.003469 0.000975
# 4 0.002446 -0.011264 -0.003182 0.060526 -0.007515 -0.001805
# 5 -0.001921 -0.002972 0.003469 -0.007515 0.026172 0.004140
# 6 -0.008687 -0.004651 0.000975 -0.001805 0.004140 0.032491
#
#
# Mechanical properties :
#
#
# Convention : Reuss Voigt Hill
#
# Bulk Modulus (GPa) = 29.04560 47.53557 38.29059
# Shear Modulus (GPa) = 25.09203 33.45988 29.27595
#
# Velocity S-wave (km/s) = 3.14771 3.63487 3.40002
# Velocity P-wave (km/s) = 4.96789 6.03214 5.52570
#
# Compressibility (1/GPa) = 0.03442862
#
# Stress axis : x y z
#
# Youngs Moduli (GPa) = 44.20740 50.13275 111.76076
#
# Poissons Ratio (x) = 0.03948 0.62487
# Poissons Ratio (y) = 0.03482 0.24193
# Poissons Ratio (z) = 0.24717 0.10852
#
# Static dielectric constant tensor:
#      x y z
#    x 2.038840 -0.002610 -0.030570 
#    y -0.002610 1.989210 -0.000480 
#    z -0.030570 -0.000480 1.932630 
# 
# From -- ./inp_files/3459.got.cif
#   From: 2010.05.17/outbox.cif.g08.bks.cpg/sg1_2_cif.got.tgz:3459.got - 2010.05.17 20:27:59.
