data_PCOD9000933
_publ_section_title
;
Structure prediction by ZEFSAII (Michael W. Deem and Ramdas Pophale) SiO2 
 PCOD9000933
Probable space group: P 1
;
_chemical_formula_sum "Si O2"
_cell_formula_units_Z 8
_cell_length_a 13.728544
_cell_length_b 8.786144
_cell_length_c 11.315620
_cell_angle_alpha 138.535148
_cell_angle_beta 30.337589
_cell_angle_gamma 148.374914
_cell_volume 360.955084
_symmetry_space_group_name_H-M "P 1"
_symmetry_group_IT_number 1
_symmetry_cell_setting 'triclinic'
loop_
_space_group_symop_operation_xyz
x,y,z
loop_
_atom_site_type_symbol
_atom_site_label
_atom_site_fract_x
_atom_site_fract_y
_atom_site_fract_z
Si Si1 0.434380 0.034760 0.946310
Si Si2 0.640059 0.243093 0.298899
Si Si3 0.791039 0.039796 0.239909
Si Si4 0.740901 0.066162 0.861152
Si Si5 0.932198 0.889330 0.390041
Si Si6 0.274420 0.682828 0.685567
Si Si7 0.168238 0.921884 0.730363
Si Si8 0.917647 0.343749 0.518495
O O1 0.566338 0.054733 0.939380
O O2 0.657609 0.280486 0.773484
O O3 0.321575 0.753214 0.816435
O O4 0.215388 0.046787 0.206757
O O5 0.744842 0.176066 0.259522
O O6 0.813732 0.578955 0.275500
O O7 0.392822 0.177047 0.567255
O O8 0.622966 0.048139 0.097646
O O9 0.939902 0.292408 0.329735
O O10 0.528590 0.775864 0.417644
O O11 0.946669 0.934731 0.977623
O O12 0.787324 0.842871 0.635508
O O13 0.020391 0.366500 0.745821
O O14 0.907177 0.092382 0.451193
O O15 0.239356 0.896550 0.773983
O O16 0.105496 0.642432 0.562220
#
# Coordination Sequence:
#
# PCOD9000933 Si02
#       8
#     1   1   1   1   1   1   1   1
#     4  10  21  38  68 101 131 169 223 279 331 380
#     4  11  27  44  63 102 148 172 220 284 342 400
#     4  10  25  42  70  97 138 182 217 282 340 395
#     4  11  24  43  67 102 135 176 228 276 332 403
#     4  11  23  43  69 101 136 177 225 285 329 400
#     4  10  20  44  68 102 132 167 236 276 320 404
#     4  11  23  45  69  98 138 181 222 275 341 406
#     4  10  23  41  70 103 126 176 239 271 325 406
#
# _framework density 22.163423000000002
#
# number of rings (size 3 to 8) (size 9 to 14) (size 15 to 20)
#    0.000    1.500    3.750    0.750    1.750    6.000 
#    4.500    0.000    0.000    0.000    0.000    0.000 
#    0.000    0.000    0.000    0.000    0.000    0.000 
#
# Total GULP energy -44646.395376 kJ/mol
# GULP energy per Si atom -5580.799422 kJ/mol
# Density = 2.211298 g / cm^3
# Si number density = 22.163423 Si / 1000 Ang^3
#
#
#
# Elastic Constant Matrix: (Units=GPa)
#
#
# Indices 1 2 3 4 5 6 
#
# 1 118.6222 21.1227 45.9434 9.2522 16.4861 21.8683
# 2 21.1227 50.5243 11.3791 0.9609 -0.0729 12.5101
# 3 45.9434 11.3791 143.7335 2.2987 -10.2774 -5.0220
# 4 9.2522 0.9609 2.2987 25.1542 14.8663 1.0268
# 5 16.4861 -0.0729 -10.2774 14.8663 42.1577 1.4064
# 6 21.8683 12.5101 -5.0220 1.0268 1.4064 22.1918
#
#
#
# Elastic Compliance Matrix: (Units=1/GPa)
#
#
# Indices 1 2 3 4 5 6 
#
# 1 0.014253 -0.001242 -0.005394 -0.000418 -0.006271 -0.014149
# 2 -0.001242 0.023886 -0.001900 -0.000065 0.000510 -0.012701
# 3 -0.005394 -0.001900 0.009502 -0.002023 0.004858 0.008322
# 4 -0.000418 -0.000065 -0.002023 0.050931 -0.018249 -0.001209
# 5 -0.006271 0.000510 0.004858 -0.018249 0.033603 0.005706
# 6 -0.014149 -0.012701 0.008322 -0.001209 0.005706 0.067742
#
#
# Mechanical properties :
#
#
# Convention : Reuss Voigt Hill
#
# Bulk Modulus (GPa) = 32.71160 52.19671 42.45415
# Shear Modulus (GPa) = 22.00912 33.52973 27.76942
#
# Velocity S-wave (km/s) = 3.15467 3.89374 3.54353
# Velocity P-wave (km/s) = 5.29722 6.61944 5.99489
#
# Compressibility (1/GPa) = 0.03057020
#
# Stress axis : x y z
#
# Youngs Moduli (GPa) = 70.16192 41.86475 105.23788
#
# Poissons Ratio (x) = 0.05198 0.56761
# Poissons Ratio (y) = 0.08712 0.19999
# Poissons Ratio (z) = 0.37842 0.07956
#
# Static dielectric constant tensor:
#      x y z
#    x 1.807100 0.044670 0.033450 
#    y 0.044670 1.849170 -0.012900 
#    z 0.033450 -0.012900 1.842000 
# 
# From -- ./inp_files/5594.got.cif
#   From: 2010.05.17/outbox.cif.g08.bks.cpg/sg1_3_cif.got.tgz:5594.got - 2010.05.17 20:27:59.
