data_PCOD9000260
_publ_section_title
;
Structure prediction by ZEFSAII (Michael W. Deem and Ramdas Pophale) SiO2 
 PCOD9000260
Probable space group: P 1
;
_chemical_formula_sum "Si O2"
_cell_formula_units_Z 8
_cell_length_a 11.303803
_cell_length_b 5.298764
_cell_length_c 14.242338
_cell_angle_alpha 63.940156
_cell_angle_beta 149.869106
_cell_angle_gamma 123.145380
_cell_volume 357.394499
_symmetry_space_group_name_H-M "P 1"
_symmetry_group_IT_number 1
_symmetry_cell_setting 'triclinic'
loop_
_space_group_symop_operation_xyz
x,y,z
loop_
_atom_site_type_symbol
_atom_site_label
_atom_site_fract_x
_atom_site_fract_y
_atom_site_fract_z
Si Si1 0.586880 0.370910 0.698340
Si Si2 0.131174 0.712108 0.790446
Si Si3 0.586940 0.473559 0.372183
Si Si4 0.159443 0.694604 0.034061
Si Si5 0.425632 0.936894 0.480780
Si Si6 0.827282 0.727377 0.133626
Si Si7 0.479823 0.382835 0.104121
Si Si8 0.559659 0.203875 0.904020
O O1 0.488539 0.637386 0.564631
O O2 0.449398 0.195495 0.725443
O O3 0.558225 0.148473 0.627031
O O4 0.878275 0.539807 0.905093
O O5 0.860003 0.661625 0.570882
O O6 0.334115 0.035371 0.849050
O O7 0.108326 0.644836 0.895783
O O8 0.273418 0.489459 0.892940
O O9 0.346135 0.546693 0.229061
O O10 0.591775 0.542634 0.253480
O O11 0.525568 0.135861 0.423263
O O12 0.318315 0.050140 0.085220
O O13 0.126757 0.845506 0.306459
O O14 0.716236 0.474271 0.180847
O O15 0.698223 0.542558 0.981985
O O16 0.738020 0.004242 0.052962
#
# Coordination Sequence:
#
# PCOD9000260 Si02
#       8
#     1   1   1   1   1   1   1   1
#     4  12  27  44  69  99 138 179 228 278 333 400
#     4  10  22  45  65  99 136 171 229 274 338 400
#     4  11  25  41  70 100 133 182 221 279 338 398
#     4  11  23  43  68  97 137 174 227 277 337 398
#     4  12  27  45  67 101 138 178 228 280 328 406
#     4  11  24  46  69  98 137 174 229 274 339 402
#     4  10  24  41  69  98 134 179 219 284 333 402
#     4  11  24  45  71  96 135 183 217 282 338 396
#
# _framework density 22.384226999999999
#
# number of rings (size 3 to 8) (size 9 to 14) (size 15 to 20)
#    0.000    1.000    2.500    3.000    7.000    2.000 
#    0.000    0.000    0.000    0.000    0.000    0.000 
#    0.000    0.000    0.000    0.000    0.000    0.000 
#
# Total GULP energy -44666.589385 kJ/mol
# GULP energy per Si atom -5583.323673 kJ/mol
# Density = 2.233328 g / cm^3
# Si number density = 22.384227 Si / 1000 Ang^3
#
#
#
# Elastic Constant Matrix: (Units=GPa)
#
#
# Indices 1 2 3 4 5 6 
#
# 1 70.1571 -7.2861 9.0887 9.3513 -7.3785 5.6913
# 2 -7.2861 47.8678 6.0477 4.8847 -1.0443 0.1722
# 3 9.0887 6.0477 115.4383 8.0924 14.1261 -3.2739
# 4 9.3513 4.8847 8.0924 31.0467 7.2252 2.2452
# 5 -7.3785 -1.0443 14.1261 7.2252 30.9336 2.3702
# 6 5.6913 0.1722 -3.2739 2.2452 2.3702 34.2122
#
#
#
# Elastic Compliance Matrix: (Units=1/GPa)
#
#
# Indices 1 2 3 4 5 6 
#
# 1 0.016693 0.003603 -0.001962 -0.006432 0.006734 -0.003027
# 2 0.003603 0.022220 -0.001556 -0.004942 0.003534 -0.000781
# 3 -0.001962 -0.001556 0.009586 -0.000647 -0.004872 0.001632
# 4 -0.006432 -0.004942 -0.000647 0.037498 -0.010108 -0.000728
# 5 0.006734 0.003534 -0.004872 -0.010108 0.038917 -0.003637
# 6 -0.003027 -0.000781 0.001632 -0.000728 -0.003637 0.030193
#
#
# Mechanical properties :
#
#
# Convention : Reuss Voigt Hill
#
# Bulk Modulus (GPa) = 20.54677 27.68487 24.11582
# Shear Modulus (GPa) = 29.21230 34.27934 31.74582
#
# Velocity S-wave (km/s) = 3.61645 3.91756 3.77002
# Velocity P-wave (km/s) = 5.16114 5.73219 5.45414
#
# Compressibility (1/GPa) = 0.04866944
#
# Stress axis : x y z
#
# Youngs Moduli (GPa) = 59.90508 45.00444 104.31377
#
# Poissons Ratio (x) = -0.16215 0.20466
# Poissons Ratio (y) = -0.21583 0.16231
# Poissons Ratio (z) = 0.11753 0.07002
#
# Static dielectric constant tensor:
#      x y z
#    x 1.921630 -0.039800 -0.005240 
#    y -0.039800 1.855290 0.017850 
#    z -0.005240 0.017850 1.795400 
# 
# From -- ./inp_files/421.got.cif
#   From: 2010.05.17/outbox.cif.g08.bks.cpg/sg1_1_cif.got.tgz:421.got - 2010.05.17 20:27:59.
