data_PCOD9000950
_publ_section_title
;
Structure prediction by ZEFSAII (Michael W. Deem and Ramdas Pophale) SiO2 
 PCOD9000950
Probable space group: P 1
;
_chemical_formula_sum "Si O2"
_cell_formula_units_Z 8
_cell_length_a 13.919781
_cell_length_b 10.191689
_cell_length_c 5.368851
_cell_angle_alpha 71.559539
_cell_angle_beta 59.203166
_cell_angle_gamma 31.489518
_cell_volume 329.237541
_symmetry_space_group_name_H-M "P 1"
_symmetry_group_IT_number 1
_symmetry_cell_setting 'triclinic'
loop_
_space_group_symop_operation_xyz
x,y,z
loop_
_atom_site_type_symbol
_atom_site_label
_atom_site_fract_x
_atom_site_fract_y
_atom_site_fract_z
Si Si1 0.254940 0.311330 0.595350
Si Si2 0.373798 0.782189 0.250316
Si Si3 0.840959 0.654163 0.145812
Si Si4 0.838766 0.782625 0.573683
Si Si5 0.993924 0.904853 0.218089
Si Si6 0.266346 0.593450 0.544362
Si Si7 0.761638 0.434309 0.205849
Si Si8 0.355122 0.901885 0.696850
O O1 0.360836 0.344316 0.506101
O O2 0.090859 0.498327 0.470037
O O3 0.384628 0.035249 0.561417
O O4 0.080788 0.460903 0.948298
O O5 0.404804 0.586016 0.345855
O O6 0.599543 0.620589 0.077444
O O7 0.242900 0.970435 0.552140
O O8 0.264848 0.943464 0.047755
O O9 0.765803 0.761543 0.459533
O O10 0.853804 0.484789 0.129639
O O11 0.738107 0.848283 0.935217
O O12 0.823546 0.958968 0.413544
O O13 0.098866 0.788984 0.422810
O O14 0.899614 0.155385 0.157415
O O15 0.154949 0.709664 0.892669
O O16 0.582966 0.590017 0.559016
#
# Coordination Sequence:
#
# PCOD9000950 Si02
#       8
#     1   1   1   1   1   1   1   1
#     4   9  22  39  64  91 116 155 205 253 292 350
#     4  10  25  43  56  93 124 162 201 237 310 358
#     4  10  21  37  62  89 118 153 204 245 296 346
#     4   9  20  38  61  91 115 149 203 250 295 339
#     4  11  22  41  64  92 120 155 206 251 297 355
#     4  11  23  40  66  91 116 160 205 252 295 351
#     4  10  27  39  61  91 128 160 196 244 310 358
#     4  10  24  41  60  88 127 160 198 242 305 361
#
# _framework density 24.298563999999999
#
# number of rings (size 3 to 8) (size 9 to 14) (size 15 to 20)
#    1.500    0.500    1.250    0.750    8.750    0.000 
#    2.250    0.000    0.000    0.000    0.000    0.000 
#    0.000    0.000    0.000    0.000    0.000    0.000 
#
# Total GULP energy -44598.929729 kJ/mol
# GULP energy per Si atom -5574.866216 kJ/mol
# Density = 2.424326 g / cm^3
# Si number density = 24.298564 Si / 1000 Ang^3
#
#
#
# Elastic Constant Matrix: (Units=GPa)
#
#
# Indices 1 2 3 4 5 6 
#
# 1 122.0308 34.9508 38.2360 -7.8462 6.5850 41.7228
# 2 34.9508 108.1113 23.7687 -5.9023 0.3832 35.6525
# 3 38.2360 23.7687 118.0332 -14.2426 31.6385 16.2468
# 4 -7.8462 -5.9023 -14.2426 16.9176 11.6946 -8.7847
# 5 6.5850 0.3832 31.6385 11.6946 40.7232 -5.0379
# 6 41.7228 35.6525 16.2468 -8.7847 -5.0379 43.7102
#
#
#
# Elastic Compliance Matrix: (Units=1/GPa)
#
#
# Indices 1 2 3 4 5 6 
#
# 1 0.013020 0.000262 -0.002341 -0.001148 -0.001465 -0.012170
# 2 0.000262 0.012889 -0.001755 -0.002854 0.000708 -0.010603
# 3 -0.002341 -0.001755 0.019928 0.031744 -0.024222 -0.000153
# 4 -0.001148 -0.002854 0.031744 0.132326 -0.061067 0.011181
# 5 -0.001465 0.000708 -0.024222 -0.061067 0.061719 0.004665
# 6 -0.012170 -0.010603 -0.000153 0.011181 0.004665 0.045985
#
#
# Mechanical properties :
#
#
# Convention : Reuss Voigt Hill
#
# Bulk Modulus (GPa) = 26.19982 60.23180 43.21581
# Shear Modulus (GPa) = 16.32611 37.01820 26.67215
#
# Velocity S-wave (km/s) = 2.59491 3.90740 3.31673
# Velocity P-wave (km/s) = 4.44791 6.72303 5.70013
#
# Compressibility (1/GPa) = 0.03816820
#
# Stress axis : x y z
#
# Youngs Moduli (GPa) = 76.80757 77.58486 50.18018
#
# Poissons Ratio (x) = -0.02030 0.11747
# Poissons Ratio (y) = -0.02010 0.08807
# Poissons Ratio (z) = 0.17980 0.13617
#
# Static dielectric constant tensor:
#      x y z
#    x 1.971440 -0.025200 -0.010110 
#    y -0.025200 1.918550 0.026130 
#    z -0.010110 0.026130 1.983850 
# 
# From -- ./inp_files/2701.got.cif
#   From: 2010.05.17/outbox.cif.g08.bks.cpg/sg1_2_cif.got.tgz:2701.got - 2010.05.17 20:27:59.
