data_PCOD9000002
_publ_section_title
;
Structure prediction by ZEFSAII (Michael W. Deem and Ramdas Pophale) SiO2 
 PCOD9000002
Probable space group: P 1
;
_chemical_formula_sum "Si O2"
_cell_formula_units_Z 8
_cell_length_a 4.716506
_cell_length_b 9.099062
_cell_length_c 11.791866
_cell_angle_alpha 35.798988
_cell_angle_beta 104.531487
_cell_angle_gamma 97.618562
_cell_volume 284.288070
_symmetry_space_group_name_H-M "P 1"
_symmetry_group_IT_number 1
_symmetry_cell_setting 'triclinic'
loop_
_space_group_symop_operation_xyz
x,y,z
loop_
_atom_site_type_symbol
_atom_site_label
_atom_site_fract_x
_atom_site_fract_y
_atom_site_fract_z
Si Si1 0.450230 0.213680 0.900640
Si Si2 0.343726 0.906129 0.396158
Si Si3 0.663399 0.606236 0.855181
Si Si4 0.899529 0.044603 0.876700
Si Si5 0.770141 0.520662 0.281247
Si Si6 0.876941 0.048007 0.447362
Si Si7 0.746474 0.734663 0.363619
Si Si8 0.217187 0.676688 0.970978
O O1 0.546508 0.420171 0.867708
O O2 0.583900 0.160174 0.821577
O O3 0.104295 0.238609 0.829022
O O4 0.532428 0.952999 0.141244
O O5 0.930337 0.279884 0.385193
O O6 0.054118 0.852201 0.330213
O O7 0.166634 0.938791 0.476277
O O8 0.589596 0.701922 0.488201
O O9 0.771180 0.831437 0.651413
O O10 0.425552 0.701706 0.867584
O O11 0.969400 0.500244 0.017515
O O12 0.924660 0.769891 0.115509
O O13 0.021952 0.932187 0.838938
O O14 0.763958 0.496831 0.430779
O O15 0.449097 0.575603 0.155219
O O16 0.575727 0.116938 0.296489
#
# Coordination Sequence:
#
# PCOD9000002 Si02
#       8
#     1   1   1   1   1   1   1   1
#     4  11  23  39  68  96 138 167 222 278 330 385
#     4  10  24  41  66  95 132 177 222 272 329 394
#     4  12  27  45  66 101 140 184 215 272 341 403
#     4  11  21  43  66 102 126 173 224 285 321 380
#     4  11  25  42  74 102 137 168 226 284 334 392
#     4  11  27  46  65  98 142 178 218 275 338 403
#     4  10  21  39  68 100 126 169 230 282 327 378
#     4  12  24  43  69 104 133 176 229 270 334 401
#
# _framework density 28.140471999999999
#
# number of rings (size 3 to 8) (size 9 to 14) (size 15 to 20)
#    0.000    1.000    3.750    3.000    7.000    0.000 
#    0.000    7.500    0.000    0.000    0.000    0.000 
#    0.000    0.000    0.000    0.000    0.000    0.000 
#
# Total GULP energy -44701.937338 kJ/mol
# GULP energy per Si atom -5587.742167 kJ/mol
# Density = 2.807642 g / cm^3
# Si number density = 28.140472 Si / 1000 Ang^3
#
#
#
# Elastic Constant Matrix: (Units=GPa)
#
#
# Indices 1 2 3 4 5 6 
#
# 1 202.0401 72.1982 38.7454 17.3854 -49.5912 5.3744
# 2 72.1982 220.6500 49.5987 24.0845 -25.4431 -13.7241
# 3 38.7454 49.5987 73.3982 18.5856 -20.6291 -19.2220
# 4 17.3854 24.0845 18.5856 49.2578 -7.2074 0.6217
# 5 -49.5912 -25.4431 -20.6291 -7.2074 46.8862 11.5472
# 6 5.3744 -13.7241 -19.2220 0.6217 11.5472 74.2115
#
#
#
# Elastic Compliance Matrix: (Units=1/GPa)
#
#
# Indices 1 2 3 4 5 6 
#
# 1 0.007588 -0.001420 -0.001582 -0.000321 0.007081 -0.002321
# 2 -0.001420 0.005784 -0.002663 -0.001306 0.000149 0.000470
# 3 -0.001582 -0.002663 0.019689 -0.005075 0.003734 0.004183
# 4 -0.000321 -0.001306 -0.005075 0.023097 0.000722 -0.001839
# 5 0.007081 0.000149 0.003734 0.000722 0.031752 -0.004465
# 6 -0.002321 0.000470 0.004183 -0.001839 -0.004465 0.015524
#
#
# Mechanical properties :
#
#
# Convention : Reuss Voigt Hill
#
# Bulk Modulus (GPa) = 46.01859 90.79699 68.40779
# Shear Modulus (GPa) = 40.98066 56.44085 48.71076
#
# Velocity S-wave (km/s) = 3.82028 4.48334 4.16503
# Velocity P-wave (km/s) = 5.98732 7.69000 6.89145
#
# Compressibility (1/GPa) = 0.02173035
#
# Stress axis : x y z
#
# Youngs Moduli (GPa) = 131.79052 172.88025 50.78884
#
# Poissons Ratio (x) = 0.24547 0.08036
# Poissons Ratio (y) = 0.18713 0.13528
# Poissons Ratio (z) = 0.20852 0.46047
#
# Static dielectric constant tensor:
#      x y z
#    x 2.112290 0.022070 0.099510 
#    y 0.022070 2.262450 0.044060 
#    z 0.099510 0.044060 2.495140 
# 
# From -- ./inp_files/5918.got.cif
#   From: 2010.05.17/outbox.cif.g08.bks.cpg/sg1_3_cif.got.tgz:5918.got - 2010.05.17 20:27:59.
