data_PCOD9000733
_publ_section_title
;
Structure prediction by ZEFSAII (Michael W. Deem and Ramdas Pophale) SiO2 
 PCOD9000733
Probable space group: P 1
;
_chemical_formula_sum "Si O2"
_cell_formula_units_Z 8
_cell_length_a 8.767905
_cell_length_b 7.859679
_cell_length_c 7.875573
_cell_angle_alpha 57.362407
_cell_angle_beta 49.937435
_cell_angle_gamma 87.756170
_cell_volume 307.266429
_symmetry_space_group_name_H-M "P 1"
_symmetry_group_IT_number 1
_symmetry_cell_setting 'triclinic'
loop_
_space_group_symop_operation_xyz
x,y,z
loop_
_atom_site_type_symbol
_atom_site_label
_atom_site_fract_x
_atom_site_fract_y
_atom_site_fract_z
Si Si1 0.253150 0.036710 0.707900
Si Si2 0.447829 0.535183 0.346827
Si Si3 0.766934 0.525030 0.677155
Si Si4 0.546867 0.987521 0.133483
Si Si5 0.100470 0.384121 0.000603
Si Si6 0.229236 0.606212 0.128473
Si Si7 0.047437 0.768143 0.671154
Si Si8 0.795355 0.946159 0.284322
O O1 0.453713 0.296562 0.447086
O O2 0.155451 0.976806 0.617779
O O3 0.025797 0.003998 0.985057
O O4 0.323602 0.858243 0.840256
O O5 0.288457 0.463501 0.671636
O O6 0.348618 0.556425 0.225825
O O7 0.630535 0.805876 0.099753
O O8 0.992038 0.564466 0.397322
O O9 0.850100 0.647601 0.737097
O O10 0.679560 0.683217 0.563234
O O11 0.621377 0.252173 0.904923
O O12 0.628875 0.997835 0.262159
O O13 0.281302 0.848931 0.354167
O O14 0.000526 0.557929 0.943825
O O15 0.192214 0.430543 0.098334
O O16 0.904300 0.125171 0.262096
#
# Coordination Sequence:
#
# PCOD9000733 Si02
#       8
#     1   1   1   1   1   1   1   1
#     4   9  21  39  64  93 118 168 213 249 311 377
#     4  10  20  39  62  89 129 161 204 263 308 363
#     4  11  21  40  62  92 126 169 207 253 317 375
#     4  11  22  42  62  93 131 162 204 268 310 367
#     4   9  18  38  64  89 120 167 204 253 307 376
#     4  10  19  37  65  91 118 172 206 248 317 371
#     4  10  20  42  67  84 132 168 201 262 313 365
#     4  10  21  39  64  91 126 161 211 262 309 366
#
# _framework density 26.036034000000001
#
# number of rings (size 3 to 8) (size 9 to 14) (size 15 to 20)
#    0.000    2.000    3.750    0.750    1.750    1.000 
#    6.750    3.750    0.000    0.000    0.000    0.000 
#    0.000    0.000    0.000    0.000    0.000    0.000 
#
# Total GULP energy -44597.517406 kJ/mol
# GULP energy per Si atom -5574.689676 kJ/mol
# Density = 2.597677 g / cm^3
# Si number density = 26.036034 Si / 1000 Ang^3
#
#
#
# Elastic Constant Matrix: (Units=GPa)
#
#
# Indices 1 2 3 4 5 6 
#
# 1 66.6507 20.1996 37.3351 -2.9951 -1.2026 11.3842
# 2 20.1996 152.3644 55.4095 -37.0644 7.9879 37.8820
# 3 37.3351 55.4095 119.9776 -44.5819 9.4015 3.1960
# 4 -2.9951 -37.0644 -44.5819 62.0015 -0.5766 10.5371
# 5 -1.2026 7.9879 9.4015 -0.5766 35.9815 -2.5385
# 6 11.3842 37.8820 3.1960 10.5371 -2.5385 32.2084
#
#
#
# Elastic Compliance Matrix: (Units=1/GPa)
#
#
# Indices 1 2 3 4 5 6 
#
# 1 0.020039 0.000852 -0.007749 -0.003028 0.002022 -0.006166
# 2 0.000852 0.016349 -0.002340 0.012103 -0.004461 -0.023609
# 3 -0.007749 -0.002340 0.015530 0.009252 -0.003604 0.000639
# 4 -0.003028 0.012103 0.009252 0.034191 -0.006476 -0.025779
# 5 0.002022 -0.004461 -0.003604 -0.006476 0.030351 0.009401
# 6 -0.006166 -0.023609 0.000639 -0.025779 0.009401 0.070107
#
#
# Mechanical properties :
#
#
# Convention : Reuss Voigt Hill
#
# Bulk Modulus (GPa) = 29.89948 62.76457 46.33203
# Shear Modulus (GPa) = 23.12790 41.10817 32.11804
#
# Velocity S-wave (km/s) = 2.98368 3.97784 3.51607
# Velocity P-wave (km/s) = 4.83514 6.72732 5.85813
#
# Compressibility (1/GPa) = 0.03344540
#
# Stress axis : x y z
#
# Youngs Moduli (GPa) = 49.90147 61.16487 64.39230
#
# Poissons Ratio (x) = -0.05209 0.49894
# Poissons Ratio (y) = -0.04250 0.15066
# Poissons Ratio (z) = 0.38666 0.14311
#
# Static dielectric constant tensor:
#      x y z
#    x 2.030890 -0.069420 -0.065280 
#    y -0.069420 2.167820 0.045710 
#    z -0.065280 0.045710 2.075960 
# 
# From -- ./inp_files/4038.got.cif
#   From: 2010.05.17/outbox.cif.g08.bks.cpg/sg1_3_cif.got.tgz:4038.got - 2010.05.17 20:27:59.
