data_PCOD9000349
_publ_section_title
;
Structure prediction by ZEFSAII (Michael W. Deem and Ramdas Pophale) SiO2 
 PCOD9000349
Probable space group: P 1
;
_chemical_formula_sum "Si O2"
_cell_formula_units_Z 8
_cell_length_a 10.128071
_cell_length_b 7.176008
_cell_length_c 12.056691
_cell_angle_alpha 34.786739
_cell_angle_beta 139.923296
_cell_angle_gamma 131.915430
_cell_volume 319.986568
_symmetry_space_group_name_H-M "P 1"
_symmetry_group_IT_number 1
_symmetry_cell_setting 'triclinic'
loop_
_space_group_symop_operation_xyz
x,y,z
loop_
_atom_site_type_symbol
_atom_site_label
_atom_site_fract_x
_atom_site_fract_y
_atom_site_fract_z
Si Si1 0.491470 0.741940 0.007620
Si Si2 0.177556 0.839981 0.493720
Si Si3 0.456507 0.356318 0.816362
Si Si4 0.786832 0.364776 0.485913
Si Si5 0.644544 0.290242 0.659341
Si Si6 0.928169 0.694680 0.937251
Si Si7 0.093713 0.319653 0.020013
Si Si8 0.274041 0.475396 0.404295
O O1 0.654799 0.477785 0.245709
O O2 0.272969 0.530186 0.966184
O O3 0.484210 0.968463 0.005021
O O4 0.571038 0.997358 0.839388
O O5 0.334756 0.557719 0.729244
O O6 0.951762 0.675164 0.462087
O O7 0.227856 0.139985 0.465475
O O8 0.161892 0.998097 0.282581
O O9 0.693905 0.526048 0.886891
O O10 0.311893 0.403063 0.591989
O O11 0.621218 0.263341 0.526097
O O12 0.910610 0.056460 0.704714
O O13 0.512174 0.585658 0.465690
O O14 0.888967 0.302446 0.823860
O O15 0.028252 0.514581 0.990127
O O16 0.088155 0.680851 0.149383
#
# Coordination Sequence:
#
# PCOD9000349 Si02
#       8
#     1   1   1   1   1   1   1   1
#     4  11  23  46  72 103 142 192 236 302 365 430
#     4  11  24  45  72 108 147 192 241 304 362 436
#     4  11  23  45  75 104 148 192 243 302 369 430
#     4  12  25  43  74 104 149 192 240 306 366 432
#     4  11  24  44  70 104 139 189 245 286 371 430
#     4  11  22  44  71 106 145 191 239 306 362 435
#     4  11  22  45  73  98 149 184 235 304 360 424
#     4  10  23  44  71 105 145 190 247 296 363 441
#
# _framework density 25.001051
#
# number of rings (size 3 to 8) (size 9 to 14) (size 15 to 20)
#    0.000    1.000    3.750    4.500    5.250    0.000 
#    0.000    0.000    5.500    0.000    0.000    0.000 
#    0.000    0.000    0.000    0.000    0.000    0.000 
#
# Total GULP energy -44635.458893 kJ/mol
# GULP energy per Si atom -5579.432362 kJ/mol
# Density = 2.494415 g / cm^3
# Si number density = 25.001051 Si / 1000 Ang^3
#
#
#
# Elastic Constant Matrix: (Units=GPa)
#
#
# Indices 1 2 3 4 5 6 
#
# 1 80.2280 23.4432 12.2505 -1.2125 2.9984 19.3912
# 2 23.4432 64.9485 56.1351 6.3595 19.9770 24.4797
# 3 12.2505 56.1351 161.0337 18.5494 11.4396 17.6984
# 4 -1.2125 6.3595 18.5494 40.1114 3.4029 7.8860
# 5 2.9984 19.9770 11.4396 3.4029 35.1361 1.1750
# 6 19.3912 24.4797 17.6984 7.8860 1.1750 49.3845
#
#
#
# Elastic Compliance Matrix: (Units=1/GPa)
#
#
# Indices 1 2 3 4 5 6 
#
# 1 0.014740 -0.005190 0.000831 0.001510 0.001403 -0.003787
# 2 -0.005190 0.034578 -0.009518 0.002416 -0.015961 -0.011697
# 3 0.000831 -0.009518 0.009513 -0.003366 0.002520 0.001460
# 4 0.001510 0.002416 -0.003366 0.027355 -0.002893 -0.004884
# 5 0.001403 -0.015961 0.002520 -0.002893 0.036673 0.006047
# 6 -0.003787 -0.011697 0.001460 -0.004884 0.006047 0.027647
#
#
# Mechanical properties :
#
#
# Convention : Reuss Voigt Hill
#
# Bulk Modulus (GPa) = 32.17941 54.42975 43.30458
# Shear Modulus (GPa) = 26.50843 39.21850 32.86347
#
# Velocity S-wave (km/s) = 3.25975 3.96495 3.62951
# Velocity P-wave (km/s) = 5.20260 6.54059 5.90959
#
# Compressibility (1/GPa) = 0.03107577
#
# Stress axis : x y z
#
# Youngs Moduli (GPa) = 67.84247 28.92030 105.12322
#
# Poissons Ratio (x) = 0.15011 -0.08732
# Poissons Ratio (y) = 0.35213 1.00052
# Poissons Ratio (z) = -0.05635 0.27525
#
# Static dielectric constant tensor:
#      x y z
#    x 1.989120 -0.036880 0.017170 
#    y -0.036880 2.086660 0.054490 
#    z 0.017170 0.054490 2.080180 
# 
# From -- ./inp_files/4106.got.cif
#   From: 2010.05.17/outbox.cif.g08.bks.cpg/sg1_3_cif.got.tgz:4106.got - 2010.05.17 20:27:59.
