data_PCOD9000383
_publ_section_title
;
Structure prediction by ZEFSAII (Michael W. Deem and Ramdas Pophale) SiO2 
 PCOD9000383
Probable space group: P 1
;
_chemical_formula_sum "Si O2"
_cell_formula_units_Z 8
_cell_length_a 12.332851
_cell_length_b 7.378988
_cell_length_c 8.486301
_cell_angle_alpha 62.154483
_cell_angle_beta 29.407108
_cell_angle_gamma 70.636039
_cell_volume 330.207566
_symmetry_space_group_name_H-M "P 1"
_symmetry_group_IT_number 1
_symmetry_cell_setting 'triclinic'
loop_
_space_group_symop_operation_xyz
x,y,z
loop_
_atom_site_type_symbol
_atom_site_label
_atom_site_fract_x
_atom_site_fract_y
_atom_site_fract_z
Si Si1 0.378590 0.433850 0.350750
Si Si2 0.050548 0.739318 0.682307
Si Si3 0.392773 0.992457 0.369781
Si Si4 0.594975 0.962898 0.452545
Si Si5 0.634474 0.386177 0.342080
Si Si6 0.105585 0.952137 0.209505
Si Si7 0.742053 0.217594 0.588625
Si Si8 0.800243 0.628891 0.530072
O O1 0.196294 0.575261 0.497922
O O2 0.324980 0.205027 0.437019
O O3 0.431223 0.425163 0.473637
O O4 0.603197 0.549549 0.935638
O O5 0.063189 0.916439 0.463028
O O6 0.176976 0.840881 0.636464
O O7 0.808841 0.598506 0.055617
O O8 0.518784 0.911462 0.391289
O O9 0.573773 0.057772 0.974554
O O10 0.712925 0.791617 0.456105
O O11 0.728105 0.200546 0.202519
O O12 0.365694 0.985692 0.825443
O O13 0.598029 0.297908 0.599667
O O14 0.005406 0.747790 0.320510
O O15 0.945491 0.117251 0.301321
O O16 0.844411 0.422442 0.472524
#
# Coordination Sequence:
#
# PCOD9000383 Si02
#       8
#     1   1   1   1   1   1   1   1
#     4  10  23  47  69 103 144 184 232 293 352 415
#     4  12  25  44  75 103 141 185 237 291 354 416
#     4  10  26  47  69 104 141 187 235 290 347 420
#     4  11  25  48  75 100 149 188 235 292 353 419
#     4  11  25  44  71 103 142 188 231 289 351 420
#     4  12  25  47  73 105 143 187 236 294 354 418
#     4  11  26  46  71 105 143 184 236 291 351 417
#     4  11  23  47  73 103 143 189 234 290 354 419
#
# _framework density 24.227186
#
# number of rings (size 3 to 8) (size 9 to 14) (size 15 to 20)
#    0.000    1.000    3.750    1.500    7.000    1.000 
#    2.250    0.000    0.000    0.000    0.000    0.000 
#    0.000    0.000    0.000    0.000    0.000    0.000 
#
# Total GULP energy -44795.951390 kJ/mol
# GULP energy per Si atom -5599.493924 kJ/mol
# Density = 2.417204 g / cm^3
# Si number density = 24.227186 Si / 1000 Ang^3
#
#
#
# Elastic Constant Matrix: (Units=GPa)
#
#
# Indices 1 2 3 4 5 6 
#
# 1 121.3635 6.8048 20.3804 -21.1329 8.4577 14.4779
# 2 6.8048 82.9148 29.9644 -6.1138 -21.1426 15.6896
# 3 20.3804 29.9644 81.6294 -8.3644 -2.9512 13.8058
# 4 -21.1329 -6.1138 -8.3644 31.9157 4.4936 -3.7507
# 5 8.4577 -21.1426 -2.9512 4.4936 35.2423 -18.3518
# 6 14.4779 15.6896 13.8058 -3.7507 -18.3518 49.4300
#
#
#
# Elastic Compliance Matrix: (Units=1/GPa)
#
#
# Indices 1 2 3 4 5 6 
#
# 1 0.010643 -0.000699 -0.001176 0.006971 -0.006226 -0.004349
# 2 -0.000699 0.016590 -0.005592 -0.000107 0.009718 0.000101
# 3 -0.001176 -0.005592 0.015268 0.002295 -0.003859 -0.003404
# 4 0.006971 -0.000107 0.002295 0.037298 -0.007693 -0.002675
# 5 -0.006226 0.009718 -0.003859 -0.007693 0.044575 0.015782
# 6 -0.004349 0.000101 -0.003404 -0.002675 0.015782 0.028080
#
#
# Mechanical properties :
#
#
# Convention : Reuss Voigt Hill
#
# Bulk Modulus (GPa) = 36.27490 44.46746 40.37118
# Shear Modulus (GPa) = 28.31633 38.56811 33.44222
#
# Velocity S-wave (km/s) = 3.42246 3.99423 3.71935
# Velocity P-wave (km/s) = 5.53380 6.29810 5.92828
#
# Compressibility (1/GPa) = 0.02756727
#
# Stress axis : x y z
#
# Youngs Moduli (GPa) = 93.95983 60.27751 65.49635
#
# Poissons Ratio (x) = 0.04214 0.07701
# Poissons Ratio (y) = 0.06568 0.36625
# Poissons Ratio (z) = 0.11048 0.33707
#
# Static dielectric constant tensor:
#      x y z
#    x 1.912290 0.015390 0.032210 
#    y 0.015390 1.926950 -0.034890 
#    z 0.032210 -0.034890 1.957140 
# 
# From -- ./inp_files/2428.got.cif
#   From: 2010.05.17/outbox.cif.g08.bks.cpg/sg1_2_cif.got.tgz:2428.got - 2010.05.17 20:27:59.
