data_PCOD9000226
_publ_section_title
;
Structure prediction by ZEFSAII (Michael W. Deem and Ramdas Pophale) SiO2 
 PCOD9000226
Probable space group: P 1
;
_chemical_formula_sum "Si O2"
_cell_formula_units_Z 8
_cell_length_a 15.557368
_cell_length_b 8.715378
_cell_length_c 13.325683
_cell_angle_alpha 145.533711
_cell_angle_beta 26.599617
_cell_angle_gamma 150.803506
_cell_volume 386.582480
_symmetry_space_group_name_H-M "P 1"
_symmetry_group_IT_number 1
_symmetry_cell_setting 'triclinic'
loop_
_space_group_symop_operation_xyz
x,y,z
loop_
_atom_site_type_symbol
_atom_site_label
_atom_site_fract_x
_atom_site_fract_y
_atom_site_fract_z
Si Si1 0.597280 0.935460 0.998280
Si Si2 0.841896 0.620490 0.050844
Si Si3 0.116568 0.994193 0.784264
Si Si4 0.231276 0.937004 0.973723
Si Si5 0.607425 0.528427 0.608790
Si Si6 0.877558 0.301828 0.102057
Si Si7 0.674015 0.921392 0.543930
Si Si8 0.175269 0.520112 0.335350
O O1 0.672623 0.718108 0.747413
O O2 0.691842 0.239602 0.990666
O O3 0.329384 0.726127 0.190785
O O4 0.720855 0.104752 0.064735
O O5 0.909875 0.791276 0.966214
O O6 0.088089 0.772785 0.931957
O O7 0.698177 0.702506 0.318618
O O8 0.193688 0.772878 0.533233
O O9 0.337336 0.284336 0.762449
O O10 0.024416 0.148756 0.887926
O O11 0.461513 0.947932 0.753950
O O12 0.053942 0.676627 0.096853
O O13 0.264851 0.284143 0.139647
O O14 0.721886 0.323092 0.360341
O O15 0.655240 0.759511 0.585626
O O16 0.906001 0.265369 0.471490
#
# Coordination Sequence:
#
# PCOD9000226 Si02
#       8
#     1   1   1   1   1   1   1   1
#     4  11  24  46  69  99 140 179 222 285 334 397
#     4  10  23  44  66 101 139 174 230 278 335 404
#     4  12  25  43  70 102 139 182 222 280 346 399
#     4  10  22  43  69  97 135 180 222 281 337 396
#     4  12  22  45  71 100 140 178 224 283 337 403
#     4  11  24  47  69 102 138 176 229 279 339 404
#     4  11  21  42  70  99 139 177 223 283 335 402
#     4  11  23  42  68  98 140 172 226 279 331 403
#
# _framework density 20.69416
#
# number of rings (size 3 to 8) (size 9 to 14) (size 15 to 20)
#    0.000    1.000    6.250    2.250    1.750    2.000 
#    4.500    0.000    0.000    0.000    0.000    0.000 
#    0.000    0.000    0.000    0.000    0.000    0.000 
#
# Total GULP energy -44619.960811 kJ/mol
# GULP energy per Si atom -5577.495101 kJ/mol
# Density = 2.064706 g / cm^3
# Si number density = 20.694160 Si / 1000 Ang^3
#
#
#
# Elastic Constant Matrix: (Units=GPa)
#
#
# Indices 1 2 3 4 5 6 
#
# 1 10.0111 12.1627 24.3967 5.9122 -16.1692 -7.7795
# 2 12.1627 109.2276 39.2220 2.9354 -2.3435 -8.3769
# 3 24.3967 39.2220 113.7496 9.7249 -1.0571 15.2255
# 4 5.9122 2.9354 9.7249 38.0889 7.4836 8.4476
# 5 -16.1692 -2.3435 -1.0571 7.4836 40.4838 -5.6698
# 6 -7.7795 -8.3769 15.2255 8.4476 -5.6698 21.5615
#
#
#
# Elastic Compliance Matrix: (Units=1/GPa)
#
#
# Indices 1 2 3 4 5 6 
#
# 1 -0.059840 -0.006511 0.020364 0.024524 -0.036355 -0.057668
# 2 -0.006511 0.011168 -0.002975 0.000457 -0.001628 0.003484
# 3 0.020364 -0.002975 0.005096 -0.008291 0.010844 0.008693
# 4 0.024524 0.000457 -0.008291 0.021345 0.006823 0.008312
# 5 -0.036355 -0.001628 0.010844 0.006823 0.005956 -0.022514
# 6 -0.057668 0.003484 0.008693 0.008312 -0.022514 0.011610
#
#
# Mechanical properties :
#
#
# Convention : Reuss Voigt Hill
#
# Bulk Modulus (GPa) = -45.82839 42.72791 -1.55024
# Shear Modulus (GPa) = -148.39018 30.50730 -58.94144
#
# Velocity S-wave (km/s) = -8.47714 3.84369 -5.34266
# Velocity P-wave (km/s) = 10.86322 6.35538 6.22972
#
# Compressibility (1/GPa) = -0.02182054
#
# Stress axis : x y z
#
# Youngs Moduli (GPa) = -16.71110 89.53788 196.25082
#
# Poissons Ratio (x) = 0.58296 -3.99642
# Poissons Ratio (y) = -0.10880 0.58386
# Poissons Ratio (z) = 0.34030 0.26638
#
# Static dielectric constant tensor:
#      x y z
#    x 1.743110 -0.022930 0.011860 
#    y -0.022930 1.782630 0.012120 
#    z 0.011860 0.012120 1.729810 
# 
# From -- ./inp_files/4132.got.cif
#   From: 2010.05.17/outbox.cif.g08.bks.cpg/sg1_3_cif.got.tgz:4132.got - 2010.05.17 20:27:59.
