data_PCOD9000254
_publ_section_title
;
Structure prediction by ZEFSAII (Michael W. Deem and Ramdas Pophale) SiO2 
 PCOD9000254
Probable space group: P 1
;
_chemical_formula_sum "Si O2"
_cell_formula_units_Z 8
_cell_length_a 7.448263
_cell_length_b 11.753787
_cell_length_c 14.466939
_cell_angle_alpha 150.176916
_cell_angle_beta 146.498570
_cell_angle_gamma 51.408743
_cell_volume 323.928799
_symmetry_space_group_name_H-M "P 1"
_symmetry_group_IT_number 1
_symmetry_cell_setting 'triclinic'
loop_
_space_group_symop_operation_xyz
x,y,z
loop_
_atom_site_type_symbol
_atom_site_label
_atom_site_fract_x
_atom_site_fract_y
_atom_site_fract_z
Si Si1 0.373940 0.013040 0.712340
Si Si2 0.450063 0.276033 0.587370
Si Si3 0.762210 0.126789 0.448860
Si Si4 0.248884 0.727794 0.818591
Si Si5 0.482420 0.379598 0.871582
Si Si6 0.336636 0.045721 0.916307
Si Si7 0.528777 0.783277 0.328771
Si Si8 0.445882 0.587995 0.356219
O O1 0.364442 0.988027 0.374711
O O2 0.582936 0.181183 0.835690
O O3 0.539506 0.083856 0.932986
O O4 0.279645 0.729948 0.452199
O O5 0.614146 0.288731 0.564313
O O6 0.646974 0.400445 0.855690
O O7 0.221508 0.447465 0.601985
O O8 0.469209 0.888712 0.111736
O O9 0.054799 0.259656 0.590865
O O10 0.015857 0.061781 0.583532
O O11 0.434263 0.879625 0.914508
O O12 0.859597 0.725417 0.649209
O O13 0.509928 0.598580 0.107031
O O14 0.367462 0.309355 0.151037
O O15 0.932952 0.908222 0.618795
O O16 0.366064 0.631289 0.245374
#
# Coordination Sequence:
#
# PCOD9000254 Si02
#       8
#     1   1   1   1   1   1   1   1
#     4  10  22  44  75 103 138 187 249 294 347 421
#     4  12  24  44  74 105 146 186 235 307 352 427
#     4  10  24  47  71 111 138 190 243 298 355 426
#     4  11  29  46  67 108 152 186 235 289 382 423
#     4  10  23  42  74 109 137 179 249 300 349 415
#     4  11  25  46  69 103 146 190 237 294 356 437
#     4  11  21  43  72 104 136 182 248 292 345 425
#     4  11  24  46  70 103 145 190 232 298 358 426
#
# _framework density 24.696781999999999
#
# number of rings (size 3 to 8) (size 9 to 14) (size 15 to 20)
#    0.750    0.500    3.750    0.750    3.500    3.000 
#    0.000    0.000    0.000    0.000    0.000    0.000 
#    0.000    0.000    0.000    0.000    0.000    0.000 
#
# Total GULP energy -44634.854857 kJ/mol
# GULP energy per Si atom -5579.356857 kJ/mol
# Density = 2.464057 g / cm^3
# Si number density = 24.696782 Si / 1000 Ang^3
#
#
#
# Elastic Constant Matrix: (Units=GPa)
#
#
# Indices 1 2 3 4 5 6 
#
# 1 97.6534 21.3634 22.0031 -3.3567 -21.9058 4.6853
# 2 21.3634 99.3400 16.8765 19.5760 -17.9587 18.4070
# 3 22.0031 16.8765 123.2956 4.2615 -25.9508 -11.1912
# 4 -3.3567 19.5760 4.2615 34.4777 -5.1678 -11.8395
# 5 -21.9058 -17.9587 -25.9508 -5.1678 43.3723 11.2787
# 6 4.6853 18.4070 -11.1912 -11.8395 11.2787 32.2208
#
#
#
# Elastic Compliance Matrix: (Units=1/GPa)
#
#
# Indices 1 2 3 4 5 6 
#
# 1 0.012312 -0.001225 -0.001086 0.001950 0.006039 -0.002865
# 2 -0.001225 0.019793 -0.001728 -0.017019 0.010112 -0.021523
# 3 -0.001086 -0.001728 0.009605 0.001529 0.003690 0.003751
# 4 0.001950 -0.017019 0.001529 0.047923 -0.007271 0.030125
# 5 0.006039 0.010112 0.003690 -0.007271 0.037104 -0.021033
# 6 -0.002865 -0.021523 0.003751 0.030125 -0.021033 0.063483
#
#
# Mechanical properties :
#
#
# Convention : Reuss Voigt Hill
#
# Bulk Modulus (GPa) = 29.73205 48.97500 39.35352
# Shear Modulus (GPa) = 23.86532 39.35056 31.60794
#
# Velocity S-wave (km/s) = 3.11196 3.99601 3.58137
# Velocity P-wave (km/s) = 4.99774 6.41594 5.75073
#
# Compressibility (1/GPa) = 0.03363374
#
# Stress axis : x y z
#
# Youngs Moduli (GPa) = 81.22103 50.52206 104.11096
#
# Poissons Ratio (x) = 0.06188 0.11306
# Poissons Ratio (y) = 0.09948 0.17986
# Poissons Ratio (z) = 0.08820 0.08728
#
# Static dielectric constant tensor:
#      x y z
#    x 2.035520 0.055010 0.104510 
#    y 0.055010 1.968550 0.028350 
#    z 0.104510 0.028350 1.968900 
# 
# From -- ./inp_files/7164.got.cif
#   From: 2010.05.17/outbox.cif.g08.bks.cpg/sg1_4_cif.got.tgz:7164.got - 2010.05.17 20:27:59.
