data_PCOD9000707
_publ_section_title
;
Structure prediction by ZEFSAII (Michael W. Deem and Ramdas Pophale) SiO2 
 PCOD9000707
Probable space group: P 1
;
_chemical_formula_sum "Si O2"
_cell_formula_units_Z 8
_cell_length_a 5.572756
_cell_length_b 8.449964
_cell_length_c 17.707407
_cell_angle_alpha 153.726464
_cell_angle_beta 68.513172
_cell_angle_gamma 113.926363
_cell_volume 337.377702
_symmetry_space_group_name_H-M "P 1"
_symmetry_group_IT_number 1
_symmetry_cell_setting 'triclinic'
loop_
_space_group_symop_operation_xyz
x,y,z
loop_
_atom_site_type_symbol
_atom_site_label
_atom_site_fract_x
_atom_site_fract_y
_atom_site_fract_z
Si Si1 0.879620 0.129160 0.188800
Si Si2 0.483316 0.645016 0.226260
Si Si3 0.779790 0.087707 0.020777
Si Si4 0.307791 0.678061 0.103177
Si Si5 0.350511 0.112403 0.556885
Si Si6 0.942201 0.277794 0.405091
Si Si7 0.970496 0.488098 0.655415
Si Si8 0.250442 0.531596 0.886842
O O1 0.860137 0.290599 0.177239
O O2 0.942237 0.393785 0.367235
O O3 0.600598 0.884539 0.139086
O O4 0.060761 0.825370 0.026066
O O5 0.673029 0.360673 0.094097
O O6 0.306202 0.530916 0.125082
O O7 0.352943 0.714540 0.350790
O O8 0.655829 0.038892 0.354281
O O9 0.532274 0.778105 0.941540
O O10 0.966447 0.858751 0.858976
O O11 0.130734 0.983517 0.255345
O O12 0.230609 0.421162 0.929859
O O13 0.185210 0.295836 0.591013
O O14 0.218710 0.208121 0.691476
O O15 0.665104 0.270353 0.600749
O O16 0.022534 0.523629 0.574428
#
# Coordination Sequence:
#
# PCOD9000707 Si02
#       8
#     1   1   1   1   1   1   1   1
#     4   9  17  32  53  75 103 139 186 215 262 322
#     4  10  20  33  53  83 110 137 174 230 278 314
#     4  10  20  33  53  83 110 137 174 230 278 314
#     4   9  17  32  53  75 103 139 186 215 262 322
#     4  10  19  35  55  81 107 145 184 220 264 329
#     4   9  18  33  55  76 101 145 183 217 259 328
#     4  10  19  35  55  81 107 145 184 220 264 329
#     4   9  18  33  55  76 101 145 183 217 259 328
#
# _framework density 23.712295999999998
#
# number of rings (size 3 to 8) (size 9 to 14) (size 15 to 20)
#    0.000    2.500    2.500    0.000    0.000    1.000 
#    0.000    1.250    0.000   13.500    0.000    0.000 
#    0.000    0.000    0.000    0.000    0.000    0.000 
#
# Total GULP energy -44599.289599 kJ/mol
# GULP energy per Si atom -5574.911200 kJ/mol
# Density = 2.365833 g / cm^3
# Si number density = 23.712296 Si / 1000 Ang^3
#
#
#
# Elastic Constant Matrix: (Units=GPa)
#
#
# Indices 1 2 3 4 5 6 
#
# 1 76.5722 5.4544 30.9413 -7.3522 -0.2481 -7.6448
# 2 5.4544 87.6472 17.2052 -41.2912 7.6864 -16.7013
# 3 30.9413 17.2052 98.4411 -29.3774 -9.7896 -2.0897
# 4 -7.3522 -41.2912 -29.3774 46.2217 0.4471 0.2424
# 5 -0.2481 7.6864 -9.7896 0.4471 38.1436 -2.1176
# 6 -7.6448 -16.7013 -2.0897 0.2424 -2.1176 43.2507
#
#
#
# Elastic Compliance Matrix: (Units=1/GPa)
#
#
# Indices 1 2 3 4 5 6 
#
# 1 0.015288 0.000455 -0.005056 -0.000378 -0.001142 0.002580
# 2 0.000455 0.023672 0.002281 0.022659 -0.003947 0.009011
# 3 -0.005056 0.002281 0.014866 0.010646 0.003243 0.000804
# 4 -0.000378 0.022659 0.010646 0.048555 -0.001915 0.008831
# 5 -0.001142 -0.003947 0.003243 -0.001915 0.027848 -0.000195
# 6 0.002580 0.009011 0.000804 0.008831 -0.000195 0.027036
#
#
# Mechanical properties :
#
#
# Convention : Reuss Voigt Hill
#
# Bulk Modulus (GPa) = 20.33212 41.09582 30.71397
# Shear Modulus (GPa) = 28.04240 39.46050 33.75145
#
# Velocity S-wave (km/s) = 3.44264 4.08381 3.77686
# Velocity P-wave (km/s) = 4.93918 6.29327 5.65689
#
# Compressibility (1/GPa) = 0.04918327
#
# Stress axis : x y z
#
# Youngs Moduli (GPa) = 65.41126 42.24477 67.26974
#
# Poissons Ratio (x) = -0.01921 0.34014
# Poissons Ratio (y) = -0.02975 -0.15342
# Poissons Ratio (z) = 0.33074 -0.09635
#
# Static dielectric constant tensor:
#      x y z
#    x 1.968170 0.011610 0.048000 
#    y 0.011610 1.946830 -0.061470 
#    z 0.048000 -0.061470 1.858710 
# 
# From -- ./inp_files/1800.got.cif
#   From: 2010.05.17/outbox.cif.g08.bks.cpg/sg1_1_cif.got.tgz:1800.got - 2010.05.17 20:27:59.
