data_PCOD9000850
_publ_section_title
;
Structure prediction by ZEFSAII (Michael W. Deem and Ramdas Pophale) SiO2 
 PCOD9000850
Probable space group: P 1
;
_chemical_formula_sum "Si O2"
_cell_formula_units_Z 8
_cell_length_a 14.214775
_cell_length_b 7.247794
_cell_length_c 5.126480
_cell_angle_alpha 71.130987
_cell_angle_beta 107.367285
_cell_angle_gamma 143.939061
_cell_volume 293.539298
_symmetry_space_group_name_H-M "P 1"
_symmetry_group_IT_number 1
_symmetry_cell_setting 'triclinic'
loop_
_space_group_symop_operation_xyz
x,y,z
loop_
_atom_site_type_symbol
_atom_site_label
_atom_site_fract_x
_atom_site_fract_y
_atom_site_fract_z
Si Si1 0.632120 0.434810 0.074500
Si Si2 0.085167 0.240284 0.719124
Si Si3 0.345341 0.798352 0.344381
Si Si4 0.816290 0.406054 0.000257
Si Si5 0.166362 0.161796 0.324665
Si Si6 0.866087 0.263405 0.606889
Si Si7 0.578692 0.754559 0.915615
Si Si8 0.321478 0.100818 0.820399
O O1 0.775306 0.556248 0.993061
O O2 0.664149 0.690540 0.123572
O O3 0.494374 0.274433 0.819560
O O4 0.531699 0.145230 0.326028
O O5 0.102798 0.099794 0.012975
O O6 0.252024 0.617412 0.620109
O O7 0.051621 0.084851 0.483724
O O8 0.963671 0.217018 0.717439
O O9 0.315710 0.546286 0.293884
O O10 0.259431 0.841270 0.090462
O O11 0.898570 0.421445 0.295019
O O12 0.636988 0.031924 0.990069
O O13 0.898996 0.464739 0.778323
O O14 0.223120 0.040764 0.532584
O O15 0.676104 0.928481 0.644445
O O16 0.395395 0.406455 0.895567
#
# Coordination Sequence:
#
# PCOD9000850 Si02
#       8
#     1   1   1   1   1   1   1   1
#     4   8  18  41  59  98 132 156 210 269 314 394
#     4  10  21  40  63  89 125 166 222 249 315 372
#     4   7  20  36  62  90 130 159 211 261 318 376
#     4  10  20  39  63  91 122 170 201 259 332 357
#     4  10  20  39  63  91 122 174 201 265 319 372
#     4  10  21  39  65  87 123 170 214 256 309 382
#     4   7  20  36  62  92 124 160 209 259 318 379
#     4   8  18  42  59 100 128 161 210 264 323 386
#
# _framework density 27.253592000000001
#
# number of rings (size 3 to 8) (size 9 to 14) (size 15 to 20)
#    3.000    0.000    0.000    0.750    1.750    1.000 
#    6.750    5.000    0.000    0.000    0.000    0.000 
#    0.000    0.000    0.000    0.000    0.000    0.000 
#
# Total GULP energy -44606.134248 kJ/mol
# GULP energy per Si atom -5575.766781 kJ/mol
# Density = 2.719156 g / cm^3
# Si number density = 27.253592 Si / 1000 Ang^3
#
#
#
# Elastic Constant Matrix: (Units=GPa)
#
#
# Indices 1 2 3 4 5 6 
#
# 1 129.3201 32.3009 52.1293 -7.8529 12.2415 8.8403
# 2 32.3009 70.3366 37.2043 -22.6848 4.2047 -1.1924
# 3 52.1293 37.2043 155.5558 -12.9884 12.8927 -0.8224
# 4 -7.8529 -22.6848 -12.9884 35.0757 -10.8178 3.8491
# 5 12.2415 4.2047 12.8927 -10.8178 48.1432 -0.1226
# 6 8.8403 -1.1924 -0.8224 3.8491 -0.1226 27.3149
#
#
#
# Elastic Compliance Matrix: (Units=1/GPa)
#
#
# Indices 1 2 3 4 5 6 
#
# 1 0.009942 -0.003619 -0.002433 -0.001224 -0.001844 -0.003285
# 2 -0.003619 0.021460 -0.003081 0.012746 0.002736 0.000232
# 3 -0.002433 -0.003081 0.008089 -0.000036 -0.001284 0.000896
# 4 -0.001224 0.012746 -0.000036 0.039454 0.008061 -0.004572
# 5 -0.001844 0.002736 -0.001284 0.008061 0.023156 -0.000355
# 6 -0.003285 0.000232 0.000896 -0.004572 -0.000355 0.038353
#
#
# Mechanical properties :
#
#
# Convention : Reuss Voigt Hill
#
# Bulk Modulus (GPa) = 47.11358 66.49793 56.80576
# Shear Modulus (GPa) = 30.15770 37.67864 33.91817
#
# Velocity S-wave (km/s) = 3.33011 3.72226 3.53163
# Velocity P-wave (km/s) = 5.66664 6.55182 6.12524
#
# Compressibility (1/GPa) = 0.02122530
#
# Stress axis : x y z
#
# Youngs Moduli (GPa) = 100.58140 46.59747 123.62565
#
# Poissons Ratio (x) = 0.16864 0.30078
# Poissons Ratio (y) = 0.36401 0.38091
# Poissons Ratio (z) = 0.24471 0.14357
#
# Static dielectric constant tensor:
#      x y z
#    x 2.081620 -0.001730 0.004780 
#    y -0.001730 2.300000 -0.010720 
#    z 0.004780 -0.010720 2.127160 
# 
# From -- ./inp_files/2665.got.cif
#   From: 2010.05.17/outbox.cif.g08.bks.cpg/sg1_2_cif.got.tgz:2665.got - 2010.05.17 20:27:59.
