data_PCOD9000826
_publ_section_title
;
Structure prediction by ZEFSAII (Michael W. Deem and Ramdas Pophale) SiO2 
 PCOD9000826
Probable space group: P 1
;
_chemical_formula_sum "Si O2"
_cell_formula_units_Z 8
_cell_length_a 7.205931
_cell_length_b 7.812233
_cell_length_c 8.041363
_cell_angle_alpha 91.297253
_cell_angle_beta 59.668523
_cell_angle_gamma 123.824080
_cell_volume 302.769090
_symmetry_space_group_name_H-M "P 1"
_symmetry_group_IT_number 1
_symmetry_cell_setting 'triclinic'
loop_
_space_group_symop_operation_xyz
x,y,z
loop_
_atom_site_type_symbol
_atom_site_label
_atom_site_fract_x
_atom_site_fract_y
_atom_site_fract_z
Si Si1 0.274220 0.630760 0.559580
Si Si2 0.079512 0.214970 0.488874
Si Si3 0.363438 0.982539 0.717487
Si Si4 0.482608 0.386328 0.834572
Si Si5 0.026671 0.824786 0.554391
Si Si6 0.520861 0.909105 0.958348
Si Si7 0.075503 0.407914 0.161846
Si Si8 0.736610 0.332307 0.031883
O O1 0.310547 0.456382 0.473669
O O2 0.149532 0.695083 0.474811
O O3 0.028453 0.483643 0.801943
O O4 0.474804 0.866958 0.567044
O O5 0.153916 0.055405 0.415742
O O6 0.999259 0.279220 0.363719
O O7 0.808846 0.056605 0.725938
O O8 0.505719 0.234122 0.700975
O O9 0.103469 0.894630 0.715857
O O10 0.305820 0.890436 0.927267
O O11 0.177160 0.309277 0.986802
O O12 0.568382 0.374912 0.985069
O O13 0.701296 0.634893 0.673355
O O14 0.362962 0.656748 0.064083
O O15 0.593349 0.075186 0.074518
O O16 0.832444 0.392469 0.181409
#
# Coordination Sequence:
#
# PCOD9000826 Si02
#       8
#     1   1   1   1   1   1   1   1
#     4   8  18  38  66  87 127 168 204 265 312 365
#     4  11  23  40  64  97 129 161 219 259 312 392
#     4   9  19  37  70  90 117 179 207 256 332 361
#     4  10  20  37  68  93 122 169 214 255 326 379
#     4   9  19  40  63  91 127 159 214 265 300 385
#     4  10  20  42  65  84 127 172 204 263 321 369
#     4  12  23  40  64  97 127 167 208 266 322 371
#     4   9  20  40  62  93 122 165 220 253 311 388
#
# _framework density 26.422775999999999
#
# number of rings (size 3 to 8) (size 9 to 14) (size 15 to 20)
#    0.750    1.500    2.500    0.750    3.500    0.000 
#    9.000    0.000    0.000    0.000    0.000    0.000 
#    0.000    0.000    0.000    0.000    0.000    0.000 
#
# Total GULP energy -44559.723610 kJ/mol
# GULP energy per Si atom -5569.965451 kJ/mol
# Density = 2.636264 g / cm^3
# Si number density = 26.422776 Si / 1000 Ang^3
#
#
#
# Elastic Constant Matrix: (Units=GPa)
#
#
# Indices 1 2 3 4 5 6 
#
# 1 82.2228 38.7725 29.0799 0.3041 12.2920 -6.8710
# 2 38.7725 227.5778 50.3639 -25.8786 3.9940 -14.1160
# 3 29.0799 50.3639 85.0307 -11.7005 4.0440 -8.9062
# 4 0.3041 -25.8786 -11.7005 27.9081 -9.1858 6.9886
# 5 12.2920 3.9940 4.0440 -9.1858 30.5254 -1.0741
# 6 -6.8710 -14.1160 -8.9062 6.9886 -1.0741 40.4072
#
#
#
# Elastic Compliance Matrix: (Units=1/GPa)
#
#
# Indices 1 2 3 4 5 6 
#
# 1 0.016238 -0.002318 -0.004609 -0.007310 -0.007755 0.001994
# 2 -0.002318 0.005802 -0.001994 0.005137 0.001997 0.000358
# 3 -0.004609 -0.001994 0.015221 0.004836 0.001594 0.001080
# 4 -0.007310 0.005137 0.004836 0.049728 0.016365 -0.006548
# 5 -0.007755 0.001997 0.001594 0.016365 0.040263 -0.002030
# 6 0.001994 0.000358 0.001080 -0.006548 -0.002030 0.026529
#
#
# Mechanical properties :
#
#
# Convention : Reuss Voigt Hill
#
# Bulk Modulus (GPa) = 51.49738 70.14043 60.81891
# Shear Modulus (GPa) = 28.07488 38.20914 33.14201
#
# Velocity S-wave (km/s) = 3.26318 3.80685 3.54545
# Velocity P-wave (km/s) = 5.80774 6.77686 6.31093
#
# Compressibility (1/GPa) = 0.01941846
#
# Stress axis : x y z
#
# Youngs Moduli (GPa) = 61.58377 172.36615 65.70044
#
# Poissons Ratio (x) = 0.39956 0.30278
# Poissons Ratio (y) = 0.14276 0.13102
# Poissons Ratio (z) = 0.28381 0.34374
#
# Static dielectric constant tensor:
#      x y z
#    x 2.173480 -0.034150 -0.065230 
#    y -0.034150 2.119370 0.034480 
#    z -0.065230 0.034480 2.110150 
# 
# From -- ./inp_files/3864.got.cif
#   From: 2010.05.17/outbox.cif.g08.bks.cpg/sg1_2_cif.got.tgz:3864.got - 2010.05.17 20:27:59.
