data_PCOD9000965
_publ_section_title
;
Structure prediction by ZEFSAII (Michael W. Deem and Ramdas Pophale) SiO2 
 PCOD9000965
Probable space group: P 1
;
_chemical_formula_sum "Si O2"
_cell_formula_units_Z 8
_cell_length_a 9.078277
_cell_length_b 5.889239
_cell_length_c 8.514413
_cell_angle_alpha 78.743703
_cell_angle_beta 47.446696
_cell_angle_gamma 101.676194
_cell_volume 291.536947
_symmetry_space_group_name_H-M "P 1"
_symmetry_group_IT_number 1
_symmetry_cell_setting 'triclinic'
loop_
_space_group_symop_operation_xyz
x,y,z
loop_
_atom_site_type_symbol
_atom_site_label
_atom_site_fract_x
_atom_site_fract_y
_atom_site_fract_z
Si Si1 0.956270 0.796860 0.637590
Si Si2 0.597684 0.544882 0.394510
Si Si3 0.563205 0.414318 0.775301
Si Si4 0.810969 0.109900 0.210538
Si Si5 0.391277 0.120938 0.394102
Si Si6 0.100862 0.875188 0.934277
Si Si7 0.879775 0.265791 0.712054
Si Si8 0.137110 0.482350 0.177313
O O1 0.784911 0.687500 0.629037
O O2 0.942575 0.521040 0.742742
O O3 0.885195 0.989099 0.763865
O O4 0.220436 0.990836 0.394331
O O5 0.428751 0.402513 0.394099
O O6 0.845391 0.642527 0.129279
O O7 0.636453 0.809075 0.413530
O O8 0.033214 0.107717 0.977008
O O9 0.541053 0.361676 0.612086
O O10 0.633442 0.212200 0.834590
O O11 0.180031 0.764938 0.040653
O O12 0.640568 0.149339 0.209604
O O13 0.920260 0.275406 0.262867
O O14 0.254867 0.933993 0.664142
O O15 0.349854 0.436114 0.991285
O O16 0.055811 0.411846 0.422656
#
# Coordination Sequence:
#
# PCOD9000965 Si02
#       8
#     1   1   1   1   1   1   1   1
#     4  10  26  47  68  96 146 187 227 283 348 410
#     4  10  21  42  65 102 131 170 230 284 341 401
#     4  10  22  42  68 104 135 180 228 292 335 412
#     4  10  21  38  65 101 133 174 224 288 341 405
#     4  12  23  44  66  97 142 181 222 288 343 415
#     4  10  23  38  66 103 134 171 231 279 352 400
#     4  10  23  48  65  98 139 183 235 280 341 414
#     4  12  21  41  73 105 132 182 233 290 353 401
#
# _framework density 27.440774000000001
#
# number of rings (size 3 to 8) (size 9 to 14) (size 15 to 20)
#    1.500    0.000    2.500    2.250    3.500    2.000 
#    4.500    0.000    0.000    0.000    0.000    0.000 
#    0.000    0.000    0.000    0.000    0.000    0.000 
#
# Total GULP energy -44537.474170 kJ/mol
# GULP energy per Si atom -5567.184271 kJ/mol
# Density = 2.737832 g / cm^3
# Si number density = 27.440774 Si / 1000 Ang^3
#
#
#
# Elastic Constant Matrix: (Units=GPa)
#
#
# Indices 1 2 3 4 5 6 
#
# 1 115.3253 63.0691 58.0781 1.3588 -29.1531 -1.3973
# 2 63.0691 141.9244 21.0156 -4.2996 -18.9203 1.8421
# 3 58.0781 21.0156 142.9417 16.8935 -18.3755 -17.2006
# 4 1.3588 -4.2996 16.8935 43.3711 -2.8611 -21.5343
# 5 -29.1531 -18.9203 -18.3755 -2.8611 55.7250 -0.6347
# 6 -1.3973 1.8421 -17.2006 -21.5343 -0.6347 58.3228
#
#
#
# Elastic Compliance Matrix: (Units=1/GPa)
#
#
# Indices 1 2 3 4 5 6 
#
# 1 0.015283 -0.005407 -0.005008 0.000972 0.004552 -0.000532
# 2 -0.005407 0.009447 0.000808 0.000914 0.000694 0.000155
# 3 -0.005008 0.000808 0.009510 -0.002570 0.000677 0.001718
# 4 0.000972 0.000914 -0.002570 0.029206 0.001586 0.010038
# 5 0.004552 0.000694 0.000677 0.001586 0.020880 0.001100
# 6 -0.000532 0.000155 0.001718 0.010038 0.001100 0.021353
#
#
# Mechanical properties :
#
#
# Convention : Reuss Voigt Hill
#
# Bulk Modulus (GPa) = 66.55574 76.05745 71.30659
# Shear Modulus (GPa) = 38.49058 48.68569 43.58813
#
# Velocity S-wave (km/s) = 3.74930 4.21671 3.98985
# Velocity P-wave (km/s) = 6.56125 7.17528 6.87512
#
# Compressibility (1/GPa) = 0.01502500
#
# Stress axis : x y z
#
# Youngs Moduli (GPa) = 65.43220 105.85052 105.15791
#
# Poissons Ratio (x) = 0.57230 0.52667
# Poissons Ratio (y) = 0.35377 -0.08494
# Poissons Ratio (z) = 0.32771 -0.08550
#
# Static dielectric constant tensor:
#      x y z
#    x 2.145000 -0.101410 0.003180 
#    y -0.101410 2.335220 0.010330 
#    z 0.003180 0.010330 2.112260 
# 
# From -- ./inp_files/6677.got.cif
#   From: 2010.05.17/outbox.cif.g08.bks.cpg/sg1_4_cif.got.tgz:6677.got - 2010.05.17 20:27:59.
