data_PCOD9000713
_publ_section_title
;
Structure prediction by ZEFSAII (Michael W. Deem and Ramdas Pophale) SiO2 
 PCOD9000713
Probable space group: P 1
;
_chemical_formula_sum "Si O2"
_cell_formula_units_Z 8
_cell_length_a 7.465631
_cell_length_b 8.464320
_cell_length_c 5.552971
_cell_angle_alpha 70.848303
_cell_angle_beta 89.999385
_cell_angle_gamma 70.751019
_cell_volume 310.638588
_symmetry_space_group_name_H-M "P 1"
_symmetry_group_IT_number 1
_symmetry_cell_setting 'triclinic'
loop_
_space_group_symop_operation_xyz
x,y,z
loop_
_atom_site_type_symbol
_atom_site_label
_atom_site_fract_x
_atom_site_fract_y
_atom_site_fract_z
Si Si1 0.805700 0.796880 0.915410
Si Si2 0.756665 0.264641 0.181644
Si Si3 0.932700 0.133446 0.747252
Si Si4 0.430575 0.735787 0.445948
Si Si5 0.439197 0.131123 0.248180
Si Si6 0.882932 0.604868 0.511433
Si Si7 0.454625 0.664795 0.981445
Si Si8 0.244881 0.243635 0.691931
O O1 0.892557 0.700019 0.715818
O O2 0.589008 0.789731 0.918976
O O3 0.836765 0.983933 0.821978
O O4 0.892574 0.699937 0.211864
O O5 0.871474 0.237061 0.442668
O O6 0.657529 0.116108 0.255895
O O7 0.871614 0.236963 0.948347
O O8 0.599410 0.460925 0.083385
O O9 0.160671 0.081206 0.773245
O O10 0.658705 0.614847 0.506452
O O11 0.346152 0.695240 0.713970
O O12 0.416585 0.940153 0.343718
O O13 0.346166 0.695215 0.218497
O O14 0.355630 0.229612 0.448808
O O15 0.355893 0.229507 0.948952
O O16 0.061257 0.422523 0.602661
#
# Coordination Sequence:
#
# PCOD9000713 Si02
#       8
#     1   1   1   1   1   1   1   1
#     4  10  19  35  61  93 120 159 219 276 309 367
#     4  12  23  41  69 100 130 178 231 270 322 407
#     4  12  23  41  69 100 130 178 231 270 322 407
#     4  10  20  39  64  89 124 174 219 260 317 396
#     4  12  26  45  66 100 142 175 213 282 348 388
#     4  10  20  39  64  89 124 174 219 260 317 396
#     4  10  19  35  61  93 120 159 219 276 309 367
#     4  12  26  45  66 100 142 175 213 282 348 388
#
# _framework density 25.753398000000001
#
# number of rings (size 3 to 8) (size 9 to 14) (size 15 to 20)
#    0.000    1.000    0.000   10.500    0.000    0.000 
#    0.000    7.500    0.000    0.000    0.000    0.000 
#    0.000    0.000    0.000    0.000    0.000    0.000 
#
# Total GULP energy -44799.468273 kJ/mol
# GULP energy per Si atom -5599.933534 kJ/mol
# Density = 2.569478 g / cm^3
# Si number density = 25.753398 Si / 1000 Ang^3
#
#
#
# Elastic Constant Matrix: (Units=GPa)
#
#
# Indices 1 2 3 4 5 6 
#
# 1 64.8903 6.1000 30.9934 15.0142 -0.9546 -2.2451
# 2 6.1000 84.1417 71.6317 27.8514 -7.8819 -15.3735
# 3 30.9934 71.6317 270.0658 64.0493 -4.1811 -19.2446
# 4 15.0142 27.8514 64.0493 52.3264 -9.6056 -7.2354
# 5 -0.9546 -7.8819 -4.1811 -9.6056 24.9553 -1.2045
# 6 -2.2451 -15.3735 -19.2446 -7.2354 -1.2045 33.0180
#
#
#
# Elastic Compliance Matrix: (Units=1/GPa)
#
#
# Indices 1 2 3 4 5 6 
#
# 1 0.016835 0.001137 -0.001300 -0.003978 -0.000745 0.000017
# 2 0.001137 0.017303 -0.003313 -0.004056 0.003655 0.005447
# 3 -0.001300 -0.003313 0.006072 -0.005619 -0.002213 0.000596
# 4 -0.003978 -0.004056 -0.005619 0.031330 0.009771 0.001788
# 5 -0.000745 0.003655 -0.002213 0.009771 0.044787 0.004136
# 6 0.000017 0.005447 0.000596 0.001788 0.004136 0.033714
#
#
# Mechanical properties :
#
#
# Convention : Reuss Voigt Hill
#
# Bulk Modulus (GPa) = 30.06956 70.72757 50.39856
# Shear Modulus (GPa) = 29.74768 42.75144 36.24956
#
# Velocity S-wave (km/s) = 3.40236 4.07877 3.75582
# Velocity P-wave (km/s) = 5.20923 7.05016 6.19842
#
# Compressibility (1/GPa) = 0.03325623
#
# Stress axis : x y z
#
# Youngs Moduli (GPa) = 59.40016 57.79283 164.69986
#
# Poissons Ratio (x) = -0.06569 0.21416
# Poissons Ratio (y) = -0.06752 0.54567
# Poissons Ratio (z) = 0.07724 0.19147
#
# Static dielectric constant tensor:
#      x y z
#    x 1.965530 0.018920 -0.017440 
#    y 0.018920 2.071780 -0.001110 
#    z -0.017440 -0.001110 2.064440 
# 
# From -- ./inp_files/1295.got.cif
#   From: 2010.05.17/outbox.cif.g08.bks.cpg/sg1_1_cif.got.tgz:1295.got - 2010.05.17 20:27:59.
