data_PCOD9000437
_publ_section_title
;
Structure prediction by ZEFSAII (Michael W. Deem and Ramdas Pophale) SiO2 
 PCOD9000437
Probable space group: P 1
;
_chemical_formula_sum "Si O2"
_cell_formula_units_Z 8
_cell_length_a 5.107613
_cell_length_b 8.326539
_cell_length_c 8.324809
_cell_angle_alpha 64.680296
_cell_angle_beta 75.864195
_cell_angle_gamma 93.543216
_cell_volume 304.709275
_symmetry_space_group_name_H-M "P 1"
_symmetry_group_IT_number 1
_symmetry_cell_setting 'triclinic'
loop_
_space_group_symop_operation_xyz
x,y,z
loop_
_atom_site_type_symbol
_atom_site_label
_atom_site_fract_x
_atom_site_fract_y
_atom_site_fract_z
Si Si1 0.214520 0.784880 0.430940
Si Si2 0.855974 0.480953 0.406936
Si Si3 0.542675 0.846265 0.829127
Si Si4 0.862985 0.101047 0.415637
Si Si5 0.023541 0.148951 0.020570
Si Si6 0.018579 0.639013 0.845649
Si Si7 0.698881 0.802294 0.151663
Si Si8 0.644504 0.348258 0.832373
O O1 0.175764 0.661122 0.645141
O O2 0.532536 0.832247 0.324332
O O3 0.084853 0.642738 0.373973
O O4 0.072639 0.957626 0.418566
O O5 0.725434 0.591405 0.239555
O O6 0.663817 0.431225 0.614801
O O7 0.941469 0.296008 0.412064
O O8 0.280447 0.686353 0.902484
O O9 0.844912 0.795354 0.822438
O O10 0.527204 0.879856 0.006024
O O11 0.604644 0.992136 0.610240
O O12 0.857034 0.165559 0.203525
O O13 0.333289 0.252073 0.949957
O O14 0.874590 0.224437 0.860974
O O15 0.983870 0.939387 0.072378
O O16 0.765987 0.478915 0.905964
#
# Coordination Sequence:
#
# PCOD9000437 Si02
#       8
#     1   1   1   1   1   1   1   1
#     4  10  24  49  78 110 158 209 260 331 396 469
#     4  11  27  50  78 118 156 208 267 331 394 476
#     4  11  26  46  79 114 158 212 261 328 397 477
#     4  11  25  51  76 115 159 208 265 324 397 474
#     4  12  26  48  79 113 160 212 260 328 402 476
#     4  10  24  46  77 111 157 204 268 325 393 467
#     4  12  27  48  81 114 162 208 266 326 404 470
#     4  11  27  48  80 113 158 209 265 327 401 475
#
# _framework density 26.254536999999999
#
# number of rings (size 3 to 8) (size 9 to 14) (size 15 to 20)
#    0.000    1.000    1.250    3.000   10.500    3.000 
#    6.750    0.000    0.000    0.000    0.000    0.000 
#    0.000    0.000    0.000    0.000    0.000    0.000 
#
# Total GULP energy -44538.752737 kJ/mol
# GULP energy per Si atom -5567.344092 kJ/mol
# Density = 2.619478 g / cm^3
# Si number density = 26.254537 Si / 1000 Ang^3
#
#
#
# Elastic Constant Matrix: (Units=GPa)
#
#
# Indices 1 2 3 4 5 6 
#
# 1 133.7602 58.9395 43.6632 -15.6708 -18.7987 26.5982
# 2 58.9395 176.5982 30.5429 -15.0779 -3.9940 16.2509
# 3 43.6632 30.5429 95.9910 -22.0432 2.1720 20.5409
# 4 -15.6708 -15.0779 -22.0432 26.2581 11.5875 -3.3319
# 5 -18.7987 -3.9940 2.1720 11.5875 38.9543 -1.0795
# 6 26.5982 16.2509 20.5409 -3.3319 -1.0795 47.9542
#
#
#
# Elastic Compliance Matrix: (Units=1/GPa)
#
#
# Indices 1 2 3 4 5 6 
#
# 1 0.011340 -0.002738 -0.003856 -0.000974 0.005595 -0.003652
# 2 -0.002738 0.006857 -0.000150 0.002740 -0.001441 -0.000583
# 3 -0.003856 -0.000150 0.016474 0.014057 -0.007088 -0.004050
# 4 -0.000974 0.002740 0.014057 0.058695 -0.018509 -0.002748
# 5 0.005595 -0.001441 -0.007088 -0.018509 0.034122 -0.000097
# 6 -0.003652 -0.000583 -0.004050 -0.002748 -0.000097 0.024618
#
#
# Mechanical properties :
#
#
# Convention : Reuss Voigt Hill
#
# Bulk Modulus (GPa) = 47.20636 74.73784 60.97210
# Shear Modulus (GPa) = 28.95963 40.84693 34.90328
#
# Velocity S-wave (km/s) = 3.32480 3.94865 3.65008
# Velocity P-wave (km/s) = 5.72349 7.02264 6.40609
#
# Compressibility (1/GPa) = 0.02118359
#
# Stress axis : x y z
#
# Youngs Moduli (GPa) = 88.18630 145.82869 60.70121
#
# Poissons Ratio (x) = 0.39933 0.23404
# Poissons Ratio (y) = 0.24148 0.00910
# Poissons Ratio (z) = 0.34001 0.02186
#
# Static dielectric constant tensor:
#      x y z
#    x 2.047750 -0.019660 0.044150 
#    y -0.019660 2.280560 0.086110 
#    z 0.044150 0.086110 2.280850 
# 
# From -- ./inp_files/3037.got.cif
#   From: 2010.05.17/outbox.cif.g08.bks.cpg/sg1_2_cif.got.tgz:3037.got - 2010.05.17 20:27:59.
