data_PCOD9000960
_publ_section_title
;
Structure prediction by ZEFSAII (Michael W. Deem and Ramdas Pophale) SiO2 
 PCOD9000960
Probable space group: P 1
;
_chemical_formula_sum "Si O2"
_cell_formula_units_Z 8
_cell_length_a 11.556718
_cell_length_b 8.036265
_cell_length_c 8.036325
_cell_angle_alpha 34.841314
_cell_angle_beta 136.145273
_cell_angle_gamma 126.615485
_cell_volume 295.401934
_symmetry_space_group_name_H-M "P 1"
_symmetry_group_IT_number 1
_symmetry_cell_setting 'triclinic'
loop_
_space_group_symop_operation_xyz
x,y,z
loop_
_atom_site_type_symbol
_atom_site_label
_atom_site_fract_x
_atom_site_fract_y
_atom_site_fract_z
Si Si1 0.194950 0.458740 0.454080
Si Si2 0.090169 0.327064 0.817829
Si Si3 0.292474 0.882428 0.963115
Si Si4 0.657695 0.971790 0.429880
Si Si5 0.926330 0.930291 0.226962
Si Si6 0.426328 0.407148 0.250099
Si Si7 0.762486 0.503259 0.666342
Si Si8 0.560172 0.560291 0.908658
O O1 0.097886 0.362256 0.597381
O O2 0.382729 0.525872 0.660731
O O3 0.215325 0.182729 0.580624
O O4 0.163286 0.734923 0.080281
O O5 0.268874 0.221734 0.167419
O O6 0.958541 0.092112 0.947403
O O7 0.057075 0.660916 0.567136
O O8 0.340688 0.663085 0.052133
O O9 0.469915 0.952919 0.174971
O O10 0.754758 0.731424 0.623425
O O11 0.637323 0.865633 0.685509
O O12 0.689359 0.313930 0.185357
O O13 0.894117 0.242064 0.032925
O O14 0.795587 0.720858 0.365598
O O15 0.511962 0.519507 0.079775
O O16 0.583783 0.332366 0.592965
#
# Coordination Sequence:
#
# PCOD9000960 Si02
#       8
#     1   1   1   1   1   1   1   1
#     4   9  17  32  52  77 110 148 180 217 278 344
#     4  10  21  38  61  84 112 150 192 232 277 334
#     4   9  18  30  51  83 112 136 178 235 281 318
#     4   9  17  32  52  77 110 148 180 217 278 344
#     4  10  22  38  58  82 116 156 188 220 282 354
#     4  10  22  36  62  92 112 138 192 252 278 308
#     4  10  21  38  61  84 112 150 192 232 277 334
#     4   9  18  30  51  83 112 136 178 235 281 318
#
# _framework density 27.081747
#
# number of rings (size 3 to 8) (size 9 to 14) (size 15 to 20)
#    0.000    2.500    0.000    1.500    0.000   10.000 
#    0.000    0.000    0.000   30.000    0.000    0.000 
#    0.000    0.000    0.000    0.000    0.000    0.000 
#
# Total GULP energy -44564.420455 kJ/mol
# GULP energy per Si atom -5570.552557 kJ/mol
# Density = 2.702011 g / cm^3
# Si number density = 27.081747 Si / 1000 Ang^3
#
#
#
# Elastic Constant Matrix: (Units=GPa)
#
#
# Indices 1 2 3 4 5 6 
#
# 1 104.2404 47.6783 39.2092 -9.8906 3.6552 2.9064
# 2 47.6783 34.0740 44.9724 14.3979 -8.4757 9.9335
# 3 39.2092 44.9724 128.1096 -35.8178 6.4873 14.1276
# 4 -9.8906 14.3979 -35.8178 4.5227 20.8764 -0.8196
# 5 3.6552 -8.4757 6.4873 20.8764 21.7418 -9.9219
# 6 2.9064 9.9335 14.1276 -0.8196 -9.9219 23.4247
#
#
#
# Elastic Compliance Matrix: (Units=1/GPa)
#
#
# Indices 1 2 3 4 5 6 
#
# 1 0.014828 -0.010574 -0.004955 -0.009796 0.008284 0.008799
# 2 -0.010574 0.028170 0.004263 0.025967 -0.023624 -0.022303
# 3 -0.004955 0.004263 0.005878 -0.006779 0.006173 -0.002361
# 4 -0.009796 0.025967 -0.006779 0.000152 0.013691 0.000097
# 5 0.008284 -0.023624 0.006173 0.013691 0.028544 0.017836
# 6 0.008799 -0.022303 -0.002361 0.000097 0.017836 0.060038
#
#
# Mechanical properties :
#
#
# Convention : Reuss Voigt Hill
#
# Bulk Modulus (GPa) = 37.95809 58.90488 48.43149
# Shear Modulus (GPa) = 29.59932 18.90878 24.25405
#
# Velocity S-wave (km/s) = 3.30958 2.64523 2.99588
# Velocity P-wave (km/s) = 5.35266 5.57922 5.46711
#
# Compressibility (1/GPa) = 0.02634484
#
# Stress axis : x y z
#
# Youngs Moduli (GPa) = 67.43904 35.49865 170.12559
#
# Poissons Ratio (x) = 0.37537 0.84294
# Poissons Ratio (y) = 0.71311 -0.72530
# Poissons Ratio (z) = 0.33415 -0.15134
#
# Static dielectric constant tensor:
#      x y z
#    x 2.113490 0.025050 0.035100 
#    y 0.025050 2.218020 0.084890 
#    z 0.035100 0.084890 2.064340 
# 
# From -- ./inp_files/4848.got.cif
#   From: 2010.05.17/outbox.cif.g08.bks.cpg/sg1_3_cif.got.tgz:4848.got - 2010.05.17 20:27:59.
