data_PCOD9000683
_publ_section_title
;
Structure prediction by ZEFSAII (Michael W. Deem and Ramdas Pophale) SiO2 
 PCOD9000683
Probable space group: P 1
;
_chemical_formula_sum "Si O2"
_cell_formula_units_Z 8
_cell_length_a 9.577926
_cell_length_b 5.181635
_cell_length_c 12.676571
_cell_angle_alpha 92.986086
_cell_angle_beta 125.186789
_cell_angle_gamma 121.138142
_cell_volume 381.019965
_symmetry_space_group_name_H-M "P 1"
_symmetry_group_IT_number 1
_symmetry_cell_setting 'triclinic'
loop_
_space_group_symop_operation_xyz
x,y,z
loop_
_atom_site_type_symbol
_atom_site_label
_atom_site_fract_x
_atom_site_fract_y
_atom_site_fract_z
Si Si1 0.123540 0.152130 0.687750
Si Si2 0.261587 0.683472 0.911286
Si Si3 0.915966 0.709788 0.804312
Si Si4 0.595118 0.421764 0.831495
Si Si5 0.729054 0.336458 0.194853
Si Si6 0.757239 0.871535 0.341196
Si Si7 0.257607 0.353949 0.104371
Si Si8 0.848453 0.190207 0.033921
O O1 0.254526 0.540866 0.793530
O O2 0.325008 0.170356 0.733038
O O3 0.993339 0.916643 0.731720
O O4 0.943110 0.033520 0.516729
O O5 0.000471 0.505280 0.816931
O O6 0.325779 0.546663 0.026237
O O7 0.467165 0.095095 0.027832
O O8 0.669141 0.522865 0.742013
O O9 0.085490 0.959601 0.980864
O O10 0.707932 0.263583 0.909337
O O11 0.717453 0.781884 0.956564
O O12 0.806212 0.698638 0.271393
O O13 0.860066 0.322842 0.157885
O O14 0.747664 0.153241 0.296618
O O15 0.501076 0.536379 0.264932
O O16 0.102261 0.392564 0.103656
#
# Coordination Sequence:
#
# PCOD9000683 Si02
#       8
#     1   1   1   1   1   1   1   1
#     4  11  25  40  63  94 130 171 200 261 321 373
#     4  10  18  38  64  89 116 162 216 254 302 369
#     4  10  20  39  66  91 122 162 217 259 304 369
#     4  11  23  39  65 100 121 158 215 265 306 368
#     4  11  22  40  63  91 121 166 213 253 305 374
#     4  11  25  41  59  92 129 166 203 251 319 379
#     4   9  20  37  60  91 121 157 207 261 304 364
#     4  11  21  38  66  94 120 158 215 268 301 356
#
# _framework density 20.996276999999999
#
# number of rings (size 3 to 8) (size 9 to 14) (size 15 to 20)
#    0.000    1.500    3.750    1.500    3.500    0.000 
#    2.250    1.250    0.000    0.000    0.000    0.000 
#    0.000    0.000    0.000    0.000    0.000    0.000 
#
# Total GULP energy -44572.612835 kJ/mol
# GULP energy per Si atom -5571.576604 kJ/mol
# Density = 2.094849 g / cm^3
# Si number density = 20.996277 Si / 1000 Ang^3
#
#
#
# Elastic Constant Matrix: (Units=GPa)
#
#
# Indices 1 2 3 4 5 6 
#
# 1 157.7583 16.0510 40.6302 -7.0752 5.3070 12.4371
# 2 16.0510 51.1052 10.2935 -6.4501 3.4968 -1.3764
# 3 40.6302 10.2935 98.2949 -8.4588 12.0316 13.0912
# 4 -7.0752 -6.4501 -8.4588 12.9180 -4.1770 -2.1393
# 5 5.3070 3.4968 12.0316 -4.1770 21.5851 -1.2158
# 6 12.4371 -1.3764 13.0912 -2.1393 -1.2158 35.3630
#
#
#
# Elastic Compliance Matrix: (Units=1/GPa)
#
#
# Indices 1 2 3 4 5 6 
#
# 1 0.007348 -0.001683 -0.002539 0.001262 0.000034 -0.001632
# 2 -0.001683 0.021587 -0.000998 0.009407 -0.000574 0.002351
# 3 -0.002539 -0.000998 0.012907 0.004029 -0.005847 -0.003881
# 4 0.001262 0.009407 0.004029 0.090593 0.013698 0.004382
# 5 0.000034 -0.000574 -0.005847 0.013698 0.052591 0.004767
# 6 -0.001632 0.002351 -0.003881 0.004382 0.004767 0.030810
#
#
# Mechanical properties :
#
#
# Convention : Reuss Voigt Hill
#
# Bulk Modulus (GPa) = 31.84643 49.01197 40.42920
# Shear Modulus (GPa) = 21.11982 29.98548 25.55265
#
# Velocity S-wave (km/s) = 3.17501 3.78316 3.49235
# Velocity P-wave (km/s) = 5.35177 6.51744 5.96316
#
# Compressibility (1/GPa) = 0.03140069
#
# Stress axis : x y z
#
# Youngs Moduli (GPa) = 136.08754 46.32394 77.47777
#
# Poissons Ratio (x) = 0.07798 0.19673
# Poissons Ratio (y) = 0.22910 0.07733
# Poissons Ratio (z) = 0.34556 0.04624
#
# Static dielectric constant tensor:
#      x y z
#    x 1.841420 0.032110 0.003810 
#    y 0.032110 1.877200 0.014110 
#    z 0.003810 0.014110 1.730630 
# 
# From -- ./inp_files/965.got.cif
#   From: 2010.05.17/outbox.cif.g08.bks.cpg/sg1_1_cif.got.tgz:965.got - 2010.05.17 20:27:59.
