data_PCOD9000732
_publ_section_title
;
Structure prediction by ZEFSAII (Michael W. Deem and Ramdas Pophale) SiO2 
 PCOD9000732
Probable space group: P 1
;
_chemical_formula_sum "Si O2"
_cell_formula_units_Z 8
_cell_length_a 9.299049
_cell_length_b 9.162983
_cell_length_c 9.493530
_cell_angle_alpha 47.024047
_cell_angle_beta 112.985480
_cell_angle_gamma 82.959611
_cell_volume 444.925355
_symmetry_space_group_name_H-M "P 1"
_symmetry_group_IT_number 1
_symmetry_cell_setting 'triclinic'
loop_
_space_group_symop_operation_xyz
x,y,z
loop_
_atom_site_type_symbol
_atom_site_label
_atom_site_fract_x
_atom_site_fract_y
_atom_site_fract_z
Si Si1 0.573260 0.579720 0.981520
Si Si2 0.787984 0.793492 0.982046
Si Si3 0.922765 0.670320 0.796036
Si Si4 0.918486 0.315863 0.479307
Si Si5 0.150110 0.885919 0.662912
Si Si6 0.800729 0.232307 0.788839
Si Si7 0.133561 0.104065 0.209070
Si Si8 0.564315 0.680317 0.592764
O O1 0.597649 0.800126 0.877789
O O2 0.369624 0.654684 0.903888
O O3 0.596222 0.547374 0.843937
O O4 0.748120 0.362461 0.279735
O O5 0.892168 0.724908 0.915642
O O6 0.754826 0.037111 0.866025
O O7 0.909738 0.559363 0.286373
O O8 0.718908 0.745698 0.608073
O O9 0.008972 0.804069 0.674409
O O10 0.068308 0.380902 0.015754
O O11 0.869450 0.290165 0.634490
O O12 0.104386 0.072023 0.649556
O O13 0.127290 0.015199 0.420954
O O14 0.624599 0.483387 0.623671
O O15 0.975544 0.117385 0.041352
O O16 0.346821 0.915089 0.355266
#
# Coordination Sequence:
#
# PCOD9000732 Si02
#       8
#     1   1   1   1   1   1   1   1
#     4   8  20  39  57  84 111 144 198 232 272 327
#     4   9  19  40  55  86 115 148 184 237 281 329
#     4  10  19  37  64  85 107 149 197 231 283 327
#     4  10  20  36  57  85 117 144 184 241 275 329
#     4  11  19  37  64  85 108 148 193 240 274 329
#     4  11  21  37  59  84 121 151 183 225 297 337
#     4  10  22  40  57  86 118 145 192 235 275 343
#     4   9  20  40  59  81 117 153 183 237 279 337
#
# _framework density 17.980543999999998
#
# number of rings (size 3 to 8) (size 9 to 14) (size 15 to 20)
#    0.750    1.500    2.500    0.750    0.000    4.000 
#    4.500    2.500    0.000    0.000    0.000    0.000 
#    0.000    0.000    0.000    0.000    0.000    0.000 
#
# Total GULP energy -44568.796211 kJ/mol
# GULP energy per Si atom -5571.099526 kJ/mol
# Density = 1.793962 g / cm^3
# Si number density = 17.980544 Si / 1000 Ang^3
#
#
#
# Elastic Constant Matrix: (Units=GPa)
#
#
# Indices 1 2 3 4 5 6 
#
# 1 93.5206 49.0338 14.6117 -23.6055 0.0989 -9.6211
# 2 49.0338 110.7605 10.9202 -15.6361 -5.4322 -3.5715
# 3 14.6117 10.9202 28.9332 -8.1253 5.4444 -3.7607
# 4 -23.6055 -15.6361 -8.1253 21.9971 -0.7611 -4.2149
# 5 0.0989 -5.4322 5.4444 -0.7611 26.0284 -8.3503
# 6 -9.6211 -3.5715 -3.7607 -4.2149 -8.3503 25.2763
#
#
#
# Elastic Compliance Matrix: (Units=1/GPa)
#
#
# Indices 1 2 3 4 5 6 
#
# 1 0.019585 -0.005360 -0.001842 0.018659 0.003128 0.010568
# 2 -0.005360 0.012112 -0.001645 0.002541 0.003264 0.000929
# 3 -0.001842 -0.001645 0.041761 0.013017 -0.007048 0.005122
# 4 0.018659 0.002541 0.013017 0.077146 0.007981 0.024899
# 5 0.003128 0.003264 -0.007048 0.007981 0.046327 0.017239
# 6 0.010568 0.000929 0.005122 0.024899 0.017239 0.054326
#
#
# Mechanical properties :
#
#
# Convention : Reuss Voigt Hill
#
# Bulk Modulus (GPa) = 17.93271 42.48286 30.20779
# Shear Modulus (GPa) = 17.38889 25.23693 21.31291
#
# Velocity S-wave (km/s) = 3.11319 3.75049 3.44660
# Velocity P-wave (km/s) = 4.78724 6.51408 5.71625
#
# Compressibility (1/GPa) = 0.05576401
#
# Stress axis : x y z
#
# Youngs Moduli (GPa) = 51.05982 82.56019 23.94575
#
# Poissons Ratio (x) = 0.44254 0.04412
# Poissons Ratio (y) = 0.27369 0.03938
# Poissons Ratio (z) = 0.09407 0.13577
#
# Static dielectric constant tensor:
#      x y z
#    x 1.606360 -0.000310 0.007920 
#    y -0.000310 1.608050 0.002120 
#    z 0.007920 0.002120 1.609430 
# 
# From -- ./inp_files/3915.got.cif
#   From: 2010.05.17/outbox.cif.g08.bks.cpg/sg1_2_cif.got.tgz:3915.got - 2010.05.17 20:27:59.
