data_PCOD9000123
_publ_section_title
;
Structure prediction by ZEFSAII (Michael W. Deem and Ramdas Pophale) SiO2 
 PCOD9000123
Probable space group: P 1
;
_chemical_formula_sum "Si O2"
_cell_formula_units_Z 8
_cell_length_a 9.853755
_cell_length_b 12.565114
_cell_length_c 4.943883
_cell_angle_alpha 92.251305
_cell_angle_beta 107.321117
_cell_angle_gamma 34.677834
_cell_volume 307.749937
_symmetry_space_group_name_H-M "P 1"
_symmetry_group_IT_number 1
_symmetry_cell_setting 'triclinic'
loop_
_space_group_symop_operation_xyz
x,y,z
loop_
_atom_site_type_symbol
_atom_site_label
_atom_site_fract_x
_atom_site_fract_y
_atom_site_fract_z
Si Si1 0.282200 0.962410 0.669350
Si Si2 0.012456 0.439141 0.500262
Si Si3 0.528195 0.908195 0.322857
Si Si4 0.450347 0.311122 0.621260
Si Si5 0.763991 0.495081 0.843137
Si Si6 0.171798 0.665777 0.169153
Si Si7 0.693498 0.335840 0.145658
Si Si8 0.818772 0.934020 0.468956
O O1 0.476065 0.738806 0.692105
O O2 0.386885 0.989845 0.536548
O O3 0.344566 0.960090 0.008646
O O4 0.975046 0.134606 0.436861
O O5 0.806879 0.665248 0.477474
O O6 0.307069 0.301445 0.671925
O O7 0.943717 0.447951 0.157426
O O8 0.601654 0.979878 0.284536
O O9 0.920647 0.404533 0.644761
O O10 0.230150 0.516171 0.334916
O O11 0.673940 0.127465 0.529080
O O12 0.572609 0.311214 0.916331
O O13 0.732344 0.400795 0.947625
O O14 0.465106 0.520598 0.239644
O O15 0.003681 0.837127 0.309564
O O16 0.001672 0.770757 0.804873
#
# Coordination Sequence:
#
# PCOD9000123 Si02
#       8
#     1   1   1   1   1   1   1   1
#     4  10  25  46  77 114 152 211 265 319 397 478
#     4  10  23  48  80 113 152 206 265 332 392 462
#     4  10  21  47  77 113 159 197 264 337 387 468
#     4  12  30  51  84 122 163 210 275 328 402 489
#     4  10  26  48  79 112 158 205 262 332 397 461
#     4  12  28  52  78 116 166 210 268 330 399 476
#     4  12  29  52  81 118 167 213 263 331 400 492
#     4  12  28  50  82 120 161 214 264 339 408 460
#
# _framework density 25.995135000000001
#
# number of rings (size 3 to 8) (size 9 to 14) (size 15 to 20)
#    0.000    1.000    2.500    0.750   12.250    2.000 
#    2.250    0.000    0.000    0.000    0.000    0.000 
#    0.000    0.000    0.000    0.000    0.000    0.000 
#
# Total GULP energy -44939.638121 kJ/mol
# GULP energy per Si atom -5617.454765 kJ/mol
# Density = 2.593597 g / cm^3
# Si number density = 25.995135 Si / 1000 Ang^3
#
#
#
# Elastic Constant Matrix: (Units=GPa)
#
#
# Indices 1 2 3 4 5 6 
#
# 1 134.9195 41.6109 48.9931 -7.0728 3.7756 -24.9564
# 2 41.6109 139.5418 43.2691 -1.0180 6.0661 -20.1839
# 3 48.9931 43.2691 121.3408 3.7900 3.7910 -15.6510
# 4 -7.0728 -1.0180 3.7900 39.7489 -5.0226 -7.2165
# 5 3.7756 6.0661 3.7910 -5.0226 44.5543 1.6870
# 6 -24.9564 -20.1839 -15.6510 -7.2165 1.6870 36.3107
#
#
#
# Elastic Compliance Matrix: (Units=1/GPa)
#
#
# Indices 1 2 3 4 5 6 
#
# 1 0.010076 -0.001236 -0.002995 0.003018 -0.000301 0.005561
# 2 -0.001236 0.008728 -0.002187 0.000681 -0.000943 0.003238
# 3 -0.002995 -0.002187 0.010415 -0.001478 -0.000537 0.000946
# 4 0.003018 0.000681 -0.001478 0.027482 0.002604 0.007157
# 5 -0.000301 -0.000943 -0.000537 0.002604 0.022995 -0.001513
# 6 0.005561 0.003238 0.000946 0.007157 -0.001513 0.035062
#
#
# Mechanical properties :
#
#
# Convention : Reuss Voigt Hill
#
# Bulk Modulus (GPa) = 61.04333 73.72758 67.38546
# Shear Modulus (GPa) = 37.57817 41.58471 39.58144
#
# Velocity S-wave (km/s) = 3.80621 4.00398 3.90635
# Velocity P-wave (km/s) = 6.54598 7.05687 6.80622
#
# Compressibility (1/GPa) = 0.01638181
#
# Stress axis : x y z
#
# Youngs Moduli (GPa) = 99.24561 114.58023 96.01129
#
# Poissons Ratio (x) = 0.14168 0.28756
# Poissons Ratio (y) = 0.12272 0.20998
# Poissons Ratio (z) = 0.29724 0.25059
#
# Static dielectric constant tensor:
#      x y z
#    x 1.993400 0.012180 -0.019590 
#    y 0.012180 2.037130 -0.031600 
#    z -0.019590 -0.031600 1.979750 
# 
# From -- ./inp_files/2469.got.cif
#   From: 2010.05.17/outbox.cif.g08.bks.cpg/sg1_2_cif.got.tgz:2469.got - 2010.05.17 20:27:59.
