data_PCOD9000212
_publ_section_title
;
Structure prediction by ZEFSAII (Michael W. Deem and Ramdas Pophale) SiO2 
 PCOD9000212
Probable space group: P 1
;
_chemical_formula_sum "Si O2"
_cell_formula_units_Z 8
_cell_length_a 7.404755
_cell_length_b 9.494924
_cell_length_c 9.049857
_cell_angle_alpha 134.280279
_cell_angle_beta 89.330124
_cell_angle_gamma 114.381849
_cell_volume 375.749447
_symmetry_space_group_name_H-M "P 1"
_symmetry_group_IT_number 1
_symmetry_cell_setting 'triclinic'
loop_
_space_group_symop_operation_xyz
x,y,z
loop_
_atom_site_type_symbol
_atom_site_label
_atom_site_fract_x
_atom_site_fract_y
_atom_site_fract_z
Si Si1 0.358720 0.201740 0.546400
Si Si2 0.534454 0.746651 0.278643
Si Si3 0.798779 0.224900 0.501569
Si Si4 0.408291 0.991223 0.681347
Si Si5 0.199248 0.959531 0.074281
Si Si6 0.572656 0.378463 0.188121
Si Si7 0.968911 0.619201 0.580839
Si Si8 0.240086 0.560790 0.884223
O O1 0.590230 0.242924 0.529716
O O2 0.352652 0.433457 0.726342
O O3 0.322383 0.091957 0.630570
O O4 0.188839 0.029777 0.294262
O O5 0.525777 0.892212 0.519558
O O6 0.561845 0.551390 0.201665
O O7 0.713136 0.950787 0.315869
O O8 0.311693 0.623354 0.098070
O O9 0.924197 0.372738 0.462811
O O10 0.980014 0.374473 0.734307
O O11 0.198401 0.781425 0.615487
O O12 0.571550 0.190243 0.942239
O O13 0.359116 0.205407 0.165124
O O14 0.301347 0.801571 0.977633
O O15 0.991920 0.780751 0.840843
O O16 0.773976 0.538968 0.411798
#
# Coordination Sequence:
#
# PCOD9000212 Si02
#       8
#     1   1   1   1   1   1   1   1
#     4  11  21  44  68 100 130 173 219 271 326 385
#     4  11  23  42  66  96 132 171 216 274 322 388
#     4  10  23  43  65 100 129 170 222 264 323 396
#     4  10  23  40  65  95 130 167 215 274 321 377
#     4  10  22  43  65  92 139 163 216 278 312 390
#     4  11  22  41  65  94 133 166 212 270 325 386
#     4  10  22  43  65  92 134 171 206 272 328 380
#     4  11  22  42  69  95 133 173 218 269 327 386
#
# _framework density 21.290783000000001
#
# number of rings (size 3 to 8) (size 9 to 14) (size 15 to 20)
#    0.000    1.500    5.000    0.000    1.750    5.000 
#    4.500    2.500    2.750    0.000    0.000    0.000 
#    0.000    0.000    0.000    0.000    0.000    0.000 
#
# Total GULP energy -44613.500183 kJ/mol
# GULP energy per Si atom -5576.687523 kJ/mol
# Density = 2.124232 g / cm^3
# Si number density = 21.290783 Si / 1000 Ang^3
#
#
#
# Elastic Constant Matrix: (Units=GPa)
#
#
# Indices 1 2 3 4 5 6 
#
# 1 45.4278 18.3849 27.5973 9.2769 13.0026 -6.1827
# 2 18.3849 111.8268 14.3977 16.1015 5.1568 -9.7098
# 3 27.5973 14.3977 108.4348 -13.9634 18.2951 -6.6633
# 4 9.2769 16.1015 -13.9634 42.4156 -9.0068 -1.5628
# 5 13.0026 5.1568 18.2951 -9.0068 39.0998 -1.2311
# 6 -6.1827 -9.7098 -6.6633 -1.5628 -1.2311 13.4500
#
#
#
# Elastic Compliance Matrix: (Units=1/GPa)
#
#
# Indices 1 2 3 4 5 6 
#
# 1 0.033386 -0.001809 -0.007533 -0.010828 -0.009576 0.008175
# 2 -0.001809 0.010462 -0.000896 -0.003888 -0.001074 0.005727
# 3 -0.007533 -0.000896 0.012467 0.005807 -0.001791 0.002577
# 4 -0.010828 -0.003888 0.005807 0.031129 0.008551 -0.000508
# 5 -0.009576 -0.001074 -0.001791 0.008551 0.031641 -0.002175
# 6 0.008175 0.005727 0.002577 -0.000508 -0.002175 0.083260
#
#
# Mechanical properties :
#
#
# Convention : Reuss Voigt Hill
#
# Bulk Modulus (GPa) = 27.90301 42.93878 35.42090
# Shear Modulus (GPa) = 21.29777 32.68039 26.98908
#
# Velocity S-wave (km/s) = 3.16623 3.92210 3.56426
# Velocity P-wave (km/s) = 5.14789 6.38138 5.79754
#
# Compressibility (1/GPa) = 0.03583842
#
# Stress axis : x y z
#
# Youngs Moduli (GPa) = 29.95292 95.58613 80.21417
#
# Poissons Ratio (x) = 0.17287 0.60426
# Poissons Ratio (y) = 0.05417 0.07190
# Poissons Ratio (z) = 0.22564 0.08567
#
# Static dielectric constant tensor:
#      x y z
#    x 1.762430 -0.007410 0.010660 
#    y -0.007410 1.809910 -0.007540 
#    z 0.010660 -0.007540 1.794760 
# 
# From -- ./inp_files/4036.got.cif
#   From: 2010.05.17/outbox.cif.g08.bks.cpg/sg1_3_cif.got.tgz:4036.got - 2010.05.17 20:27:59.
