data_PCOD9000987
_publ_section_title
;
Structure prediction by ZEFSAII (Michael W. Deem and Ramdas Pophale) SiO2 
 PCOD9000987
Probable space group: P -1
;
_chemical_formula_sum "Si O2"
_cell_formula_units_Z 16
_cell_length_a 5.011204
_cell_length_b 11.337149
_cell_length_c 14.819574
_cell_angle_alpha 118.845803
_cell_angle_beta 120.320107
_cell_angle_gamma 62.729859
_cell_volume 610.415302
_symmetry_space_group_name_H-M "P -1"
_symmetry_group_IT_number 2
_symmetry_cell_setting 'triclinic'
loop_
_space_group_symop_operation_xyz
x,y,z
-x,-y,-z
loop_
_atom_site_type_symbol
_atom_site_label
_atom_site_fract_x
_atom_site_fract_y
_atom_site_fract_z
Si Si1 0.851958 0.006832 0.686798
Si Si2 0.563820 0.942581 0.798259
Si Si3 0.438498 0.630374 0.411541
Si Si4 0.719312 0.631805 0.656872
Si Si5 0.262078 0.585226 0.067343
Si Si6 0.615841 0.382301 0.181101
Si Si7 0.904059 0.788604 0.952547
Si Si8 0.798656 0.802223 0.435652
O O1 0.789883 0.961864 0.761809
O O2 0.861612 0.893917 0.565434
O O3 0.198658 0.037769 0.759523
O O4 0.521068 0.121139 0.645739
O O5 0.540650 0.785100 0.720057
O O6 0.718318 0.933898 0.922409
O O7 0.570825 0.619764 0.531365
O O8 0.326078 0.489759 0.328872
O O9 0.712920 0.669732 0.416187
O O10 0.109300 0.758460 0.408028
O O11 0.092094 0.624197 0.704116
O O12 0.458013 0.541878 0.177396
O O13 0.500000 0.500000 0.000000
O O14 0.099965 0.744621 0.064532
O O15 0.000000 0.500000 0.000000
O O16 0.828513 0.290236 0.102428
O O17 0.353325 0.299887 0.118673
#
# Coordination Sequence:
#
# PCOD9000987 Si02
#       8
#     2   2   2   2   2   2   2   2
#     4  11  21  34  53  66  92 121 166 201 242 279
#     4  11  19  32  49  75  95 123 155 194 243 286
#     4  11  23  34  50  67  99 126 168 196 234 277
#     4  10  21  33  48  73  98 131 155 197 234 284
#     4   8  14  26  40  63  90 125 151 177 220 278
#     4   9  17  28  44  63  95 128 157 178 224 283
#     4   9  17  26  45  67  96 121 149 189 228 284
#     4  11  22  38  49  67  88 129 165 208 236 272
#
# _framework density 26.211662
#
# number of rings (size 3 to 8) (size 9 to 14) (size 15 to 20)
#    0.000    2.000    2.500    2.250    0.000    7.000 
#    0.000    0.000    0.000    0.000    0.000    0.000 
#    0.000    6.000    0.000    0.000    0.000    0.000 
#
# Total GULP energy -89357.809983 kJ/mol
# GULP energy per Si atom -5584.863124 kJ/mol
# Density = 2.615200 g / cm^3
# Si number density = 26.211662 Si / 1000 Ang^3
#
#
#
# Elastic Constant Matrix: (Units=GPa)
#
#
# Indices 1 2 3 4 5 6 
#
# 1 319.1730 0.0106 -133.5974 25.2819 56.6032 -62.0050
# 2 0.0106 38.1561 17.5765 -6.1663 10.5977 -10.2830
# 3 -133.5974 17.5765 149.2206 -40.5463 -14.2373 23.7547
# 4 25.2819 -6.1663 -40.5463 51.3672 -2.7979 1.1619
# 5 56.6032 10.5977 -14.2373 -2.7979 51.3833 -31.3179
# 6 -62.0050 -10.2830 23.7547 1.1619 -31.3179 44.3785
#
#
#
# Elastic Compliance Matrix: (Units=1/GPa)
#
#
# Indices 1 2 3 4 5 6 
#
# 1 0.006621 -0.000260 0.005119 0.000479 -0.003284 0.004120
# 2 -0.000260 0.031712 -0.005794 -0.000985 -0.003071 0.007944
# 3 0.005119 -0.005794 0.014610 0.008280 -0.002286 -0.003841
# 4 0.000479 -0.000985 0.008280 0.025791 0.000930 -0.004010
# 5 -0.003284 -0.003071 -0.002286 0.000930 0.036202 0.021447
# 6 0.004120 0.007944 -0.003841 -0.004010 0.021447 0.047426
#
#
# Mechanical properties :
#
#
# Convention : Reuss Voigt Hill
#
# Bulk Modulus (GPa) = 19.57981 30.50323 25.04152
# Shear Modulus (GPa) = 27.58556 70.92979 49.25768
#
# Velocity S-wave (km/s) = 3.24761 5.20760 4.33971
# Velocity P-wave (km/s) = 4.64207 6.91530 5.88940
#
# Compressibility (1/GPa) = 0.05107301
#
# Stress axis : x y z
#
# Youngs Moduli (GPa) = 151.04333 31.53415 68.44612
#
# Poissons Ratio (x) = 0.00820 -0.35038
# Poissons Ratio (y) = 0.03929 0.39655
# Poissons Ratio (z) = -0.77320 0.18269
#
# Static dielectric constant tensor:
#      x y z
#    x 2.034570 -0.031930 -0.037590 
#    y -0.031930 2.127570 -0.014450 
#    z -0.037590 -0.014450 2.177890 
# 
# From -- ./inp_files/126684.got.cif
#   From: 2010.05.17/outbox.cif.g08.bks.cpg/sg2_64_cif.got.tgz:126684.got - 2010.06.03 11:33:40.
