data_PCOD9000536
_publ_section_title
;
Structure prediction by ZEFSAII (Michael W. Deem and Ramdas Pophale) SiO2 
 PCOD9000536
Probable space group: P 1
;
_chemical_formula_sum "Si O2"
_cell_formula_units_Z 8
_cell_length_a 10.872428
_cell_length_b 5.710157
_cell_length_c 8.375741
_cell_angle_alpha 74.628020
_cell_angle_beta 137.132034
_cell_angle_gamma 101.769818
_cell_volume 341.064472
_symmetry_space_group_name_H-M "P 1"
_symmetry_group_IT_number 1
_symmetry_cell_setting 'triclinic'
loop_
_space_group_symop_operation_xyz
x,y,z
loop_
_atom_site_type_symbol
_atom_site_label
_atom_site_fract_x
_atom_site_fract_y
_atom_site_fract_z
Si Si1 0.145140 0.767760 0.507810
Si Si2 0.704225 0.293175 0.176598
Si Si3 0.546316 0.612233 0.345566
Si Si4 0.767283 0.868004 0.057846
Si Si5 0.929881 0.456883 0.630959
Si Si6 0.430804 0.809810 0.540924
Si Si7 0.243165 0.211397 0.103934
Si Si8 0.343974 0.039264 0.906451
O O1 0.057685 0.603045 0.598020
O O2 0.305154 0.659195 0.572591
O O3 0.237878 0.988038 0.653823
O O4 0.978563 0.847773 0.225332
O O5 0.726715 0.581689 0.112106
O O6 0.822085 0.258113 0.455534
O O7 0.761274 0.086918 0.141701
O O8 0.492122 0.248949 0.998739
O O9 0.500378 0.680829 0.471421
O O10 0.425435 0.373830 0.241993
O O11 0.759423 0.595293 0.518938
O O12 0.463682 0.808310 0.110902
O O13 0.609004 0.921858 0.773403
O O14 0.062575 0.366703 0.912547
O O15 0.293169 0.015420 0.316634
O O16 0.219247 0.084190 0.931586
#
# Coordination Sequence:
#
# PCOD9000536 Si02
#       8
#     1   1   1   1   1   1   1   1
#     4  11  24  46  78 111 144 193 261 317 369 447
#     4  11  23  44  79 109 150 192 254 313 373 435
#     4  11  25  47  71 106 155 201 244 309 385 451
#     4  11  26  47  72 114 151 200 244 316 378 448
#     4  11  24  45  82 107 142 197 264 310 369 449
#     4  11  28  47  72 105 160 198 244 309 392 447
#     4  11  25  45  71 109 146 199 247 310 379 456
#     4  11  21  43  77 105 146 192 254 310 375 439
#
# _framework density 23.455974000000001
#
# number of rings (size 3 to 8) (size 9 to 14) (size 15 to 20)
#    0.000    1.000    3.750    2.250    3.500    2.000 
#    4.500    0.000    0.000    0.000    0.000    0.000 
#    0.000    0.000    0.000    0.000    0.000    0.000 
#
# Total GULP energy -44644.125524 kJ/mol
# GULP energy per Si atom -5580.515690 kJ/mol
# Density = 2.340259 g / cm^3
# Si number density = 23.455974 Si / 1000 Ang^3
#
#
#
# Elastic Constant Matrix: (Units=GPa)
#
#
# Indices 1 2 3 4 5 6 
#
# 1 124.9114 40.8895 68.4764 3.3973 20.2960 1.0727
# 2 40.8895 89.8114 20.8536 2.3919 -0.6658 3.4488
# 3 68.4764 20.8536 139.0071 7.3413 29.9778 1.6174
# 4 3.3973 2.3919 7.3413 40.4641 -8.7767 5.3678
# 5 20.2960 -0.6658 29.9778 -8.7767 28.7725 4.5823
# 6 1.0727 3.4488 1.6174 5.3678 4.5823 16.7276
#
#
#
# Elastic Compliance Matrix: (Units=1/GPa)
#
#
# Indices 1 2 3 4 5 6 
#
# 1 0.012971 -0.004990 -0.004381 -0.001567 -0.005602 0.002658
# 2 -0.004990 0.013810 -0.000970 0.001724 0.006119 -0.004663
# 3 -0.004381 -0.000970 0.012271 -0.004925 -0.011877 0.004128
# 4 -0.001567 0.001724 -0.004925 0.031582 0.018287 -0.014923
# 5 -0.005602 0.006119 -0.011877 0.018287 0.060328 -0.022148
# 6 0.002658 -0.004663 0.004128 -0.014923 -0.022148 0.071029
#
#
# Mechanical properties :
#
#
# Convention : Reuss Voigt Hill
#
# Bulk Modulus (GPa) = 54.43784 68.24096 61.33940
# Shear Modulus (GPa) = 21.85342 32.09352 26.97347
#
# Velocity S-wave (km/s) = 3.05565 3.70299 3.39479
# Velocity P-wave (km/s) = 5.97564 6.88762 6.44777
#
# Compressibility (1/GPa) = 0.01836958
#
# Stress axis : x y z
#
# Youngs Moduli (GPa) = 77.09610 72.41121 81.49320
#
# Poissons Ratio (x) = 0.36133 0.35703
# Poissons Ratio (y) = 0.38471 0.07905
# Poissons Ratio (z) = 0.33777 0.07024
#
# Static dielectric constant tensor:
#      x y z
#    x 1.949640 0.012040 -0.024600 
#    y 0.012040 1.942620 -0.061260 
#    z -0.024600 -0.061260 1.901140 
# 
# From -- ./inp_files/1714.got.cif
#   From: 2010.05.17/outbox.cif.g08.bks.cpg/sg1_1_cif.got.tgz:1714.got - 2010.05.17 20:27:59.
