data_PCOD9000183
_publ_section_title
;
Structure prediction by ZEFSAII (Michael W. Deem and Ramdas Pophale) SiO2 
 PCOD9000183
Probable space group: P 1
;
_chemical_formula_sum "Si O2"
_cell_formula_units_Z 8
_cell_length_a 9.236230
_cell_length_b 11.655095
_cell_length_c 8.918691
_cell_angle_alpha 56.374097
_cell_angle_beta 50.411318
_cell_angle_gamma 24.514570
_cell_volume 305.974413
_symmetry_space_group_name_H-M "P 1"
_symmetry_group_IT_number 1
_symmetry_cell_setting 'triclinic'
loop_
_space_group_symop_operation_xyz
x,y,z
loop_
_atom_site_type_symbol
_atom_site_label
_atom_site_fract_x
_atom_site_fract_y
_atom_site_fract_z
Si Si1 0.830370 0.381690 0.373900
Si Si2 0.696315 0.104467 0.745731
Si Si3 0.542220 0.671272 0.976445
Si Si4 0.331267 0.049225 0.024996
Si Si5 0.485068 0.706271 0.640355
Si Si6 0.040924 0.835444 0.413341
Si Si7 0.228875 0.402439 0.106230
Si Si8 0.764671 0.840969 0.328179
O O1 0.785995 0.422973 0.552168
O O2 0.435651 0.571846 0.435732
O O3 0.164715 0.100587 0.258146
O O4 0.901189 0.500439 0.204939
O O5 0.084453 0.919672 0.682377
O O6 0.729156 0.085867 0.556782
O O7 0.603340 0.003805 0.913002
O O8 0.390660 0.362599 0.875041
O O9 0.178995 0.849519 0.180900
O O10 0.936184 0.350310 0.994063
O O11 0.545333 0.824294 0.922881
O O12 0.488192 0.680496 0.832283
O O13 0.579405 0.807625 0.484270
O O14 0.895428 0.800708 0.436858
O O15 0.103164 0.598235 0.163657
O O16 0.509925 0.122716 0.217698
#
# Coordination Sequence:
#
# PCOD9000183 Si02
#       8
#     1   1   1   1   1   1   1   1
#     4   8  20  39  64  90 124 162 210 258 314 370
#     4  10  22  41  68  98 130 168 216 264 322 380
#     4  11  24  44  67  94 131 170 214 263 320 380
#     4  10  23  45  67  93 128 171 213 266 320 380
#     4  10  22  43  66  97 130 171 214 264 318 382
#     4  10  22  43  66  97 130 171 214 264 318 382
#     4  10  23  45  67  93 128 171 213 266 320 380
#     4  11  24  44  67  94 131 170 214 263 320 380
#
# _framework density 26.145976000000001
#
# number of rings (size 3 to 8) (size 9 to 14) (size 15 to 20)
#    0.000    2.000    0.000    1.500    0.000   20.000 
#    0.000   20.000    0.000    0.000    0.000    0.000 
#    0.000    0.000    0.000    0.000    0.000    0.000 
#
# Total GULP energy -44726.554770 kJ/mol
# GULP energy per Si atom -5590.819346 kJ/mol
# Density = 2.608647 g / cm^3
# Si number density = 26.145976 Si / 1000 Ang^3
#
#
#
# Elastic Constant Matrix: (Units=GPa)
#
#
# Indices 1 2 3 4 5 6 
#
# 1 188.2611 41.6820 81.0751 4.3154 34.1177 -5.5196
# 2 41.6820 117.4215 44.6790 19.8085 26.3208 14.3663
# 3 81.0751 44.6790 192.5536 29.7784 50.0212 6.0622
# 4 4.3154 19.8085 29.7784 28.7277 7.0620 3.3862
# 5 34.1177 26.3208 50.0212 7.0620 72.7769 7.7005
# 6 -5.5196 14.3663 6.0622 3.3862 7.7005 22.7625
#
#
#
# Elastic Compliance Matrix: (Units=1/GPa)
#
#
# Indices 1 2 3 4 5 6 
#
# 1 0.007320 -0.002237 -0.002822 0.003253 -0.001414 0.003933
# 2 -0.002237 0.011594 -0.000099 -0.006375 -0.001793 -0.006278
# 3 -0.002822 -0.000099 0.008531 -0.007370 -0.003733 -0.000535
# 4 0.003253 -0.006375 -0.007370 0.046070 0.001436 -0.000564
# 5 -0.001414 -0.001793 -0.003733 0.001436 0.017955 -0.004505
# 6 0.003933 -0.006278 -0.000535 -0.000564 -0.004505 0.050598
#
#
# Mechanical properties :
#
#
# Convention : Reuss Voigt Hill
#
# Bulk Modulus (GPa) = 58.38493 92.56760 75.47627
# Shear Modulus (GPa) = 31.62676 46.90673 39.26675
#
# Velocity S-wave (km/s) = 3.48174 4.24020 3.87955
# Velocity P-wave (km/s) = 6.20823 7.71060 6.99984
#
# Compressibility (1/GPa) = 0.01712771
#
# Stress axis : x y z
#
# Youngs Moduli (GPa) = 136.61952 86.25418 117.21978
#
# Poissons Ratio (x) = 0.19298 0.33083
# Poissons Ratio (y) = 0.30566 0.01156
# Poissons Ratio (z) = 0.38558 0.00851
#
# Static dielectric constant tensor:
#      x y z
#    x 2.092530 0.050560 -0.047480 
#    y 0.050560 2.161410 -0.042910 
#    z -0.047480 -0.042910 2.103210 
# 
# From -- ./inp_files/3046.got.cif
#   From: 2010.05.17/outbox.cif.g08.bks.cpg/sg1_2_cif.got.tgz:3046.got - 2010.05.17 20:27:59.
