data_PCOD9000597
_publ_section_title
;
Structure prediction by ZEFSAII (Michael W. Deem and Ramdas Pophale) SiO2 
 PCOD9000597
Probable space group: P 1
;
_chemical_formula_sum "Si O2"
_cell_formula_units_Z 8
_cell_length_a 11.749889
_cell_length_b 5.641582
_cell_length_c 9.437908
_cell_angle_alpha 89.910818
_cell_angle_beta 36.549720
_cell_angle_gamma 77.635975
_cell_volume 347.953133
_symmetry_space_group_name_H-M "P 1"
_symmetry_group_IT_number 1
_symmetry_cell_setting 'triclinic'
loop_
_space_group_symop_operation_xyz
x,y,z
loop_
_atom_site_type_symbol
_atom_site_label
_atom_site_fract_x
_atom_site_fract_y
_atom_site_fract_z
Si Si1 0.337300 0.661510 0.496030
Si Si2 0.337734 0.160751 0.062932
Si Si3 0.954526 0.352052 0.248084
Si Si4 0.601609 0.260114 0.034115
Si Si5 0.045092 0.419760 0.853924
Si Si6 0.071784 0.064170 0.563956
Si Si7 0.628768 0.904000 0.271018
Si Si8 0.721464 0.967477 0.482032
O O1 0.524210 0.511097 0.206216
O O2 0.430797 0.828687 0.493976
O O3 0.243911 0.493148 0.680394
O O4 0.149677 0.813564 0.581468
O O5 0.442993 0.299038 0.065671
O O6 0.230584 0.024640 0.278222
O O7 0.151503 0.313145 0.148241
O O8 0.525716 0.006302 0.776151
O O9 0.837684 0.659715 0.367075
O O10 0.838627 0.159218 0.410117
O O11 0.015031 0.276906 0.023891
O O12 0.592924 0.053579 0.159190
O O13 0.836683 0.161791 0.751573
O O14 0.080125 0.271661 0.671067
O O15 0.837127 0.662240 0.051072
O O16 0.658737 0.044915 0.381456
#
# Coordination Sequence:
#
# PCOD9000597 Si02
#       8
#     1   1   1   1   1   1   1   1
#     4  12  24  42  76 110 146 192 242 314 378 432
#     4  12  28  46  76 106 152 208 238 306 376 466
#     4  11  29  52  75 111 154 199 251 307 374 448
#     4  12  25  45  71 110 146 189 252 307 371 436
#     4  11  24  45  76 107 144 192 250 318 362 433
#     4  12  25  45  71 110 146 189 252 307 371 436
#     4  11  24  45  76 107 144 192 250 318 362 433
#     4  11  29  52  75 111 154 199 251 307 374 448
#
# _framework density 22.991603000000001
#
# number of rings (size 3 to 8) (size 9 to 14) (size 15 to 20)
#    0.000    0.500    5.000    1.500    7.000    6.000 
#    0.000    0.000    0.000    0.000    0.000    0.000 
#    0.000    0.000    0.000    0.000    0.000    0.000 
#
# Total GULP energy -44677.277949 kJ/mol
# GULP energy per Si atom -5584.659744 kJ/mol
# Density = 2.293927 g / cm^3
# Si number density = 22.991603 Si / 1000 Ang^3
#
#
#
# Elastic Constant Matrix: (Units=GPa)
#
#
# Indices 1 2 3 4 5 6 
#
# 1 165.5251 24.1961 29.0594 16.7468 -14.5635 29.7526
# 2 24.1961 86.0771 49.2647 -9.5800 -10.3004 -4.0419
# 3 29.0594 49.2647 160.4658 -33.9526 -13.9430 -18.0725
# 4 16.7468 -9.5800 -33.9526 53.3645 0.9847 8.9890
# 5 -14.5635 -10.3004 -13.9430 0.9847 41.7474 -5.5292
# 6 29.7526 -4.0419 -18.0725 8.9890 -5.5292 46.3390
#
#
#
# Elastic Compliance Matrix: (Units=1/GPa)
#
#
# Indices 1 2 3 4 5 6 
#
# 1 0.008046 -0.001488 -0.002216 -0.003314 0.001064 -0.005390
# 2 -0.001488 0.014551 -0.003840 0.000456 0.001893 0.000865
# 3 -0.002216 -0.003840 0.009564 0.005383 0.001876 0.003998
# 4 -0.003314 0.000456 0.005383 0.023322 0.000173 -0.000237
# 5 0.001064 0.001893 0.001876 0.000173 0.025847 0.003264
# 6 -0.005390 0.000865 0.003998 -0.000237 0.003264 0.027111
#
#
# Mechanical properties :
#
#
# Convention : Reuss Voigt Hill
#
# Bulk Modulus (GPa) = 58.56894 68.56760 63.56827
# Shear Modulus (GPa) = 38.69393 48.92668 43.81031
#
# Velocity S-wave (km/s) = 4.10684 4.61806 4.36993
# Velocity P-wave (km/s) = 6.92947 7.63694 7.29179
#
# Compressibility (1/GPa) = 0.01707390
#
# Stress axis : x y z
#
# Youngs Moduli (GPa) = 124.29159 68.72346 104.55579
#
# Poissons Ratio (x) = 0.10226 0.23169
# Poissons Ratio (y) = 0.18494 0.40146
# Poissons Ratio (z) = 0.27542 0.26387
#
# Static dielectric constant tensor:
#      x y z
#    x 1.842350 0.003690 -0.018420 
#    y 0.003690 1.885400 0.007780 
#    z -0.018420 0.007780 1.849760 
# 
# From -- ./inp_files/2210.got.cif
#   From: 2010.05.17/outbox.cif.g08.bks.cpg/sg1_2_cif.got.tgz:2210.got - 2010.05.17 20:27:59.
