data_PCOD9000320
_publ_section_title
;
Structure prediction by ZEFSAII (Michael W. Deem and Ramdas Pophale) SiO2 
 PCOD9000320
Probable space group: P 1
;
_chemical_formula_sum "Si O2"
_cell_formula_units_Z 8
_cell_length_a 10.915728
_cell_length_b 9.021586
_cell_length_c 14.105190
_cell_angle_alpha 29.130354
_cell_angle_beta 150.410375
_cell_angle_gamma 139.743951
_cell_volume 333.851243
_symmetry_space_group_name_H-M "P 1"
_symmetry_group_IT_number 1
_symmetry_cell_setting 'triclinic'
loop_
_space_group_symop_operation_xyz
x,y,z
loop_
_atom_site_type_symbol
_atom_site_label
_atom_site_fract_x
_atom_site_fract_y
_atom_site_fract_z
Si Si1 0.168400 0.743130 0.994310
Si Si2 0.161288 0.728962 0.224957
Si Si3 0.850497 0.186667 0.103253
Si Si4 0.874893 0.602272 0.345543
Si Si5 0.685429 0.789101 0.356448
Si Si6 0.738366 0.169712 0.672827
Si Si7 0.853686 0.194645 0.404227
Si Si8 0.445726 0.680852 0.622632
O O1 0.180584 0.758187 0.108380
O O2 0.446726 0.830069 0.105436
O O3 0.988588 0.968008 0.694039
O O4 0.075524 0.402932 0.100886
O O5 0.384818 0.791758 0.412936
O O6 0.051593 0.393591 0.364451
O O7 0.954591 0.974484 0.971662
O O8 0.910674 0.944450 0.362558
O O9 0.650235 0.419322 0.885007
O O10 0.793940 0.948000 0.115005
O O11 0.171738 0.589467 0.529098
O O12 0.825058 0.387577 0.522383
O O13 0.732391 0.447357 0.247950
O O14 0.673294 0.426871 0.563182
O O15 0.684594 0.992142 0.335561
O O16 0.556557 0.925881 0.634669
#
# Coordination Sequence:
#
# PCOD9000320 Si02
#       8
#     1   1   1   1   1   1   1   1
#     4  12  24  44  71  98 140 179 225 284 342 397
#     4  11  24  43  70 100 136 180 227 277 342 407
#     4  11  23  45  71 102 140 175 233 286 328 418
#     4  10  23  42  72  99 136 181 224 281 341 396
#     4  11  25  41  73 103 135 183 229 278 350 403
#     4  11  23  46  67 104 138 175 233 283 332 417
#     4  11  23  45  70  98 137 182 227 279 342 410
#     4  11  23  44  70  96 144 179 222 290 341 392
#
# _framework density 23.962769999999999
#
# number of rings (size 3 to 8) (size 9 to 14) (size 15 to 20)
#    0.000    1.000    3.750    2.250    3.500    3.000 
#    0.000    0.000    0.000    0.000    0.000    0.000 
#    0.000    0.000    0.000    0.000    0.000    0.000 
#
# Total GULP energy -44609.878827 kJ/mol
# GULP energy per Si atom -5576.234853 kJ/mol
# Density = 2.390823 g / cm^3
# Si number density = 23.962770 Si / 1000 Ang^3
#
#
#
# Elastic Constant Matrix: (Units=GPa)
#
#
# Indices 1 2 3 4 5 6 
#
# 1 61.4673 27.6312 2.9499 -8.5227 -3.2660 0.9433
# 2 27.6312 202.3915 61.1833 -33.9258 18.5464 -28.5519
# 3 2.9499 61.1833 77.8249 -5.8589 -4.4790 -10.5985
# 4 -8.5227 -33.9258 -5.8589 32.5067 -3.5605 4.0887
# 5 -3.2660 18.5464 -4.4790 -3.5605 36.5709 -10.5481
# 6 0.9433 -28.5519 -10.5985 4.0887 -10.5481 41.6344
#
#
#
# Elastic Compliance Matrix: (Units=1/GPa)
#
#
# Indices 1 2 3 4 5 6 
#
# 1 0.018130 -0.003198 0.001987 0.002321 0.003279 -0.001495
# 2 -0.003198 0.009319 -0.006519 0.006862 -0.004262 0.003050
# 3 0.001987 -0.006519 0.018315 -0.002563 0.006033 0.001927
# 4 0.002321 0.006862 -0.002563 0.038054 0.000210 0.000317
# 5 0.003279 -0.004262 0.006033 0.000210 0.032506 0.006753
# 6 -0.001495 0.003050 0.001927 0.000317 0.006753 0.028315
#
#
# Mechanical properties :
#
#
# Convention : Reuss Voigt Hill
#
# Bulk Modulus (GPa) = 32.99773 58.35696 45.67734
# Shear Modulus (GPa) = 29.37703 38.80369 34.09036
#
# Velocity S-wave (km/s) = 3.50515 4.02846 3.77588
# Velocity P-wave (km/s) = 5.49379 6.78557 6.17356
#
# Compressibility (1/GPa) = 0.03030511
#
# Stress axis : x y z
#
# Youngs Moduli (GPa) = 55.15679 107.30435 54.59866
#
# Poissons Ratio (x) = 0.34319 -0.10848
# Poissons Ratio (y) = 0.17640 0.35591
# Poissons Ratio (z) = -0.10959 0.69947
#
# Static dielectric constant tensor:
#      x y z
#    x 2.078150 -0.020950 0.053510 
#    y -0.020950 1.944960 -0.035690 
#    z 0.053510 -0.035690 1.912240 
# 
# From -- ./inp_files/5771.got.cif
#   From: 2010.05.17/outbox.cif.g08.bks.cpg/sg1_3_cif.got.tgz:5771.got - 2010.05.17 20:27:59.
