data_PCOD9000104
_publ_section_title
;
Structure prediction by ZEFSAII (Michael W. Deem and Ramdas Pophale) SiO2 
 PCOD9000104
Probable space group: P 1
;
_chemical_formula_sum "Si O2"
_cell_formula_units_Z 8
_cell_length_a 6.873063
_cell_length_b 8.849459
_cell_length_c 8.052290
_cell_angle_alpha 90.004604
_cell_angle_beta 122.158886
_cell_angle_gamma 122.713709
_cell_volume 319.123840
_symmetry_space_group_name_H-M "P 1"
_symmetry_group_IT_number 1
_symmetry_cell_setting 'triclinic'
loop_
_space_group_symop_operation_xyz
x,y,z
loop_
_atom_site_type_symbol
_atom_site_label
_atom_site_fract_x
_atom_site_fract_y
_atom_site_fract_z
Si Si1 0.436210 0.284880 0.123130
Si Si2 0.260174 0.643582 0.714227
Si Si3 0.786789 0.182568 0.392762
Si Si4 0.272605 0.326205 0.394361
Si Si5 0.811167 0.706631 0.119304
Si Si6 0.414754 0.946498 0.544123
Si Si7 0.942568 0.298957 0.945633
Si Si8 0.910716 0.625329 0.817808
O O1 0.556115 0.166492 0.159296
O O2 0.414150 0.280036 0.316004
O O3 0.665163 0.496646 0.139256
O O4 0.119526 0.231697 0.939044
O O5 0.382096 0.764388 0.599015
O O6 0.019529 0.411786 0.561120
O O7 0.097036 0.715465 0.734161
O O8 0.537885 0.702191 0.951117
O O9 0.010408 0.165664 0.397253
O O10 0.609325 0.038250 0.464803
O O11 0.559787 0.499036 0.624739
O O12 0.100767 0.371273 0.196037
O O13 0.085052 0.869154 0.357751
O O14 0.964379 0.735493 0.011257
O O15 0.598520 0.115732 0.766041
O O16 0.977265 0.477344 0.885504
#
# Coordination Sequence:
#
# PCOD9000104 Si02
#       8
#     1   1   1   1   1   1   1   1
#     4  10  21  44  71  98 134 190 222 285 345 406
#     4  12  24  47  71  98 149 180 229 292 345 412
#     4  12  22  47  70 100 143 183 228 284 348 413
#     4  10  22  38  74  97 129 188 230 271 346 409
#     4  12  25  42  74 106 139 183 232 289 348 415
#     4  12  27  43  70 109 137 185 233 285 350 411
#     4  10  23  43  70 100 137 183 229 281 345 408
#     4  12  22  44  76 102 134 188 235 279 353 414
#
# _framework density 25.068641
#
# number of rings (size 3 to 8) (size 9 to 14) (size 15 to 20)
#    0.750    0.000    6.250    0.750    1.750    1.000 
#    0.000    2.500    0.000    0.000    0.000    0.000 
#    0.000    0.000    0.000    0.000    0.000    0.000 
#
# Total GULP energy -44638.585897 kJ/mol
# GULP energy per Si atom -5579.823237 kJ/mol
# Density = 2.501158 g / cm^3
# Si number density = 25.068641 Si / 1000 Ang^3
#
#
#
# Elastic Constant Matrix: (Units=GPa)
#
#
# Indices 1 2 3 4 5 6 
#
# 1 106.1169 39.1112 37.5105 -9.5833 19.8827 15.3166
# 2 39.1112 105.1008 37.8911 -18.7192 16.2462 38.0936
# 3 37.5105 37.8911 159.5950 3.0060 39.6350 2.3707
# 4 -9.5833 -18.7192 3.0060 32.7305 6.6129 -4.4787
# 5 19.8827 16.2462 39.6350 6.6129 36.8330 -0.8494
# 6 15.3166 38.0936 2.3707 -4.4787 -0.8494 30.7293
#
#
#
# Elastic Compliance Matrix: (Units=1/GPa)
#
#
# Indices 1 2 3 4 5 6 
#
# 1 0.012245 -0.001000 -0.001261 0.003654 -0.005569 -0.004387
# 2 -0.001000 0.025420 -0.003034 0.012615 -0.010346 -0.029227
# 3 -0.001261 -0.003034 0.009127 -0.000960 -0.007553 0.003337
# 4 0.003654 0.012615 -0.000960 0.040118 -0.013981 -0.011925
# 5 -0.005569 -0.010346 -0.007553 -0.013981 0.045712 0.015410
# 6 -0.004387 -0.029227 0.003337 -0.011925 0.015410 0.069391
#
#
# Mechanical properties :
#
#
# Convention : Reuss Voigt Hill
#
# Bulk Modulus (GPa) = 27.62386 66.64871 47.13629
# Shear Modulus (GPa) = 22.25482 37.14520 29.70001
#
# Velocity S-wave (km/s) = 2.98275 3.85351 3.44575
# Velocity P-wave (km/s) = 4.78598 6.81496 5.88852
#
# Compressibility (1/GPa) = 0.03620059
#
# Stress axis : x y z
#
# Youngs Moduli (GPa) = 81.66873 39.33894 109.56668
#
# Poissons Ratio (x) = 0.03935 0.13818
# Poissons Ratio (y) = 0.08168 0.33244
# Poissons Ratio (z) = 0.10300 0.11936
#
# Static dielectric constant tensor:
#      x y z
#    x 2.049320 0.034230 -0.061680 
#    y 0.034230 1.997970 -0.014750 
#    z -0.061680 -0.014750 1.971840 
# 
# From -- ./inp_files/4698.got.cif
#   From: 2010.05.17/outbox.cif.g08.bks.cpg/sg1_3_cif.got.tgz:4698.got - 2010.05.17 20:27:59.
