data_PCOD9000017
_publ_section_title
;
Structure prediction by ZEFSAII (Michael W. Deem and Ramdas Pophale) SiO2 
 PCOD9000017
Probable space group: P 1
;
_chemical_formula_sum "Si O2"
_cell_formula_units_Z 8
_cell_length_a 8.891636
_cell_length_b 7.494636
_cell_length_c 5.221629
_cell_angle_alpha 95.421972
_cell_angle_beta 91.097275
_cell_angle_gamma 104.128740
_cell_volume 335.609928
_symmetry_space_group_name_H-M "P 1"
_symmetry_group_IT_number 1
_symmetry_cell_setting 'triclinic'
loop_
_space_group_symop_operation_xyz
x,y,z
loop_
_atom_site_type_symbol
_atom_site_label
_atom_site_fract_x
_atom_site_fract_y
_atom_site_fract_z
Si Si1 0.170570 0.117750 0.642780
Si Si2 0.763106 0.499366 0.779519
Si Si3 0.487809 0.218603 0.845434
Si Si4 0.523938 0.585114 0.131282
Si Si5 0.661241 0.970819 0.075659
Si Si6 0.260554 0.499814 0.450028
Si Si7 0.836329 0.887537 0.575620
Si Si8 0.095198 0.451289 0.929407
O O1 0.334321 0.077525 0.718975
O O2 0.221562 0.276472 0.449858
O O3 0.108423 0.239724 0.872470
O O4 0.021340 0.956739 0.552935
O O5 0.693783 0.565333 0.049657
O O6 0.626439 0.320558 0.672280
O O7 0.790447 0.668365 0.606028
O O8 0.921153 0.451768 0.852617
O O9 0.429390 0.395286 0.969978
O O10 0.576405 0.133693 0.053726
O O11 0.526246 0.780919 0.036381
O O12 0.441188 0.578040 0.400329
O O13 0.750134 0.952361 0.339495
O O14 0.774733 0.971336 0.839130
O O15 0.200676 0.562768 0.720154
O O16 0.157542 0.534809 0.213857
#
# Coordination Sequence:
#
# PCOD9000017 Si02
#       8
#     1   1   1   1   1   1   1   1
#     4  10  24  40  71  98 148 174 245 279 365 411
#     4   9  22  43  71 103 137 188 237 286 355 420
#     4  10  22  46  74 104 139 194 236 286 368 417
#     4   9  21  43  71 100 146 175 245 285 355 414
#     4  11  26  46  71 106 141 188 240 301 346 429
#     4  10  22  39  65  98 137 185 219 298 344 416
#     4  11  26  45  69 104 150 180 240 302 351 422
#     4  10  21  40  66  97 136 182 232 277 354 415
#
# _framework density 23.837197
#
# number of rings (size 3 to 8) (size 9 to 14) (size 15 to 20)
#    1.500    0.500    1.250    0.750    5.250    5.000 
#    2.250    1.250    0.000    0.000    0.000    0.000 
#    0.000    0.000    0.000    0.000    0.000    0.000 
#
# Total GULP energy -44572.345706 kJ/mol
# GULP energy per Si atom -5571.543213 kJ/mol
# Density = 2.378294 g / cm^3
# Si number density = 23.837197 Si / 1000 Ang^3
#
#
#
# Elastic Constant Matrix: (Units=GPa)
#
#
# Indices 1 2 3 4 5 6 
#
# 1 158.7018 49.0986 60.4320 -24.4978 27.9886 28.9718
# 2 49.0986 90.1499 24.8415 -25.7960 12.3158 20.1123
# 3 60.4320 24.8415 139.9467 -18.4105 18.6976 8.5340
# 4 -24.4978 -25.7960 -18.4105 23.6609 -1.3155 -2.7311
# 5 27.9886 12.3158 18.6976 -1.3155 40.3433 -5.8241
# 6 28.9718 20.1123 8.5340 -2.7311 -5.8241 32.2190
#
#
#
# Elastic Compliance Matrix: (Units=1/GPa)
#
#
# Indices 1 2 3 4 5 6 
#
# 1 0.012100 0.000511 -0.002172 0.009583 -0.008879 -0.011416
# 2 0.000511 0.021077 0.000907 0.022187 -0.008435 -0.013501
# 3 -0.002172 0.000907 0.009115 0.005541 -0.002972 -0.001095
# 4 0.009583 0.022187 0.005541 0.077426 -0.016400 -0.020335
# 5 -0.008879 -0.008435 -0.002972 -0.016400 0.037160 0.019363
# 6 -0.011416 -0.013501 -0.001095 -0.020335 0.019363 0.051797
#
#
# Mechanical properties :
#
#
# Convention : Reuss Voigt Hill
#
# Bulk Modulus (GPa) = 24.52008 73.06028 48.79018
# Shear Modulus (GPa) = 22.34346 36.20638 29.27492
#
# Velocity S-wave (km/s) = 3.06492 3.90154 3.50826
# Velocity P-wave (km/s) = 4.77847 7.14228 6.07643
#
# Compressibility (1/GPa) = 0.04078290
#
# Stress axis : x y z
#
# Youngs Moduli (GPa) = 82.64801 47.44410 109.70473
#
# Poissons Ratio (x) = -0.02423 0.23833
# Poissons Ratio (y) = -0.04221 -0.09950
# Poissons Ratio (z) = 0.17955 -0.04303
#
# Static dielectric constant tensor:
#      x y z
#    x 1.905190 0.024140 -0.004810 
#    y 0.024140 1.946470 0.042850 
#    z -0.004810 0.042850 1.936350 
# 
# From -- ./inp_files/1104.got.cif
#   From: 2010.05.17/outbox.cif.g08.bks.cpg/sg1_1_cif.got.tgz:1104.got - 2010.05.17 20:27:59.
