data_PCOD9000468
_publ_section_title
;
Structure prediction by ZEFSAII (Michael W. Deem and Ramdas Pophale) SiO2 
 PCOD9000468
Probable space group: P 1
;
_chemical_formula_sum "Si O2"
_cell_formula_units_Z 8
_cell_length_a 14.344816
_cell_length_b 9.034297
_cell_length_c 5.183017
_cell_angle_alpha 91.935302
_cell_angle_beta 77.208240
_cell_angle_gamma 146.778108
_cell_volume 344.156713
_symmetry_space_group_name_H-M "P 1"
_symmetry_group_IT_number 1
_symmetry_cell_setting 'triclinic'
loop_
_space_group_symop_operation_xyz
x,y,z
loop_
_atom_site_type_symbol
_atom_site_label
_atom_site_fract_x
_atom_site_fract_y
_atom_site_fract_z
Si Si1 0.931020 0.431780 0.603810
Si Si2 0.192532 0.650828 0.075017
Si Si3 0.356005 0.716965 0.478137
Si Si4 0.131754 0.860386 0.906143
Si Si5 0.744996 0.902555 0.819597
Si Si6 0.705383 0.678243 0.339506
Si Si7 0.392231 0.450489 0.697242
Si Si8 0.737349 0.373839 0.371294
O O1 0.785951 0.366119 0.617667
O O2 0.996063 0.428448 0.308230
O O3 0.101533 0.741116 0.641932
O O4 0.844870 0.189508 0.814210
O O5 0.281833 0.668453 0.243070
O O6 0.231939 0.623826 0.777876
O O7 0.252403 0.901364 0.996746
O O8 0.365182 0.557647 0.544240
O O9 0.558375 0.050916 0.380043
O O10 0.212249 0.129826 0.876803
O O11 0.924841 0.596007 0.116499
O O12 0.806342 0.894307 0.525683
O O13 0.535199 0.666344 0.856565
O O14 0.771927 0.828257 0.036040
O O15 0.499328 0.466420 0.471663
O O16 0.705429 0.505576 0.380880
#
# Coordination Sequence:
#
# PCOD9000468 Si02
#       8
#     1   1   1   1   1   1   1   1
#     4  11  25  49  73 108 147 191 236 299 360 426
#     4  11  27  46  73 103 145 187 245 284 363 421
#     4  12  26  47  76 106 139 197 237 295 351 440
#     4  11  26  48  74 109 148 188 235 306 354 425
#     4  10  25  44  74  98 148 183 239 287 360 415
#     4  10  25  43  72 103 139 189 236 292 348 424
#     4  10  26  46  71 107 144 190 237 296 357 421
#     4  11  26  43  77 106 146 185 247 287 365 422
#
# _framework density 23.245224
#
# number of rings (size 3 to 8) (size 9 to 14) (size 15 to 20)
#    0.750    0.500    2.500    0.750   12.250    3.000 
#    0.000    0.000    0.000    0.000    0.000    0.000 
#    0.000    0.000    0.000    0.000    0.000    0.000 
#
# Total GULP energy -44623.567775 kJ/mol
# GULP energy per Si atom -5577.945972 kJ/mol
# Density = 2.319232 g / cm^3
# Si number density = 23.245224 Si / 1000 Ang^3
#
#
#
# Elastic Constant Matrix: (Units=GPa)
#
#
# Indices 1 2 3 4 5 6 
#
# 1 173.6955 35.1645 36.5424 -8.1877 37.1654 -27.8567
# 2 35.1645 85.9765 32.7561 -18.9109 19.2831 -14.0716
# 3 36.5424 32.7561 84.6183 5.3503 22.8068 -5.1511
# 4 -8.1877 -18.9109 5.3503 29.2045 -0.5302 15.1242
# 5 37.1654 19.2831 22.8068 -0.5302 46.3296 -7.3663
# 6 -27.8567 -14.0716 -5.1511 15.1242 -7.3663 29.8016
#
#
#
# Elastic Compliance Matrix: (Units=1/GPa)
#
#
# Indices 1 2 3 4 5 6 
#
# 1 0.008210 -0.001115 -0.001419 -0.001701 -0.004381 0.006683
# 2 -0.001115 0.018005 -0.006452 0.013053 -0.003454 -0.001134
# 3 -0.001419 -0.006452 0.016728 -0.008696 -0.004210 0.001891
# 4 -0.001701 0.013053 -0.008696 0.057784 -0.003436 -0.027104
# 5 -0.004381 -0.003454 -0.004210 -0.003436 0.028959 0.002448
# 6 0.006683 -0.001134 0.001891 -0.027104 0.002448 0.053954
#
#
# Mechanical properties :
#
#
# Convention : Reuss Voigt Hill
#
# Bulk Modulus (GPa) = 40.04516 61.46848 50.75682
# Shear Modulus (GPa) = 23.81681 37.05562 30.43621
#
# Velocity S-wave (km/s) = 3.20439 3.99697 3.62242
# Velocity P-wave (km/s) = 5.56377 6.91389 6.27525
#
# Compressibility (1/GPa) = 0.02497180
#
# Stress axis : x y z
#
# Youngs Moduli (GPa) = 121.79590 55.53865 59.78141
#
# Poissons Ratio (x) = 0.06194 0.08482
# Poissons Ratio (y) = 0.13584 0.38569
# Poissons Ratio (z) = 0.17281 0.35832
#
# Static dielectric constant tensor:
#      x y z
#    x 1.886720 0.016310 -0.008500 
#    y 0.016310 1.886610 0.000050 
#    z -0.008500 0.000050 1.992970 
# 
# From -- ./inp_files/1907.got.cif
#   From: 2010.05.17/outbox.cif.g08.bks.cpg/sg1_1_cif.got.tgz:1907.got - 2010.05.17 20:27:59.
