data_PCOD9000936
_publ_section_title
;
Structure prediction by ZEFSAII (Michael W. Deem and Ramdas Pophale) SiO2 
 PCOD9000936
Probable space group: P 1
;
_chemical_formula_sum "Si O2"
_cell_formula_units_Z 8
_cell_length_a 7.381941
_cell_length_b 8.572508
_cell_length_c 9.130975
_cell_angle_alpha 49.021405
_cell_angle_beta 130.916868
_cell_angle_gamma 102.843636
_cell_volume 307.127848
_symmetry_space_group_name_H-M "P 1"
_symmetry_group_IT_number 1
_symmetry_cell_setting 'triclinic'
loop_
_space_group_symop_operation_xyz
x,y,z
loop_
_atom_site_type_symbol
_atom_site_label
_atom_site_fract_x
_atom_site_fract_y
_atom_site_fract_z
Si Si1 0.294820 0.974040 0.050390
Si Si2 0.194420 0.404446 0.568983
Si Si3 0.435844 0.646439 0.767431
Si Si4 0.134156 0.109449 0.188315
Si Si5 0.117024 0.575177 0.872778
Si Si6 0.868516 0.815816 0.863056
Si Si7 0.750105 0.627244 0.366727
Si Si8 0.603353 0.239478 0.645110
O O1 0.133045 0.813098 0.078938
O O2 0.329658 0.035004 0.197638
O O3 0.538821 0.863274 0.146064
O O4 0.142640 0.203217 0.747779
O O5 0.385622 0.484935 0.719488
O O6 0.340627 0.312857 0.553037
O O7 0.228714 0.895202 0.473092
O O8 0.377749 0.583132 0.937797
O O9 0.719170 0.647749 0.899643
O O10 0.952087 0.585154 0.633233
O O11 0.145294 0.341804 0.105129
O O12 0.966305 0.781253 0.768396
O O13 0.665378 0.040768 0.684477
O O14 0.916406 0.599171 0.325197
O O15 0.616716 0.450803 0.436204
O O16 0.847933 0.162841 0.936052
#
# Coordination Sequence:
#
# PCOD9000936 Si02
#       8
#     1   1   1   1   1   1   1   1
#     4  11  22  42  73  95 140 177 217 287 334 384
#     4  11  22  42  67 101 127 175 236 262 322 414
#     4  11  23  41  72  98 134 181 222 274 344 392
#     4  10  20  44  70 101 133 181 224 276 332 399
#     4  10  22  43  65 102 139 170 229 276 328 408
#     4  11  24  42  63 101 146 172 215 293 334 393
#     4  10  21  44  68  97 128 181 225 274 326 398
#     4  10  22  40  68  95 139 171 228 276 326 406
#
# _framework density 26.047785000000001
#
# number of rings (size 3 to 8) (size 9 to 14) (size 15 to 20)
#    0.000    1.500    5.000    3.000    5.250    1.000 
#    0.000    0.000    2.750    0.000    0.000    0.000 
#    0.000    0.000    0.000    0.000    0.000    0.000 
#
# Total GULP energy -44752.841905 kJ/mol
# GULP energy per Si atom -5594.105238 kJ/mol
# Density = 2.598850 g / cm^3
# Si number density = 26.047785 Si / 1000 Ang^3
#
#
#
# Elastic Constant Matrix: (Units=GPa)
#
#
# Indices 1 2 3 4 5 6 
#
# 1 155.7468 66.5492 7.9197 -6.1778 -15.9442 -37.3555
# 2 66.5492 127.0710 17.4811 -2.6904 -12.0398 -36.0205
# 3 7.9197 17.4811 84.7938 -0.8840 -3.8321 -2.5136
# 4 -6.1778 -2.6904 -0.8840 34.2048 -1.7480 0.6697
# 5 -15.9442 -12.0398 -3.8321 -1.7480 41.3495 -4.3777
# 6 -37.3555 -36.0205 -2.5136 0.6697 -4.3777 59.7566
#
#
#
# Elastic Compliance Matrix: (Units=1/GPa)
#
#
# Indices 1 2 3 4 5 6 
#
# 1 0.009168 -0.003394 0.000111 0.001471 0.003032 0.003896
# 2 -0.003394 0.011525 -0.001801 0.000274 0.002413 0.004923
# 3 0.000111 -0.001801 0.012170 0.000233 0.000607 -0.000462
# 4 0.001471 0.000274 0.000233 0.029614 0.002017 0.000910
# 5 0.003032 0.002413 0.000607 0.002017 0.026760 0.005313
# 6 0.003896 0.004923 -0.000462 0.000910 0.005313 0.022497
#
#
# Mechanical properties :
#
#
# Convention : Reuss Voigt Hill
#
# Bulk Modulus (GPa) = 44.06133 61.27907 52.67020
# Shear Modulus (GPa) = 38.61948 45.43961 42.02954
#
# Velocity S-wave (km/s) = 3.85468 4.18122 4.02127
# Velocity P-wave (km/s) = 6.06331 6.84739 6.46725
#
# Compressibility (1/GPa) = 0.02269564
#
# Stress axis : x y z
#
# Youngs Moduli (GPa) = 109.06959 86.76790 82.16646
#
# Poissons Ratio (x) = 0.29451 -0.00914
# Poissons Ratio (y) = 0.37021 0.14799
# Poissons Ratio (z) = -0.01214 0.15628
#
# Static dielectric constant tensor:
#      x y z
#    x 2.048890 0.048850 0.043070 
#    y 0.048850 2.026570 0.000250 
#    z 0.043070 0.000250 2.047280 
# 
# From -- ./inp_files/1763.got.cif
#   From: 2010.05.17/outbox.cif.g08.bks.cpg/sg1_1_cif.got.tgz:1763.got - 2010.05.17 20:27:59.
