data_PCOD9000676
_publ_section_title
;
Structure prediction by ZEFSAII (Michael W. Deem and Ramdas Pophale) SiO2 
 PCOD9000676
Probable space group: P 1
;
_chemical_formula_sum "Si O2"
_cell_formula_units_Z 8
_cell_length_a 8.873647
_cell_length_b 6.856885
_cell_length_c 8.389582
_cell_angle_alpha 97.573950
_cell_angle_beta 47.633767
_cell_angle_gamma 73.073559
_cell_volume 319.623392
_symmetry_space_group_name_H-M "P 1"
_symmetry_group_IT_number 1
_symmetry_cell_setting 'triclinic'
loop_
_space_group_symop_operation_xyz
x,y,z
loop_
_atom_site_type_symbol
_atom_site_label
_atom_site_fract_x
_atom_site_fract_y
_atom_site_fract_z
Si Si1 0.881690 0.072200 0.063650
Si Si2 0.345087 0.187335 0.525446
Si Si3 0.991367 0.679880 0.741464
Si Si4 0.263474 0.500621 0.200857
Si Si5 0.545932 0.908973 0.668292
Si Si6 0.906661 0.403607 0.288306
Si Si7 0.006266 0.949399 0.299381
Si Si8 0.465503 0.016216 0.091636
O O1 0.605478 0.153704 0.299370
O O2 0.895346 0.295004 0.117422
O O3 0.018559 0.904465 0.096843
O O4 0.994392 0.907549 0.815544
O O5 0.146011 0.455309 0.714112
O O6 0.389996 0.046360 0.640993
O O7 0.304847 0.090619 0.375605
O O8 0.100071 0.586784 0.482638
O O9 0.709022 0.787948 0.945389
O O10 0.119179 0.452243 0.163433
O O11 0.240392 0.737931 0.190456
O O12 0.479598 0.249806 0.069175
O O13 0.665946 0.640461 0.517844
O O14 0.768209 0.952333 0.526547
O O15 0.420796 0.969938 0.935816
O O16 0.943793 0.212453 0.373365
#
# Coordination Sequence:
#
# PCOD9000676 Si02
#       8
#     1   1   1   1   1   1   1   1
#     4   8  18  34  56  80 113 142 187 241 280 329
#     4   9  20  35  60  86 114 154 197 234 288 348
#     4  10  18  36  59  80 116 156 184 242 288 336
#     4  10  19  35  61  82 116 150 193 234 291 346
#     4  10  18  37  62  84 116 157 188 237 297 338
#     4   9  18  36  59  88 117 142 198 246 272 356
#     4   8  17  34  58  84 111 145 190 234 282 341
#     4  10  20  35  61  88 113 156 197 234 288 350
#
# _framework density 25.029457000000001
#
# number of rings (size 3 to 8) (size 9 to 14) (size 15 to 20)
#    0.750    2.000    2.500    0.000    1.750    0.000 
#    2.250    2.500   19.250    0.000    0.000    0.000 
#    0.000    0.000    0.000    0.000    0.000    0.000 
#
# Total GULP energy -44552.187445 kJ/mol
# GULP energy per Si atom -5569.023431 kJ/mol
# Density = 2.497249 g / cm^3
# Si number density = 25.029457 Si / 1000 Ang^3
#
#
#
# Elastic Constant Matrix: (Units=GPa)
#
#
# Indices 1 2 3 4 5 6 
#
# 1 85.0869 35.5371 39.9395 8.8918 19.9322 -11.2969
# 2 35.5371 175.8817 54.8607 32.0940 -5.3559 -32.0662
# 3 39.9395 54.8607 121.0855 37.7465 17.4981 -0.6263
# 4 8.8918 32.0940 37.7465 47.8701 -1.8777 -9.2526
# 5 19.9322 -5.3559 17.4981 -1.8777 38.8699 4.9225
# 6 -11.2969 -32.0662 -0.6263 -9.2526 4.9225 48.3170
#
#
#
# Elastic Compliance Matrix: (Units=1/GPa)
#
#
# Indices 1 2 3 4 5 6 
#
# 1 0.016456 -0.001969 -0.004051 0.001867 -0.007250 0.003584
# 2 -0.001969 0.008188 -0.002829 -0.001957 0.002775 0.004279
# 3 -0.004051 -0.002829 0.014632 -0.009858 -0.004865 -0.004027
# 4 0.001867 -0.001957 -0.009858 0.030652 0.004127 0.004459
# 5 -0.007250 0.002775 -0.004865 0.004127 0.032525 -0.002440
# 6 0.003584 0.004279 -0.004027 0.004459 -0.002440 0.025425
#
#
# Mechanical properties :
#
#
# Convention : Reuss Voigt Hill
#
# Bulk Modulus (GPa) = 46.34670 71.41430 58.88050
# Shear Modulus (GPa) = 32.72913 43.79249 38.26081
#
# Velocity S-wave (km/s) = 3.62003 4.18741 3.91401
# Velocity P-wave (km/s) = 6.00249 7.20924 6.63337
#
# Compressibility (1/GPa) = 0.02157651
#
# Stress axis : x y z
#
# Youngs Moduli (GPa) = 60.76827 122.13449 68.34367
#
# Poissons Ratio (x) = 0.24050 0.27689
# Poissons Ratio (y) = 0.11966 0.19334
# Poissons Ratio (z) = 0.24620 0.34551
#
# Static dielectric constant tensor:
#      x y z
#    x 2.117630 0.046390 -0.016040 
#    y 0.046390 2.014940 -0.012970 
#    z -0.016040 -0.012970 1.925260 
# 
# From -- ./inp_files/5214.got.cif
#   From: 2010.05.17/outbox.cif.g08.bks.cpg/sg1_3_cif.got.tgz:5214.got - 2010.05.17 20:27:59.
