data_PCOD9000927
_publ_section_title
;
Structure prediction by ZEFSAII (Michael W. Deem and Ramdas Pophale) SiO2 
 PCOD9000927
Probable space group: P 1
;
_chemical_formula_sum "Si O2"
_cell_formula_units_Z 8
_cell_length_a 9.988345
_cell_length_b 5.557034
_cell_length_c 12.927606
_cell_angle_alpha 47.705003
_cell_angle_beta 33.988601
_cell_angle_gamma 59.945790
_cell_volume 293.865920
_symmetry_space_group_name_H-M "P 1"
_symmetry_group_IT_number 1
_symmetry_cell_setting 'triclinic'
loop_
_space_group_symop_operation_xyz
x,y,z
loop_
_atom_site_type_symbol
_atom_site_label
_atom_site_fract_x
_atom_site_fract_y
_atom_site_fract_z
Si Si1 0.366980 0.429480 0.678460
Si Si2 0.339976 0.047188 0.170985
Si Si3 0.348281 0.725988 0.944446
Si Si4 0.868372 0.358553 0.130783
Si Si5 0.824185 0.066553 0.772249
Si Si6 0.604013 0.933214 0.232694
Si Si7 0.864372 0.669392 0.409188
Si Si8 0.898350 0.647459 0.675056
O O1 0.399289 0.670332 0.492114
O O2 0.630917 0.522727 0.534118
O O3 0.330841 0.038225 0.795184
O O4 0.142326 0.468145 0.885468
O O5 0.467356 0.125880 0.178633
O O6 0.302598 0.359710 0.036462
O O7 0.550479 0.904377 0.017342
O O8 0.091820 0.840575 0.418194
O O9 0.629505 0.735622 0.795144
O O10 0.130287 0.700017 0.175978
O O11 0.765012 0.676696 0.150162
O O12 0.732007 0.177502 0.168296
O O13 0.835634 0.057319 0.322304
O O14 0.844823 0.382929 0.590974
O O15 0.920102 0.264609 0.756167
O O16 0.941651 0.792534 0.718863
#
# Coordination Sequence:
#
# PCOD9000927 Si02
#       8
#     1   1   1   1   1   1   1   1
#     4  10  22  45  73 101 139 183 228 289 344 409
#     4  11  26  43  72 103 143 183 231 282 348 412
#     4  10  20  43  71 103 138 176 230 285 342 405
#     4  10  26  46  73  99 139 183 236 281 343 411
#     4  11  25  40  67 102 141 172 225 283 341 404
#     4  11  27  48  68 102 139 185 234 281 342 413
#     4  10  21  44  72 107 137 180 230 289 346 407
#     4  11  25  43  66 105 138 182 222 284 344 405
#
# _framework density 27.223298
#
# number of rings (size 3 to 8) (size 9 to 14) (size 15 to 20)
#    0.000    1.500    2.500    0.000    5.250    8.000 
#    9.000    0.000    0.000    0.000    0.000    0.000 
#    0.000    0.000    0.000    0.000    0.000    0.000 
#
# Total GULP energy -44687.624041 kJ/mol
# GULP energy per Si atom -5585.953005 kJ/mol
# Density = 2.716134 g / cm^3
# Si number density = 27.223298 Si / 1000 Ang^3
#
#
#
# Elastic Constant Matrix: (Units=GPa)
#
#
# Indices 1 2 3 4 5 6 
#
# 1 99.2477 55.2577 43.9916 -2.9120 -10.3154 4.2550
# 2 55.2577 138.8893 64.9500 2.4968 -12.0178 32.1193
# 3 43.9916 64.9500 241.4679 7.5989 -10.5877 -5.3880
# 4 -2.9120 2.4968 7.5989 53.0754 -14.6401 6.4882
# 5 -10.3154 -12.0178 -10.5877 -14.6401 47.5469 -7.2788
# 6 4.2550 32.1193 -5.3880 6.4882 -7.2788 34.7492
#
#
#
# Elastic Compliance Matrix: (Units=1/GPa)
#
#
# Indices 1 2 3 4 5 6 
#
# 1 0.013785 -0.005809 -0.000804 0.001324 0.002332 0.003798
# 2 -0.005809 0.013823 -0.002978 0.000993 -0.000072 -0.012728
# 3 -0.000804 -0.002978 0.005232 -0.000988 0.000540 0.003960
# 4 0.001324 0.000993 -0.000988 0.021208 0.006254 -0.003884
# 5 0.002332 -0.000072 0.000540 0.006254 0.024140 0.003754
# 6 0.003798 -0.012728 0.003960 -0.003884 0.003754 0.042203
#
#
# Mechanical properties :
#
#
# Convention : Reuss Voigt Hill
#
# Bulk Modulus (GPa) = 73.21484 89.77817 81.49651
# Shear Modulus (GPa) = 34.69210 48.10135 41.39673
#
# Velocity S-wave (km/s) = 3.57368 4.20803 3.90376
# Velocity P-wave (km/s) = 6.63180 7.52729 7.09369
#
# Compressibility (1/GPa) = 0.01365843
#
# Stress axis : x y z
#
# Youngs Moduli (GPa) = 72.54512 72.34216 191.13254
#
# Poissons Ratio (x) = 0.42022 0.15358
# Poissons Ratio (y) = 0.42140 0.56926
# Poissons Ratio (z) = 0.05829 0.21546
#
# Static dielectric constant tensor:
#      x y z
#    x 2.305340 0.073780 0.024590 
#    y 0.073780 2.131340 0.027230 
#    z 0.024590 0.027230 2.121350 
# 
# From -- ./inp_files/7229.got.cif
#   From: 2010.05.17/outbox.cif.g08.bks.cpg/sg1_4_cif.got.tgz:7229.got - 2010.05.17 20:27:59.
