data_PCOD9000021
_publ_section_title
;
Structure prediction by ZEFSAII (Michael W. Deem and Ramdas Pophale) SiO2 
 PCOD9000021
Probable space group: P 1
;
_chemical_formula_sum "Si O2"
_cell_formula_units_Z 8
_cell_length_a 7.474232
_cell_length_b 8.359176
_cell_length_c 14.424433
_cell_angle_alpha 28.950916
_cell_angle_beta 128.631763
_cell_angle_gamma 128.955490
_cell_volume 332.587925
_symmetry_space_group_name_H-M "P 1"
_symmetry_group_IT_number 1
_symmetry_cell_setting 'triclinic'
loop_
_space_group_symop_operation_xyz
x,y,z
loop_
_atom_site_type_symbol
_atom_site_label
_atom_site_fract_x
_atom_site_fract_y
_atom_site_fract_z
Si Si1 0.818340 0.807040 0.487020
Si Si2 0.190522 0.358148 0.846785
Si Si3 0.162518 0.995916 0.833353
Si Si4 0.578871 0.232791 0.945563
Si Si5 0.190345 0.236974 0.267995
Si Si6 0.020857 0.994372 0.158960
Si Si7 0.936970 0.268531 0.448745
Si Si8 0.425512 0.519742 0.368090
O O1 0.031198 0.627161 0.670898
O O2 0.620032 0.555212 0.492742
O O3 0.765459 0.006142 0.460167
O O4 0.940413 0.096829 0.307371
O O5 0.083690 0.122913 0.843042
O O6 0.463909 0.488660 0.839665
O O7 0.167236 0.149435 0.039401
O O8 0.011437 0.084398 0.656024
O O9 0.186430 0.610851 0.041348
O O10 0.433472 0.204140 0.816794
O O11 0.841026 0.230828 0.006378
O O12 0.484299 0.886525 0.150360
O O13 0.389710 0.269161 0.394574
O O14 0.186053 0.995014 0.301300
O O15 0.871761 0.618741 0.280378
O O16 0.175825 0.410306 0.394606
#
# Coordination Sequence:
#
# PCOD9000021 Si02
#       8
#     1   1   1   1   1   1   1   1
#     4  11  22  41  71  94 137 176 222 273 338 393
#     4  10  22  41  67  98 134 174 221 279 322 404
#     4   9  21  43  61  95 139 164 223 278 320 391
#     4   9  21  40  66  92 136 171 218 271 325 399
#     4  10  21  40  68  93 137 172 215 283 322 399
#     4  12  21  41  73  95 137 179 216 272 347 387
#     4  11  23  42  67 101 134 177 221 276 330 403
#     4  10  21  44  63  98 132 171 226 272 328 398
#
# _framework density 24.053791
#
# number of rings (size 3 to 8) (size 9 to 14) (size 15 to 20)
#    0.750    1.000    2.500    2.250    1.750    0.000 
#    4.500    2.500    2.750    0.000    0.000    0.000 
#    0.000    0.000    0.000    0.000    0.000    0.000 
#
# Total GULP energy -44592.882005 kJ/mol
# GULP energy per Si atom -5574.110251 kJ/mol
# Density = 2.399904 g / cm^3
# Si number density = 24.053791 Si / 1000 Ang^3
#
#
#
# Elastic Constant Matrix: (Units=GPa)
#
#
# Indices 1 2 3 4 5 6 
#
# 1 89.4268 43.4342 10.6700 13.0253 -1.1470 -5.9196
# 2 43.4342 160.6442 26.8399 24.0782 3.9544 -23.1267
# 3 10.6700 26.8399 58.3905 9.1359 0.3858 -16.0631
# 4 13.0253 24.0782 9.1359 35.0155 -12.0556 -6.1120
# 5 -1.1470 3.9544 0.3858 -12.0556 33.5813 5.3410
# 6 -5.9196 -23.1267 -16.0631 -6.1120 5.3410 33.7888
#
#
#
# Elastic Compliance Matrix: (Units=1/GPa)
#
#
# Indices 1 2 3 4 5 6 
#
# 1 0.013131 -0.003123 -0.000728 -0.002673 -0.000030 -0.000662
# 2 -0.003123 0.008785 -0.001441 -0.004972 -0.003618 0.004454
# 3 -0.000728 -0.001441 0.020871 -0.003638 -0.002767 0.008588
# 4 -0.002673 -0.004972 -0.003638 0.038794 0.014605 -0.000892
# 5 -0.000030 -0.003618 -0.002767 0.014605 0.036582 -0.006937
# 6 -0.000662 0.004454 0.008588 -0.000892 -0.006937 0.037546
#
#
# Mechanical properties :
#
#
# Convention : Reuss Voigt Hill
#
# Bulk Modulus (GPa) = 31.05039 52.26107 41.65573
# Shear Modulus (GPa) = 28.24443 35.64495 31.94469
#
# Velocity S-wave (km/s) = 3.43041 3.85370 3.64820
# Velocity P-wave (km/s) = 5.35042 6.44789 5.92462
#
# Compressibility (1/GPa) = 0.03220571
#
# Stress axis : x y z
#
# Youngs Moduli (GPa) = 76.15600 113.82604 47.91290
#
# Poissons Ratio (x) = 0.35542 0.03487
# Poissons Ratio (y) = 0.23780 0.06903
# Poissons Ratio (z) = 0.05542 0.16398
#
# Static dielectric constant tensor:
#      x y z
#    x 1.956010 -0.006160 0.014800 
#    y -0.006160 1.995230 0.005760 
#    z 0.014800 0.005760 1.941670 
# 
# From -- ./inp_files/7122.got.cif
#   From: 2010.05.17/outbox.cif.g08.bks.cpg/sg1_4_cif.got.tgz:7122.got - 2010.05.17 20:27:59.
