data_PCOD9000354
_publ_section_title
;
Structure prediction by ZEFSAII (Michael W. Deem and Ramdas Pophale) SiO2 
 PCOD9000354
Probable space group: P 1
;
_chemical_formula_sum "Si O2"
_cell_formula_units_Z 8
_cell_length_a 15.308115
_cell_length_b 7.829934
_cell_length_c 11.715481
_cell_angle_alpha 147.889806
_cell_angle_beta 151.646707
_cell_angle_gamma 39.675334
_cell_volume 352.839488
_symmetry_space_group_name_H-M "P 1"
_symmetry_group_IT_number 1
_symmetry_cell_setting 'triclinic'
loop_
_space_group_symop_operation_xyz
x,y,z
loop_
_atom_site_type_symbol
_atom_site_label
_atom_site_fract_x
_atom_site_fract_y
_atom_site_fract_z
Si Si1 0.178460 0.384290 0.441660
Si Si2 0.774482 0.362348 0.933855
Si Si3 0.552069 0.634051 0.041481
Si Si4 0.077704 0.098826 0.391120
Si Si5 0.824772 0.570400 0.754672
Si Si6 0.845313 0.602948 0.542416
Si Si7 0.536577 0.369793 0.448251
Si Si8 0.176520 0.441268 0.216177
O O1 0.181786 0.136497 0.412183
O O2 0.219533 0.284318 0.299838
O O3 0.334566 0.611955 0.782086
O O4 0.963358 0.523967 0.265505
O O5 0.653176 0.481828 0.753640
O O6 0.839594 0.987128 0.770396
O O7 0.641518 0.416986 0.919662
O O8 0.655998 0.541813 0.226519
O O9 0.595322 0.998904 0.274910
O O10 0.012447 0.438882 0.565615
O O11 0.171846 0.835778 0.439124
O O12 0.895925 0.923039 0.049636
O O13 0.855331 0.455555 0.596249
O O14 0.612707 0.569073 0.545573
O O15 0.974290 0.373917 0.899274
O O16 0.328849 0.371254 0.254031
#
# Coordination Sequence:
#
# PCOD9000354 Si02
#       8
#     1   1   1   1   1   1   1   1
#     4  12  22  47  73  98 145 181 226 293 345 406
#     4  11  21  45  70  95 141 177 230 289 336 415
#     4  11  26  41  69 107 132 180 237 282 346 412
#     4  10  24  45  70 104 136 187 223 288 347 402
#     4  10  23  45  67  99 143 184 223 293 339 410
#     4  11  22  45  68 101 136 181 237 271 354 410
#     4  11  24  44  70 102 136 185 232 282 347 415
#     4  10  24  44  69 104 137 181 230 280 346 408
#
# _framework density 22.673200999999999
#
# number of rings (size 3 to 8) (size 9 to 14) (size 15 to 20)
#    0.750    0.500    5.000    0.000    0.000    7.000 
#    4.500    0.000    0.000    0.000    0.000    0.000 
#    0.000    0.000    0.000    0.000    0.000    0.000 
#
# Total GULP energy -44585.041038 kJ/mol
# GULP energy per Si atom -5573.130130 kJ/mol
# Density = 2.262160 g / cm^3
# Si number density = 22.673201 Si / 1000 Ang^3
#
#
#
# Elastic Constant Matrix: (Units=GPa)
#
#
# Indices 1 2 3 4 5 6 
#
# 1 132.9777 17.7923 34.7682 5.3982 4.3255 -1.5062
# 2 17.7923 42.7089 16.3789 7.2570 -6.4673 -16.6083
# 3 34.7682 16.3789 86.0189 -8.0845 9.3992 -6.0906
# 4 5.3982 7.2570 -8.0845 23.1690 -5.6192 1.0423
# 5 4.3255 -6.4673 9.3992 -5.6192 40.6144 -6.7853
# 6 -1.5062 -16.6083 -6.0906 1.0423 -6.7853 28.0131
#
#
#
# Elastic Compliance Matrix: (Units=1/GPa)
#
#
# Indices 1 2 3 4 5 6 
#
# 1 0.008913 -0.003204 -0.003233 -0.002445 -0.001448 -0.002383
# 2 -0.003204 0.041653 -0.007256 -0.013296 0.011182 0.026148
# 3 -0.003233 -0.007256 0.015262 0.007562 -0.003686 -0.002332
# 4 -0.002445 -0.013296 0.007562 0.051419 0.002213 -0.007747
# 5 -0.001448 0.011182 -0.003686 0.002213 0.029872 0.012903
# 6 -0.002383 0.026148 -0.002332 -0.007747 0.012903 0.053979
#
#
# Mechanical properties :
#
#
# Convention : Reuss Voigt Hill
#
# Bulk Modulus (GPa) = 26.01300 44.39822 35.20561
# Shear Modulus (GPa) = 20.72125 31.21037 25.96581
#
# Velocity S-wave (km/s) = 3.02637 3.71419 3.38778
# Velocity P-wave (km/s) = 4.86927 6.16587 5.55553
#
# Compressibility (1/GPa) = 0.03844232
#
# Stress axis : x y z
#
# Youngs Moduli (GPa) = 112.19084 24.00811 65.52116
#
# Poissons Ratio (x) = 0.07691 0.21183
# Poissons Ratio (y) = 0.35942 0.47544
# Poissons Ratio (z) = 0.36272 0.17421
#
# Static dielectric constant tensor:
#      x y z
#    x 1.868480 0.029670 0.004280 
#    y 0.029670 1.887250 -0.008460 
#    z 0.004280 -0.008460 1.818700 
# 
# From -- ./inp_files/6842.got.cif
#   From: 2010.05.17/outbox.cif.g08.bks.cpg/sg1_4_cif.got.tgz:6842.got - 2010.05.17 20:27:59.
