data_PCOD9000369
_publ_section_title
;
Structure prediction by ZEFSAII (Michael W. Deem and Ramdas Pophale) SiO2 
 PCOD9000369
Probable space group: P 1
;
_chemical_formula_sum "Si O2"
_cell_formula_units_Z 8
_cell_length_a 10.605563
_cell_length_b 5.187523
_cell_length_c 10.111718
_cell_angle_alpha 60.512937
_cell_angle_beta 42.245306
_cell_angle_gamma 76.910799
_cell_volume 316.395654
_symmetry_space_group_name_H-M "P 1"
_symmetry_group_IT_number 1
_symmetry_cell_setting 'triclinic'
loop_
_space_group_symop_operation_xyz
x,y,z
loop_
_atom_site_type_symbol
_atom_site_label
_atom_site_fract_x
_atom_site_fract_y
_atom_site_fract_z
Si Si1 0.750000 0.488070 0.430790
Si Si2 0.151802 0.166241 0.383574
Si Si3 0.070828 0.836147 0.261173
Si Si4 0.722341 0.414450 0.187082
Si Si5 0.427127 0.788244 0.635549
Si Si6 0.440926 0.793776 0.227805
Si Si7 0.101886 0.638040 0.723302
Si Si8 0.471678 0.927131 0.869107
O O1 0.828960 0.436122 0.240606
O O2 0.548938 0.569613 0.534577
O O3 0.885029 0.765190 0.332265
O O4 0.671408 0.180296 0.650469
O O5 0.052420 0.982665 0.378559
O O6 0.373753 0.115195 0.216657
O O7 0.066411 0.965950 0.625656
O O8 0.110524 0.496290 0.327673
O O9 0.269821 0.037381 0.997670
O O10 0.628569 0.702134 0.161044
O O11 0.543928 0.121224 0.410128
O O12 0.894187 0.409487 0.952561
O O13 0.219218 0.696784 0.754327
O O14 0.451558 0.767134 0.780987
O O15 0.253908 0.587239 0.503989
O O16 0.461890 0.768061 0.059948
#
# Coordination Sequence:
#
# PCOD9000369 Si02
#       8
#     1   1   1   1   1   1   1   1
#     4  11  25  45  68 108 144 192 251 295 371 448
#     4   9  24  44  70 109 146 184 244 307 363 440
#     4  11  24  45  70 107 146 190 246 300 374 438
#     4  11  24  47  71 102 146 194 243 301 371 441
#     4  11  25  44  71 104 143 195 246 299 368 445
#     4   9  22  46  69 106 139 183 246 298 366 436
#     4  10  23  46  70 100 146 186 244 304 366 433
#     4  10  25  43  71 100 146 188 238 312 363 429
#
# _framework density 25.284799
#
# number of rings (size 3 to 8) (size 9 to 14) (size 15 to 20)
#    0.750    1.000    1.250    0.750   12.250    1.000 
#    6.750    0.000    0.000    0.000    0.000    0.000 
#    0.000    0.000    0.000    0.000    0.000    0.000 
#
# Total GULP energy -44588.898975 kJ/mol
# GULP energy per Si atom -5573.612372 kJ/mol
# Density = 2.522725 g / cm^3
# Si number density = 25.284799 Si / 1000 Ang^3
#
#
#
# Elastic Constant Matrix: (Units=GPa)
#
#
# Indices 1 2 3 4 5 6 
#
# 1 94.7620 13.0038 66.1270 0.6870 1.0687 9.2118
# 2 13.0038 86.2443 39.5822 -8.4586 4.5865 -4.3884
# 3 66.1270 39.5822 133.9985 25.7182 -2.3440 -4.0801
# 4 0.6870 -8.4586 25.7182 28.0786 3.1970 -2.1908
# 5 1.0687 4.5865 -2.3440 3.1970 40.5811 9.4932
# 6 9.2118 -4.3884 -4.0801 -2.1908 9.4932 28.0342
#
#
#
# Elastic Compliance Matrix: (Units=1/GPa)
#
#
# Indices 1 2 3 4 5 6 
#
# 1 0.020424 0.004530 -0.014244 0.013562 -0.001412 -0.006537
# 2 0.004530 0.017546 -0.010374 0.015381 -0.004491 0.002471
# 3 -0.014244 -0.010374 0.022194 -0.023308 0.003933 0.003133
# 4 0.013562 0.015381 -0.023308 0.062476 -0.008941 0.002469
# 5 -0.001412 -0.004491 0.003933 -0.008941 0.028458 -0.010002
# 6 -0.006537 0.002471 0.003133 0.002469 -0.010002 0.042242
#
#
# Mechanical properties :
#
#
# Convention : Reuss Voigt Hill
#
# Bulk Modulus (GPa) = 50.02760 61.38121 55.70440
# Shear Modulus (GPa) = 20.81787 32.42491 26.62139
#
# Velocity S-wave (km/s) = 2.87250 3.58493 3.24830
# Velocity P-wave (km/s) = 5.55250 6.43927 6.01226
#
# Compressibility (1/GPa) = 0.01998897
#
# Stress axis : x y z
#
# Youngs Moduli (GPa) = 48.96230 56.99219 45.05672
#
# Poissons Ratio (x) = -0.25820 0.64179
# Poissons Ratio (y) = -0.22182 0.46743
# Poissons Ratio (z) = 0.69742 0.59125
#
# Static dielectric constant tensor:
#      x y z
#    x 2.057050 -0.010590 0.011440 
#    y -0.010590 2.024460 -0.031710 
#    z 0.011440 -0.031710 2.072780 
# 
# From -- ./inp_files/6691.got.cif
#   From: 2010.05.17/outbox.cif.g08.bks.cpg/sg1_4_cif.got.tgz:6691.got - 2010.05.17 20:27:59.
