data_PCOD9000889
_publ_section_title
;
Structure prediction by ZEFSAII (Michael W. Deem and Ramdas Pophale) SiO2 
 PCOD9000889
Probable space group: P 1
;
_chemical_formula_sum "Si O2"
_cell_formula_units_Z 8
_cell_length_a 7.478184
_cell_length_b 11.783685
_cell_length_c 7.018290
_cell_angle_alpha 139.115951
_cell_angle_beta 122.794479
_cell_angle_gamma 52.642232
_cell_volume 317.650356
_symmetry_space_group_name_H-M "P 1"
_symmetry_group_IT_number 1
_symmetry_cell_setting 'triclinic'
loop_
_space_group_symop_operation_xyz
x,y,z
loop_
_atom_site_type_symbol
_atom_site_label
_atom_site_fract_x
_atom_site_fract_y
_atom_site_fract_z
Si Si1 0.347930 0.700650 0.730270
Si Si2 0.393844 0.169221 0.369710
Si Si3 0.985580 0.563726 0.189491
Si Si4 0.717290 0.896416 0.700890
Si Si5 0.019171 0.070405 0.179994
Si Si6 0.255745 0.994330 0.719232
Si Si7 0.863546 0.859000 0.182401
Si Si8 0.713126 0.357905 0.658972
O O1 0.348713 0.811383 0.677631
O O2 0.589094 0.560654 0.755604
O O3 0.207913 0.567702 0.429903
O O4 0.215594 0.859625 0.010353
O O5 0.183667 0.189682 0.411444
O O6 0.519992 0.316000 0.616039
O O7 0.615841 0.979147 0.279118
O O8 0.272064 0.146133 0.072679
O O9 0.789030 0.710054 0.388271
O O10 0.975981 0.664152 0.107036
O O11 0.930034 0.378512 0.913469
O O12 0.448549 0.988254 0.671792
O O13 0.814595 0.850990 0.918214
O O14 0.856562 0.023797 0.865506
O O15 0.811904 0.201336 0.357989
O O16 0.036760 0.969704 0.464019
#
# Coordination Sequence:
#
# PCOD9000889 Si02
#       8
#     1   1   1   1   1   1   1   1
#     4   9  22  43  67  99 137 177 230 284 329 415
#     4  10  22  41  64 106 139 172 236 283 333 416
#     4  10  23  41  65 101 136 177 232 276 341 410
#     4  10  20  41  68 101 130 183 231 271 346 404
#     4  10  21  44  68  94 135 184 223 273 348 394
#     4   9  18  39  70  99 130 183 232 270 345 411
#     4  10  20  41  72  94 138 183 222 287 336 404
#     4  12  22  44  66 100 145 175 222 296 334 400
#
# _framework density 25.184926000000001
#
# number of rings (size 3 to 8) (size 9 to 14) (size 15 to 20)
#    0.000    2.000    2.500    3.000    0.000    4.000 
#   13.500    5.000    0.000    0.000    0.000    0.000 
#    0.000    0.000    0.000    0.000    0.000    0.000 
#
# Total GULP energy -44569.504792 kJ/mol
# GULP energy per Si atom -5571.188099 kJ/mol
# Density = 2.512760 g / cm^3
# Si number density = 25.184926 Si / 1000 Ang^3
#
#
#
# Elastic Constant Matrix: (Units=GPa)
#
#
# Indices 1 2 3 4 5 6 
#
# 1 101.4237 9.5392 12.8647 -9.7894 26.3668 -21.5324
# 2 9.5392 84.4333 15.5078 -16.6852 -0.4952 -7.0947
# 3 12.8647 15.5078 146.6529 -10.4862 31.5736 2.8780
# 4 -9.7894 -16.6852 -10.4862 39.5646 -6.0180 9.8322
# 5 26.3668 -0.4952 31.5736 -6.0180 55.6317 -4.9964
# 6 -21.5324 -7.0947 2.8780 9.8322 -4.9964 27.9566
#
#
#
# Elastic Compliance Matrix: (Units=1/GPa)
#
#
# Indices 1 2 3 4 5 6 
#
# 1 0.013283 -0.000780 -0.000102 -0.000166 -0.005443 0.009129
# 2 -0.000780 0.013318 -0.001442 0.004961 0.001981 0.001537
# 3 -0.000102 -0.001442 0.008141 0.001469 -0.004662 -0.002633
# 4 -0.000166 0.004961 0.001469 0.030307 0.001726 -0.009370
# 5 -0.005443 0.001981 -0.004662 0.001726 0.023439 0.000373
# 6 0.009129 0.001537 -0.002633 -0.009370 0.000373 0.046824
#
#
# Mechanical properties :
#
#
# Convention : Reuss Voigt Hill
#
# Bulk Modulus (GPa) = 33.22882 45.37035 39.29959
# Shear Modulus (GPa) = 33.33585 44.27046 38.80315
#
# Velocity S-wave (km/s) = 3.64214 4.19718 3.92947
# Velocity P-wave (km/s) = 5.55963 6.44534 6.01880
#
# Compressibility (1/GPa) = 0.03009436
#
# Stress axis : x y z
#
# Youngs Moduli (GPa) = 75.28521 75.08841 122.83936
#
# Poissons Ratio (x) = 0.05853 0.01253
# Poissons Ratio (y) = 0.05869 0.17712
# Poissons Ratio (z) = 0.00768 0.10827
#
# Static dielectric constant tensor:
#      x y z
#    x 2.207910 0.118420 0.067710 
#    y 0.118420 2.024270 -0.004440 
#    z 0.067710 -0.004440 1.998070 
# 
# From -- ./inp_files/4107.got.cif
#   From: 2010.05.17/outbox.cif.g08.bks.cpg/sg1_3_cif.got.tgz:4107.got - 2010.05.17 20:27:59.
