data_PCOD9000466
_publ_section_title
;
Structure prediction by ZEFSAII (Michael W. Deem and Ramdas Pophale) SiO2 
 PCOD9000466
Probable space group: P 1
;
_chemical_formula_sum "Si O2"
_cell_formula_units_Z 6
_cell_length_a 4.945995
_cell_length_b 10.092552
_cell_length_c 7.380176
_cell_angle_alpha 41.240685
_cell_angle_beta 82.506488
_cell_angle_gamma 75.278796
_cell_volume 233.821057
_symmetry_space_group_name_H-M "P 1"
_symmetry_group_IT_number 1
_symmetry_cell_setting 'triclinic'
loop_
_space_group_symop_operation_xyz
x,y,z
loop_
_atom_site_type_symbol
_atom_site_label
_atom_site_fract_x
_atom_site_fract_y
_atom_site_fract_z
Si Si1 0.053860 0.162080 0.888840
Si Si2 0.664767 0.571214 0.640556
Si Si3 0.005523 0.062104 0.409887
Si Si4 0.512372 0.716109 0.874231
Si Si5 0.400925 0.328429 0.182220
Si Si6 0.632921 0.930957 0.993549
O O1 0.362122 0.121592 0.823599
O O2 0.897199 0.399200 0.694082
O O3 0.889201 0.030607 0.915112
O O4 0.066418 0.063004 0.189975
O O5 0.722473 0.664895 0.735281
O O6 0.444804 0.440539 0.870198
O O7 0.585984 0.767741 0.316990
O O8 0.220021 0.866715 0.678648
O O9 0.118905 0.253776 0.283548
O O10 0.668668 0.133541 0.377415
O O11 0.432789 0.499939 0.146769
O O12 0.646091 0.804290 0.939091
#
# Coordination Sequence:
#
# PCOD9000466 Si02
#       6
#     1   1   1   1   1   1
#     4  11  24  45  68  96 137 172 218 271 332 384
#     4   9  23  44  68  94 134 174 216 267 328 389
#     4  11  21  42  68  94 127 175 214 264 324 388
#     4  10  25  43  71  98 132 175 219 273 326 390
#     4   9  23  39  66  97 126 172 218 261 326 381
#     4  12  26  45  65 105 130 172 221 274 326 390
#
# _framework density 25.660647000000001
#
# number of rings (size 3 to 8) (size 9 to 14) (size 15 to 20)
#    1.000    0.667    1.667    2.000    0.000   13.333 
#    0.000    0.000    0.000    0.000    0.000    0.000 
#    0.000    0.000    0.000    0.000    0.000    0.000 
#
# Total GULP energy -33571.381163 kJ/mol
# GULP energy per Si atom -5595.230194 kJ/mol
# Density = 2.560224 g / cm^3
# Si number density = 25.660647 Si / 1000 Ang^3
#
#
#
# Elastic Constant Matrix: (Units=GPa)
#
#
# Indices 1 2 3 4 5 6 
#
# 1 75.2932 5.4708 28.5936 1.2784 5.6475 11.4916
# 2 5.4708 172.9069 37.9226 3.2997 12.1298 9.8166
# 3 28.5936 37.9226 102.6857 -16.6852 5.3349 -7.9266
# 4 1.2784 3.2997 -16.6852 33.9206 -5.0855 17.2069
# 5 5.6475 12.1298 5.3349 -5.0855 27.9961 3.9009
# 6 11.4916 9.8166 -7.9266 17.2069 3.9009 26.3055
#
#
#
# Elastic Compliance Matrix: (Units=1/GPa)
#
#
# Indices 1 2 3 4 5 6 
#
# 1 0.017034 0.001373 -0.005748 0.001562 -0.001185 -0.010532
# 2 0.001373 0.006798 -0.003181 -0.001108 -0.002397 -0.003015
# 3 -0.005748 -0.003181 0.013662 0.004982 0.000209 0.004525
# 4 0.001562 -0.001108 0.004982 0.051423 0.013348 -0.034384
# 5 -0.001185 -0.002397 0.000209 0.013348 0.041245 -0.013372
# 6 -0.010532 -0.003015 0.004525 -0.034384 -0.013372 0.069579
#
#
# Mechanical properties :
#
#
# Convention : Reuss Voigt Hill
#
# Bulk Modulus (GPa) = 44.67887 54.98441 49.83164
# Shear Modulus (GPa) = 22.49072 36.23770 29.36421
#
# Velocity S-wave (km/s) = 2.96373 3.76199 3.38646
# Velocity P-wave (km/s) = 5.40008 6.35170 5.89512
#
# Compressibility (1/GPa) = 0.02238195
#
# Stress axis : x y z
#
# Youngs Moduli (GPa) = 58.70506 147.09739 73.19665
#
# Poissons Ratio (x) = -0.20196 0.42074
# Poissons Ratio (y) = -0.08060 0.23285
# Poissons Ratio (z) = 0.33744 0.46794
#
# Static dielectric constant tensor:
#      x y z
#    x 1.991850 -0.012220 -0.040030 
#    y -0.012220 2.027690 0.016060 
#    z -0.040030 0.016060 2.063450 
# 
# From -- ./inp_files/108.got.cif
#   From: 2010.05.17/outbox.cif.g08.bks.cpg/sg1_1_cif.got.tgz:108.got - 2010.05.17 20:27:59.
