data_PCOD9000584
_publ_section_title
;
Structure prediction by ZEFSAII (Michael W. Deem and Ramdas Pophale) SiO2 
 PCOD9000584
Probable space group: P 1
;
_chemical_formula_sum "Si O2"
_cell_formula_units_Z 8
_cell_length_a 11.427394
_cell_length_b 13.518832
_cell_length_c 14.866098
_cell_angle_alpha 160.981865
_cell_angle_beta 152.553998
_cell_angle_gamma 31.286351
_cell_volume 343.079074
_symmetry_space_group_name_H-M "P 1"
_symmetry_group_IT_number 1
_symmetry_cell_setting 'triclinic'
loop_
_space_group_symop_operation_xyz
x,y,z
loop_
_atom_site_type_symbol
_atom_site_label
_atom_site_fract_x
_atom_site_fract_y
_atom_site_fract_z
Si Si1 0.930990 0.266600 0.434430
Si Si2 0.779193 0.548428 0.940180
Si Si3 0.585878 0.286669 0.046215
Si Si4 0.369753 0.431609 0.756644
Si Si5 0.821589 0.838187 0.396371
Si Si6 0.017179 0.562229 0.918683
Si Si7 0.197885 0.681737 0.680454
Si Si8 0.744516 0.932145 0.677678
O O1 0.711447 0.247256 0.195175
O O2 0.144126 0.455352 0.695872
O O3 0.047916 0.917820 0.229281
O O4 0.846795 0.431840 0.611863
O O5 0.487322 0.704658 0.867241
O O6 0.789513 0.203151 0.687420
O O7 0.907708 0.733108 0.264329
O O8 0.907700 0.540035 0.924056
O O9 0.284694 0.356574 0.912134
O O10 0.682493 0.587470 0.326131
O O11 0.677406 0.021130 0.810776
O O12 0.241791 0.414951 0.556752
O O13 0.560169 0.145327 0.671437
O O14 0.550116 0.704002 0.110086
O O15 0.018732 0.691156 0.478978
O O16 0.037312 0.942018 0.855853
#
# Coordination Sequence:
#
# PCOD9000584 Si02
#       8
#     1   1   1   1   1   1   1   1
#     4  12  26  43  74 108 141 186 228 285 360 419
#     4  11  28  50  73 100 140 190 243 284 342 413
#     4  12  25  44  67 107 141 187 224 284 349 415
#     4  11  24  43  69 108 145 178 223 289 356 422
#     4  11  26  47  70 105 137 189 233 296 343 410
#     4  12  26  50  72 102 144 187 236 289 339 420
#     4  11  25  45  71 104 141 186 226 292 351 412
#     4  12  24  42  68 102 149 179 225 283 352 419
#
# _framework density 23.318241
#
# number of rings (size 3 to 8) (size 9 to 14) (size 15 to 20)
#    0.000    0.500    3.750    3.750    0.000   10.000 
#    2.250    0.000    0.000    0.000    0.000    0.000 
#    0.000    0.000    0.000    0.000    0.000    0.000 
#
# Total GULP energy -44763.721309 kJ/mol
# GULP energy per Si atom -5595.465164 kJ/mol
# Density = 2.326517 g / cm^3
# Si number density = 23.318241 Si / 1000 Ang^3
#
#
#
# Elastic Constant Matrix: (Units=GPa)
#
#
# Indices 1 2 3 4 5 6 
#
# 1 139.5163 47.0070 22.5632 -21.7476 -43.6524 1.6708
# 2 47.0070 136.1225 30.5465 -23.6360 -15.9484 8.1060
# 3 22.5632 30.5465 57.8566 -12.1701 -29.1580 4.5247
# 4 -21.7476 -23.6360 -12.1701 37.9598 10.2809 -11.3266
# 5 -43.6524 -15.9484 -29.1580 10.2809 45.7346 -0.4720
# 6 1.6708 8.1060 4.5247 -11.3266 -0.4720 33.0944
#
#
#
# Elastic Compliance Matrix: (Units=1/GPa)
#
#
# Indices 1 2 3 4 5 6 
#
# 1 0.011738 -0.002980 0.003466 0.003078 0.011692 0.000884
# 2 -0.002980 0.009721 -0.004892 0.003578 -0.003381 -0.000385
# 3 0.003466 -0.004892 0.029012 0.002399 0.019541 -0.001844
# 4 0.003078 0.003578 0.002399 0.034782 -0.001995 0.010516
# 5 0.011692 -0.003381 0.019541 -0.001995 0.044727 -0.002479
# 6 0.000884 -0.000385 -0.001844 0.010516 -0.002479 0.034082
#
#
# Mechanical properties :
#
#
# Convention : Reuss Voigt Hill
#
# Bulk Modulus (GPa) = 24.00329 59.30322 41.65325
# Shear Modulus (GPa) = 26.77229 38.91634 32.84431
#
# Velocity S-wave (km/s) = 3.39208 4.08968 3.75710
# Velocity P-wave (km/s) = 5.06534 6.91288 6.05994
#
# Compressibility (1/GPa) = 0.04166096
#
# Stress axis : x y z
#
# Youngs Moduli (GPa) = 85.18993 102.86853 34.46892
#
# Poissons Ratio (x) = 0.30652 -0.11948
# Poissons Ratio (y) = 0.25384 0.16861
# Poissons Ratio (z) = -0.29528 0.50319
#
# Static dielectric constant tensor:
#      x y z
#    x 1.891270 -0.007030 -0.007950 
#    y -0.007030 1.886980 -0.016660 
#    z -0.007950 -0.016660 1.896520 
# 
# From -- ./inp_files/7277.got.cif
#   From: 2010.05.17/outbox.cif.g08.bks.cpg/sg1_4_cif.got.tgz:7277.got - 2010.05.17 20:27:59.
