data_PCOD9000515
_publ_section_title
;
Structure prediction by ZEFSAII (Michael W. Deem and Ramdas Pophale) SiO2 
 PCOD9000515
Probable space group: P 1
;
_chemical_formula_sum "Si O2"
_cell_formula_units_Z 8
_cell_length_a 6.354427
_cell_length_b 8.202424
_cell_length_c 9.475910
_cell_angle_alpha 131.638159
_cell_angle_beta 124.477141
_cell_angle_gamma 77.160212
_cell_volume 294.638815
_symmetry_space_group_name_H-M "P 1"
_symmetry_group_IT_number 1
_symmetry_cell_setting 'triclinic'
loop_
_space_group_symop_operation_xyz
x,y,z
loop_
_atom_site_type_symbol
_atom_site_label
_atom_site_fract_x
_atom_site_fract_y
_atom_site_fract_z
Si Si1 0.139070 0.057030 0.325240
Si Si2 0.256385 0.364758 0.935878
Si Si3 0.832802 0.764463 0.277903
Si Si4 0.695956 0.377646 0.803918
Si Si5 0.549196 0.557500 0.428948
Si Si6 0.578642 0.069919 0.193281
Si Si7 0.285835 0.877178 0.700211
Si Si8 0.002223 0.670213 0.851254
O O1 0.417513 0.217337 0.564579
O O2 0.065075 0.866570 0.309969
O O3 0.876782 0.152206 0.284874
O O4 0.125187 0.921403 0.095718
O O5 0.958245 0.282472 0.844286
O O6 0.352644 0.139109 0.825605
O O7 0.187549 0.502061 0.854618
O O8 0.437995 0.532043 0.212899
O O9 0.979219 0.790006 0.494530
O O10 0.709838 0.513272 0.033440
O O11 0.769948 0.568104 0.819186
O O12 0.417517 0.717341 0.564580
O O13 0.855812 0.644671 0.634629
O O14 0.482382 0.295567 0.303551
O O15 0.397035 0.902633 0.916259
O O16 0.647477 0.932616 0.274541
#
# Coordination Sequence:
#
# PCOD9000515 Si02
#       8
#     1   1   1   1   1   1   1   1
#     4   9  17  34  55  80 107 133 177 218 252 314
#     4   9  20  32  55  82 102 139 176 216 257 309
#     4   9  18  35  55  75 106 144 168 212 268 303
#     4   9  17  34  55  80 107 133 177 218 252 314
#     4  11  17  32  59  79 103 139 180 211 261 312
#     4   9  20  32  55  82 102 139 176 216 257 309
#     4  11  17  32  59  79 103 139 180 211 261 312
#     4   9  18  35  55  75 106 144 168 212 268 303
#
# _framework density 27.151883999999999
#
# number of rings (size 3 to 8) (size 9 to 14) (size 15 to 20)
#    1.500    1.000    2.500    0.750    0.000    0.000 
#    0.000    2.500    0.000    7.500    0.000    0.000 
#    0.000    0.000    0.000    0.000    0.000    0.000 
#
# Total GULP energy -44730.076178 kJ/mol
# GULP energy per Si atom -5591.259522 kJ/mol
# Density = 2.709009 g / cm^3
# Si number density = 27.151884 Si / 1000 Ang^3
#
#
#
# Elastic Constant Matrix: (Units=GPa)
#
#
# Indices 1 2 3 4 5 6 
#
# 1 69.0429 53.0258 71.7689 0.3232 -7.3483 -6.8194
# 2 53.0258 170.1968 72.2216 -22.9893 -26.0999 -23.9967
# 3 71.7689 72.2216 262.0000 -37.5156 -1.1973 -11.1353
# 4 0.3232 -22.9893 -37.5156 65.0684 -2.1498 -14.7724
# 5 -7.3483 -26.0999 -1.1973 -2.1498 70.2659 -1.2788
# 6 -6.8194 -23.9967 -11.1353 -14.7724 -1.2788 45.3733
#
#
#
# Elastic Compliance Matrix: (Units=1/GPa)
#
#
# Indices 1 2 3 4 5 6 
#
# 1 0.026126 -0.006923 -0.006422 -0.007111 -0.000232 -0.003632
# 2 -0.006923 0.010022 0.000142 0.005141 0.003269 0.006061
# 3 -0.006422 0.000142 0.006204 0.004091 -0.000352 0.001955
# 4 -0.007111 0.005141 0.004091 0.021881 0.002084 0.009837
# 5 -0.000232 0.003269 -0.000352 0.002084 0.015529 0.002724
# 6 -0.003632 0.006061 0.001955 0.009837 0.002724 0.028458
#
#
# Mechanical properties :
#
#
# Convention : Reuss Voigt Hill
#
# Bulk Modulus (GPa) = 62.70558 99.47467 81.09013
# Shear Modulus (GPa) = 35.72938 56.42309 46.07624
#
# Velocity S-wave (km/s) = 3.63148 4.56351 4.12391
# Velocity P-wave (km/s) = 6.38185 8.03016 7.25298
#
# Compressibility (1/GPa) = 0.01594754
#
# Stress axis : x y z
#
# Youngs Moduli (GPa) = 38.27648 99.77755 161.18748
#
# Poissons Ratio (x) = 0.69074 1.03512
# Poissons Ratio (y) = 0.26498 -0.02295
# Poissons Ratio (z) = 0.24580 -0.01421
#
# Static dielectric constant tensor:
#      x y z
#    x 2.321970 0.029330 0.030020 
#    y 0.029330 2.070850 -0.015960 
#    z 0.030020 -0.015960 2.105540 
# 
# From -- ./inp_files/6812.got.cif
#   From: 2010.05.17/outbox.cif.g08.bks.cpg/sg1_4_cif.got.tgz:6812.got - 2010.05.17 20:27:59.
