data_PCOD9000365
_publ_section_title
;
Structure prediction by ZEFSAII (Michael W. Deem and Ramdas Pophale) SiO2 
 PCOD9000365
Probable space group: P 1
;
_chemical_formula_sum "Si O2"
_cell_formula_units_Z 8
_cell_length_a 9.349851
_cell_length_b 9.810910
_cell_length_c 7.426774
_cell_angle_alpha 136.635614
_cell_angle_beta 132.298197
_cell_angle_gamma 46.661370
_cell_volume 318.891097
_symmetry_space_group_name_H-M "P 1"
_symmetry_group_IT_number 1
_symmetry_cell_setting 'triclinic'
loop_
_space_group_symop_operation_xyz
x,y,z
loop_
_atom_site_type_symbol
_atom_site_label
_atom_site_fract_x
_atom_site_fract_y
_atom_site_fract_z
Si Si1 0.636240 0.653950 0.593680
Si Si2 0.739622 0.954225 0.704629
Si Si3 0.209669 0.925109 0.622108
Si Si4 0.776985 0.687405 0.144077
Si Si5 0.275779 0.295342 0.608185
Si Si6 0.917536 0.180329 0.343687
Si Si7 0.373843 0.606490 0.767625
Si Si8 0.233638 0.305844 0.191956
O O1 0.734235 0.750091 0.613704
O O2 0.384357 0.763497 0.484183
O O3 0.705500 0.722718 0.909897
O O4 0.715833 0.398058 0.405605
O O5 0.892012 0.045989 0.023015
O O6 0.509331 0.142681 0.711029
O O7 0.775928 0.880359 0.456593
O O8 0.230525 0.806353 0.716965
O O9 0.989516 0.025513 0.429921
O O10 0.278928 0.122060 0.911707
O O11 0.593798 0.619849 0.008317
O O12 0.005970 0.495938 0.155218
O O13 0.099218 0.273742 0.561217
O O14 0.271147 0.531328 0.776753
O O15 0.231530 0.210460 0.295992
O O16 0.403660 0.410214 0.464972
#
# Coordination Sequence:
#
# PCOD9000365 Si02
#       8
#     1   1   1   1   1   1   1   1
#     4  11  26  50  76 114 152 194 257 314 371 454
#     4  12  28  47  76 113 156 201 249 315 382 441
#     4  11  23  51  77 109 153 195 253 312 382 444
#     4  11  24  50  75 112 150 196 254 308 380 451
#     4  10  24  48  71 109 151 198 251 307 375 451
#     4  12  27  51  75 112 153 202 247 315 376 453
#     4   9  25  44  73 110 143 197 246 316 363 449
#     4  10  23  45  75 109 146 197 251 303 375 451
#
# _framework density 25.086936999999999
#
# number of rings (size 3 to 8) (size 9 to 14) (size 15 to 20)
#    0.750    0.500    2.500    2.250    5.250    4.000 
#    4.500    0.000    0.000    0.000    0.000    0.000 
#    0.000    0.000    0.000    0.000    0.000    0.000 
#
# Total GULP energy -44708.409324 kJ/mol
# GULP energy per Si atom -5588.551166 kJ/mol
# Density = 2.502984 g / cm^3
# Si number density = 25.086937 Si / 1000 Ang^3
#
#
#
# Elastic Constant Matrix: (Units=GPa)
#
#
# Indices 1 2 3 4 5 6 
#
# 1 72.5133 23.7210 8.3449 5.5450 5.7152 3.0702
# 2 23.7210 134.3034 44.1519 2.4909 2.4507 -5.5372
# 3 8.3449 44.1519 132.9325 12.5149 -5.5712 4.1445
# 4 5.5450 2.4909 12.5149 32.9771 0.5375 -6.8211
# 5 5.7152 2.4507 -5.5712 0.5375 34.4318 -8.1525
# 6 3.0702 -5.5372 4.1445 -6.8211 -8.1525 33.5097
#
#
#
# Elastic Compliance Matrix: (Units=1/GPa)
#
#
# Indices 1 2 3 4 5 6 
#
# 1 0.015290 -0.002800 0.000234 -0.003072 -0.003023 -0.003253
# 2 -0.002800 0.009011 -0.003032 0.001435 -0.000126 0.002382
# 3 0.000234 -0.003032 0.008975 -0.003668 0.001192 -0.002089
# 4 -0.003072 0.001435 -0.003668 0.033789 0.001216 0.008146
# 5 -0.003023 -0.000126 0.001192 0.001216 0.031634 0.008052
# 6 -0.003253 0.002382 -0.002089 0.008146 0.008052 0.034409
#
#
# Mechanical properties :
#
#
# Convention : Reuss Voigt Hill
#
# Bulk Modulus (GPa) = 45.28620 54.68720 49.98670
# Shear Modulus (GPa) = 32.96741 37.75247 35.35994
#
# Velocity S-wave (km/s) = 3.62902 3.88347 3.75840
# Velocity P-wave (km/s) = 5.97081 6.47726 6.22918
#
# Compressibility (1/GPa) = 0.02208178
#
# Stress axis : x y z
#
# Youngs Moduli (GPa) = 65.40053 110.97729 111.41680
#
# Poissons Ratio (x) = 0.31068 -0.02606
# Poissons Ratio (y) = 0.18309 0.33779
# Poissons Ratio (z) = -0.01530 0.33646
#
# Static dielectric constant tensor:
#      x y z
#    x 2.014790 0.020740 0.011410 
#    y 0.020740 2.013860 -0.010320 
#    z 0.011410 -0.010320 1.926400 
# 
# From -- ./inp_files/5481.got.cif
#   From: 2010.05.17/outbox.cif.g08.bks.cpg/sg1_3_cif.got.tgz:5481.got - 2010.05.17 20:27:59.
