data_PCOD9000459
_publ_section_title
;
Structure prediction by ZEFSAII (Michael W. Deem and Ramdas Pophale) SiO2 
 PCOD9000459
Probable space group: P 1
;
_chemical_formula_sum "Si O2"
_cell_formula_units_Z 8
_cell_length_a 8.005622
_cell_length_b 9.134418
_cell_length_c 5.235394
_cell_angle_alpha 84.822035
_cell_angle_beta 56.868082
_cell_angle_gamma 69.285414
_cell_volume 297.268015
_symmetry_space_group_name_H-M "P 1"
_symmetry_group_IT_number 1
_symmetry_cell_setting 'triclinic'
loop_
_space_group_symop_operation_xyz
x,y,z
loop_
_atom_site_type_symbol
_atom_site_label
_atom_site_fract_x
_atom_site_fract_y
_atom_site_fract_z
Si Si1 0.239160 0.524380 0.871710
Si Si2 0.607163 0.278858 0.351590
Si Si3 0.469122 0.740503 0.835060
Si Si4 0.053051 0.290748 0.947988
Si Si5 0.616507 0.089630 0.871904
Si Si6 0.355100 0.963816 0.496071
Si Si7 0.912093 0.601597 0.746485
Si Si8 0.079005 0.831787 0.434427
O O1 0.397671 0.436348 0.511925
O O2 0.163782 0.378584 0.036129
O O3 0.017499 0.642453 0.910198
O O4 0.408836 0.587961 0.848500
O O5 0.568224 0.166364 0.620158
O O6 0.634012 0.209129 0.056714
O O7 0.830962 0.291342 0.244243
O O8 0.532469 0.841738 0.550960
O O9 0.226770 0.857479 0.086180
O O10 0.662355 0.682052 0.884162
O O11 0.976070 0.416566 0.758615
O O12 0.199440 0.123606 0.736243
O O13 0.456745 0.018090 0.156067
O O14 0.847273 0.955107 0.662039
O O15 0.226564 0.852299 0.536135
O O16 0.042572 0.668641 0.430036
#
# Coordination Sequence:
#
# PCOD9000459 Si02
#       8
#     1   1   1   1   1   1   1   1
#     4  10  26  49  82 119 168 209 281 339 418 496
#     4  12  27  50  82 123 165 219 277 351 419 494
#     4  12  28  50  85 117 169 222 271 343 425 500
#     4  10  24  50  82 116 167 213 279 344 418 494
#     4  12  29  47  83 121 168 216 282 345 422 496
#     4  12  25  51  81 118 164 217 279 344 417 498
#     4  10  26  48  76 124 163 214 276 333 421 495
#     4  12  27  47  81 118 168 212 279 337 422 493
#
# _framework density 26.911742
#
# number of rings (size 3 to 8) (size 9 to 14) (size 15 to 20)
#    0.750    0.000    3.750    1.500    7.000    4.000 
#    2.250    0.000    0.000    0.000    0.000    0.000 
#    0.000    0.000    0.000    0.000    0.000    0.000 
#
# Total GULP energy -44615.077406 kJ/mol
# GULP energy per Si atom -5576.884676 kJ/mol
# Density = 2.685049 g / cm^3
# Si number density = 26.911742 Si / 1000 Ang^3
#
#
#
# Elastic Constant Matrix: (Units=GPa)
#
#
# Indices 1 2 3 4 5 6 
#
# 1 124.2639 50.4209 49.3061 -5.4499 -22.4952 6.6208
# 2 50.4209 131.8356 47.6966 -12.0190 -19.7986 17.4804
# 3 49.3061 47.6966 79.3845 -22.8821 -20.2137 -4.1954
# 4 -5.4499 -12.0190 -22.8821 32.9683 2.9329 -4.3509
# 5 -22.4952 -19.7986 -20.2137 2.9329 50.7509 -6.9840
# 6 6.6208 17.4804 -4.1954 -4.3509 -6.9840 54.1057
#
#
#
# Elastic Compliance Matrix: (Units=1/GPa)
#
#
# Indices 1 2 3 4 5 6 
#
# 1 0.011796 -0.001900 -0.006944 -0.003910 0.001747 -0.001457
# 2 -0.001900 0.010853 -0.005579 -0.000778 0.000709 -0.003678
# 3 -0.006944 -0.005579 0.026453 0.015584 0.005295 0.006640
# 4 -0.003910 -0.000778 0.015584 0.040721 0.002580 0.005546
# 5 0.001747 0.000709 0.005295 0.002580 0.023150 0.003164
# 6 -0.001457 -0.003678 0.006640 0.005546 0.003164 0.021218
#
#
# Mechanical properties :
#
#
# Convention : Reuss Voigt Hill
#
# Bulk Modulus (GPa) = 49.36854 70.03681 59.70267
# Shear Modulus (GPa) = 29.44809 40.10233 34.77521
#
# Velocity S-wave (km/s) = 3.31153 3.86442 3.59861
# Velocity P-wave (km/s) = 5.74509 6.78180 6.28486
#
# Compressibility (1/GPa) = 0.02025582
#
# Stress axis : x y z
#
# Youngs Moduli (GPa) = 84.77360 92.13623 37.80262
#
# Poissons Ratio (x) = 0.17506 0.26251
# Poissons Ratio (y) = 0.16107 0.21091
# Poissons Ratio (z) = 0.58869 0.51404
#
# Static dielectric constant tensor:
#      x y z
#    x 2.156510 0.014810 0.168020 
#    y 0.014810 2.200120 0.015650 
#    z 0.168020 0.015650 2.234900 
# 
# From -- ./inp_files/4599.got.cif
#   From: 2010.05.17/outbox.cif.g08.bks.cpg/sg1_3_cif.got.tgz:4599.got - 2010.05.17 20:27:59.
