data_PCOD9000227
_publ_section_title
;
Structure prediction by ZEFSAII (Michael W. Deem and Ramdas Pophale) SiO2 
 PCOD9000227
Probable space group: P 1
;
_chemical_formula_sum "Si O2"
_cell_formula_units_Z 8
_cell_length_a 11.567784
_cell_length_b 11.433372
_cell_length_c 5.154074
_cell_angle_alpha 108.586001
_cell_angle_beta 52.147270
_cell_angle_gamma 140.960777
_cell_volume 321.473737
_symmetry_space_group_name_H-M "P 1"
_symmetry_group_IT_number 1
_symmetry_cell_setting 'triclinic'
loop_
_space_group_symop_operation_xyz
x,y,z
loop_
_atom_site_type_symbol
_atom_site_label
_atom_site_fract_x
_atom_site_fract_y
_atom_site_fract_z
Si Si1 0.349340 0.791550 0.919050
Si Si2 0.207654 0.957692 0.347391
Si Si3 0.888449 0.144961 0.480409
Si Si4 0.952563 0.683939 0.903641
Si Si5 0.495387 0.362832 0.031405
Si Si6 0.342926 0.400591 0.773162
Si Si7 0.801978 0.814054 0.560146
Si Si8 0.130967 0.545993 0.580963
O O1 0.321186 0.680663 0.638953
O O2 0.620172 0.000872 0.709645
O O3 0.222078 0.839951 0.083789
O O4 0.235955 0.655747 0.235295
O O5 0.197390 0.894148 0.603280
O O6 0.979809 0.897094 0.604237
O O7 0.410485 0.177014 0.124855
O O8 0.003786 0.332850 0.610130
O O9 0.874546 0.997542 0.507248
O O10 0.072790 0.255994 0.069479
O O11 0.959115 0.547263 0.889809
O O12 0.771334 0.553086 0.816935
O O13 0.859893 0.735036 0.239784
O O14 0.399229 0.398467 0.401204
O O15 0.400412 0.328013 0.850262
O O16 0.522115 0.619452 0.803216
#
# Coordination Sequence:
#
# PCOD9000227 Si02
#       8
#     1   1   1   1   1   1   1   1
#     4  11  27  48  73 102 145 189 237 284 355 424
#     4  11  21  42  72 102 133 182 232 290 343 409
#     4  12  26  48  71 105 147 189 232 291 354 423
#     4  10  22  43  70 101 142 178 231 295 345 412
#     4  11  23  39  68 103 137 174 232 283 351 405
#     4  11  25  42  64 104 138 181 224 288 348 411
#     4  11  22  44  72 101 138 177 236 290 347 404
#     4  11  26  48  72 104 142 190 234 287 355 422
#
# _framework density 24.885390999999998
#
# number of rings (size 3 to 8) (size 9 to 14) (size 15 to 20)
#    0.000    1.000    3.750    2.250    0.000    5.000 
#    6.750    0.000    0.000    0.000    0.000    0.000 
#    0.000    0.000    0.000    0.000    0.000    0.000 
#
# Total GULP energy -44641.453424 kJ/mol
# GULP energy per Si atom -5580.181678 kJ/mol
# Density = 2.482875 g / cm^3
# Si number density = 24.885391 Si / 1000 Ang^3
#
#
#
# Elastic Constant Matrix: (Units=GPa)
#
#
# Indices 1 2 3 4 5 6 
#
# 1 67.1676 31.0512 32.9047 1.9072 -4.4919 -18.7067
# 2 31.0512 170.6021 44.4267 -19.7012 0.4650 -33.7697
# 3 32.9047 44.4267 51.3427 -4.2281 -3.4083 -16.1294
# 4 1.9072 -19.7012 -4.2281 41.9551 -0.2921 -1.6066
# 5 -4.4919 0.4650 -3.4083 -0.2921 43.7954 6.1180
# 6 -18.7067 -33.7697 -16.1294 -1.6066 6.1180 40.8204
#
#
#
# Elastic Compliance Matrix: (Units=1/GPa)
#
#
# Indices 1 2 3 4 5 6 
#
# 1 0.022874 0.000045 -0.013228 -0.002152 0.000587 0.005120
# 2 0.000045 0.008869 -0.005775 0.003779 -0.001270 0.005415
# 3 -0.013228 -0.005775 0.033909 0.001408 0.001009 0.002463
# 4 -0.002152 0.003779 0.001408 0.025991 -0.000508 0.003796
# 5 0.000587 -0.001270 0.001009 -0.000508 0.023531 -0.003930
# 6 0.005120 0.005415 0.002463 0.003796 -0.003930 0.033035
#
#
# Mechanical properties :
#
#
# Convention : Reuss Voigt Hill
#
# Bulk Modulus (GPa) = 36.05586 56.20860 46.13223
# Shear Modulus (GPa) = 25.59232 37.36283 31.47758
#
# Velocity S-wave (km/s) = 3.21036 3.87899 3.56040
# Velocity P-wave (km/s) = 5.31621 6.53438 5.95652
#
# Compressibility (1/GPa) = 0.02773474
#
# Stress axis : x y z
#
# Youngs Moduli (GPa) = 43.71765 112.75142 29.49106
#
# Poissons Ratio (x) = -0.00506 0.39011
# Poissons Ratio (y) = -0.00196 0.17032
# Poissons Ratio (z) = 0.57831 0.65116
#
# Static dielectric constant tensor:
#      x y z
#    x 2.091850 0.043930 -0.003830 
#    y 0.043930 1.974770 0.021740 
#    z -0.003830 0.021740 2.041950 
# 
# From -- ./inp_files/2411.got.cif
#   From: 2010.05.17/outbox.cif.g08.bks.cpg/sg1_2_cif.got.tgz:2411.got - 2010.05.17 20:27:59.
