data_PCOD9000161
_publ_section_title
;
Structure prediction by ZEFSAII (Michael W. Deem and Ramdas Pophale) SiO2 
 PCOD9000161
Probable space group: P 1
;
_chemical_formula_sum "Si O2"
_cell_formula_units_Z 8
_cell_length_a 5.083802
_cell_length_b 5.440252
_cell_length_c 13.177895
_cell_angle_alpha 111.148258
_cell_angle_beta 111.594957
_cell_angle_gamma 86.197580
_cell_volume 315.127726
_symmetry_space_group_name_H-M "P 1"
_symmetry_group_IT_number 1
_symmetry_cell_setting 'triclinic'
loop_
_space_group_symop_operation_xyz
x,y,z
loop_
_atom_site_type_symbol
_atom_site_label
_atom_site_fract_x
_atom_site_fract_y
_atom_site_fract_z
Si Si1 0.665210 0.955280 0.723120
Si Si2 0.290221 0.560518 0.504159
Si Si3 0.663658 0.828872 0.004468
Si Si4 0.163944 0.578847 0.772919
Si Si5 0.530850 0.408345 0.107488
Si Si6 0.991044 0.395361 0.928342
Si Si7 0.797463 0.189362 0.555193
Si Si8 0.677694 0.652226 0.381226
O O1 0.367471 0.792565 0.633465
O O2 0.896570 0.756894 0.760211
O O3 0.707400 0.206912 0.840510
O O4 0.753186 0.047202 0.636261
O O5 0.514647 0.344058 0.526078
O O6 0.413329 0.642102 0.420559
O O7 0.951891 0.508507 0.439290
O O8 0.592520 0.638689 0.065116
O O9 0.685860 0.138297 0.076209
O O10 0.443260 0.761383 0.869377
O O11 0.942504 0.698668 0.987657
O O12 0.137804 0.392558 0.840231
O O13 0.087168 0.377970 0.639337
O O14 0.587026 0.532943 0.243292
O O15 0.201836 0.307716 0.029376
O O16 0.798572 0.958236 0.439206
#
# Coordination Sequence:
#
# PCOD9000161 Si02
#       8
#     1   1   1   1   1   1   1   1
#     4   9  18  41  64  96 137 170 232 287 357 417
#     4  10  24  44  69 102 135 181 235 293 355 421
#     4  11  25  42  70 100 135 185 233 289 357 416
#     4   9  19  41  63  99 136 172 229 286 353 424
#     4  11  27  45  66 102 138 183 241 287 348 427
#     4  10  22  40  67  96 139 179 226 292 353 419
#     4   9  21  42  66  98 135 181 227 295 354 420
#     4  11  26  45  71  97 141 183 239 289 353 424
#
# _framework density 25.386533
#
# number of rings (size 3 to 8) (size 9 to 14) (size 15 to 20)
#    0.000    2.000    1.250    0.000    7.000    3.000 
#   18.000    0.000    0.000    0.000    0.000    0.000 
#    0.000    0.000    0.000    0.000    0.000    0.000 
#
# Total GULP energy -44699.096430 kJ/mol
# GULP energy per Si atom -5587.387054 kJ/mol
# Density = 2.532875 g / cm^3
# Si number density = 25.386533 Si / 1000 Ang^3
#
#
#
# Elastic Constant Matrix: (Units=GPa)
#
#
# Indices 1 2 3 4 5 6 
#
# 1 71.9723 23.1465 6.9675 4.9034 2.0544 -6.0571
# 2 23.1465 111.5325 62.4042 19.3166 -7.7263 -4.1027
# 3 6.9675 62.4042 178.7598 18.0510 -5.6211 -13.6860
# 4 4.9034 19.3166 18.0510 42.9457 -6.7199 -1.6760
# 5 2.0544 -7.7263 -5.6211 -6.7199 15.6971 4.2853
# 6 -6.0571 -4.1027 -13.6860 -1.6760 4.2853 42.7125
#
#
#
# Elastic Compliance Matrix: (Units=1/GPa)
#
#
# Indices 1 2 3 4 5 6 
#
# 1 0.015431 -0.003726 0.000855 -0.001082 -0.004702 0.002534
# 2 -0.003726 0.012726 -0.003943 -0.003003 0.004361 -0.001125
# 3 0.000855 -0.003943 0.007214 -0.001373 -0.000620 0.002062
# 4 -0.001082 -0.003003 -0.001373 0.026852 0.009891 -0.000821
# 5 -0.004702 0.004361 -0.000620 0.009891 0.072482 -0.007331
# 6 0.002534 -0.001125 0.002062 -0.000821 -0.007331 0.025028
#
#
# Mechanical properties :
#
#
# Convention : Reuss Voigt Hill
#
# Bulk Modulus (GPa) = 45.99207 60.81123 53.40165
# Shear Modulus (GPa) = 27.68406 38.25416 32.96911
#
# Velocity S-wave (km/s) = 3.30586 3.88605 3.60764
# Velocity P-wave (km/s) = 5.72081 6.64389 6.19955
#
# Compressibility (1/GPa) = 0.02174288
#
# Stress axis : x y z
#
# Youngs Moduli (GPa) = 64.80522 78.57750 138.61202
#
# Poissons Ratio (x) = 0.29275 -0.11845
# Poissons Ratio (y) = 0.24144 0.54658
# Poissons Ratio (z) = -0.05538 0.30985
#
# Static dielectric constant tensor:
#      x y z
#    x 2.103050 0.089810 -0.000860 
#    y 0.089810 2.068220 0.001440 
#    z -0.000860 0.001440 1.952080 
# 
# From -- ./inp_files/335.got.cif
#   From: 2010.05.17/outbox.cif.g08.bks.cpg/sg1_1_cif.got.tgz:335.got - 2010.05.17 20:27:59.
