data_PCOD9000041
_publ_section_title
;
Structure prediction by ZEFSAII (Michael W. Deem and Ramdas Pophale) SiO2 
 PCOD9000041
Probable space group: P 1
;
_chemical_formula_sum "Si O2"
_cell_formula_units_Z 8
_cell_length_a 8.263233
_cell_length_b 8.985778
_cell_length_c 8.113397
_cell_angle_alpha 95.550777
_cell_angle_beta 67.308599
_cell_angle_gamma 48.419080
_cell_volume 357.334518
_symmetry_space_group_name_H-M "P 1"
_symmetry_group_IT_number 1
_symmetry_cell_setting 'triclinic'
loop_
_space_group_symop_operation_xyz
x,y,z
loop_
_atom_site_type_symbol
_atom_site_label
_atom_site_fract_x
_atom_site_fract_y
_atom_site_fract_z
Si Si1 0.564050 0.133850 0.399500
Si Si2 0.260701 0.857138 0.655816
Si Si3 0.900251 0.290808 0.604088
Si Si4 0.335369 0.517191 0.729057
Si Si5 0.290611 0.197343 0.191704
Si Si6 0.614707 0.711353 0.981655
Si Si7 0.113030 0.882319 0.074081
Si Si8 0.780716 0.663818 0.284836
O O1 0.359355 0.336085 0.634624
O O2 0.436131 0.199330 0.276025
O O3 0.678652 0.898820 0.380439
O O4 0.814243 0.086505 0.282764
O O5 0.247458 0.685395 0.632850
O O6 0.567917 0.705505 0.481739
O O7 0.171535 0.939373 0.890629
O O8 0.065599 0.073905 0.636012
O O9 0.623902 0.391389 0.667359
O O10 0.095698 0.211019 0.371076
O O11 0.818093 0.495263 0.756114
O O12 0.139349 0.694780 0.973382
O O13 0.088260 0.425420 0.185968
O O14 0.510304 0.944423 0.994252
O O15 0.351625 0.772420 0.090737
O O16 0.727401 0.657309 0.114832
#
# Coordination Sequence:
#
# PCOD9000041 Si02
#       8
#     1   1   1   1   1   1   1   1
#     4  11  23  41  62  93 135 162 199 266 318 367
#     4  10  21  41  67  93 118 168 215 250 305 377
#     4  11  20  41  67  95 122 161 221 256 302 375
#     4   9  22  40  65  87 129 161 210 257 308 364
#     4  11  23  42  60  95 134 162 207 259 314 374
#     4  10  22  38  69  91 124 163 213 261 301 369
#     4   9  22  43  61  95 125 158 212 256 312 367
#     4  11  23  42  67  95 123 169 213 255 316 365
#
# _framework density 22.387983999999999
#
# number of rings (size 3 to 8) (size 9 to 14) (size 15 to 20)
#    0.750    1.000    3.750    0.750    1.750    3.000 
#    4.500    0.000    0.000    0.000    0.000    0.000 
#    0.000    0.000    0.000    0.000    0.000    0.000 
#
# Total GULP energy -44659.897968 kJ/mol
# GULP energy per Si atom -5582.487246 kJ/mol
# Density = 2.233703 g / cm^3
# Si number density = 22.387984 Si / 1000 Ang^3
#
#
#
# Elastic Constant Matrix: (Units=GPa)
#
#
# Indices 1 2 3 4 5 6 
#
# 1 55.5283 23.8506 2.6043 11.9956 15.4556 -2.5125
# 2 23.8506 151.9838 21.9082 19.7161 26.7830 -14.7683
# 3 2.6043 21.9082 62.9103 20.3163 18.6733 14.8152
# 4 11.9956 19.7161 20.3163 31.2778 13.2097 1.8753
# 5 15.4556 26.7830 18.6733 13.2097 39.4599 8.5427
# 6 -2.5125 -14.7683 14.8152 1.8753 8.5427 28.0725
#
#
#
# Elastic Compliance Matrix: (Units=1/GPa)
#
#
# Indices 1 2 3 4 5 6 
#
# 1 0.022156 -0.001613 0.003580 -0.006785 -0.007430 0.001960
# 2 -0.001613 0.009180 -0.002924 -0.001440 -0.005462 0.007987
# 3 0.003580 -0.002924 0.025261 -0.013422 -0.004199 -0.012375
# 4 -0.006785 -0.001440 -0.013422 0.046735 -0.006659 0.004623
# 5 -0.007430 -0.005462 -0.004199 -0.006659 0.038930 -0.012724
# 6 0.001960 0.007987 -0.012375 0.004623 -0.012724 0.050093
#
#
# Mechanical properties :
#
#
# Convention : Reuss Voigt Hill
#
# Bulk Modulus (GPa) = 18.28761 40.79428 29.54095
# Shear Modulus (GPa) = 23.52954 34.56601 29.04778
#
# Velocity S-wave (km/s) = 3.24541 3.93358 3.60595
# Velocity P-wave (km/s) = 4.71485 6.23633 5.52818
#
# Compressibility (1/GPa) = 0.05468182
#
# Stress axis : x y z
#
# Youngs Moduli (GPa) = 45.13391 108.93564 39.58637
#
# Poissons Ratio (x) = 0.17571 -0.14171
# Poissons Ratio (y) = 0.07280 0.11577
# Poissons Ratio (z) = -0.16157 0.31858
#
# Static dielectric constant tensor:
#      x y z
#    x 1.838200 0.017350 0.002630 
#    y 0.017350 1.836440 0.030390 
#    z 0.002630 0.030390 1.815820 
# 
# From -- ./inp_files/4094.got.cif
#   From: 2010.05.17/outbox.cif.g08.bks.cpg/sg1_3_cif.got.tgz:4094.got - 2010.05.17 20:27:59.
