data_PCOD9000834
_publ_section_title
;
Structure prediction by ZEFSAII (Michael W. Deem and Ramdas Pophale) SiO2 
 PCOD9000834
Probable space group: P 1
;
_chemical_formula_sum "Si O2"
_cell_formula_units_Z 8
_cell_length_a 8.162471
_cell_length_b 7.002077
_cell_length_c 7.867728
_cell_angle_alpha 137.102081
_cell_angle_beta 80.563542
_cell_angle_gamma 103.033803
_cell_volume 298.204283
_symmetry_space_group_name_H-M "P 1"
_symmetry_group_IT_number 1
_symmetry_cell_setting 'triclinic'
loop_
_space_group_symop_operation_xyz
x,y,z
loop_
_atom_site_type_symbol
_atom_site_label
_atom_site_fract_x
_atom_site_fract_y
_atom_site_fract_z
Si Si1 0.089050 0.284200 0.166830
Si Si2 0.195306 0.815291 0.283200
Si Si3 0.987396 0.107930 0.719814
Si Si4 0.828743 0.546242 0.552599
Si Si5 0.666512 0.282524 0.836784
Si Si6 0.554327 0.821567 0.313818
Si Si7 0.143555 0.717306 0.863663
Si Si8 0.493352 0.709953 0.628276
O O1 0.162013 0.605933 0.317306
O O2 0.901825 0.290273 0.277784
O O3 0.169751 0.060153 0.115308
O O4 0.101928 0.141375 0.887373
O O5 0.391968 0.922500 0.327454
O O6 0.152914 0.628415 0.000168
O O7 0.084166 0.058328 0.499982
O O8 0.868431 0.806893 0.580830
O O9 0.853747 0.320258 0.898663
O O10 0.630091 0.559620 0.609184
O O11 0.964410 0.621532 0.734838
O O12 0.614971 0.589344 0.032355
O O13 0.673409 0.103002 0.543235
O O14 0.548376 0.056603 0.829769
O O15 0.508520 0.645659 0.382917
O O16 0.305037 0.644745 0.689314
#
# Coordination Sequence:
#
# PCOD9000834 Si02
#       8
#     1   1   1   1   1   1   1   1
#     4  10  20  39  69  84 127 169 213 273 328 384
#     4  11  24  38  61  97 128 168 221 264 330 398
#     4   9  19  37  62  91 123 169 213 270 323 386
#     4   9  19  38  60  95 119 166 217 264 326 390
#     4   9  20  36  66  95 122 170 220 267 328 391
#     4  10  20  38  62  94 129 166 221 271 324 390
#     4  11  23  41  60  95 132 166 216 269 327 397
#     4   9  19  37  64  91 128 170 217 270 326 388
#
# _framework density 26.827248999999998
#
# number of rings (size 3 to 8) (size 9 to 14) (size 15 to 20)
#    0.750    1.500    0.000    3.750    3.500    1.000 
#    2.250    1.250    0.000    0.000    0.000    0.000 
#    0.000    0.000    0.000    0.000    0.000    0.000 
#
# Total GULP energy -44615.850503 kJ/mol
# GULP energy per Si atom -5576.981313 kJ/mol
# Density = 2.676619 g / cm^3
# Si number density = 26.827249 Si / 1000 Ang^3
#
#
#
# Elastic Constant Matrix: (Units=GPa)
#
#
# Indices 1 2 3 4 5 6 
#
# 1 128.2682 15.6288 22.9162 -6.2698 -4.5266 -25.4350
# 2 15.6288 72.0746 13.0854 -8.4691 -6.0246 -6.6821
# 3 22.9162 13.0854 131.0575 -10.4004 -10.0601 -8.3095
# 4 -6.2698 -8.4691 -10.4004 45.6327 -10.2095 6.0178
# 5 -4.5266 -6.0246 -10.0601 -10.2095 33.8160 6.0508
# 6 -25.4350 -6.6821 -8.3095 6.0178 6.0508 29.8099
#
#
#
# Elastic Compliance Matrix: (Units=1/GPa)
#
#
# Indices 1 2 3 4 5 6 
#
# 1 0.009675 -0.001269 -0.001157 -0.000391 -0.000805 0.007890
# 2 -0.001269 0.014970 -0.000749 0.003000 0.003029 0.000843
# 3 -0.001157 -0.000749 0.008308 0.002209 0.002825 0.000141
# 4 -0.000391 0.003000 0.002209 0.026026 0.010134 -0.006356
# 5 -0.000805 0.003029 0.002825 0.010134 0.035417 -0.008455
# 6 0.007890 0.000843 0.000141 -0.006356 -0.008455 0.043506
#
#
# Mechanical properties :
#
#
# Convention : Reuss Voigt Hill
#
# Bulk Modulus (GPa) = 37.59180 48.29568 42.94374
# Shear Modulus (GPa) = 32.65417 40.50304 36.57860
#
# Velocity S-wave (km/s) = 3.49263 3.88979 3.69655
# Velocity P-wave (km/s) = 5.50523 6.18187 5.85334
#
# Compressibility (1/GPa) = 0.02660155
#
# Stress axis : x y z
#
# Youngs Moduli (GPa) = 103.36281 66.80223 120.35871
#
# Poissons Ratio (x) = 0.08480 0.13931
# Poissons Ratio (y) = 0.13122 0.09010
# Poissons Ratio (z) = 0.11964 0.05001
#
# Static dielectric constant tensor:
#      x y z
#    x 2.127820 0.083950 0.030810 
#    y 0.083950 2.219220 0.041130 
#    z 0.030810 0.041130 2.069350 
# 
# From -- ./inp_files/4293.got.cif
#   From: 2010.05.17/outbox.cif.g08.bks.cpg/sg1_3_cif.got.tgz:4293.got - 2010.05.17 20:27:59.
