data_PCOD9000671
_publ_section_title
;
Structure prediction by ZEFSAII (Michael W. Deem and Ramdas Pophale) SiO2 
 PCOD9000671
Probable space group: P 1
;
_chemical_formula_sum "Si O2"
_cell_formula_units_Z 6
_cell_length_a 5.464534
_cell_length_b 14.865058
_cell_length_c 7.241486
_cell_angle_alpha 153.058436
_cell_angle_beta 117.164075
_cell_angle_gamma 53.901747
_cell_volume 211.522868
_symmetry_space_group_name_H-M "P 1"
_symmetry_group_IT_number 1
_symmetry_cell_setting 'triclinic'
loop_
_space_group_symop_operation_xyz
x,y,z
loop_
_atom_site_type_symbol
_atom_site_label
_atom_site_fract_x
_atom_site_fract_y
_atom_site_fract_z
Si Si1 0.583890 0.050340 0.568680
Si Si2 0.167245 0.412398 0.544262
Si Si3 0.104259 0.525513 0.147063
Si Si4 0.700639 0.069512 0.261190
Si Si5 0.230103 0.838306 0.247593
Si Si6 0.672699 0.525894 0.265564
O O1 0.549160 0.993270 0.237336
O O2 0.496100 0.906821 0.416325
O O3 0.335212 0.310980 0.961424
O O4 0.950387 0.984519 0.564914
O O5 0.463780 0.171213 0.200611
O O6 0.884713 0.463959 0.405807
O O7 0.057278 0.445743 0.781841
O O8 0.293523 0.590533 0.863898
O O9 0.312886 0.646532 0.399834
O O10 0.796275 0.641071 0.369782
O O11 0.714702 0.295757 0.759014
O O12 0.050446 0.896097 0.093298
#
# Coordination Sequence:
#
# PCOD9000671 Si02
#       6
#     1   1   1   1   1   1
#     4   8  16  34  57  75 115 151 176 241 281 323
#     4  10  22  37  66  86 113 163 188 235 307 331
#     4  10  20  40  60  83 121 150 194 242 281 347
#     4   8  20  39  58  80 120 149 190 239 279 344
#     4  10  18  35  59  83 115 151 188 239 287 338
#     4  10  20  37  62  87 114 152 198 238 281 351
#
# _framework density 28.365727
#
# number of rings (size 3 to 8) (size 9 to 14) (size 15 to 20)
#    1.000    2.000    1.667    0.000    0.000    6.667 
#    0.000    3.333    7.333    0.000    0.000    0.000 
#    0.000    0.000    0.000    0.000    0.000    0.000 
#
# Total GULP energy -33468.781232 kJ/mol
# GULP energy per Si atom -5578.130205 kJ/mol
# Density = 2.830117 g / cm^3
# Si number density = 28.365727 Si / 1000 Ang^3
#
#
#
# Elastic Constant Matrix: (Units=GPa)
#
#
# Indices 1 2 3 4 5 6 
#
# 1 200.2563 29.9921 30.5474 -7.7105 22.7442 29.9200
# 2 29.9921 188.9414 29.8691 -0.3888 0.9345 2.0861
# 3 30.5474 29.8691 65.4792 -14.6090 3.0448 16.0155
# 4 -7.7105 -0.3888 -14.6090 58.8748 -5.0627 2.9663
# 5 22.7442 0.9345 3.0448 -5.0627 41.6108 4.7218
# 6 29.9200 2.0861 16.0155 2.9663 4.7218 28.0346
#
#
#
# Elastic Compliance Matrix: (Units=1/GPa)
#
#
# Indices 1 2 3 4 5 6 
#
# 1 0.006475 -0.000801 -0.000925 0.000681 -0.002696 -0.005940
# 2 -0.000801 0.005878 -0.003070 -0.000927 0.000163 0.002242
# 3 -0.000925 -0.003070 0.021209 0.005801 0.001055 -0.011692
# 4 0.000681 -0.000927 0.005801 0.019023 0.002261 -0.006365
# 5 -0.002696 0.000163 0.001055 0.002261 0.025967 -0.002350
# 6 -0.005940 0.002242 -0.011692 -0.006365 -0.002350 0.049591
#
#
# Mechanical properties :
#
#
# Convention : Reuss Voigt Hill
#
# Bulk Modulus (GPa) = 41.72148 70.61046 56.16597
# Shear Modulus (GPa) = 34.31123 49.98859 42.14991
#
# Velocity S-wave (km/s) = 3.48171 4.20252 3.85898
# Velocity P-wave (km/s) = 5.55908 6.96384 6.30073
#
# Compressibility (1/GPa) = 0.02396847
#
# Stress axis : x y z
#
# Youngs Moduli (GPa) = 154.44920 170.13407 47.14971
#
# Poissons Ratio (x) = 0.13631 0.04361
# Poissons Ratio (y) = 0.12375 0.14476
# Poissons Ratio (z) = 0.14287 0.52235
#
# Static dielectric constant tensor:
#      x y z
#    x 2.303540 -0.025490 -0.045370 
#    y -0.025490 2.187060 0.010010 
#    z -0.045370 0.010010 2.355670 
# 
# From -- ./inp_files/3251.got.cif
#   From: 2010.05.17/outbox.cif.g08.bks.cpg/sg1_2_cif.got.tgz:3251.got - 2010.05.17 20:27:59.
