data_PCOD9000601
_publ_section_title
;
Structure prediction by ZEFSAII (Michael W. Deem and Ramdas Pophale) SiO2 
 PCOD9000601
Probable space group: P 1
;
_chemical_formula_sum "Si O2"
_cell_formula_units_Z 8
_cell_length_a 14.287166
_cell_length_b 8.174140
_cell_length_c 8.477996
_cell_angle_alpha 110.236948
_cell_angle_beta 138.490181
_cell_angle_gamma 37.227715
_cell_volume 310.088436
_symmetry_space_group_name_H-M "P 1"
_symmetry_group_IT_number 1
_symmetry_cell_setting 'triclinic'
loop_
_space_group_symop_operation_xyz
x,y,z
loop_
_atom_site_type_symbol
_atom_site_label
_atom_site_fract_x
_atom_site_fract_y
_atom_site_fract_z
Si Si1 0.320180 0.763060 0.750000
Si Si2 0.727309 0.289738 0.552111
Si Si3 0.600334 0.620185 0.779523
Si Si4 0.203777 0.559498 0.732191
Si Si5 0.039689 0.418524 0.254080
Si Si6 0.825988 0.754469 0.750337
Si Si7 0.323404 0.427006 0.169800
Si Si8 0.746890 0.518046 0.368341
O O1 0.466936 0.611673 0.716655
O O2 0.369785 0.535909 0.840020
O O3 0.461206 0.788153 0.006305
O O4 0.989532 0.148869 0.464731
O O5 0.810915 0.303406 0.818203
O O6 0.449683 0.481285 0.313449
O O7 0.671187 0.502107 0.429943
O O8 0.947633 0.931722 0.621481
O O9 0.796232 0.563805 0.079143
O O10 0.333603 0.000554 0.489492
O O11 0.098036 0.531104 0.465116
O O12 0.359798 0.310666 0.998301
O O13 0.919939 0.587426 0.984099
O O14 0.866329 0.572491 0.598502
O O15 0.505330 0.146201 0.445028
O O16 0.010956 0.725117 0.931670
#
# Coordination Sequence:
#
# PCOD9000601 Si02
#       8
#     1   1   1   1   1   1   1   1
#     4  11  26  46  76 110 149 197 252 312 375 451
#     4  11  26  51  77 108 154 203 255 309 379 454
#     4  12  29  49  80 112 154 199 256 315 384 446
#     4  11  28  52  79 113 157 199 254 315 383 453
#     4  12  30  50  76 116 158 196 253 324 379 444
#     4  12  27  46  75 111 155 197 252 309 380 447
#     4  12  26  46  77 108 146 205 251 301 374 457
#     4  11  24  46  74 106 151 200 251 307 374 446
#
# _framework density 25.799092000000002
#
# number of rings (size 3 to 8) (size 9 to 14) (size 15 to 20)
#    0.000    0.500    3.750    2.250   12.250    0.000 
#    4.500    0.000    0.000    0.000    0.000    0.000 
#    0.000    0.000    0.000    0.000    0.000    0.000 
#
# Total GULP energy -44714.735965 kJ/mol
# GULP energy per Si atom -5589.341996 kJ/mol
# Density = 2.574037 g / cm^3
# Si number density = 25.799092 Si / 1000 Ang^3
#
#
#
# Elastic Constant Matrix: (Units=GPa)
#
#
# Indices 1 2 3 4 5 6 
#
# 1 144.1944 20.0578 33.6203 2.5614 6.9315 2.7966
# 2 20.0578 93.3277 35.5462 10.0982 3.1939 -5.7339
# 3 33.6203 35.5462 132.5739 3.6668 0.6525 4.0055
# 4 2.5614 10.0982 3.6668 37.8193 5.2237 -0.5462
# 5 6.9315 3.1939 0.6525 5.2237 47.2991 2.0686
# 6 2.7966 -5.7339 4.0055 -0.5462 2.0686 30.5199
#
#
#
# Elastic Compliance Matrix: (Units=1/GPa)
#
#
# Indices 1 2 3 4 5 6 
#
# 1 0.007510 -0.001007 -0.001613 0.000045 -0.000989 -0.000598
# 2 -0.001007 0.012630 -0.003135 -0.002894 -0.000467 0.002856
# 3 -0.001613 -0.003135 0.008839 0.000011 0.000396 -0.001628
# 4 0.000045 -0.002894 0.000011 0.027608 -0.002866 0.000139
# 5 -0.000989 -0.000467 0.000396 -0.002866 0.021698 -0.001571
# 6 -0.000598 0.002856 -0.001628 0.000139 -0.001571 0.033680
#
#
# Mechanical properties :
#
#
# Convention : Reuss Voigt Hill
#
# Bulk Modulus (GPa) = 57.24370 60.94941 59.09655
# Shear Modulus (GPa) = 38.67033 41.85244 40.26139
#
# Velocity S-wave (km/s) = 3.87577 4.03208 3.95470
# Velocity P-wave (km/s) = 6.50117 6.73445 6.61884
#
# Compressibility (1/GPa) = 0.01746917
#
# Stress axis : x y z
#
# Youngs Moduli (GPa) = 133.16364 79.17574 113.13015
#
# Poissons Ratio (x) = 0.07977 0.18243
# Poissons Ratio (y) = 0.13416 0.35465
# Poissons Ratio (z) = 0.21474 0.24821
#
# Static dielectric constant tensor:
#      x y z
#    x 2.031990 -0.005460 -0.093560 
#    y -0.005460 2.074500 0.036910 
#    z -0.093560 0.036910 2.054570 
# 
# From -- ./inp_files/5723.got.cif
#   From: 2010.05.17/outbox.cif.g08.bks.cpg/sg1_3_cif.got.tgz:5723.got - 2010.05.17 20:27:59.
