data_PCOD9000173
_publ_section_title
;
Structure prediction by ZEFSAII (Michael W. Deem and Ramdas Pophale) SiO2 
 PCOD9000173
Probable space group: P 1
;
_chemical_formula_sum "Si O2"
_cell_formula_units_Z 8
_cell_length_a 9.115994
_cell_length_b 8.033869
_cell_length_c 8.269162
_cell_angle_alpha 127.170781
_cell_angle_beta 107.526252
_cell_angle_gamma 106.136033
_cell_volume 366.324890
_symmetry_space_group_name_H-M "P 1"
_symmetry_group_IT_number 1
_symmetry_cell_setting 'triclinic'
loop_
_space_group_symop_operation_xyz
x,y,z
loop_
_atom_site_type_symbol
_atom_site_label
_atom_site_fract_x
_atom_site_fract_y
_atom_site_fract_z
Si Si1 0.968950 0.418420 0.335870
Si Si2 0.846890 0.299252 0.578893
Si Si3 0.542260 0.749258 0.041538
Si Si4 0.290199 0.405733 0.325847
Si Si5 0.232062 0.967895 0.569985
Si Si6 0.181922 0.371921 0.907237
Si Si7 0.534255 0.979783 0.855879
Si Si8 0.482486 0.270109 0.545690
O O1 0.930135 0.457450 0.530145
O O2 0.116353 0.344379 0.346764
O O3 0.077661 0.675231 0.410806
O O4 0.763196 0.193932 0.057798
O O5 0.672978 0.295995 0.586679
O O6 0.013397 0.392335 0.817274
O O7 0.746974 0.997061 0.318329
O O8 0.386638 0.620011 0.054979
O O9 0.481854 0.868400 0.955136
O O10 0.539761 0.523965 0.818558
O O11 0.454584 0.721638 0.571288
O O12 0.384106 0.276563 0.354165
O O13 0.200786 0.327479 0.073566
O O14 0.417639 0.084454 0.818161
O O15 0.149601 0.130265 0.657463
O O16 0.323938 0.019335 0.453630
#
# Coordination Sequence:
#
# PCOD9000173 Si02
#       8
#     1   1   1   1   1   1   1   1
#     4  10  22  43  68  96 131 170 218 268 326 387
#     4  11  24  45  69  97 129 176 221 267 324 391
#     4   9  22  45  68  92 136 174 213 275 322 388
#     4  10  23  43  66  95 135 170 214 272 325 387
#     4  10  22  41  64  95 134 170 212 271 324 389
#     4  11  24  41  67  99 132 170 218 267 330 386
#     4   9  20  41  69  91 128 172 214 267 326 374
#     4  10  23  45  69  95 133 174 220 267 329 382
#
# _framework density 21.838536999999999
#
# number of rings (size 3 to 8) (size 9 to 14) (size 15 to 20)
#    0.000    2.000    0.000    3.000    8.750    2.000 
#    9.000    1.250    0.000    0.000    0.000    0.000 
#    0.000    0.000    0.000    0.000    0.000    0.000 
#
# Total GULP energy -44706.230478 kJ/mol
# GULP energy per Si atom -5588.278810 kJ/mol
# Density = 2.178883 g / cm^3
# Si number density = 21.838537 Si / 1000 Ang^3
#
#
#
# Elastic Constant Matrix: (Units=GPa)
#
#
# Indices 1 2 3 4 5 6 
#
# 1 140.2981 59.7457 33.9033 -10.3685 12.5618 5.3899
# 2 59.7457 125.7502 23.5274 -7.9190 7.8766 15.1821
# 3 33.9033 23.5274 64.6763 -10.2531 14.6142 7.7492
# 4 -10.3685 -7.9190 -10.2531 29.7008 3.1294 -0.5860
# 5 12.5618 7.8766 14.6142 3.1294 32.5833 -4.5446
# 6 5.3899 15.1821 7.7492 -0.5860 -4.5446 27.3950
#
#
#
# Elastic Compliance Matrix: (Units=1/GPa)
#
#
# Indices 1 2 3 4 5 6 
#
# 1 0.009807 -0.003997 -0.003290 0.001382 -0.001328 0.001026
# 2 -0.003997 0.010790 -0.000612 0.001341 -0.001656 -0.005266
# 3 -0.003290 -0.000612 0.021535 0.007029 -0.009836 -0.006586
# 4 0.001382 0.001341 0.007029 0.037722 -0.008127 -0.003544
# 5 -0.001328 -0.001656 -0.009836 -0.008127 0.038208 0.010126
# 6 0.001026 -0.005266 -0.006586 -0.003544 0.010126 0.042687
#
#
# Mechanical properties :
#
#
# Convention : Reuss Voigt Hill
#
# Bulk Modulus (GPa) = 37.97568 62.78640 50.38104
# Shear Modulus (GPa) = 26.97974 32.17237 29.57606
#
# Velocity S-wave (km/s) = 3.51867 3.84238 3.68408
# Velocity P-wave (km/s) = 5.82538 6.96404 6.42001
#
# Compressibility (1/GPa) = 0.02633264
#
# Stress axis : x y z
#
# Youngs Moduli (GPa) = 101.97123 92.67925 46.43618
#
# Poissons Ratio (x) = 0.37047 0.15278
# Poissons Ratio (y) = 0.40761 0.02842
# Poissons Ratio (z) = 0.33550 0.05672
#
# Static dielectric constant tensor:
#      x y z
#    x 1.790050 -0.007370 -0.040150 
#    y -0.007370 1.805010 0.000530 
#    z -0.040150 0.000530 1.834530 
# 
# From -- ./inp_files/4133.got.cif
#   From: 2010.05.17/outbox.cif.g08.bks.cpg/sg1_3_cif.got.tgz:4133.got - 2010.05.17 20:27:59.
