data_PCOD9000446
_publ_section_title
;
Structure prediction by ZEFSAII (Michael W. Deem and Ramdas Pophale) SiO2 
 PCOD9000446
Probable space group: P 1
;
_chemical_formula_sum "Si O2"
_cell_formula_units_Z 8
_cell_length_a 5.020370
_cell_length_b 5.260826
_cell_length_c 13.942582
_cell_angle_alpha 56.325222
_cell_angle_beta 81.106612
_cell_angle_gamma 89.604504
_cell_volume 301.371447
_symmetry_space_group_name_H-M "P 1"
_symmetry_group_IT_number 1
_symmetry_cell_setting 'triclinic'
loop_
_space_group_symop_operation_xyz
x,y,z
loop_
_atom_site_type_symbol
_atom_site_label
_atom_site_fract_x
_atom_site_fract_y
_atom_site_fract_z
Si Si1 0.064990 0.196260 0.241500
Si Si2 0.232782 0.252478 0.534936
Si Si3 0.699413 0.247569 0.659143
Si Si4 0.794512 0.733668 0.121116
Si Si5 0.256713 0.189043 0.915458
Si Si6 0.450473 0.562346 0.994517
Si Si7 0.522883 0.805763 0.300038
Si Si8 0.944354 0.663518 0.715654
O O1 0.922691 0.479909 0.233354
O O2 0.310104 0.030936 0.305256
O O3 0.204507 0.377734 0.104740
O O4 0.818627 0.942486 0.287982
O O5 0.415264 0.240203 0.623365
O O6 0.410834 0.467611 0.408517
O O7 0.945018 0.380043 0.546854
O O8 0.142125 0.897335 0.590022
O O9 0.731187 0.461413 0.704670
O O10 0.800362 0.907823 0.737474
O O11 0.543037 0.823667 0.179394
O O12 0.685610 0.596635 0.053971
O O13 0.013819 0.010872 0.027480
O O14 0.471295 0.367873 0.937993
O O15 0.120336 0.438620 0.809103
O O16 0.373818 0.910488 0.909910
#
# Coordination Sequence:
#
# PCOD9000446 Si02
#       8
#     1   1   1   1   1   1   1   1
#     4  11  24  43  70 103 148 188 241 295 359 434
#     4  10  26  46  73 106 143 190 241 299 359 434
#     4  10  24  47  75 103 145 183 244 298 367 420
#     4  11  26  43  73 107 152 190 245 297 368 438
#     4  11  24  44  73 108 142 191 240 300 364 437
#     4  11  23  43  70 106 142 191 234 298 358 433
#     4  12  24  48  71 107 148 196 240 303 362 436
#     4  10  25  46  73 108 142 189 241 304 359 436
#
# _framework density 26.545318999999999
#
# number of rings (size 3 to 8) (size 9 to 14) (size 15 to 20)
#    0.750    0.500    2.500    2.250    3.500    3.000 
#    4.500    0.000    0.000    0.000    0.000    0.000 
#    0.000    0.000    0.000    0.000    0.000    0.000 
#
# Total GULP energy -44784.344869 kJ/mol
# GULP energy per Si atom -5598.043109 kJ/mol
# Density = 2.648490 g / cm^3
# Si number density = 26.545319 Si / 1000 Ang^3
#
#
#
# Elastic Constant Matrix: (Units=GPa)
#
#
# Indices 1 2 3 4 5 6 
#
# 1 128.4587 45.3844 22.0195 -9.1877 -3.0174 18.5544
# 2 45.3844 146.5203 50.5184 -21.4905 -1.5198 8.5162
# 3 22.0195 50.5184 112.5421 -38.5712 -18.2906 -0.1005
# 4 -9.1877 -21.4905 -38.5712 40.3890 5.7822 -2.0121
# 5 -3.0174 -1.5198 -18.2906 5.7822 46.1520 -9.6760
# 6 18.5544 8.5162 -0.1005 -2.0121 -9.6760 46.7417
#
#
#
# Elastic Compliance Matrix: (Units=1/GPa)
#
#
# Indices 1 2 3 4 5 6 
#
# 1 0.009240 -0.002393 -0.000842 -0.000070 -0.000500 -0.003340
# 2 -0.002393 0.008950 -0.003416 0.001131 -0.001559 -0.000962
# 3 -0.000842 -0.003416 0.015624 0.012321 0.005017 0.002559
# 4 -0.000070 0.001131 0.012321 0.037104 0.000596 0.001569
# 5 -0.000500 -0.001559 0.005017 0.000596 0.024677 0.005627
# 6 -0.003340 -0.000962 0.002559 0.001569 0.005627 0.024133
#
#
# Mechanical properties :
#
#
# Convention : Reuss Voigt Hill
#
# Bulk Modulus (GPa) = 48.75192 69.26285 59.00739
# Shear Modulus (GPa) = 35.74814 44.62979 40.18896
#
# Velocity S-wave (km/s) = 3.67370 4.10477 3.89520
# Velocity P-wave (km/s) = 6.03326 6.97241 6.51977
#
# Compressibility (1/GPa) = 0.02051201
#
# Stress axis : x y z
#
# Youngs Moduli (GPa) = 108.22374 111.73715 64.00394
#
# Poissons Ratio (x) = 0.26741 0.05389
# Poissons Ratio (y) = 0.25900 0.21862
# Poissons Ratio (z) = 0.09112 0.38166
#
# Static dielectric constant tensor:
#      x y z
#    x 2.038060 -0.058250 -0.008100 
#    y -0.058250 2.085630 0.011340 
#    z -0.008100 0.011340 2.097860 
# 
# From -- ./inp_files/6887.got.cif
#   From: 2010.05.17/outbox.cif.g08.bks.cpg/sg1_4_cif.got.tgz:6887.got - 2010.05.17 20:27:59.
