data_PCOD9000443
_publ_section_title
;
Structure prediction by ZEFSAII (Michael W. Deem and Ramdas Pophale) SiO2 
 PCOD9000443
Probable space group: P 1
;
_chemical_formula_sum "Si O2"
_cell_formula_units_Z 8
_cell_length_a 10.752332
_cell_length_b 9.836902
_cell_length_c 9.400134
_cell_angle_alpha 30.110634
_cell_angle_beta 101.308210
_cell_angle_gamma 111.448870
_cell_volume 448.585629
_symmetry_space_group_name_H-M "P 1"
_symmetry_group_IT_number 1
_symmetry_cell_setting 'triclinic'
loop_
_space_group_symop_operation_xyz
x,y,z
loop_
_atom_site_type_symbol
_atom_site_label
_atom_site_fract_x
_atom_site_fract_y
_atom_site_fract_z
Si Si1 0.163640 0.411140 0.773880
Si Si2 0.730252 0.456837 0.810293
Si Si3 0.306940 0.326254 0.608092
Si Si4 0.478733 0.979645 0.085160
Si Si5 0.602907 0.928995 0.436829
Si Si6 0.385629 0.626950 0.873339
Si Si7 0.037333 0.863037 0.420875
Si Si8 0.258441 0.078643 0.517754
O O1 0.203320 0.363039 0.667359
O O2 0.294329 0.476393 0.849534
O O3 0.116953 0.680693 0.531005
O O4 0.046909 0.123942 0.080273
O O5 0.654805 0.677979 0.626077
O O6 0.883221 0.646714 0.622004
O O7 0.637403 0.214107 0.892881
O O8 0.718961 0.251911 0.132674
O O9 0.422598 0.653616 0.303709
O O10 0.238750 0.166449 0.592701
O O11 0.381604 0.136927 0.870916
O O12 0.481765 0.931038 0.300377
O O13 0.535100 0.841337 0.654668
O O14 0.308936 0.812319 0.763505
O O15 0.376647 0.361221 0.213113
O O16 0.123191 0.996945 0.463174
#
# Coordination Sequence:
#
# PCOD9000443 Si02
#       8
#     1   1   1   1   1   1   1   1
#     4  10  19  31  55  76 105 138 179 217 251 307
#     4  10  18  33  53  84 101 137 180 223 249 298
#     4  12  20  35  54  83 109 138 167 216 283 310
#     4  10  19  31  56  81 100 137 172 223 251 316
#     4  10  18  31  57  82 101 132 173 231 251 301
#     4  10  18  35  51  81 106 133 178 215 264 303
#     4  10  21  35  53  80 104 142 178 217 248 309
#     4  10  23  33  53  79 116 135 163 220 269 322
#
# _framework density 17.833829000000001
#
# number of rings (size 3 to 8) (size 9 to 14) (size 15 to 20)
#    0.750    1.000    2.500    3.000    3.500    0.000 
#    0.000    0.000    0.000    9.000    0.000    0.000 
#    0.000    0.000    0.000    0.000    0.000    0.000 
#
# Total GULP energy -44559.933068 kJ/mol
# GULP energy per Si atom -5569.991634 kJ/mol
# Density = 1.779324 g / cm^3
# Si number density = 17.833829 Si / 1000 Ang^3
#
#
#
# Elastic Constant Matrix: (Units=GPa)
#
#
# Indices 1 2 3 4 5 6 
#
# 1 41.5409 32.7541 15.9743 1.2450 -13.1560 -0.8067
# 2 32.7541 107.5246 21.4284 -0.4053 -8.9519 -12.1433
# 3 15.9743 21.4284 88.7765 -18.1028 -5.9619 1.4701
# 4 1.2450 -0.4053 -18.1028 15.9628 -2.9974 -1.9400
# 5 -13.1560 -8.9519 -5.9619 -2.9974 37.0772 -3.7242
# 6 -0.8067 -12.1433 1.4701 -1.9400 -3.7242 13.1525
#
#
#
# Elastic Compliance Matrix: (Units=1/GPa)
#
#
# Indices 1 2 3 4 5 6 
#
# 1 0.036913 -0.010115 -0.005165 -0.008004 0.008653 -0.005228
# 2 -0.010115 0.014266 -0.001523 0.001221 0.001034 0.013194
# 3 -0.005165 -0.001523 0.016719 0.019702 0.002071 -0.000100
# 4 -0.008004 0.001221 0.019702 0.089107 0.009252 0.014197
# 5 0.008653 0.001034 0.002071 0.009252 0.032561 0.011838
# 6 -0.005228 0.013194 -0.000100 0.014197 0.011838 0.093349
#
#
# Mechanical properties :
#
#
# Convention : Reuss Voigt Hill
#
# Bulk Modulus (GPa) = 29.16181 42.01730 35.58955
# Shear Modulus (GPa) = 15.24609 24.41754 19.83181
#
# Velocity S-wave (km/s) = 2.92703 3.70424 3.33833
# Velocity P-wave (km/s) = 5.27360 6.47355 5.90414
#
# Compressibility (1/GPa) = 0.03429142
#
# Stress axis : x y z
#
# Youngs Moduli (GPa) = 27.09051 70.09715 59.81055
#
# Poissons Ratio (x) = 0.70906 0.30892
# Poissons Ratio (y) = 0.27403 0.09111
# Poissons Ratio (z) = 0.13992 0.10678
#
# Static dielectric constant tensor:
#      x y z
#    x 1.602850 0.003980 -0.028780 
#    y 0.003980 1.608450 -0.012500 
#    z -0.028780 -0.012500 1.658420 
# 
# From -- ./inp_files/1015.got.cif
#   From: 2010.05.17/outbox.cif.g08.bks.cpg/sg1_1_cif.got.tgz:1015.got - 2010.05.17 20:27:59.
