data_PCOD9000301
_publ_section_title
;
Structure prediction by ZEFSAII (Michael W. Deem and Ramdas Pophale) SiO2 
 PCOD9000301
Probable space group: P 1
;
_chemical_formula_sum "Si O2"
_cell_formula_units_Z 8
_cell_length_a 13.988441
_cell_length_b 5.608419
_cell_length_c 5.066536
_cell_angle_alpha 98.580217
_cell_angle_beta 86.865518
_cell_angle_gamma 57.603193
_cell_volume 327.521415
_symmetry_space_group_name_H-M "P 1"
_symmetry_group_IT_number 1
_symmetry_cell_setting 'triclinic'
loop_
_space_group_symop_operation_xyz
x,y,z
loop_
_atom_site_type_symbol
_atom_site_label
_atom_site_fract_x
_atom_site_fract_y
_atom_site_fract_z
Si Si1 0.402850 0.961990 0.933920
Si Si2 0.114855 0.138539 0.463196
Si Si3 0.181113 0.490758 0.896556
Si Si4 0.326449 0.632152 0.525206
Si Si5 0.895356 0.362350 0.796621
Si Si6 0.968825 0.657152 0.169810
Si Si7 0.512544 0.000020 0.400523
Si Si8 0.778462 0.632685 0.356257
O O1 0.374513 0.763493 0.741073
O O2 0.476494 0.006400 0.710517
O O3 0.280260 0.263843 0.042069
O O4 0.469438 0.851817 0.181155
O O5 0.150116 0.303432 0.687438
O O6 0.017270 0.110333 0.620914
O O7 0.050861 0.348644 0.260015
O O8 0.238733 0.847249 0.349019
O O9 0.240887 0.593028 0.711148
O O10 0.061909 0.729578 0.094911
O O11 0.435854 0.329654 0.367828
O O12 0.799933 0.482591 0.608834
O O13 0.923855 0.605269 0.894058
O O14 0.841964 0.371792 0.087770
O O15 0.850162 0.787842 0.368320
O O16 0.647548 0.847743 0.339863
#
# Coordination Sequence:
#
# PCOD9000301 Si02
#       8
#     1   1   1   1   1   1   1   1
#     4  10  24  40  61  92 132 165 216 262 303 385
#     4   9  17  37  58  95 128 157 204 263 308 384
#     4   9  19  36  57  92 125 164 202 253 323 371
#     4  10  23  40  64  96 131 168 207 264 323 376
#     4   8  16  32  59  89 114 163 202 252 312 360
#     4   8  17  32  63  89 121 160 205 255 315 369
#     4  11  23  43  64  95 125 175 211 255 324 374
#     4   9  17  34  64  88 118 168 207 252 316 371
#
# _framework density 24.425885999999998
#
# number of rings (size 3 to 8) (size 9 to 14) (size 15 to 20)
#    0.750    2.000    0.000    0.750    5.250    2.000 
#    9.000    0.000    2.750    9.000    0.000    0.000 
#    0.000    0.000    0.000    0.000    0.000    0.000 
#
# Total GULP energy -44584.311732 kJ/mol
# GULP energy per Si atom -5573.038966 kJ/mol
# Density = 2.437029 g / cm^3
# Si number density = 24.425886 Si / 1000 Ang^3
#
#
#
# Elastic Constant Matrix: (Units=GPa)
#
#
# Indices 1 2 3 4 5 6 
#
# 1 118.1262 48.8410 21.5750 -2.0461 -4.3843 -48.6796
# 2 48.8410 75.4896 23.6843 0.8073 6.4948 -37.8399
# 3 21.5750 23.6843 116.2126 -12.2799 9.3738 -21.6221
# 4 -2.0461 0.8073 -12.2799 35.0588 -5.4533 1.5771
# 5 -4.3843 6.4948 9.3738 -5.4533 34.8721 -7.1168
# 6 -48.6796 -37.8399 -21.6221 1.5771 -7.1168 40.5798
#
#
#
# Elastic Compliance Matrix: (Units=1/GPa)
#
#
# Indices 1 2 3 4 5 6 
#
# 1 0.018446 -0.001692 0.000600 0.001453 0.007206 0.022078
# 2 -0.001692 0.025233 -0.001114 -0.002115 -0.000685 0.020869
# 3 0.000600 -0.001114 0.010015 0.003209 -0.000942 0.004728
# 4 0.001453 -0.002115 0.003209 0.030463 0.004707 0.001123
# 5 0.007206 -0.000685 -0.000942 0.004707 0.033388 0.013176
# 6 0.022078 0.020869 0.004728 0.001123 0.013176 0.075373
#
#
# Mechanical properties :
#
#
# Convention : Reuss Voigt Hill
#
# Bulk Modulus (GPa) = 20.29070 55.33658 37.81364
# Shear Modulus (GPa) = 23.39104 36.48401 29.93752
#
# Velocity S-wave (km/s) = 3.09792 3.86898 3.50472
# Velocity P-wave (km/s) = 4.59579 6.53168 5.64730
#
# Compressibility (1/GPa) = 0.04928365
#
# Stress axis : x y z
#
# Youngs Moduli (GPa) = 54.21187 39.63076 99.84739
#
# Poissons Ratio (x) = 0.06704 -0.05993
# Poissons Ratio (y) = 0.09170 0.11123
# Poissons Ratio (z) = -0.03254 0.04415
#
# Static dielectric constant tensor:
#      x y z
#    x 1.969310 0.082940 -0.040180 
#    y 0.082940 2.027620 0.023180 
#    z -0.040180 0.023180 1.967700 
# 
# From -- ./inp_files/425.got.cif
#   From: 2010.05.17/outbox.cif.g08.bks.cpg/sg1_1_cif.got.tgz:425.got - 2010.05.17 20:27:59.
