data_PCOD9000523
_publ_section_title
;
Structure prediction by ZEFSAII (Michael W. Deem and Ramdas Pophale) SiO2 
 PCOD9000523
Probable space group: P 1
;
_chemical_formula_sum "Si O2"
_cell_formula_units_Z 8
_cell_length_a 5.674590
_cell_length_b 13.290625
_cell_length_c 11.154240
_cell_angle_alpha 34.542557
_cell_angle_beta 125.972247
_cell_angle_gamma 134.925947
_cell_volume 337.690395
_symmetry_space_group_name_H-M "P 1"
_symmetry_group_IT_number 1
_symmetry_cell_setting 'triclinic'
loop_
_space_group_symop_operation_xyz
x,y,z
loop_
_atom_site_type_symbol
_atom_site_label
_atom_site_fract_x
_atom_site_fract_y
_atom_site_fract_z
Si Si1 0.599170 0.675310 0.262810
Si Si2 0.209662 0.768430 0.679286
Si Si3 0.526078 0.399136 0.881413
Si Si4 0.671487 0.558204 0.036176
Si Si5 0.300278 0.291855 0.399913
Si Si6 0.280777 0.650441 0.453721
Si Si7 0.580659 0.034457 0.316029
Si Si8 0.355457 0.927241 0.834616
O O1 0.327988 0.477933 0.302890
O O2 0.439755 0.662872 0.358161
O O3 0.939909 0.662771 0.358411
O O4 0.640932 0.878411 0.010755
O O5 0.269048 0.879822 0.714671
O O6 0.849291 0.578058 0.739487
O O7 0.319081 0.929100 0.448287
O O8 0.440600 0.663313 0.857419
O O9 0.239855 0.447493 0.705815
O O10 0.612999 0.446398 0.001645
O O11 0.494860 0.181264 0.067800
O O12 0.561359 0.397866 0.266825
O O13 0.031731 0.748630 0.976042
O O14 0.940465 0.162885 0.358279
O O15 0.387183 0.145285 0.648007
O O16 0.552009 0.847930 0.413449
#
# Coordination Sequence:
#
# PCOD9000523 Si02
#       8
#     1   1   1   1   1   1   1   1
#     4  12  29  50  71 106 156 200 243 301 370 442
#     4  11  20  42  72 110 149 176 238 319 369 419
#     4  11  24  43  72 106 148 194 241 306 368 433
#     4  11  20  42  72 110 149 176 238 319 369 419
#     4  12  24  45  80 111 138 193 251 304 369 439
#     4  12  29  50  71 106 156 200 243 301 370 442
#     4  12  24  45  80 111 138 193 251 304 369 439
#     4  11  24  43  72 106 148 194 241 306 368 433
#
# _framework density 23.690338000000001
#
# number of rings (size 3 to 8) (size 9 to 14) (size 15 to 20)
#    0.000    0.500    5.000    3.750    0.000    4.000 
#    0.000    0.000    0.000    0.000    0.000    0.000 
#    0.000    0.000    0.000    0.000    0.000    0.000 
#
# Total GULP energy -44770.136853 kJ/mol
# GULP energy per Si atom -5596.267107 kJ/mol
# Density = 2.363642 g / cm^3
# Si number density = 23.690338 Si / 1000 Ang^3
#
#
#
# Elastic Constant Matrix: (Units=GPa)
#
#
# Indices 1 2 3 4 5 6 
#
# 1 103.4089 25.6126 51.1610 5.1679 -1.3291 13.6676
# 2 25.6126 71.8600 19.0023 3.2138 -8.0344 -5.1664
# 3 51.1610 19.0023 185.0279 -5.3396 18.0427 5.3925
# 4 5.1679 3.2138 -5.3396 34.8789 2.1459 3.3052
# 5 -1.3291 -8.0344 18.0427 2.1459 63.6961 6.5469
# 6 13.6676 -5.1664 5.3925 3.3052 6.5469 32.8647
#
#
#
# Elastic Compliance Matrix: (Units=1/GPa)
#
#
# Indices 1 2 3 4 5 6 
#
# 1 0.013100 -0.004004 -0.003221 -0.001611 0.001316 -0.005649
# 2 -0.004004 0.016151 -0.000895 -0.001537 0.001834 0.004141
# 3 -0.003221 -0.000895 0.006635 0.001673 -0.002154 0.000371
# 4 -0.001611 -0.001537 0.001673 0.029636 -0.001439 -0.002540
# 5 0.001316 0.001834 -0.002154 -0.001439 0.016939 -0.003135
# 6 -0.005649 0.004141 0.000371 -0.002540 -0.003135 0.034247
#
#
# Mechanical properties :
#
#
# Convention : Reuss Voigt Hill
#
# Bulk Modulus (GPa) = 50.90509 61.31651 56.11080
# Shear Modulus (GPa) = 35.84286 43.92266 39.88276
#
# Velocity S-wave (km/s) = 3.89392 4.31052 4.10750
# Velocity P-wave (km/s) = 6.46151 7.12129 6.79941
#
# Compressibility (1/GPa) = 0.01964440
#
# Stress axis : x y z
#
# Youngs Moduli (GPa) = 76.33727 61.91419 150.72318
#
# Poissons Ratio (x) = 0.24792 0.48548
# Poissons Ratio (y) = 0.30568 0.13495
# Poissons Ratio (z) = 0.24588 0.05544
#
# Static dielectric constant tensor:
#      x y z
#    x 1.971270 0.011460 0.031330 
#    y 0.011460 1.993270 0.038190 
#    z 0.031330 0.038190 1.892050 
# 
# From -- ./inp_files/2488.got.cif
#   From: 2010.05.17/outbox.cif.g08.bks.cpg/sg1_2_cif.got.tgz:2488.got - 2010.05.17 20:27:59.
