data_PCOD9000817
_publ_section_title
;
Structure prediction by ZEFSAII (Michael W. Deem and Ramdas Pophale) SiO2 
 PCOD9000817
Probable space group: P 1
;
_chemical_formula_sum "Si O2"
_cell_formula_units_Z 8
_cell_length_a 5.244897
_cell_length_b 9.370542
_cell_length_c 12.038885
_cell_angle_alpha 49.876102
_cell_angle_beta 66.860759
_cell_angle_gamma 76.521799
_cell_volume 415.862703
_symmetry_space_group_name_H-M "P 1"
_symmetry_group_IT_number 1
_symmetry_cell_setting 'triclinic'
loop_
_space_group_symop_operation_xyz
x,y,z
loop_
_atom_site_type_symbol
_atom_site_label
_atom_site_fract_x
_atom_site_fract_y
_atom_site_fract_z
Si Si1 0.291020 0.225820 0.076070
Si Si2 0.053711 0.703565 0.011379
Si Si3 0.642159 0.871990 0.150983
Si Si4 0.828440 0.946861 0.314665
Si Si5 0.361690 0.646948 0.773029
Si Si6 0.464940 0.549248 0.199872
Si Si7 0.307499 0.157851 0.369221
Si Si8 0.984224 0.807915 0.578453
O O1 0.299868 0.229984 0.206774
O O2 0.502280 0.070838 0.076326
O O3 0.343128 0.428151 0.915659
O O4 0.993336 0.129573 0.149251
O O5 0.180421 0.747499 0.848381
O O6 0.294074 0.627818 0.086321
O O7 0.902123 0.863913 0.026076
O O8 0.796130 0.553188 0.116135
O O9 0.732588 0.832992 0.280941
O O10 0.446435 0.702750 0.223120
O O11 0.014116 0.837098 0.425616
O O12 0.571111 0.024695 0.388991
O O13 0.210956 0.685674 0.662772
O O14 0.677898 0.721020 0.691346
O O15 0.354787 0.339598 0.344693
O O16 0.045558 0.019979 0.505595
#
# Coordination Sequence:
#
# PCOD9000817 Si02
#       8
#     1   1   1   1   1   1   1   1
#     4  10  21  36  69  96 121 161 221 264 303 365
#     4  10  21  37  61  99 126 154 207 263 316 360
#     4   9  22  36  66 100 125 158 210 272 311 360
#     4  10  20  42  63  98 125 165 213 264 306 373
#     4  12  23  40  63 100 128 166 205 263 317 373
#     4  10  20  36  63  99 119 158 204 272 307 357
#     4  10  20  39  64  97 124 161 216 265 303 369
#     4  11  25  38  61  97 134 165 204 263 317 373
#
# _framework density 19.237120999999998
#
# number of rings (size 3 to 8) (size 9 to 14) (size 15 to 20)
#    0.750    1.000    2.500    2.250    5.250    0.000 
#    0.000    0.000    0.000   10.500    0.000    0.000 
#    0.000    0.000    0.000    0.000    0.000    0.000 
#
# Total GULP energy -44568.120880 kJ/mol
# GULP energy per Si atom -5571.015110 kJ/mol
# Density = 1.919334 g / cm^3
# Si number density = 19.237121 Si / 1000 Ang^3
#
#
#
# Elastic Constant Matrix: (Units=GPa)
#
#
# Indices 1 2 3 4 5 6 
#
# 1 121.9643 29.5348 49.9136 -13.9003 -3.4949 17.9649
# 2 29.5348 97.0482 35.2486 -9.9039 4.0612 3.0800
# 3 49.9136 35.2486 114.2685 -27.8135 -7.3804 6.6615
# 4 -13.9003 -9.9039 -27.8135 18.7032 -1.0651 -7.3537
# 5 -3.4949 4.0612 -7.3804 -1.0651 34.9246 -1.4627
# 6 17.9649 3.0800 6.6615 -7.3537 -1.4627 20.9167
#
#
#
# Elastic Compliance Matrix: (Units=1/GPa)
#
#
# Indices 1 2 3 4 5 6 
#
# 1 0.011577 -0.001828 -0.004682 -0.002961 -0.000095 -0.009231
# 2 -0.001828 0.012065 -0.002870 0.000999 -0.002124 0.000910
# 3 -0.004682 -0.002870 0.017422 0.024209 0.004609 0.007729
# 4 -0.002961 0.000999 0.024209 0.100341 0.009045 0.030595
# 5 -0.000095 -0.002124 0.004609 0.009045 0.030297 0.004225
# 6 -0.009231 0.000910 0.007729 0.030595 0.004225 0.064193
#
#
# Mechanical properties :
#
#
# Convention : Reuss Voigt Hill
#
# Bulk Modulus (GPa) = 44.83656 62.51945 53.67801
# Shear Modulus (GPa) = 19.07737 29.48119 24.27928
#
# Velocity S-wave (km/s) = 3.15254 3.91898 3.55647
# Velocity P-wave (km/s) = 6.05056 7.28339 6.69541
#
# Compressibility (1/GPa) = 0.02230323
#
# Stress axis : x y z
#
# Youngs Moduli (GPa) = 86.37548 82.88492 57.39990
#
# Poissons Ratio (x) = 0.15152 0.26874
# Poissons Ratio (y) = 0.15790 0.16476
# Poissons Ratio (z) = 0.40440 0.23791
#
# Static dielectric constant tensor:
#      x y z
#    x 1.736300 -0.001680 -0.017910 
#    y -0.001680 1.681820 0.001950 
#    z -0.017910 0.001950 1.675890 
# 
# From -- ./inp_files/6053.got.cif
#   From: 2010.05.17/outbox.cif.g08.bks.cpg/sg1_4_cif.got.tgz:6053.got - 2010.05.17 20:27:59.
