data_PCOD9000180
_publ_section_title
;
Structure prediction by ZEFSAII (Michael W. Deem and Ramdas Pophale) SiO2 
 PCOD9000180
Probable space group: P 1
;
_chemical_formula_sum "Si O2"
_cell_formula_units_Z 8
_cell_length_a 7.572886
_cell_length_b 7.911721
_cell_length_c 7.243557
_cell_angle_alpha 93.197581
_cell_angle_beta 117.793320
_cell_angle_gamma 123.352454
_cell_volume 290.680108
_symmetry_space_group_name_H-M "P 1"
_symmetry_group_IT_number 1
_symmetry_cell_setting 'triclinic'
loop_
_space_group_symop_operation_xyz
x,y,z
loop_
_atom_site_type_symbol
_atom_site_label
_atom_site_fract_x
_atom_site_fract_y
_atom_site_fract_z
Si Si1 0.557660 0.543990 0.503190
Si Si2 0.059527 0.033589 0.350657
Si Si3 0.940087 0.319429 0.851942
Si Si4 0.583936 0.009150 0.001012
Si Si5 0.712553 0.334824 0.354071
Si Si6 0.899843 0.632649 0.015599
Si Si7 0.276088 0.622723 0.575553
Si Si8 0.312036 0.305082 0.822437
O O1 0.301219 0.279421 0.400704
O O2 0.661679 0.504374 0.373442
O O3 0.785754 0.654751 0.774318
O O4 0.457769 0.680020 0.492793
O O5 0.138329 0.075977 0.607340
O O6 0.780511 0.975773 0.183217
O O7 0.046715 0.848509 0.228377
O O8 0.785062 0.288846 0.586028
O O9 0.053441 0.556092 0.005925
O O10 0.149131 0.285832 0.914828
O O11 0.744262 0.152993 0.905229
O O12 0.513425 0.106203 0.130369
O O13 0.333158 0.797257 0.761429
O O14 0.974983 0.461013 0.367716
O O15 0.619000 0.428742 0.965669
O O16 0.310320 0.476492 0.710808
#
# Coordination Sequence:
#
# PCOD9000180 Si02
#       8
#     1   1   1   1   1   1   1   1
#     4   9  18  33  60  82 108 152 189 230 279 334
#     4  10  17  36  65  81 111 155 191 227 290 338
#     4  10  22  37  59  88 115 147 195 234 286 334
#     4  12  20  38  62  88 115 150 191 240 282 340
#     4  10  21  41  58  80 122 151 187 238 283 338
#     4   9  18  37  58  82 116 151 188 235 279 344
#     4   9  18  36  59  84 113 151 188 231 286 334
#     4   9  18  38  61  77 116 157 181 235 287 332
#
# _framework density 27.521664999999999
#
# number of rings (size 3 to 8) (size 9 to 14) (size 15 to 20)
#    0.000    2.500    6.250    0.000    0.000    3.000 
#    2.250    8.750    0.000    0.000    0.000    0.000 
#    0.000    0.000    0.000    0.000    0.000    0.000 
#
# Total GULP energy -44695.312885 kJ/mol
# GULP energy per Si atom -5586.914111 kJ/mol
# Density = 2.745902 g / cm^3
# Si number density = 27.521665 Si / 1000 Ang^3
#
#
#
# Elastic Constant Matrix: (Units=GPa)
#
#
# Indices 1 2 3 4 5 6 
#
# 1 121.0206 -4.5540 53.7273 -5.3877 -44.5405 -8.2196
# 2 -4.5540 31.4286 35.6168 -3.6020 -13.2446 -4.7226
# 3 53.7273 35.6168 190.5571 4.4834 -37.0186 -22.1464
# 4 -5.3877 -3.6020 4.4834 39.9052 -15.3862 -8.2835
# 5 -44.5405 -13.2446 -37.0186 -15.3862 69.4832 4.6388
# 6 -8.2196 -4.7226 -22.1464 -8.2835 4.6388 27.9949
#
#
#
# Elastic Compliance Matrix: (Units=1/GPa)
#
#
# Indices 1 2 3 4 5 6 
#
# 1 0.016241 0.014665 -0.004579 0.009827 0.012647 0.004432
# 2 0.014665 0.056657 -0.010847 0.016616 0.017614 0.007280
# 3 -0.004579 -0.010847 0.008798 -0.002309 -0.001046 0.003276
# 4 0.009827 0.016616 -0.002309 0.036657 0.015544 0.012133
# 5 0.012647 0.017614 -0.001046 0.015544 0.028357 0.005758
# 6 0.004432 0.007280 0.003276 0.012133 0.005758 0.043477
#
#
# Mechanical properties :
#
#
# Convention : Reuss Voigt Hill
#
# Bulk Modulus (GPa) = 12.47316 56.95404 34.71360
# Shear Modulus (GPa) = 22.89000 44.69107 33.79054
#
# Velocity S-wave (km/s) = 2.88706 4.03407 3.50777
# Velocity P-wave (km/s) = 3.95670 6.51441 5.38948
#
# Compressibility (1/GPa) = 0.08017217
#
# Stress axis : x y z
#
# Youngs Moduli (GPa) = 61.57307 17.64998 113.65860
#
# Poissons Ratio (x) = -0.25883 0.52049
# Poissons Ratio (y) = -0.90295 1.23290
# Poissons Ratio (z) = 0.28197 0.19146
#
# Static dielectric constant tensor:
#      x y z
#    x 2.268980 -0.031140 -0.033450 
#    y -0.031140 2.295240 -0.059350 
#    z -0.033450 -0.059350 2.158330 
# 
# From -- ./inp_files/3856.got.cif
#   From: 2010.05.17/outbox.cif.g08.bks.cpg/sg1_2_cif.got.tgz:3856.got - 2010.05.17 20:27:59.
