data_PCOD9000097
_publ_section_title
;
Structure prediction by ZEFSAII (Michael W. Deem and Ramdas Pophale) SiO2 
 PCOD9000097
Probable space group: P 1
;
_chemical_formula_sum "Si O2"
_cell_formula_units_Z 8
_cell_length_a 13.496229
_cell_length_b 8.823414
_cell_length_c 13.440906
_cell_angle_alpha 146.339048
_cell_angle_beta 149.418052
_cell_angle_gamma 32.743157
_cell_volume 404.956230
_symmetry_space_group_name_H-M "P 1"
_symmetry_group_IT_number 1
_symmetry_cell_setting 'triclinic'
loop_
_space_group_symop_operation_xyz
x,y,z
loop_
_atom_site_type_symbol
_atom_site_label
_atom_site_fract_x
_atom_site_fract_y
_atom_site_fract_z
Si Si1 0.419850 0.837630 0.403950
Si Si2 0.217215 0.501002 0.520324
Si Si3 0.506020 0.745664 0.794290
Si Si4 0.320450 0.414200 0.951805
Si Si5 0.187932 0.799167 0.377360
Si Si6 0.074807 0.709686 0.723105
Si Si7 0.892307 0.447737 0.571240
Si Si8 0.008419 0.379665 0.074150
O O1 0.369635 0.677670 0.179200
O O2 0.250411 0.868825 0.361192
O O3 0.664673 0.596741 0.510416
O O4 0.387810 0.167882 0.523553
O O5 0.344247 0.693861 0.702184
O O6 0.072980 0.658474 0.577388
O O7 0.082686 0.454020 0.286530
O O8 0.405221 0.701512 0.578670
O O9 0.750834 0.531029 0.916939
O O10 0.484012 0.086072 0.952239
O O11 0.282401 0.447517 0.817972
O O12 0.084371 0.457981 0.808728
O O13 0.113039 0.532934 0.172111
O O14 0.997986 0.103052 0.430795
O O15 0.881568 0.667330 0.588833
O O16 0.081878 0.023789 0.926409
#
# Coordination Sequence:
#
# PCOD9000097 Si02
#       8
#     1   1   1   1   1   1   1   1
#     4  12  20  39  69  92 120 176 205 253 328 365
#     4  11  22  40  65  91 132 162 212 259 315 376
#     4  10  22  43  62  91 126 166 207 262 313 372
#     4   9  21  40  62  90 127 159 213 261 299 379
#     4  10  23  41  63  92 129 161 215 263 304 379
#     4  10  21  44  62  89 131 163 203 271 303 364
#     4   9  20  40  62  89 123 159 210 260 300 371
#     4  11  23  43  61  94 130 164 207 265 312 374
#
# _framework density 19.755222
#
# number of rings (size 3 to 8) (size 9 to 14) (size 15 to 20)
#    0.750    1.000    2.500    1.500    1.750    1.000 
#    9.000    1.250    0.000    0.000    0.000    0.000 
#    0.000    0.000    0.000    0.000    0.000    0.000 
#
# Total GULP energy -44549.133675 kJ/mol
# GULP energy per Si atom -5568.641709 kJ/mol
# Density = 1.971026 g / cm^3
# Si number density = 19.755222 Si / 1000 Ang^3
#
#
#
# Elastic Constant Matrix: (Units=GPa)
#
#
# Indices 1 2 3 4 5 6 
#
# 1 55.6266 16.4015 11.5886 11.9046 4.8848 15.1644
# 2 16.4015 91.6644 25.5286 11.2097 10.9495 5.0110
# 3 11.5886 25.5286 58.5726 10.8213 -0.7593 -3.8716
# 4 11.9046 11.2097 10.8213 32.7655 1.2050 6.3077
# 5 4.8848 10.9495 -0.7593 1.2050 16.8010 -2.3697
# 6 15.1644 5.0110 -3.8716 6.3077 -2.3697 23.3792
#
#
#
# Elastic Compliance Matrix: (Units=1/GPa)
#
#
# Indices 1 2 3 4 5 6 
#
# 1 0.025625 -0.000536 -0.005439 -0.003631 -0.009540 -0.017394
# 2 -0.000536 0.014377 -0.006320 -0.001419 -0.010020 -0.004413
# 3 -0.005439 -0.006320 0.022836 -0.005868 0.008723 0.011131
# 4 -0.003631 -0.001419 -0.005868 0.035917 -0.002019 -0.008207
# 5 -0.009540 -0.010020 0.008723 -0.002019 0.071847 0.017607
# 6 -0.017394 -0.004413 0.011131 -0.008207 0.017607 0.060844
#
#
# Mechanical properties :
#
#
# Convention : Reuss Voigt Hill
#
# Bulk Modulus (GPa) = 26.14434 34.76677 30.45555
# Shear Modulus (GPa) = 18.60234 24.74546 21.67390
#
# Velocity S-wave (km/s) = 3.07195 3.54305 3.31588
# Velocity P-wave (km/s) = 5.08383 5.86299 5.48726
#
# Compressibility (1/GPa) = 0.03824920
#
# Stress axis : x y z
#
# Youngs Moduli (GPa) = 39.02480 69.55573 43.79016
#
# Poissons Ratio (x) = 0.03727 0.23817
# Poissons Ratio (y) = 0.02091 0.27674
# Poissons Ratio (z) = 0.21225 0.43957
#
# Static dielectric constant tensor:
#      x y z
#    x 1.698070 0.003220 0.010780 
#    y 0.003220 1.728750 -0.007100 
#    z 0.010780 -0.007100 1.701940 
# 
# From -- ./inp_files/4223.got.cif
#   From: 2010.05.17/outbox.cif.g08.bks.cpg/sg1_3_cif.got.tgz:4223.got - 2010.05.17 20:27:59.
