data_PCOD9000938
_publ_section_title
;
Structure prediction by ZEFSAII (Michael W. Deem and Ramdas Pophale) SiO2 
 PCOD9000938
Probable space group: P 1
;
_chemical_formula_sum "Si O2"
_cell_formula_units_Z 8
_cell_length_a 7.781869
_cell_length_b 10.638932
_cell_length_c 7.319113
_cell_angle_alpha 138.657100
_cell_angle_beta 55.344361
_cell_angle_gamma 120.594814
_cell_volume 325.482760
_symmetry_space_group_name_H-M "P 1"
_symmetry_group_IT_number 1
_symmetry_cell_setting 'triclinic'
loop_
_space_group_symop_operation_xyz
x,y,z
loop_
_atom_site_type_symbol
_atom_site_label
_atom_site_fract_x
_atom_site_fract_y
_atom_site_fract_z
Si Si1 0.505400 0.786210 0.652510
Si Si2 0.064545 0.124369 0.139235
Si Si3 0.941594 0.215944 0.683098
Si Si4 0.952389 0.898658 0.616195
Si Si5 0.060345 0.526935 0.701027
Si Si6 0.413116 0.913760 0.215563
Si Si7 0.624196 0.674274 0.088651
Si Si8 0.497644 0.245922 0.813786
O O1 0.545751 0.753350 0.035202
O O2 0.549460 0.815622 0.443172
O O3 0.742109 0.753684 0.535112
O O4 0.455004 0.938253 0.001362
O O5 0.303153 0.169849 0.977949
O O6 0.964286 0.955647 0.883282
O O7 0.993042 0.337039 0.406107
O O8 0.022922 0.080793 0.329437
O O9 0.946146 0.106288 0.748367
O O10 0.706930 0.242281 0.799816
O O11 0.070723 0.424137 0.781735
O O12 0.870165 0.649907 0.932226
O O13 0.170284 0.846195 0.348384
O O14 0.293115 0.631827 0.628202
O O15 0.487198 0.109147 0.494273
O O16 0.501694 0.463148 0.980545
#
# Coordination Sequence:
#
# PCOD9000938 Si02
#       8
#     1   1   1   1   1   1   1   1
#     4  12  24  43  65 104 137 174 224 289 337 397
#     4   9  20  42  67  98 129 181 229 271 338 413
#     4   9  20  40  66  97 130 175 226 275 328 410
#     4  11  24  41  68 101 138 172 231 279 342 401
#     4   9  22  44  69  97 136 178 230 274 344 404
#     4  11  27  42  66 106 137 176 231 283 336 413
#     4  11  23  46  69  97 142 181 223 284 342 407
#     4  10  20  44  70  96 135 183 226 277 345 405
#
# _framework density 24.578875
#
# number of rings (size 3 to 8) (size 9 to 14) (size 15 to 20)
#    0.750    1.000    1.250    2.250    0.000    6.000 
#    4.500    1.250    0.000    0.000    0.000    0.000 
#    0.000    0.000    0.000    0.000    0.000    0.000 
#
# Total GULP energy -44668.574665 kJ/mol
# GULP energy per Si atom -5583.571833 kJ/mol
# Density = 2.452293 g / cm^3
# Si number density = 24.578875 Si / 1000 Ang^3
#
#
#
# Elastic Constant Matrix: (Units=GPa)
#
#
# Indices 1 2 3 4 5 6 
#
# 1 83.8406 47.9922 21.1423 -9.6434 -23.4118 9.2468
# 2 47.9922 108.0676 11.5561 -12.2217 -16.5964 21.6551
# 3 21.1423 11.5561 97.0658 -5.8090 -8.4561 -6.2791
# 4 -9.6434 -12.2217 -5.8090 31.8855 3.9910 -7.6584
# 5 -23.4118 -16.5964 -8.4561 3.9910 34.0571 -4.3743
# 6 9.2468 21.6551 -6.2791 -7.6584 -4.3743 44.6332
#
#
#
# Elastic Compliance Matrix: (Units=1/GPa)
#
#
# Indices 1 2 3 4 5 6 
#
# 1 0.019065 -0.006642 -0.002466 0.001659 0.009076 0.000100
# 2 -0.006642 0.013584 -0.000272 0.001846 0.001151 -0.004823
# 3 -0.002466 -0.000272 0.011238 0.001689 0.001102 0.002622
# 4 0.001659 0.001846 0.001689 0.034140 -0.000929 0.004765
# 5 0.009076 0.001151 0.001102 -0.000929 0.036693 0.001153
# 6 0.000100 -0.004823 0.002622 0.004765 0.001153 0.026024
#
#
# Mechanical properties :
#
#
# Convention : Reuss Voigt Hill
#
# Bulk Modulus (GPa) = 39.79413 50.03947 44.91680
# Shear Modulus (GPa) = 29.78341 36.00072 32.89206
#
# Velocity S-wave (km/s) = 3.48479 3.83129 3.66214
# Velocity P-wave (km/s) = 5.69361 6.32255 6.01631
#
# Compressibility (1/GPa) = 0.02512934
#
# Stress axis : x y z
#
# Youngs Moduli (GPa) = 52.45203 73.61551 88.98102
#
# Poissons Ratio (x) = 0.48893 0.21939
# Poissons Ratio (y) = 0.34837 0.02419
# Poissons Ratio (z) = 0.12932 0.02002
#
# Static dielectric constant tensor:
#      x y z
#    x 1.941720 0.031760 -0.010000 
#    y 0.031760 1.955660 0.014030 
#    z -0.010000 0.014030 1.964740 
# 
# From -- ./inp_files/5609.got.cif
#   From: 2010.05.17/outbox.cif.g08.bks.cpg/sg1_3_cif.got.tgz:5609.got - 2010.05.17 20:27:59.
