data_PCOD9000906
_publ_section_title
;
Structure prediction by ZEFSAII (Michael W. Deem and Ramdas Pophale) SiO2 
 PCOD9000906
Probable space group: P 1
;
_chemical_formula_sum "Si O2"
_cell_formula_units_Z 8
_cell_length_a 11.917294
_cell_length_b 7.721292
_cell_length_c 8.136297
_cell_angle_alpha 121.580814
_cell_angle_beta 144.929649
_cell_angle_gamma 50.027873
_cell_volume 329.664815
_symmetry_space_group_name_H-M "P 1"
_symmetry_group_IT_number 1
_symmetry_cell_setting 'triclinic'
loop_
_space_group_symop_operation_xyz
x,y,z
loop_
_atom_site_type_symbol
_atom_site_label
_atom_site_fract_x
_atom_site_fract_y
_atom_site_fract_z
Si Si1 0.575100 0.069200 0.061450
Si Si2 0.443523 0.704668 0.601618
Si Si3 0.706967 0.386407 0.015726
Si Si4 0.801945 0.907892 0.818348
Si Si5 0.027369 0.796605 0.351083
Si Si6 0.193990 0.931286 0.121029
Si Si7 0.173397 0.345447 0.511297
Si Si8 0.487563 0.851308 0.164553
O O1 0.520516 0.016175 0.153767
O O2 0.369539 0.282447 0.844729
O O3 0.829901 0.007539 0.309650
O O4 0.563269 0.862571 0.844074
O O5 0.233504 0.820337 0.530112
O O6 0.357996 0.719254 0.322777
O O7 0.610366 0.467880 0.757393
O O8 0.567089 0.601832 0.063944
O O9 0.950056 0.355953 0.322908
O O10 0.693098 0.152197 0.899200
O O11 0.937458 0.742736 0.043877
O O12 0.638007 0.842635 0.494184
O O13 0.963987 0.939696 0.896950
O O14 0.111656 0.580143 0.461898
O O15 0.219823 0.145000 0.335652
O O16 0.252720 0.923150 0.997972
#
# Coordination Sequence:
#
# PCOD9000906 Si02
#       8
#     1   1   1   1   1   1   1   1
#     4  10  22  41  61  97 133 172 220 271 323 391
#     4   9  19  37  65  92 128 170 217 265 324 386
#     4  10  22  43  67  97 132 177 218 267 330 390
#     4  10  23  42  67  96 130 174 222 263 332 393
#     4  11  21  39  71  95 127 180 218 268 327 394
#     4   9  21  40  62  98 133 168 219 275 318 394
#     4  10  20  42  68  92 133 179 217 265 332 386
#     4  11  22  42  67  97 138 164 219 280 320 386
#
# _framework density 24.267074000000001
#
# number of rings (size 3 to 8) (size 9 to 14) (size 15 to 20)
#    0.000    2.000    2.500    2.250    3.500    2.000 
#    2.250    1.250    0.000    0.000    0.000    0.000 
#    0.000    0.000    0.000    0.000    0.000    0.000 
#
# Total GULP energy -44658.573271 kJ/mol
# GULP energy per Si atom -5582.321659 kJ/mol
# Density = 2.421184 g / cm^3
# Si number density = 24.267074 Si / 1000 Ang^3
#
#
#
# Elastic Constant Matrix: (Units=GPa)
#
#
# Indices 1 2 3 4 5 6 
#
# 1 141.1588 23.3342 38.6600 -14.9147 19.1194 -12.5937
# 2 23.3342 63.1544 34.6324 -15.2990 -17.0667 9.7154
# 3 38.6600 34.6324 119.3868 -17.5055 10.2402 3.7710
# 4 -14.9147 -15.2990 -17.5055 39.5803 8.9520 -2.1530
# 5 19.1194 -17.0667 10.2402 8.9520 38.9863 -4.3735
# 6 -12.5937 9.7154 3.7710 -2.1530 -4.3735 32.6632
#
#
#
# Elastic Compliance Matrix: (Units=1/GPa)
#
#
# Indices 1 2 3 4 5 6 
#
# 1 0.009850 -0.005037 -0.000792 0.003263 -0.007054 0.004658
# 2 -0.005037 0.027116 -0.007052 0.001684 0.015013 -0.007072
# 3 -0.000792 -0.007052 0.011798 0.003691 -0.006670 -0.000220
# 4 0.003263 0.001684 0.003691 0.030828 -0.008778 0.001188
# 5 -0.007054 0.015013 -0.006670 -0.008778 0.039254 -0.001738
# 6 0.004658 -0.007072 -0.000220 0.001188 -0.001738 0.034386
#
#
# Mechanical properties :
#
#
# Convention : Reuss Voigt Hill
#
# Bulk Modulus (GPa) = 43.47655 57.43923 50.45789
# Shear Modulus (GPa) = 26.78652 37.38419 32.08536
#
# Velocity S-wave (km/s) = 3.32599 3.92922 3.64012
# Velocity P-wave (km/s) = 5.71877 6.65628 6.20525
#
# Compressibility (1/GPa) = 0.02300090
#
# Stress axis : x y z
#
# Youngs Moduli (GPa) = 101.52669 36.87927 84.75716
#
# Poissons Ratio (x) = 0.18578 0.06711
# Poissons Ratio (y) = 0.51144 0.59771
# Poissons Ratio (z) = 0.08039 0.26007
#
# Static dielectric constant tensor:
#      x y z
#    x 2.030000 -0.022570 0.008210 
#    y -0.022570 1.907980 -0.064910 
#    z 0.008210 -0.064910 1.998680 
# 
# From -- ./inp_files/5362.got.cif
#   From: 2010.05.17/outbox.cif.g08.bks.cpg/sg1_3_cif.got.tgz:5362.got - 2010.05.17 20:27:59.
