data_PCOD9000470
_publ_section_title
;
Structure prediction by ZEFSAII (Michael W. Deem and Ramdas Pophale) SiO2 
 PCOD9000470
Probable space group: P 1
;
_chemical_formula_sum "Si O2"
_cell_formula_units_Z 8
_cell_length_a 8.941793
_cell_length_b 14.668930
_cell_length_c 4.911497
_cell_angle_alpha 101.171719
_cell_angle_beta 96.648016
_cell_angle_gamma 30.439989
_cell_volume 318.493773
_symmetry_space_group_name_H-M "P 1"
_symmetry_group_IT_number 1
_symmetry_cell_setting 'triclinic'
loop_
_space_group_symop_operation_xyz
x,y,z
loop_
_atom_site_type_symbol
_atom_site_label
_atom_site_fract_x
_atom_site_fract_y
_atom_site_fract_z
Si Si1 0.548800 0.605150 0.885470
Si Si2 0.116572 0.566259 0.485366
Si Si3 0.189818 0.171709 0.366859
Si Si4 0.255890 0.849002 0.472210
Si Si5 0.589383 0.413981 0.176365
Si Si6 0.622046 0.210601 0.766962
Si Si7 0.149235 0.362879 0.075964
Si Si8 0.482728 0.927858 0.780119
O O1 0.417825 0.688619 0.608981
O O2 0.544207 0.506657 0.966187
O O3 0.885394 0.462862 0.893730
O O4 0.354403 0.773509 0.144651
O O5 0.369309 0.388430 0.626164
O O6 0.832736 0.747548 0.699864
O O7 0.279325 0.558815 0.342513
O O8 0.033854 0.524661 0.246886
O O9 0.194411 0.270202 0.286141
O O10 0.853224 0.313997 0.358599
O O11 0.384215 0.003350 0.107678
O O12 0.320794 0.088240 0.643347
O O13 0.369309 0.888430 0.626164
O O14 0.905882 0.029312 0.552465
O O15 0.704764 0.252198 0.005442
O O16 0.459293 0.218045 0.909815
#
# Coordination Sequence:
#
# PCOD9000470 Si02
#       8
#     1   1   1   1   1   1   1   1
#     4  11  26  45  71  99 131 176 225 274 325 393
#     4  11  25  43  69  95 139 176 218 271 339 392
#     4  11  26  45  71  99 131 176 225 274 325 393
#     4  12  25  44  70  99 135 173 225 272 330 393
#     4  10  25  44  67  99 134 175 220 273 333 393
#     4  11  25  43  69  95 139 176 218 271 339 392
#     4  10  25  44  67  99 134 175 220 273 333 393
#     4  12  25  44  70  99 135 173 225 272 330 393
#
# _framework density 25.118231000000002
#
# number of rings (size 3 to 8) (size 9 to 14) (size 15 to 20)
#    0.000    1.000    2.500    2.250   10.500    4.000 
#    0.000    0.000    0.000    0.000    0.000    0.000 
#    0.000    0.000    0.000    0.000    0.000    0.000 
#
# Total GULP energy -44925.030466 kJ/mol
# GULP energy per Si atom -5615.628808 kJ/mol
# Density = 2.506106 g / cm^3
# Si number density = 25.118231 Si / 1000 Ang^3
#
#
#
# Elastic Constant Matrix: (Units=GPa)
#
#
# Indices 1 2 3 4 5 6 
#
# 1 151.9257 37.1077 12.5792 4.3738 -17.5256 -0.0465
# 2 37.1077 146.6491 18.1793 16.1989 -13.8193 -26.0932
# 3 12.5792 18.1793 71.8004 8.2782 -8.6821 -5.1830
# 4 4.3738 16.1989 8.2782 64.1500 0.6672 -10.8527
# 5 -17.5256 -13.8193 -8.6821 0.6672 29.9744 9.1059
# 6 -0.0465 -26.0932 -5.1830 -10.8527 9.1059 36.1059
#
#
#
# Elastic Compliance Matrix: (Units=1/GPa)
#
#
# Indices 1 2 3 4 5 6 
#
# 1 0.007581 -0.001875 -0.000476 -0.000470 0.004238 -0.002623
# 2 -0.001875 0.008620 -0.001240 -0.000960 0.000856 0.005545
# 3 -0.000476 -0.001240 0.014934 -0.001643 0.003556 -0.000143
# 4 -0.000470 -0.000960 -0.001643 0.016942 -0.003070 0.004937
# 5 0.004238 0.000856 0.003556 -0.003070 0.040360 -0.009967
# 6 -0.002623 0.005545 -0.000143 0.004937 -0.009967 0.035677
#
#
# Mechanical properties :
#
#
# Convention : Reuss Voigt Hill
#
# Bulk Modulus (GPa) = 41.74721 56.23419 48.99070
# Shear Modulus (GPa) = 35.89864 46.21330 41.05597
#
# Velocity S-wave (km/s) = 3.78456 4.29398 4.04729
# Velocity P-wave (km/s) = 5.97943 6.85717 6.43328
#
# Compressibility (1/GPa) = 0.02395370
#
# Stress axis : x y z
#
# Youngs Moduli (GPa) = 131.90713 116.00403 66.96193
#
# Poissons Ratio (x) = 0.21749 0.03189
# Poissons Ratio (y) = 0.24730 0.08301
# Poissons Ratio (z) = 0.06282 0.14381
#
# Static dielectric constant tensor:
#      x y z
#    x 1.987240 0.045890 0.055860 
#    y 0.045890 1.945310 0.048010 
#    z 0.055860 0.048010 2.010390 
# 
# From -- ./inp_files/1159.got.cif
#   From: 2010.05.17/outbox.cif.g08.bks.cpg/sg1_1_cif.got.tgz:1159.got - 2010.05.17 20:27:59.
