data_PCOD9000135
_publ_section_title
;
Structure prediction by ZEFSAII (Michael W. Deem and Ramdas Pophale) SiO2 
 PCOD9000135
Probable space group: P 1
;
_chemical_formula_sum "Si O2"
_cell_formula_units_Z 8
_cell_length_a 8.272915
_cell_length_b 11.914260
_cell_length_c 9.566851
_cell_angle_alpha 144.399581
_cell_angle_beta 116.253809
_cell_angle_gamma 43.443383
_cell_volume 350.713619
_symmetry_space_group_name_H-M "P 1"
_symmetry_group_IT_number 1
_symmetry_cell_setting 'triclinic'
loop_
_space_group_symop_operation_xyz
x,y,z
loop_
_atom_site_type_symbol
_atom_site_label
_atom_site_fract_x
_atom_site_fract_y
_atom_site_fract_z
Si Si1 0.448550 0.427380 0.048880
Si Si2 0.411951 0.788052 0.577047
Si Si3 0.910839 0.681912 0.995650
Si Si4 0.947425 0.321260 0.467470
Si Si5 0.299949 0.306333 0.122345
Si Si6 0.059556 0.802889 0.922145
Si Si7 0.399813 0.229723 0.413290
Si Si8 0.959579 0.879564 0.631222
O O1 0.444887 0.658333 0.308770
O O2 0.466620 0.321051 0.104150
O O3 0.179691 0.554635 0.022270
O O4 0.683553 0.171052 0.793206
O O5 0.179274 0.853884 0.630999
O O6 0.679680 0.554655 0.522262
O O7 0.335680 0.068286 0.832558
O O8 0.914491 0.450974 0.735742
O O9 0.892865 0.788226 0.940414
O O10 0.675795 0.938223 0.251289
O O11 0.180060 0.255496 0.413563
O O12 0.023790 0.040975 0.211932
O O13 0.369811 0.254013 0.258725
O O14 0.024746 0.617249 0.333713
O O15 0.334740 0.491983 0.710779
O O16 0.989654 0.855208 0.785748
#
# Coordination Sequence:
#
# PCOD9000135 Si02
#       8
#     1   1   1   1   1   1   1   1
#     4  11  25  42  60  90 130 161 196 249 307 362
#     4  11  23  38  66  95 117 156 212 249 295 362
#     4  11  25  42  60  90 130 161 196 249 307 362
#     4  11  23  38  66  95 117 156 212 249 295 362
#     4  10  22  38  65  93 117 159 206 251 299 355
#     4  10  22  38  65  93 117 159 206 251 299 355
#     4  10  22  39  65  91 123 155 204 256 298 350
#     4  10  22  39  65  91 123 155 204 256 298 350
#
# _framework density 22.810632999999999
#
# number of rings (size 3 to 8) (size 9 to 14) (size 15 to 20)
#    0.000    1.500    2.500    1.500    7.000    5.000 
#    0.000    2.500    0.000    0.000    0.000    0.000 
#    0.000    0.000    0.000    0.000    0.000    0.000 
#
# Total GULP energy -44671.676550 kJ/mol
# GULP energy per Si atom -5583.959569 kJ/mol
# Density = 2.275871 g / cm^3
# Si number density = 22.810633 Si / 1000 Ang^3
#
#
#
# Elastic Constant Matrix: (Units=GPa)
#
#
# Indices 1 2 3 4 5 6 
#
# 1 58.1303 13.4265 45.1923 25.2341 -3.0403 -12.5487
# 2 13.4265 81.7849 57.0812 21.4430 -6.7440 -35.8152
# 3 45.1923 57.0812 273.2048 37.5392 23.7330 -36.9491
# 4 25.2341 21.4430 37.5392 32.9680 -13.5270 -14.6241
# 5 -3.0403 -6.7440 23.7330 -13.5270 50.2646 4.7335
# 6 -12.5487 -35.8152 -36.9491 -14.6241 4.7335 39.5585
#
#
#
# Elastic Compliance Matrix: (Units=1/GPa)
#
#
# Indices 1 2 3 4 5 6 
#
# 1 0.027361 0.003018 -0.001643 -0.021247 -0.003108 0.002394
# 2 0.003018 0.022275 -0.002034 -0.006809 0.000734 0.016620
# 3 -0.001643 -0.002034 0.005659 -0.005012 -0.004545 0.001614
# 4 -0.021247 -0.006809 -0.005012 0.065998 0.017484 0.004721
# 5 -0.003108 0.000734 -0.004545 0.017484 0.026779 -0.001307
# 6 0.002394 0.016620 0.001614 0.004721 -0.001307 0.044495
#
#
# Mechanical properties :
#
#
# Convention : Reuss Voigt Hill
#
# Bulk Modulus (GPa) = 18.52640 71.61333 45.06986
# Shear Modulus (GPa) = 23.59850 44.38621 33.99236
#
# Velocity S-wave (km/s) = 3.21992 4.41597 3.86450
# Velocity P-wave (km/s) = 4.68650 7.58050 6.30187
#
# Compressibility (1/GPa) = 0.05397704
#
# Stress axis : x y z
#
# Youngs Moduli (GPa) = 36.54861 44.89292 176.72033
#
# Poissons Ratio (x) = -0.13549 0.29040
# Poissons Ratio (y) = -0.11031 0.35938
# Poissons Ratio (z) = 0.06006 0.09129
#
# Static dielectric constant tensor:
#      x y z
#    x 1.822310 0.024850 0.011120 
#    y 0.024850 1.902560 0.013340 
#    z 0.011120 0.013340 1.918870 
# 
# From -- ./inp_files/1724.got.cif
#   From: 2010.05.17/outbox.cif.g08.bks.cpg/sg1_1_cif.got.tgz:1724.got - 2010.05.17 20:27:59.
