data_PCOD9000511
_publ_section_title
;
Structure prediction by ZEFSAII (Michael W. Deem and Ramdas Pophale) SiO2 
 PCOD9000511
Probable space group: P 1
;
_chemical_formula_sum "Si O2"
_cell_formula_units_Z 6
_cell_length_a 5.234257
_cell_length_b 10.117812
_cell_length_c 5.260761
_cell_angle_alpha 91.596966
_cell_angle_beta 90.049468
_cell_angle_gamma 118.853196
_cell_volume 243.892069
_symmetry_space_group_name_H-M "P 1"
_symmetry_group_IT_number 1
_symmetry_cell_setting 'triclinic'
loop_
_space_group_symop_operation_xyz
x,y,z
loop_
_atom_site_type_symbol
_atom_site_label
_atom_site_fract_x
_atom_site_fract_y
_atom_site_fract_z
Si Si1 0.434370 0.802180 0.492340
Si Si2 0.856436 0.586107 0.703936
Si Si3 0.345013 0.387524 0.366758
Si Si4 0.841937 0.359983 0.048637
Si Si5 0.754263 0.804347 0.015342
Si Si6 0.846779 0.089340 0.250782
O O1 0.571602 0.800360 0.765126
O O2 0.091233 0.698895 0.511982
O O3 0.567389 0.976189 0.410746
O O4 0.562423 0.744906 0.263993
O O5 0.528299 0.497835 0.596182
O O6 0.891548 0.699471 0.938058
O O7 0.906495 0.449152 0.790785
O O8 0.584755 0.377494 0.185211
O O9 0.137932 0.434058 0.214977
O O10 0.109499 0.214281 0.426072
O O11 0.769081 0.185982 0.056144
O O12 0.945305 0.980692 0.098700
#
# Coordination Sequence:
#
# PCOD9000511 Si02
#       6
#     1   1   1   1   1   1
#     4  10  26  48  82 115 166 209 278 332 418 482
#     4  12  28  44  90 116 164 210 280 340 416 480
#     4  10  26  48  82 115 166 209 278 332 418 482
#     4  10  26  48  82 115 166 209 278 332 418 482
#     4  10  26  48  82 115 166 209 278 332 418 482
#     4   8  24  52  78 112 164 218 268 336 408 496
#
# _framework density 24.601047000000001
#
# number of rings (size 3 to 8) (size 9 to 14) (size 15 to 20)
#    2.000    0.000    0.000    0.000    9.333    5.333 
#    0.000    0.000   14.667    0.000    0.000    0.000 
#    0.000    0.000    0.000    0.000    0.000    0.000 
#
# Total GULP energy -33491.443376 kJ/mol
# GULP energy per Si atom -5581.907229 kJ/mol
# Density = 2.454505 g / cm^3
# Si number density = 24.601047 Si / 1000 Ang^3
#
#
#
# Elastic Constant Matrix: (Units=GPa)
#
#
# Indices 1 2 3 4 5 6 
#
# 1 94.8480 50.2532 37.4975 -21.5315 1.4334 18.3252
# 2 50.2532 193.3536 36.8430 -13.2747 7.7002 0.7288
# 3 37.4975 36.8430 105.8822 -5.1713 5.3979 7.5749
# 4 -21.5315 -13.2747 -5.1713 25.1781 -10.0494 -6.4942
# 5 1.4334 7.7002 5.3979 -10.0494 45.2671 -6.4562
# 6 18.3252 0.7288 7.5749 -6.4942 -6.4562 23.2168
#
#
#
# Elastic Compliance Matrix: (Units=1/GPa)
#
#
# Indices 1 2 3 4 5 6 
#
# 1 0.018240 -0.003192 -0.004216 0.011311 0.001653 -0.009298
# 2 -0.003192 0.006300 -0.001214 0.001037 -0.000174 0.002959
# 3 -0.004216 -0.001214 0.011435 -0.003150 -0.001979 -0.001797
# 4 0.011311 0.001037 -0.003150 0.058304 0.014557 0.012424
# 5 0.001653 -0.000174 -0.001979 0.014557 0.027098 0.010954
# 6 -0.009298 0.002959 -0.001797 0.012424 0.010954 0.057426
#
#
# Mechanical properties :
#
#
# Convention : Reuss Voigt Hill
#
# Bulk Modulus (GPa) = 53.38298 71.47461 62.42879
# Shear Modulus (GPa) = 24.71699 36.69840 30.70770
#
# Velocity S-wave (km/s) = 3.17316 3.86650 3.53686
# Velocity P-wave (km/s) = 5.93059 7.00354 6.48928
#
# Compressibility (1/GPa) = 0.01873256
#
# Stress axis : x y z
#
# Youngs Moduli (GPa) = 54.82473 158.73972 87.44741
#
# Poissons Ratio (x) = 0.50663 0.36865
# Poissons Ratio (y) = 0.17498 0.10616
# Poissons Ratio (z) = 0.23112 0.19271
#
# Static dielectric constant tensor:
#      x y z
#    x 1.945990 -0.036500 -0.009160 
#    y -0.036500 1.987040 -0.010870 
#    z -0.009160 -0.010870 1.941360 
# 
# From -- ./inp_files/304.got.cif
#   From: 2010.05.17/outbox.cif.g08.bks.cpg/sg1_1_cif.got.tgz:304.got - 2010.05.17 20:27:59.
