data_PCOD9000878
_publ_section_title
;
Structure prediction by ZEFSAII (Michael W. Deem and Ramdas Pophale) SiO2 
 PCOD9000878
Probable space group: P 1
;
_chemical_formula_sum "Si O2"
_cell_formula_units_Z 8
_cell_length_a 9.393467
_cell_length_b 8.160982
_cell_length_c 9.370840
_cell_angle_alpha 87.863449
_cell_angle_beta 118.563467
_cell_angle_gamma 46.626587
_cell_volume 375.954819
_symmetry_space_group_name_H-M "P 1"
_symmetry_group_IT_number 1
_symmetry_cell_setting 'triclinic'
loop_
_space_group_symop_operation_xyz
x,y,z
loop_
_atom_site_type_symbol
_atom_site_label
_atom_site_fract_x
_atom_site_fract_y
_atom_site_fract_z
Si Si1 0.902950 0.146270 0.984490
Si Si2 0.773681 0.683244 0.211022
Si Si3 0.197086 0.154118 0.604145
Si Si4 0.310219 0.548789 0.712985
Si Si5 0.923860 0.058874 0.332800
Si Si6 0.831008 0.598781 0.922617
Si Si7 0.257288 0.283599 0.901301
Si Si8 0.401713 0.657327 0.038439
O O1 0.608676 0.315186 0.793404
O O2 0.878488 0.363778 0.958905
O O3 0.953019 0.051845 0.175875
O O4 0.147207 0.890303 0.010431
O O5 0.593816 0.661354 0.126678
O O6 0.022534 0.441245 0.440080
O O7 0.881994 0.623258 0.105159
O O8 0.545821 0.004801 0.119723
O O9 0.170869 0.199906 0.760845
O O10 0.076981 0.087055 0.480640
O O11 0.516983 0.894985 0.731624
O O12 0.288243 0.402780 0.799000
O O13 0.315192 0.683437 0.835686
O O14 0.071853 0.782616 0.480648
O O15 0.604090 0.347981 0.197615
O O16 0.032033 0.502944 0.903062
#
# Coordination Sequence:
#
# PCOD9000878 Si02
#       8
#     1   1   1   1   1   1   1   1
#     4  11  21  38  67  88 112 158 203 243 290 345
#     4  10  20  41  61  89 120 150 200 250 287 344
#     4  10  21  38  61  90 117 152 197 249 283 348
#     4  11  23  43  56  88 128 156 189 246 295 353
#     4  10  21  39  62  88 121 149 202 249 285 343
#     4  11  20  38  61  93 114 152 203 240 290 349
#     4  11  25  37  62  88 125 158 189 240 306 348
#     4  10  21  38  64  90 113 155 203 245 288 344
#
# _framework density 21.279152
#
# number of rings (size 3 to 8) (size 9 to 14) (size 15 to 20)
#    0.000    1.500    6.250    0.750    0.000    8.000 
#    0.000    1.250    0.000    0.000    0.000    0.000 
#    0.000    0.000    0.000    0.000    0.000    0.000 
#
# Total GULP energy -44697.287239 kJ/mol
# GULP energy per Si atom -5587.160905 kJ/mol
# Density = 2.123072 g / cm^3
# Si number density = 21.279152 Si / 1000 Ang^3
#
#
#
# Elastic Constant Matrix: (Units=GPa)
#
#
# Indices 1 2 3 4 5 6 
#
# 1 28.5336 20.6348 2.4750 1.9721 -0.9153 -6.0359
# 2 20.6348 98.8150 37.8703 -9.1852 8.3482 -36.3512
# 3 2.4750 37.8703 141.8043 -36.7397 10.2488 -9.4797
# 4 1.9721 -9.1852 -36.7397 29.0170 6.1278 -8.9037
# 5 -0.9153 8.3482 10.2488 6.1278 17.0206 -10.7502
# 6 -6.0359 -36.3512 -9.4797 -8.9037 -10.7502 46.3469
#
#
#
# Elastic Compliance Matrix: (Units=1/GPa)
#
#
# Indices 1 2 3 4 5 6 
#
# 1 0.044501 -0.012198 -0.002075 -0.013245 0.011877 -0.003986
# 2 -0.012198 0.020024 -0.000664 0.011999 -0.004817 0.015169
# 3 -0.002075 -0.000664 0.014123 0.021731 -0.014238 0.002970
# 4 -0.013245 0.011999 0.021731 0.080242 -0.036524 0.019075
# 5 0.011877 -0.004817 -0.014238 -0.036524 0.088806 0.008438
# 6 -0.003986 0.015169 0.002970 0.019075 0.008438 0.039184
#
#
# Mechanical properties :
#
#
# Convention : Reuss Voigt Hill
#
# Bulk Modulus (GPa) = 20.50298 43.45702 31.98000
# Shear Modulus (GPa) = 15.01437 32.35507 23.68472
#
# Velocity S-wave (km/s) = 2.65918 3.90360 3.33986
# Velocity P-wave (km/s) = 4.36858 6.38624 5.47122
#
# Compressibility (1/GPa) = 0.04877340
#
# Stress axis : x y z
#
# Youngs Moduli (GPa) = 22.47132 49.93976 70.80444
#
# Poissons Ratio (x) = 0.60919 0.14695
# Poissons Ratio (y) = 0.27411 0.04700
# Poissons Ratio (z) = 0.04664 0.03315
#
# Static dielectric constant tensor:
#      x y z
#    x 1.808130 0.091510 0.006780 
#    y 0.091510 1.794180 -0.021080 
#    z 0.006780 -0.021080 1.767620 
# 
# From -- ./inp_files/4091.got.cif
#   From: 2010.05.17/outbox.cif.g08.bks.cpg/sg1_3_cif.got.tgz:4091.got - 2010.05.17 20:27:59.
