data_PCOD9000506
_publ_section_title
;
Structure prediction by ZEFSAII (Michael W. Deem and Ramdas Pophale) SiO2 
 PCOD9000506
Probable space group: P 1
;
_chemical_formula_sum "Si O2"
_cell_formula_units_Z 8
_cell_length_a 9.162733
_cell_length_b 7.736216
_cell_length_c 8.841752
_cell_angle_alpha 47.506367
_cell_angle_beta 82.999033
_cell_angle_gamma 115.331220
_cell_volume 328.861131
_symmetry_space_group_name_H-M "P 1"
_symmetry_group_IT_number 1
_symmetry_cell_setting 'triclinic'
loop_
_space_group_symop_operation_xyz
x,y,z
loop_
_atom_site_type_symbol
_atom_site_label
_atom_site_fract_x
_atom_site_fract_y
_atom_site_fract_z
Si Si1 0.476550 0.397220 0.811070
Si Si2 0.818973 0.154591 0.323731
Si Si3 0.528286 0.706976 0.127749
Si Si4 0.234904 0.393665 0.065218
Si Si5 0.092216 0.671795 0.758166
Si Si6 0.820829 0.459818 0.662208
Si Si7 0.825369 0.638624 0.220130
Si Si8 0.229599 0.198418 0.674908
O O1 0.363289 0.556062 0.374437
O O2 0.034489 0.666270 0.599532
O O3 0.649147 0.399490 0.820669
O O4 0.299645 0.246090 0.042929
O O5 0.828700 0.376208 0.311434
O O6 0.610448 0.783716 0.562789
O O7 0.874847 0.341105 0.049197
O O8 0.374284 0.231971 0.759763
O O9 0.627852 0.562891 0.233479
O O10 0.715306 0.093429 0.863910
O O11 0.402587 0.590580 0.058402
O O12 0.236980 0.616252 0.816313
O O13 0.011838 0.186989 0.293724
O O14 0.168204 0.970802 0.673663
O O15 0.835593 0.624926 0.407646
O O16 0.019861 0.994514 0.915337
#
# Coordination Sequence:
#
# PCOD9000506 Si02
#       8
#     1   1   1   1   1   1   1   1
#     4  12  25  44  78 108 153 199 246 308 374 452
#     4   9  24  48  71 108 152 193 249 311 376 438
#     4  12  27  50  78 113 149 204 254 307 381 449
#     4  10  26  45  73 110 149 192 250 306 375 441
#     4   9  24  48  71 108 153 192 250 313 366 445
#     4  12  27  48  78 114 155 197 254 308 381 449
#     4  11  27  50  79 112 153 199 249 322 370 452
#     4  11  26  47  76 109 152 196 252 305 377 440
#
# _framework density 24.326376
#
# number of rings (size 3 to 8) (size 9 to 14) (size 15 to 20)
#    0.750    0.500    1.250    2.250   10.500    1.000 
#    0.000    1.250    0.000    0.000    0.000    0.000 
#    0.000    0.000    0.000    0.000    0.000    0.000 
#
# Total GULP energy -44687.486526 kJ/mol
# GULP energy per Si atom -5585.935816 kJ/mol
# Density = 2.427101 g / cm^3
# Si number density = 24.326376 Si / 1000 Ang^3
#
#
#
# Elastic Constant Matrix: (Units=GPa)
#
#
# Indices 1 2 3 4 5 6 
#
# 1 159.8412 64.4075 66.9253 20.9380 7.5244 25.2069
# 2 64.4075 82.6969 44.7342 9.4236 3.3993 25.2337
# 3 66.9253 44.7342 121.7854 -6.0795 -3.8047 13.5943
# 4 20.9380 9.4236 -6.0795 33.6642 8.8055 -0.2164
# 5 7.5244 3.3993 -3.8047 8.8055 33.4636 9.9039
# 6 25.2069 25.2337 13.5943 -0.2164 9.9039 45.4350
#
#
#
# Elastic Compliance Matrix: (Units=1/GPa)
#
#
# Indices 1 2 3 4 5 6 
#
# 1 0.011341 -0.005015 -0.004478 -0.006413 -0.000226 -0.002148
# 2 -0.005015 0.021185 -0.004259 -0.004156 0.002002 -0.008165
# 3 -0.004478 -0.004259 0.012462 0.005969 0.001011 0.000929
# 4 -0.006413 -0.004156 0.005969 0.038447 -0.009445 0.006322
# 5 -0.000226 0.002002 0.001011 -0.009445 0.034983 -0.008959
# 6 -0.002148 -0.008165 0.000929 0.006322 -0.008959 0.029441
#
#
# Mechanical properties :
#
#
# Convention : Reuss Voigt Hill
#
# Bulk Modulus (GPa) = 57.19381 79.60638 68.40009
# Shear Modulus (GPa) = 27.59508 35.06298 31.32903
#
# Velocity S-wave (km/s) = 3.37169 3.80064 3.59257
# Velocity P-wave (km/s) = 6.22252 7.21493 6.73702
#
# Compressibility (1/GPa) = 0.01748441
#
# Stress axis : x y z
#
# Youngs Moduli (GPa) = 88.17200 47.20251 80.24301
#
# Poissons Ratio (x) = 0.23674 0.35931
# Poissons Ratio (y) = 0.44222 0.34177
# Poissons Ratio (z) = 0.39481 0.20104
#
# Static dielectric constant tensor:
#      x y z
#    x 1.910100 -0.019510 0.006370 
#    y -0.019510 1.947130 -0.009530 
#    z 0.006370 -0.009530 1.965940 
# 
# From -- ./inp_files/4048.got.cif
#   From: 2010.05.17/outbox.cif.g08.bks.cpg/sg1_3_cif.got.tgz:4048.got - 2010.05.17 20:27:59.
