data_PCOD9000691
_publ_section_title
;
Structure prediction by ZEFSAII (Michael W. Deem and Ramdas Pophale) SiO2 
 PCOD9000691
Probable space group: P 1
;
_chemical_formula_sum "Si O2"
_cell_formula_units_Z 6
_cell_length_a 6.280292
_cell_length_b 9.311098
_cell_length_c 7.439125
_cell_angle_alpha 133.281806
_cell_angle_beta 63.837108
_cell_angle_gamma 94.575496
_cell_volume 267.248801
_symmetry_space_group_name_H-M "P 1"
_symmetry_group_IT_number 1
_symmetry_cell_setting 'triclinic'
loop_
_space_group_symop_operation_xyz
x,y,z
loop_
_atom_site_type_symbol
_atom_site_label
_atom_site_fract_x
_atom_site_fract_y
_atom_site_fract_z
Si Si1 0.963230 0.515040 0.459260
Si Si2 0.451231 0.158342 0.123676
Si Si3 0.620556 0.302393 0.555180
Si Si4 0.998765 0.909953 0.625759
Si Si5 0.125833 0.285206 0.872036
Si Si6 0.082127 0.020980 0.335611
O O1 0.748966 0.479759 0.632888
O O2 0.998486 0.737172 0.620836
O O3 0.226617 0.339906 0.268426
O O4 0.927509 0.457249 0.214665
O O5 0.538151 0.255292 0.348922
O O6 0.328798 0.990469 0.100430
O O7 0.705191 0.050514 0.827327
O O8 0.380147 0.337419 0.801197
O O9 0.838876 0.092949 0.363724
O O10 0.099844 0.847283 0.330952
O O11 0.149390 0.061782 0.764500
O O12 0.051713 0.227871 0.651749
#
# Coordination Sequence:
#
# PCOD9000691 Si02
#       6
#     1   1   1   1   1   1
#     4  11  22  38  63  87 113 153 196 234 287 341
#     4  10  20  39  60  85 120 150 188 242 284 340
#     4  10  18  40  61  80 122 156 181 241 292 332
#     4  10  21  40  59  90 112 151 198 233 287 339
#     4   9  20  37  59  84 119 148 189 242 282 335
#     4   8  19  36  62  82 116 156 186 236 292 331
#
# _framework density 22.450987999999999
#
# number of rings (size 3 to 8) (size 9 to 14) (size 15 to 20)
#    1.000    1.333    1.667    1.000    0.000    1.333 
#    6.000    5.000    0.000    0.000    0.000    0.000 
#    0.000    0.000    0.000    0.000    0.000    0.000 
#
# Total GULP energy -33408.383662 kJ/mol
# GULP energy per Si atom -5568.063944 kJ/mol
# Density = 2.239989 g / cm^3
# Si number density = 22.450988 Si / 1000 Ang^3
#
#
#
# Elastic Constant Matrix: (Units=GPa)
#
#
# Indices 1 2 3 4 5 6 
#
# 1 69.4005 41.9714 11.6824 -3.2946 -13.0428 5.8514
# 2 41.9714 168.6950 30.1381 -6.4208 -25.5334 45.3679
# 3 11.6824 30.1381 28.2898 -10.8848 -9.3304 17.1086
# 4 -3.2946 -6.4208 -10.8848 33.3942 5.7676 -9.5438
# 5 -13.0428 -25.5334 -9.3304 5.7676 29.8694 -15.0262
# 6 5.8514 45.3679 17.1086 -9.5438 -15.0262 35.9497
#
#
#
# Elastic Compliance Matrix: (Units=1/GPa)
#
#
# Indices 1 2 3 4 5 6 
#
# 1 0.018903 -0.005100 -0.005311 0.000527 0.006541 0.008761
# 2 -0.005100 0.011001 -0.003286 -0.003008 0.000696 -0.011997
# 3 -0.005311 -0.003286 0.057270 0.012008 0.001085 -0.018602
# 4 0.000527 -0.003008 0.012008 0.035575 -0.002174 0.006531
# 5 0.006541 0.000696 0.001085 -0.002174 0.045790 0.016103
# 6 0.008761 -0.011997 -0.018602 0.006531 0.016103 0.058848
#
#
# Mechanical properties :
#
#
# Convention : Reuss Voigt Hill
#
# Bulk Modulus (GPa) = 16.72800 48.21878 32.47339
# Shear Modulus (GPa) = 18.20109 32.01554 25.10832
#
# Velocity S-wave (km/s) = 2.85037 3.78036 3.34782
# Velocity P-wave (km/s) = 4.27784 6.37015 5.42581
#
# Compressibility (1/GPa) = 0.05978002
#
# Stress axis : x y z
#
# Youngs Moduli (GPa) = 52.90066 90.89928 17.46103
#
# Poissons Ratio (x) = 0.46363 0.09273
# Poissons Ratio (y) = 0.26982 0.05738
# Poissons Ratio (z) = 0.28094 0.29872
#
# Static dielectric constant tensor:
#      x y z
#    x 1.818340 0.031730 0.025970 
#    y 0.031730 1.898910 -0.007340 
#    z 0.025970 -0.007340 1.817140 
# 
# From -- ./inp_files/182.got.cif
#   From: 2010.05.17/outbox.cif.g08.bks.cpg/sg1_1_cif.got.tgz:182.got - 2010.05.17 20:27:59.
