data_PCOD9000382
_publ_section_title
;
Structure prediction by ZEFSAII (Michael W. Deem and Ramdas Pophale) SiO2 
 PCOD9000382
Probable space group: P 1
;
_chemical_formula_sum "Si O2"
_cell_formula_units_Z 8
_cell_length_a 7.812205
_cell_length_b 11.096658
_cell_length_c 8.077656
_cell_angle_alpha 125.697525
_cell_angle_beta 73.411008
_cell_angle_gamma 138.874942
_cell_volume 358.130339
_symmetry_space_group_name_H-M "P 1"
_symmetry_group_IT_number 1
_symmetry_cell_setting 'triclinic'
loop_
_space_group_symop_operation_xyz
x,y,z
loop_
_atom_site_type_symbol
_atom_site_label
_atom_site_fract_x
_atom_site_fract_y
_atom_site_fract_z
Si Si1 0.270680 0.561900 0.646140
Si Si2 0.211809 0.028589 0.421883
Si Si3 0.788862 0.392736 0.177033
Si Si4 0.887345 0.060463 0.359317
Si Si5 0.810947 0.710241 0.566924
Si Si6 0.537326 0.974821 0.107735
Si Si7 0.345389 0.751555 0.431356
Si Si8 0.380897 0.123585 0.788376
O O1 0.544536 0.635554 0.615714
O O2 0.228207 0.599675 0.504428
O O3 0.030389 0.305016 0.563781
O O4 0.326528 0.733691 0.886732
O O5 0.943880 0.812325 0.427993
O O6 0.380693 0.997301 0.280215
O O7 0.110054 0.073814 0.342671
O O8 0.384267 0.203314 0.670173
O O9 0.753648 0.498259 0.412811
O O10 0.113567 0.589223 0.226399
O O11 0.687557 0.169361 0.086188
O O12 0.604266 0.316140 0.009125
O O13 0.754508 0.013722 0.181483
O O14 0.629303 0.863118 0.386290
O O15 0.065546 0.929793 0.781390
O O16 0.405854 0.962308 0.618968
#
# Coordination Sequence:
#
# PCOD9000382 Si02
#       8
#     1   1   1   1   1   1   1   1
#     4  12  25  45  71 102 144 186 229 293 351 410
#     4  10  23  47  68  98 148 178 234 291 341 423
#     4  11  21  41  74 100 138 191 227 291 356 408
#     4  12  25  47  69 104 148 179 239 292 338 423
#     4   9  22  43  68 100 135 185 234 282 347 419
#     4  12  25  43  69 110 139 185 234 291 351 415
#     4  11  21  44  70 102 141 187 233 282 352 420
#     4   9  20  42  73  96 137 189 230 282 352 416
#
# _framework density 22.338239000000002
#
# number of rings (size 3 to 8) (size 9 to 14) (size 15 to 20)
#    0.750    0.500    5.000    0.750    0.000    4.000 
#    2.250    0.000    0.000    0.000    0.000    0.000 
#    0.000    0.000    0.000    0.000    0.000    0.000 
#
# Total GULP energy -44625.959553 kJ/mol
# GULP energy per Si atom -5578.244944 kJ/mol
# Density = 2.228740 g / cm^3
# Si number density = 22.338239 Si / 1000 Ang^3
#
#
#
# Elastic Constant Matrix: (Units=GPa)
#
#
# Indices 1 2 3 4 5 6 
#
# 1 127.8876 24.5113 32.5058 -5.8831 29.2901 0.5617
# 2 24.5113 62.9641 29.0591 8.4545 12.4073 4.4659
# 3 32.5058 29.0591 96.0853 17.8965 33.8387 7.5657
# 4 -5.8831 8.4545 17.8965 25.0457 4.3621 4.4451
# 5 29.2901 12.4073 33.8387 4.3621 35.9535 2.2185
# 6 0.5617 4.4659 7.5657 4.4451 2.2185 38.6970
#
#
#
# Elastic Compliance Matrix: (Units=1/GPa)
#
#
# Indices 1 2 3 4 5 6 
#
# 1 0.010580 -0.002900 -0.001238 0.005558 -0.007139 0.000194
# 2 -0.002900 0.019516 -0.004077 -0.004196 0.000032 -0.000933
# 3 -0.001238 -0.004077 0.018974 -0.009775 -0.014177 -0.001285
# 4 0.005558 -0.004196 -0.009775 0.050207 0.000243 -0.003466
# 5 -0.007139 0.000032 -0.014177 0.000243 0.046922 0.000154
# 6 0.000194 -0.000933 -0.001285 -0.003466 0.000154 0.026587
#
#
# Mechanical properties :
#
#
# Convention : Reuss Voigt Hill
#
# Bulk Modulus (GPa) = 30.63947 51.00992 40.82469
# Shear Modulus (GPa) = 24.98768 33.32996 29.15882
#
# Velocity S-wave (km/s) = 3.34818 3.86691 3.61686
# Velocity P-wave (km/s) = 5.35659 6.54386 5.97976
#
# Compressibility (1/GPa) = 0.03263764
#
# Stress axis : x y z
#
# Youngs Moduli (GPa) = 94.51890 51.23944 52.70334
#
# Poissons Ratio (x) = 0.14862 0.06527
# Poissons Ratio (y) = 0.27415 0.21490
# Poissons Ratio (z) = 0.11705 0.20893
#
# Static dielectric constant tensor:
#      x y z
#    x 1.855340 -0.019800 0.025820 
#    y -0.019800 1.861610 -0.017510 
#    z 0.025820 -0.017510 1.800460 
# 
# From -- ./inp_files/4875.got.cif
#   From: 2010.05.17/outbox.cif.g08.bks.cpg/sg1_3_cif.got.tgz:4875.got - 2010.05.17 20:27:59.
