data_PCOD9000638
_publ_section_title
;
Structure prediction by ZEFSAII (Michael W. Deem and Ramdas Pophale) SiO2 
 PCOD9000638
Probable space group: P 1
;
_chemical_formula_sum "Si O2"
_cell_formula_units_Z 6
_cell_length_a 5.088288
_cell_length_b 8.973571
_cell_length_c 7.439596
_cell_angle_alpha 133.253280
_cell_angle_beta 110.003557
_cell_angle_gamma 73.517891
_cell_volume 231.878866
_symmetry_space_group_name_H-M "P 1"
_symmetry_group_IT_number 1
_symmetry_cell_setting 'triclinic'
loop_
_space_group_symop_operation_xyz
x,y,z
loop_
_atom_site_type_symbol
_atom_site_label
_atom_site_fract_x
_atom_site_fract_y
_atom_site_fract_z
Si Si1 0.311310 0.064820 0.031680
Si Si2 0.886278 0.280788 0.389282
Si Si3 0.982074 0.040911 0.570110
Si Si4 0.142260 0.576734 0.205072
Si Si5 0.575557 0.360780 0.847445
Si Si6 0.250045 0.600676 0.666626
O O1 0.597198 0.176267 0.204248
O O2 0.081953 0.190200 0.200513
O O3 0.203177 0.057894 0.796380
O O4 0.314917 0.832856 0.914830
O O5 0.009570 0.190037 0.530757
O O6 0.945802 0.522845 0.591777
O O7 0.030970 0.808729 0.321898
O O8 0.674801 0.118736 0.644939
O O9 0.367298 0.465191 0.032697
O O10 0.261983 0.583653 0.440372
O O11 0.869433 0.451453 0.036014
O O12 0.466115 0.451550 0.705997
#
# Coordination Sequence:
#
# PCOD9000638 Si02
#       6
#     1   1   1   1   1   1
#     4  11  28  49  73 108 151 195 246 307 371 442
#     4  12  26  46  75 110 146 194 249 305 369 442
#     4  11  27  48  76 109 149 196 248 306 372 442
#     4  11  28  49  73 108 151 195 246 307 371 442
#     4  12  26  46  75 110 146 194 249 305 369 442
#     4  11  27  48  76 109 149 196 248 306 372 442
#
# _framework density 25.875578000000001
#
# number of rings (size 3 to 8) (size 9 to 14) (size 15 to 20)
#    0.000    0.667    0.000    5.000    0.000   24.000 
#    0.000    0.000    0.000    0.000    0.000    0.000 
#    0.000    0.000    0.000    0.000    0.000    0.000 
#
# Total GULP energy -33627.813369 kJ/mol
# GULP energy per Si atom -5604.635561 kJ/mol
# Density = 2.581668 g / cm^3
# Si number density = 25.875578 Si / 1000 Ang^3
#
#
#
# Elastic Constant Matrix: (Units=GPa)
#
#
# Indices 1 2 3 4 5 6 
#
# 1 200.6828 43.4043 64.3000 26.9690 3.4289 -1.6661
# 2 43.4043 159.0806 43.7032 21.0017 0.2002 -1.9135
# 3 64.3000 43.7032 110.0933 12.8060 7.5014 -3.0987
# 4 26.9690 21.0017 12.8060 70.0176 0.8671 -6.0479
# 5 3.4289 0.2002 7.5014 0.8671 53.8371 -7.2984
# 6 -1.6661 -1.9135 -3.0987 -6.0479 -7.2984 18.8581
#
#
#
# Elastic Compliance Matrix: (Units=1/GPa)
#
#
# Indices 1 2 3 4 5 6 
#
# 1 0.006405 -0.000617 -0.003312 -0.001728 0.000003 -0.000594
# 2 -0.000617 0.007312 -0.002391 -0.001528 0.000362 -0.000055
# 3 -0.003312 -0.002391 0.012098 -0.000126 -0.001343 0.000893
# 4 -0.001728 -0.001528 -0.000126 0.015851 0.000552 0.004969
# 5 0.000003 0.000362 -0.001343 0.000552 0.019789 0.007652
# 6 -0.000594 -0.000055 0.000893 0.004969 0.007652 0.057671
#
#
# Mechanical properties :
#
#
# Convention : Reuss Voigt Hill
#
# Bulk Modulus (GPa) = 75.89858 85.85240 80.87549
# Shear Modulus (GPa) = 36.72264 49.77251 43.24757
#
# Velocity S-wave (km/s) = 3.77131 4.39057 4.09267
# Velocity P-wave (km/s) = 6.95410 7.67813 7.32507
#
# Compressibility (1/GPa) = 0.01317548
#
# Stress axis : x y z
#
# Youngs Moduli (GPa) = 156.13594 136.76579 82.65934
#
# Poissons Ratio (x) = 0.08435 0.27375
# Poissons Ratio (y) = 0.09629 0.19763
# Poissons Ratio (z) = 0.51709 0.32699
#
# Static dielectric constant tensor:
#      x y z
#    x 2.106510 -0.004350 0.005260 
#    y -0.004350 2.075220 0.034780 
#    z 0.005260 0.034780 2.063100 
# 
# From -- ./inp_files/3032.got.cif
#   From: 2010.05.17/outbox.cif.g08.bks.cpg/sg1_2_cif.got.tgz:3032.got - 2010.05.17 20:27:59.
