data_PCOD9000593
_publ_section_title
;
Structure prediction by ZEFSAII (Michael W. Deem and Ramdas Pophale) SiO2 
 PCOD9000593
Probable space group: P 1
;
_chemical_formula_sum "Si O2"
_cell_formula_units_Z 8
_cell_length_a 15.106329
_cell_length_b 12.244068
_cell_length_c 5.127608
_cell_angle_alpha 98.945384
_cell_angle_beta 80.795382
_cell_angle_gamma 27.537167
_cell_volume 328.360665
_symmetry_space_group_name_H-M "P 1"
_symmetry_group_IT_number 1
_symmetry_cell_setting 'triclinic'
loop_
_space_group_symop_operation_xyz
x,y,z
loop_
_atom_site_type_symbol
_atom_site_label
_atom_site_fract_x
_atom_site_fract_y
_atom_site_fract_z
Si Si1 0.949150 0.447960 0.512180
Si Si2 0.174489 0.884773 0.727262
Si Si3 0.059644 0.786708 0.481637
Si Si4 0.309955 0.921131 0.481679
Si Si5 0.817151 0.738212 0.179546
Si Si6 0.547972 0.475523 0.879995
Si Si7 0.749108 0.439928 0.479015
Si Si8 0.219301 0.473661 0.795056
O O1 0.928024 0.535422 0.284620
O O2 0.839323 0.451898 0.548199
O O3 0.820444 0.668872 0.879464
O O4 0.226739 0.100535 0.368519
O O5 0.157550 0.793096 0.526383
O O6 0.092191 0.116003 0.830959
O O7 0.403060 0.616508 0.735598
O O8 0.931909 0.143844 0.134869
O O9 0.144502 0.602646 0.592064
O O10 0.166295 0.627658 0.094380
O O11 0.756015 0.148258 0.737595
O O12 0.516409 0.728389 0.503324
O O13 0.367639 0.724258 0.294641
O O14 0.521531 0.102426 0.517526
O O15 0.018898 0.606377 0.005952
O O16 0.669376 0.456831 0.769644
#
# Coordination Sequence:
#
# PCOD9000593 Si02
#       8
#     1   1   1   1   1   1   1   1
#     4  12  27  49  82 109 153 210 251 320 403 449
#     4  11  24  45  67 115 159 197 241 300 379 483
#     4  12  27  49  82 109 153 210 251 320 403 449
#     4  11  25  41  73 112 162 192 245 299 378 487
#     4  12  31  57  80 112 150 203 278 341 381 446
#     4  11  25  41  73 112 162 192 245 299 378 487
#     4  11  24  45  67 115 159 197 241 300 379 483
#     4  12  31  57  80 112 150 203 278 341 381 446
#
# _framework density 24.363454999999998
#
# number of rings (size 3 to 8) (size 9 to 14) (size 15 to 20)
#    0.000    0.500    2.500    3.750   10.500    0.000 
#    0.000    0.000    0.000    0.000    0.000    0.000 
#    0.000    0.000    0.000    0.000    0.000    0.000 
#
# Total GULP energy -44704.506781 kJ/mol
# GULP energy per Si atom -5588.063348 kJ/mol
# Density = 2.430800 g / cm^3
# Si number density = 24.363455 Si / 1000 Ang^3
#
#
#
# Elastic Constant Matrix: (Units=GPa)
#
#
# Indices 1 2 3 4 5 6 
#
# 1 104.9352 8.0205 42.5320 0.9481 7.8244 -11.0499
# 2 8.0205 152.5592 3.2606 -2.8284 -20.7429 7.9150
# 3 42.5320 3.2606 93.8187 13.7340 16.5576 -0.6294
# 4 0.9481 -2.8284 13.7340 42.4686 -5.1233 5.9302
# 5 7.8244 -20.7429 16.5576 -5.1233 39.1318 -9.5766
# 6 -11.0499 7.9150 -0.6294 5.9302 -9.5766 29.6168
#
#
#
# Elastic Compliance Matrix: (Units=1/GPa)
#
#
# Indices 1 2 3 4 5 6 
#
# 1 0.012382 -0.000619 -0.005887 0.001039 0.000991 0.004772
# 2 -0.000619 0.007279 -0.000958 0.001482 0.004312 -0.001099
# 3 -0.005887 -0.000958 0.015413 -0.005390 -0.007263 -0.002882
# 4 0.001039 0.001482 -0.005390 0.026535 0.005432 -0.003679
# 5 0.000991 0.004312 -0.007263 0.005432 0.033589 0.008836
# 6 0.004772 -0.001099 -0.002882 -0.003679 0.008836 0.039372
#
#
# Mechanical properties :
#
#
# Convention : Reuss Voigt Hill
#
# Bulk Modulus (GPa) = 49.63666 50.99327 50.31497
# Shear Modulus (GPa) = 32.00786 42.07677 37.04232
#
# Velocity S-wave (km/s) = 3.62852 4.16028 3.90347
# Velocity P-wave (km/s) = 6.16219 6.63724 6.40412
#
# Compressibility (1/GPa) = 0.02014640
#
# Stress axis : x y z
#
# Youngs Moduli (GPa) = 80.76034 137.38800 64.88215
#
# Poissons Ratio (x) = 0.08501 0.38196
# Poissons Ratio (y) = 0.04997 0.06215
# Poissons Ratio (z) = 0.47543 0.13160
#
# Static dielectric constant tensor:
#      x y z
#    x 1.934470 0.009390 -0.036080 
#    y 0.009390 1.969230 0.052640 
#    z -0.036080 0.052640 2.071300 
# 
# From -- ./inp_files/386.got.cif
#   From: 2010.05.17/outbox.cif.g08.bks.cpg/sg1_1_cif.got.tgz:386.got - 2010.05.17 20:27:59.
