data_PCOD9000050
_publ_section_title
;
Structure prediction by ZEFSAII (Michael W. Deem and Ramdas Pophale) SiO2 
 PCOD9000050
Probable space group: P 1
;
_chemical_formula_sum "Si O2"
_cell_formula_units_Z 8
_cell_length_a 14.660892
_cell_length_b 5.373927
_cell_length_c 5.111264
_cell_angle_alpha 89.197277
_cell_angle_beta 120.727216
_cell_angle_gamma 66.689966
_cell_volume 305.755332
_symmetry_space_group_name_H-M "P 1"
_symmetry_group_IT_number 1
_symmetry_cell_setting 'triclinic'
loop_
_space_group_symop_operation_xyz
x,y,z
loop_
_atom_site_type_symbol
_atom_site_label
_atom_site_fract_x
_atom_site_fract_y
_atom_site_fract_z
Si Si1 0.313970 0.254520 0.182500
Si Si2 0.663764 0.399763 0.571283
Si Si3 0.276884 0.671146 0.744796
Si Si4 0.126990 0.794812 0.011330
Si Si5 0.898512 0.640990 0.192280
Si Si6 0.730174 0.830202 0.438764
Si Si7 0.439324 0.622764 0.586785
Si Si8 0.943265 0.090055 0.114659
O O1 0.175474 0.455066 0.069013
O O2 0.389218 0.408905 0.411373
O O3 0.375991 0.935256 0.362689
O O4 0.306806 0.349745 0.866955
O O5 0.656946 0.161152 0.385657
O O6 0.573216 0.489407 0.678292
O O7 0.798683 0.250422 0.888718
O O8 0.655132 0.664307 0.390996
O O9 0.191812 0.808966 0.373201
O O10 0.401030 0.660448 0.835548
O O11 0.196266 0.840531 0.870164
O O12 0.992474 0.004549 0.893376
O O13 0.974423 0.308172 0.302772
O O14 0.836459 0.714122 0.813900
O O15 0.977256 0.802927 0.324598
O O16 0.794950 0.753372 0.255985
#
# Coordination Sequence:
#
# PCOD9000050 Si02
#       8
#     1   1   1   1   1   1   1   1
#     4   9  23  41  68  98 131 179 228 282 329 398
#     4  10  22  40  68  98 138 172 221 273 335 410
#     4   9  22  45  67 100 131 181 226 286 330 399
#     4   9  21  43  69  98 134 177 224 282 338 399
#     4  10  22  39  63  87 134 170 215 261 318 398
#     4  10  21  42  58  91 130 174 213 260 322 391
#     4  11  21  46  68 102 133 184 224 282 341 399
#     4  10  22  42  65 104 131 177 217 274 337 406
#
# _framework density 26.164708999999998
#
# number of rings (size 3 to 8) (size 9 to 14) (size 15 to 20)
#    0.750    1.500    0.000    1.500    0.000    8.000 
#   13.500    0.000    0.000    0.000    0.000    0.000 
#    0.000    0.000    0.000    0.000    0.000    0.000 
#
# Total GULP energy -44660.498685 kJ/mol
# GULP energy per Si atom -5582.562336 kJ/mol
# Density = 2.610516 g / cm^3
# Si number density = 26.164709 Si / 1000 Ang^3
#
#
#
# Elastic Constant Matrix: (Units=GPa)
#
#
# Indices 1 2 3 4 5 6 
#
# 1 169.1583 88.0287 38.9643 -1.8079 -44.1731 -29.2798
# 2 88.0287 198.6160 33.4534 -11.7369 -24.6204 7.7162
# 3 38.9643 33.4534 78.9014 4.1167 -31.6329 -16.5245
# 4 -1.8079 -11.7369 4.1167 31.7765 -8.7151 -7.1126
# 5 -44.1731 -24.6204 -31.6329 -8.7151 47.3026 3.2906
# 6 -29.2798 7.7162 -16.5245 -7.1126 3.2906 67.5979
#
#
#
# Elastic Compliance Matrix: (Units=1/GPa)
#
#
# Indices 1 2 3 4 5 6 
#
# 1 0.011078 -0.003980 0.000754 0.002689 0.008906 0.005286
# 2 -0.003980 0.007280 -0.002141 0.001880 -0.000815 -0.002841
# 3 0.000754 -0.002141 0.019039 0.001199 0.012212 0.004757
# 4 0.002689 0.001880 0.001199 0.036089 0.010626 0.004523
# 5 0.008906 -0.000815 0.012212 0.010626 0.038728 0.006168
# 6 0.005286 -0.002841 0.004757 0.004523 0.006168 0.018746
#
#
# Mechanical properties :
#
#
# Convention : Reuss Voigt Hill
#
# Bulk Modulus (GPa) = 37.50463 85.28539 61.39501
# Shear Modulus (GPa) = 33.20485 48.41737 40.81111
#
# Velocity S-wave (km/s) = 3.56627 4.30639 3.95369
# Velocity P-wave (km/s) = 5.59668 7.57582 6.66017
#
# Compressibility (1/GPa) = 0.02666338
#
# Stress axis : x y z
#
# Youngs Moduli (GPa) = 90.26701 137.36883 52.52349
#
# Poissons Ratio (x) = 0.54666 -0.03959
# Poissons Ratio (y) = 0.35922 0.11246
# Poissons Ratio (z) = -0.06804 0.29411
#
# Static dielectric constant tensor:
#      x y z
#    x 2.160250 0.045320 0.036330 
#    y 0.045320 2.147010 -0.004550 
#    z 0.036330 -0.004550 2.189840 
# 
# From -- ./inp_files/2555.got.cif
#   From: 2010.05.17/outbox.cif.g08.bks.cpg/sg1_2_cif.got.tgz:2555.got - 2010.05.17 20:27:59.
