data_PCOD9000630
_publ_section_title
;
Structure prediction by ZEFSAII (Michael W. Deem and Ramdas Pophale) SiO2 
 PCOD9000630
Probable space group: P 1
;
_chemical_formula_sum "Si O2"
_cell_formula_units_Z 8
_cell_length_a 14.003692
_cell_length_b 11.171151
_cell_length_c 9.047728
_cell_angle_alpha 38.118413
_cell_angle_beta 150.634860
_cell_angle_gamma 150.861470
_cell_volume 336.025887
_symmetry_space_group_name_H-M "P 1"
_symmetry_group_IT_number 1
_symmetry_cell_setting 'triclinic'
loop_
_space_group_symop_operation_xyz
x,y,z
loop_
_atom_site_type_symbol
_atom_site_label
_atom_site_fract_x
_atom_site_fract_y
_atom_site_fract_z
Si Si1 0.081330 0.634440 0.873880
Si Si2 0.359194 0.653474 0.669412
Si Si3 0.702290 0.502623 0.009622
Si Si4 0.266343 0.437699 0.074514
Si Si5 0.877669 0.305691 0.189949
Si Si6 0.729010 0.785298 0.524437
Si Si7 0.922071 0.850214 0.216667
Si Si8 0.293307 0.982227 0.083786
O O1 0.986460 0.761151 0.531795
O O2 0.171878 0.532047 0.977976
O O3 0.888989 0.408676 0.944022
O O4 0.285406 0.845552 0.057810
O O5 0.161191 0.442360 0.491555
O O6 0.355903 0.879239 0.403633
O O7 0.258112 0.526768 0.815540
O O8 0.640977 0.755857 0.937659
O O9 0.778272 0.395247 0.090713
O O10 0.920165 0.706702 0.212501
O O11 0.493503 0.272026 0.049856
O O12 0.622564 0.643965 0.673943
O O13 0.553726 0.581215 0.364153
O O14 0.107864 0.143957 0.159247
O O15 0.732387 0.015891 0.278789
O O16 0.014638 0.892675 0.804952
#
# Coordination Sequence:
#
# PCOD9000630 Si02
#       8
#     1   1   1   1   1   1   1   1
#     4  11  26  49  73 110 153 192 252 302 368 446
#     4  11  26  49  73 110 153 192 252 302 368 446
#     4  12  26  47  80 106 153 194 249 305 371 439
#     4  12  29  48  76 109 155 199 245 306 377 438
#     4  11  26  49  78 110 149 197 252 306 368 443
#     4  12  26  47  80 106 153 194 249 305 371 439
#     4  12  29  48  76 109 155 199 245 306 377 438
#     4  11  26  49  78 110 149 197 252 306 368 443
#
# _framework density 23.807690000000001
#
# number of rings (size 3 to 8) (size 9 to 14) (size 15 to 20)
#    0.000    0.500    2.500    4.500   14.000    0.000 
#    0.000    1.250    0.000    0.000    0.000    0.000 
#    0.000    0.000    0.000    0.000    0.000    0.000 
#
# Total GULP energy -44804.156255 kJ/mol
# GULP energy per Si atom -5600.519532 kJ/mol
# Density = 2.375350 g / cm^3
# Si number density = 23.807690 Si / 1000 Ang^3
#
#
#
# Elastic Constant Matrix: (Units=GPa)
#
#
# Indices 1 2 3 4 5 6 
#
# 1 121.7683 58.2501 63.9555 -23.0064 -7.5697 12.0037
# 2 58.2501 222.3648 76.3866 -34.7430 -14.0510 15.0981
# 3 63.9555 76.3866 160.0480 -30.3872 -25.2765 20.2358
# 4 -23.0064 -34.7430 -30.3872 40.2398 9.2839 -8.6484
# 5 -7.5697 -14.0510 -25.2765 9.2839 50.4670 -3.1999
# 6 12.0037 15.0981 20.2358 -8.6484 -3.1999 29.7075
#
#
#
# Elastic Compliance Matrix: (Units=1/GPa)
#
#
# Indices 1 2 3 4 5 6 
#
# 1 0.011150 -0.001351 -0.003332 0.002722 -0.000928 -0.000856
# 2 -0.001351 0.005919 -0.001654 0.002980 0.000039 -0.000464
# 3 -0.003332 -0.001654 0.009804 0.002590 0.003259 -0.003386
# 4 0.002722 0.002980 0.002590 0.032700 -0.003176 0.004799
# 5 -0.000928 0.000039 0.003259 -0.003176 0.021876 -0.000433
# 6 -0.000856 -0.000464 -0.003386 0.004799 -0.000433 0.037900
#
#
# Mechanical properties :
#
#
# Convention : Reuss Voigt Hill
#
# Bulk Modulus (GPa) = 70.43773 100.15174 85.29473
# Shear Modulus (GPa) = 36.56150 44.45545 40.50848
#
# Velocity S-wave (km/s) = 3.92305 4.32588 4.12938
# Velocity P-wave (km/s) = 7.08314 8.19203 7.65768
#
# Compressibility (1/GPa) = 0.01419694
#
# Stress axis : x y z
#
# Youngs Moduli (GPa) = 89.68775 168.94858 102.00196
#
# Poissons Ratio (x) = 0.22832 0.33987
# Poissons Ratio (y) = 0.12120 0.16875
# Poissons Ratio (z) = 0.29884 0.27951
#
# Static dielectric constant tensor:
#      x y z
#    x 1.958050 0.008070 0.033370 
#    y 0.008070 1.872600 -0.003940 
#    z 0.033370 -0.003940 1.925750 
# 
# From -- ./inp_files/5768.got.cif
#   From: 2010.05.17/outbox.cif.g08.bks.cpg/sg1_3_cif.got.tgz:5768.got - 2010.05.17 20:27:59.
