data_PCOD9000302
_publ_section_title
;
Structure prediction by ZEFSAII (Michael W. Deem and Ramdas Pophale) SiO2 
 PCOD9000302
Probable space group: P 1
;
_chemical_formula_sum "Si O2"
_cell_formula_units_Z 8
_cell_length_a 13.996999
_cell_length_b 5.396431
_cell_length_c 12.127681
_cell_angle_alpha 49.921484
_cell_angle_beta 30.936716
_cell_angle_gamma 42.232913
_cell_volume 316.434318
_symmetry_space_group_name_H-M "P 1"
_symmetry_group_IT_number 1
_symmetry_cell_setting 'triclinic'
loop_
_space_group_symop_operation_xyz
x,y,z
loop_
_atom_site_type_symbol
_atom_site_label
_atom_site_fract_x
_atom_site_fract_y
_atom_site_fract_z
Si Si1 0.102430 0.505470 0.025170
Si Si2 0.827329 0.545343 0.908374
Si Si3 0.791878 0.898446 0.606315
Si Si4 0.732765 0.867220 0.147880
Si Si5 0.282477 0.986319 0.601768
Si Si6 0.822065 0.526589 0.477148
Si Si7 0.271511 0.299688 0.304196
Si Si8 0.274964 0.947065 0.195628
O O1 0.254782 0.130313 0.044596
O O2 0.944373 0.509834 0.086387
O O3 0.929872 0.701734 0.239840
O O4 0.235227 0.688243 0.792824
O O5 0.776892 0.737049 0.784302
O O6 0.081699 0.371511 0.725039
O O7 0.723797 0.789276 0.049116
O O8 0.778239 0.202858 0.040128
O O9 0.701489 0.782149 0.624379
O O10 0.044715 0.656245 0.398593
O O11 0.711942 0.331310 0.574369
O O12 0.518177 0.922064 0.402269
O O13 0.252126 0.019125 0.488773
O O14 0.028942 0.148986 0.423416
O O15 0.370320 0.095419 0.152290
O O16 0.373510 0.514078 0.208771
#
# Coordination Sequence:
#
# PCOD9000302 Si02
#       8
#     1   1   1   1   1   1   1   1
#     4   9  21  39  65  93 130 174 211 265 327 388
#     4  10  23  40  65  95 128 172 213 269 328 378
#     4   9  15  32  57  85 113 159 205 248 317 366
#     4  11  24  41  63 100 131 168 221 267 320 399
#     4  10  23  41  69  96 132 174 216 268 329 390
#     4   8  16  28  56  84 114 159 204 251 303 376
#     4   9  17  33  58  89 114 162 208 256 313 367
#     4   8  17  32  57  84 120 160 208 254 313 370
#
# _framework density 25.28171
#
# number of rings (size 3 to 8) (size 9 to 14) (size 15 to 20)
#    0.750    2.000    0.000    0.750    0.000   13.000 
#    0.000    0.000    8.250    0.000    0.000    0.000 
#    0.000    0.000    0.000    0.000    0.000    0.000 
#
# Total GULP energy -44602.687092 kJ/mol
# GULP energy per Si atom -5575.335886 kJ/mol
# Density = 2.522417 g / cm^3
# Si number density = 25.281710 Si / 1000 Ang^3
#
#
#
# Elastic Constant Matrix: (Units=GPa)
#
#
# Indices 1 2 3 4 5 6 
#
# 1 126.5652 71.9718 60.9005 -3.5637 21.8768 29.2087
# 2 71.9718 105.6355 79.6828 -6.9083 13.4646 38.5016
# 3 60.9005 79.6828 168.3370 -7.1294 1.2674 -0.4126
# 4 -3.5637 -6.9083 -7.1294 47.0913 -16.2038 3.5270
# 5 21.8768 13.4646 1.2674 -16.2038 33.2591 -5.0626
# 6 29.2087 38.5016 -0.4126 3.5270 -5.0626 42.3225
#
#
#
# Elastic Compliance Matrix: (Units=1/GPa)
#
#
# Indices 1 2 3 4 5 6 
#
# 1 0.015886 -0.001770 -0.004984 -0.003431 -0.012836 -0.010652
# 2 -0.001770 0.043506 -0.019947 -0.001494 -0.022679 -0.041140
# 3 -0.004984 -0.019947 0.017250 0.002958 0.015697 0.023385
# 4 -0.003431 -0.001494 0.002958 0.026517 0.016198 0.003484
# 5 -0.012836 -0.022679 0.015697 0.016198 0.060391 0.035517
# 6 -0.010652 -0.041140 0.023385 0.003484 0.035517 0.072592
#
#
# Mechanical properties :
#
#
# Convention : Reuss Voigt Hill
#
# Bulk Modulus (GPa) = 43.02840 91.73865 67.38352
# Shear Modulus (GPa) = 16.81855 37.06674 26.94265
#
# Velocity S-wave (km/s) = 2.58203 3.83319 3.26804
# Velocity P-wave (km/s) = 5.09369 7.48040 6.39930
#
# Compressibility (1/GPa) = 0.02324047
#
# Stress axis : x y z
#
# Youngs Moduli (GPa) = 62.94812 22.98532 57.97095
#
# Poissons Ratio (x) = 0.04068 0.28895
# Poissons Ratio (y) = 0.11139 1.15634
# Poissons Ratio (z) = 0.31376 0.45849
#
# Static dielectric constant tensor:
#      x y z
#    x 2.163430 -0.007660 -0.074840 
#    y -0.007660 1.995350 -0.020740 
#    z -0.074840 -0.020740 2.003820 
# 
# From -- ./inp_files/6779.got.cif
#   From: 2010.05.17/outbox.cif.g08.bks.cpg/sg1_4_cif.got.tgz:6779.got - 2010.05.17 20:27:59.
