data_PCOD9000396
_publ_section_title
;
Structure prediction by ZEFSAII (Michael W. Deem and Ramdas Pophale) SiO2 
 PCOD9000396
Probable space group: P 1
;
_chemical_formula_sum "Si O2"
_cell_formula_units_Z 8
_cell_length_a 6.670005
_cell_length_b 5.363115
_cell_length_c 10.214866
_cell_angle_alpha 114.869970
_cell_angle_beta 78.633349
_cell_angle_gamma 81.212403
_cell_volume 313.402890
_symmetry_space_group_name_H-M "P 1"
_symmetry_group_IT_number 1
_symmetry_cell_setting 'triclinic'
loop_
_space_group_symop_operation_xyz
x,y,z
loop_
_atom_site_type_symbol
_atom_site_label
_atom_site_fract_x
_atom_site_fract_y
_atom_site_fract_z
Si Si1 0.286280 0.623550 0.524350
Si Si2 0.705377 0.608925 0.333627
Si Si3 0.932386 0.606864 0.767493
Si Si4 0.610980 0.087723 0.845933
Si Si5 0.275128 0.189572 0.722465
Si Si6 0.166097 0.275175 0.227239
Si Si7 0.728474 0.160400 0.581294
Si Si8 0.421419 0.639882 0.120348
O O1 0.542865 0.551011 0.453880
O O2 0.207278 0.421319 0.390369
O O3 0.139886 0.646578 0.675786
O O4 0.235791 0.961583 0.572654
O O5 0.568566 0.660535 0.230058
O O6 0.915866 0.350380 0.248943
O O7 0.775506 0.899580 0.417906
O O8 0.834987 0.414526 0.638850
O O9 0.055922 0.415890 0.828556
O O10 0.745451 0.880996 0.890540
O O11 0.391879 0.043746 0.807621
O O12 0.768299 0.006914 0.684621
O O13 0.566106 0.421062 0.951673
O O14 0.473330 0.280901 0.652071
O O15 0.268451 0.448582 0.148074
O O16 0.290999 0.942898 0.148220
#
# Coordination Sequence:
#
# PCOD9000396 Si02
#       8
#     1   1   1   1   1   1   1   1
#     4  10  24  41  69 108 134 174 236 290 347 423
#     4  10  23  50  69 103 140 184 232 294 355 412
#     4  12  22  39  73 101 137 178 221 295 354 404
#     4  10  25  45  65  99 142 176 232 283 342 418
#     4   9  23  40  61 102 135 171 223 282 349 406
#     4  11  26  45  75  99 143 188 239 285 355 412
#     4   9  23  43  68 105 134 171 235 289 345 416
#     4  11  28  49  68 105 143 190 238 288 341 433
#
# _framework density 25.526250999999998
#
# number of rings (size 3 to 8) (size 9 to 14) (size 15 to 20)
#    0.750    1.000    0.000    2.250   10.500    3.000 
#    4.500    0.000    0.000    0.000    0.000    0.000 
#    0.000    0.000    0.000    0.000    0.000    0.000 
#
# Total GULP energy -44607.893119 kJ/mol
# GULP energy per Si atom -5575.986640 kJ/mol
# Density = 2.546815 g / cm^3
# Si number density = 25.526251 Si / 1000 Ang^3
#
#
#
# Elastic Constant Matrix: (Units=GPa)
#
#
# Indices 1 2 3 4 5 6 
#
# 1 133.7345 70.4741 22.7536 30.7934 -24.9750 -21.4389
# 2 70.4741 109.9196 27.3760 41.7613 -19.5877 -15.9692
# 3 22.7536 27.3760 70.3379 25.5863 3.9853 -14.3043
# 4 30.7934 41.7613 25.5863 35.9765 -6.2142 -20.6072
# 5 -24.9750 -19.5877 3.9853 -6.2142 26.5211 20.5614
# 6 -21.4389 -15.9692 -14.3043 -20.6072 20.5614 59.4097
#
#
#
# Elastic Compliance Matrix: (Units=1/GPa)
#
#
# Indices 1 2 3 4 5 6 
#
# 1 0.012555 -0.005319 -0.001797 -0.002473 0.008448 -0.001113
# 2 -0.005319 0.023165 -0.001011 -0.024507 0.013598 -0.009143
# 3 -0.001797 -0.001011 0.020983 -0.011921 -0.011457 0.003962
# 4 -0.002473 -0.024507 -0.011921 0.076589 -0.018128 0.022490
# 5 0.008448 0.013598 -0.011457 -0.018128 0.075163 -0.028356
# 6 -0.001113 -0.009143 0.003962 0.022490 -0.028356 0.032542
#
#
# Mechanical properties :
#
#
# Convention : Reuss Voigt Hill
#
# Bulk Modulus (GPa) = 24.72158 61.68882 43.20520
# Shear Modulus (GPa) = 18.46844 37.27402 27.87123
#
# Velocity S-wave (km/s) = 2.69273 3.82543 3.30792
# Velocity P-wave (km/s) = 4.40153 6.61296 5.61715
#
# Compressibility (1/GPa) = 0.04045050
#
# Stress axis : x y z
#
# Youngs Moduli (GPa) = 79.65245 43.16851 47.65741
#
# Poissons Ratio (x) = 0.22960 0.08564
# Poissons Ratio (y) = 0.42364 0.04816
# Poissons Ratio (z) = 0.14313 0.04363
#
# Static dielectric constant tensor:
#      x y z
#    x 2.039540 -0.070020 0.021980 
#    y -0.070020 2.305630 -0.110330 
#    z 0.021980 -0.110330 2.115760 
# 
# From -- ./inp_files/6915.got.cif
#   From: 2010.05.17/outbox.cif.g08.bks.cpg/sg1_4_cif.got.tgz:6915.got - 2010.05.17 20:27:59.
