data_PCOD9000917
_publ_section_title
;
Structure prediction by ZEFSAII (Michael W. Deem and Ramdas Pophale) SiO2 
 PCOD9000917
Probable space group: P 1
;
_chemical_formula_sum "Si O2"
_cell_formula_units_Z 8
_cell_length_a 13.829600
_cell_length_b 4.965677
_cell_length_c 6.942783
_cell_angle_alpha 71.826569
_cell_angle_beta 105.838543
_cell_angle_gamma 73.665720
_cell_volume 399.263561
_symmetry_space_group_name_H-M "P 1"
_symmetry_group_IT_number 1
_symmetry_cell_setting 'triclinic'
loop_
_space_group_symop_operation_xyz
x,y,z
loop_
_atom_site_type_symbol
_atom_site_label
_atom_site_fract_x
_atom_site_fract_y
_atom_site_fract_z
Si Si1 0.962810 0.210660 0.153830
Si Si2 0.109005 0.113575 0.902341
Si Si3 0.079275 0.506542 0.414429
Si Si4 0.482626 0.082560 0.399264
Si Si5 0.672511 0.722117 0.337391
Si Si6 0.732037 0.229705 0.146000
Si Si7 0.592904 0.412553 0.662970
Si Si8 0.229468 0.403247 0.169774
O O1 0.989526 0.459204 0.236789
O O2 0.840877 0.241792 0.114308
O O3 0.041443 0.869676 0.350517
O O4 0.000100 0.215737 0.952807
O O5 0.091377 0.310085 0.656145
O O6 0.196940 0.173624 0.072633
O O7 0.157341 0.747214 0.976618
O O8 0.188196 0.393716 0.367159
O O9 0.548635 0.215958 0.546596
O O10 0.358319 0.312318 0.254953
O O11 0.495177 0.750366 0.564287
O O12 0.550942 0.984308 0.258702
O O13 0.683465 0.514514 0.203479
O O14 0.751161 0.904696 0.331445
O O15 0.682752 0.497321 0.574083
O O16 0.647310 0.256987 0.923485
#
# Coordination Sequence:
#
# PCOD9000917 Si02
#       8
#     1   1   1   1   1   1   1   1
#     4  10  23  37  61  87 119 150 195 245 291 343
#     4  10  21  40  61  89 115 150 194 246 289 361
#     4  10  21  42  59  89 117 147 196 246 292 355
#     4  10  20  43  59  85 129 156 185 260 283 338
#     4  10  22  40  56  85 125 155 199 244 280 346
#     4  12  22  39  63  86 119 166 194 240 297 347
#     4  10  22  40  57  86 124 155 202 241 282 348
#     4  10  21  39  62  87 120 149 195 238 298 344
#
# _framework density 20.036888999999999
#
# number of rings (size 3 to 8) (size 9 to 14) (size 15 to 20)
#    0.750    1.000    1.250    3.000    0.000    2.000 
#    6.750    0.000    0.000    0.000    0.000    0.000 
#    0.000    0.000    0.000    0.000    0.000    0.000 
#
# Total GULP energy -44622.589556 kJ/mol
# GULP energy per Si atom -5577.823695 kJ/mol
# Density = 1.999128 g / cm^3
# Si number density = 20.036889 Si / 1000 Ang^3
#
#
#
# Elastic Constant Matrix: (Units=GPa)
#
#
# Indices 1 2 3 4 5 6 
#
# 1 77.2374 18.7837 22.7873 12.7540 -11.5723 -6.5588
# 2 18.7837 87.5199 9.9712 14.2764 -2.8276 12.8178
# 3 22.7873 9.9712 57.4288 -0.8044 -26.5060 -13.2413
# 4 12.7540 14.2764 -0.8044 14.6809 9.0406 -1.3777
# 5 -11.5723 -2.8276 -26.5060 9.0406 28.5964 0.6321
# 6 -6.5588 12.8178 -13.2413 -1.3777 0.6321 27.2001
#
#
#
# Elastic Compliance Matrix: (Units=1/GPa)
#
#
# Indices 1 2 3 4 5 6 
#
# 1 0.020358 0.000383 0.000137 -0.028447 0.017332 0.002951
# 2 0.000383 0.017008 -0.003004 -0.021850 0.006195 -0.010635
# 3 0.000137 -0.003004 0.044049 -0.021799 0.047022 0.020695
# 4 -0.028447 -0.021850 -0.021799 0.166515 -0.086593 0.003272
# 5 0.017332 0.006195 0.047022 -0.086593 0.113178 0.017134
# 6 0.002951 -0.010635 0.020695 0.003272 0.017134 0.052330
#
#
# Mechanical properties :
#
#
# Convention : Reuss Voigt Hill
#
# Bulk Modulus (GPa) = 13.08083 36.14116 24.61099
# Shear Modulus (GPa) = 11.26408 25.47173 18.36791
#
# Velocity S-wave (km/s) = 2.37358 3.56932 3.03100
# Velocity P-wave (km/s) = 3.74892 5.92141 4.95568
#
# Compressibility (1/GPa) = 0.07644775
#
# Stress axis : x y z
#
# Youngs Moduli (GPa) = 49.11987 58.79596 22.70190
#
# Poissons Ratio (x) = -0.02252 -0.00311
# Poissons Ratio (y) = -0.01882 0.06819
# Poissons Ratio (z) = -0.00672 0.17661
#
# Static dielectric constant tensor:
#      x y z
#    x 1.710840 -0.001240 -0.026710 
#    y -0.001240 1.700640 -0.010860 
#    z -0.026710 -0.010860 1.686970 
# 
# From -- ./inp_files/2605.got.cif
#   From: 2010.05.17/outbox.cif.g08.bks.cpg/sg1_2_cif.got.tgz:2605.got - 2010.05.17 20:27:59.
