data_PCOD9000316
_publ_section_title
;
Structure prediction by ZEFSAII (Michael W. Deem and Ramdas Pophale) SiO2 
 PCOD9000316
Probable space group: P 1
;
_chemical_formula_sum "Si O2"
_cell_formula_units_Z 8
_cell_length_a 6.992917
_cell_length_b 5.377408
_cell_length_c 9.330991
_cell_angle_alpha 70.823966
_cell_angle_beta 80.806655
_cell_angle_gamma 75.782757
_cell_volume 320.059804
_symmetry_space_group_name_H-M "P 1"
_symmetry_group_IT_number 1
_symmetry_cell_setting 'triclinic'
loop_
_space_group_symop_operation_xyz
x,y,z
loop_
_atom_site_type_symbol
_atom_site_label
_atom_site_fract_x
_atom_site_fract_y
_atom_site_fract_z
Si Si1 0.287130 0.928110 0.314830
Si Si2 0.948476 0.716488 0.274679
Si Si3 0.441653 0.157715 0.979448
Si Si4 0.073616 0.257444 0.536972
Si Si5 0.758901 0.029481 0.758350
Si Si6 0.499511 0.670792 0.903365
Si Si7 0.731911 0.336332 0.202382
Si Si8 0.484859 0.409873 0.504950
O O1 0.439446 0.732099 0.435489
O O2 0.176407 0.743281 0.262688
O O3 0.388186 0.091433 0.158526
O O4 0.132191 0.104407 0.407525
O O5 0.880930 0.533041 0.194241
O O6 0.930199 0.540950 0.454289
O O7 0.836967 0.027065 0.219971
O O8 0.375970 0.469360 0.889779
O O9 0.367140 0.947221 0.924395
O O10 0.675641 0.081256 0.920155
O O11 0.275009 0.322615 0.559576
O O12 0.974164 0.068157 0.685885
O O13 0.622210 0.263272 0.639096
O O14 0.679387 0.759551 0.779534
O O15 0.604434 0.498528 0.058815
O O16 0.591069 0.322453 0.357786
#
# Coordination Sequence:
#
# PCOD9000316 Si02
#       8
#     1   1   1   1   1   1   1   1
#     4  11  23  44  71 107 136 175 240 287 335 406
#     4  11  24  40  69 104 140 171 231 290 340 394
#     4  10  23  43  70  91 139 180 223 282 340 398
#     4  11  24  44  71 107 140 176 232 291 335 410
#     4  10  24  46  64 101 143 186 221 282 347 411
#     4  10  23  42  68  96 131 183 228 274 336 410
#     4  12  22  43  71 102 133 187 229 281 345 405
#     4  11  23  40  74 102 136 184 230 279 348 404
#
# _framework density 24.995329000000002
#
# number of rings (size 3 to 8) (size 9 to 14) (size 15 to 20)
#    0.750    0.500    3.750    1.500    3.500    4.000 
#    2.250    1.250    0.000    0.000    0.000    0.000 
#    0.000    0.000    0.000    0.000    0.000    0.000 
#
# Total GULP energy -44640.547234 kJ/mol
# GULP energy per Si atom -5580.068404 kJ/mol
# Density = 2.493844 g / cm^3
# Si number density = 24.995329 Si / 1000 Ang^3
#
#
#
# Elastic Constant Matrix: (Units=GPa)
#
#
# Indices 1 2 3 4 5 6 
#
# 1 73.9042 21.3098 35.5320 -13.9087 -9.7306 12.5389
# 2 21.3098 152.0134 31.3266 -30.4903 -9.3933 18.7440
# 3 35.5320 31.3266 133.8600 -13.2990 -40.7829 1.9356
# 4 -13.9087 -30.4903 -13.2990 41.7341 4.4040 -8.6278
# 5 -9.7306 -9.3933 -40.7829 4.4040 49.8219 -13.9925
# 6 12.5389 18.7440 1.9356 -8.6278 -13.9925 35.4549
#
#
#
# Elastic Compliance Matrix: (Units=1/GPa)
#
#
# Indices 1 2 3 4 5 6 
#
# 1 0.017213 -0.000204 -0.004952 0.003047 -0.002693 -0.006031
# 2 -0.000204 0.008298 -0.001769 0.004835 -0.001355 -0.003577
# 3 -0.004952 -0.001769 0.012464 0.001253 0.010617 0.006501
# 4 0.003047 0.004835 0.001253 0.029608 0.001011 0.003902
# 5 -0.002693 -0.001355 0.010617 0.001011 0.031790 0.013881
# 6 -0.006031 -0.003577 0.006501 0.003902 0.013881 0.038301
#
#
# Mechanical properties :
#
#
# Convention : Reuss Voigt Hill
#
# Bulk Modulus (GPa) = 41.44913 59.56826 50.50870
# Shear Modulus (GPa) = 31.33500 43.50945 37.42223
#
# Velocity S-wave (km/s) = 3.54451 4.17670 3.87352
# Velocity P-wave (km/s) = 5.77669 6.86609 6.34482
#
# Compressibility (1/GPa) = 0.02412596
#
# Stress axis : x y z
#
# Youngs Moduli (GPa) = 58.09685 120.50399 80.23110
#
# Poissons Ratio (x) = 0.02460 0.39729
# Poissons Ratio (y) = 0.01186 0.14190
# Poissons Ratio (z) = 0.28768 0.21312
#
# Static dielectric constant tensor:
#      x y z
#    x 2.069590 0.065850 -0.018550 
#    y 0.065850 2.141770 0.015770 
#    z -0.018550 0.015770 1.957700 
# 
# From -- ./inp_files/6179.got.cif
#   From: 2010.05.17/outbox.cif.g08.bks.cpg/sg1_4_cif.got.tgz:6179.got - 2010.05.17 20:27:59.
