data_PCOD9000775
_publ_section_title
;
Structure prediction by ZEFSAII (Michael W. Deem and Ramdas Pophale) SiO2 
 PCOD9000775
Probable space group: P 1
;
_chemical_formula_sum "Si O2"
_cell_formula_units_Z 8
_cell_length_a 5.363314
_cell_length_b 11.650316
_cell_length_c 9.290950
_cell_angle_alpha 143.136100
_cell_angle_beta 88.326257
_cell_angle_gamma 79.763257
_cell_volume 327.969648
_symmetry_space_group_name_H-M "P 1"
_symmetry_group_IT_number 1
_symmetry_cell_setting 'triclinic'
loop_
_space_group_symop_operation_xyz
x,y,z
loop_
_atom_site_type_symbol
_atom_site_label
_atom_site_fract_x
_atom_site_fract_y
_atom_site_fract_z
Si Si1 0.061570 0.237250 0.950580
Si Si2 0.402094 0.808071 0.039833
Si Si3 0.400506 0.636207 0.424701
Si Si4 0.137168 0.156740 0.198786
Si Si5 0.526724 0.388806 0.474482
Si Si6 0.557473 0.260559 0.842303
Si Si7 0.861864 0.726619 0.423611
Si Si8 0.838864 0.933866 0.323612
O O1 0.317647 0.174093 0.781292
O O2 0.813952 0.167747 0.847516
O O3 0.148822 0.192626 0.066246
O O4 0.946429 0.480684 0.177051
O O5 0.651160 0.863999 0.149360
O O6 0.141243 0.883058 0.219692
O O7 0.289432 0.929386 0.017180
O O8 0.488107 0.571045 0.768778
O O9 0.482349 0.490616 0.416076
O O10 0.576129 0.779837 0.553586
O O11 0.090737 0.760956 0.550237
O O12 0.447445 0.493402 0.134096
O O13 0.300372 0.288978 0.400409
O O14 0.826404 0.233984 0.320838
O O15 0.691685 0.173927 0.601788
O O16 0.846088 0.810133 0.347372
#
# Coordination Sequence:
#
# PCOD9000775 Si02
#       8
#     1   1   1   1   1   1   1   1
#     4  10  19  41  65 106 121 168 228 282 371 391
#     4  12  30  48  66 106 142 198 244 268 346 432
#     4  10  19  41  65 106 121 168 228 282 371 391
#     4  12  23  48  74 103 144 179 237 301 350 418
#     4  12  23  48  74 103 144 179 237 301 350 418
#     4  10  20  38  68  90 141 163 220 289 334 419
#     4  10  20  38  68  90 141 163 220 289 334 419
#     4  12  26  48  60 104 146 186 238 274 340 434
#
# _framework density 24.392499999999998
#
# number of rings (size 3 to 8) (size 9 to 14) (size 15 to 20)
#    0.000    1.000    5.000    3.000    0.000    2.000 
#   27.000    0.000    0.000    0.000    0.000    0.000 
#    0.000    0.000    0.000    0.000    0.000    0.000 
#
# Total GULP energy -44730.942851 kJ/mol
# GULP energy per Si atom -5591.367856 kJ/mol
# Density = 2.433698 g / cm^3
# Si number density = 24.392500 Si / 1000 Ang^3
#
#
#
# Elastic Constant Matrix: (Units=GPa)
#
#
# Indices 1 2 3 4 5 6 
#
# 1 161.2337 -7.1261 -0.3977 -3.4832 11.1636 -8.7919
# 2 -7.1261 86.3110 -16.7691 10.2605 -0.9641 -11.8463
# 3 -0.3977 -16.7691 90.4069 7.3909 -3.3200 -8.0916
# 4 -3.4832 10.2605 7.3909 27.2515 -3.2858 -8.2571
# 5 11.1636 -0.9641 -3.3200 -3.2858 31.2058 -11.0803
# 6 -8.7919 -11.8463 -8.0916 -8.2571 -11.0803 35.2065
#
#
#
# Elastic Compliance Matrix: (Units=1/GPa)
#
#
# Indices 1 2 3 4 5 6 
#
# 1 0.006447 0.000662 0.000164 0.000800 -0.001636 0.001543
# 2 0.000662 0.013513 0.003377 -0.004134 0.001924 0.005124
# 3 0.000164 0.003377 0.012397 -0.003073 0.002494 0.004090
# 4 0.000800 -0.004134 -0.003073 0.043335 0.007607 0.010660
# 5 -0.001636 0.001924 0.002494 0.007607 0.039041 0.014883
# 6 0.001543 0.005124 0.004090 0.010660 0.014883 0.038638
#
#
# Mechanical properties :
#
#
# Convention : Reuss Voigt Hill
#
# Bulk Modulus (GPa) = 24.53236 32.15175 28.34206
# Shear Modulus (GPa) = 31.53552 42.88239 37.20895
#
# Velocity S-wave (km/s) = 3.59950 4.19742 3.90991
# Velocity P-wave (km/s) = 5.23014 6.05811 5.65929
#
# Compressibility (1/GPa) = 0.04076248
#
# Stress axis : x y z
#
# Youngs Moduli (GPa) = 155.12088 74.00270 80.66471
#
# Poissons Ratio (x) = -0.04902 -0.01322
# Poissons Ratio (y) = -0.10276 -0.27238
# Poissons Ratio (z) = -0.02542 -0.24988
#
# Static dielectric constant tensor:
#      x y z
#    x 2.020540 0.021280 0.003110 
#    y 0.021280 1.941910 0.025520 
#    z 0.003110 0.025520 2.011530 
# 
# From -- ./inp_files/2208.got.cif
#   From: 2010.05.17/outbox.cif.g08.bks.cpg/sg1_2_cif.got.tgz:2208.got - 2010.05.17 20:27:59.
