data_PCOD9000914
_publ_section_title
;
Structure prediction by ZEFSAII (Michael W. Deem and Ramdas Pophale) SiO2 
 PCOD9000914
Probable space group: P 1
;
_chemical_formula_sum "Si O2"
_cell_formula_units_Z 8
_cell_length_a 5.414023
_cell_length_b 9.320090
_cell_length_c 11.589704
_cell_angle_alpha 35.931061
_cell_angle_beta 102.453554
_cell_angle_gamma 96.069636
_cell_volume 332.667197
_symmetry_space_group_name_H-M "P 1"
_symmetry_group_IT_number 1
_symmetry_cell_setting 'triclinic'
loop_
_space_group_symop_operation_xyz
x,y,z
loop_
_atom_site_type_symbol
_atom_site_label
_atom_site_fract_x
_atom_site_fract_y
_atom_site_fract_z
Si Si1 0.934530 0.545350 0.604940
Si Si2 0.888605 0.335282 0.213722
Si Si3 0.118066 0.346864 0.997302
Si Si4 0.129274 0.117543 0.740146
Si Si5 0.355335 0.810347 0.331288
Si Si6 0.426582 0.742691 0.884764
Si Si7 0.678622 0.106810 0.538796
Si Si8 0.304385 0.495856 0.328894
O O1 0.992699 0.273049 0.728456
O O2 0.646080 0.678311 0.466840
O O3 0.981029 0.477652 0.787722
O O4 0.151993 0.699391 0.470204
O O5 0.771053 0.118170 0.411208
O O6 0.117741 0.418908 0.260189
O O7 0.687932 0.574671 0.036112
O O8 0.942608 0.258942 0.137957
O O9 0.242889 0.558303 0.938743
O O10 0.314966 0.106478 0.144981
O O11 0.911673 0.026887 0.697390
O O12 0.254586 0.319475 0.546819
O O13 0.341079 0.880889 0.905766
O O14 0.281791 0.750221 0.229882
O O15 0.463889 0.938926 0.659480
O O16 0.582150 0.388601 0.381286
#
# Coordination Sequence:
#
# PCOD9000914 Si02
#       8
#     1   1   1   1   1   1   1   1
#     4  11  27  52  80 109 153 202 255 316 378 452
#     4  11  25  44  69 109 149 189 249 305 380 447
#     4  12  30  48  70 112 156 206 246 300 390 466
#     4   9  20  45  74 107 137 186 251 317 368 431
#     4  11  27  52  80 109 153 202 255 316 378 452
#     4  11  25  44  69 109 149 189 249 305 380 447
#     4  10  20  42  76 100 144 180 244 318 366 432
#     4   9  20  45  74 107 137 186 251 317 368 431
#
# _framework density 24.048057
#
# number of rings (size 3 to 8) (size 9 to 14) (size 15 to 20)
#    0.000    1.500    1.250    1.500    3.500    8.000 
#    2.250    0.000    0.000    0.000    0.000    0.000 
#    0.000    0.000    0.000    0.000    0.000    0.000 
#
# Total GULP energy -44667.637836 kJ/mol
# GULP energy per Si atom -5583.454729 kJ/mol
# Density = 2.399332 g / cm^3
# Si number density = 24.048057 Si / 1000 Ang^3
#
#
#
# Elastic Constant Matrix: (Units=GPa)
#
#
# Indices 1 2 3 4 5 6 
#
# 1 93.3489 32.4973 30.4796 3.9693 5.7891 -16.5183
# 2 32.4973 109.0400 62.4503 -2.1980 -1.0478 -24.3921
# 3 30.4796 62.4503 82.8591 1.5717 3.7624 -7.8758
# 4 3.9693 -2.1980 1.5717 51.6019 -13.1732 -5.6824
# 5 5.7891 -1.0478 3.7624 -13.1732 61.4875 -4.3253
# 6 -16.5183 -24.3921 -7.8758 -5.6824 -4.3253 23.4333
#
#
#
# Elastic Compliance Matrix: (Units=1/GPa)
#
#
# Indices 1 2 3 4 5 6 
#
# 1 0.013541 0.000371 -0.004447 -0.000081 -0.000427 0.008338
# 2 0.000371 0.022647 -0.015520 0.004609 0.003725 0.020424
# 3 -0.004447 -0.015520 0.024416 -0.003164 -0.002889 -0.012384
# 4 -0.000081 0.004609 -0.003164 0.022266 0.005763 0.010140
# 5 -0.000427 0.003725 -0.002889 0.005763 0.018298 0.007380
# 6 0.008338 0.020424 -0.012384 0.010140 0.007380 0.069469
#
#
# Mechanical properties :
#
#
# Convention : Reuss Voigt Hill
#
# Bulk Modulus (GPa) = 46.70605 59.56692 53.13648
# Shear Modulus (GPa) = 23.04497 37.95926 30.50212
#
# Velocity S-wave (km/s) = 3.09898 3.97731 3.56530
# Velocity P-wave (km/s) = 5.68058 6.77612 6.25239
#
# Compressibility (1/GPa) = 0.02141050
#
# Stress axis : x y z
#
# Youngs Moduli (GPa) = 73.85120 44.15616 40.95654
#
# Poissons Ratio (x) = -0.01637 0.18213
# Poissons Ratio (y) = -0.02737 0.63566
# Poissons Ratio (z) = 0.32841 0.68532
#
# Static dielectric constant tensor:
#      x y z
#    x 2.049740 0.016130 -0.077470 
#    y 0.016130 1.954990 -0.015240 
#    z -0.077470 -0.015240 2.016880 
# 
# From -- ./inp_files/1736.got.cif
#   From: 2010.05.17/outbox.cif.g08.bks.cpg/sg1_1_cif.got.tgz:1736.got - 2010.05.17 20:27:59.
