data_PCOD9000385
_publ_section_title
;
Structure prediction by ZEFSAII (Michael W. Deem and Ramdas Pophale) SiO2 
 PCOD9000385
Probable space group: P 1
;
_chemical_formula_sum "Si O2"
_cell_formula_units_Z 8
_cell_length_a 10.233065
_cell_length_b 5.037776
_cell_length_c 13.636811
_cell_angle_alpha 53.269428
_cell_angle_beta 34.985787
_cell_angle_gamma 57.230240
_cell_volume 321.035806
_symmetry_space_group_name_H-M "P 1"
_symmetry_group_IT_number 1
_symmetry_cell_setting 'triclinic'
loop_
_space_group_symop_operation_xyz
x,y,z
loop_
_atom_site_type_symbol
_atom_site_label
_atom_site_fract_x
_atom_site_fract_y
_atom_site_fract_z
Si Si1 0.847330 0.504530 0.462610
Si Si2 0.316193 0.032102 0.844442
Si Si3 0.882162 0.107894 0.198603
Si Si4 0.171868 0.120270 0.489559
Si Si5 0.637682 0.361006 0.127412
Si Si6 0.514225 0.487029 0.480351
Si Si7 0.770118 0.073551 0.902101
Si Si8 0.480596 0.358411 0.847406
O O1 0.668965 0.515161 0.478107
O O2 0.679330 0.586853 0.640330
O O3 0.019160 0.197200 0.467191
O O4 0.977315 0.812289 0.279171
O O5 0.360116 0.205670 0.677416
O O6 0.492590 0.089374 0.811538
O O7 0.281000 0.649602 0.932005
O O8 0.102628 0.231492 0.987060
O O9 0.741389 0.047126 0.199563
O O10 0.695296 0.335748 0.323479
O O11 0.364213 0.378673 0.307211
O O12 0.995881 0.138116 0.686260
O O13 0.330407 0.771660 0.485201
O O14 0.724441 0.285457 0.981195
O O15 0.745601 0.688581 0.023425
O O16 0.557148 0.172554 0.939051
#
# Coordination Sequence:
#
# PCOD9000385 Si02
#       8
#     1   1   1   1   1   1   1   1
#     4  10  24  47  72 106 146 190 248 297 371 442
#     4  11  25  42  77 102 146 199 238 301 385 423
#     4  12  26  44  71 107 145 191 249 300 366 447
#     4  11  26  49  78 108 151 202 244 313 383 430
#     4  12  27  47  75 109 151 198 250 306 373 447
#     4  11  24  50  70 106 152 191 244 311 362 448
#     4  11  27  48  73 111 153 192 255 311 366 454
#     4  10  23  47  70 109 146 191 244 309 364 443
#
# _framework density 24.919336999999999
#
# number of rings (size 3 to 8) (size 9 to 14) (size 15 to 20)
#    0.000    1.000    2.500    2.250    5.250    5.000 
#    2.250    0.000    0.000    0.000    0.000    0.000 
#    0.000    0.000    0.000    0.000    0.000    0.000 
#
# Total GULP energy -44572.818461 kJ/mol
# GULP energy per Si atom -5571.602308 kJ/mol
# Density = 2.486262 g / cm^3
# Si number density = 24.919337 Si / 1000 Ang^3
#
#
#
# Elastic Constant Matrix: (Units=GPa)
#
#
# Indices 1 2 3 4 5 6 
#
# 1 83.4987 28.0465 -3.7421 -0.7804 23.7235 -24.3239
# 2 28.0465 85.3324 17.2573 7.8247 16.8070 -18.0479
# 3 -3.7421 17.2573 96.6856 21.7503 4.4549 -4.6047
# 4 -0.7804 7.8247 21.7503 21.4205 1.1828 12.6485
# 5 23.7235 16.8070 4.4549 1.1828 28.0583 -6.6102
# 6 -24.3239 -18.0479 -4.6047 12.6485 -6.6102 45.4733
#
#
#
# Elastic Compliance Matrix: (Units=1/GPa)
#
#
# Indices 1 2 3 4 5 6 
#
# 1 0.019473 -0.001599 0.004020 -0.008289 -0.013308 0.010560
# 2 -0.001599 0.015878 -0.000082 -0.009736 -0.006023 0.007271
# 3 0.004020 -0.000082 0.015851 -0.021205 -0.002802 0.009214
# 4 -0.008289 -0.009736 -0.021205 0.092229 0.003950 -0.035525
# 5 -0.013308 -0.006023 -0.002802 0.003950 0.049922 -0.003635
# 6 0.010560 0.007271 0.009214 -0.035525 -0.003635 0.040811
#
#
# Mechanical properties :
#
#
# Convention : Reuss Voigt Hill
#
# Bulk Modulus (GPa) = 17.89533 38.73779 28.31656
# Shear Modulus (GPa) = 20.15219 33.92074 27.03647
#
# Velocity S-wave (km/s) = 2.84684 3.69348 3.29745
# Velocity P-wave (km/s) = 4.24299 5.81103 5.08778
#
# Compressibility (1/GPa) = 0.05588049
#
# Stress axis : x y z
#
# Youngs Moduli (GPa) = 51.35266 62.98170 63.08721
#
# Poissons Ratio (x) = 0.10068 -0.25360
# Poissons Ratio (y) = 0.08209 0.00517
# Poissons Ratio (z) = -0.20643 0.00516
#
# Static dielectric constant tensor:
#      x y z
#    x 2.374510 0.108590 -0.420610 
#    y 0.108590 2.087520 -0.244840 
#    z -0.420610 -0.244840 2.547040 
# 
# From -- ./inp_files/1711.got.cif
#   From: 2010.05.17/outbox.cif.g08.bks.cpg/sg1_1_cif.got.tgz:1711.got - 2010.05.17 20:27:59.
