data_PCOD9000094
_publ_section_title
;
Structure prediction by ZEFSAII (Michael W. Deem and Ramdas Pophale) SiO2 
 PCOD9000094
Probable space group: P 1
;
_chemical_formula_sum "Si O2"
_cell_formula_units_Z 8
_cell_length_a 5.234242
_cell_length_b 11.114268
_cell_length_c 10.350898
_cell_angle_alpha 30.763934
_cell_angle_beta 84.509629
_cell_angle_gamma 78.391058
_cell_volume 298.099825
_symmetry_space_group_name_H-M "P 1"
_symmetry_group_IT_number 1
_symmetry_cell_setting 'triclinic'
loop_
_space_group_symop_operation_xyz
x,y,z
loop_
_atom_site_type_symbol
_atom_site_label
_atom_site_fract_x
_atom_site_fract_y
_atom_site_fract_z
Si Si1 0.400840 0.421790 0.625000
Si Si2 0.889956 0.031441 0.223425
Si Si3 0.977815 0.844468 0.123957
Si Si4 0.234371 0.980043 0.472928
Si Si5 0.309736 0.103382 0.734771
Si Si6 0.646920 0.172894 0.426514
Si Si7 0.622574 0.579977 0.731779
Si Si8 0.790284 0.481927 0.330877
O O1 0.314203 0.177012 0.819667
O O2 0.489967 0.505612 0.677383
O O3 0.626187 0.383000 0.540458
O O4 0.155869 0.631945 0.397051
O O5 0.860370 0.031051 0.070408
O O6 0.776783 0.796283 0.492945
O O7 0.779122 0.312864 0.014066
O O8 0.178638 0.994378 0.308078
O O9 0.760723 0.746460 0.146430
O O10 0.159608 0.893637 0.953205
O O11 0.407810 0.707945 0.729158
O O12 0.418229 0.151279 0.356578
O O13 0.942799 0.035320 0.497159
O O14 0.545230 0.053811 0.667824
O O15 0.091832 0.327609 0.472628
O O16 0.681461 0.427950 0.247698
#
# Coordination Sequence:
#
# PCOD9000094 Si02
#       8
#     1   1   1   1   1   1   1   1
#     4  10  22  39  69 116 163 202 265 334 422 487
#     4  12  28  49  85 124 168 213 273 349 419 498
#     4  11  23  41  75 126 160 207 267 347 428 485
#     4  12  26  53  84 116 166 222 282 332 408 491
#     4  10  23  42  76 111 161 211 265 346 406 490
#     4  11  24  51  82 109 165 222 278 334 399 497
#     4  12  27  50  82 124 166 217 274 343 419 493
#     4  10  21  43  73 108 157 208 264 337 409 479
#
# _framework density 26.836649000000001
#
# number of rings (size 3 to 8) (size 9 to 14) (size 15 to 20)
#    0.000    1.000    5.000    0.750    3.500    3.000 
#    0.000    7.500    0.000    0.000    0.000    0.000 
#    0.000    0.000    0.000    0.000    0.000    0.000 
#
# Total GULP energy -44617.735728 kJ/mol
# GULP energy per Si atom -5577.216966 kJ/mol
# Density = 2.677557 g / cm^3
# Si number density = 26.836649 Si / 1000 Ang^3
#
#
#
# Elastic Constant Matrix: (Units=GPa)
#
#
# Indices 1 2 3 4 5 6 
#
# 1 125.1094 73.7876 27.0445 -8.9618 0.1129 8.1085
# 2 73.7876 163.9907 27.2054 -18.0019 -0.9386 21.2175
# 3 27.0445 27.2054 86.4832 -19.2882 9.3858 0.6548
# 4 -8.9618 -18.0019 -19.2882 32.6720 -1.0371 9.3276
# 5 0.1129 -0.9386 9.3858 -1.0371 38.2679 5.1292
# 6 8.1085 21.2175 0.6548 9.3276 5.1292 73.3702
#
#
#
# Elastic Compliance Matrix: (Units=1/GPa)
#
#
# Indices 1 2 3 4 5 6 
#
# 1 0.011236 -0.004822 -0.002252 -0.000972 0.000338 0.000273
# 2 -0.004822 0.009172 -0.000504 0.004234 0.000841 -0.002712
# 3 -0.002252 -0.000504 0.014504 0.007701 -0.003289 -0.000484
# 4 -0.000972 0.004234 0.007701 0.038979 0.000098 -0.006148
# 5 0.000338 0.000841 -0.003289 0.000098 0.027251 -0.002169
# 6 0.000273 -0.002712 -0.000484 -0.006148 -0.002169 0.015321
#
#
# Mechanical properties :
#
#
# Convention : Reuss Voigt Hill
#
# Bulk Modulus (GPa) = 50.61775 70.18424 60.40099
# Shear Modulus (GPa) = 36.17836 45.36509 40.77173
#
# Velocity S-wave (km/s) = 3.67562 4.11593 3.90199
# Velocity P-wave (km/s) = 6.07585 6.98548 6.54649
#
# Compressibility (1/GPa) = 0.01975592
#
# Stress axis : x y z
#
# Youngs Moduli (GPa) = 88.99714 109.03113 68.94714
#
# Poissons Ratio (x) = 0.52576 0.15529
# Poissons Ratio (y) = 0.42916 0.03472
# Poissons Ratio (z) = 0.20045 0.05490
#
# Static dielectric constant tensor:
#      x y z
#    x 2.189970 -0.000040 0.019010 
#    y -0.000040 2.166480 -0.053890 
#    z 0.019010 -0.053890 2.169150 
# 
# From -- ./inp_files/6087.got.cif
#   From: 2010.05.17/outbox.cif.g08.bks.cpg/sg1_4_cif.got.tgz:6087.got - 2010.05.17 20:27:59.
