data_PCOD9000535
_publ_section_title
;
Structure prediction by ZEFSAII (Michael W. Deem and Ramdas Pophale) SiO2 
 PCOD9000535
Probable space group: P 1
;
_chemical_formula_sum "Si O2"
_cell_formula_units_Z 8
_cell_length_a 6.840508
_cell_length_b 7.076634
_cell_length_c 9.165422
_cell_angle_alpha 50.230378
_cell_angle_beta 113.507649
_cell_angle_gamma 120.409403
_cell_volume 292.214694
_symmetry_space_group_name_H-M "P 1"
_symmetry_group_IT_number 1
_symmetry_cell_setting 'triclinic'
loop_
_space_group_symop_operation_xyz
x,y,z
loop_
_atom_site_type_symbol
_atom_site_label
_atom_site_fract_x
_atom_site_fract_y
_atom_site_fract_z
Si Si1 0.353850 0.446180 0.552790
Si Si2 0.286727 0.672917 0.128937
Si Si3 0.000646 0.834001 0.523007
Si Si4 0.452571 0.999152 0.419068
Si Si5 0.839430 0.285343 0.587812
Si Si6 0.108009 0.211074 0.116585
Si Si7 0.856112 0.752202 0.857107
Si Si8 0.650928 0.210843 0.925126
O O1 0.303263 0.475403 0.355935
O O2 0.495662 0.743159 0.502257
O O3 0.488108 0.260013 0.729359
O O4 0.106840 0.351541 0.600758
O O5 0.257958 0.507942 0.053810
O O6 0.059734 0.747333 0.025631
O O7 0.509762 0.924808 0.079660
O O8 0.270067 0.895138 0.547649
O O9 0.972680 0.059997 0.297265
O O10 0.857305 0.554058 0.543459
O O11 0.952962 0.832207 0.680617
O O12 0.288826 0.068518 0.217262
O O13 0.671507 0.239565 0.419164
O O14 0.758897 0.975779 0.764567
O O15 0.904375 0.222961 0.950283
O O16 0.691659 0.450236 0.933620
#
# Coordination Sequence:
#
# PCOD9000535 Si02
#       8
#     1   1   1   1   1   1   1   1
#     4  11  23  42  72  99 139 179 233 292 340 414
#     4  11  25  41  69 100 137 185 232 280 349 404
#     4   9  23  42  72 103 141 184 229 292 343 415
#     4   9  22  42  70 100 142 180 227 288 352 409
#     4  11  21  43  74 103 139 188 226 289 361 399
#     4   9  23  41  63 101 136 176 231 281 340 416
#     4  11  23  44  67 107 140 180 241 280 341 428
#     4  11  24  41  69 103 136 184 235 280 348 419
#
# _framework density 27.377130000000001
#
# number of rings (size 3 to 8) (size 9 to 14) (size 15 to 20)
#    0.750    1.000    2.500    0.750    3.500    3.000 
#    4.500    0.000    8.250    0.000    0.000    0.000 
#    0.000    0.000    0.000    0.000    0.000    0.000 
#
# Total GULP energy -44741.879784 kJ/mol
# GULP energy per Si atom -5592.734973 kJ/mol
# Density = 2.731482 g / cm^3
# Si number density = 27.377130 Si / 1000 Ang^3
#
#
#
# Elastic Constant Matrix: (Units=GPa)
#
#
# Indices 1 2 3 4 5 6 
#
# 1 66.6486 31.1530 25.8204 7.0022 19.3921 6.1786
# 2 31.1530 202.7862 33.2354 -0.1738 5.7893 -1.6932
# 3 25.8204 33.2354 113.7250 5.4120 37.7611 -2.9266
# 4 7.0022 -0.1738 5.4120 51.1744 10.1745 9.5764
# 5 19.3921 5.7893 37.7611 10.1745 53.2826 -1.1013
# 6 6.1786 -1.6932 -2.9266 9.5764 -1.1013 47.9617
#
#
#
# Elastic Compliance Matrix: (Units=1/GPa)
#
#
# Indices 1 2 3 4 5 6 
#
# 1 0.018677 -0.002441 -0.001857 -0.000876 -0.005102 -0.002548
# 2 -0.002441 0.005517 -0.001495 0.000170 0.001325 0.000415
# 3 -0.001857 -0.001495 0.012283 0.000400 -0.007929 0.000674
# 4 -0.000876 0.000170 0.000400 0.021223 -0.004122 -0.004189
# 5 -0.005102 0.001325 -0.007929 -0.004122 0.026921 0.001661
# 6 -0.002548 0.000415 0.000674 -0.004189 0.001661 0.022108
#
#
# Mechanical properties :
#
#
# Convention : Reuss Voigt Hill
#
# Bulk Modulus (GPa) = 40.17732 62.61970 51.39851
# Shear Modulus (GPa) = 39.49017 50.01380 44.75198
#
# Velocity S-wave (km/s) = 3.80208 4.27880 4.04746
# Velocity P-wave (km/s) = 5.82939 6.87993 6.37633
#
# Compressibility (1/GPa) = 0.02488967
#
# Stress axis : x y z
#
# Youngs Moduli (GPa) = 53.54118 181.25059 81.41457
#
# Poissons Ratio (x) = 0.44249 0.15119
# Poissons Ratio (y) = 0.13071 0.12175
# Poissons Ratio (z) = 0.09943 0.27105
#
# Static dielectric constant tensor:
#      x y z
#    x 2.174280 -0.030830 -0.009700 
#    y -0.030830 2.103180 0.023480 
#    z -0.009700 0.023480 2.200110 
# 
# From -- ./inp_files/6427.got.cif
#   From: 2010.05.17/outbox.cif.g08.bks.cpg/sg1_4_cif.got.tgz:6427.got - 2010.05.17 20:27:59.
