data_PCOD9000368
_publ_section_title
;
Structure prediction by ZEFSAII (Michael W. Deem and Ramdas Pophale) SiO2 
 PCOD9000368
Probable space group: P 1
;
_chemical_formula_sum "Si O2"
_cell_formula_units_Z 8
_cell_length_a 7.689003
_cell_length_b 6.968988
_cell_length_c 10.652995
_cell_angle_alpha 43.036087
_cell_angle_beta 116.543586
_cell_angle_gamma 95.919353
_cell_volume 324.315741
_symmetry_space_group_name_H-M "P 1"
_symmetry_group_IT_number 1
_symmetry_cell_setting 'triclinic'
loop_
_space_group_symop_operation_xyz
x,y,z
loop_
_atom_site_type_symbol
_atom_site_label
_atom_site_fract_x
_atom_site_fract_y
_atom_site_fract_z
Si Si1 0.609170 0.141620 0.766760
Si Si2 0.357669 0.283063 0.180786
Si Si3 0.259854 0.115694 0.827519
Si Si4 0.678164 0.513491 0.844891
Si Si5 0.785248 0.084616 0.326227
Si Si6 0.503227 0.747882 0.320589
Si Si7 0.236576 0.692649 0.694395
Si Si8 0.977408 0.756175 0.913993
O O1 0.540024 0.402165 0.515281
O O2 0.669255 0.305819 0.826042
O O3 0.412999 0.061781 0.784700
O O4 0.811983 0.866049 0.920567
O O5 0.288396 0.506209 0.930225
O O6 0.183796 0.456052 0.141992
O O7 0.600759 0.237641 0.295139
O O8 0.359287 0.961984 0.283269
O O9 0.396948 0.898470 0.085937
O O10 0.062129 0.022554 0.788760
O O11 0.208073 0.453134 0.699309
O O12 0.841878 0.675473 0.801153
O O13 0.751111 0.304398 0.090982
O O14 0.444465 0.741200 0.691243
O O15 0.714938 0.813667 0.380825
O O16 0.021837 0.971030 0.499073
#
# Coordination Sequence:
#
# PCOD9000368 Si02
#       8
#     1   1   1   1   1   1   1   1
#     4  11  24  46  73  98 144 188 233 287 352 416
#     4   8  21  39  65 104 138 175 236 283 342 414
#     4  10  23  46  67 105 148 177 237 299 336 422
#     4  10  24  44  67 108 141 183 236 291 348 422
#     4   9  18  41  76  99 137 193 230 283 359 410
#     4   9  20  44  74 102 138 186 239 279 356 416
#     4   9  18  43  75  94 139 192 225 289 354 403
#     4  12  26  41  71 104 147 186 228 295 357 407
#
# _framework density 24.667318999999999
#
# number of rings (size 3 to 8) (size 9 to 14) (size 15 to 20)
#    0.750    1.500    2.500    0.750    8.750    2.000 
#    6.750    0.000    0.000    0.000    0.000    0.000 
#    0.000    0.000    0.000    0.000    0.000    0.000 
#
# Total GULP energy -44728.745950 kJ/mol
# GULP energy per Si atom -5591.093244 kJ/mol
# Density = 2.461118 g / cm^3
# Si number density = 24.667319 Si / 1000 Ang^3
#
#
#
# Elastic Constant Matrix: (Units=GPa)
#
#
# Indices 1 2 3 4 5 6 
#
# 1 141.9291 13.1830 38.0866 -1.5254 24.3939 12.0360
# 2 13.1830 48.1331 6.4530 -9.4077 6.2308 0.6604
# 3 38.0866 6.4530 122.1901 3.9333 28.5314 -21.6320
# 4 -1.5254 -9.4077 3.9333 33.1894 -6.7647 7.2960
# 5 24.3939 6.2308 28.5314 -6.7647 49.7492 -3.1292
# 6 12.0360 0.6604 -21.6320 7.2960 -3.1292 46.1031
#
#
#
# Elastic Compliance Matrix: (Units=1/GPa)
#
#
# Indices 1 2 3 4 5 6 
#
# 1 0.008698 -0.001509 -0.002692 0.000575 -0.002692 -0.003786
# 2 -0.001509 0.022751 -0.001058 0.006702 -0.000688 -0.001536
# 3 -0.002692 -0.001058 0.011628 -0.004329 -0.005396 0.006492
# 4 0.000575 0.006702 -0.004329 0.035378 0.005701 -0.007489
# 5 -0.002692 -0.000688 -0.005396 0.005701 0.025314 -0.001003
# 6 -0.003786 -0.001536 0.006492 -0.007489 -0.001003 0.026864
#
#
# Mechanical properties :
#
#
# Convention : Reuss Voigt Hill
#
# Bulk Modulus (GPa) = 30.71285 47.52195 39.11740
# Shear Modulus (GPa) = 32.89412 42.77698 37.83555
#
# Velocity S-wave (km/s) = 3.65569 4.16884 3.92067
# Velocity P-wave (km/s) = 5.50423 6.51761 6.03224
#
# Compressibility (1/GPa) = 0.03255966
#
# Stress axis : x y z
#
# Youngs Moduli (GPa) = 114.96680 43.95422 86.00219
#
# Poissons Ratio (x) = 0.06631 0.23148
# Poissons Ratio (y) = 0.17345 0.09101
# Poissons Ratio (z) = 0.30944 0.04652
#
# Static dielectric constant tensor:
#      x y z
#    x 1.969610 -0.014020 0.000700 
#    y -0.014020 2.006870 -0.017500 
#    z 0.000700 -0.017500 1.944720 
# 
# From -- ./inp_files/7107.got.cif
#   From: 2010.05.17/outbox.cif.g08.bks.cpg/sg1_4_cif.got.tgz:7107.got - 2010.05.17 20:27:59.
