data_PCOD9000565
_publ_section_title
;
Structure prediction by ZEFSAII (Michael W. Deem and Ramdas Pophale) SiO2 
 PCOD9000565
Probable space group: P 1
;
_chemical_formula_sum "Si O2"
_cell_formula_units_Z 8
_cell_length_a 11.601472
_cell_length_b 7.819261
_cell_length_c 4.980539
_cell_angle_alpha 86.189888
_cell_angle_beta 62.023209
_cell_angle_gamma 69.446538
_cell_volume 370.964531
_symmetry_space_group_name_H-M "P 1"
_symmetry_group_IT_number 1
_symmetry_cell_setting 'triclinic'
loop_
_space_group_symop_operation_xyz
x,y,z
loop_
_atom_site_type_symbol
_atom_site_label
_atom_site_fract_x
_atom_site_fract_y
_atom_site_fract_z
Si Si1 0.238860 0.324960 0.951010
Si Si2 0.403687 0.130948 0.272228
Si Si3 0.928936 0.794769 0.636503
Si Si4 0.928512 0.553340 0.166964
Si Si5 0.686569 0.413400 0.262602
Si Si6 0.238095 0.710997 0.137984
Si Si7 0.685999 0.185402 0.788691
Si Si8 0.403256 0.748668 0.472491
O O1 0.332256 0.253588 0.593748
O O2 0.291953 0.178857 0.147316
O O3 0.254543 0.509869 0.029995
O O4 0.076013 0.384493 0.049808
O O5 0.446526 0.919688 0.330152
O O6 0.536887 0.172220 0.019834
O O7 0.896835 0.658744 0.473492
O O8 0.806616 0.991290 0.738333
O O9 0.076490 0.807097 0.385775
O O10 0.946105 0.697272 0.916009
O O11 0.807301 0.486020 0.209617
O O12 0.690307 0.248538 0.472978
O O13 0.537410 0.577393 0.435295
O O14 0.704540 0.338893 0.948169
O O15 0.332878 0.695525 0.296162
O O16 0.291044 0.804962 0.829549
#
# Coordination Sequence:
#
# PCOD9000565 Si02
#       8
#     1   1   1   1   1   1   1   1
#     4  11  23  43  68  95 127 167 211 259 318 378
#     4  12  25  42  66  95 129 167 213 264 314 373
#     4  11  24  44  68  94 129 169 209 258 318 380
#     4  11  24  44  68  94 129 169 209 258 318 380
#     4  12  26  43  66  94 129 169 213 263 314 375
#     4  11  23  43  68  95 127 167 211 259 318 378
#     4  12  26  43  66  94 129 169 213 263 314 375
#     4  12  25  42  66  95 129 167 213 264 314 373
#
# _framework density 21.565404000000001
#
# number of rings (size 3 to 8) (size 9 to 14) (size 15 to 20)
#    0.000    0.500    0.000   10.500    0.000    5.000 
#    0.000    0.000    0.000    0.000    0.000    0.000 
#    0.000    0.000    0.000    0.000    0.000    0.000 
#
# Total GULP energy -44839.612348 kJ/mol
# GULP energy per Si atom -5604.951544 kJ/mol
# Density = 2.151632 g / cm^3
# Si number density = 21.565404 Si / 1000 Ang^3
#
#
#
# Elastic Constant Matrix: (Units=GPa)
#
#
# Indices 1 2 3 4 5 6 
#
# 1 122.6315 17.9949 18.6801 7.6591 -9.1740 -2.2257
# 2 17.9949 47.7671 1.8327 10.3949 -10.2457 -19.7017
# 3 18.6801 1.8327 77.4534 2.1415 10.7286 -10.5781
# 4 7.6591 10.3949 2.1415 33.3198 -5.4782 0.6324
# 5 -9.1740 -10.2457 10.7286 -5.4782 37.6047 -4.3359
# 6 -2.2257 -19.7017 -10.5781 0.6324 -4.3359 35.3938
#
#
#
# Elastic Compliance Matrix: (Units=1/GPa)
#
#
# Indices 1 2 3 4 5 6 
#
# 1 0.009227 -0.003787 -0.002641 -0.000456 0.001664 -0.002105
# 2 -0.003787 0.034896 0.001946 -0.009038 0.009139 0.021049
# 3 -0.002641 0.001946 0.014770 -0.001702 -0.004014 0.004870
# 4 -0.000456 -0.009038 -0.001702 0.033505 0.002111 -0.005908
# 5 0.001664 0.009139 -0.004014 0.002111 0.031847 0.007856
# 6 -0.002105 0.021049 0.004870 -0.005908 0.007856 0.042361
#
#
# Mechanical properties :
#
#
# Convention : Reuss Voigt Hill
#
# Bulk Modulus (GPa) = 20.02811 36.09637 28.06224
# Shear Modulus (GPa) = 26.01276 35.21993 30.61635
#
# Velocity S-wave (km/s) = 3.47685 4.04563 3.77197
# Velocity P-wave (km/s) = 5.04235 6.21267 5.65785
#
# Compressibility (1/GPa) = 0.04992982
#
# Stress axis : x y z
#
# Youngs Moduli (GPa) = 108.37437 28.65689 67.70393
#
# Poissons Ratio (x) = 0.10852 0.17882
# Poissons Ratio (y) = 0.41040 -0.13178
# Poissons Ratio (z) = 0.28623 -0.05578
#
# Static dielectric constant tensor:
#      x y z
#    x 1.750560 0.009850 -0.001110 
#    y 0.009850 1.759570 -0.010930 
#    z -0.001110 -0.010930 1.748110 
# 
# From -- ./inp_files/2027.got.cif
#   From: 2010.05.17/outbox.cif.g08.bks.cpg/sg1_2_cif.got.tgz:2027.got - 2010.05.17 20:27:59.
