data_PCOD9000548
_publ_section_title
;
Structure prediction by ZEFSAII (Michael W. Deem and Ramdas Pophale) SiO2 
 PCOD9000548
Probable space group: P 1
;
_chemical_formula_sum "Si O2"
_cell_formula_units_Z 8
_cell_length_a 15.340247
_cell_length_b 5.522561
_cell_length_c 11.420522
_cell_angle_alpha 133.599995
_cell_angle_beta 26.169663
_cell_angle_gamma 127.130140
_cell_volume 308.652932
_symmetry_space_group_name_H-M "P 1"
_symmetry_group_IT_number 1
_symmetry_cell_setting 'triclinic'
loop_
_space_group_symop_operation_xyz
x,y,z
loop_
_atom_site_type_symbol
_atom_site_label
_atom_site_fract_x
_atom_site_fract_y
_atom_site_fract_z
Si Si1 0.244810 0.669340 0.512730
Si Si2 0.022685 0.468819 0.302841
Si Si3 0.651918 0.307518 0.853794
Si Si4 0.909148 0.198046 0.708800
Si Si5 0.754332 0.135482 0.359442
Si Si6 0.323493 0.244375 0.485507
Si Si7 0.440256 0.690833 0.959915
Si Si8 0.697015 0.361988 0.235385
O O1 0.255100 0.575485 0.606592
O O2 0.093062 0.424148 0.556742
O O3 0.178648 0.032802 0.667733
O O4 0.464586 0.570265 0.163620
O O5 0.863472 0.364384 0.557992
O O6 0.964628 0.242467 0.189997
O O7 0.248343 0.509728 0.083127
O O8 0.957566 0.847001 0.474025
O O9 0.715396 0.340626 0.925116
O O10 0.565864 0.941214 0.810909
O O11 0.855031 0.152096 0.894217
O O12 0.709564 0.229417 0.308896
O O13 0.737355 0.750423 0.288181
O O14 0.594283 0.385856 0.704764
O O15 0.488253 0.312305 0.406941
O O16 0.369733 0.972507 0.233872
#
# Coordination Sequence:
#
# PCOD9000548 Si02
#       8
#     1   1   1   1   1   1   1   1
#     4  11  23  40  72 116 138 181 240 321 366 416
#     4  12  25  48  78 111 144 198 250 311 367 444
#     4  11  22  42  76 110 143 181 245 323 361 416
#     4  12  24  44  80 107 146 190 261 306 363 438
#     4  12  28  50  70 106 161 198 236 299 379 452
#     4  11  22  47  75 105 138 186 255 308 362 416
#     4  11  23  50  75 111 140 200 252 309 364 442
#     4  12  27  49  74 104 154 202 237 305 376 438
#
# _framework density 25.919079
#
# number of rings (size 3 to 8) (size 9 to 14) (size 15 to 20)
#    0.000    0.500    6.250    3.750    1.750    1.000 
#    9.000    0.000    0.000    0.000    0.000    0.000 
#    0.000    0.000    0.000    0.000    0.000    0.000 
#
# Total GULP energy -44698.938683 kJ/mol
# GULP energy per Si atom -5587.367335 kJ/mol
# Density = 2.586009 g / cm^3
# Si number density = 25.919079 Si / 1000 Ang^3
#
#
#
# Elastic Constant Matrix: (Units=GPa)
#
#
# Indices 1 2 3 4 5 6 
#
# 1 151.5576 60.6976 29.6920 -31.3739 -7.3782 9.5817
# 2 60.6976 168.1177 16.0033 -37.8633 -7.6783 9.1553
# 3 29.6920 16.0033 82.4445 -11.7417 -5.9097 9.6984
# 4 -31.3739 -37.8633 -11.7417 39.3272 8.0944 -7.9844
# 5 -7.3782 -7.6783 -5.9097 8.0944 50.9336 -11.4756
# 6 9.5817 9.1553 9.6984 -7.9844 -11.4756 58.1236
#
#
#
# Elastic Compliance Matrix: (Units=1/GPa)
#
#
# Indices 1 2 3 4 5 6 
#
# 1 0.008715 -0.001941 -0.002113 0.004421 -0.000017 -0.000174
# 2 -0.001941 0.008045 0.000028 0.006198 -0.000076 -0.000116
# 3 -0.002113 0.000028 0.013377 0.001904 0.000608 -0.001506
# 4 0.004421 0.006198 0.001904 0.036685 -0.003511 0.002323
# 5 -0.000017 -0.000076 0.000608 -0.003511 0.021056 0.003588
# 6 -0.000174 -0.000116 -0.001506 0.002323 0.003588 0.018531
#
#
# Mechanical properties :
#
#
# Convention : Reuss Voigt Hill
#
# Bulk Modulus (GPa) = 45.27866 68.32284 56.80075
# Shear Modulus (GPa) = 41.04376 49.39201 45.21788
#
# Velocity S-wave (km/s) = 3.98368 4.37008 4.18135
# Velocity P-wave (km/s) = 6.21826 7.20283 6.72858
#
# Compressibility (1/GPa) = 0.02208546
#
# Stress axis : x y z
#
# Youngs Moduli (GPa) = 114.74759 124.30186 74.75586
#
# Poissons Ratio (x) = 0.24125 0.15795
# Poissons Ratio (y) = 0.22271 -0.00211
# Poissons Ratio (z) = 0.24245 -0.00351
#
# Static dielectric constant tensor:
#      x y z
#    x 2.175400 -0.091200 0.070150 
#    y -0.091200 2.065810 -0.037160 
#    z 0.070150 -0.037160 2.081630 
# 
# From -- ./inp_files/6097.got.cif
#   From: 2010.05.17/outbox.cif.g08.bks.cpg/sg1_4_cif.got.tgz:6097.got - 2010.05.17 20:27:59.
