data_PCOD9000240
_publ_section_title
;
Structure prediction by ZEFSAII (Michael W. Deem and Ramdas Pophale) SiO2 
 PCOD9000240
Probable space group: P 1
;
_chemical_formula_sum "Si O2"
_cell_formula_units_Z 8
_cell_length_a 14.806118
_cell_length_b 5.141446
_cell_length_c 5.102192
_cell_angle_alpha 93.284239
_cell_angle_beta 112.263044
_cell_angle_gamma 61.311717
_cell_volume 311.590637
_symmetry_space_group_name_H-M "P 1"
_symmetry_group_IT_number 1
_symmetry_cell_setting 'triclinic'
loop_
_space_group_symop_operation_xyz
x,y,z
loop_
_atom_site_type_symbol
_atom_site_label
_atom_site_fract_x
_atom_site_fract_y
_atom_site_fract_z
Si Si1 0.339190 0.971550 0.472730
Si Si2 0.839077 0.485859 0.717782
Si Si3 0.017628 0.900127 0.720052
Si Si4 0.639094 0.448142 0.653788
Si Si5 0.097445 0.512442 0.321312
Si Si6 0.456034 0.320068 0.358343
Si Si7 0.871076 0.713883 0.268417
Si Si8 0.520490 0.838575 0.032236
O O1 0.370601 0.671450 0.329672
O O2 0.403135 0.864857 0.814283
O O3 0.209937 0.207084 0.378494
O O4 0.396925 0.148970 0.414976
O O5 0.768710 0.336185 0.739467
O O6 0.803976 0.648446 0.409985
O O7 0.821804 0.729998 0.931768
O O8 0.969035 0.233960 0.796380
O O9 0.106812 0.722768 0.575156
O O10 0.903609 0.946744 0.444974
O O11 0.054116 0.695329 0.010490
O O12 0.575242 0.258579 0.606803
O O13 0.601342 0.669767 0.870924
O O14 0.578663 0.636752 0.336941
O O15 0.001027 0.457193 0.340673
O O16 0.489155 0.174348 0.097742
#
# Coordination Sequence:
#
# PCOD9000240 Si02
#       8
#     1   1   1   1   1   1   1   1
#     4  11  27  47  77 107 144 192 235 292 368 417
#     4  12  23  43  73 101 135 196 222 293 355 413
#     4  10  23  44  64 102 145 172 241 282 341 423
#     4  11  27  44  72 106 145 191 239 294 362 419
#     4  10  23  47  66 103 142 186 226 296 351 417
#     4  11  25  49  71 106 146 181 244 298 341 441
#     4  10  22  44  64  97 143 170 239 283 333 427
#     4  11  24  50  67 106 146 180 246 294 351 427
#
# _framework density 25.674713000000001
#
# number of rings (size 3 to 8) (size 9 to 14) (size 15 to 20)
#    0.750    0.500    3.750    1.500    5.250    4.000 
#    0.000    0.000    0.000    0.000    0.000    0.000 
#    0.000    0.000    0.000    0.000    0.000    0.000 
#
# Total GULP energy -44623.823679 kJ/mol
# GULP energy per Si atom -5577.977960 kJ/mol
# Density = 2.561628 g / cm^3
# Si number density = 25.674713 Si / 1000 Ang^3
#
#
#
# Elastic Constant Matrix: (Units=GPa)
#
#
# Indices 1 2 3 4 5 6 
#
# 1 94.6650 18.5656 24.1130 7.5305 -13.9758 -4.6217
# 2 18.5656 93.1734 55.5661 30.2042 -17.1785 2.1931
# 3 24.1130 55.5661 169.3763 25.4307 -40.5242 -5.7882
# 4 7.5305 30.2042 25.4307 49.0748 -6.7835 -3.7510
# 5 -13.9758 -17.1785 -40.5242 -6.7835 32.9763 0.2405
# 6 -4.6217 2.1931 -5.7882 -3.7510 0.2405 39.0304
#
#
#
# Elastic Compliance Matrix: (Units=1/GPa)
#
#
# Indices 1 2 3 4 5 6 
#
# 1 0.011547 -0.001476 -0.000161 -0.000136 0.003888 0.001389
# 2 -0.001476 0.016033 -0.003536 -0.007739 0.001806 -0.002355
# 3 -0.000161 -0.003536 0.009650 -0.001356 0.009659 0.001421
# 4 -0.000136 -0.007739 -0.001356 0.026013 -0.000424 0.002720
# 5 0.003888 0.001806 0.009659 -0.000424 0.044686 0.001475
# 6 0.001389 -0.002355 0.001421 0.002720 0.001475 0.026381
#
#
# Mechanical properties :
#
#
# Convention : Reuss Voigt Hill
#
# Bulk Modulus (GPa) = 37.19858 61.52266 49.36062
# Shear Modulus (GPa) = 32.54824 41.48096 37.01460
#
# Velocity S-wave (km/s) = 3.56436 4.02386 3.80106
# Velocity P-wave (km/s) = 5.60887 6.75299 6.20735
#
# Compressibility (1/GPa) = 0.02688275
#
# Stress axis : x y z
#
# Youngs Moduli (GPa) = 86.60335 62.37171 103.62495
#
# Poissons Ratio (x) = 0.09208 0.01672
# Poissons Ratio (y) = 0.12786 0.36641
# Poissons Ratio (z) = 0.01397 0.22054
#
# Static dielectric constant tensor:
#      x y z
#    x 2.033110 0.041060 0.030170 
#    y 0.041060 2.021750 0.007580 
#    z 0.030170 0.007580 2.088390 
# 
# From -- ./inp_files/2572.got.cif
#   From: 2010.05.17/outbox.cif.g08.bks.cpg/sg1_2_cif.got.tgz:2572.got - 2010.05.17 20:27:59.
