data_PCOD9000943
_publ_section_title
;
Structure prediction by ZEFSAII (Michael W. Deem and Ramdas Pophale) SiO2 
 PCOD9000943
Probable space group: P 1
;
_chemical_formula_sum "Si O2"
_cell_formula_units_Z 8
_cell_length_a 9.374205
_cell_length_b 8.623597
_cell_length_c 10.620305
_cell_angle_alpha 111.128724
_cell_angle_beta 60.112841
_cell_angle_gamma 148.296111
_cell_volume 387.369177
_symmetry_space_group_name_H-M "P 1"
_symmetry_group_IT_number 1
_symmetry_cell_setting 'triclinic'
loop_
_space_group_symop_operation_xyz
x,y,z
loop_
_atom_site_type_symbol
_atom_site_label
_atom_site_fract_x
_atom_site_fract_y
_atom_site_fract_z
Si Si1 0.613140 0.544510 0.309410
Si Si2 0.495943 0.826842 0.965523
Si Si3 0.932802 0.199481 0.093687
Si Si4 0.043073 0.557653 0.513642
Si Si5 0.031438 0.165853 0.317028
Si Si6 0.790550 0.338124 0.837460
Si Si7 0.170408 0.840478 0.027994
Si Si8 0.623097 0.240096 0.385614
O O1 0.908727 0.731140 0.162413
O O2 0.536905 0.334532 0.378282
O O3 0.333846 0.337051 0.281906
O O4 0.739049 0.822857 0.391980
O O5 0.230419 0.477096 0.964381
O O6 0.318942 0.852667 0.076926
O O7 0.686272 0.926732 0.028159
O O8 0.698553 0.069576 0.835275
O O9 0.999895 0.153799 0.176246
O O10 0.799954 0.263051 0.221986
O O11 0.048000 0.367756 0.418790
O O12 0.932677 0.477150 0.680667
O O13 0.824403 0.455302 0.478503
O O14 0.354443 0.906061 0.458057
O O15 0.012586 0.590659 0.920630
O O16 0.472789 0.166454 0.932487
#
# Coordination Sequence:
#
# PCOD9000943 Si02
#       8
#     1   1   1   1   1   1   1   1
#     4  12  22  40  59  93 123 156 187 244 322 353
#     4  10  17  32  59  85 109 145 191 256 275 333
#     4  11  19  35  56  88 116 147 197 242 292 340
#     4  11  23  39  59  90 117 162 200 246 277 351
#     4  11  25  36  58  90 135 151 181 246 313 366
#     4  10  19  36  58  90 111 151 207 249 274 331
#     4  10  20  33  61  90 108 152 192 257 277 345
#     4  11  21  35  62  84 117 156 207 242 282 345
#
# _framework density 20.652132999999999
#
# number of rings (size 3 to 8) (size 9 to 14) (size 15 to 20)
#    0.750    0.500    2.500    6.000    1.750    0.000 
#    0.000    0.000    0.000   15.000    0.000    0.000 
#    0.000    0.000    0.000    0.000    0.000    0.000 
#
# Total GULP energy -44591.347626 kJ/mol
# GULP energy per Si atom -5573.918453 kJ/mol
# Density = 2.060513 g / cm^3
# Si number density = 20.652133 Si / 1000 Ang^3
#
#
#
# Elastic Constant Matrix: (Units=GPa)
#
#
# Indices 1 2 3 4 5 6 
#
# 1 87.4704 -11.7958 3.3425 -10.4098 -1.5529 25.1334
# 2 -11.7958 64.0549 8.7447 -30.5232 -6.0922 27.2973
# 3 3.3425 8.7447 48.7713 -19.9434 13.4289 4.9858
# 4 -10.4098 -30.5232 -19.9434 21.6078 -6.2154 9.0180
# 5 -1.5529 -6.0922 13.4289 -6.2154 6.9936 2.9970
# 6 25.1334 27.2973 4.9858 9.0180 2.9970 43.4067
#
#
#
# Elastic Compliance Matrix: (Units=1/GPa)
#
#
# Indices 1 2 3 4 5 6 
#
# 1 0.008010 -0.006742 -0.000100 -0.011464 -0.015403 0.003059
# 2 -0.006742 -0.002895 -0.002668 -0.021533 -0.023222 0.012108
# 3 -0.000100 -0.002668 0.053942 0.023405 -0.083601 -0.003551
# 4 -0.011464 -0.021533 0.023405 0.001000 -0.074980 0.022460
# 5 -0.015403 -0.023222 -0.083601 -0.074980 0.198225 0.035016
# 6 0.003059 0.012108 -0.003551 0.022460 0.035016 0.006977
#
#
# Mechanical properties :
#
#
# Convention : Reuss Voigt Hill
#
# Bulk Modulus (GPa) = 24.97646 22.31990 23.64818
# Shear Modulus (GPa) = 16.79976 27.73530 22.26753
#
# Velocity S-wave (km/s) = 2.85522 3.66864 3.28719
# Velocity P-wave (km/s) = 4.79478 5.36435 5.08754
#
# Compressibility (1/GPa) = 0.04003770
#
# Stress axis : x y z
#
# Youngs Moduli (GPa) = 124.83768 -345.42635 18.53858
#
# Poissons Ratio (x) = -2.32899 0.00185
# Poissons Ratio (y) = 0.84170 0.04946
# Poissons Ratio (z) = 0.01243 -0.92150
#
# Static dielectric constant tensor:
#      x y z
#    x 1.783560 -0.040670 -0.017110 
#    y -0.040670 1.772350 -0.010010 
#    z -0.017110 -0.010010 1.751970 
# 
# From -- ./inp_files/4837.got.cif
#   From: 2010.05.17/outbox.cif.g08.bks.cpg/sg1_3_cif.got.tgz:4837.got - 2010.05.17 20:27:59.
