data_PCOD9000213
_publ_section_title
;
Structure prediction by ZEFSAII (Michael W. Deem and Ramdas Pophale) SiO2 
 PCOD9000213
Probable space group: P 1
;
_chemical_formula_sum "Si O2"
_cell_formula_units_Z 8
_cell_length_a 10.409566
_cell_length_b 6.932156
_cell_length_c 7.979512
_cell_angle_alpha 81.638412
_cell_angle_beta 47.532099
_cell_angle_gamma 104.514308
_cell_volume 369.129687
_symmetry_space_group_name_H-M "P 1"
_symmetry_group_IT_number 1
_symmetry_cell_setting 'triclinic'
loop_
_space_group_symop_operation_xyz
x,y,z
loop_
_atom_site_type_symbol
_atom_site_label
_atom_site_fract_x
_atom_site_fract_y
_atom_site_fract_z
Si Si1 0.735530 0.010680 0.037550
Si Si2 0.682255 0.200945 0.397556
Si Si3 0.184200 0.306880 0.559877
Si Si4 0.856194 0.707578 0.168567
Si Si5 0.135564 0.008803 0.334326
Si Si6 0.717618 0.838694 0.600428
Si Si7 0.390653 0.764652 0.130503
Si Si8 0.255865 0.134154 0.855356
O O1 0.651523 0.071319 0.267692
O O2 0.777052 0.806999 0.078629
O O3 0.581381 0.953682 0.033278
O O4 0.948796 0.215194 0.783724
O O5 0.819384 0.460665 0.209712
O O6 0.472740 0.159451 0.658085
O O7 0.766689 0.083955 0.463202
O O8 0.298293 0.550707 0.355724
O O9 0.249014 0.289490 0.693562
O O10 0.211368 0.144907 0.422446
O O11 0.738377 0.710125 0.438794
O O12 0.083320 0.890329 0.980376
O O13 0.231058 0.848725 0.237311
O O14 0.895921 0.873523 0.562892
O O15 0.198422 0.161382 0.091830
O O16 0.496280 0.725695 0.881586
#
# Coordination Sequence:
#
# PCOD9000213 Si02
#       8
#     1   1   1   1   1   1   1   1
#     4  10  23  43  63 100 139 165 230 280 318 411
#     4  11  21  42  70  95 132 182 215 276 343 385
#     4  11  25  44  68 100 137 178 222 276 336 397
#     4   9  22  41  68  97 130 177 218 278 334 389
#     4  11  24  46  68  99 140 171 226 283 323 403
#     4  10  23  43  65 100 138 164 232 276 318 414
#     4  12  24  44  68  99 134 181 215 277 342 387
#     4  10  22  43  66 100 132 170 228 272 324 404
#
# _framework density 21.672601
#
# number of rings (size 3 to 8) (size 9 to 14) (size 15 to 20)
#    0.000    1.500    2.500    2.250    1.750    5.000 
#    4.500    2.500    0.000    0.000    0.000    0.000 
#    0.000    0.000    0.000    0.000    0.000    0.000 
#
# Total GULP energy -44702.594837 kJ/mol
# GULP energy per Si atom -5587.824355 kJ/mol
# Density = 2.162327 g / cm^3
# Si number density = 21.672601 Si / 1000 Ang^3
#
#
#
# Elastic Constant Matrix: (Units=GPa)
#
#
# Indices 1 2 3 4 5 6 
#
# 1 55.7082 6.8640 3.8082 8.4252 -4.9829 -8.5125
# 2 6.8640 48.7502 5.2912 -3.3466 3.8926 -16.3212
# 3 3.8082 5.2912 95.9390 5.1666 2.1737 -10.3314
# 4 8.4252 -3.3466 5.1666 14.7779 -5.9716 4.6343
# 5 -4.9829 3.8926 2.1737 -5.9716 43.4191 5.1193
# 6 -8.5125 -16.3212 -10.3314 4.6343 5.1193 12.2851
#
#
#
# Elastic Compliance Matrix: (Units=1/GPa)
#
#
# Indices 1 2 3 4 5 6 
#
# 1 0.033725 0.019613 0.009502 -0.050044 -0.014978 0.082536
# 2 0.019613 0.062599 0.015137 -0.059293 -0.029258 0.144045
# 3 0.009502 0.015137 0.017466 -0.031385 -0.012339 0.058364
# 4 -0.050044 -0.059293 -0.031385 0.189283 0.054775 -0.234071
# 5 -0.014978 -0.029258 -0.012339 0.054775 0.043700 -0.098498
# 6 0.082536 0.144045 0.058364 -0.234071 -0.098498 0.508388
#
#
# Mechanical properties :
#
#
# Convention : Reuss Voigt Hill
#
# Bulk Modulus (GPa) = 4.94326 25.81379 15.37852
# Shear Modulus (GPa) = 5.99457 26.39201 16.19329
#
# Velocity S-wave (km/s) = 1.66492 3.49343 2.73642
# Velocity P-wave (km/s) = 2.44577 5.31119 4.13464
#
# Compressibility (1/GPa) = 0.20229552
#
# Stress axis : x y z
#
# Youngs Moduli (GPa) = 29.65138 15.97459 57.25388
#
# Poissons Ratio (x) = -0.31332 -0.54403
# Poissons Ratio (y) = -0.58156 -0.86665
# Poissons Ratio (z) = -0.28175 -0.24181
#
# Static dielectric constant tensor:
#      x y z
#    x 1.804270 0.000900 0.028730 
#    y 0.000900 1.768800 0.009350 
#    z 0.028730 0.009350 1.811960 
# 
# From -- ./inp_files/1670.got.cif
#   From: 2010.05.17/outbox.cif.g08.bks.cpg/sg1_1_cif.got.tgz:1670.got - 2010.05.17 20:27:59.
