data_PCOD9000667
_publ_section_title
;
Structure prediction by ZEFSAII (Michael W. Deem and Ramdas Pophale) SiO2 
 PCOD9000667
Probable space group: P 1
;
_chemical_formula_sum "Si O2"
_cell_formula_units_Z 6
_cell_length_a 5.187542
_cell_length_b 5.187521
_cell_length_c 9.540398
_cell_angle_alpha 109.390174
_cell_angle_beta 70.360606
_cell_angle_gamma 103.220672
_cell_volume 226.095773
_symmetry_space_group_name_H-M "P 1"
_symmetry_group_IT_number 1
_symmetry_cell_setting 'triclinic'
loop_
_space_group_symop_operation_xyz
x,y,z
loop_
_atom_site_type_symbol
_atom_site_label
_atom_site_fract_x
_atom_site_fract_y
_atom_site_fract_z
Si Si1 0.538530 0.729650 0.504560
Si Si2 0.198698 0.792092 0.818171
Si Si3 0.332567 0.222218 0.114433
Si Si4 0.081399 0.196000 0.428044
Si Si5 0.505566 0.836073 0.230625
Si Si6 0.701037 0.502901 0.701978
O O1 0.336442 0.897275 0.663617
O O2 0.333234 0.439556 0.466302
O O3 0.662568 0.822307 0.347706
O O4 0.750768 0.653339 0.568981
O O5 0.893916 0.652991 0.813440
O O6 0.386916 0.558129 0.792440
O O7 0.237869 0.034917 0.966303
O O8 0.072830 0.239029 0.268988
O O9 0.466937 0.531732 0.119164
O O10 0.540800 0.059732 0.140162
O O11 0.831886 0.228817 0.584898
O O12 0.222130 0.919341 0.363622
#
# Coordination Sequence:
#
# PCOD9000667 Si02
#       6
#     1   1   1   1   1   1
#     4   8  17  36  64  90 120 164 210 255 309 371
#     4   9  19  38  65  91 129 162 211 259 320 367
#     4   9  19  38  65  91 129 162 211 259 320 367
#     4   8  17  36  64  90 120 164 210 255 309 371
#     4   9  18  38  67  87 130 162 214 254 315 376
#     4   9  18  38  67  87 130 162 214 254 315 376
#
# _framework density 26.537427000000001
#
# number of rings (size 3 to 8) (size 9 to 14) (size 15 to 20)
#    2.000    1.333    0.000    0.000    0.000    0.000 
#   12.000    5.000   22.000    0.000    0.000    0.000 
#    0.000    0.000    0.000    0.000    0.000    0.000 
#
# Total GULP energy -33418.146680 kJ/mol
# GULP energy per Si atom -5569.691113 kJ/mol
# Density = 2.647703 g / cm^3
# Si number density = 26.537427 Si / 1000 Ang^3
#
#
#
# Elastic Constant Matrix: (Units=GPa)
#
#
# Indices 1 2 3 4 5 6 
#
# 1 111.4334 21.7740 35.6473 -8.2093 9.7461 -15.7270
# 2 21.7740 124.4915 38.7847 14.5401 -1.9388 -11.3389
# 3 35.6473 38.7847 212.7849 29.7576 30.3434 -4.4847
# 4 -8.2093 14.5401 29.7576 39.0733 -7.5453 -10.9228
# 5 9.7461 -1.9388 30.3434 -7.5453 35.8545 -16.2368
# 6 -15.7270 -11.3389 -4.4847 -10.9228 -16.2368 28.8696
#
#
#
# Elastic Compliance Matrix: (Units=1/GPa)
#
#
# Indices 1 2 3 4 5 6 
#
# 1 0.013805 -0.000330 -0.006048 0.016004 0.013926 0.020339
# 2 -0.000330 0.009540 -0.002787 0.002014 0.006914 0.007785
# 3 -0.006048 -0.002787 0.011953 -0.020478 -0.023598 -0.023552
# 4 0.016004 0.002014 -0.020478 0.074246 0.059439 0.067849
# 5 0.013926 0.006914 -0.023598 0.059439 0.094118 0.082059
# 6 0.020339 0.007785 -0.023552 0.067849 0.082059 0.116939
#
#
# Mechanical properties :
#
#
# Convention : Reuss Voigt Hill
#
# Bulk Modulus (GPa) = 58.93535 71.23577 65.08556
# Shear Modulus (GPa) = 14.51010 44.25974 29.38492
#
# Velocity S-wave (km/s) = 2.34087 4.08833 3.33122
# Velocity P-wave (km/s) = 5.43717 7.01339 6.27497
#
# Compressibility (1/GPa) = 0.01696775
#
# Stress axis : x y z
#
# Youngs Moduli (GPa) = 72.43944 104.81998 83.65969
#
# Poissons Ratio (x) = 0.03461 0.50596
# Poissons Ratio (y) = 0.02392 0.23317
# Poissons Ratio (z) = 0.43810 0.29214
#
# Static dielectric constant tensor:
#      x y z
#    x 2.228960 0.112760 0.008000 
#    y 0.112760 2.188470 0.010350 
#    z 0.008000 0.010350 2.160400 
# 
# From -- ./inp_files/129.got.cif
#   From: 2010.05.17/outbox.cif.g08.bks.cpg/sg1_1_cif.got.tgz:129.got - 2010.05.17 20:27:59.
