data_PCOD9000215
_publ_section_title
;
Structure prediction by ZEFSAII (Michael W. Deem and Ramdas Pophale) SiO2 
 PCOD9000215
Probable space group: P 1
;
_chemical_formula_sum "Si O2"
_cell_formula_units_Z 8
_cell_length_a 8.706281
_cell_length_b 7.221095
_cell_length_c 8.218183
_cell_angle_alpha 102.869003
_cell_angle_beta 131.245377
_cell_angle_gamma 101.097244
_cell_volume 335.701416
_symmetry_space_group_name_H-M "P 1"
_symmetry_group_IT_number 1
_symmetry_cell_setting 'triclinic'
loop_
_space_group_symop_operation_xyz
x,y,z
loop_
_atom_site_type_symbol
_atom_site_label
_atom_site_fract_x
_atom_site_fract_y
_atom_site_fract_z
Si Si1 0.685780 0.127550 0.352420
Si Si2 0.008372 0.577079 0.218084
Si Si3 0.446811 0.562122 0.657148
Si Si4 0.957432 0.225665 0.887123
Si Si5 0.125224 0.201982 0.549595
Si Si6 0.956794 0.904242 0.062409
Si Si7 0.804295 0.778796 0.367343
Si Si8 0.468836 0.418407 0.286819
O O1 0.507047 0.217122 0.222786
O O2 0.767648 0.160547 0.603935
O O3 0.924650 0.271157 0.451024
O O4 0.638280 0.887572 0.226908
O O5 0.857891 0.637754 0.247600
O O6 0.241807 0.616299 0.477002
O O7 0.053412 0.735269 0.125498
O O8 0.898606 0.341641 0.017651
O O9 0.366363 0.406881 0.727961
O O10 0.685509 0.771451 0.880529
O O11 0.472047 0.442577 0.489188
O O12 0.219650 0.386020 0.047043
O O13 0.980781 0.024587 0.935596
O O14 0.047867 0.004979 0.585748
O O15 0.074579 0.080053 0.318507
O O16 0.680975 0.629162 0.403712
#
# Coordination Sequence:
#
# PCOD9000215 Si02
#       8
#     1   1   1   1   1   1   1   1
#     4  10  23  43  63  94 138 169 212 279 329 382
#     4  10  22  43  67  95 134 171 223 273 318 401
#     4  11  22  42  71  98 128 179 221 268 331 391
#     4  11  24  41  66 101 129 170 229 264 323 402
#     4   9  21  45  63  94 138 163 221 271 314 400
#     4  11  22  42  68  95 130 175 217 268 328 383
#     4   9  22  42  63  94 136 169 207 276 330 375
#     4  11  22  40  69  93 135 172 214 275 331 380
#
# _framework density 23.830701999999999
#
# number of rings (size 3 to 8) (size 9 to 14) (size 15 to 20)
#    0.750    1.000    2.500    2.250    0.000    5.000 
#    6.750    0.000    0.000    0.000    0.000    0.000 
#    0.000    0.000    0.000    0.000    0.000    0.000 
#
# Total GULP energy -44605.911993 kJ/mol
# GULP energy per Si atom -5575.738999 kJ/mol
# Density = 2.377646 g / cm^3
# Si number density = 23.830702 Si / 1000 Ang^3
#
#
#
# Elastic Constant Matrix: (Units=GPa)
#
#
# Indices 1 2 3 4 5 6 
#
# 1 123.7119 60.0264 9.6366 6.5381 6.8797 -3.8340
# 2 60.0264 126.1651 16.3574 -2.4111 9.6748 11.3221
# 3 9.6366 16.3574 60.9799 6.7466 12.4573 -0.8622
# 4 6.5381 -2.4111 6.7466 26.9252 1.0346 3.4602
# 5 6.8797 9.6748 12.4573 1.0346 19.5647 2.8552
# 6 -3.8340 11.3221 -0.8622 3.4602 2.8552 59.0438
#
#
#
# Elastic Compliance Matrix: (Units=1/GPa)
#
#
# Indices 1 2 3 4 5 6 
#
# 1 0.011018 -0.005428 0.000454 -0.003477 -0.001593 0.002044
# 2 -0.005428 0.011244 -0.002133 0.003278 -0.002083 -0.002631
# 3 0.000454 -0.002133 0.019874 -0.005035 -0.011725 0.001591
# 4 -0.003477 0.003278 -0.005035 0.039921 0.001182 -0.003324
# 5 -0.001593 -0.002083 -0.011725 0.001182 0.060525 -0.002871
# 6 0.002044 -0.002631 0.001591 -0.003324 -0.002871 0.017931
#
#
# Mechanical properties :
#
#
# Convention : Reuss Voigt Hill
#
# Bulk Modulus (GPa) = 35.81473 53.65531 44.73502
# Shear Modulus (GPa) = 27.16906 36.09585 31.63245
#
# Velocity S-wave (km/s) = 3.38018 3.89611 3.64728
# Velocity P-wave (km/s) = 5.50414 6.54245 6.04563
#
# Compressibility (1/GPa) = 0.02792147
#
# Stress axis : x y z
#
# Youngs Moduli (GPa) = 90.76435 88.93806 50.31712
#
# Poissons Ratio (x) = 0.48279 -0.02285
# Poissons Ratio (y) = 0.49271 0.10730
# Poissons Ratio (z) = -0.04121 0.18967
#
# Static dielectric constant tensor:
#      x y z
#    x 1.924540 0.026710 -0.041920 
#    y 0.026710 1.948170 -0.009900 
#    z -0.041920 -0.009900 1.907390 
# 
# From -- ./inp_files/3925.got.cif
#   From: 2010.05.17/outbox.cif.g08.bks.cpg/sg1_2_cif.got.tgz:3925.got - 2010.05.17 20:27:59.
