data_PCOD9000613
_publ_section_title
;
Structure prediction by ZEFSAII (Michael W. Deem and Ramdas Pophale) SiO2 
 PCOD9000613
Probable space group: P 1
;
_chemical_formula_sum "Si O2"
_cell_formula_units_Z 8
_cell_length_a 7.909048
_cell_length_b 5.536561
_cell_length_c 10.353064
_cell_angle_alpha 90.839639
_cell_angle_beta 134.304250
_cell_angle_gamma 108.425823
_cell_volume 288.706603
_symmetry_space_group_name_H-M "P 1"
_symmetry_group_IT_number 1
_symmetry_cell_setting 'triclinic'
loop_
_space_group_symop_operation_xyz
x,y,z
loop_
_atom_site_type_symbol
_atom_site_label
_atom_site_fract_x
_atom_site_fract_y
_atom_site_fract_z
Si Si1 0.832100 0.352180 0.268300
Si Si2 0.801321 0.559519 0.991505
Si Si3 0.681464 0.899916 0.598046
Si Si4 0.482535 0.788198 0.976159
Si Si5 0.950441 0.673410 0.561693
Si Si6 0.411616 0.158675 0.339070
Si Si7 0.346977 0.347818 0.572694
Si Si8 0.118630 0.387825 0.989113
O O1 0.866690 0.618059 0.367281
O O2 0.056644 0.296522 0.454697
O O3 0.575077 0.064637 0.111066
O O4 0.902156 0.441197 0.159964
O O5 0.519102 0.337769 0.783431
O O6 0.719181 0.773319 0.018650
O O7 0.009691 0.594848 0.989876
O O8 0.898970 0.880867 0.621946
O O9 0.469798 0.901745 0.380075
O O10 0.521627 0.646699 0.605724
O O11 0.852375 0.152344 0.782956
O O12 0.337394 0.541651 0.997631
O O13 0.249490 0.739190 0.750420
O O14 0.715825 0.390996 0.488780
O O15 0.317094 0.158378 0.434760
O O16 0.240567 0.244152 0.151947
#
# Coordination Sequence:
#
# PCOD9000613 Si02
#       8
#     1   1   1   1   1   1   1   1
#     4  12  29  53  78 122 164 216 269 337 410 488
#     4  12  27  53  82 123 162 215 273 336 410 485
#     4  11  26  49  83 116 163 219 267 347 396 487
#     4  12  29  54  84 123 167 215 270 346 407 488
#     4  11  26  52  79 118 164 212 275 330 410 482
#     4  11  24  49  79 118 157 215 267 330 407 480
#     4  11  25  50  75 119 162 209 272 333 408 477
#     4  12  26  54  84 125 163 213 281 329 416 487
#
# _framework density 27.709790999999999
#
# number of rings (size 3 to 8) (size 9 to 14) (size 15 to 20)
#    0.000    0.500    5.000    1.500    5.250    5.000 
#    9.000    0.000    0.000    0.000    0.000    0.000 
#    0.000    0.000    0.000    0.000    0.000    0.000 
#
# Total GULP energy -44739.159796 kJ/mol
# GULP energy per Si atom -5592.394975 kJ/mol
# Density = 2.764672 g / cm^3
# Si number density = 27.709791 Si / 1000 Ang^3
#
#
#
# Elastic Constant Matrix: (Units=GPa)
#
#
# Indices 1 2 3 4 5 6 
#
# 1 105.7015 43.9767 33.1331 8.5498 -3.1313 -15.2127
# 2 43.9767 62.1359 42.3042 -2.1510 9.6665 4.7019
# 3 33.1331 42.3042 198.2855 11.9779 11.3852 -3.9503
# 4 8.5498 -2.1510 11.9779 29.1194 4.5077 7.9192
# 5 -3.1313 9.6665 11.3852 4.5077 45.4698 -3.1324
# 6 -15.2127 4.7019 -3.9503 7.9192 -3.1324 35.2962
#
#
#
# Elastic Compliance Matrix: (Units=1/GPa)
#
#
# Indices 1 2 3 4 5 6 
#
# 1 0.019468 -0.017037 0.001011 -0.012307 0.006904 0.014147
# 2 -0.017037 0.035255 -0.005407 0.016054 -0.010087 -0.017142
# 3 0.001011 -0.005407 0.006317 -0.004093 0.000236 0.002802
# 4 -0.012307 0.016054 -0.004093 0.047535 -0.009284 -0.019390
# 5 0.006904 -0.010087 0.000236 -0.009284 0.026076 0.008743
# 6 0.014147 -0.017142 0.002802 -0.019390 0.008743 0.042153
#
#
# Mechanical properties :
#
#
# Convention : Reuss Voigt Hill
#
# Bulk Modulus (GPa) = 55.02468 67.21675 61.12071
# Shear Modulus (GPa) = 22.15035 38.42433 30.28734
#
# Velocity S-wave (km/s) = 2.83038 3.72784 3.30967
# Velocity P-wave (km/s) = 5.53010 6.54516 6.05892
#
# Compressibility (1/GPa) = 0.01817366
#
# Stress axis : x y z
#
# Youngs Moduli (GPa) = 51.36561 28.36449 158.29144
#
# Poissons Ratio (x) = 0.48326 -0.15998
# Poissons Ratio (y) = 0.87514 0.85587
# Poissons Ratio (z) = -0.05191 0.15336
#
# Static dielectric constant tensor:
#      x y z
#    x 2.190460 -0.085900 0.010540 
#    y -0.085900 2.277400 -0.022280 
#    z 0.010540 -0.022280 2.082030 
# 
# From -- ./inp_files/6272.got.cif
#   From: 2010.05.17/outbox.cif.g08.bks.cpg/sg1_4_cif.got.tgz:6272.got - 2010.05.17 20:27:59.
