data_PCOD9000249
_publ_section_title
;
Structure prediction by ZEFSAII (Michael W. Deem and Ramdas Pophale) SiO2 
 PCOD9000249
Probable space group: P 1
;
_chemical_formula_sum "Si O2"
_cell_formula_units_Z 6
_cell_length_a 8.841401
_cell_length_b 5.234359
_cell_length_c 12.321147
_cell_angle_alpha 48.243478
_cell_angle_beta 145.861839
_cell_angle_gamma 127.354722
_cell_volume 236.602087
_symmetry_space_group_name_H-M "P 1"
_symmetry_group_IT_number 1
_symmetry_cell_setting 'triclinic'
loop_
_space_group_symop_operation_xyz
x,y,z
loop_
_atom_site_type_symbol
_atom_site_label
_atom_site_fract_x
_atom_site_fract_y
_atom_site_fract_z
Si Si1 0.122350 0.748840 0.696920
Si Si2 0.818379 0.876152 0.968835
Si Si3 0.047519 0.207171 0.317584
Si Si4 0.538859 0.487582 0.370881
Si Si5 0.383725 0.219444 0.120054
Si Si6 0.544499 0.236343 0.880952
O O1 0.829472 0.522234 0.592933
O O2 0.107347 0.945634 0.519025
O O3 0.232691 0.065667 0.755236
O O4 0.354526 0.505483 0.929803
O O5 0.628226 0.639060 0.838339
O O6 0.644632 0.135674 0.850973
O O7 0.965238 0.579143 0.204732
O O8 0.076647 0.101579 0.008011
O O9 0.291156 0.293013 0.351123
O O10 0.765936 0.066457 0.130943
O O11 0.534732 0.336100 0.289458
O O12 0.484889 0.885640 0.224154
#
# Coordination Sequence:
#
# PCOD9000249 Si02
#       6
#     1   1   1   1   1   1
#     4  12  27  43  76 113 131 187 242 288 346 420
#     4   9  20  46  70  90 141 189 215 282 352 404
#     4   9  23  47  70 100 141 187 226 288 346 416
#     4  11  26  49  70 104 145 185 230 291 352 417
#     4  11  24  49  71 101 147 181 233 294 345 412
#     4  10  22  44  69  98 141 179 228 283 347 407
#
# _framework density 25.359031000000002
#
# number of rings (size 3 to 8) (size 9 to 14) (size 15 to 20)
#    1.000    0.667    1.667    1.000    4.667    2.667 
#   12.000    0.000    0.000    0.000    0.000    0.000 
#    0.000    0.000    0.000    0.000    0.000    0.000 
#
# Total GULP energy -33486.789867 kJ/mol
# GULP energy per Si atom -5581.131644 kJ/mol
# Density = 2.530131 g / cm^3
# Si number density = 25.359031 Si / 1000 Ang^3
#
#
#
# Elastic Constant Matrix: (Units=GPa)
#
#
# Indices 1 2 3 4 5 6 
#
# 1 85.9281 32.9290 8.7237 18.5019 7.1087 2.4477
# 2 32.9290 119.6664 26.4626 44.6054 -10.1800 -0.8378
# 3 8.7237 26.4626 127.1343 27.2565 -5.9181 20.4440
# 4 18.5019 44.6054 27.2565 61.8952 6.7332 7.9894
# 5 7.1087 -10.1800 -5.9181 6.7332 25.7334 8.1743
# 6 2.4477 -0.8378 20.4440 7.9894 8.1743 38.7793
#
#
#
# Elastic Compliance Matrix: (Units=1/GPa)
#
#
# Indices 1 2 3 4 5 6 
#
# 1 0.013747 -0.003949 -0.000326 -0.000591 -0.005434 0.000486
# 2 -0.003949 0.013910 -0.000245 -0.009805 0.008837 0.000836
# 3 -0.000326 -0.000245 0.009891 -0.003925 0.005026 -0.005450
# 4 -0.000591 -0.009805 -0.003925 0.026499 -0.011167 -0.001211
# 5 -0.005434 0.008837 0.005026 -0.011167 0.051312 -0.010631
# 6 0.000486 0.000836 -0.005450 -0.001211 -0.010631 0.031138
#
#
# Mechanical properties :
#
#
# Convention : Reuss Voigt Hill
#
# Bulk Modulus (GPa) = 35.07840 52.10660 43.59250
# Shear Modulus (GPa) = 30.29580 42.92248 36.60914
#
# Velocity S-wave (km/s) = 3.46016 4.11857 3.80364
# Velocity P-wave (km/s) = 5.46135 6.57336 6.04299
#
# Compressibility (1/GPa) = 0.02850758
#
# Stress axis : x y z
#
# Youngs Moduli (GPa) = 72.74201 71.89059 101.10352
#
# Poissons Ratio (x) = 0.28392 0.03292
# Poissons Ratio (y) = 0.28728 0.02480
# Poissons Ratio (z) = 0.02368 0.01764
#
# Static dielectric constant tensor:
#      x y z
#    x 2.053380 0.008720 0.016860 
#    y 0.008720 2.074240 0.027760 
#    z 0.016860 0.027760 2.025000 
# 
# From -- ./inp_files/2058.got.cif
#   From: 2010.05.17/outbox.cif.g08.bks.cpg/sg1_2_cif.got.tgz:2058.got - 2010.05.17 20:27:59.
