data_PCOD9000024
_publ_section_title
;
Structure prediction by ZEFSAII (Michael W. Deem and Ramdas Pophale) SiO2 
 PCOD9000024
Probable space group: P 1
;
_chemical_formula_sum "Si O2"
_cell_formula_units_Z 8
_cell_length_a 8.103069
_cell_length_b 9.758627
_cell_length_c 7.298459
_cell_angle_alpha 90.917136
_cell_angle_beta 67.287248
_cell_angle_gamma 134.661678
_cell_volume 348.792766
_symmetry_space_group_name_H-M "P 1"
_symmetry_group_IT_number 1
_symmetry_cell_setting 'triclinic'
loop_
_space_group_symop_operation_xyz
x,y,z
loop_
_atom_site_type_symbol
_atom_site_label
_atom_site_fract_x
_atom_site_fract_y
_atom_site_fract_z
Si Si1 0.011720 0.265580 0.127220
Si Si2 0.245698 0.675505 0.068943
Si Si3 0.754545 0.452359 0.997710
Si Si4 0.029611 0.380644 0.702566
Si Si5 0.900719 0.840200 0.966303
Si Si6 0.849885 0.989460 0.654939
Si Si7 0.483234 0.813859 0.327259
Si Si8 0.170212 0.074186 0.194703
O O1 0.146495 0.469175 0.176062
O O2 0.178473 0.225282 0.090797
O O3 0.026821 0.314795 0.907355
O O4 0.699752 0.050760 0.310338
O O5 0.316311 0.789607 0.232325
O O6 0.993909 0.573336 0.048181
O O7 0.529704 0.823564 0.838765
O O8 0.808737 0.375382 0.809374
O O9 0.782424 0.628255 0.942846
O O10 0.453503 0.234196 0.185268
O O11 0.972432 0.214248 0.600759
O O12 0.294863 0.622047 0.542262
O O13 0.672539 0.806364 0.153944
O O14 0.111178 0.939438 0.047285
O O15 0.988967 0.982584 0.758999
O O16 0.922292 0.946889 0.440949
#
# Coordination Sequence:
#
# PCOD9000024 Si02
#       8
#     1   1   1   1   1   1   1   1
#     4  10  21  40  69  97 129 177 235 268 327 411
#     4  10  22  41  68  98 139 171 231 289 326 408
#     4  11  26  42  62 104 146 172 223 294 350 393
#     4  11  22  43  72 101 137 177 230 288 338 400
#     4  10  23  46  65  99 140 177 232 283 330 418
#     4  11  22  46  76  98 131 194 238 267 342 420
#     4  10  21  44  70  98 129 185 235 273 332 416
#     4  11  23  44  70  97 139 183 222 286 341 404
#
# _framework density 22.936254999999999
#
# number of rings (size 3 to 8) (size 9 to 14) (size 15 to 20)
#    0.000    1.500    3.750    3.000    8.750    0.000 
#    9.000    0.000    0.000    0.000    0.000    0.000 
#    0.000    0.000    0.000    0.000    0.000    0.000 
#
# Total GULP energy -44597.100988 kJ/mol
# GULP energy per Si atom -5574.637623 kJ/mol
# Density = 2.288405 g / cm^3
# Si number density = 22.936255 Si / 1000 Ang^3
#
#
#
# Elastic Constant Matrix: (Units=GPa)
#
#
# Indices 1 2 3 4 5 6 
#
# 1 38.3598 22.7597 17.8102 -3.3321 5.4161 7.4961
# 2 22.7597 125.4816 31.9409 -15.6217 6.9954 16.1143
# 3 17.8102 31.9409 97.3544 -24.1556 19.8810 5.0202
# 4 -3.3321 -15.6217 -24.1556 44.6492 0.3486 -4.4364
# 5 5.4161 6.9954 19.8810 0.3486 22.7984 -2.3730
# 6 7.4961 16.1143 5.0202 -4.4364 -2.3730 46.1767
#
#
#
# Elastic Compliance Matrix: (Units=1/GPa)
#
#
# Indices 1 2 3 4 5 6 
#
# 1 0.031408 -0.004276 -0.003938 -0.001605 -0.003054 -0.003490
# 2 -0.004276 0.009761 -0.001636 0.001980 -0.000831 -0.002387
# 3 -0.003938 -0.001636 0.016128 0.007915 -0.012794 -0.000440
# 4 -0.001605 0.001980 0.007915 0.027406 -0.007448 0.000959
# 5 -0.003054 -0.000831 -0.012794 -0.007448 0.056568 0.004368
# 6 -0.003490 -0.002387 -0.000440 0.000959 0.004368 0.023420
#
#
# Mechanical properties :
#
#
# Convention : Reuss Voigt Hill
#
# Bulk Modulus (GPa) = 26.59728 45.13527 35.86628
# Shear Modulus (GPa) = 25.39078 35.30387 30.34732
#
# Velocity S-wave (km/s) = 3.33079 3.92754 3.64141
# Velocity P-wave (km/s) = 5.13942 6.34734 5.77505
#
# Compressibility (1/GPa) = 0.03759783
#
# Stress axis : x y z
#
# Youngs Moduli (GPa) = 31.83917 102.45230 62.00348
#
# Poissons Ratio (x) = 0.43807 0.24414
# Poissons Ratio (y) = 0.13614 0.10144
# Poissons Ratio (z) = 0.12537 0.16761
#
# Static dielectric constant tensor:
#      x y z
#    x 1.935980 0.041820 0.001230 
#    y 0.041820 1.932880 0.030340 
#    z 0.001230 0.030340 1.889110 
# 
# From -- ./inp_files/4704.got.cif
#   From: 2010.05.17/outbox.cif.g08.bks.cpg/sg1_3_cif.got.tgz:4704.got - 2010.05.17 20:27:59.
