data_PCOD9000697
_publ_section_title
;
Structure prediction by ZEFSAII (Michael W. Deem and Ramdas Pophale) SiO2 
 PCOD9000697
Probable space group: P 1
;
_chemical_formula_sum "Si O2"
_cell_formula_units_Z 6
_cell_length_a 5.675816
_cell_length_b 9.346100
_cell_length_c 9.345064
_cell_angle_alpha 31.111735
_cell_angle_beta 98.774396
_cell_angle_gamma 81.240471
_cell_volume 210.755097
_symmetry_space_group_name_H-M "P 1"
_symmetry_group_IT_number 1
_symmetry_cell_setting 'triclinic'
loop_
_space_group_symop_operation_xyz
x,y,z
loop_
_atom_site_type_symbol
_atom_site_label
_atom_site_fract_x
_atom_site_fract_y
_atom_site_fract_z
Si Si1 0.621090 0.902630 0.358070
Si Si2 0.304279 0.373503 0.562820
Si Si3 0.737835 0.355438 0.268890
Si Si4 0.804280 0.378521 0.567825
Si Si5 0.120690 0.583582 0.038332
Si Si6 0.238231 0.672084 0.586261
O O1 0.709889 0.642518 0.459610
O O2 0.417215 0.835565 0.492332
O O3 0.930042 0.826662 0.499714
O O4 0.433256 0.278754 0.966569
O O5 0.644470 0.196061 0.744554
O O6 0.209758 0.481818 0.298687
O O7 0.189648 0.677121 0.405440
O O8 0.144474 0.196773 0.745299
O O9 0.689523 0.536063 0.264031
O O10 0.429548 0.442244 0.114035
O O11 0.916929 0.449150 0.105573
O O12 0.932656 0.975101 0.662242
#
# Coordination Sequence:
#
# PCOD9000697 Si02
#       6
#     1   1   1   1   1   1
#     4  10  19  28  37  46  55  64  73  82  91 100
#     4   8  16  24  34  42  52  60  70  78  88  96
#     4  10  19  28  37  46  55  64  73  82  91 100
#     4   8  16  24  34  42  52  60  70  78  88  96
#     4  10  19  28  37  46  55  64  73  82  91 100
#     4  10  19  28  37  46  55  64  73  82  91 100
#
# _framework density 28.469065000000001
#
# number of rings (size 3 to 8) (size 9 to 14) (size 15 to 20)
#    0.000    2.667    0.000    2.000    0.000   24.000 
#    0.000    0.000    0.000    0.000    0.000    0.000 
#    0.000    0.000    0.000    0.000    0.000    0.000 
#
# Total GULP energy -33591.090675 kJ/mol
# GULP energy per Si atom -5598.515113 kJ/mol
# Density = 2.840427 g / cm^3
# Si number density = 28.469065 Si / 1000 Ang^3
#
#
#
# Elastic Constant Matrix: (Units=GPa)
#
#
# Indices 1 2 3 4 5 6 
#
# 1 416.4578 17.2821 106.0433 -18.2670 20.7089 -4.1651
# 2 17.2821 112.1264 -1.5994 24.3846 3.2432 -0.0065
# 3 106.0433 -1.5994 158.2023 -33.8809 7.5838 -2.0457
# 4 -18.2670 24.3846 -33.8809 9.6510 -1.1298 -1.2940
# 5 20.7089 3.2432 7.5838 -1.1298 61.6427 -3.8064
# 6 -4.1651 -0.0065 -2.0457 -1.2940 -3.8064 42.8822
#
#
#
# Elastic Compliance Matrix: (Units=1/GPa)
#
#
# Indices 1 2 3 4 5 6 
#
# 1 0.002953 -0.000570 -0.001841 0.000505 -0.000717 0.000151
# 2 -0.000570 -0.007217 0.016549 0.075671 0.000109 0.003026
# 3 -0.001841 0.016549 -0.008392 -0.075240 -0.000779 -0.002916
# 4 0.000505 0.075671 -0.075240 -0.352949 -0.002251 -0.014379
# 5 -0.000717 0.000109 -0.000779 -0.002251 0.016592 0.001298
# 6 0.000151 0.003026 -0.002916 -0.014379 0.001298 0.022877
#
#
# Mechanical properties :
#
#
# Convention : Reuss Voigt Hill
#
# Bulk Modulus (GPa) = 64.01962 103.35985 83.68973
# Shear Modulus (GPa) = -14.31825 60.50588 23.09382
#
# Velocity S-wave (km/s) = -2.24507 4.61512 2.85123
# Velocity P-wave (km/s) = 3.97691 8.04885 6.34822
#
# Compressibility (1/GPa) = 0.01562021
#
# Stress axis : x y z
#
# Youngs Moduli (GPa) = 338.65440 -138.56349 -119.16404
#
# Poissons Ratio (x) = -0.07905 -0.21933
# Poissons Ratio (y) = 0.19319 1.97206
# Poissons Ratio (z) = 0.62333 2.29310
#
# Static dielectric constant tensor:
#      x y z
#    x 2.256070 -0.006170 0.030610 
#    y -0.006170 2.271540 0.044890 
#    z 0.030610 0.044890 2.056270 
# 
# From -- ./inp_files/2320.got.cif
#   From: 2010.05.17/outbox.cif.g08.bks.cpg/sg1_2_cif.got.tgz:2320.got - 2010.05.17 20:27:59.
