data_PCOD9000894
_publ_section_title
;
Structure prediction by ZEFSAII (Michael W. Deem and Ramdas Pophale) SiO2 
 PCOD9000894
Probable space group: P 1
;
_chemical_formula_sum "Si O2"
_cell_formula_units_Z 8
_cell_length_a 9.814519
_cell_length_b 5.274324
_cell_length_c 11.881640
_cell_angle_alpha 75.445430
_cell_angle_beta 142.788311
_cell_angle_gamma 116.936736
_cell_volume 324.697177
_symmetry_space_group_name_H-M "P 1"
_symmetry_group_IT_number 1
_symmetry_cell_setting 'triclinic'
loop_
_space_group_symop_operation_xyz
x,y,z
loop_
_atom_site_type_symbol
_atom_site_label
_atom_site_fract_x
_atom_site_fract_y
_atom_site_fract_z
Si Si1 0.241600 0.883270 0.826390
Si Si2 0.059069 0.379351 0.100889
Si Si3 0.488685 0.251516 0.417825
Si Si4 0.768041 0.914953 0.123678
Si Si5 0.739910 0.634628 0.747513
Si Si6 0.098268 0.672876 0.333878
Si Si7 0.943712 0.191264 0.717795
Si Si8 0.215657 0.244580 0.557083
O O1 0.099131 0.535070 0.783289
O O2 0.210759 0.026340 0.673631
O O3 0.526192 0.925690 0.013827
O O4 0.124944 0.049653 0.811142
O O5 0.290902 0.329032 0.211946
O O6 0.135490 0.535505 0.256044
O O7 0.835483 0.082164 0.029962
O O8 0.965459 0.565386 0.942413
O O9 0.653379 0.522917 0.575758
O O10 0.683058 0.161594 0.491168
O O11 0.309177 0.997505 0.412613
O O12 0.813024 0.633070 0.154219
O O13 0.993162 0.054470 0.346383
O O14 0.500100 0.427190 0.683864
O O15 0.819455 0.979133 0.767191
O O16 0.146471 0.519719 0.491986
#
# Coordination Sequence:
#
# PCOD9000894 Si02
#       8
#     1   1   1   1   1   1   1   1
#     4  12  29  49  68 105 152 192 230 296 359 440
#     4  10  22  40  70 113 137 181 240 308 351 414
#     4  11  21  46  70 103 151 181 240 295 360 415
#     4  10  23  43  68 106 142 183 237 302 354 419
#     4  12  22  46  75 108 139 188 246 297 355 423
#     4  10  20  41  72 108 142 176 241 314 344 416
#     4  12  28  49  71 102 154 193 231 290 368 432
#     4  11  23  44  76 103 133 190 247 296 351 417
#
# _framework density 24.638342000000002
#
# number of rings (size 3 to 8) (size 9 to 14) (size 15 to 20)
#    0.000    1.000    7.500    0.000    5.250    2.000 
#    2.250    2.500    0.000    0.000    0.000    0.000 
#    0.000    0.000    0.000    0.000    0.000    0.000 
#
# Total GULP energy -44552.675573 kJ/mol
# GULP energy per Si atom -5569.084447 kJ/mol
# Density = 2.458226 g / cm^3
# Si number density = 24.638342 Si / 1000 Ang^3
#
#
#
# Elastic Constant Matrix: (Units=GPa)
#
#
# Indices 1 2 3 4 5 6 
#
# 1 90.9989 28.9387 51.0761 -0.8377 44.5446 1.1774
# 2 28.9387 143.4876 45.7791 -28.6740 1.7577 3.4654
# 3 51.0761 45.7791 154.0304 -26.8960 49.7730 6.2814
# 4 -0.8377 -28.6740 -26.8960 35.0429 -4.3992 7.2468
# 5 44.5446 1.7577 49.7730 -4.3992 59.3690 -12.2129
# 6 1.1774 3.4654 6.2814 7.2468 -12.2129 23.4744
#
#
#
# Elastic Compliance Matrix: (Units=1/GPa)
#
#
# Indices 1 2 3 4 5 6 
#
# 1 0.021287 -0.004555 -0.000465 -0.004093 -0.017409 -0.008065
# 2 -0.004555 0.009861 -0.001765 0.007319 0.005070 -0.000376
# 3 -0.000465 -0.001765 0.013730 0.010200 -0.013101 -0.013355
# 4 -0.004093 0.007319 0.010200 0.045806 -0.006666 -0.021213
# 5 -0.017409 0.005070 -0.013101 -0.006666 0.046379 0.029818
# 6 -0.008065 -0.000376 -0.013355 -0.021213 0.029818 0.068695
#
#
# Mechanical properties :
#
#
# Convention : Reuss Voigt Hill
#
# Bulk Modulus (GPa) = 31.94153 71.12276 51.53214
# Shear Modulus (GPa) = 21.76137 41.09214 31.42675
#
# Velocity S-wave (km/s) = 2.97515 4.08832 3.57532
# Velocity P-wave (km/s) = 4.97939 7.15648 6.16480
#
# Compressibility (1/GPa) = 0.03130721
#
# Stress axis : x y z
#
# Youngs Moduli (GPa) = 46.97619 101.41303 72.83174
#
# Poissons Ratio (x) = 0.46190 0.03390
# Poissons Ratio (y) = 0.21396 0.12858
# Poissons Ratio (z) = 0.02186 0.17904
#
# Static dielectric constant tensor:
#      x y z
#    x 2.138660 -0.165980 0.053780 
#    y -0.165980 2.215960 -0.037880 
#    z 0.053780 -0.037880 1.969400 
# 
# From -- ./inp_files/1716.got.cif
#   From: 2010.05.17/outbox.cif.g08.bks.cpg/sg1_1_cif.got.tgz:1716.got - 2010.05.17 20:27:59.
