data_PCOD9000768
_publ_section_title
;
Structure prediction by ZEFSAII (Michael W. Deem and Ramdas Pophale) SiO2 
 PCOD9000768
Probable space group: P 1
;
_chemical_formula_sum "Si O2"
_cell_formula_units_Z 8
_cell_length_a 7.556331
_cell_length_b 7.221918
_cell_length_c 9.523932
_cell_angle_alpha 116.981274
_cell_angle_beta 130.661867
_cell_angle_gamma 85.118746
_cell_volume 333.865944
_symmetry_space_group_name_H-M "P 1"
_symmetry_group_IT_number 1
_symmetry_cell_setting 'triclinic'
loop_
_space_group_symop_operation_xyz
x,y,z
loop_
_atom_site_type_symbol
_atom_site_label
_atom_site_fract_x
_atom_site_fract_y
_atom_site_fract_z
Si Si1 0.878720 0.008420 0.997330
Si Si2 0.069172 0.168270 0.845415
Si Si3 0.628799 0.379577 0.259902
Si Si4 0.075523 0.633250 0.012749
Si Si5 0.917549 0.066195 0.348832
Si Si6 0.451856 0.116703 0.704746
Si Si7 0.787193 0.575544 0.110964
Si Si8 0.581050 0.827016 0.429703
O O1 0.602616 0.019466 0.861187
O O2 0.781207 0.492311 0.238332
O O3 0.998564 0.104836 0.239258
O O4 0.904252 0.768335 0.915758
O O5 0.168007 0.086707 0.566501
O O6 0.002226 0.134347 0.965654
O O7 0.362570 0.225070 0.015875
O O8 0.024147 0.390856 0.848342
O O9 0.585075 0.583787 0.390404
O O10 0.770689 0.235109 0.361434
O O11 0.360372 0.767617 0.182451
O O12 0.027093 0.614424 0.150576
O O13 0.864439 0.965506 0.598558
O O14 0.751626 0.812757 0.177648
O O15 0.586875 0.377068 0.861037
O O16 0.496687 0.984481 0.546923
#
# Coordination Sequence:
#
# PCOD9000768 Si02
#       8
#     1   1   1   1   1   1   1   1
#     4  10  20  40  71  96 124 175 224 274 317 383
#     4  10  22  42  64  96 140 168 222 269 327 405
#     4  11  25  43  64  98 146 172 204 286 342 378
#     4  10  19  40  68  97 129 171 221 278 323 381
#     4  11  24  45  68  98 136 175 226 273 329 394
#     4  11  21  43  72  98 127 174 236 263 322 404
#     4  11  22  42  67  98 133 172 223 273 323 399
#     4  10  21  41  68  99 127 171 228 268 323 398
#
# _framework density 23.961714000000001
#
# number of rings (size 3 to 8) (size 9 to 14) (size 15 to 20)
#    0.000    1.500    6.250    0.000    0.000    4.000 
#    4.500   16.250    0.000    0.000    0.000    0.000 
#    0.000    0.000    0.000    0.000    0.000    0.000 
#
# Total GULP energy -44632.682160 kJ/mol
# GULP energy per Si atom -5579.085270 kJ/mol
# Density = 2.390718 g / cm^3
# Si number density = 23.961714 Si / 1000 Ang^3
#
#
#
# Elastic Constant Matrix: (Units=GPa)
#
#
# Indices 1 2 3 4 5 6 
#
# 1 123.1669 54.2236 45.6250 -0.9231 18.6955 -13.5852
# 2 54.2236 211.3759 54.2838 23.5760 29.1979 -31.6404
# 3 45.6250 54.2838 104.6903 19.9108 29.9212 -1.6626
# 4 -0.9231 23.5760 19.9108 40.9634 2.3648 3.5387
# 5 18.6955 29.1979 29.9212 2.3648 36.7672 -3.9859
# 6 -13.5852 -31.6404 -1.6626 3.5387 -3.9859 37.6770
#
#
#
# Elastic Compliance Matrix: (Units=1/GPa)
#
#
# Indices 1 2 3 4 5 6 
#
# 1 0.010735 -0.001630 -0.004173 0.003084 -0.000755 0.001948
# 2 -0.001630 0.007124 -0.001349 -0.003778 -0.002904 0.005383
# 3 -0.004173 -0.001349 0.016004 -0.006333 -0.009679 -0.002361
# 4 0.003084 -0.003778 -0.006333 0.029902 0.004153 -0.004710
# 5 -0.000755 -0.002904 -0.009679 0.004153 0.037546 0.000444
# 6 0.001948 0.005383 -0.002361 -0.004710 0.000444 0.032149
#
#
# Mechanical properties :
#
#
# Convention : Reuss Voigt Hill
#
# Bulk Modulus (GPa) = 51.13120 83.05531 67.09326
# Shear Modulus (GPa) = 32.40783 42.08823 37.24803
#
# Velocity S-wave (km/s) = 3.68160 4.19558 3.94697
# Velocity P-wave (km/s) = 6.28150 7.62938 6.98802
#
# Compressibility (1/GPa) = 0.01955753
#
# Stress axis : x y z
#
# Youngs Moduli (GPa) = 93.15182 140.37252 62.48587
#
# Poissons Ratio (x) = 0.22884 0.26075
# Poissons Ratio (y) = 0.15186 0.08432
# Poissons Ratio (z) = 0.38871 0.18943
#
# Static dielectric constant tensor:
#      x y z
#    x 1.962900 0.005760 -0.061280 
#    y 0.005760 1.890000 -0.008010 
#    z -0.061280 -0.008010 1.975870 
# 
# From -- ./inp_files/6326.got.cif
#   From: 2010.05.17/outbox.cif.g08.bks.cpg/sg1_4_cif.got.tgz:6326.got - 2010.05.17 20:27:59.
