data_PCOD9000060
_publ_section_title
;
Structure prediction by ZEFSAII (Michael W. Deem and Ramdas Pophale) SiO2 
 PCOD9000060
Probable space group: P 1
;
_chemical_formula_sum "Si O2"
_cell_formula_units_Z 8
_cell_length_a 7.579224
_cell_length_b 7.178551
_cell_length_c 9.518439
_cell_angle_alpha 124.262149
_cell_angle_beta 52.059641
_cell_angle_gamma 97.827031
_cell_volume 319.558627
_symmetry_space_group_name_H-M "P 1"
_symmetry_group_IT_number 1
_symmetry_cell_setting 'triclinic'
loop_
_space_group_symop_operation_xyz
x,y,z
loop_
_atom_site_type_symbol
_atom_site_label
_atom_site_fract_x
_atom_site_fract_y
_atom_site_fract_z
Si Si1 0.802170 0.174230 0.947520
Si Si2 0.574730 0.050170 0.734635
Si Si3 0.486027 0.322378 0.420417
Si Si4 0.489881 0.796182 0.141359
Si Si5 0.044890 0.632685 0.359197
Si Si6 0.378905 0.718086 0.844531
Si Si7 0.963216 0.624596 0.715179
Si Si8 0.178399 0.378701 0.912825
O O1 0.639795 0.174210 0.893264
O O2 0.031196 0.250125 0.843156
O O3 0.640854 0.333722 0.214307
O O4 0.906881 0.908609 0.847758
O O5 0.450090 0.222214 0.743677
O O6 0.389764 0.915077 0.812538
O O7 0.826782 0.852116 0.501387
O O8 0.542261 0.473939 0.584932
O O9 0.216156 0.473337 0.582809
O O10 0.498188 0.045197 0.308053
O O11 0.436678 0.817245 0.007498
O O12 0.753934 0.608820 0.914224
O O13 0.283470 0.711492 0.275922
O O14 0.976061 0.561713 0.515725
O O15 0.087629 0.428342 0.137260
O O16 0.161610 0.631206 0.959802
#
# Coordination Sequence:
#
# PCOD9000060 Si02
#       8
#     1   1   1   1   1   1   1   1
#     4  10  22  42  67 102 137 174 241 282 335 435
#     4  11  22  47  69  95 147 183 222 299 349 402
#     4  11  22  41  70  93 135 189 214 291 364 386
#     4  10  23  43  62 101 140 166 241 287 329 433
#     4  10  22  41  69  95 138 177 231 290 336 424
#     4  11  23  44  66 101 141 171 239 289 330 429
#     4  10  21  42  66  98 132 180 227 282 351 408
#     4  11  25  42  69 105 134 186 235 282 354 415
#
# _framework density 25.034526
#
# number of rings (size 3 to 8) (size 9 to 14) (size 15 to 20)
#    0.000    1.500    3.750    2.250    3.500    2.000 
#    2.250    7.500    0.000    0.000    0.000    0.000 
#    0.000    0.000    0.000    0.000    0.000    0.000 
#
# Total GULP energy -44640.957341 kJ/mol
# GULP energy per Si atom -5580.119668 kJ/mol
# Density = 2.497755 g / cm^3
# Si number density = 25.034526 Si / 1000 Ang^3
#
#
#
# Elastic Constant Matrix: (Units=GPa)
#
#
# Indices 1 2 3 4 5 6 
#
# 1 92.5947 52.7727 28.7531 -13.9565 -8.5395 16.8405
# 2 52.7727 106.0166 39.3193 0.2701 -3.7964 17.0639
# 3 28.7531 39.3193 108.0754 -12.1072 3.5330 -12.1256
# 4 -13.9565 0.2701 -12.1072 16.3851 9.3252 -0.6340
# 5 -8.5395 -3.7964 3.5330 9.3252 53.8371 2.4646
# 6 16.8405 17.0639 -12.1256 -0.6340 2.4646 34.8036
#
#
#
# Elastic Compliance Matrix: (Units=1/GPa)
#
#
# Indices 1 2 3 4 5 6 
#
# 1 0.019165 -0.008427 -0.000865 0.015604 0.000036 -0.005162
# 2 -0.008427 0.017399 -0.006621 -0.014434 0.003157 -0.007246
# 3 -0.000865 -0.006621 0.014506 0.012841 -0.004204 0.009250
# 4 0.015604 -0.014434 0.012841 0.093342 -0.015866 0.006824
# 5 0.000036 0.003157 -0.004204 -0.015866 0.022050 -0.004880
# 6 -0.005162 -0.007246 0.009250 0.006824 -0.004880 0.038476
#
#
# Mechanical properties :
#
#
# Convention : Reuss Voigt Hill
#
# Bulk Modulus (GPa) = 51.96647 60.93077 56.44862
# Shear Modulus (GPa) = 20.56100 33.39460 26.97780
#
# Velocity S-wave (km/s) = 2.86895 3.65628 3.28628
# Velocity P-wave (km/s) = 5.63715 6.49739 6.08250
#
# Compressibility (1/GPa) = 0.01924318
#
# Stress axis : x y z
#
# Youngs Moduli (GPa) = 52.17822 57.47472 68.93821
#
# Poissons Ratio (x) = 0.48432 0.05966
# Poissons Ratio (y) = 0.43969 0.45646
# Poissons Ratio (z) = 0.04515 0.38056
#
# Static dielectric constant tensor:
#      x y z
#    x 2.056250 0.055370 0.007510 
#    y 0.055370 1.991500 -0.023050 
#    z 0.007510 -0.023050 2.013520 
# 
# From -- ./inp_files/6389.got.cif
#   From: 2010.05.17/outbox.cif.g08.bks.cpg/sg1_4_cif.got.tgz:6389.got - 2010.05.17 20:27:59.
