data_PCOD9000091
_publ_section_title
;
Structure prediction by ZEFSAII (Michael W. Deem and Ramdas Pophale) SiO2 
 PCOD9000091
Probable space group: P 1
;
_chemical_formula_sum "Si O2"
_cell_formula_units_Z 8
_cell_length_a 5.391656
_cell_length_b 8.164365
_cell_length_c 13.289378
_cell_angle_alpha 44.397700
_cell_angle_beta 120.440851
_cell_angle_gamma 122.808949
_cell_volume 336.813911
_symmetry_space_group_name_H-M "P 1"
_symmetry_group_IT_number 1
_symmetry_cell_setting 'triclinic'
loop_
_space_group_symop_operation_xyz
x,y,z
loop_
_atom_site_type_symbol
_atom_site_label
_atom_site_fract_x
_atom_site_fract_y
_atom_site_fract_z
Si Si1 0.989320 0.829390 0.532620
Si Si2 0.622814 0.004839 0.619320
Si Si3 0.691098 0.780737 0.105392
Si Si4 0.315030 0.106260 0.987928
Si Si5 0.978930 0.550265 0.442627
Si Si6 0.724990 0.527615 0.801780
Si Si7 0.297438 0.372882 0.058054
Si Si8 0.476855 0.969881 0.369226
O O1 0.986733 0.686728 0.490753
O O2 0.801196 0.624561 0.662137
O O3 0.822966 0.031408 0.380237
O O4 0.281572 0.955583 0.608436
O O5 0.726573 0.765793 0.763905
O O6 0.529452 0.989099 0.489955
O O7 0.863185 0.264160 0.567889
O O8 0.783208 0.617500 0.282999
O O9 0.495399 0.606138 0.056384
O O10 0.492446 0.927076 0.059003
O O11 0.985933 0.955518 0.029556
O O12 0.453087 0.280872 0.035383
O O13 0.394932 0.326520 0.825791
O O14 0.316425 0.699024 0.411143
O O15 0.988702 0.417556 0.939975
O O16 0.271889 0.138954 0.225577
#
# Coordination Sequence:
#
# PCOD9000091 Si02
#       8
#     1   1   1   1   1   1   1   1
#     4  10  24  45  72 105 146 206 247 316 386 450
#     4  10  23  44  70 105 148 192 253 303 383 460
#     4  12  28  46  82 120 148 206 262 322 397 457
#     4  12  26  51  74 112 162 200 257 322 386 463
#     4  11  22  45  72 111 144 194 257 320 382 456
#     4  11  25  51  70 108 160 208 247 314 390 463
#     4  12  25  49  78 115 157 199 256 325 385 462
#     4  10  21  43  72 102 145 187 245 320 379 435
#
# _framework density 23.751988999999998
#
# number of rings (size 3 to 8) (size 9 to 14) (size 15 to 20)
#    0.000    1.000    3.750    1.500    1.750    4.000 
#   13.500    0.000    0.000    0.000    0.000    0.000 
#    0.000    0.000    0.000    0.000    0.000    0.000 
#
# Total GULP energy -44541.770007 kJ/mol
# GULP energy per Si atom -5567.721251 kJ/mol
# Density = 2.369793 g / cm^3
# Si number density = 23.751989 Si / 1000 Ang^3
#
#
#
# Elastic Constant Matrix: (Units=GPa)
#
#
# Indices 1 2 3 4 5 6 
#
# 1 100.3919 44.2312 42.5681 -10.9984 1.8999 6.0847
# 2 44.2312 141.9219 40.7263 -15.8561 7.4022 4.4265
# 3 42.5681 40.7263 102.1458 -17.0139 16.3276 20.4427
# 4 -10.9984 -15.8561 -17.0139 43.3496 1.0779 -5.8906
# 5 1.8999 7.4022 16.3276 1.0779 41.7581 -1.3158
# 6 6.0847 4.4265 20.4427 -5.8906 -1.3158 20.9530
#
#
#
# Elastic Compliance Matrix: (Units=1/GPa)
#
#
# Indices 1 2 3 4 5 6 
#
# 1 0.013211 -0.002780 -0.004978 0.000591 0.001883 0.001892
# 2 -0.002780 0.008745 -0.002268 0.001842 -0.000532 0.001657
# 3 -0.004978 -0.002268 0.017200 0.002856 -0.006626 -0.014469
# 4 0.000591 0.001842 0.002856 0.025568 -0.002013 0.003714
# 5 0.001883 -0.000532 -0.006626 -0.002013 0.026824 0.007149
# 6 0.001892 0.001657 -0.014469 0.003714 0.007149 0.062436
#
#
# Mechanical properties :
#
#
# Convention : Reuss Voigt Hill
#
# Bulk Modulus (GPa) = 52.34716 66.61230 59.47973
# Shear Modulus (GPa) = 27.71556 35.67440 31.69498
#
# Velocity S-wave (km/s) = 3.41966 3.87971 3.65693
# Velocity P-wave (km/s) = 6.13832 6.94085 6.55188
#
# Compressibility (1/GPa) = 0.01910323
#
# Stress axis : x y z
#
# Youngs Moduli (GPa) = 75.69373 114.34856 58.14102
#
# Poissons Ratio (x) = 0.31788 0.28945
# Poissons Ratio (y) = 0.21042 0.13187
# Poissons Ratio (z) = 0.37683 0.25935
#
# Static dielectric constant tensor:
#      x y z
#    x 2.828930 0.193350 -0.071080 
#    y 0.193350 1.915970 -0.047760 
#    z -0.071080 -0.047760 2.024350 
# 
# From -- ./inp_files/7001.got.cif
#   From: 2010.05.17/outbox.cif.g08.bks.cpg/sg1_4_cif.got.tgz:7001.got - 2010.05.17 20:27:59.
