data_PCOD9000836
_publ_section_title
;
Structure prediction by ZEFSAII (Michael W. Deem and Ramdas Pophale) SiO2 
 PCOD9000836
Probable space group: P 1
;
_chemical_formula_sum "Si O2"
_cell_formula_units_Z 8
_cell_length_a 9.097539
_cell_length_b 12.222737
_cell_length_c 7.462515
_cell_angle_alpha 56.966716
_cell_angle_beta 85.720651
_cell_angle_gamma 38.621480
_cell_volume 321.834474
_symmetry_space_group_name_H-M "P 1"
_symmetry_group_IT_number 1
_symmetry_cell_setting 'triclinic'
loop_
_space_group_symop_operation_xyz
x,y,z
loop_
_atom_site_type_symbol
_atom_site_label
_atom_site_fract_x
_atom_site_fract_y
_atom_site_fract_z
Si Si1 0.633690 0.783900 0.843480
Si Si2 0.847120 0.909462 0.425615
Si Si3 0.283958 0.182623 0.193137
Si Si4 0.867753 0.359319 0.786715
Si Si5 0.438184 0.737933 0.176184
Si Si6 0.500085 0.427976 0.936692
Si Si7 0.241386 0.616482 0.198442
Si Si8 0.583595 0.095877 0.693110
O O1 0.530932 0.981996 0.810509
O O2 0.420101 0.975493 0.515186
O O3 0.572925 0.693114 0.021306
O O4 0.013200 0.489901 0.031105
O O5 0.713091 0.003440 0.557944
O O6 0.218186 0.593752 0.689577
O O7 0.600207 0.010337 0.256788
O O8 0.792718 0.099562 0.200578
O O9 0.088947 0.270152 0.974674
O O10 0.679438 0.584427 0.450509
O O11 0.609171 0.483741 0.815293
O O12 0.098824 0.071413 0.934210
O O13 0.402554 0.610060 0.290767
O O14 0.371753 0.527571 0.062485
O O15 0.311885 0.416177 0.441223
O O16 0.865310 0.924324 0.945602
#
# Coordination Sequence:
#
# PCOD9000836 Si02
#       8
#     1   1   1   1   1   1   1   1
#     4  11  22  41  69  98 125 166 217 268 320 382
#     4   9  18  35  63  94 118 150 209 271 313 364
#     4  11  22  41  69  98 125 166 217 268 320 382
#     4  12  26  42  60  94 137 174 211 262 319 382
#     4  12  26  42  60  94 137 174 211 262 319 382
#     4  10  20  38  64  90 120 162 211 261 314 374
#     4  10  20  38  64  90 120 162 211 261 314 374
#     4   9  18  35  63  94 118 150 209 271 313 364
#
# _framework density 24.857496999999999
#
# number of rings (size 3 to 8) (size 9 to 14) (size 15 to 20)
#    0.000    1.500    0.000    7.500    0.000    3.000 
#    0.000    5.000    0.000    0.000    0.000    0.000 
#    0.000    0.000    0.000    0.000    0.000    0.000 
#
# Total GULP energy -44781.669595 kJ/mol
# GULP energy per Si atom -5597.708699 kJ/mol
# Density = 2.480092 g / cm^3
# Si number density = 24.857497 Si / 1000 Ang^3
#
#
#
# Elastic Constant Matrix: (Units=GPa)
#
#
# Indices 1 2 3 4 5 6 
#
# 1 87.3314 12.9535 15.2765 15.7067 15.2387 13.9991
# 2 12.9535 59.6329 15.8839 9.2534 0.9176 -8.3189
# 3 15.2765 15.8839 138.6300 -3.5739 14.2013 -5.0863
# 4 15.7067 9.2534 -3.5739 29.2765 3.1045 2.7302
# 5 15.2387 0.9176 14.2013 3.1045 47.0586 0.7094
# 6 13.9991 -8.3189 -5.0863 2.7302 0.7094 27.3590
#
#
#
# Elastic Compliance Matrix: (Units=1/GPa)
#
#
# Indices 1 2 3 4 5 6 
#
# 1 0.015284 -0.003083 -0.001392 -0.006204 -0.003935 -0.008295
# 2 -0.003083 0.019921 -0.001955 -0.005764 0.001462 0.007809
# 3 -0.001392 -0.001955 0.007918 0.002421 -0.002081 0.001402
# 4 -0.006204 -0.005764 0.002421 0.039926 -0.001212 -0.002081
# 5 -0.003935 0.001462 -0.002081 -0.001212 0.023180 0.001591
# 6 -0.008295 0.007809 0.001402 -0.002081 0.001591 0.043597
#
#
# Mechanical properties :
#
#
# Convention : Reuss Voigt Hill
#
# Bulk Modulus (GPa) = 33.04406 41.53578 37.28992
# Shear Modulus (GPa) = 28.93982 36.83752 32.88867
#
# Velocity S-wave (km/s) = 3.41578 3.85378 3.64137
# Velocity P-wave (km/s) = 5.37392 6.04550 5.71957
#
# Compressibility (1/GPa) = 0.03026263
#
# Stress axis : x y z
#
# Youngs Moduli (GPa) = 65.42965 50.19858 126.29601
#
# Poissons Ratio (x) = 0.15476 0.17583
# Poissons Ratio (y) = 0.20172 0.24686
# Poissons Ratio (z) = 0.09109 0.09812
#
# Static dielectric constant tensor:
#      x y z
#    x 1.967430 0.010560 -0.021600 
#    y 0.010560 2.026690 0.036570 
#    z -0.021600 0.036570 1.900290 
# 
# From -- ./inp_files/4917.got.cif
#   From: 2010.05.17/outbox.cif.g08.bks.cpg/sg1_3_cif.got.tgz:4917.got - 2010.05.17 20:27:59.
