data_PCOD9000225
_publ_section_title
;
Structure prediction by ZEFSAII (Michael W. Deem and Ramdas Pophale) SiO2 
 PCOD9000225
Probable space group: P 1
;
_chemical_formula_sum "Si O2"
_cell_formula_units_Z 8
_cell_length_a 5.176909
_cell_length_b 9.988876
_cell_length_c 7.462849
_cell_angle_alpha 126.352696
_cell_angle_beta 65.875754
_cell_angle_gamma 96.997819
_cell_volume 279.830289
_symmetry_space_group_name_H-M "P 1"
_symmetry_group_IT_number 1
_symmetry_cell_setting 'triclinic'
loop_
_space_group_symop_operation_xyz
x,y,z
loop_
_atom_site_type_symbol
_atom_site_label
_atom_site_fract_x
_atom_site_fract_y
_atom_site_fract_z
Si Si1 0.308490 0.301750 0.748140
Si Si2 0.184755 0.565868 0.757443
Si Si3 0.525344 0.035139 0.715430
Si Si4 0.356071 0.592569 0.228856
Si Si5 0.092927 0.845235 0.264940
Si Si6 0.977273 0.011987 0.045975
Si Si7 0.708581 0.309314 0.119127
Si Si8 0.777698 0.694466 0.686003
O O1 0.300475 0.371748 0.608223
O O2 0.473579 0.120800 0.603845
O O3 0.422842 0.444120 0.946229
O O4 0.990850 0.299834 0.908354
O O5 0.456036 0.661079 0.728512
O O6 0.929421 0.573748 0.701085
O O7 0.036212 0.670684 0.052406
O O8 0.833471 0.925163 0.529037
O O9 0.523045 0.183900 0.978066
O O10 0.260440 0.955520 0.796439
O O11 0.531580 0.497278 0.273432
O O12 0.364247 0.768811 0.257287
O O13 0.022186 0.631749 0.418096
O O14 0.071167 0.969477 0.193549
O O15 0.840889 0.203311 0.175791
O O16 0.781268 0.880063 0.917825
#
# Coordination Sequence:
#
# PCOD9000225 Si02
#       8
#     1   1   1   1   1   1   1   1
#     4   9  22  44  65  97 139 185 233 288 348 421
#     4  10  25  44  67 103 144 184 235 297 345 426
#     4  10  22  45  68 100 139 183 233 287 356 413
#     4  10  23  41  70  98 136 185 231 286 357 415
#     4  10  23  43  70 100 139 180 235 285 353 416
#     4  10  24  45  69 100 142 181 231 296 345 423
#     4  10  22  43  69  96 141 181 234 291 346 422
#     4  11  25  43  70 104 144 181 238 294 354 416
#
# _framework density 28.588760000000001
#
# number of rings (size 3 to 8) (size 9 to 14) (size 15 to 20)
#    0.000    2.000    0.000    0.750   14.000    2.000 
#   18.000    0.000    0.000    0.000    0.000    0.000 
#    0.000    0.000    0.000    0.000    0.000    0.000 
#
# Total GULP energy -44637.542144 kJ/mol
# GULP energy per Si atom -5579.692768 kJ/mol
# Density = 2.852369 g / cm^3
# Si number density = 28.588760 Si / 1000 Ang^3
#
#
#
# Elastic Constant Matrix: (Units=GPa)
#
#
# Indices 1 2 3 4 5 6 
#
# 1 99.1883 76.7686 34.0193 14.6266 -23.7358 -17.3765
# 2 76.7686 240.7011 34.7801 17.0121 -24.6626 -69.9729
# 3 34.0193 34.7801 105.4826 6.0035 -21.9300 -11.9410
# 4 14.6266 17.0121 6.0035 29.7640 -9.9136 -10.2099
# 5 -23.7358 -24.6626 -21.9300 -9.9136 51.3371 9.5887
# 6 -17.3765 -69.9729 -11.9410 -10.2099 9.5887 69.3980
#
#
#
# Elastic Compliance Matrix: (Units=1/GPa)
#
#
# Indices 1 2 3 4 5 6 
#
# 1 0.015649 -0.004603 -0.002838 -0.004127 0.003443 -0.002294
# 2 -0.004603 0.007522 -0.000237 0.000287 0.000244 0.006399
# 3 -0.002838 -0.000237 0.011207 0.000597 0.003364 0.000602
# 4 -0.004127 0.000287 0.000597 0.038528 0.005118 0.004320
# 5 0.003443 0.000244 0.003364 0.005118 0.023771 -0.000844
# 6 -0.002294 0.006399 0.000602 0.004320 -0.000844 0.021143
#
#
# Mechanical properties :
#
#
# Convention : Reuss Voigt Hill
#
# Bulk Modulus (GPa) = 52.57191 81.83424 67.20308
# Shear Modulus (GPa) = 35.83789 50.08676 42.96233
#
# Velocity S-wave (km/s) = 3.54441 4.19020 3.88076
# Velocity P-wave (km/s) = 5.93123 7.21783 6.60593
#
# Compressibility (1/GPa) = 0.01902156
#
# Stress axis : x y z
#
# Youngs Moduli (GPa) = 63.90349 132.94320 89.22807
#
# Poissons Ratio (x) = 0.61199 0.25324
# Poissons Ratio (y) = 0.29417 0.02111
# Poissons Ratio (z) = 0.18136 0.03146
#
# Static dielectric constant tensor:
#      x y z
#    x 2.216430 -0.100660 0.057630 
#    y -0.100660 2.403350 -0.113490 
#    z 0.057630 -0.113490 2.266140 
# 
# From -- ./inp_files/3181.got.cif
#   From: 2010.05.17/outbox.cif.g08.bks.cpg/sg1_2_cif.got.tgz:3181.got - 2010.05.17 20:27:59.
