data_PCOD9000983
_publ_section_title
;
Structure prediction by ZEFSAII (Michael W. Deem and Ramdas Pophale) SiO2 
 PCOD9000983
Probable space group: P 1
;
_chemical_formula_sum "Si O2"
_cell_formula_units_Z 8
_cell_length_a 7.332121
_cell_length_b 7.088838
_cell_length_c 8.515661
_cell_angle_alpha 125.655051
_cell_angle_beta 108.271306
_cell_angle_gamma 97.571365
_cell_volume 311.848383
_symmetry_space_group_name_H-M "P 1"
_symmetry_group_IT_number 1
_symmetry_cell_setting 'triclinic'
loop_
_space_group_symop_operation_xyz
x,y,z
loop_
_atom_site_type_symbol
_atom_site_label
_atom_site_fract_x
_atom_site_fract_y
_atom_site_fract_z
Si Si1 0.895500 0.418850 0.634280
Si Si2 0.563224 0.888967 0.377553
Si Si3 0.234291 0.134699 0.425647
Si Si4 0.978099 0.290427 0.018781
Si Si5 0.288058 0.441316 0.889244
Si Si6 0.129198 0.581731 0.489955
Si Si7 0.840912 0.843979 0.991472
Si Si8 0.543543 0.953626 0.763861
O O1 0.779943 0.121942 0.499086
O O2 0.144738 0.552489 0.805919
O O3 0.915184 0.478501 0.483414
O O4 0.795228 0.565099 0.784918
O O5 0.388964 0.005191 0.356687
O O6 0.555729 0.826842 0.533322
O O7 0.494072 0.645151 0.126608
O O8 0.300594 0.240307 0.670814
O O9 0.243367 0.388852 0.462741
O O10 0.993325 0.937465 0.226811
O O11 0.072172 0.535985 0.270847
O O12 0.976871 0.044447 0.991013
O O13 0.120727 0.320804 0.924000
O O14 0.729843 0.225541 0.908271
O O15 0.300479 0.864366 0.692524
O O16 0.628222 0.879580 0.915003
#
# Coordination Sequence:
#
# PCOD9000983 Si02
#       8
#     1   1   1   1   1   1   1   1
#     4  11  22  40  65 102 128 168 222 269 324 383
#     4  12  23  42  69  97 133 174 213 270 328 386
#     4  10  23  41  66  97 129 175 215 266 324 383
#     4   9  20  40  61  88 137 166 209 266 323 377
#     4  11  22  43  66  95 135 172 216 268 326 387
#     4  10  21  39  65  93 130 173 214 266 318 388
#     4   9  20  42  64  93 133 171 211 272 321 385
#     4  10  21  39  66  89 131 175 206 267 330 373
#
# _framework density 25.653490000000001
#
# number of rings (size 3 to 8) (size 9 to 14) (size 15 to 20)
#    0.750    1.000    3.750    0.750    0.000    3.000 
#    4.500    1.250    0.000    0.000    0.000    0.000 
#    0.000    0.000    0.000    0.000    0.000    0.000 
#
# Total GULP energy -44545.615080 kJ/mol
# GULP energy per Si atom -5568.201885 kJ/mol
# Density = 2.559510 g / cm^3
# Si number density = 25.653490 Si / 1000 Ang^3
#
#
#
# Elastic Constant Matrix: (Units=GPa)
#
#
# Indices 1 2 3 4 5 6 
#
# 1 57.5470 25.7963 49.0111 8.9650 5.3820 18.0654
# 2 25.7963 84.1927 22.4626 -3.5346 5.0537 11.4258
# 3 49.0111 22.4626 169.6409 0.2121 24.4485 21.4963
# 4 8.9650 -3.5346 0.2121 27.1902 10.1451 5.6229
# 5 5.3820 5.0537 24.4485 10.1451 39.8785 5.0332
# 6 18.0654 11.4258 21.4963 5.6229 5.0332 47.5719
#
#
#
# Elastic Compliance Matrix: (Units=1/GPa)
#
#
# Indices 1 2 3 4 5 6 
#
# 1 0.030392 -0.007290 -0.007885 -0.011781 0.005335 -0.005399
# 2 -0.007290 0.014494 0.000724 0.005518 -0.002521 -0.001425
# 3 -0.007885 0.000724 0.009051 0.005007 -0.005691 -0.001259
# 4 -0.011781 0.005518 0.005007 0.047144 -0.013765 -0.003230
# 5 0.005335 -0.002521 -0.005691 -0.013765 0.031740 -0.000580
# 6 -0.005399 -0.001425 -0.001259 -0.003230 -0.000580 0.024426
#
#
# Mechanical properties :
#
#
# Convention : Reuss Voigt Hill
#
# Bulk Modulus (GPa) = 39.94578 56.21341 48.07960
# Shear Modulus (GPa) = 25.70770 37.20216 31.45493
#
# Velocity S-wave (km/s) = 3.16905 3.81225 3.50544
# Velocity P-wave (km/s) = 5.38476 6.42945 5.93015
#
# Compressibility (1/GPa) = 0.02503393
#
# Stress axis : x y z
#
# Youngs Moduli (GPa) = 32.90338 68.99192 110.49090
#
# Poissons Ratio (x) = 0.50297 0.87124
# Poissons Ratio (y) = 0.23988 -0.07999
# Poissons Ratio (z) = 0.25945 -0.04995
#
# Static dielectric constant tensor:
#      x y z
#    x 2.084940 -0.031590 0.028930 
#    y -0.031590 2.092110 -0.077610 
#    z 0.028930 -0.077610 2.114760 
# 
# From -- ./inp_files/4429.got.cif
#   From: 2010.05.17/outbox.cif.g08.bks.cpg/sg1_3_cif.got.tgz:4429.got - 2010.05.17 20:27:59.
