data_PCOD9000773
_publ_section_title
;
Structure prediction by ZEFSAII (Michael W. Deem and Ramdas Pophale) SiO2 
 PCOD9000773
Probable space group: P 1
;
_chemical_formula_sum "Si O2"
_cell_formula_units_Z 8
_cell_length_a 12.929844
_cell_length_b 9.051686
_cell_length_c 7.746688
_cell_angle_alpha 57.483159
_cell_angle_beta 147.741534
_cell_angle_gamma 134.398381
_cell_volume 342.255361
_symmetry_space_group_name_H-M "P 1"
_symmetry_group_IT_number 1
_symmetry_cell_setting 'triclinic'
loop_
_space_group_symop_operation_xyz
x,y,z
loop_
_atom_site_type_symbol
_atom_site_label
_atom_site_fract_x
_atom_site_fract_y
_atom_site_fract_z
Si Si1 0.079540 0.774700 0.112830
Si Si2 0.652937 0.178445 0.098826
Si Si3 0.572975 0.409692 0.126502
Si Si4 0.408803 0.648535 0.558797
Si Si5 0.810334 0.965125 0.682749
Si Si6 0.045373 0.596581 0.527280
Si Si7 0.195141 0.391703 0.107740
Si Si8 0.608119 0.346127 0.603470
O O1 0.306620 0.791318 0.352497
O O2 0.111155 0.766448 0.369510
O O3 0.001280 0.935949 0.879997
O O4 0.854473 0.560406 0.855514
O O5 0.515002 0.246570 0.988657
O O6 0.913258 0.381556 0.364372
O O7 0.660903 0.993966 0.311699
O O8 0.598112 0.173940 0.824036
O O9 0.557996 0.310199 0.352448
O O10 0.845813 0.578173 0.376751
O O11 0.452582 0.538689 0.849514
O O12 0.640559 0.776142 0.689522
O O13 0.216760 0.457145 0.293542
O O14 0.954346 0.179021 0.859854
O O15 0.213321 0.574048 0.901129
O O16 0.407632 0.372626 0.375422
#
# Coordination Sequence:
#
# PCOD9000773 Si02
#       8
#     1   1   1   1   1   1   1   1
#     4  11  22  42  69 100 140 174 227 282 336 405
#     4   8  19  39  65  91 141 174 216 288 322 398
#     4  10  19  40  72  97 133 179 228 279 332 407
#     4  12  23  44  71 102 134 182 226 281 339 405
#     4  11  23  45  65 100 146 170 227 288 331 402
#     4   8  17  38  63  95 130 175 218 276 330 395
#     4  11  21  41  72  92 140 186 215 284 339 394
#     4  11  20  41  71 101 130 184 229 266 349 404
#
# _framework density 23.374358999999998
#
# number of rings (size 3 to 8) (size 9 to 14) (size 15 to 20)
#    0.750    1.000    3.750    1.500    0.000    1.000 
#    2.250    1.250    5.500    0.000    0.000    0.000 
#    0.000    0.000    0.000    0.000    0.000    0.000 
#
# Total GULP energy -44618.516825 kJ/mol
# GULP energy per Si atom -5577.314603 kJ/mol
# Density = 2.332116 g / cm^3
# Si number density = 23.374359 Si / 1000 Ang^3
#
#
#
# Elastic Constant Matrix: (Units=GPa)
#
#
# Indices 1 2 3 4 5 6 
#
# 1 84.7012 14.6700 32.3476 -13.0168 -6.9432 6.7333
# 2 14.6700 68.4055 47.8826 1.0117 -11.5370 -8.6296
# 3 32.3476 47.8826 127.6787 -29.6230 -7.5908 6.4268
# 4 -13.0168 1.0117 -29.6230 42.7397 2.0745 -1.5587
# 5 -6.9432 -11.5370 -7.5908 2.0745 47.5752 -11.3685
# 6 6.7333 -8.6296 6.4268 -1.5587 -11.3685 15.3451
#
#
#
# Elastic Compliance Matrix: (Units=1/GPa)
#
#
# Indices 1 2 3 4 5 6 
#
# 1 0.013883 -0.003403 -0.001141 0.003278 -0.001025 -0.007954
# 2 -0.003403 0.033087 -0.015234 -0.011761 0.014158 0.035775
# 3 -0.001141 -0.015234 0.017066 0.011460 -0.006069 -0.018546
# 4 0.003278 -0.011761 0.011460 0.032379 -0.005155 -0.013382
# 5 -0.001025 0.014158 -0.006069 -0.005155 0.031656 0.033882
# 6 -0.007954 0.035775 -0.018546 -0.013382 0.033882 0.120286
#
#
# Mechanical properties :
#
#
# Convention : Reuss Voigt Hill
#
# Bulk Modulus (GPa) = 40.85076 52.28732 46.56904
# Shear Modulus (GPa) = 16.88770 33.52435 25.20603
#
# Velocity S-wave (km/s) = 2.69083 3.79124 3.28741
# Velocity P-wave (km/s) = 5.21237 6.44847 5.86308
#
# Compressibility (1/GPa) = 0.02447935
#
# Stress axis : x y z
#
# Youngs Moduli (GPa) = 72.02799 30.22358 58.59681
#
# Poissons Ratio (x) = 0.10287 0.06686
# Poissons Ratio (y) = 0.24515 0.89265
# Poissons Ratio (z) = 0.08219 0.46042
#
# Static dielectric constant tensor:
#      x y z
#    x 1.889020 -0.005110 0.001120 
#    y -0.005110 1.925760 -0.005810 
#    z 0.001120 -0.005810 1.888690 
# 
# From -- ./inp_files/5751.got.cif
#   From: 2010.05.17/outbox.cif.g08.bks.cpg/sg1_3_cif.got.tgz:5751.got - 2010.05.17 20:27:59.
