data_PCOD9000641
_publ_section_title
;
Structure prediction by ZEFSAII (Michael W. Deem and Ramdas Pophale) SiO2 
 PCOD9000641
Probable space group: P 1
;
_chemical_formula_sum "Si O2"
_cell_formula_units_Z 8
_cell_length_a 11.192220
_cell_length_b 9.518922
_cell_length_c 11.670916
_cell_angle_alpha 138.504309
_cell_angle_beta 155.279696
_cell_angle_gamma 39.493834
_cell_volume 325.263757
_symmetry_space_group_name_H-M "P 1"
_symmetry_group_IT_number 1
_symmetry_cell_setting 'triclinic'
loop_
_space_group_symop_operation_xyz
x,y,z
loop_
_atom_site_type_symbol
_atom_site_label
_atom_site_fract_x
_atom_site_fract_y
_atom_site_fract_z
Si Si1 0.225380 0.170260 0.236480
Si Si2 0.607387 0.971099 0.814471
Si Si3 0.805435 0.892368 0.698825
Si Si4 0.122153 0.413030 0.705401
Si Si5 0.333720 0.978438 0.969125
Si Si6 0.509220 0.355277 0.224840
Si Si7 0.162050 0.749032 0.322143
Si Si8 0.966479 0.684106 0.358344
O O1 0.122713 0.418904 0.351284
O O2 0.566256 0.042343 0.494037
O O3 0.198046 0.143534 0.058893
O O4 0.018920 0.027574 0.012777
O O5 0.407127 0.230535 0.782396
O O6 0.639158 0.858112 0.648670
O O7 0.379909 0.882372 0.634849
O O8 0.922430 0.894946 0.109410
O O9 0.988552 0.645286 0.662590
O O10 0.841201 0.333011 0.452293
O O11 0.272893 0.460411 0.982256
O O12 0.463101 0.124035 0.083399
O O13 0.114148 0.858759 0.648642
O O14 0.615236 0.775192 0.138536
O O15 0.393018 0.522337 0.331558
O O16 0.991215 0.699058 0.251278
#
# Coordination Sequence:
#
# PCOD9000641 Si02
#       8
#     1   1   1   1   1   1   1   1
#     4  12  28  48  70 100 140 192 242 290 338 410
#     4  12  25  43  71 104 140 180 228 287 352 420
#     4  12  26  46  70  98 142 190 240 284 342 408
#     4  12  25  43  71 104 140 180 228 287 352 420
#     4  12  26  46  74 105 140 182 233 292 356 419
#     4  12  22  44  72 106 143 177 221 292 363 420
#     4  12  22  44  72 106 143 177 221 292 363 420
#     4  12  26  46  74 105 140 182 233 292 356 419
#
# _framework density 24.595424999999999
#
# number of rings (size 3 to 8) (size 9 to 14) (size 15 to 20)
#    0.000    0.000    3.750    7.500    0.000    3.000 
#    0.000    0.000    0.000    0.000    0.000    0.000 
#    0.000    0.000    0.000    0.000    0.000    0.000 
#
# Total GULP energy -44774.309965 kJ/mol
# GULP energy per Si atom -5596.788746 kJ/mol
# Density = 2.453944 g / cm^3
# Si number density = 24.595425 Si / 1000 Ang^3
#
#
#
# Elastic Constant Matrix: (Units=GPa)
#
#
# Indices 1 2 3 4 5 6 
#
# 1 42.7324 2.5840 5.8143 3.3988 3.1429 -6.1456
# 2 2.5840 149.4166 28.3824 7.8401 0.8724 -13.4203
# 3 5.8143 28.3824 117.1532 -7.1089 3.3566 -2.5297
# 4 3.3988 7.8401 -7.1089 37.3771 -4.0346 -1.0865
# 5 3.1429 0.8724 3.3566 -4.0346 33.5689 4.2719
# 6 -6.1456 -13.4203 -2.5297 -1.0865 4.2719 34.1394
#
#
#
# Elastic Compliance Matrix: (Units=1/GPa)
#
#
# Indices 1 2 3 4 5 6 
#
# 1 0.024698 0.000417 -0.001301 -0.002780 -0.003140 0.004818
# 2 0.000417 0.007399 -0.001850 -0.001928 -0.000643 0.002866
# 3 -0.001301 -0.001850 0.009192 0.002200 -0.000465 -0.000152
# 4 -0.002780 -0.001928 0.002200 0.028196 0.003561 -0.000644
# 5 -0.003140 -0.000643 -0.000465 0.003561 0.031165 -0.004639
# 6 0.004818 0.002866 -0.000152 -0.000644 -0.004639 0.031834
#
#
# Mechanical properties :
#
#
# Convention : Reuss Voigt Hill
#
# Bulk Modulus (GPa) = 27.91675 42.54043 35.22859
# Shear Modulus (GPa) = 33.35699 39.18519 36.27109
#
# Velocity S-wave (km/s) = 3.68669 3.99581 3.84436
# Velocity P-wave (km/s) = 5.43114 6.21468 5.83608
#
# Compressibility (1/GPa) = 0.03582079
#
# Stress axis : x y z
#
# Youngs Moduli (GPa) = 40.48868 135.14976 108.78836
#
# Poissons Ratio (x) = -0.05636 0.14159
# Poissons Ratio (y) = -0.01689 0.20126
# Poissons Ratio (z) = 0.05270 0.25002
#
# Static dielectric constant tensor:
#      x y z
#    x 2.004270 0.014330 0.023950 
#    y 0.014330 1.996010 0.039150 
#    z 0.023950 0.039150 1.907690 
# 
# From -- ./inp_files/7318.got.cif
#   From: 2010.05.17/outbox.cif.g08.bks.cpg/sg1_4_cif.got.tgz:7318.got - 2010.05.17 20:27:59.
