data_PCOD9000251
_publ_section_title
;
Structure prediction by ZEFSAII (Michael W. Deem and Ramdas Pophale) SiO2 
 PCOD9000251
Probable space group: P 1
;
_chemical_formula_sum "Si O2"
_cell_formula_units_Z 8
_cell_length_a 5.278124
_cell_length_b 13.592232
_cell_length_c 11.482965
_cell_angle_alpha 31.967423
_cell_angle_beta 67.334237
_cell_angle_gamma 55.384414
_cell_volume 350.019735
_symmetry_space_group_name_H-M "P 1"
_symmetry_group_IT_number 1
_symmetry_cell_setting 'triclinic'
loop_
_space_group_symop_operation_xyz
x,y,z
loop_
_atom_site_type_symbol
_atom_site_label
_atom_site_fract_x
_atom_site_fract_y
_atom_site_fract_z
Si Si1 0.443860 0.458820 0.018680
Si Si2 0.372614 0.767176 0.902895
Si Si3 0.684015 0.852264 0.981677
Si Si4 0.312458 0.289638 0.722446
Si Si5 0.379100 0.069069 0.407618
Si Si6 0.597273 0.580322 0.469790
Si Si7 0.090916 0.702883 0.629423
Si Si8 0.092371 0.260037 0.025325
O O1 0.327879 0.294875 0.237124
O O2 0.728323 0.326645 0.010477
O O3 0.549037 0.545499 0.022377
O O4 0.203590 0.664039 0.781912
O O5 0.281225 0.956937 0.635864
O O6 0.583772 0.787958 0.944025
O O7 0.052282 0.781695 0.991821
O O8 0.599989 0.736835 0.214566
O O9 0.487303 0.106954 0.779769
O O10 0.493075 0.419845 0.589933
O O11 0.949883 0.448372 0.592128
O O12 0.296372 0.173433 0.960969
O O13 0.211804 0.119389 0.261249
O O14 0.746865 0.904311 0.482192
O O15 0.343705 0.701688 0.495873
O O16 0.080203 0.486630 0.819644
#
# Coordination Sequence:
#
# PCOD9000251 Si02
#       8
#     1   1   1   1   1   1   1   1
#     4  11  24  44  71 104 143 181 234 298 359 423
#     4  12  28  50  67 103 149 189 246 286 335 433
#     4  12  29  48  72 100 143 198 243 283 341 429
#     4  11  25  48  74 107 143 178 241 297 359 426
#     4  11  26  42  73 106 142 195 224 299 367 418
#     4  11  25  46  75 105 142 188 229 304 357 414
#     4  10  22  44  70 110 147 173 236 297 371 425
#     4  10  23  42  72 109 139 176 233 302 363 424
#
# _framework density 22.855854999999998
#
# number of rings (size 3 to 8) (size 9 to 14) (size 15 to 20)
#    0.000    1.000    2.500    2.250    7.000    6.000 
#    0.000    0.000    0.000    0.000    0.000    0.000 
#    0.000    0.000    0.000    0.000    0.000    0.000 
#
# Total GULP energy -44779.680218 kJ/mol
# GULP energy per Si atom -5597.460027 kJ/mol
# Density = 2.280383 g / cm^3
# Si number density = 22.855855 Si / 1000 Ang^3
#
#
#
# Elastic Constant Matrix: (Units=GPa)
#
#
# Indices 1 2 3 4 5 6 
#
# 1 95.7233 15.9757 22.5703 -0.5469 -2.3388 3.5334
# 2 15.9757 84.0026 15.9717 0.8584 -9.5776 4.5161
# 3 22.5703 15.9717 124.1670 15.2015 -7.9935 0.6077
# 4 -0.5469 0.8584 15.2015 22.2989 -7.4417 -5.6374
# 5 -2.3388 -9.5776 -7.9935 -7.4417 41.9568 -2.0606
# 6 3.5334 4.5161 0.6077 -5.6374 -2.0606 47.5231
#
#
#
# Elastic Compliance Matrix: (Units=1/GPa)
#
#
# Indices 1 2 3 4 5 6 
#
# 1 0.011239 -0.001735 -0.002011 0.001639 0.000116 -0.000446
# 2 -0.001735 0.012823 -0.001281 0.001038 0.002730 -0.000832
# 3 -0.002011 -0.001281 0.009395 -0.006491 0.000204 -0.000610
# 4 0.001639 0.001038 -0.006491 0.053951 0.008988 0.006652
# 5 0.000116 0.002730 0.000204 0.008988 0.026191 0.001931
# 6 -0.000446 -0.000832 -0.000610 0.006652 0.001931 0.022035
#
#
# Mechanical properties :
#
#
# Convention : Reuss Voigt Hill
#
# Bulk Modulus (GPa) = 42.72926 45.88091 44.30508
# Shear Modulus (GPa) = 32.57539 38.98077 35.77808
#
# Velocity S-wave (km/s) = 3.77935 4.13426 3.96078
# Velocity P-wave (km/s) = 6.14657 6.55035 6.35167
#
# Compressibility (1/GPa) = 0.02340317
#
# Stress axis : x y z
#
# Youngs Moduli (GPa) = 88.97528 77.98328 106.44197
#
# Poissons Ratio (x) = 0.13527 0.21404
# Poissons Ratio (y) = 0.15434 0.13640
# Poissons Ratio (z) = 0.17892 0.09993
#
# Static dielectric constant tensor:
#      x y z
#    x 1.863090 0.021360 -0.020830 
#    y 0.021360 1.851320 0.002070 
#    z -0.020830 0.002070 1.830260 
# 
# From -- ./inp_files/437.got.cif
#   From: 2010.05.17/outbox.cif.g08.bks.cpg/sg1_1_cif.got.tgz:437.got - 2010.05.17 20:27:59.
