data_PCOD9000772
_publ_section_title
;
Structure prediction by ZEFSAII (Michael W. Deem and Ramdas Pophale) SiO2 
 PCOD9000772
Probable space group: P 1
;
_chemical_formula_sum "Si O2"
_cell_formula_units_Z 8
_cell_length_a 9.602469
_cell_length_b 8.054060
_cell_length_c 7.128226
_cell_angle_alpha 121.369861
_cell_angle_beta 121.286982
_cell_angle_gamma 39.958865
_cell_volume 294.937859
_symmetry_space_group_name_H-M "P 1"
_symmetry_group_IT_number 1
_symmetry_cell_setting 'triclinic'
loop_
_space_group_symop_operation_xyz
x,y,z
loop_
_atom_site_type_symbol
_atom_site_label
_atom_site_fract_x
_atom_site_fract_y
_atom_site_fract_z
Si Si1 0.294390 0.045540 0.561700
Si Si2 0.684218 0.816338 0.962280
Si Si3 0.959533 0.660149 0.581320
Si Si4 0.615225 0.318528 0.263578
Si Si5 0.495180 0.878931 0.234233
Si Si6 0.322808 0.448308 0.440265
Si Si7 0.738243 0.204653 0.865163
Si Si8 0.953074 0.260160 0.735012
O O1 0.353990 0.191122 0.287695
O O2 0.171595 0.034843 0.637776
O O3 0.518181 0.949196 0.749136
O O4 0.359089 0.893819 0.320015
O O5 0.700394 0.024396 0.164680
O O6 0.909737 0.523295 0.896967
O O7 0.561478 0.775098 0.006902
O O8 0.738461 0.736110 0.398399
O O9 0.129859 0.359201 0.591498
O O10 0.089970 0.665003 0.507601
O O11 0.874889 0.893243 0.800438
O O12 0.649933 0.345660 0.087109
O O13 0.377363 0.497071 0.305880
O O14 0.759975 0.341822 0.508371
O O15 0.524542 0.341614 0.661778
O O16 0.912796 0.195299 0.869058
#
# Coordination Sequence:
#
# PCOD9000772 Si02
#       8
#     1   1   1   1   1   1   1   1
#     4  11  23  42  67 100 135 173 224 273 325 394
#     4  11  24  45  69  95 133 178 220 271 332 392
#     4  10  19  40  70  97 130 173 221 274 327 390
#     4  10  21  43  67  92 130 174 216 265 327 389
#     4   9  20  38  64  95 129 170 218 268 324 388
#     4   8  18  36  61  96 129 162 216 270 318 389
#     4  10  21  40  62  95 136 170 215 273 328 387
#     4  11  26  42  64 100 136 170 220 274 323 393
#
# _framework density 27.124358000000001
#
# number of rings (size 3 to 8) (size 9 to 14) (size 15 to 20)
#    0.000    2.000    0.000    4.500    0.000    8.000 
#    0.000   17.500    0.000    0.000    0.000    0.000 
#    0.000    0.000    0.000    0.000    0.000    0.000 
#
# Total GULP energy -44773.834778 kJ/mol
# GULP energy per Si atom -5596.729347 kJ/mol
# Density = 2.706262 g / cm^3
# Si number density = 27.124358 Si / 1000 Ang^3
#
#
#
# Elastic Constant Matrix: (Units=GPa)
#
#
# Indices 1 2 3 4 5 6 
#
# 1 92.6555 27.6109 38.9148 8.0278 -49.5792 -8.6555
# 2 27.6109 124.8023 47.2941 25.9195 -3.4541 -0.2250
# 3 38.9148 47.2941 169.2557 21.3455 -59.1224 -14.4203
# 4 8.0278 25.9195 21.3455 59.2207 -14.0826 -5.6993
# 5 -49.5792 -3.4541 -59.1224 -14.0826 69.2366 12.6475
# 6 -8.6555 -0.2250 -14.4203 -5.6993 12.6475 41.4469
#
#
#
# Elastic Compliance Matrix: (Units=1/GPa)
#
#
# Indices 1 2 3 4 5 6 
#
# 1 0.020159 -0.005498 0.002422 0.002812 0.016747 0.000299
# 2 -0.005498 0.011563 -0.004129 -0.004737 -0.007699 -0.000824
# 3 0.002422 -0.004129 0.010035 0.000330 0.009987 0.000973
# 4 0.002812 -0.004737 0.000330 0.020003 0.005827 0.001649
# 5 0.016747 -0.007699 0.009987 0.005827 0.036380 -0.003370
# 6 0.000299 -0.000824 0.000973 0.001649 -0.003370 0.025779
#
#
# Mechanical properties :
#
#
# Convention : Reuss Voigt Hill
#
# Bulk Modulus (GPa) = 36.56652 68.26147 52.41399
# Shear Modulus (GPa) = 33.91119 52.17376 43.04247
#
# Velocity S-wave (km/s) = 3.53967 4.39053 3.98786
# Velocity P-wave (km/s) = 5.49691 7.13604 6.36942
#
# Compressibility (1/GPa) = 0.02734742
#
# Stress axis : x y z
#
# Youngs Moduli (GPa) = 49.60536 86.48301 99.65368
#
# Poissons Ratio (x) = 0.47545 -0.24135
# Poissons Ratio (y) = 0.27271 0.41147
# Poissons Ratio (z) = -0.12014 0.35709
#
# Static dielectric constant tensor:
#      x y z
#    x 2.156190 0.072460 -0.112640 
#    y 0.072460 2.089850 -0.026830 
#    z -0.112640 -0.026830 2.133660 
# 
# From -- ./inp_files/3505.got.cif
#   From: 2010.05.17/outbox.cif.g08.bks.cpg/sg1_2_cif.got.tgz:3505.got - 2010.05.17 20:27:59.
