data_PCOD9000763
_publ_section_title
;
Structure prediction by ZEFSAII (Michael W. Deem and Ramdas Pophale) SiO2 
 PCOD9000763
Probable space group: P 1
;
_chemical_formula_sum "Si O2"
_cell_formula_units_Z 8
_cell_length_a 11.458912
_cell_length_b 7.846043
_cell_length_c 7.587482
_cell_angle_alpha 112.323850
_cell_angle_beta 127.086682
_cell_angle_gamma 37.925338
_cell_volume 328.022332
_symmetry_space_group_name_H-M "P 1"
_symmetry_group_IT_number 1
_symmetry_cell_setting 'triclinic'
loop_
_space_group_symop_operation_xyz
x,y,z
loop_
_atom_site_type_symbol
_atom_site_label
_atom_site_fract_x
_atom_site_fract_y
_atom_site_fract_z
Si Si1 0.571350 0.565570 0.101510
Si Si2 0.803962 0.921548 0.553331
Si Si3 0.756809 0.775146 0.808904
Si Si4 0.926631 0.300857 0.592568
Si Si5 0.418371 0.522589 0.436703
Si Si6 0.203192 0.663668 0.653192
Si Si7 0.400143 0.929512 0.762100
Si Si8 0.948364 0.974433 0.038239
O O1 0.677850 0.514590 0.366075
O O2 0.795139 0.275690 0.098015
O O3 0.387245 0.577918 0.918994
O O4 0.478448 0.820146 0.993725
O O5 0.595175 0.217581 0.386564
O O6 0.731222 0.841083 0.600228
O O7 0.884698 0.008729 0.792216
O O8 0.030206 0.670445 0.554005
O O9 0.900049 0.450340 0.802436
O O10 0.535672 0.956849 0.794051
O O11 0.884907 0.836149 0.011386
O O12 0.035244 0.995230 0.589551
O O13 0.130450 0.201345 0.628543
O O14 0.337764 0.493612 0.530485
O O15 0.471435 0.672166 0.625492
O O16 0.206641 0.759327 0.215683
#
# Coordination Sequence:
#
# PCOD9000763 Si02
#       8
#     1   1   1   1   1   1   1   1
#     4  10  19  41  64  86 112 156 204 232 287 348
#     4  10  22  38  56  86 122 151 192 236 292 339
#     4  10  23  40  54  89 128 145 189 245 295 338
#     4  10  21  39  58  89 117 151 197 240 289 345
#     4  10  19  40  63  82 113 157 204 231 282 349
#     4  10  20  36  64  85 114 154 197 243 276 348
#     4  10  20  39  63  83 119 156 189 244 285 346
#     4  10  20  41  58  88 115 154 196 239 284 347
#
# _framework density 24.388580999999999
#
# number of rings (size 3 to 8) (size 9 to 14) (size 15 to 20)
#    0.750    1.500    5.000    0.750    0.000    4.000 
#    9.000    0.000    0.000    0.000    0.000    0.000 
#    0.000    0.000    0.000    0.000    0.000    0.000 
#
# Total GULP energy -44583.818035 kJ/mol
# GULP energy per Si atom -5572.977254 kJ/mol
# Density = 2.433307 g / cm^3
# Si number density = 24.388581 Si / 1000 Ang^3
#
#
#
# Elastic Constant Matrix: (Units=GPa)
#
#
# Indices 1 2 3 4 5 6 
#
# 1 99.8876 14.4715 -8.9104 -11.8159 6.6258 -19.8995
# 2 14.4715 58.4911 8.7543 -18.8322 11.4887 -6.9270
# 3 -8.9104 8.7543 58.2182 -28.5841 1.6688 2.5396
# 4 -11.8159 -18.8322 -28.5841 32.0585 -11.1855 1.2823
# 5 6.6258 11.4887 1.6688 -11.1855 16.9722 -4.9036
# 6 -19.8995 -6.9270 2.5396 1.2823 -4.9036 33.5938
#
#
#
# Elastic Compliance Matrix: (Units=1/GPa)
#
#
# Indices 1 2 3 4 5 6 
#
# 1 0.013648 -0.000293 0.008586 0.014147 0.005559 0.007646
# 2 -0.000293 0.022677 0.003776 0.014690 -0.005084 0.002914
# 3 0.008586 0.003776 0.042547 0.052027 0.025462 0.004379
# 4 0.014147 0.014690 0.052027 0.110296 0.055387 0.011351
# 5 0.005559 -0.005084 0.025462 0.055387 0.097796 0.012480
# 6 0.007646 0.002914 0.004379 0.011351 0.012480 0.035955
#
#
# Mechanical properties :
#
#
# Convention : Reuss Voigt Hill
#
# Bulk Modulus (GPa) = 9.70780 27.24751 18.47765
# Shear Modulus (GPa) = 15.00974 30.01034 22.51004
#
# Velocity S-wave (km/s) = 2.48350 3.51167 3.04135
# Velocity P-wave (km/s) = 3.49468 5.25727 4.46384
#
# Compressibility (1/GPa) = 0.10300999
#
# Stress axis : x y z
#
# Youngs Moduli (GPa) = 73.27281 44.09683 23.50369
#
# Poissons Ratio (x) = 0.01292 -0.20180
# Poissons Ratio (y) = 0.02147 -0.08876
# Poissons Ratio (z) = -0.62912 -0.16652
#
# Static dielectric constant tensor:
#      x y z
#    x 2.173170 -0.003020 -0.004060 
#    y -0.003020 1.952200 -0.023780 
#    z -0.004060 -0.023780 1.956620 
# 
# From -- ./inp_files/4899.got.cif
#   From: 2010.05.17/outbox.cif.g08.bks.cpg/sg1_3_cif.got.tgz:4899.got - 2010.05.17 20:27:59.
