data_PCOD9000063
_publ_section_title
;
Structure prediction by ZEFSAII (Michael W. Deem and Ramdas Pophale) SiO2 
 PCOD9000063
Probable space group: P 1
;
_chemical_formula_sum "Si O2"
_cell_formula_units_Z 8
_cell_length_a 8.559839
_cell_length_b 8.065104
_cell_length_c 8.127549
_cell_angle_alpha 118.196861
_cell_angle_beta 127.334306
_cell_angle_gamma 51.678667
_cell_volume 345.801143
_symmetry_space_group_name_H-M "P 1"
_symmetry_group_IT_number 1
_symmetry_cell_setting 'triclinic'
loop_
_space_group_symop_operation_xyz
x,y,z
loop_
_atom_site_type_symbol
_atom_site_label
_atom_site_fract_x
_atom_site_fract_y
_atom_site_fract_z
Si Si1 0.282810 0.252260 0.618190
Si Si2 0.502602 0.530044 0.970992
Si Si3 0.821741 0.682798 0.104743
Si Si4 0.038636 0.906201 0.890897
Si Si5 0.975662 0.524130 0.806428
Si Si6 0.510705 0.808722 0.689405
Si Si7 0.881617 0.221220 0.247209
Si Si8 0.018255 0.929011 0.518998
O O1 0.064309 0.306836 0.397173
O O2 0.169201 0.311721 0.755521
O O3 0.442159 0.998570 0.602786
O O4 0.404942 0.395602 0.746135
O O5 0.625669 0.396470 0.148140
O O6 0.702050 0.547265 0.017782
O O7 0.307910 0.765857 0.997247
O O8 0.015890 0.552165 0.035791
O O9 0.631185 0.858782 0.944516
O O10 0.907891 0.776739 0.345159
O O11 0.972061 0.007062 0.714306
O O12 0.975171 0.717366 0.792782
O O13 0.941335 0.064409 0.055235
O O14 0.715704 0.581515 0.657995
O O15 0.286521 0.808163 0.604071
O O16 0.925348 0.095001 0.386825
#
# Coordination Sequence:
#
# PCOD9000063 Si02
#       8
#     1   1   1   1   1   1   1   1
#     4  10  22  40  66  96 131 174 217 271 330 386
#     4  11  24  42  67 100 137 170 223 276 321 399
#     4  10  21  42  67  98 135 171 221 272 326 389
#     4  11  22  45  71  97 133 175 225 266 331 400
#     4   9  20  40  67  95 131 174 211 273 325 390
#     4   9  20  42  65  92 139 166 219 273 324 385
#     4  11  25  44  69  98 137 170 222 276 329 387
#     4  11  22  43  72  96 131 182 216 271 332 392
#
# _framework density 23.134685000000001
#
# number of rings (size 3 to 8) (size 9 to 14) (size 15 to 20)
#    0.750    1.000    2.500    1.500    3.500    4.000 
#    2.250    1.250    2.750    0.000    0.000    0.000 
#    0.000    0.000    0.000    0.000    0.000    0.000 
#
# Total GULP energy -44607.283654 kJ/mol
# GULP energy per Si atom -5575.910457 kJ/mol
# Density = 2.308203 g / cm^3
# Si number density = 23.134685 Si / 1000 Ang^3
#
#
#
# Elastic Constant Matrix: (Units=GPa)
#
#
# Indices 1 2 3 4 5 6 
#
# 1 85.1601 14.7269 29.1835 -1.8984 -5.3644 17.0590
# 2 14.7269 57.3461 24.9387 -8.9705 -8.1813 -1.4954
# 3 29.1835 24.9387 115.3617 -2.1986 0.9380 6.0270
# 4 -1.8984 -8.9705 -2.1986 26.8805 8.9391 8.0078
# 5 -5.3644 -8.1813 0.9380 8.9391 45.1508 1.8274
# 6 17.0590 -1.4954 6.0270 8.0078 1.8274 28.9988
#
#
#
# Elastic Compliance Matrix: (Units=1/GPa)
#
#
# Indices 1 2 3 4 5 6 
#
# 1 0.015071 -0.002337 -0.002796 0.002333 0.001333 -0.009133
# 2 -0.002337 0.020968 -0.003952 0.005170 0.002512 0.001692
# 3 -0.002796 -0.003952 0.010269 -0.000095 -0.001219 -0.000590
# 4 0.002333 0.005170 -0.000095 0.045416 -0.007243 -0.013171
# 5 0.001333 0.002512 -0.001219 -0.007243 0.024218 0.000073
# 6 -0.009133 0.001692 -0.000590 -0.013171 0.000073 0.043699
#
#
# Mechanical properties :
#
#
# Convention : Reuss Voigt Hill
#
# Bulk Modulus (GPa) = 35.54083 43.95179 39.74631
# Shear Modulus (GPa) = 26.71077 32.80727 29.75902
#
# Velocity S-wave (km/s) = 3.40159 3.76985 3.59045
# Velocity P-wave (km/s) = 5.55191 6.16348 5.86567
#
# Compressibility (1/GPa) = 0.02813665
#
# Stress axis : x y z
#
# Youngs Moduli (GPa) = 66.35462 47.69197 97.38021
#
# Poissons Ratio (x) = 0.11146 0.27232
# Poissons Ratio (y) = 0.15508 0.38483
# Poissons Ratio (z) = 0.18556 0.18847
#
# Static dielectric constant tensor:
#      x y z
#    x 1.921660 0.030590 0.004470 
#    y 0.030590 1.947400 -0.007360 
#    z 0.004470 -0.007360 1.891930 
# 
# From -- ./inp_files/4400.got.cif
#   From: 2010.05.17/outbox.cif.g08.bks.cpg/sg1_3_cif.got.tgz:4400.got - 2010.05.17 20:27:59.
