data_PCOD9000336
_publ_section_title
;
Structure prediction by ZEFSAII (Michael W. Deem and Ramdas Pophale) SiO2 
 PCOD9000336
Probable space group: P 1
;
_chemical_formula_sum "Si O2"
_cell_formula_units_Z 8
_cell_length_a 4.954515
_cell_length_b 14.970572
_cell_length_c 6.879544
_cell_angle_alpha 46.679707
_cell_angle_beta 94.237804
_cell_angle_gamma 98.826671
_cell_volume 366.489780
_symmetry_space_group_name_H-M "P 1"
_symmetry_group_IT_number 1
_symmetry_cell_setting 'triclinic'
loop_
_space_group_symop_operation_xyz
x,y,z
loop_
_atom_site_type_symbol
_atom_site_label
_atom_site_fract_x
_atom_site_fract_y
_atom_site_fract_z
Si Si1 0.979210 0.343150 0.592580
Si Si2 0.619650 0.196281 0.459750
Si Si3 0.061173 0.039522 0.785067
Si Si4 0.140547 0.627845 0.145131
Si Si5 0.488026 0.235760 0.963352
Si Si6 0.361121 0.822547 0.123424
Si Si7 0.669792 0.781287 0.842239
Si Si8 0.682715 0.976666 0.230677
O O1 0.816097 0.287883 0.473929
O O2 0.120330 0.481970 0.354441
O O3 0.827922 0.098120 0.569087
O O4 0.734216 0.334444 0.747150
O O5 0.348667 0.133101 0.653280
O O6 0.503356 0.244489 0.183924
O O7 0.206138 0.266425 0.810307
O O8 0.164738 0.916392 0.891657
O O9 0.922674 0.015233 0.027473
O O10 0.861866 0.676551 0.006502
O O11 0.219375 0.683157 0.284378
O O12 0.367487 0.705184 0.904319
O O13 0.563279 0.099316 0.112929
O O14 0.620178 0.829553 0.984935
O O15 0.457716 0.881187 0.244695
O O16 0.761916 0.893230 0.535324
#
# Coordination Sequence:
#
# PCOD9000336 Si02
#       8
#     1   1   1   1   1   1   1   1
#     4  12  25  52  70 104 149 185 246 290 348 423
#     4  12  26  47  71 106 145 190 234 292 367 410
#     4  12  23  42  71 103 150 182 222 301 361 421
#     4  10  25  47  70  99 141 192 229 289 342 420
#     4  12  28  44  77 108 138 194 234 298 357 428
#     4  10  23  44  65 103 135 190 217 291 357 400
#     4  10  25  44  68 104 139 182 230 285 350 423
#     4  12  25  42  72 111 141 173 238 292 364 423
#
# _framework density 21.828714999999999
#
# number of rings (size 3 to 8) (size 9 to 14) (size 15 to 20)
#    0.750    0.000    2.500    4.500    3.500    0.000 
#    4.500    0.000    0.000    0.000    0.000    0.000 
#    0.000    0.000    0.000    0.000    0.000    0.000 
#
# Total GULP energy -44632.328393 kJ/mol
# GULP energy per Si atom -5579.041049 kJ/mol
# Density = 2.177903 g / cm^3
# Si number density = 21.828715 Si / 1000 Ang^3
#
#
#
# Elastic Constant Matrix: (Units=GPa)
#
#
# Indices 1 2 3 4 5 6 
#
# 1 141.1720 26.0757 23.7564 3.1294 7.7348 -2.2571
# 2 26.0757 104.9778 50.8906 -9.4551 5.9552 17.3462
# 3 23.7564 50.8906 96.3098 5.9322 7.5663 1.2680
# 4 3.1294 -9.4551 5.9322 31.3948 3.8233 0.1684
# 5 7.7348 5.9552 7.5663 3.8233 31.8791 -6.8304
# 6 -2.2571 17.3462 1.2680 0.1684 -6.8304 24.0978
#
#
#
# Elastic Compliance Matrix: (Units=1/GPa)
#
#
# Indices 1 2 3 4 5 6 
#
# 1 0.007663 -0.001893 -0.000786 -0.001101 -0.000778 0.001909
# 2 -0.001893 0.017390 -0.008658 0.007691 -0.004568 -0.013588
# 3 -0.000786 -0.008658 0.015422 -0.005467 -0.000045 0.005373
# 4 -0.001101 0.007691 -0.005467 0.036050 -0.005745 -0.007232
# 5 -0.000778 -0.004568 -0.000045 -0.005745 0.035995 0.013461
# 6 0.001909 -0.013588 0.005373 -0.007232 0.013461 0.055041
#
#
# Mechanical properties :
#
#
# Convention : Reuss Voigt Hill
#
# Bulk Modulus (GPa) = 56.17754 60.43388 58.30571
# Shear Modulus (GPa) = 25.48827 33.59012 29.53920
#
# Velocity S-wave (km/s) = 3.42079 3.92702 3.68261
# Velocity P-wave (km/s) = 6.43381 6.95036 6.69707
#
# Compressibility (1/GPa) = 0.01780071
#
# Stress axis : x y z
#
# Youngs Moduli (GPa) = 130.49692 57.50274 64.84344
#
# Poissons Ratio (x) = 0.10883 0.05099
# Poissons Ratio (y) = 0.24698 0.56144
# Poissons Ratio (z) = 0.10262 0.49788
#
# Static dielectric constant tensor:
#      x y z
#    x 1.826590 0.055260 0.010510 
#    y 0.055260 1.874750 0.032440 
#    z 0.010510 0.032440 1.795390 
# 
# From -- ./inp_files/596.got.cif
#   From: 2010.05.17/outbox.cif.g08.bks.cpg/sg1_1_cif.got.tgz:596.got - 2010.05.17 20:27:59.
