data_PCOD9000710
_publ_section_title
;
Structure prediction by ZEFSAII (Michael W. Deem and Ramdas Pophale) SiO2 
 PCOD9000710
Probable space group: P 1
;
_chemical_formula_sum "Si O2"
_cell_formula_units_Z 8
_cell_length_a 7.844176
_cell_length_b 9.158574
_cell_length_c 8.559700
_cell_angle_alpha 48.512668
_cell_angle_beta 100.277461
_cell_angle_gamma 72.300181
_cell_volume 371.528482
_symmetry_space_group_name_H-M "P 1"
_symmetry_group_IT_number 1
_symmetry_cell_setting 'triclinic'
loop_
_space_group_symop_operation_xyz
x,y,z
loop_
_atom_site_type_symbol
_atom_site_label
_atom_site_fract_x
_atom_site_fract_y
_atom_site_fract_z
Si Si1 0.556180 0.569790 0.972510
Si Si2 0.892647 0.658462 0.985010
Si Si3 0.159734 0.388874 0.931211
Si Si4 0.759583 0.116069 0.477482
Si Si5 0.162232 0.836318 0.553194
Si Si6 0.980776 0.984964 0.919893
Si Si7 0.352906 0.890062 0.235566
Si Si8 0.742230 0.428820 0.752717
O O1 0.729913 0.600289 0.054464
O O2 0.322202 0.801268 0.741398
O O3 0.640109 0.488962 0.865322
O O4 0.558470 0.367929 0.213492
O O5 0.083802 0.454797 0.053472
O O6 0.753186 0.891931 0.681271
O O7 0.978028 0.753376 0.060861
O O8 0.953595 0.422103 0.797250
O O9 0.192570 0.583998 0.735485
O O10 0.350559 0.122428 0.105438
O O11 0.879287 0.124696 0.642118
O O12 0.924283 0.030355 0.424358
O O13 0.221946 0.892879 0.361051
O O14 0.817269 0.169907 0.890454
O O15 0.211413 0.918860 0.044622
O O16 0.575491 0.640145 0.461496
#
# Coordination Sequence:
#
# PCOD9000710 Si02
#       8
#     1   1   1   1   1   1   1   1
#     4  10  19  35  58  78 103 139 186 215 255 312
#     4   8  18  35  54  80 105 141 173 214 268 310
#     4   9  18  36  56  79 105 137 183 218 259 308
#     4   9  19  35  54  77 109 138 169 224 261 304
#     4  10  20  33  58  83 100 136 186 220 255 310
#     4   9  19  37  55  76 114 141 169 213 276 314
#     4  10  20  37  57  78 108 141 175 221 260 316
#     4   9  19  36  58  77 106 145 175 213 268 316
#
# _framework density 21.532667
#
# number of rings (size 3 to 8) (size 9 to 14) (size 15 to 20)
#    0.750    2.000    0.000    2.250    0.000    5.000 
#    4.500    1.250    5.500    0.000    0.000    0.000 
#    0.000    0.000    0.000    0.000    0.000    0.000 
#
# Total GULP energy -44578.649950 kJ/mol
# GULP energy per Si atom -5572.331244 kJ/mol
# Density = 2.148366 g / cm^3
# Si number density = 21.532667 Si / 1000 Ang^3
#
#
#
# Elastic Constant Matrix: (Units=GPa)
#
#
# Indices 1 2 3 4 5 6 
#
# 1 30.9458 3.9326 -3.6008 -4.8108 -1.7002 7.9280
# 2 3.9326 93.2813 2.3754 -9.6994 15.1702 22.6864
# 3 -3.6008 2.3754 75.8646 -1.2735 15.3408 4.0848
# 4 -4.8108 -9.6994 -1.2735 19.3576 -5.2914 -0.1039
# 5 -1.7002 15.1702 15.3408 -5.2914 26.8680 -2.5623
# 6 7.9280 22.6864 4.0848 -0.1039 -2.5623 19.3822
#
#
#
# Elastic Compliance Matrix: (Units=1/GPa)
#
#
# Indices 1 2 3 4 5 6 
#
# 1 0.039993 0.005882 0.003814 0.012218 -0.002885 -0.024363
# 2 0.005882 0.020906 0.004446 0.007900 -0.015255 -0.029787
# 3 0.003814 0.004446 0.016432 0.000738 -0.012640 -0.011894
# 4 0.012218 0.007900 0.000738 0.060417 0.006530 -0.013212
# 5 -0.002885 -0.015255 -0.012640 0.006530 0.056943 0.029262
# 6 -0.024363 -0.029787 -0.011894 -0.013212 0.029262 0.102728
#
#
# Mechanical properties :
#
#
# Convention : Reuss Voigt Hill
#
# Bulk Modulus (GPa) = 9.46844 22.83401 16.15123
# Shear Modulus (GPa) = 16.42899 26.28051 21.35475
#
# Velocity S-wave (km/s) = 2.76521 3.49735 3.15260
# Velocity P-wave (km/s) = 3.82125 5.18999 4.55730
#
# Compressibility (1/GPa) = 0.10561406
#
# Stress axis : x y z
#
# Youngs Moduli (GPa) = 25.00419 47.83411 60.85688
#
# Poissons Ratio (x) = -0.28134 -0.23213
# Poissons Ratio (y) = -0.14706 -0.27055
# Poissons Ratio (z) = -0.09537 -0.21266
#
# Static dielectric constant tensor:
#      x y z
#    x 1.772750 0.005520 0.031830 
#    y 0.005520 1.838690 -0.018760 
#    z 0.031830 -0.018760 1.799940 
# 
# From -- ./inp_files/3812.got.cif
#   From: 2010.05.17/outbox.cif.g08.bks.cpg/sg1_2_cif.got.tgz:3812.got - 2010.05.17 20:27:59.
