data_PCOD9000635
_publ_section_title
;
Structure prediction by ZEFSAII (Michael W. Deem and Ramdas Pophale) SiO2 
 PCOD9000635
Probable space group: P 1
;
_chemical_formula_sum "Si O2"
_cell_formula_units_Z 8
_cell_length_a 5.199494
_cell_length_b 4.949106
_cell_length_c 13.833906
_cell_angle_alpha 123.392657
_cell_angle_beta 91.157271
_cell_angle_gamma 87.476673
_cell_volume 296.927423
_symmetry_space_group_name_H-M "P 1"
_symmetry_group_IT_number 1
_symmetry_cell_setting 'triclinic'
loop_
_space_group_symop_operation_xyz
x,y,z
loop_
_atom_site_type_symbol
_atom_site_label
_atom_site_fract_x
_atom_site_fract_y
_atom_site_fract_z
Si Si1 0.488170 0.189450 0.603580
Si Si2 0.519088 0.235394 0.227050
Si Si3 0.151819 0.793207 0.249033
Si Si4 0.136253 0.065035 0.887003
Si Si5 0.648184 0.655242 0.861817
Si Si6 0.841454 0.659499 0.057167
Si Si7 0.151597 0.756968 0.629646
Si Si8 0.806436 0.307264 0.443524
O O1 0.638025 0.376376 0.725849
O O2 0.250672 0.442047 0.627368
O O3 0.643228 0.164589 0.500838
O O4 0.366831 0.870214 0.580582
O O5 0.353494 0.529014 0.238450
O O6 0.657745 0.333131 0.346436
O O7 0.301847 0.983552 0.205215
O O8 0.729529 0.031924 0.124875
O O9 0.893669 0.652588 0.172058
O O10 0.049854 0.060296 0.377016
O O11 0.398298 0.890915 0.891568
O O12 0.117542 0.029535 0.764186
O O13 0.902621 0.861584 0.889094
O O14 0.095163 0.438710 0.988355
O O15 0.660501 0.516866 0.943657
O O16 0.908165 0.648645 0.547467
#
# Coordination Sequence:
#
# PCOD9000635 Si02
#       8
#     1   1   1   1   1   1   1   1
#     4  11  27  48  78 120 167 213 268 338 414 504
#     4  11  28  51  79 114 158 211 278 348 409 487
#     4  11  28  51  79 114 158 211 278 348 409 487
#     4  11  27  48  79 124 170 219 271 339 416 504
#     4  11  27  48  79 124 170 219 271 339 416 504
#     4  11  28  44  84 110 166 213 276 336 420 491
#     4  11  27  48  78 120 167 213 268 338 414 504
#     4  11  26  52  80 118 160 219 276 338 422 493
#
# _framework density 26.942608
#
# number of rings (size 3 to 8) (size 9 to 14) (size 15 to 20)
#    0.000    1.000    1.250    1.500   14.000   10.000 
#    0.000    2.500    0.000    0.000    0.000    0.000 
#    0.000    0.000    0.000    0.000    0.000    0.000 
#
# Total GULP energy -44802.473987 kJ/mol
# GULP energy per Si atom -5600.309248 kJ/mol
# Density = 2.688129 g / cm^3
# Si number density = 26.942608 Si / 1000 Ang^3
#
#
#
# Elastic Constant Matrix: (Units=GPa)
#
#
# Indices 1 2 3 4 5 6 
#
# 1 132.6655 49.2600 8.9928 -5.7422 -2.1300 -1.8636
# 2 49.2600 97.6411 10.5936 6.1342 -2.5172 -16.9662
# 3 8.9928 10.5936 128.2067 -5.4140 13.4003 -3.2969
# 4 -5.7422 6.1342 -5.4140 31.3123 -20.6076 -1.3681
# 5 -2.1300 -2.5172 13.4003 -20.6076 39.7126 -2.3560
# 6 -1.8636 -16.9662 -3.2969 -1.3681 -2.3560 54.3571
#
#
#
# Elastic Compliance Matrix: (Units=1/GPa)
#
#
# Indices 1 2 3 4 5 6 
#
# 1 0.009733 -0.005275 -0.000353 0.004354 0.002500 -0.001116
# 2 -0.005275 0.013918 -0.000738 -0.004459 -0.001231 0.003953
# 3 -0.000353 -0.000738 0.008190 -0.000543 -0.003105 0.000106
# 4 0.004354 -0.004459 -0.000543 0.051178 0.026761 0.001173
# 5 0.002500 -0.001231 -0.003105 0.026761 0.040286 0.001933
# 6 -0.001116 0.003953 0.000106 0.001173 0.001933 0.019712
#
#
# Mechanical properties :
#
#
# Convention : Reuss Voigt Hill
#
# Bulk Modulus (GPa) = 52.33088 55.13399 53.73244
# Shear Modulus (GPa) = 30.84146 44.38753 37.61449
#
# Velocity S-wave (km/s) = 3.38703 4.06333 3.74049
# Velocity P-wave (km/s) = 5.89586 6.52089 6.21624
#
# Compressibility (1/GPa) = 0.01910917
#
# Stress axis : x y z
#
# Youngs Moduli (GPa) = 102.73992 71.84791 122.10088
#
# Poissons Ratio (x) = 0.37901 0.04310
# Poissons Ratio (y) = 0.54197 0.09011
# Poissons Ratio (z) = 0.03626 0.05302
#
# Static dielectric constant tensor:
#      x y z
#    x 2.116390 0.028970 -0.004380 
#    y 0.028970 2.076410 -0.022880 
#    z -0.004380 -0.022880 2.069660 
# 
# From -- ./inp_files/6973.got.cif
#   From: 2010.05.17/outbox.cif.g08.bks.cpg/sg1_4_cif.got.tgz:6973.got - 2010.05.17 20:27:59.
