data_PCOD9000870
_publ_section_title
;
Structure prediction by ZEFSAII (Michael W. Deem and Ramdas Pophale) SiO2 
 PCOD9000870
Probable space group: P 1
;
_chemical_formula_sum "Si O2"
_cell_formula_units_Z 8
_cell_length_a 5.607287
_cell_length_b 5.340741
_cell_length_c 14.062469
_cell_angle_alpha 76.394930
_cell_angle_beta 129.661443
_cell_angle_gamma 103.620494
_cell_volume 313.044030
_symmetry_space_group_name_H-M "P 1"
_symmetry_group_IT_number 1
_symmetry_cell_setting 'triclinic'
loop_
_space_group_symop_operation_xyz
x,y,z
loop_
_atom_site_type_symbol
_atom_site_label
_atom_site_fract_x
_atom_site_fract_y
_atom_site_fract_z
Si Si1 0.593020 0.110400 0.622930
Si Si2 0.081551 0.458673 0.497848
Si Si3 0.125431 0.344571 0.131530
Si Si4 0.501337 0.176011 0.074778
Si Si5 0.182013 0.503842 0.722225
Si Si6 0.678767 0.763389 0.291204
Si Si7 0.213321 0.948857 0.840029
Si Si8 0.507236 0.039740 0.394417
O O1 0.279013 0.216960 0.563888
O O2 0.512381 0.980441 0.512211
O O3 0.819774 0.386737 0.650173
O O4 0.837159 0.948319 0.753513
O O5 0.215340 0.602137 0.614242
O O6 0.999180 0.632186 0.371013
O O7 0.736080 0.308110 0.432346
O O8 0.214945 0.281802 0.050126
O O9 0.364447 0.595865 0.192688
O O10 0.233486 0.119402 0.248725
O O11 0.769457 0.364162 0.071132
O O12 0.677395 0.035564 0.214198
O O13 0.368350 0.967247 0.980662
O O14 0.272446 0.718259 0.805370
O O15 0.328791 0.232298 0.797842
O O16 0.658970 0.827549 0.391417
#
# Coordination Sequence:
#
# PCOD9000870 Si02
#       8
#     1   1   1   1   1   1   1   1
#     4   9  21  38  66  98 137 179 236 292 364 426
#     4  10  20  40  66 104 139 182 235 304 368 436
#     4  10  25  45  69 102 145 185 249 298 369 430
#     4  11  26  49  68 107 143 196 244 304 362 444
#     4   9  22  44  64 101 137 185 237 296 363 431
#     4  10  23  42  73 102 144 192 238 306 373 440
#     4  10  23  46  69  98 143 188 243 296 362 440
#     4   9  20  40  59 100 136 179 230 296 359 433
#
# _framework density 25.555512
#
# number of rings (size 3 to 8) (size 9 to 14) (size 15 to 20)
#    0.750    1.500    0.000    0.750    7.000    4.000 
#   11.250    0.000    0.000    0.000    0.000    0.000 
#    0.000    0.000    0.000    0.000    0.000    0.000 
#
# Total GULP energy -44568.401782 kJ/mol
# GULP energy per Si atom -5571.050223 kJ/mol
# Density = 2.549735 g / cm^3
# Si number density = 25.555512 Si / 1000 Ang^3
#
#
#
# Elastic Constant Matrix: (Units=GPa)
#
#
# Indices 1 2 3 4 5 6 
#
# 1 91.8916 13.0005 37.4896 15.1705 -8.6902 -3.4967
# 2 13.0005 94.9728 24.4325 25.8986 -13.4527 -15.5259
# 3 37.4896 24.4325 104.5752 28.8064 -21.1251 -17.7386
# 4 15.1705 25.8986 28.8064 54.9480 -9.9628 -5.0259
# 5 -8.6902 -13.4527 -21.1251 -9.9628 33.7109 13.6415
# 6 -3.4967 -15.5259 -17.7386 -5.0259 13.6415 28.0175
#
#
#
# Elastic Compliance Matrix: (Units=1/GPa)
#
#
# Indices 1 2 3 4 5 6 
#
# 1 0.012931 -0.000578 -0.004395 -0.001023 0.000900 -0.002111
# 2 -0.000578 0.013164 -0.000262 -0.005189 0.001155 0.005564
# 3 -0.004395 -0.000262 0.014308 -0.004927 0.004042 0.005514
# 4 -0.001023 -0.005189 -0.004927 0.023740 0.002924 -0.003288
# 5 0.000900 0.001155 0.004042 0.002924 0.040103 -0.015690
# 6 -0.002111 0.005564 0.005514 -0.003288 -0.015690 0.049052
#
#
# Mechanical properties :
#
#
# Convention : Reuss Voigt Hill
#
# Bulk Modulus (GPa) = 33.40697 49.03168 41.21933
# Shear Modulus (GPa) = 28.77774 37.76974 33.27374
#
# Velocity S-wave (km/s) = 3.35936 3.84858 3.61226
# Velocity P-wave (km/s) = 5.30545 6.24314 5.79330
#
# Compressibility (1/GPa) = 0.02993387
#
# Stress axis : x y z
#
# Youngs Moduli (GPa) = 77.33378 75.96418 69.89037
#
# Poissons Ratio (x) = 0.04390 0.30716
# Poissons Ratio (y) = 0.04469 0.01830
# Poissons Ratio (z) = 0.33987 0.01989
#
# Static dielectric constant tensor:
#      x y z
#    x 2.159630 0.052250 -0.016410 
#    y 0.052250 2.113130 -0.083290 
#    z -0.016410 -0.083290 1.962420 
# 
# From -- ./inp_files/5905.got.cif
#   From: 2010.05.17/outbox.cif.g08.bks.cpg/sg1_3_cif.got.tgz:5905.got - 2010.05.17 20:27:59.
