data_PCOD9000522
_publ_section_title
;
Structure prediction by ZEFSAII (Michael W. Deem and Ramdas Pophale) SiO2 
 PCOD9000522
Probable space group: P 1
;
_chemical_formula_sum "Si O2"
_cell_formula_units_Z 8
_cell_length_a 7.238416
_cell_length_b 7.237599
_cell_length_c 10.097374
_cell_angle_alpha 115.743552
_cell_angle_beta 125.417674
_cell_angle_gamma 65.515017
_cell_volume 378.648406
_symmetry_space_group_name_H-M "P 1"
_symmetry_group_IT_number 1
_symmetry_cell_setting 'triclinic'
loop_
_space_group_symop_operation_xyz
x,y,z
loop_
_atom_site_type_symbol
_atom_site_label
_atom_site_fract_x
_atom_site_fract_y
_atom_site_fract_z
Si Si1 0.219400 0.841230 0.679460
Si Si2 0.660279 0.424060 0.296233
Si Si3 0.665861 0.929802 0.796252
Si Si4 0.153632 0.662048 0.850171
Si Si5 0.343507 0.239497 0.934557
Si Si6 0.982044 0.990171 0.350050
Si Si7 0.488873 0.884744 0.434531
Si Si8 0.631998 0.753930 0.179491
O O1 0.488557 0.785180 0.727095
O O2 0.134446 0.678712 0.688192
O O3 0.072440 0.906367 0.506961
O O4 0.209195 0.051983 0.828760
O O5 0.573170 0.631451 0.412798
O O6 0.735514 0.532292 0.226973
O O7 0.438113 0.330652 0.132541
O O8 0.852840 0.233269 0.370848
O O9 0.931302 0.812034 0.870894
O O10 0.595407 0.988215 0.632476
O O11 0.575005 0.133508 0.912780
O O12 0.188718 0.428098 0.846661
O O13 0.394265 0.728670 0.007065
O O14 0.212386 0.951501 0.346423
O O15 0.803274 0.847481 0.188146
O O16 0.570799 0.913380 0.328918
#
# Coordination Sequence:
#
# PCOD9000522 Si02
#       8
#     1   1   1   1   1   1   1   1
#     4   9  22  37  58  91 110 154 195 228 292 341
#     4   9  21  38  59  84 119 149 194 233 284 343
#     4   9  21  38  59  84 119 149 194 233 284 343
#     4  11  20  40  61  80 125 150 184 248 280 337
#     4   9  21  39  56  91 112 151 197 227 290 343
#     4  11  20  40  61  80 125 150 184 248 280 337
#     4   9  21  39  56  91 112 151 197 227 290 343
#     4   9  22  37  58  91 110 154 195 228 292 341
#
# _framework density 21.127780000000001
#
# number of rings (size 3 to 8) (size 9 to 14) (size 15 to 20)
#    1.500    1.000    0.000    1.500    3.500    0.000 
#    4.500    2.500    0.000    0.000    0.000    0.000 
#    0.000    0.000    0.000    0.000    0.000    0.000 
#
# Total GULP energy -44560.580846 kJ/mol
# GULP energy per Si atom -5570.072606 kJ/mol
# Density = 2.107969 g / cm^3
# Si number density = 21.127780 Si / 1000 Ang^3
#
#
#
# Elastic Constant Matrix: (Units=GPa)
#
#
# Indices 1 2 3 4 5 6 
#
# 1 49.3571 21.4572 8.8459 -16.5894 12.1515 -12.0197
# 2 21.4572 78.3420 7.8809 -23.3111 10.8611 -12.6099
# 3 8.8459 7.8809 40.8195 -3.5438 2.2169 0.8115
# 4 -16.5894 -23.3111 -3.5438 28.1036 -0.5683 3.0924
# 5 12.1515 10.8611 2.2169 -0.5683 27.7260 -3.4556
# 6 -12.0197 -12.6099 0.8115 3.0924 -3.4556 21.5077
#
#
#
# Elastic Compliance Matrix: (Units=1/GPa)
#
#
# Indices 1 2 3 4 5 6 
#
# 1 0.033589 0.000791 -0.005501 0.017902 -0.012369 0.014881
# 2 0.000791 0.019689 -0.002462 0.015385 -0.006446 0.008830
# 3 -0.005501 -0.002462 0.026113 -0.001412 0.000610 -0.005202
# 4 0.017902 0.015385 -0.001412 0.057515 -0.011463 0.008967
# 5 -0.012369 -0.006446 0.000610 -0.011463 0.043470 -0.002083
# 6 0.014881 0.008830 -0.005202 0.008967 -0.002083 0.058561
#
#
# Mechanical properties :
#
#
# Convention : Reuss Voigt Hill
#
# Bulk Modulus (GPa) = 15.37399 27.20961 21.29180
# Shear Modulus (GPa) = 18.18409 24.15642 21.17026
#
# Velocity S-wave (km/s) = 2.93690 3.38501 3.16889
# Velocity P-wave (km/s) = 4.33509 5.30889 4.84651
#
# Compressibility (1/GPa) = 0.06504491
#
# Stress axis : x y z
#
# Youngs Moduli (GPa) = 29.77157 50.79042 38.29460
#
# Poissons Ratio (x) = -0.04016 0.21068
# Poissons Ratio (y) = -0.02354 0.09429
# Poissons Ratio (z) = 0.16379 0.12506
#
# Static dielectric constant tensor:
#      x y z
#    x 1.754040 0.016180 0.013020 
#    y 0.016180 1.735820 -0.023290 
#    z 0.013020 -0.023290 1.820180 
# 
# From -- ./inp_files/6324.got.cif
#   From: 2010.05.17/outbox.cif.g08.bks.cpg/sg1_4_cif.got.tgz:6324.got - 2010.05.17 20:27:59.
