data_PCOD9000547
_publ_section_title
;
Structure prediction by ZEFSAII (Michael W. Deem and Ramdas Pophale) SiO2 
 PCOD9000547
Probable space group: P 1
;
_chemical_formula_sum "Si O2"
_cell_formula_units_Z 8
_cell_length_a 5.185944
_cell_length_b 5.303508
_cell_length_c 11.859271
_cell_angle_alpha 110.823418
_cell_angle_beta 71.862314
_cell_angle_gamma 88.178976
_cell_volume 285.970117
_symmetry_space_group_name_H-M "P 1"
_symmetry_group_IT_number 1
_symmetry_cell_setting 'triclinic'
loop_
_space_group_symop_operation_xyz
x,y,z
loop_
_atom_site_type_symbol
_atom_site_label
_atom_site_fract_x
_atom_site_fract_y
_atom_site_fract_z
Si Si1 0.487270 0.476820 0.401420
Si Si2 0.671755 0.422474 0.696235
Si Si3 0.453767 0.344185 0.131935
Si Si4 0.354677 0.222075 0.906931
Si Si5 0.855130 0.669204 0.048181
Si Si6 0.101790 0.736058 0.777165
Si Si7 0.972688 0.100050 0.276723
Si Si8 0.146611 0.018227 0.465484
O O1 0.572085 0.430257 0.250220
O O2 0.776033 0.359915 0.400458
O O3 0.304428 0.258200 0.436874
O O4 0.334216 0.786169 0.475308
O O5 0.561759 0.356749 0.823731
O O6 0.384719 0.520539 0.686938
O O7 0.873094 0.153742 0.587014
O O8 0.864096 0.658557 0.716851
O O9 0.555114 0.584348 0.081837
O O10 0.201015 0.231248 0.203714
O O11 0.510548 0.116862 0.984950
O O12 0.219535 0.018905 0.811976
O O13 0.085283 0.421722 0.021976
O O14 0.846798 0.922271 0.172696
O O15 0.985406 0.710517 0.915656
O O16 0.066797 0.898595 0.336790
#
# Coordination Sequence:
#
# PCOD9000547 Si02
#       8
#     1   1   1   1   1   1   1   1
#     4  11  26  48  79 114 157 208 270 329 407 479
#     4  11  28  50  74 113 154 212 271 333 395 484
#     4  11  22  42  73 111 153 198 253 327 402 480
#     4  11  24  43  75 111 158 203 261 327 410 480
#     4  11  23  41  72 112 155 196 255 324 404 482
#     4  11  26  46  75 110 152 205 264 327 402 473
#     4  11  25  48  78 116 157 208 259 335 407 485
#     4  11  28  52  78 113 158 214 271 334 403 479
#
# _framework density 27.974952999999999
#
# number of rings (size 3 to 8) (size 9 to 14) (size 15 to 20)
#    0.000    1.000    2.500    2.250    5.250    4.000 
#    0.000    1.250    0.000    0.000    0.000    0.000 
#    0.000    0.000    0.000    0.000    0.000    0.000 
#
# Total GULP energy -44692.718521 kJ/mol
# GULP energy per Si atom -5586.589815 kJ/mol
# Density = 2.791128 g / cm^3
# Si number density = 27.974953 Si / 1000 Ang^3
#
#
#
# Elastic Constant Matrix: (Units=GPa)
#
#
# Indices 1 2 3 4 5 6 
#
# 1 103.8629 38.3475 28.2754 8.0194 -16.8257 10.4583
# 2 38.3475 129.9970 27.1172 6.8497 -24.6579 5.8677
# 3 28.2754 27.1172 109.7532 13.2927 -20.2399 -3.9917
# 4 8.0194 6.8497 13.2927 33.5918 0.4366 -5.0775
# 5 -16.8257 -24.6579 -20.2399 0.4366 46.3538 11.7975
# 6 10.4583 5.8677 -3.9917 -5.0775 11.7975 53.5369
#
#
#
# Elastic Compliance Matrix: (Units=1/GPa)
#
#
# Indices 1 2 3 4 5 6 
#
# 1 0.011956 -0.002301 -0.001778 -0.002194 0.003154 -0.003119
# 2 -0.002301 0.009519 -0.000862 -0.001369 0.004307 -0.001737
# 3 -0.001778 -0.000862 0.010918 -0.003755 0.003676 0.000090
# 4 -0.002194 -0.001369 -0.003755 0.032786 -0.004598 0.004421
# 5 0.003154 0.004307 0.003676 -0.004598 0.028578 -0.007548
# 6 -0.003119 -0.001737 0.000090 0.004421 -0.007548 0.021568
#
#
# Mechanical properties :
#
#
# Convention : Reuss Voigt Hill
#
# Bulk Modulus (GPa) = 44.42369 59.01038 51.71703
# Shear Modulus (GPa) = 37.67595 43.35470 40.51533
#
# Velocity S-wave (km/s) = 3.67382 3.94098 3.80974
# Velocity P-wave (km/s) = 5.82325 6.46902 6.15461
#
# Compressibility (1/GPa) = 0.02251051
#
# Stress axis : x y z
#
# Youngs Moduli (GPa) = 83.63891 105.05741 91.59000
#
# Poissons Ratio (x) = 0.24179 0.16282
# Poissons Ratio (y) = 0.19249 0.07896
# Poissons Ratio (z) = 0.14868 0.09057
#
# Static dielectric constant tensor:
#      x y z
#    x 2.319700 -0.095040 0.062230 
#    y -0.095040 2.141980 0.091730 
#    z 0.062230 0.091730 2.172750 
# 
# From -- ./inp_files/2603.got.cif
#   From: 2010.05.17/outbox.cif.g08.bks.cpg/sg1_2_cif.got.tgz:2603.got - 2010.05.17 20:27:59.
