data_PCOD9000514
_publ_section_title
;
Structure prediction by ZEFSAII (Michael W. Deem and Ramdas Pophale) SiO2 
 PCOD9000514
Probable space group: P 1
;
_chemical_formula_sum "Si O2"
_cell_formula_units_Z 8
_cell_length_a 12.865706
_cell_length_b 5.101564
_cell_length_c 9.424793
_cell_angle_alpha 73.331179
_cell_angle_beta 32.715113
_cell_angle_gamma 84.796847
_cell_volume 306.422339
_symmetry_space_group_name_H-M "P 1"
_symmetry_group_IT_number 1
_symmetry_cell_setting 'triclinic'
loop_
_space_group_symop_operation_xyz
x,y,z
loop_
_atom_site_type_symbol
_atom_site_label
_atom_site_fract_x
_atom_site_fract_y
_atom_site_fract_z
Si Si1 0.337420 0.709240 0.319230
Si Si2 0.775149 0.813941 0.913727
Si Si3 0.362389 0.470864 0.806613
Si Si4 0.829147 0.673510 0.561186
Si Si5 0.973000 0.601757 0.963726
Si Si6 0.194083 0.237257 0.326685
Si Si7 0.711426 0.209409 0.544179
Si Si8 0.197284 0.966506 0.897080
O O1 0.149580 0.592806 0.657219
O O2 0.317531 0.464572 0.263348
O O3 0.294654 0.979913 0.250415
O O4 0.547303 0.809604 0.146864
O O5 0.827993 0.667728 0.732091
O O6 0.799278 0.652300 0.055054
O O7 0.962085 0.103460 0.660119
O O8 0.543676 0.349960 0.661490
O O9 0.368154 0.798759 0.727999
O O10 0.288778 0.296004 0.774888
O O11 0.213231 0.368793 0.127933
O O12 0.766955 0.367579 0.606248
O O13 0.689529 0.876124 0.641494
O O14 0.044141 0.841807 0.221850
O O15 0.069632 0.867890 0.916857
O O16 0.886029 0.336260 0.209036
#
# Coordination Sequence:
#
# PCOD9000514 Si02
#       8
#     1   1   1   1   1   1   1   1
#     4  11  26  47  70 106 147 186 237 294 360 431
#     4  11  25  47  76 103 145 194 234 295 369 415
#     4  12  23  43  74 104 138 188 238 294 361 415
#     4  11  23  45  72 102 136 185 238 297 352 420
#     4  10  27  47  68 106 147 185 237 292 351 434
#     4  11  25  45  73 109 140 181 245 301 347 431
#     4  11  25  45  72 105 142 184 240 295 358 426
#     4  11  24  43  71  99 147 181 235 294 352 422
#
# _framework density 26.107755000000001
#
# number of rings (size 3 to 8) (size 9 to 14) (size 15 to 20)
#    0.000    1.000    1.250    4.500    3.500    8.000 
#    2.250    0.000    0.000    0.000    0.000    0.000 
#    0.000    0.000    0.000    0.000    0.000    0.000 
#
# Total GULP energy -44835.716409 kJ/mol
# GULP energy per Si atom -5604.464551 kJ/mol
# Density = 2.604833 g / cm^3
# Si number density = 26.107755 Si / 1000 Ang^3
#
#
#
# Elastic Constant Matrix: (Units=GPa)
#
#
# Indices 1 2 3 4 5 6 
#
# 1 158.9622 14.6958 17.3168 4.5343 -5.2933 -15.4984
# 2 14.6958 56.2065 23.7149 11.9028 3.1436 -18.8710
# 3 17.3168 23.7149 79.5443 -0.6145 -6.6390 -0.9042
# 4 4.5343 11.9028 -0.6145 32.6596 -4.3801 -3.7699
# 5 -5.2933 3.1436 -6.6390 -4.3801 64.1229 12.1577
# 6 -15.4984 -18.8710 -0.9042 -3.7699 12.1577 41.6201
#
#
#
# Elastic Compliance Matrix: (Units=1/GPa)
#
#
# Indices 1 2 3 4 5 6 
#
# 1 0.006704 -0.000277 -0.001360 -0.000596 -0.000051 0.002302
# 2 -0.000277 0.028402 -0.008791 -0.009680 -0.005512 0.013317
# 3 -0.001360 -0.008791 0.015720 0.003556 0.003086 -0.004730
# 4 -0.000596 -0.009680 0.003556 0.034497 0.003618 -0.002466
# 5 -0.000051 -0.005512 0.003086 0.003618 0.017817 -0.007328
# 6 0.002302 0.013317 -0.004730 -0.002466 -0.007328 0.032737
#
#
# Mechanical properties :
#
#
# Convention : Reuss Voigt Hill
#
# Bulk Modulus (GPa) = 33.36524 45.12979 39.24751
# Shear Modulus (GPa) = 29.98992 43.61288 36.80140
#
# Velocity S-wave (km/s) = 3.39292 4.09160 3.75853
# Velocity P-wave (km/s) = 5.30630 6.29644 5.82245
#
# Compressibility (1/GPa) = 0.02997131
#
# Stress axis : x y z
#
# Youngs Moduli (GPa) = 149.15779 35.20829 63.61446
#
# Poissons Ratio (x) = 0.00976 0.08649
# Poissons Ratio (y) = 0.04134 0.55922
# Poissons Ratio (z) = 0.20279 0.30951
#
# Static dielectric constant tensor:
#      x y z
#    x 2.089910 -0.039900 -0.082710 
#    y -0.039900 2.012140 0.016030 
#    z -0.082710 0.016030 2.088090 
# 
# From -- ./inp_files/2217.got.cif
#   From: 2010.05.17/outbox.cif.g08.bks.cpg/sg1_2_cif.got.tgz:2217.got - 2010.05.17 20:27:59.
