data_PCOD9000908
_publ_section_title
;
Structure prediction by ZEFSAII (Michael W. Deem and Ramdas Pophale) SiO2 
 PCOD9000908
Probable space group: P 1
;
_chemical_formula_sum "Si O2"
_cell_formula_units_Z 8
_cell_length_a 6.927157
_cell_length_b 8.707819
_cell_length_c 6.528026
_cell_angle_alpha 119.081608
_cell_angle_beta 89.459020
_cell_angle_gamma 101.782084
_cell_volume 335.018063
_symmetry_space_group_name_H-M "P 1"
_symmetry_group_IT_number 1
_symmetry_cell_setting 'triclinic'
loop_
_space_group_symop_operation_xyz
x,y,z
loop_
_atom_site_type_symbol
_atom_site_label
_atom_site_fract_x
_atom_site_fract_y
_atom_site_fract_z
Si Si1 0.433650 0.333960 0.219790
Si Si2 0.758258 0.576646 0.162512
Si Si3 0.556966 0.832842 0.054726
Si Si4 0.822886 0.832354 0.705715
Si Si5 0.173591 0.953053 0.107707
Si Si6 0.087856 0.411872 0.116748
Si Si7 0.768556 0.252518 0.367045
Si Si8 0.014814 0.149195 0.617762
O O1 0.593348 0.390761 0.073689
O O2 0.582655 0.344467 0.417635
O O3 0.284700 0.466949 0.287850
O O4 0.302689 0.130357 0.103856
O O5 0.655208 0.703036 0.108377
O O6 0.808277 0.669468 0.444652
O O7 0.974304 0.544843 0.090000
O O8 0.326589 0.829323 0.078229
O O9 0.614492 0.804458 0.802995
O O10 0.673301 0.039000 0.227736
O O11 0.102897 0.037058 0.371594
O O12 0.994031 0.860996 0.898420
O O13 0.873332 0.007257 0.674105
O O14 0.151818 0.283563 0.860941
O O15 0.920621 0.305548 0.209555
O O16 0.897744 0.276881 0.582813
#
# Coordination Sequence:
#
# PCOD9000908 Si02
#       8
#     1   1   1   1   1   1   1   1
#     4  10  22  45  62 101 138 170 222 283 328 402
#     4  11  27  43  69 100 144 179 216 279 355 397
#     4  11  23  45  65 103 138 175 228 277 337 403
#     4  12  23  46  70 101 134 184 226 281 334 399
#     4  11  24  44  74 102 132 174 244 278 324 407
#     4  11  23  46  68  99 140 178 224 279 341 406
#     4  10  20  42  68  98 131 172 235 273 323 404
#     4  12  20  43  76 100 129 182 231 280 332 398
#
# _framework density 23.87931
#
# number of rings (size 3 to 8) (size 9 to 14) (size 15 to 20)
#    0.000    1.000    6.250    0.000    0.000    6.000 
#   11.250    0.000    0.000    0.000    0.000    0.000 
#    0.000    0.000    0.000    0.000    0.000    0.000 
#
# Total GULP energy -44620.916774 kJ/mol
# GULP energy per Si atom -5577.614597 kJ/mol
# Density = 2.382496 g / cm^3
# Si number density = 23.879310 Si / 1000 Ang^3
#
#
#
# Elastic Constant Matrix: (Units=GPa)
#
#
# Indices 1 2 3 4 5 6 
#
# 1 160.2393 64.3217 38.2724 -23.0117 4.2023 -36.1422
# 2 64.3217 108.2103 20.6909 -24.5357 1.3841 -27.8714
# 3 38.2724 20.6909 113.1447 -14.1161 -16.5506 -9.4470
# 4 -23.0117 -24.5357 -14.1161 27.3059 -5.4235 14.1738
# 5 4.2023 1.3841 -16.5506 -5.4235 25.5640 -1.3406
# 6 -36.1422 -27.8714 -9.4470 14.1738 -1.3406 55.6699
#
#
#
# Elastic Compliance Matrix: (Units=1/GPa)
#
#
# Indices 1 2 3 4 5 6 
#
# 1 0.009384 -0.004032 -0.002434 0.000749 -0.002562 0.003408
# 2 -0.004032 0.014112 0.000368 0.008668 0.002100 0.002354
# 3 -0.002434 0.000368 0.011714 0.006642 0.009327 -0.000874
# 4 0.000749 0.008668 0.006642 0.055531 0.015079 -0.007822
# 5 -0.002562 0.002100 0.009327 0.015079 0.048574 -0.001699
# 6 0.003408 0.002354 -0.000874 -0.007822 -0.001699 0.023156
#
#
# Mechanical properties :
#
#
# Convention : Reuss Voigt Hill
#
# Bulk Modulus (GPa) = 43.44883 69.79604 56.62244
# Shear Modulus (GPa) = 27.42143 38.92856 33.17500
#
# Velocity S-wave (km/s) = 3.39238 4.04198 3.73135
# Velocity P-wave (km/s) = 5.79474 7.14672 6.50594
#
# Compressibility (1/GPa) = 0.02301558
#
# Stress axis : x y z
#
# Youngs Moduli (GPa) = 106.56466 70.85925 85.36647
#
# Poissons Ratio (x) = 0.28572 0.20775
# Poissons Ratio (y) = 0.42969 -0.03144
# Poissons Ratio (z) = 0.25934 -0.02610
#
# Static dielectric constant tensor:
#      x y z
#    x 1.938770 -0.025670 -0.001740 
#    y -0.025670 1.994320 0.024840 
#    z -0.001740 0.024840 1.934500 
# 
# From -- ./inp_files/3194.got.cif
#   From: 2010.05.17/outbox.cif.g08.bks.cpg/sg1_2_cif.got.tgz:3194.got - 2010.05.17 20:27:59.
