data_PCOD9000840
_publ_section_title
;
Structure prediction by ZEFSAII (Michael W. Deem and Ramdas Pophale) SiO2 
 PCOD9000840
Probable space group: P 1
;
_chemical_formula_sum "Si O2"
_cell_formula_units_Z 8
_cell_length_a 8.197277
_cell_length_b 9.180455
_cell_length_c 8.618903
_cell_angle_alpha 79.456246
_cell_angle_beta 50.164407
_cell_angle_gamma 112.786605
_cell_volume 364.244466
_symmetry_space_group_name_H-M "P 1"
_symmetry_group_IT_number 1
_symmetry_cell_setting 'triclinic'
loop_
_space_group_symop_operation_xyz
x,y,z
loop_
_atom_site_type_symbol
_atom_site_label
_atom_site_fract_x
_atom_site_fract_y
_atom_site_fract_z
Si Si1 0.297140 0.890430 0.361520
Si Si2 0.331173 0.735540 0.077231
Si Si3 0.971935 0.664732 0.899419
Si Si4 0.863648 0.727172 0.257995
Si Si5 0.781591 0.263406 0.180443
Si Si6 0.414687 0.501149 0.849148
Si Si7 0.170903 0.100723 0.165715
Si Si8 0.589059 0.006953 0.608942
O O1 0.327327 0.762022 0.257054
O O2 0.043034 0.752458 0.667502
O O3 0.231289 0.004120 0.275888
O O4 0.590770 0.062214 0.237141
O O5 0.020858 0.646613 0.224998
O O6 0.412562 0.619300 0.968514
O O7 0.538274 0.956922 0.831144
O O8 0.297344 0.805093 0.747657
O O9 0.800466 0.686497 0.122417
O O10 0.803394 0.432732 0.055694
O O11 0.634343 0.638802 0.550871
O O12 0.086494 0.965823 0.092889
O O13 0.640323 0.185403 0.454042
O O14 0.106555 0.367232 0.981611
O O15 0.419720 0.336073 0.942903
O O16 0.881035 0.054566 0.390999
#
# Coordination Sequence:
#
# PCOD9000840 Si02
#       8
#     1   1   1   1   1   1   1   1
#     4  10  24  39  61  93 135 160 196 256 328 356
#     4  10  20  42  66  90 125 167 198 264 304 363
#     4  10  20  40  63  89 125 169 202 249 314 369
#     4  10  20  38  68  92 118 162 215 256 294 363
#     4  10  20  40  64  92 122 165 206 257 301 372
#     4  11  21  40  72  93 115 160 229 244 297 371
#     4  10  21  39  63  96 123 158 208 264 296 369
#     4   9  18  38  67  85 119 155 218 246 294 363
#
# _framework density 21.963270999999999
#
# number of rings (size 3 to 8) (size 9 to 14) (size 15 to 20)
#    0.000    2.000    3.750    0.000    0.000    6.000 
#    4.500    6.250    0.000    0.000    0.000    0.000 
#    0.000    0.000    0.000    0.000    0.000    0.000 
#
# Total GULP energy -44553.207990 kJ/mol
# GULP energy per Si atom -5569.150999 kJ/mol
# Density = 2.191328 g / cm^3
# Si number density = 21.963271 Si / 1000 Ang^3
#
#
#
# Elastic Constant Matrix: (Units=GPa)
#
#
# Indices 1 2 3 4 5 6 
#
# 1 33.9629 22.6207 18.9748 2.3468 10.5772 1.4331
# 2 22.6207 121.7613 80.3536 4.9039 23.8453 0.6609
# 3 18.9748 80.3536 135.6952 4.4123 24.3402 -0.1681
# 4 2.3468 4.9039 4.4123 38.1087 1.3746 4.1888
# 5 10.5772 23.8453 24.3402 1.3746 40.6700 -2.7018
# 6 1.4331 0.6609 -0.1681 4.1888 -2.7018 24.5042
#
#
#
# Elastic Compliance Matrix: (Units=1/GPa)
#
#
# Indices 1 2 3 4 5 6 
#
# 1 0.035127 -0.004585 -0.001108 -0.000965 -0.005913 -0.002425
# 2 -0.004585 0.014575 -0.007451 -0.000582 -0.002901 -0.000396
# 3 -0.001108 -0.007451 0.012445 -0.000325 -0.002773 0.000101
# 4 -0.000965 -0.000582 -0.000325 0.026932 -0.000428 -0.004581
# 5 -0.005913 -0.002901 -0.002773 -0.000428 0.029751 0.003758
# 6 -0.002425 -0.000396 0.000101 -0.004581 0.003758 0.042160
#
#
# Mechanical properties :
#
#
# Convention : Reuss Voigt Hill
#
# Bulk Modulus (GPa) = 27.88661 59.47974 43.68318
# Shear Modulus (GPa) = 25.09656 31.95461 28.52559
#
# Velocity S-wave (km/s) = 3.38399 3.81847 3.60778
# Velocity P-wave (km/s) = 5.29085 6.82504 6.10632
#
# Compressibility (1/GPa) = 0.03585950
#
# Stress axis : x y z
#
# Youngs Moduli (GPa) = 28.46813 68.60873 80.35427
#
# Poissons Ratio (x) = 0.31454 0.08904
# Poissons Ratio (y) = 0.13051 0.59873
# Poissons Ratio (z) = 0.03155 0.51122
#
# Static dielectric constant tensor:
#      x y z
#    x 1.886980 -0.012710 0.031910 
#    y -0.012710 1.861400 0.019880 
#    z 0.031910 0.019880 1.875290 
# 
# From -- ./inp_files/4044.got.cif
#   From: 2010.05.17/outbox.cif.g08.bks.cpg/sg1_3_cif.got.tgz:4044.got - 2010.05.17 20:27:59.
