data_PCOD9000389
_publ_section_title
;
Structure prediction by ZEFSAII (Michael W. Deem and Ramdas Pophale) SiO2 
 PCOD9000389
Probable space group: P 1
;
_chemical_formula_sum "Si O2"
_cell_formula_units_Z 8
_cell_length_a 8.541911
_cell_length_b 7.683698
_cell_length_c 7.075632
_cell_angle_alpha 101.877877
_cell_angle_beta 104.197607
_cell_angle_gamma 51.805008
_cell_volume 352.932338
_symmetry_space_group_name_H-M "P 1"
_symmetry_group_IT_number 1
_symmetry_cell_setting 'triclinic'
loop_
_space_group_symop_operation_xyz
x,y,z
loop_
_atom_site_type_symbol
_atom_site_label
_atom_site_fract_x
_atom_site_fract_y
_atom_site_fract_z
Si Si1 0.361200 0.134470 0.671100
Si Si2 0.282808 0.917598 0.152602
Si Si3 0.141868 0.922871 0.712140
Si Si4 0.912117 0.394649 0.159451
Si Si5 0.637522 0.696366 0.471434
Si Si6 0.712475 0.368969 0.749181
Si Si7 0.315786 0.471912 0.493467
Si Si8 0.305819 0.278387 0.091011
O O1 0.244009 0.331311 0.528451
O O2 0.248566 0.027633 0.678758
O O3 0.373700 0.241188 0.888811
O O4 0.566024 0.931656 0.588271
O O5 0.434519 0.753969 0.321062
O O6 0.385498 0.035740 0.138057
O O7 0.239948 0.834779 0.931520
O O8 0.062721 0.133061 0.206398
O O9 0.170877 0.730467 0.551707
O O10 0.911465 0.123993 0.717392
O O11 0.808775 0.569265 0.335833
O O12 0.063473 0.410820 0.075297
O O13 0.739625 0.430366 0.979822
O O14 0.700961 0.535376 0.631192
O O15 0.516280 0.385937 0.649041
O O16 0.362127 0.398728 0.273840
#
# Coordination Sequence:
#
# PCOD9000389 Si02
#       8
#     1   1   1   1   1   1   1   1
#     4  11  23  45  70  96 138 189 221 271 357 401
#     4   8  19  42  66  94 136 181 220 272 341 406
#     4  10  23  48  68  95 144 183 220 282 344 410
#     4   9  22  41  66 100 138 184 226 276 344 418
#     4  12  22  36  76 101 128 184 232 269 343 406
#     4  11  25  41  69 106 140 170 236 286 338 403
#     4  12  24  42  69 106 136 177 230 290 332 406
#     4   9  22  43  66  98 142 174 229 280 339 408
#
# _framework density 22.667238000000001
#
# number of rings (size 3 to 8) (size 9 to 14) (size 15 to 20)
#    0.750    1.000    3.750    0.750    5.250    3.000 
#    0.000    0.000    0.000    0.000    0.000    0.000 
#    0.000    0.000    0.000    0.000    0.000    0.000 
#
# Total GULP energy -44653.199627 kJ/mol
# GULP energy per Si atom -5581.649953 kJ/mol
# Density = 2.261565 g / cm^3
# Si number density = 22.667238 Si / 1000 Ang^3
#
#
#
# Elastic Constant Matrix: (Units=GPa)
#
#
# Indices 1 2 3 4 5 6 
#
# 1 33.4352 20.9265 29.6722 14.8086 -0.7306 -11.5278
# 2 20.9265 106.0156 54.3097 20.8696 -6.4975 -10.5068
# 3 29.6722 54.3097 149.0394 26.7888 -8.4933 -7.2930
# 4 14.8086 20.8696 26.7888 46.1265 -13.1328 5.6828
# 5 -0.7306 -6.4975 -8.4933 -13.1328 33.1297 0.3287
# 6 -11.5278 -10.5068 -7.2930 5.6828 0.3287 33.9567
#
#
#
# Elastic Compliance Matrix: (Units=1/GPa)
#
#
# Indices 1 2 3 4 5 6 
#
# 1 0.049228 -0.002463 -0.005657 -0.015601 -0.007205 0.017415
# 2 -0.002463 0.012574 -0.003356 -0.003235 0.000241 0.002873
# 3 -0.005657 -0.003356 0.009400 -0.001780 0.000928 -0.000651
# 4 -0.015601 -0.003235 -0.001780 0.034217 0.012253 -0.012525
# 5 -0.007205 0.000241 0.000928 0.012253 0.035213 -0.004564
# 6 0.017415 0.002873 -0.000651 -0.012525 -0.004564 0.038251
#
#
# Mechanical properties :
#
#
# Convention : Reuss Voigt Hill
#
# Bulk Modulus (GPa) = 20.72600 55.36745 38.04673
# Shear Modulus (GPa) = 22.94431 34.88136 28.91283
#
# Velocity S-wave (km/s) = 3.18500 3.92707 3.57534
# Velocity P-wave (km/s) = 4.76330 6.71131 5.81940
#
# Compressibility (1/GPa) = 0.04824857
#
# Stress axis : x y z
#
# Youngs Moduli (GPa) = 20.31370 79.52800 106.38533
#
# Poissons Ratio (x) = 0.19592 0.60185
# Poissons Ratio (y) = 0.05004 0.35702
# Poissons Ratio (z) = 0.11492 0.26689
#
# Static dielectric constant tensor:
#      x y z
#    x 1.891340 0.033550 -0.000060 
#    y 0.033550 1.857440 -0.007940 
#    z -0.000060 -0.007940 1.896040 
# 
# From -- ./inp_files/3670.got.cif
#   From: 2010.05.17/outbox.cif.g08.bks.cpg/sg1_2_cif.got.tgz:3670.got - 2010.05.17 20:27:59.
