data_PCOD9000172
_publ_section_title
;
Structure prediction by ZEFSAII (Michael W. Deem and Ramdas Pophale) SiO2 
 PCOD9000172
Probable space group: P 1
;
_chemical_formula_sum "Si O2"
_cell_formula_units_Z 8
_cell_length_a 11.975917
_cell_length_b 4.988861
_cell_length_c 7.941111
_cell_angle_alpha 89.856343
_cell_angle_beta 127.495909
_cell_angle_gamma 75.943545
_cell_volume 358.121390
_symmetry_space_group_name_H-M "P 1"
_symmetry_group_IT_number 1
_symmetry_cell_setting 'triclinic'
loop_
_space_group_symop_operation_xyz
x,y,z
loop_
_atom_site_type_symbol
_atom_site_label
_atom_site_fract_x
_atom_site_fract_y
_atom_site_fract_z
Si Si1 0.271090 0.400570 0.565760
Si Si2 0.837474 0.162130 0.879058
Si Si3 0.940728 0.772044 0.290328
Si Si4 0.502214 0.508820 0.551347
Si Si5 0.884720 0.646328 0.730172
Si Si6 0.870111 0.311263 0.422596
Si Si7 0.588798 0.670168 0.295265
Si Si8 0.420577 0.804959 0.810707
O O1 0.368091 0.398231 0.487231
O O2 0.350608 0.552540 0.771755
O O3 0.105090 0.590621 0.391928
O O4 0.292097 0.088808 0.648024
O O5 0.921288 0.919759 0.823195
O O6 0.661003 0.274068 0.692616
O O7 0.887015 0.437567 0.889423
O O8 0.866859 0.997628 0.080242
O O9 0.861476 0.541367 0.267648
O O10 0.939326 0.988184 0.441260
O O11 0.481661 0.642770 0.346984
O O12 0.509685 0.714499 0.715887
O O13 0.956012 0.433308 0.644678
O O14 0.715138 0.767355 0.505837
O O15 0.700594 0.372769 0.328505
O O16 0.510617 0.831457 0.058516
#
# Coordination Sequence:
#
# PCOD9000172 Si02
#       8
#     1   1   1   1   1   1   1   1
#     4  10  25  41  62  89 133 168 216 251 318 384
#     4  11  21  37  66  93 121 164 206 268 316 369
#     4  12  23  42  64  92 129 173 210 259 319 383
#     4   9  23  39  67  92 130 154 220 260 315 374
#     4   9  22  37  57  98 127 148 208 269 316 369
#     4  10  23  37  65  90 129 159 210 264 318 365
#     4   9  21  40  67  99 123 159 216 270 321 363
#     4  10  22  41  64  95 124 175 204 263 321 377
#
# _framework density 22.338792000000002
#
# number of rings (size 3 to 8) (size 9 to 14) (size 15 to 20)
#    1.500    0.500    0.000    3.000    5.250    2.000 
#    0.000    3.750    0.000    0.000    0.000    0.000 
#    0.000    0.000    0.000    0.000    0.000    0.000 
#
# Total GULP energy -44540.232522 kJ/mol
# GULP energy per Si atom -5567.529065 kJ/mol
# Density = 2.228795 g / cm^3
# Si number density = 22.338792 Si / 1000 Ang^3
#
#
#
# Elastic Constant Matrix: (Units=GPa)
#
#
# Indices 1 2 3 4 5 6 
#
# 1 31.2611 19.4796 59.6000 -20.0911 -27.7635 -1.7073
# 2 19.4796 127.0200 23.6525 -11.9041 -9.7717 2.7260
# 3 59.6000 23.6525 28.6189 -1.3896 -23.7305 -3.6625
# 4 -20.0911 -11.9041 -1.3896 24.8818 -2.0625 1.8592
# 5 -27.7635 -9.7717 -23.7305 -2.0625 27.2639 -1.3641
# 6 -1.7073 2.7260 -3.6625 1.8592 -1.3641 26.1902
#
#
#
# Elastic Compliance Matrix: (Units=1/GPa)
#
#
# Indices 1 2 3 4 5 6 
#
# 1 -0.004406 -0.003495 0.028456 -0.002448 0.019105 0.005225
# 2 -0.003495 0.008691 -0.001401 0.001234 -0.001645 -0.001502
# 3 0.028456 -0.001401 0.014918 0.026426 0.043684 0.004486
# 4 -0.002448 0.001234 0.026426 0.042162 0.024224 0.001676
# 5 0.019105 -0.001645 0.043684 0.024224 0.095939 0.010803
# 6 0.005225 -0.001502 0.004486 0.001676 0.010803 0.039750
#
#
# Mechanical properties :
#
#
# Convention : Reuss Voigt Hill
#
# Bulk Modulus (GPa) = 15.07769 43.59604 29.33686
# Shear Modulus (GPa) = 29.06281 21.27839 25.17060
#
# Velocity S-wave (km/s) = 3.61085 3.08966 3.36038
# Velocity P-wave (km/s) = 4.91412 5.68209 5.31200
#
# Compressibility (1/GPa) = 0.06632316
#
# Stress axis : x y z
#
# Youngs Moduli (GPa) = -226.94441 115.06307 67.03303
#
# Poissons Ratio (x) = 0.40213 -1.90750
# Poissons Ratio (y) = -0.79314 0.09391
# Poissons Ratio (z) = 6.45797 0.16120
#
# Static dielectric constant tensor:
#      x y z
#    x 1.890540 -0.016870 -0.079470 
#    y -0.016870 1.837280 0.047420 
#    z -0.079470 0.047420 1.868900 
# 
# From -- ./inp_files/5637.got.cif
#   From: 2010.05.17/outbox.cif.g08.bks.cpg/sg1_3_cif.got.tgz:5637.got - 2010.05.17 20:27:59.
