data_PCOD9000346
_publ_section_title
;
Structure prediction by ZEFSAII (Michael W. Deem and Ramdas Pophale) SiO2 
 PCOD9000346
Probable space group: P 1
;
_chemical_formula_sum "Si O2"
_cell_formula_units_Z 8
_cell_length_a 9.545354
_cell_length_b 9.628918
_cell_length_c 7.207039
_cell_angle_alpha 69.736543
_cell_angle_beta 98.306916
_cell_angle_gamma 148.728514
_cell_volume 306.553894
_symmetry_space_group_name_H-M "P 1"
_symmetry_group_IT_number 1
_symmetry_cell_setting 'triclinic'
loop_
_space_group_symop_operation_xyz
x,y,z
loop_
_atom_site_type_symbol
_atom_site_label
_atom_site_fract_x
_atom_site_fract_y
_atom_site_fract_z
Si Si1 0.355120 0.708640 0.407930
Si Si2 0.232873 0.040585 0.650118
Si Si3 0.725445 0.553641 0.232052
Si Si4 0.251500 0.255583 0.023740
Si Si5 0.152889 0.639765 0.764096
Si Si6 0.193857 0.797502 0.072987
Si Si7 0.806645 0.066083 0.030529
Si Si8 0.010741 0.128020 0.683827
O O1 0.360690 0.747610 0.610208
O O2 0.092242 0.355370 0.498078
O O3 0.320310 0.841603 0.257893
O O4 0.597002 0.859025 0.256574
O O5 0.520855 0.343708 0.462714
O O6 0.014150 0.980362 0.635657
O O7 0.118366 0.784028 0.653339
O O8 0.292018 0.033294 0.874084
O O9 0.994212 0.902732 0.162962
O O10 0.868317 0.536153 0.183865
O O11 0.522730 0.438169 0.090422
O O12 0.106591 0.272406 0.068800
O O13 0.278741 0.329523 0.779489
O O14 0.236663 0.714258 0.960887
O O15 0.862275 0.284259 0.874663
O O16 0.779079 0.952457 0.881424
#
# Coordination Sequence:
#
# PCOD9000346 Si02
#       8
#     1   1   1   1   1   1   1   1
#     4  11  22  45  73 101 156 201 245 314 394 449
#     4  10  23  44  70 113 145 200 257 310 377 461
#     4  12  25  48  75 109 152 204 251 321 382 451
#     4  10  24  48  74 108 151 197 255 316 380 447
#     4   9  23  41  64 110 142 199 252 307 373 465
#     4  10  25  44  67 113 151 199 247 318 376 459
#     4   9  21  43  69 102 153 193 244 312 375 449
#     4   9  21  47  66 114 140 199 257 314 373 465
#
# _framework density 26.096554000000001
#
# number of rings (size 3 to 8) (size 9 to 14) (size 15 to 20)
#    1.500    0.500    1.250    0.750    3.500    4.000 
#    6.750    2.500    0.000    0.000    0.000    0.000 
#    0.000    0.000    0.000    0.000    0.000    0.000 
#
# Total GULP energy -44583.952910 kJ/mol
# GULP energy per Si atom -5572.994114 kJ/mol
# Density = 2.603716 g / cm^3
# Si number density = 26.096554 Si / 1000 Ang^3
#
#
#
# Elastic Constant Matrix: (Units=GPa)
#
#
# Indices 1 2 3 4 5 6 
#
# 1 123.3168 31.4751 36.8093 -16.5593 -24.2343 -19.0471
# 2 31.4751 70.0468 14.3670 -13.5406 -10.2209 3.8035
# 3 36.8093 14.3670 125.0204 -22.2904 -39.4875 -2.3480
# 4 -16.5593 -13.5406 -22.2904 35.4575 10.3899 7.2536
# 5 -24.2343 -10.2209 -39.4875 10.3899 50.7239 -10.4819
# 6 -19.0471 3.8035 -2.3480 7.2536 -10.4819 39.2527
#
#
#
# Elastic Compliance Matrix: (Units=1/GPa)
#
#
# Indices 1 2 3 4 5 6 
#
# 1 0.011894 -0.004759 -0.001106 -0.000126 0.005469 0.007650
# 2 -0.004759 0.017706 -0.000004 0.005948 -0.001044 -0.005403
# 3 -0.001106 -0.000004 0.011610 0.004130 0.007978 0.001525
# 4 -0.000126 0.005948 0.004130 0.036114 -0.004766 -0.008337
# 5 0.005469 -0.001044 0.007978 -0.004766 0.031915 0.012635
# 6 0.007650 -0.005403 0.001525 -0.008337 0.012635 0.034717
#
#
# Mechanical properties :
#
#
# Convention : Reuss Voigt Hill
#
# Bulk Modulus (GPa) = 33.93297 53.74297 43.83797
# Shear Modulus (GPa) = 30.20809 40.80233 35.50521
#
# Velocity S-wave (km/s) = 3.40597 3.95842 3.69254
# Velocity P-wave (km/s) = 5.33841 6.44443 5.91732
#
# Compressibility (1/GPa) = 0.02946987
#
# Stress axis : x y z
#
# Youngs Moduli (GPa) = 84.07939 56.47702 86.13469
#
# Poissons Ratio (x) = 0.26878 0.09529
# Poissons Ratio (y) = 0.40014 0.00038
# Poissons Ratio (z) = 0.09302 0.00025
#
# Static dielectric constant tensor:
#      x y z
#    x 2.138890 -0.033510 -0.007340 
#    y -0.033510 2.138220 0.056870 
#    z -0.007340 0.056870 2.018970 
# 
# From -- ./inp_files/4930.got.cif
#   From: 2010.05.17/outbox.cif.g08.bks.cpg/sg1_3_cif.got.tgz:4930.got - 2010.05.17 20:27:59.
