data_PCOD9000119
_publ_section_title
;
Structure prediction by ZEFSAII (Michael W. Deem and Ramdas Pophale) SiO2 
 PCOD9000119
Probable space group: P 1
;
_chemical_formula_sum "Si O2"
_cell_formula_units_Z 8
_cell_length_a 4.984505
_cell_length_b 7.595721
_cell_length_c 12.083930
_cell_angle_alpha 62.194293
_cell_angle_beta 79.817498
_cell_angle_gamma 64.212919
_cell_volume 364.186231
_symmetry_space_group_name_H-M "P 1"
_symmetry_group_IT_number 1
_symmetry_cell_setting 'triclinic'
loop_
_space_group_symop_operation_xyz
x,y,z
loop_
_atom_site_type_symbol
_atom_site_label
_atom_site_fract_x
_atom_site_fract_y
_atom_site_fract_z
Si Si1 0.665880 0.023130 0.503970
Si Si2 0.310097 0.826635 0.464628
Si Si3 0.291351 0.276630 0.124109
Si Si4 0.154395 0.468573 0.485169
Si Si5 0.721428 0.585612 0.684508
Si Si6 0.908387 0.587456 0.242672
Si Si7 0.267640 0.875500 0.141892
Si Si8 0.876791 0.298840 0.970610
O O1 0.431109 0.247164 0.501123
O O2 0.544279 0.938227 0.429137
O O3 0.719708 0.822333 0.642634
O O4 0.986174 0.015000 0.455080
O O5 0.260055 0.668204 0.425124
O O6 0.420772 0.660292 0.611651
O O7 0.046514 0.400368 0.010482
O O8 0.608404 0.271063 0.065476
O O9 0.160502 0.400103 0.209591
O O10 0.284903 0.036701 0.191251
O O11 0.918266 0.511545 0.390251
O O12 0.985462 0.469852 0.610675
O O13 0.752826 0.437289 0.830268
O O14 0.021735 0.779471 0.188299
O O15 0.592383 0.680630 0.176444
O O16 0.143618 0.059130 0.000354
#
# Coordination Sequence:
#
# PCOD9000119 Si02
#       8
#     1   1   1   1   1   1   1   1
#     4   9  22  41  60  94 129 170 211 249 329 375
#     4   9  22  39  61  92 132 163 213 249 323 377
#     4  10  23  43  66  96 127 174 211 270 316 376
#     4  11  25  42  68  98 132 174 209 270 324 390
#     4   9  23  44  66  99 130 171 210 272 320 392
#     4  12  25  42  69  97 132 165 229 256 326 389
#     4  10  23  45  64 100 125 177 211 273 321 370
#     4  10  21  46  70  90 137 164 220 267 325 377
#
# _framework density 21.966784000000001
#
# number of rings (size 3 to 8) (size 9 to 14) (size 15 to 20)
#    1.500    0.500    1.250    0.750    7.000    3.000 
#    4.500    0.000    0.000    0.000    0.000    0.000 
#    0.000    0.000    0.000    0.000    0.000    0.000 
#
# Total GULP energy -44565.263301 kJ/mol
# GULP energy per Si atom -5570.657913 kJ/mol
# Density = 2.191679 g / cm^3
# Si number density = 21.966784 Si / 1000 Ang^3
#
#
#
# Elastic Constant Matrix: (Units=GPa)
#
#
# Indices 1 2 3 4 5 6 
#
# 1 117.9185 19.6766 8.6399 -0.7688 6.7630 -23.1963
# 2 19.6766 127.8926 23.5929 0.9800 -6.4565 -15.1150
# 3 8.6399 23.5929 56.9743 -5.8590 1.4172 -0.6330
# 4 -0.7688 0.9800 -5.8590 22.9201 -3.0237 2.3219
# 5 6.7630 -6.4565 1.4172 -3.0237 25.7602 -2.6733
# 6 -23.1963 -15.1150 -0.6330 2.3219 -2.6733 35.8054
#
#
#
# Elastic Compliance Matrix: (Units=1/GPa)
#
#
# Indices 1 2 3 4 5 6 
#
# 1 0.009996 -0.000710 -0.001186 -0.000841 -0.002208 0.006045
# 2 -0.000710 0.009241 -0.003895 -0.001401 0.002934 0.003682
# 3 -0.001186 -0.003895 0.019895 0.005282 -0.001400 -0.002508
# 4 -0.000841 -0.001401 0.005282 0.045991 0.004595 -0.003682
# 5 -0.002208 0.002934 -0.001400 0.004595 0.041016 0.002548
# 6 0.006045 0.003682 -0.002508 -0.003682 0.002548 0.033784
#
#
# Mechanical properties :
#
#
# Convention : Reuss Voigt Hill
#
# Bulk Modulus (GPa) = 36.29853 45.17824 40.73838
# Shear Modulus (GPa) = 27.67205 33.62223 30.64714
#
# Velocity S-wave (km/s) = 3.55311 3.91652 3.73923
# Velocity P-wave (km/s) = 5.77866 6.40808 6.10149
#
# Compressibility (1/GPa) = 0.02754933
#
# Stress axis : x y z
#
# Youngs Moduli (GPa) = 100.03911 108.21508 50.26455
#
# Poissons Ratio (x) = 0.07680 0.05963
# Poissons Ratio (y) = 0.07099 0.19579
# Poissons Ratio (z) = 0.11869 0.42151
#
# Static dielectric constant tensor:
#      x y z
#    x 1.813160 0.010080 0.006340 
#    y 0.010080 1.829650 -0.017120 
#    z 0.006340 -0.017120 1.869560 
# 
# From -- ./inp_files/5966.got.cif
#   From: 2010.05.17/outbox.cif.g08.bks.cpg/sg1_3_cif.got.tgz:5966.got - 2010.05.17 20:27:59.
