data_PCOD9000751
_publ_section_title
;
Structure prediction by ZEFSAII (Michael W. Deem and Ramdas Pophale) SiO2 
 PCOD9000751
Probable space group: P 1
;
_chemical_formula_sum "Si O2"
_cell_formula_units_Z 8
_cell_length_a 12.102463
_cell_length_b 5.112415
_cell_length_c 6.268326
_cell_angle_alpha 90.691285
_cell_angle_beta 93.524053
_cell_angle_gamma 66.755922
_cell_volume 355.653570
_symmetry_space_group_name_H-M "P 1"
_symmetry_group_IT_number 1
_symmetry_cell_setting 'triclinic'
loop_
_space_group_symop_operation_xyz
x,y,z
loop_
_atom_site_type_symbol
_atom_site_label
_atom_site_fract_x
_atom_site_fract_y
_atom_site_fract_z
Si Si1 0.783890 0.474130 0.632610
Si Si2 0.065243 0.143260 0.711277
Si Si3 0.586497 0.510249 0.346780
Si Si4 0.648733 0.107865 0.699734
Si Si5 0.155029 0.564883 0.978292
Si Si6 0.369099 0.705471 0.029230
Si Si7 0.217714 0.191219 0.355022
Si Si8 0.429392 0.012508 0.659062
O O1 0.720977 0.500657 0.390658
O O2 0.711873 0.322829 0.762299
O O3 0.923602 0.288013 0.650167
O O4 0.748210 0.791383 0.715066
O O5 0.108662 0.368673 0.831164
O O6 0.137977 0.082917 0.497244
O O7 0.094030 0.878023 0.872182
O O8 0.603738 0.209317 0.452044
O O9 0.504863 0.568030 0.131871
O O10 0.509479 0.756451 0.507768
O O11 0.524980 0.117177 0.782771
O O12 0.297538 0.502421 0.985569
O O13 0.140181 0.476134 0.218241
O O14 0.288455 0.941157 0.193476
O O15 0.371433 0.867069 0.816016
O O16 0.321838 0.233393 0.508873
#
# Coordination Sequence:
#
# PCOD9000751 Si02
#       8
#     1   1   1   1   1   1   1   1
#     4   9  20  42  68  93 126 182 219 274 327 395
#     4  12  26  45  72  96 141 184 227 270 341 400
#     4   8  20  37  65  94 132 170 216 277 332 388
#     4   9  18  40  66  92 122 173 219 267 338 376
#     4  12  25  43  64 105 134 181 224 277 332 404
#     4  11  22  42  66 106 140 167 230 275 343 411
#     4  11  24  43  67 102 143 175 226 274 344 400
#     4  10  19  38  68 100 136 176 211 282 349 398
#
# _framework density 22.493798000000002
#
# number of rings (size 3 to 8) (size 9 to 14) (size 15 to 20)
#    0.750    1.000    2.500    1.500    1.750    2.000 
#    0.000    3.750    5.500    0.000    0.000    0.000 
#    0.000    0.000    0.000    0.000    0.000    0.000 
#
# Total GULP energy -44626.402426 kJ/mol
# GULP energy per Si atom -5578.300303 kJ/mol
# Density = 2.244260 g / cm^3
# Si number density = 22.493798 Si / 1000 Ang^3
#
#
#
# Elastic Constant Matrix: (Units=GPa)
#
#
# Indices 1 2 3 4 5 6 
#
# 1 124.2104 43.2243 44.3007 -7.8990 20.6394 -14.6221
# 2 43.2243 124.6946 34.7163 -23.0109 8.0911 6.2625
# 3 44.3007 34.7163 79.9024 -15.3807 13.0038 -7.8482
# 4 -7.8990 -23.0109 -15.3807 31.6380 0.6582 9.1319
# 5 20.6394 8.0911 13.0038 0.6582 29.8075 -6.2006
# 6 -14.6221 6.2625 -7.8482 9.1319 -6.2006 46.4872
#
#
#
# Elastic Compliance Matrix: (Units=1/GPa)
#
#
# Indices 1 2 3 4 5 6 
#
# 1 0.011743 -0.003101 -0.004559 -0.002367 -0.004584 0.003195
# 2 -0.003101 0.011409 -0.001965 0.007910 -0.001216 -0.004560
# 3 -0.004559 -0.001965 0.017765 0.006137 -0.004181 0.000067
# 4 -0.002367 0.007910 0.006137 0.042770 -0.006211 -0.010004
# 5 -0.004584 -0.001216 -0.004181 -0.006211 0.039964 0.004567
# 6 0.003195 -0.004560 0.000067 -0.010004 0.004567 0.025716
#
#
# Mechanical properties :
#
#
# Convention : Reuss Voigt Hill
#
# Bulk Modulus (GPa) = 46.15416 63.69888 54.92652
# Shear Modulus (GPa) = 28.43464 35.35762 31.89613
#
# Velocity S-wave (km/s) = 3.55929 3.96900 3.76971
# Velocity P-wave (km/s) = 6.12001 7.02736 6.58932
#
# Compressibility (1/GPa) = 0.02166652
#
# Stress axis : x y z
#
# Youngs Moduli (GPa) = 85.15359 87.64726 56.28941
#
# Poissons Ratio (x) = 0.27182 0.25664
# Poissons Ratio (y) = 0.26409 0.11062
# Poissons Ratio (z) = 0.38825 0.17224
#
# Static dielectric constant tensor:
#      x y z
#    x 1.835170 0.008070 0.016150 
#    y 0.008070 1.876460 0.023720 
#    z 0.016150 0.023720 1.874440 
# 
# From -- ./inp_files/1985.got.cif
#   From: 2010.05.17/outbox.cif.g08.bks.cpg/sg1_1_cif.got.tgz:1985.got - 2010.05.17 20:27:59.
