data_PCOD9000436
_publ_section_title
;
Structure prediction by ZEFSAII (Michael W. Deem and Ramdas Pophale) SiO2 
 PCOD9000436
Probable space group: P 1
;
_chemical_formula_sum "Si O2"
_cell_formula_units_Z 8
_cell_length_a 8.344707
_cell_length_b 7.665703
_cell_length_c 11.025293
_cell_angle_alpha 69.998396
_cell_angle_beta 148.203289
_cell_angle_gamma 97.990632
_cell_volume 332.401184
_symmetry_space_group_name_H-M "P 1"
_symmetry_group_IT_number 1
_symmetry_cell_setting 'triclinic'
loop_
_space_group_symop_operation_xyz
x,y,z
loop_
_atom_site_type_symbol
_atom_site_label
_atom_site_fract_x
_atom_site_fract_y
_atom_site_fract_z
Si Si1 0.165190 0.012300 0.335470
Si Si2 0.530864 0.971048 0.952047
Si Si3 0.083069 0.382350 0.627281
Si Si4 0.421872 0.699691 0.765782
Si Si5 0.709877 0.916181 0.528319
Si Si6 0.081396 0.405305 0.330411
Si Si7 0.361151 0.873584 0.088161
Si Si8 0.587373 0.534359 0.478541
O O1 0.085054 0.197481 0.327822
O O2 0.324964 0.803868 0.551163
O O3 0.417716 0.030834 0.397143
O O4 0.833711 0.998477 0.072463
O O5 0.352273 0.173295 0.853021
O O6 0.333210 0.883186 0.755261
O O7 0.612076 0.817898 0.151461
O O8 0.238795 0.549601 0.718911
O O9 0.021340 0.402145 0.437070
O O10 0.814312 0.400449 0.553268
O O11 0.792583 0.579354 0.047482
O O12 0.759611 0.681564 0.615568
O O13 0.024160 0.947351 0.782460
O O14 0.548067 0.977086 0.276433
O O15 0.411382 0.438963 0.486623
O O16 0.332129 0.694803 0.193425
#
# Coordination Sequence:
#
# PCOD9000436 Si02
#       8
#     1   1   1   1   1   1   1   1
#     4  12  26  47  75 111 155 206 260 322 394 473
#     4  12  26  47  75 111 155 206 260 322 394 473
#     4  12  26  48  75 115 151 202 262 322 395 469
#     4  12  24  48  80 100 162 194 256 332 384 466
#     4  10  24  46  74 111 149 203 258 317 396 457
#     4  12  26  48  75 115 151 202 262 322 395 469
#     4  10  24  46  74 111 149 203 258 317 396 457
#     4  10  24  46  74 112 152 204 256 328 388 466
#
# _framework density 24.067302999999999
#
# number of rings (size 3 to 8) (size 9 to 14) (size 15 to 20)
#    0.750    0.000    2.500    5.250    5.250    0.000 
#    0.000    0.000    0.000    0.000    0.000    0.000 
#    0.000    0.000    0.000    0.000    0.000    0.000 
#
# Total GULP energy -44602.048817 kJ/mol
# GULP energy per Si atom -5575.256102 kJ/mol
# Density = 2.401252 g / cm^3
# Si number density = 24.067303 Si / 1000 Ang^3
#
#
#
# Elastic Constant Matrix: (Units=GPa)
#
#
# Indices 1 2 3 4 5 6 
#
# 1 74.3090 18.8539 36.1065 -3.4686 16.9412 -18.5086
# 2 18.8539 117.6301 38.0797 7.4951 8.7039 -6.0487
# 3 36.1065 38.0797 107.4267 20.3386 10.1371 -8.5136
# 4 -3.4686 7.4951 20.3386 26.0520 0.0125 5.1997
# 5 16.9412 8.7039 10.1371 0.0125 27.2113 -2.4575
# 6 -18.5086 -6.0487 -8.5136 5.1997 -2.4575 40.1735
#
#
#
# Elastic Compliance Matrix: (Units=1/GPa)
#
#
# Indices 1 2 3 4 5 6 
#
# 1 0.021119 -0.000568 -0.006741 0.006902 -0.009851 0.006720
# 2 -0.000568 0.009734 -0.002928 -0.000704 -0.001617 0.000576
# 3 -0.006741 -0.002928 0.015011 -0.012007 -0.000347 0.001167
# 4 0.006902 -0.000704 -0.012007 0.050070 -0.000160 -0.005961
# 5 -0.009851 -0.001617 -0.000347 -0.000160 0.043332 -0.002184
# 6 0.006720 0.000576 0.001167 -0.005961 -0.002184 0.028960
#
#
# Mechanical properties :
#
#
# Convention : Reuss Voigt Hill
#
# Bulk Modulus (GPa) = 39.38658 53.93846 46.66252
# Shear Modulus (GPa) = 25.35965 32.44241 28.90103
#
# Velocity S-wave (km/s) = 3.24959 3.67548 3.46908
# Velocity P-wave (km/s) = 5.52092 6.36179 5.95621
#
# Compressibility (1/GPa) = 0.02538936
#
# Stress axis : x y z
#
# Youngs Moduli (GPa) = 47.35104 102.72986 66.61841
#
# Poissons Ratio (x) = 0.05834 0.44910
# Poissons Ratio (y) = 0.02689 0.19507
# Poissons Ratio (z) = 0.31921 0.30080
#
# Static dielectric constant tensor:
#      x y z
#    x 1.958660 0.002830 -0.011270 
#    y 0.002830 1.925700 -0.009610 
#    z -0.011270 -0.009610 1.964110 
# 
# From -- ./inp_files/6456.got.cif
#   From: 2010.05.17/outbox.cif.g08.bks.cpg/sg1_4_cif.got.tgz:6456.got - 2010.05.17 20:27:59.
