data_PCOD9000778
_publ_section_title
;
Structure prediction by ZEFSAII (Michael W. Deem and Ramdas Pophale) SiO2 
 PCOD9000778
Probable space group: P 1
;
_chemical_formula_sum "Si O2"
_cell_formula_units_Z 8
_cell_length_a 7.295946
_cell_length_b 11.200117
_cell_length_c 7.470341
_cell_angle_alpha 145.330033
_cell_angle_beta 104.638012
_cell_angle_gamma 80.956057
_cell_volume 334.552435
_symmetry_space_group_name_H-M "P 1"
_symmetry_group_IT_number 1
_symmetry_cell_setting 'triclinic'
loop_
_space_group_symop_operation_xyz
x,y,z
loop_
_atom_site_type_symbol
_atom_site_label
_atom_site_fract_x
_atom_site_fract_y
_atom_site_fract_z
Si Si1 0.643090 0.970790 0.783580
Si Si2 0.394646 0.552109 0.196840
Si Si3 0.202804 0.562416 0.785258
Si Si4 0.975598 0.505324 0.178432
Si Si5 0.487581 0.277032 0.393578
Si Si6 0.955013 0.815900 0.867801
Si Si7 0.634222 0.176768 0.675979
Si Si8 0.828425 0.624472 0.932697
O O1 0.531498 0.749563 0.541969
O O2 0.859297 0.980801 0.924472
O O3 0.633888 0.995539 0.598648
O O4 0.534979 0.148793 0.074111
O O5 0.200594 0.505368 0.203368
O O6 0.327168 0.607957 0.049005
O O7 0.514130 0.354184 0.955603
O O8 0.284930 0.370387 0.467078
O O9 0.169753 0.779990 0.940145
O O10 0.993319 0.492408 0.726157
O O11 0.926885 0.603614 0.477220
O O12 0.849812 0.285860 0.845874
O O13 0.897126 0.655900 0.190824
O O14 0.537125 0.146055 0.420828
O O15 0.630599 0.489225 0.704361
O O16 0.845211 0.813864 0.028659
#
# Coordination Sequence:
#
# PCOD9000778 Si02
#       8
#     1   1   1   1   1   1   1   1
#     4  12  25  41  67 104 134 163 220 277 322 386
#     4  10  22  46  67  95 130 175 217 269 323 385
#     4   8  20  42  67  89 125 173 217 259 317 388
#     4  10  19  41  70  89 122 181 209 260 327 376
#     4  10  21  42  67  95 127 178 210 270 329 375
#     4  10  21  39  63  99 125 168 217 264 316 391
#     4  10  23  45  66  95 136 169 219 268 323 392
#     4   8  19  38  67  90 125 167 219 257 317 385
#
# _framework density 23.912544
#
# number of rings (size 3 to 8) (size 9 to 14) (size 15 to 20)
#    0.750    1.500    1.250    0.750    1.750    1.000 
#    6.750    2.500    0.000    0.000    0.000    0.000 
#    0.000    0.000    0.000    0.000    0.000    0.000 
#
# Total GULP energy -44601.379228 kJ/mol
# GULP energy per Si atom -5575.172404 kJ/mol
# Density = 2.385812 g / cm^3
# Si number density = 23.912544 Si / 1000 Ang^3
#
#
#
# Elastic Constant Matrix: (Units=GPa)
#
#
# Indices 1 2 3 4 5 6 
#
# 1 110.3933 23.6684 16.5504 19.9457 -4.9159 -11.2907
# 2 23.6684 127.5709 5.7235 -11.7361 -4.8782 2.2345
# 3 16.5504 5.7235 21.4393 -3.5952 -7.7961 -1.0989
# 4 19.9457 -11.7361 -3.5952 24.5936 -3.0093 -14.6398
# 5 -4.9159 -4.8782 -7.7961 -3.0093 26.9035 6.8886
# 6 -11.2907 2.2345 -1.0989 -14.6398 6.8886 30.9276
#
#
#
# Elastic Compliance Matrix: (Units=1/GPa)
#
#
# Indices 1 2 3 4 5 6 
#
# 1 0.015019 -0.003883 -0.015096 -0.018227 -0.003714 -0.002573
# 2 -0.003883 0.009358 0.003091 0.009552 0.002441 0.001994
# 3 -0.015096 0.003091 0.070114 0.030401 0.019795 0.006738
# 4 -0.018227 0.009552 0.030401 0.084416 0.008511 0.031799
# 5 -0.003714 0.002441 0.019795 0.008511 0.045391 -0.006910
# 6 -0.002573 0.001994 0.006738 0.031799 -0.006910 0.048081
#
#
# Mechanical properties :
#
#
# Convention : Reuss Voigt Hill
#
# Bulk Modulus (GPa) = 15.94560 39.03199 27.48880
# Shear Modulus (GPa) = 15.38180 30.71568 23.04874
#
# Velocity S-wave (km/s) = 2.53899 3.58788 3.10800
# Velocity P-wave (km/s) = 3.90872 5.78983 4.93965
#
# Compressibility (1/GPa) = 0.06271323
#
# Stress axis : x y z
#
# Youngs Moduli (GPa) = 66.58293 106.86427 14.26258
#
# Poissons Ratio (x) = 0.41494 0.21531
# Poissons Ratio (y) = 0.25853 -0.04408
# Poissons Ratio (z) = 1.00516 -0.33030
#
# Static dielectric constant tensor:
#      x y z
#    x 1.911470 -0.010160 -0.003160 
#    y -0.010160 2.007980 0.029080 
#    z -0.003160 0.029080 1.866560 
# 
# From -- ./inp_files/4910.got.cif
#   From: 2010.05.17/outbox.cif.g08.bks.cpg/sg1_3_cif.got.tgz:4910.got - 2010.05.17 20:27:59.
