data_PCOD9000603
_publ_section_title
;
Structure prediction by ZEFSAII (Michael W. Deem and Ramdas Pophale) SiO2 
 PCOD9000603
Probable space group: P 1
;
_chemical_formula_sum "Si O2"
_cell_formula_units_Z 8
_cell_length_a 7.743060
_cell_length_b 5.418455
_cell_length_c 8.637387
_cell_angle_alpha 112.403507
_cell_angle_beta 77.786402
_cell_angle_gamma 81.906828
_cell_volume 317.467517
_symmetry_space_group_name_H-M "P 1"
_symmetry_group_IT_number 1
_symmetry_cell_setting 'triclinic'
loop_
_space_group_symop_operation_xyz
x,y,z
loop_
_atom_site_type_symbol
_atom_site_label
_atom_site_fract_x
_atom_site_fract_y
_atom_site_fract_z
Si Si1 0.169960 0.293100 0.357760
Si Si2 0.580270 0.667262 0.746898
Si Si3 0.212628 0.587992 0.724803
Si Si4 0.826350 0.304522 0.208688
Si Si5 0.546690 0.969588 0.151639
Si Si6 0.891761 0.140004 0.556768
Si Si7 0.594929 0.847877 0.463421
Si Si8 0.014999 0.193258 0.856526
O O1 0.185731 0.528572 0.534004
O O2 0.359974 0.202513 0.211520
O O3 0.003952 0.324194 0.275886
O O4 0.094336 0.086165 0.437454
O O5 0.425362 0.502812 0.706337
O O6 0.780060 0.460548 0.643547
O O7 0.535211 0.888110 0.665218
O O8 0.558748 0.774583 0.952808
O O9 0.119462 0.391221 0.796591
O O10 0.134787 0.915447 0.847348
O O11 0.742186 0.043538 0.138387
O O12 0.658322 0.519609 0.365404
O O13 0.876062 0.376569 0.044961
O O14 0.503038 0.914925 0.328652
O O15 0.902153 0.078115 0.720393
O O16 0.772952 0.967910 0.451671
#
# Coordination Sequence:
#
# PCOD9000603 Si02
#       8
#     1   1   1   1   1   1   1   1
#     4  11  24  49  74 110 154 198 259 322 389 463
#     4  12  27  49  75 114 156 207 261 326 393 471
#     4  11  27  50  76 116 156 207 263 325 395 469
#     4  12  25  48  74 112 152 204 255 328 394 465
#     4  12  28  48  75 115 156 200 267 323 390 475
#     4  11  24  46  76 105 152 210 251 322 397 458
#     4  12  24  46  78 107 154 205 263 318 395 469
#     4  11  27  46  78 115 156 205 263 324 397 470
#
# _framework density 25.19943
#
# number of rings (size 3 to 8) (size 9 to 14) (size 15 to 20)
#    0.000    0.500    2.500    4.500   12.250    1.000 
#    9.000    0.000    0.000    0.000    0.000    0.000 
#    0.000    0.000    0.000    0.000    0.000    0.000 
#
# Total GULP energy -44609.828187 kJ/mol
# GULP energy per Si atom -5576.228523 kJ/mol
# Density = 2.514208 g / cm^3
# Si number density = 25.199430 Si / 1000 Ang^3
#
#
#
# Elastic Constant Matrix: (Units=GPa)
#
#
# Indices 1 2 3 4 5 6 
#
# 1 129.7079 16.8778 54.7380 -4.1609 14.8754 4.0800
# 2 16.8778 79.1922 17.6622 -3.5677 -1.3805 1.1189
# 3 54.7380 17.6622 134.9946 -13.8180 14.7009 12.4767
# 4 -4.1609 -3.5677 -13.8180 31.8484 -0.5288 2.4258
# 5 14.8754 -1.3805 14.7009 -0.5288 44.7608 1.1321
# 6 4.0800 1.1189 12.4767 2.4258 1.1321 24.2228
#
#
#
# Elastic Compliance Matrix: (Units=1/GPa)
#
#
# Indices 1 2 3 4 5 6 
#
# 1 0.009602 -0.001311 -0.003590 -0.000518 -0.002070 0.000441
# 2 -0.001311 0.013246 -0.001272 0.000772 0.001268 0.000128
# 3 -0.003590 -0.001272 0.010119 0.004116 -0.001998 -0.004867
# 4 -0.000518 0.000772 0.004116 0.033605 -0.000622 -0.005405
# 5 -0.002070 0.001268 -0.001998 -0.000622 0.023710 0.000273
# 6 0.000441 0.000128 -0.004867 -0.005405 0.000273 0.044239
#
#
# Mechanical properties :
#
#
# Convention : Reuss Voigt Hill
#
# Bulk Modulus (GPa) = 48.49923 58.05008 53.27466
# Shear Modulus (GPa) = 32.52222 37.14084 34.83153
#
# Velocity S-wave (km/s) = 3.59638 3.84327 3.72188
# Velocity P-wave (km/s) = 6.04427 6.54069 6.29737
#
# Compressibility (1/GPa) = 0.02061888
#
# Stress axis : x y z
#
# Youngs Moduli (GPa) = 104.14147 75.49558 98.82665
#
# Poissons Ratio (x) = 0.09900 0.35483
# Poissons Ratio (y) = 0.13657 0.12573
# Poissons Ratio (z) = 0.37391 0.09604
#
# Static dielectric constant tensor:
#      x y z
#    x 1.986720 -0.046400 -0.003270 
#    y -0.046400 2.105450 -0.006940 
#    z -0.003270 -0.006940 2.082040 
# 
# From -- ./inp_files/3427.got.cif
#   From: 2010.05.17/outbox.cif.g08.bks.cpg/sg1_2_cif.got.tgz:3427.got - 2010.05.17 20:27:59.
