data_PCOD9000644
_publ_section_title
;
Structure prediction by ZEFSAII (Michael W. Deem and Ramdas Pophale) SiO2 
 PCOD9000644
Probable space group: P 1
;
_chemical_formula_sum "Si O2"
_cell_formula_units_Z 8
_cell_length_a 12.733573
_cell_length_b 4.879096
_cell_length_c 6.766808
_cell_angle_alpha 77.883848
_cell_angle_beta 93.651522
_cell_angle_gamma 125.254038
_cell_volume 334.789564
_symmetry_space_group_name_H-M "P 1"
_symmetry_group_IT_number 1
_symmetry_cell_setting 'triclinic'
loop_
_space_group_symop_operation_xyz
x,y,z
loop_
_atom_site_type_symbol
_atom_site_label
_atom_site_fract_x
_atom_site_fract_y
_atom_site_fract_z
Si Si1 0.358400 0.743900 0.134060
Si Si2 0.647697 0.775303 0.590661
Si Si3 0.605058 0.264376 0.327854
Si Si4 0.948734 0.565577 0.046500
Si Si5 0.105902 0.482875 0.392336
Si Si6 0.138279 0.973722 0.659499
Si Si7 0.792037 0.853739 0.966666
Si Si8 0.391792 0.376591 0.855028
O O1 0.220774 0.574506 0.243868
O O2 0.468900 0.943655 0.281207
O O3 0.370206 0.477240 0.052786
O O4 0.382146 0.028477 0.936197
O O5 0.599023 0.468510 0.477996
O O6 0.528719 0.668809 0.736843
O O7 0.684628 0.114346 0.428940
O O8 0.758536 0.826348 0.736896
O O9 0.673435 0.536226 0.118085
O O10 0.910745 0.829759 0.030165
O O11 0.998566 0.484263 0.257443
O O12 0.826644 0.212364 0.997581
O O13 0.059737 0.726362 0.870155
O O14 0.155091 0.768839 0.523880
O O15 0.063822 0.127714 0.540796
O O16 0.275911 0.286354 0.711257
#
# Coordination Sequence:
#
# PCOD9000644 Si02
#       8
#     1   1   1   1   1   1   1   1
#     4  12  24  44  76 105 143 182 224 289 362 418
#     4  12  26  46  74 105 143 183 232 289 354 416
#     4  12  26  46  74 105 143 183 232 289 354 416
#     4  12  28  47  72 101 142 188 240 288 340 408
#     4  12  26  46  74 105 143 183 232 289 354 416
#     4  12  26  46  74 105 143 183 232 289 354 416
#     4  12  28  47  72 101 142 188 240 288 340 408
#     4  12  24  44  76 105 143 182 224 289 362 418
#
# _framework density 23.895607999999999
#
# number of rings (size 3 to 8) (size 9 to 14) (size 15 to 20)
#    0.000    0.000    2.500    7.500    3.500    6.000 
#    0.000    0.000    0.000    0.000    0.000    0.000 
#    0.000    0.000    0.000    0.000    0.000    0.000 
#
# Total GULP energy -44877.818947 kJ/mol
# GULP energy per Si atom -5609.727368 kJ/mol
# Density = 2.384122 g / cm^3
# Si number density = 23.895608 Si / 1000 Ang^3
#
#
#
# Elastic Constant Matrix: (Units=GPa)
#
#
# Indices 1 2 3 4 5 6 
#
# 1 76.6205 2.8816 25.0326 6.9538 8.8015 -8.5229
# 2 2.8816 66.4572 13.8923 6.9999 -2.1529 -15.4100
# 3 25.0326 13.8923 81.1577 10.5534 20.8999 -10.0213
# 4 6.9538 6.9999 10.5534 47.7085 -13.8746 -1.4638
# 5 8.8015 -2.1529 20.8999 -13.8746 46.9189 -2.1278
# 6 -8.5229 -15.4100 -10.0213 -1.4638 -2.1278 36.6307
#
#
#
# Elastic Compliance Matrix: (Units=1/GPa)
#
#
# Indices 1 2 3 4 5 6 
#
# 1 0.014888 0.000907 -0.003807 -0.001807 -0.001470 0.002646
# 2 0.000907 0.017349 -0.002670 -0.001378 0.001717 0.006824
# 3 -0.003807 -0.002670 0.017053 -0.005226 -0.008461 0.001956
# 4 -0.001807 -0.001378 -0.005226 0.025496 0.010106 -0.000824
# 5 -0.001470 0.001717 -0.008461 0.010106 0.028431 0.000121
# 6 0.002646 0.006824 0.001956 -0.000824 0.000121 0.031295
#
#
# Mechanical properties :
#
#
# Convention : Reuss Voigt Hill
#
# Bulk Modulus (GPa) = 26.21229 34.20538 30.20883
# Shear Modulus (GPa) = 31.57166 38.41356 34.99261
#
# Velocity S-wave (km/s) = 3.63882 4.01379 3.83089
# Velocity P-wave (km/s) = 5.35238 5.98550 5.67777
#
# Compressibility (1/GPa) = 0.03815004
#
# Stress axis : x y z
#
# Youngs Moduli (GPa) = 67.16696 57.63970 58.64030
#
# Poissons Ratio (x) = -0.05226 0.22325
# Poissons Ratio (y) = -0.06090 0.15656
# Poissons Ratio (z) = 0.25571 0.15389
#
# Static dielectric constant tensor:
#      x y z
#    x 1.901460 0.024950 0.022390 
#    y 0.024950 1.840030 -0.011150 
#    z 0.022390 -0.011150 1.881720 
# 
# From -- ./inp_files/670.got.cif
#   From: 2010.05.17/outbox.cif.g08.bks.cpg/sg1_1_cif.got.tgz:670.got - 2010.05.17 20:27:59.
