data_PCOD9000333
_publ_section_title
;
Structure prediction by ZEFSAII (Michael W. Deem and Ramdas Pophale) SiO2 
 PCOD9000333
Probable space group: P 1
;
_chemical_formula_sum "Si O2"
_cell_formula_units_Z 8
_cell_length_a 10.776910
_cell_length_b 7.183820
_cell_length_c 12.199653
_cell_angle_alpha 82.041859
_cell_angle_beta 153.369335
_cell_angle_gamma 113.220635
_cell_volume 332.441008
_symmetry_space_group_name_H-M "P 1"
_symmetry_group_IT_number 1
_symmetry_cell_setting 'triclinic'
loop_
_space_group_symop_operation_xyz
x,y,z
loop_
_atom_site_type_symbol
_atom_site_label
_atom_site_fract_x
_atom_site_fract_y
_atom_site_fract_z
Si Si1 0.569280 0.003610 0.219600
Si Si2 0.139540 0.212551 0.262925
Si Si3 0.332940 0.960265 0.594409
Si Si4 0.189235 0.094885 0.090819
Si Si5 0.364539 0.469330 0.824979
Si Si6 0.202383 0.821968 0.732513
Si Si7 0.454742 0.513226 0.140229
Si Si8 0.488265 0.628345 0.674401
O O1 0.397224 0.035904 0.184380
O O2 0.977531 0.220787 0.530309
O O3 0.451869 0.735399 0.141606
O O4 0.416250 0.008097 0.981587
O O5 0.167147 0.037564 0.373589
O O6 0.349143 0.246057 0.316192
O O7 0.304687 0.435892 0.451581
O O8 0.754814 0.127104 0.930346
O O9 0.183790 0.938064 0.599050
O O10 0.260884 0.718782 0.516505
O O11 0.143038 0.260976 0.964658
O O12 0.848682 0.850863 0.889009
O O13 0.364829 0.695088 0.829455
O O14 0.526404 0.525736 0.826012
O O15 0.502357 0.469870 0.054568
O O16 0.812995 0.606019 0.476629
#
# Coordination Sequence:
#
# PCOD9000333 Si02
#       8
#     1   1   1   1   1   1   1   1
#     4  11  25  43  72 104 139 186 241 297 363 423
#     4  11  26  47  71 106 146 194 239 295 365 437
#     4  10  25  45  73 107 146 183 245 302 357 434
#     4  11  27  45  67 106 144 184 239 293 357 439
#     4  10  23  46  72 108 134 180 247 300 355 431
#     4  10  23  43  71 104 141 182 237 299 357 428
#     4  11  26  43  74 100 142 185 239 297 360 429
#     4  10  25  46  74 103 146 190 235 299 370 427
#
# _framework density 24.064419999999998
#
# number of rings (size 3 to 8) (size 9 to 14) (size 15 to 20)
#    0.000    1.500    1.250    0.750   12.250    7.000 
#    2.250    0.000    0.000    0.000    0.000    0.000 
#    0.000    0.000    0.000    0.000    0.000    0.000 
#
# Total GULP energy -44666.723593 kJ/mol
# GULP energy per Si atom -5583.340449 kJ/mol
# Density = 2.400965 g / cm^3
# Si number density = 24.064420 Si / 1000 Ang^3
#
#
#
# Elastic Constant Matrix: (Units=GPa)
#
#
# Indices 1 2 3 4 5 6 
#
# 1 174.3721 64.8007 63.9163 26.7684 -23.9671 1.2383
# 2 64.8007 110.4049 32.2259 17.0283 -5.2849 6.2546
# 3 63.9163 32.2259 129.9186 16.8775 -25.2415 4.4275
# 4 26.7684 17.0283 16.8775 29.5738 -8.2473 -6.9759
# 5 -23.9671 -5.2849 -25.2415 -8.2473 36.8575 12.5930
# 6 1.2383 6.2546 4.4275 -6.9759 12.5930 46.5114
#
#
#
# Elastic Compliance Matrix: (Units=1/GPa)
#
#
# Indices 1 2 3 4 5 6 
#
# 1 0.009072 -0.003813 -0.002345 -0.004020 0.003178 -0.000969
# 2 -0.003813 0.012168 -0.000914 -0.003875 -0.001691 -0.001571
# 3 -0.002345 -0.000914 0.010669 -0.002414 0.006081 -0.002839
# 4 -0.004020 -0.003875 -0.002414 0.043358 0.002605 0.006656
# 5 0.003178 -0.001691 0.006081 0.002605 0.037156 -0.010105
# 6 -0.000969 -0.001571 -0.002839 0.006656 -0.010105 0.025742
#
#
# Mechanical properties :
#
#
# Convention : Reuss Voigt Hill
#
# Bulk Modulus (GPa) = 56.28710 81.84239 69.06474
# Shear Modulus (GPa) = 31.59943 39.50538 35.55241
#
# Velocity S-wave (km/s) = 3.62763 4.05612 3.84785
# Velocity P-wave (km/s) = 6.40213 7.48463 6.96444
#
# Compressibility (1/GPa) = 0.01776606
#
# Stress axis : x y z
#
# Youngs Moduli (GPa) = 110.22500 82.18059 93.72921
#
# Poissons Ratio (x) = 0.31339 0.21976
# Poissons Ratio (y) = 0.42034 0.08565
# Poissons Ratio (z) = 0.25844 0.07509
#
# Static dielectric constant tensor:
#      x y z
#    x 1.912990 0.023850 0.032880 
#    y 0.023850 2.032580 -0.035850 
#    z 0.032880 -0.035850 1.961950 
# 
# From -- ./inp_files/6746.got.cif
#   From: 2010.05.17/outbox.cif.g08.bks.cpg/sg1_4_cif.got.tgz:6746.got - 2010.05.17 20:27:59.
