data_PCOD9000217
_publ_section_title
;
Structure prediction by ZEFSAII (Michael W. Deem and Ramdas Pophale) SiO2 
 PCOD9000217
Probable space group: P 1
;
_chemical_formula_sum "Si O2"
_cell_formula_units_Z 8
_cell_length_a 4.971753
_cell_length_b 11.828129
_cell_length_c 13.189394
_cell_angle_alpha 153.602001
_cell_angle_beta 107.781393
_cell_angle_gamma 73.717056
_cell_volume 328.328266
_symmetry_space_group_name_H-M "P 1"
_symmetry_group_IT_number 1
_symmetry_cell_setting 'triclinic'
loop_
_space_group_symop_operation_xyz
x,y,z
loop_
_atom_site_type_symbol
_atom_site_label
_atom_site_fract_x
_atom_site_fract_y
_atom_site_fract_z
Si Si1 0.469100 0.881100 0.490970
Si Si2 0.482956 0.358324 0.147033
Si Si3 0.025126 0.329061 0.791293
Si Si4 0.909870 0.207233 0.896756
Si Si5 0.283170 0.412344 0.569149
Si Si6 0.707083 0.293499 0.344897
Si Si7 0.536901 0.974905 0.360219
Si Si8 0.752141 0.757000 0.999630
O O1 0.358564 0.644877 0.350887
O O2 0.459990 0.805360 0.310838
O O3 0.770677 0.953268 0.631170
O O4 0.299650 0.149312 0.687974
O O5 0.622908 0.331389 0.250372
O O6 0.710313 0.312853 0.047589
O O7 0.222746 0.172129 0.949325
O O8 0.939026 0.384768 0.942662
O O9 0.013195 0.567587 0.905552
O O10 0.787086 0.148169 0.571543
O O11 0.438270 0.327194 0.414525
O O12 0.491605 0.619691 0.805188
O O13 0.958672 0.473874 0.557045
O O14 0.296822 0.176456 0.460139
O O15 0.821515 0.005866 0.144209
O O16 0.642439 0.837862 0.162579
#
# Coordination Sequence:
#
# PCOD9000217 Si02
#       8
#     1   1   1   1   1   1   1   1
#     4  11  25  43  70 103 147 171 222 286 336 403
#     4  12  27  44  75  96 137 185 230 275 336 403
#     4  10  22  43  68 109 137 174 223 280 343 406
#     4  11  25  46  69 106 132 182 229 273 343 404
#     4  10  24  45  69 100 136 174 230 282 339 393
#     4  11  26  48  66 103 133 180 235 277 332 400
#     4   9  22  40  67 104 136 177 223 275 344 408
#     4  10  23  45  72  97 140 181 220 284 339 405
#
# _framework density 24.365860000000001
#
# number of rings (size 3 to 8) (size 9 to 14) (size 15 to 20)
#    0.000    1.500    1.250    1.500   10.500    4.000 
#    9.000    0.000    0.000    0.000    0.000    0.000 
#    0.000    0.000    0.000    0.000    0.000    0.000 
#
# Total GULP energy -44781.075737 kJ/mol
# GULP energy per Si atom -5597.634467 kJ/mol
# Density = 2.431040 g / cm^3
# Si number density = 24.365860 Si / 1000 Ang^3
#
#
#
# Elastic Constant Matrix: (Units=GPa)
#
#
# Indices 1 2 3 4 5 6 
#
# 1 102.9250 37.6282 21.4670 -16.3423 1.1491 -10.5424
# 2 37.6282 135.7286 67.3699 -37.7505 0.0478 1.7089
# 3 21.4670 67.3699 80.7920 -24.4254 1.3485 -2.9285
# 4 -16.3423 -37.7505 -24.4254 37.4121 -5.8239 5.6031
# 5 1.1491 0.0478 1.3485 -5.8239 48.1797 -12.3620
# 6 -10.5424 1.7089 -2.9285 5.6031 -12.3620 27.2790
#
#
#
# Elastic Compliance Matrix: (Units=1/GPa)
#
#
# Indices 1 2 3 4 5 6 
#
# 1 0.011475 -0.002719 -0.000129 0.001649 0.001158 0.004777
# 2 -0.002719 0.015424 -0.009650 0.008818 0.000156 -0.004794
# 3 -0.000129 -0.009650 0.021793 0.004173 0.000486 0.002257
# 4 0.001649 0.008818 0.004173 0.040510 0.003093 -0.006386
# 5 0.001158 0.000156 0.000486 0.003093 0.023821 0.010649
# 6 0.004777 -0.004794 0.002257 -0.006386 0.010649 0.045185
#
#
# Mechanical properties :
#
#
# Convention : Reuss Voigt Hill
#
# Bulk Modulus (GPa) = 42.19956 63.59732 52.89844
# Shear Modulus (GPa) = 26.16407 35.43952 30.80179
#
# Velocity S-wave (km/s) = 3.28044 3.81789 3.55933
# Velocity P-wave (km/s) = 5.63073 6.75224 6.21683
#
# Compressibility (1/GPa) = 0.02369693
#
# Stress axis : x y z
#
# Youngs Moduli (GPa) = 87.14570 64.83457 45.88526
#
# Poissons Ratio (x) = 0.17627 0.00594
# Poissons Ratio (y) = 0.23693 0.44277
# Poissons Ratio (z) = 0.01127 0.62562
#
# Static dielectric constant tensor:
#      x y z
#    x 1.973780 -0.008830 -0.023930 
#    y -0.008830 1.904900 0.038580 
#    z -0.023930 0.038580 1.969790 
# 
# From -- ./inp_files/348.got.cif
#   From: 2010.05.17/outbox.cif.g08.bks.cpg/sg1_1_cif.got.tgz:348.got - 2010.05.17 20:27:59.
