data_PCOD9000152
_publ_section_title
;
Structure prediction by ZEFSAII (Michael W. Deem and Ramdas Pophale) SiO2 
 PCOD9000152
Probable space group: P 1
;
_chemical_formula_sum "Si O2"
_cell_formula_units_Z 8
_cell_length_a 7.612915
_cell_length_b 13.011586
_cell_length_c 10.338177
_cell_angle_alpha 35.030848
_cell_angle_beta 140.240762
_cell_angle_gamma 133.166208
_cell_volume 371.765582
_symmetry_space_group_name_H-M "P 1"
_symmetry_group_IT_number 1
_symmetry_cell_setting 'triclinic'
loop_
_space_group_symop_operation_xyz
x,y,z
loop_
_atom_site_type_symbol
_atom_site_label
_atom_site_fract_x
_atom_site_fract_y
_atom_site_fract_z
Si Si1 0.539220 0.694280 0.320190
Si Si2 0.356228 0.054610 0.210787
Si Si3 0.949492 0.544686 0.099234
Si Si4 0.413964 0.657603 0.585359
Si Si5 0.597206 0.313294 0.627514
Si Si6 0.963664 0.053668 0.219847
Si Si7 0.989364 0.333168 0.608257
Si Si8 0.987617 0.193434 0.368061
O O1 0.528504 0.650511 0.511719
O O2 0.607530 0.522003 0.456726
O O3 0.217146 0.698738 0.096140
O O4 0.755174 0.875470 0.241823
O O5 0.686171 0.118753 0.331730
O O6 0.235118 0.065114 0.274616
O O7 0.314985 0.848721 0.352983
O O8 0.178857 0.173757 0.896773
O O9 0.963140 0.415386 0.366213
O O10 0.967477 0.409859 0.126652
O O11 0.665787 0.625593 0.852987
O O12 0.162632 0.495821 0.621134
O O13 0.695614 0.288527 0.561117
O O14 0.289722 0.206986 0.590344
O O15 0.812813 0.224163 0.925556
O O16 0.008733 0.072888 0.377378
#
# Coordination Sequence:
#
# PCOD9000152 Si02
#       8
#     1   1   1   1   1   1   1   1
#     4  10  22  40  63  94 128 168 218 263 318 383
#     4  11  24  42  68  95 130 170 215 264 326 378
#     4  10  23  40  70  94 131 173 215 264 326 380
#     4  11  21  41  66  97 127 174 212 267 321 386
#     4  10  24  41  66  94 130 169 218 263 322 382
#     4  11  24  43  65  95 130 171 211 271 318 383
#     4  10  23  44  65  97 132 169 217 268 320 386
#     4  11  23  41  65  96 128 170 212 264 321 382
#
# _framework density 21.518936
#
# number of rings (size 3 to 8) (size 9 to 14) (size 15 to 20)
#    0.000    1.500    2.500    1.500    7.000    0.000 
#    2.250    3.750    0.000    0.000    0.000    0.000 
#    0.000    0.000    0.000    0.000    0.000    0.000 
#
# Total GULP energy -44646.816679 kJ/mol
# GULP energy per Si atom -5580.852085 kJ/mol
# Density = 2.146996 g / cm^3
# Si number density = 21.518936 Si / 1000 Ang^3
#
#
#
# Elastic Constant Matrix: (Units=GPa)
#
#
# Indices 1 2 3 4 5 6 
#
# 1 115.9965 29.3200 37.5564 19.5123 17.9550 12.4788
# 2 29.3200 102.0960 46.0810 -4.4214 7.4706 -7.2267
# 3 37.5564 46.0810 76.8232 -10.0071 21.9615 -3.6609
# 4 19.5123 -4.4214 -10.0071 22.2241 -0.0500 5.3716
# 5 17.9550 7.4706 21.9615 -0.0500 22.7060 -2.4301
# 6 12.4788 -7.2267 -3.6609 5.3716 -2.4301 29.9125
#
#
#
# Elastic Compliance Matrix: (Units=1/GPa)
#
#
# Indices 1 2 3 4 5 6 
#
# 1 0.015548 -0.001837 -0.007365 -0.016047 -0.005177 -0.005371
# 2 -0.001837 0.014337 -0.009383 -0.000640 0.006206 0.003701
# 3 -0.007365 -0.009383 0.030513 0.018399 -0.020607 -0.000438
# 4 -0.016047 -0.000640 0.018399 0.068166 -0.005160 -0.003869
# 5 -0.005177 0.006206 -0.020607 -0.005160 0.066815 0.007491
# 6 -0.005371 0.003701 -0.000438 -0.003869 0.007491 0.037815
#
#
# Mechanical properties :
#
#
# Convention : Reuss Voigt Hill
#
# Bulk Modulus (GPa) = 43.05263 57.87005 50.46134
# Shear Modulus (GPa) = 17.97862 27.09907 22.53884
#
# Velocity S-wave (km/s) = 2.89360 3.55253 3.23986
# Velocity P-wave (km/s) = 5.58697 6.61652 6.12342
#
# Compressibility (1/GPa) = 0.02322738
#
# Stress axis : x y z
#
# Youngs Moduli (GPa) = 64.31516 69.74731 32.77331
#
# Poissons Ratio (x) = 0.12813 0.24139
# Poissons Ratio (y) = 0.11815 0.30751
# Poissons Ratio (z) = 0.47371 0.65444
#
# Static dielectric constant tensor:
#      x y z
#    x 1.836450 0.002270 -0.020090 
#    y 0.002270 1.803260 0.015620 
#    z -0.020090 0.015620 1.784320 
# 
# From -- ./inp_files/2234.got.cif
#   From: 2010.05.17/outbox.cif.g08.bks.cpg/sg1_2_cif.got.tgz:2234.got - 2010.05.17 20:27:59.
