data_PCOD9000896
_publ_section_title
;
Structure prediction by ZEFSAII (Michael W. Deem and Ramdas Pophale) SiO2 
 PCOD9000896
Probable space group: P 1
;
_chemical_formula_sum "Si O2"
_cell_formula_units_Z 8
_cell_length_a 7.760281
_cell_length_b 7.765679
_cell_length_c 9.132323
_cell_angle_alpha 48.316200
_cell_angle_beta 51.949328
_cell_angle_gamma 59.780995
_cell_volume 319.551028
_symmetry_space_group_name_H-M "P 1"
_symmetry_group_IT_number 1
_symmetry_cell_setting 'triclinic'
loop_
_space_group_symop_operation_xyz
x,y,z
loop_
_atom_site_type_symbol
_atom_site_label
_atom_site_fract_x
_atom_site_fract_y
_atom_site_fract_z
Si Si1 0.423720 0.201980 0.109630
Si Si2 0.977460 0.123742 0.087192
Si Si3 0.491734 0.653715 0.406497
Si Si4 0.542886 0.397273 0.232208
Si Si5 0.062128 0.969057 0.828173
Si Si6 0.739966 0.274682 0.651630
Si Si7 0.128013 0.528961 0.878912
Si Si8 0.442086 0.908115 0.887450
O O1 0.422006 0.278575 0.234934
O O2 0.475390 0.923564 0.226414
O O3 0.601904 0.310914 0.855332
O O4 0.201914 0.328481 0.074197
O O5 0.918125 0.023788 0.019774
O O6 0.032061 0.384128 0.884879
O O7 0.762340 0.200440 0.256026
O O8 0.216771 0.963519 0.075705
O O9 0.443618 0.494718 0.383192
O O10 0.716371 0.510954 0.438622
O O11 0.317518 0.637511 0.636230
O O12 0.565023 0.648009 0.001493
O O13 0.983384 0.164730 0.638306
O O14 0.997473 0.740373 0.916235
O O15 0.314298 0.936301 0.779560
O O16 0.604314 0.092926 0.738819
#
# Coordination Sequence:
#
# PCOD9000896 Si02
#       8
#     1   1   1   1   1   1   1   1
#     4  11  20  42  69  90 131 184 219 272 346 398
#     4  10  21  38  71  96 128 179 230 268 341 406
#     4  11  25  40  65 105 135 170 230 282 342 406
#     4  12  22  41  71 100 135 178 225 286 344 399
#     4  10  21  40  69 101 126 181 238 263 341 415
#     4  11  21  45  68  93 141 181 219 283 340 405
#     4  11  22  43  70  91 136 183 223 281 341 404
#     4  10  20  41  73  94 132 176 228 281 331 401
#
# _framework density 25.035125000000001
#
# number of rings (size 3 to 8) (size 9 to 14) (size 15 to 20)
#    0.750    0.500    6.250    0.750    0.000    2.000 
#    4.500    0.000   11.000    0.000    0.000    0.000 
#    0.000    0.000    0.000    0.000    0.000    0.000 
#
# Total GULP energy -44540.438794 kJ/mol
# GULP energy per Si atom -5567.554849 kJ/mol
# Density = 2.497814 g / cm^3
# Si number density = 25.035125 Si / 1000 Ang^3
#
#
#
# Elastic Constant Matrix: (Units=GPa)
#
#
# Indices 1 2 3 4 5 6 
#
# 1 91.3335 37.3204 38.1106 1.0134 20.2866 -3.6409
# 2 37.3204 180.7752 46.9239 4.2829 18.2462 13.4261
# 3 38.1106 46.9239 90.3693 -5.8926 21.2118 -3.5827
# 4 1.0134 4.2829 -5.8926 22.1805 -10.3686 14.8657
# 5 20.2866 18.2462 21.2118 -10.3686 31.4058 1.2142
# 6 -3.6409 13.4261 -3.5827 14.8657 1.2142 37.1049
#
#
#
# Elastic Compliance Matrix: (Units=1/GPa)
#
#
# Indices 1 2 3 4 5 6 
#
# 1 0.015876 -0.001408 -0.003935 -0.010645 -0.010537 0.006297
# 2 -0.001408 0.006907 -0.002816 -0.001070 -0.001460 -0.002433
# 3 -0.003935 -0.002816 0.015815 0.000444 -0.006442 0.002193
# 4 -0.010645 -0.001070 0.000444 0.088675 0.037918 -0.037382
# 5 -0.010537 -0.001460 -0.006442 0.037918 0.057069 -0.018187
# 6 0.006297 -0.002433 0.002193 -0.037382 -0.018187 0.044232
#
#
# Mechanical properties :
#
#
# Convention : Reuss Voigt Hill
#
# Bulk Modulus (GPa) = 44.88419 67.46532 56.17475
# Shear Modulus (GPa) = 19.81617 34.14647 26.98132
#
# Velocity S-wave (km/s) = 2.81647 3.69717 3.28645
# Velocity P-wave (km/s) = 5.34267 6.72548 6.07356
#
# Compressibility (1/GPa) = 0.02227956
#
# Stress axis : x y z
#
# Youngs Moduli (GPa) = 62.98898 144.78553 63.22924
#
# Poissons Ratio (x) = 0.20385 0.24883
# Poissons Ratio (y) = 0.08869 0.17805
# Poissons Ratio (z) = 0.24788 0.40771
#
# Static dielectric constant tensor:
#      x y z
#    x 2.127220 -0.037670 -0.004270 
#    y -0.037670 1.981910 0.029810 
#    z -0.004270 0.029810 1.966290 
# 
# From -- ./inp_files/4031.got.cif
#   From: 2010.05.17/outbox.cif.g08.bks.cpg/sg1_3_cif.got.tgz:4031.got - 2010.05.17 20:27:59.
