data_PCOD9000672
_publ_section_title
;
Structure prediction by ZEFSAII (Michael W. Deem and Ramdas Pophale) SiO2 
 PCOD9000672
Probable space group: P 1
;
_chemical_formula_sum "Si O2"
_cell_formula_units_Z 8
_cell_length_a 8.043863
_cell_length_b 11.900403
_cell_length_c 7.139363
_cell_angle_alpha 115.284211
_cell_angle_beta 123.318834
_cell_angle_gamma 38.285152
_cell_volume 353.817404
_symmetry_space_group_name_H-M "P 1"
_symmetry_group_IT_number 1
_symmetry_cell_setting 'triclinic'
loop_
_space_group_symop_operation_xyz
x,y,z
loop_
_atom_site_type_symbol
_atom_site_label
_atom_site_fract_x
_atom_site_fract_y
_atom_site_fract_z
Si Si1 0.849260 0.028480 0.495840
Si Si2 0.910752 0.454507 0.412873
Si Si3 0.509642 0.291163 0.799296
Si Si4 0.399397 0.836959 0.234634
Si Si5 0.809358 0.215835 0.291090
Si Si6 0.883488 0.349730 0.927563
Si Si7 0.487294 0.715994 0.794566
Si Si8 0.514310 0.963203 0.082202
O O1 0.704761 0.104869 0.666455
O O2 0.775099 0.193581 0.468388
O O3 0.708155 0.994497 0.242487
O O4 0.187964 0.843395 0.590444
O O5 0.182808 0.403428 0.628978
O O6 0.622604 0.669911 0.392595
O O7 0.862563 0.337295 0.376641
O O8 0.965254 0.405974 0.189732
O O9 0.643149 0.362609 0.865522
O O10 0.561746 0.276064 0.042983
O O11 0.506720 0.915428 0.258127
O O12 0.382055 0.761091 0.981591
O O13 0.095669 0.011051 0.257373
O O14 0.734256 0.500690 0.783246
O O15 0.189078 0.141271 0.937947
O O16 0.614859 0.797203 0.910755
#
# Coordination Sequence:
#
# PCOD9000672 Si02
#       8
#     1   1   1   1   1   1   1   1
#     4  12  22  37  66  90 118 164 195 243 308 347
#     4  10  20  38  63  86 120 161 194 247 301 345
#     4  11  20  41  62  88 115 165 197 240 304 349
#     4   9  18  40  61  81 121 153 198 244 287 353
#     4  11  23  42  57  90 126 152 202 248 289 363
#     4  10  18  35  63  88 116 152 201 241 290 358
#     4   9  20  36  59  87 116 154 196 241 293 345
#     4  10  19  37  59  90 120 153 203 244 288 362
#
# _framework density 22.610533
#
# number of rings (size 3 to 8) (size 9 to 14) (size 15 to 20)
#    0.750    1.000    6.250    0.000    1.750    1.000 
#    2.250    0.000    0.000    0.000    0.000    0.000 
#    0.000    0.000    0.000    0.000    0.000    0.000 
#
# Total GULP energy -44618.904225 kJ/mol
# GULP energy per Si atom -5577.363028 kJ/mol
# Density = 2.255907 g / cm^3
# Si number density = 22.610533 Si / 1000 Ang^3
#
#
#
# Elastic Constant Matrix: (Units=GPa)
#
#
# Indices 1 2 3 4 5 6 
#
# 1 36.8342 19.3103 46.3240 -9.2729 9.3889 11.8470
# 2 19.3103 127.8152 55.7270 -25.6169 10.8748 21.4927
# 3 46.3240 55.7270 162.4392 -24.3851 28.4425 8.8468
# 4 -9.2729 -25.6169 -24.3851 37.5310 -4.1754 -11.0069
# 5 9.3889 10.8748 28.4425 -4.1754 37.9653 11.3462
# 6 11.8470 21.4927 8.8468 -11.0069 11.3462 29.3149
#
#
#
# Elastic Compliance Matrix: (Units=1/GPa)
#
#
# Indices 1 2 3 4 5 6 
#
# 1 0.049058 0.001341 -0.014246 -0.001202 0.003497 -0.018315
# 2 0.001341 0.010864 -0.003460 0.003715 0.001550 -0.006667
# 3 -0.014246 -0.003460 0.012834 0.004237 -0.007273 0.008826
# 4 -0.001202 0.003715 0.004237 0.034401 -0.003355 0.010698
# 5 0.003497 0.001550 -0.007273 -0.003355 0.034595 -0.015004
# 6 -0.018315 -0.006667 0.008826 0.010698 -0.015004 0.053563
#
#
# Mechanical properties :
#
#
# Convention : Reuss Voigt Hill
#
# Bulk Modulus (GPa) = 24.98327 63.31236 44.14782
# Shear Modulus (GPa) = 20.71368 34.67737 27.69553
#
# Velocity S-wave (km/s) = 3.03001 3.92047 3.50365
# Velocity P-wave (km/s) = 4.82853 6.96818 5.99459
#
# Compressibility (1/GPa) = 0.04002678
#
# Stress axis : x y z
#
# Youngs Moduli (GPa) = 20.38397 92.05042 77.91559
#
# Poissons Ratio (x) = -0.12340 1.10995
# Poissons Ratio (y) = -0.02733 0.26956
# Poissons Ratio (z) = 0.29038 0.31847
#
# Static dielectric constant tensor:
#      x y z
#    x 1.863780 0.031080 -0.046150 
#    y 0.031080 1.862700 0.020900 
#    z -0.046150 0.020900 1.851670 
# 
# From -- ./inp_files/4408.got.cif
#   From: 2010.05.17/outbox.cif.g08.bks.cpg/sg1_3_cif.got.tgz:4408.got - 2010.05.17 20:27:59.
