data_PCOD9000819
_publ_section_title
;
Structure prediction by ZEFSAII (Michael W. Deem and Ramdas Pophale) SiO2 
 PCOD9000819
Probable space group: P 1
;
_chemical_formula_sum "Si O2"
_cell_formula_units_Z 8
_cell_length_a 11.708790
_cell_length_b 6.745224
_cell_length_c 11.386258
_cell_angle_alpha 135.997748
_cell_angle_beta 33.926035
_cell_angle_gamma 125.600390
_cell_volume 348.412826
_symmetry_space_group_name_H-M "P 1"
_symmetry_group_IT_number 1
_symmetry_cell_setting 'triclinic'
loop_
_space_group_symop_operation_xyz
x,y,z
loop_
_atom_site_type_symbol
_atom_site_label
_atom_site_fract_x
_atom_site_fract_y
_atom_site_fract_z
Si Si1 0.860330 0.811180 0.963710
Si Si2 0.343233 0.158632 0.030827
Si Si3 0.760073 0.134790 0.533309
Si Si4 0.121784 0.883951 0.285498
Si Si5 0.513544 0.799128 0.417063
Si Si6 0.205665 0.610948 0.758203
Si Si7 0.148822 0.274729 0.895692
Si Si8 0.003172 0.643743 0.510689
O O1 0.011604 0.643331 0.853003
O O2 0.924800 0.734398 0.744146
O O3 0.932861 0.136350 0.048789
O O4 0.631604 0.753181 0.174938
O O5 0.568719 0.197746 0.808115
O O6 0.251318 0.907936 0.917645
O O7 0.211596 0.451943 0.261752
O O8 0.316468 0.044137 0.137624
O O9 0.685628 0.915111 0.406679
O O10 0.835627 0.413570 0.520597
O O11 0.941031 0.004338 0.405175
O O12 0.043682 0.889952 0.487672
O O13 0.167466 0.550183 0.078129
O O14 0.400154 0.557642 0.483639
O O15 0.169329 0.382696 0.791770
O O16 0.332080 0.040931 0.659589
#
# Coordination Sequence:
#
# PCOD9000819 Si02
#       8
#     1   1   1   1   1   1   1   1
#     4  11  23  37  54  81 118 151 179 219 273 332
#     4   9  20  39  61  83 105 140 188 235 275 316
#     4  10  21  37  61  85 107 141 186 233 274 320
#     4  10  20  37  58  85 110 140 187 229 274 322
#     4  10  20  37  58  85 110 140 187 229 274 322
#     4   9  20  39  61  83 105 140 188 235 275 316
#     4  10  21  37  61  85 107 141 186 233 274 320
#     4  11  23  37  54  81 118 151 179 219 273 332
#
# _framework density 22.961268
#
# number of rings (size 3 to 8) (size 9 to 14) (size 15 to 20)
#    0.000    2.000    0.000    5.250    0.000   12.000 
#    0.000    1.250    0.000    0.000    0.000    0.000 
#    0.000    0.000    0.000    0.000    0.000    0.000 
#
# Total GULP energy -44693.613494 kJ/mol
# GULP energy per Si atom -5586.701687 kJ/mol
# Density = 2.290901 g / cm^3
# Si number density = 22.961268 Si / 1000 Ang^3
#
#
#
# Elastic Constant Matrix: (Units=GPa)
#
#
# Indices 1 2 3 4 5 6 
#
# 1 35.1875 11.2077 26.4388 -8.1840 20.1769 -10.9830
# 2 11.2077 66.5346 27.0783 -36.8844 15.3947 -22.2161
# 3 26.4388 27.0783 165.8569 -47.6853 12.9446 -7.5520
# 4 -8.1840 -36.8844 -47.6853 45.5539 -3.3604 13.3427
# 5 20.1769 15.3947 12.9446 -3.3604 34.3484 -13.7847
# 6 -10.9830 -22.2161 -7.5520 13.3427 -13.7847 28.5397
#
#
#
# Elastic Compliance Matrix: (Units=1/GPa)
#
#
# Indices 1 2 3 4 5 6 
#
# 1 0.048253 0.002877 -0.005516 0.001424 -0.024707 0.006750
# 2 0.002877 0.035305 0.003463 0.028838 -0.011867 0.010292
# 3 -0.005516 0.003463 0.010270 0.013644 -0.002589 -0.004338
# 4 0.001424 0.028838 0.013644 0.061644 -0.017069 -0.010457
# 5 -0.024707 -0.011867 -0.002589 -0.017069 0.054153 0.014705
# 6 0.006750 0.010292 -0.004338 -0.010457 0.014705 0.056491
#
#
# Mechanical properties :
#
#
# Convention : Reuss Voigt Hill
#
# Bulk Modulus (GPa) = 10.47385 44.11430 27.29408
# Shear Modulus (GPa) = 16.87518 35.21203 26.04361
#
# Velocity S-wave (km/s) = 2.71392 3.92029 3.37150
# Velocity P-wave (km/s) = 3.79367 6.30443 5.20277
#
# Compressibility (1/GPa) = 0.09547585
#
# Stress axis : x y z
#
# Youngs Moduli (GPa) = 20.72403 28.32497 97.36684
#
# Poissons Ratio (x) = -0.08149 0.53712
# Poissons Ratio (y) = -0.05962 -0.33723
# Poissons Ratio (z) = 0.11432 -0.09810
#
# Static dielectric constant tensor:
#      x y z
#    x 1.904050 0.046410 0.068500 
#    y 0.046410 1.884690 0.003590 
#    z 0.068500 0.003590 1.911630 
# 
# From -- ./inp_files/6789.got.cif
#   From: 2010.05.17/outbox.cif.g08.bks.cpg/sg1_4_cif.got.tgz:6789.got - 2010.05.17 20:27:59.
