data_PCOD9000567
_publ_section_title
;
Structure prediction by ZEFSAII (Michael W. Deem and Ramdas Pophale) SiO2 
 PCOD9000567
Probable space group: P 1
;
_chemical_formula_sum "Si O2"
_cell_formula_units_Z 8
_cell_length_a 6.367256
_cell_length_b 12.274975
_cell_length_c 11.786460
_cell_angle_alpha 35.323715
_cell_angle_beta 41.199382
_cell_angle_gamma 45.927124
_cell_volume 342.675409
_symmetry_space_group_name_H-M "P 1"
_symmetry_group_IT_number 1
_symmetry_cell_setting 'triclinic'
loop_
_space_group_symop_operation_xyz
x,y,z
loop_
_atom_site_type_symbol
_atom_site_label
_atom_site_fract_x
_atom_site_fract_y
_atom_site_fract_z
Si Si1 0.109650 0.562250 0.315330
Si Si2 0.860767 0.620676 0.593984
Si Si3 0.169805 0.592935 0.994995
Si Si4 0.212030 0.210830 0.154971
Si Si5 0.493983 0.133430 0.505272
Si Si6 0.238228 0.250361 0.856667
Si Si7 0.550198 0.871171 0.914510
Si Si8 0.667568 0.038459 0.286154
O O1 0.075442 0.591691 0.168070
O O2 0.286610 0.339613 0.449206
O O3 0.817466 0.590303 0.502089
O O4 0.330088 0.709871 0.144473
O O5 0.897842 0.840105 0.399827
O O6 0.539624 0.615183 0.802872
O O7 0.167136 0.458596 0.649351
O O8 0.160311 0.391677 0.107422
O O9 0.911971 0.759027 0.894555
O O10 0.329330 0.262822 0.940030
O O11 0.867399 0.153740 0.331376
O O12 0.473672 0.036502 0.250957
O O13 0.484066 0.961484 0.739691
O O14 0.408244 0.093799 0.445124
O O15 0.882530 0.195545 0.046357
O O16 0.458851 0.064516 0.864665
#
# Coordination Sequence:
#
# PCOD9000567 Si02
#       8
#     1   1   1   1   1   1   1   1
#     4  12  25  48  73  99 144 184 233 288 342 415
#     4  12  25  48  73 102 139 189 231 284 351 407
#     4  12  26  47  71 106 141 182 233 288 346 413
#     4  11  23  44  69 101 144 177 229 292 343 410
#     4  11  23  43  71  99 137 186 228 286 348 407
#     4  11  25  44  68 101 140 180 231 285 341 413
#     4  12  26  46  70 104 140 181 233 288 347 410
#     4  11  23  44  69  98 139 183 230 283 346 409
#
# _framework density 23.345706
#
# number of rings (size 3 to 8) (size 9 to 14) (size 15 to 20)
#    0.000    0.500    6.250    2.250    3.500    0.000 
#    4.500    0.000    0.000    0.000    0.000    0.000 
#    0.000    0.000    0.000    0.000    0.000    0.000 
#
# Total GULP energy -44693.249379 kJ/mol
# GULP energy per Si atom -5586.656172 kJ/mol
# Density = 2.329257 g / cm^3
# Si number density = 23.345706 Si / 1000 Ang^3
#
#
#
# Elastic Constant Matrix: (Units=GPa)
#
#
# Indices 1 2 3 4 5 6 
#
# 1 59.6411 23.7148 12.7707 -8.1365 29.4517 7.9924
# 2 23.7148 126.5837 28.8332 -26.0235 31.3852 6.5886
# 3 12.7707 28.8332 59.8223 -16.8618 30.2897 -2.2573
# 4 -8.1365 -26.0235 -16.8618 48.3776 2.6502 16.7222
# 5 29.4517 31.3852 30.2897 2.6502 42.4899 -1.1473
# 6 7.9924 6.5886 -2.2573 16.7222 -1.1473 38.0236
#
#
#
# Elastic Compliance Matrix: (Units=1/GPa)
#
#
# Indices 1 2 3 4 5 6 
#
# 1 0.042603 0.007659 0.021677 0.029973 -0.053152 -0.023781
# 2 0.007659 0.014486 0.007006 0.016819 -0.022371 -0.011776
# 3 0.021677 0.007006 0.044956 0.032701 -0.054804 -0.019137
# 4 0.029973 0.016819 0.032701 0.062115 -0.061368 -0.036442
# 5 -0.053152 -0.022371 -0.054804 -0.061368 0.120943 0.042433
# 6 -0.023781 -0.011776 -0.019137 -0.036442 0.042433 0.049510
#
#
# Mechanical properties :
#
#
# Convention : Reuss Voigt Hill
#
# Bulk Modulus (GPa) = 5.72314 41.85384 23.78849
# Shear Modulus (GPa) = 15.61660 37.82677 26.72168
#
# Velocity S-wave (km/s) = 2.58917 4.02965 3.38688
# Velocity P-wave (km/s) = 3.37568 6.29424 5.05038
#
# Compressibility (1/GPa) = 0.17472916
#
# Stress axis : x y z
#
# Youngs Moduli (GPa) = 23.47258 69.03072 22.24394
#
# Poissons Ratio (x) = -0.52872 -0.48218
# Poissons Ratio (y) = -0.17978 -0.15584
# Poissons Ratio (z) = -0.50881 -0.48362
#
# Static dielectric constant tensor:
#      x y z
#    x 1.868800 0.043410 0.019710 
#    y 0.043410 1.905980 0.024920 
#    z 0.019710 0.024920 1.881220 
# 
# From -- ./inp_files/2343.got.cif
#   From: 2010.05.17/outbox.cif.g08.bks.cpg/sg1_2_cif.got.tgz:2343.got - 2010.05.17 20:27:59.
