data_PCOD9000156
_publ_section_title
;
Structure prediction by ZEFSAII (Michael W. Deem and Ramdas Pophale) SiO2 
 PCOD9000156
Probable space group: P 1
;
_chemical_formula_sum "Si O2"
_cell_formula_units_Z 8
_cell_length_a 4.797178
_cell_length_b 12.970184
_cell_length_c 5.512331
_cell_angle_alpha 61.541174
_cell_angle_beta 90.909722
_cell_angle_gamma 104.585754
_cell_volume 289.621715
_symmetry_space_group_name_H-M "P 1"
_symmetry_group_IT_number 1
_symmetry_cell_setting 'triclinic'
loop_
_space_group_symop_operation_xyz
x,y,z
loop_
_atom_site_type_symbol
_atom_site_label
_atom_site_fract_x
_atom_site_fract_y
_atom_site_fract_z
Si Si1 0.207340 0.864950 0.337810
Si Si2 0.595479 0.147186 0.557780
Si Si3 0.551969 0.462680 0.551959
Si Si4 0.322661 0.649783 0.871742
Si Si5 0.814109 0.017201 0.347200
Si Si6 0.570166 0.213534 0.996784
Si Si7 0.008649 0.409485 0.292372
Si Si8 0.867283 0.706992 0.139457
O O1 0.235864 0.735104 0.578829
O O2 0.016813 0.834281 0.127062
O O3 0.537893 0.944007 0.264329
O O4 0.039967 0.939660 0.416485
O O5 0.700589 0.031527 0.603550
O O6 0.444872 0.160685 0.793191
O O7 0.875817 0.266159 0.414451
O O8 0.410334 0.166048 0.299334
O O9 0.617319 0.357973 0.834067
O O10 0.220535 0.428366 0.506721
O O11 0.683917 0.605923 0.443495
O O12 0.723048 0.448435 0.321031
O O13 0.198444 0.503817 0.992299
O O14 0.649279 0.698883 0.919472
O O15 0.139779 0.667720 0.085543
O O16 0.843736 0.154161 0.085631
#
# Coordination Sequence:
#
# PCOD9000156 Si02
#       8
#     1   1   1   1   1   1   1   1
#     4  12  24  43  64  95 128 180 226 272 334 392
#     4   9  21  43  67  97 133 170 220 276 337 395
#     4   9  19  38  63  95 127 164 214 270 340 397
#     4  10  22  40  65  95 129 170 218 275 333 400
#     4  10  26  39  62  95 130 180 228 272 330 398
#     4   9  21  43  67  97 133 170 220 276 337 395
#     4   9  19  38  63  95 127 164 214 270 340 397
#     4  10  22  40  65  95 129 170 218 275 333 400
#
# _framework density 27.622239
#
# number of rings (size 3 to 8) (size 9 to 14) (size 15 to 20)
#    0.750    1.500    0.000    1.500    1.750    7.000 
#    0.000    0.000    0.000    0.000    0.000    0.000 
#    0.000    0.000    0.000    0.000    0.000    0.000 
#
# Total GULP energy -44642.210302 kJ/mol
# GULP energy per Si atom -5580.276288 kJ/mol
# Density = 2.755937 g / cm^3
# Si number density = 27.622239 Si / 1000 Ang^3
#
#
#
# Elastic Constant Matrix: (Units=GPa)
#
#
# Indices 1 2 3 4 5 6 
#
# 1 127.1105 34.5710 10.0482 -0.2038 30.4604 -2.6582
# 2 34.5710 114.6466 14.5106 20.2252 9.5195 22.4772
# 3 10.0482 14.5106 104.4238 4.5541 19.8269 -3.1451
# 4 -0.2038 20.2252 4.5541 47.2411 -7.6585 -3.0171
# 5 30.4604 9.5195 19.8269 -7.6585 32.1298 -1.8204
# 6 -2.6582 22.4772 -3.1451 -3.0171 -1.8204 38.8595
#
#
#
# Elastic Compliance Matrix: (Units=1/GPa)
#
#
# Indices 1 2 3 4 5 6 
#
# 1 0.011136 -0.003011 0.001422 -0.000370 -0.010512 0.002097
# 2 -0.003011 0.012643 -0.001025 -0.006207 -0.002202 -0.008187
# 3 0.001422 -0.001025 0.011297 -0.001941 -0.008418 0.001059
# 4 -0.000370 -0.006207 -0.001941 0.025995 0.009918 0.005891
# 5 -0.010512 -0.002202 -0.008418 0.009918 0.049469 0.002961
# 6 0.002097 -0.008187 0.001059 0.005891 0.002961 0.031295
#
#
# Mechanical properties :
#
#
# Convention : Reuss Voigt Hill
#
# Bulk Modulus (GPa) = 33.50249 51.60450 42.55349
# Shear Modulus (GPa) = 31.84479 42.78285 37.31382
#
# Velocity S-wave (km/s) = 3.39907 3.93982 3.67939
# Velocity P-wave (km/s) = 5.24977 6.27846 5.78702
#
# Compressibility (1/GPa) = 0.02984853
#
# Stress axis : x y z
#
# Youngs Moduli (GPa) = 89.79812 79.09457 88.51989
#
# Poissons Ratio (x) = 0.23815 -0.12589
# Poissons Ratio (y) = 0.27038 0.09072
# Poissons Ratio (z) = -0.12770 0.08106
#
# Static dielectric constant tensor:
#      x y z
#    x 2.048850 0.040810 -0.031250 
#    y 0.040810 2.303870 -0.069840 
#    z -0.031250 -0.069840 2.245070 
# 
# From -- ./inp_files/490.got.cif
#   From: 2010.05.17/outbox.cif.g08.bks.cpg/sg1_1_cif.got.tgz:490.got - 2010.05.17 20:27:59.
