data_PCOD9000903
_publ_section_title
;
Structure prediction by ZEFSAII (Michael W. Deem and Ramdas Pophale) SiO2 
 PCOD9000903
Probable space group: P 1
;
_chemical_formula_sum "Si O2"
_cell_formula_units_Z 8
_cell_length_a 8.394864
_cell_length_b 8.669705
_cell_length_c 11.422044
_cell_angle_alpha 53.345901
_cell_angle_beta 142.341160
_cell_angle_gamma 127.750925
_cell_volume 390.579338
_symmetry_space_group_name_H-M "P 1"
_symmetry_group_IT_number 1
_symmetry_cell_setting 'triclinic'
loop_
_space_group_symop_operation_xyz
x,y,z
loop_
_atom_site_type_symbol
_atom_site_label
_atom_site_fract_x
_atom_site_fract_y
_atom_site_fract_z
Si Si1 0.452110 0.529870 0.755990
Si Si2 0.716155 0.975229 0.636978
Si Si3 0.802576 0.264917 0.101893
Si Si4 0.199911 0.418814 0.440915
Si Si5 0.133074 0.304764 0.880392
Si Si6 0.864453 0.990990 0.441963
Si Si7 0.710738 0.543918 0.523324
Si Si8 0.322371 0.238934 0.271647
O O1 0.639616 0.752171 0.744787
O O2 0.196490 0.496878 0.533929
O O3 0.346736 0.465022 0.852647
O O4 0.594315 0.360432 0.874928
O O5 0.772588 0.978150 0.529081
O O6 0.459969 0.065286 0.462532
O O7 0.973410 0.119575 0.789329
O O8 0.962420 0.438693 0.207669
O O9 0.033963 0.220331 0.175390
O O10 0.683420 0.075985 0.204707
O O11 0.482327 0.528813 0.495789
O O12 0.139036 0.176565 0.512728
O O13 0.906773 0.413791 0.734873
O O14 0.272975 0.245611 0.102060
O O15 0.873709 0.775921 0.501220
O O16 0.539479 0.439755 0.357455
#
# Coordination Sequence:
#
# PCOD9000903 Si02
#       8
#     1   1   1   1   1   1   1   1
#     4  12  22  40  64  92 123 163 202 253 303 364
#     4  11  24  41  66  90 124 161 208 251 307 357
#     4   9  22  40  61  90 122 158 205 247 302 361
#     4   9  20  39  61  88 124 157 202 257 293 361
#     4  11  24  41  61  94 128 159 203 254 304 367
#     4  10  20  42  64  91 118 164 203 252 303 357
#     4  10  21  41  65  89 125 161 205 251 309 357
#     4  10  23  44  60  90 130 161 196 261 301 364
#
# _framework density 20.482393999999999
#
# number of rings (size 3 to 8) (size 9 to 14) (size 15 to 20)
#    0.750    1.000    2.500    1.500    1.750    1.000 
#    9.000    0.000    0.000    0.000    0.000    0.000 
#    0.000    0.000    0.000    0.000    0.000    0.000 
#
# Total GULP energy -44578.223379 kJ/mol
# GULP energy per Si atom -5572.277922 kJ/mol
# Density = 2.043577 g / cm^3
# Si number density = 20.482394 Si / 1000 Ang^3
#
#
#
# Elastic Constant Matrix: (Units=GPa)
#
#
# Indices 1 2 3 4 5 6 
#
# 1 52.8819 -1.6385 23.4233 2.8252 -20.1980 3.4369
# 2 -1.6385 101.6083 25.7695 -11.4015 -16.4593 1.9276
# 3 23.4233 25.7695 82.3406 -3.3166 -17.7543 -2.1931
# 4 2.8252 -11.4015 -3.3166 19.2280 3.1632 -3.0080
# 5 -20.1980 -16.4593 -17.7543 3.1632 32.3692 -3.3691
# 6 3.4369 1.9276 -2.1931 -3.0080 -3.3691 27.3472
#
#
#
# Elastic Compliance Matrix: (Units=1/GPa)
#
#
# Indices 1 2 3 4 5 6 
#
# 1 0.028759 0.004144 -0.006144 -0.006085 0.016967 -0.002978
# 2 0.004144 0.012408 -0.003474 0.005035 0.006464 -0.000324
# 3 -0.006144 -0.003474 0.015810 0.001485 0.003223 0.002845
# 4 -0.006085 0.005035 0.001485 0.058015 -0.005442 0.006240
# 5 0.016967 0.006464 0.003223 -0.005442 0.047370 0.002908
# 6 -0.002978 -0.000324 0.002845 0.006240 0.002908 0.038237
#
#
# Mechanical properties :
#
#
# Convention : Reuss Voigt Hill
#
# Bulk Modulus (GPa) = 21.72537 36.88217 29.30377
# Shear Modulus (GPa) = 22.03718 28.40731 25.22225
#
# Velocity S-wave (km/s) = 3.28366 3.72817 3.51295
# Velocity P-wave (km/s) = 5.00065 6.04799 5.54908
#
# Compressibility (1/GPa) = 0.04602913
#
# Stress axis : x y z
#
# Youngs Moduli (GPa) = 34.77165 80.59428 63.25062
#
# Poissons Ratio (x) = -0.33399 0.38861
# Poissons Ratio (y) = -0.14410 0.21974
# Poissons Ratio (z) = 0.21363 0.28000
#
# Static dielectric constant tensor:
#      x y z
#    x 1.753290 -0.012170 -0.010220 
#    y -0.012170 1.704830 0.015360 
#    z -0.010220 0.015360 1.732630 
# 
# From -- ./inp_files/4204.got.cif
#   From: 2010.05.17/outbox.cif.g08.bks.cpg/sg1_3_cif.got.tgz:4204.got - 2010.05.17 20:27:59.
