data_PCOD9000424
_publ_section_title
;
Structure prediction by ZEFSAII (Michael W. Deem and Ramdas Pophale) SiO2 
 PCOD9000424
Probable space group: P 1
;
_chemical_formula_sum "Si O2"
_cell_formula_units_Z 6
_cell_length_a 6.777237
_cell_length_b 6.694924
_cell_length_c 7.461967
_cell_angle_alpha 68.960099
_cell_angle_beta 58.040148
_cell_angle_gamma 62.852697
_cell_volume 252.492058
_symmetry_space_group_name_H-M "P 1"
_symmetry_group_IT_number 1
_symmetry_cell_setting 'triclinic'
loop_
_space_group_symop_operation_xyz
x,y,z
loop_
_atom_site_type_symbol
_atom_site_label
_atom_site_fract_x
_atom_site_fract_y
_atom_site_fract_z
Si Si1 0.857570 0.829530 0.312040
Si Si2 0.384140 0.290232 0.010343
Si Si3 0.367392 0.490872 0.318880
Si Si4 0.398432 0.655477 0.627143
Si Si5 0.879740 0.294891 0.083406
Si Si6 0.902320 0.988061 0.861653
O O1 0.630481 0.742351 0.480967
O O2 0.111144 0.685309 0.331789
O O3 0.807284 0.096102 0.286454
O O4 0.906062 0.820074 0.078428
O O5 0.371616 0.297797 0.230940
O O6 0.127301 0.293907 0.054347
O O7 0.419143 0.518064 0.845023
O O8 0.622914 0.084171 0.895086
O O9 0.384478 0.486953 0.526794
O O10 0.635019 0.513826 0.135984
O O11 0.140036 0.863621 0.672005
O O12 0.932555 0.204459 0.883541
#
# Coordination Sequence:
#
# PCOD9000424 Si02
#       6
#     1   1   1   1   1   1
#     4  10  24  45  68 101 133 175 224 275 331 393
#     4  11  23  48  68  99 139 173 225 278 329 400
#     4  11  24  42  72 100 137 173 223 280 333 392
#     4  12  26  42  72 103 129 181 227 267 341 395
#     4   9  23  43  71  95 138 177 214 282 334 383
#     4   9  24  46  69  98 138 177 219 278 336 391
#
# _framework density 23.763126
#
# number of rings (size 3 to 8) (size 9 to 14) (size 15 to 20)
#    1.000    0.667    1.667    1.000    2.333    8.000 
#    0.000    0.000    0.000    0.000    0.000    0.000 
#    0.000    0.000    0.000    0.000    0.000    0.000 
#
# Total GULP energy -33434.356281 kJ/mol
# GULP energy per Si atom -5572.392714 kJ/mol
# Density = 2.370904 g / cm^3
# Si number density = 23.763126 Si / 1000 Ang^3
#
#
#
# Elastic Constant Matrix: (Units=GPa)
#
#
# Indices 1 2 3 4 5 6 
#
# 1 162.7288 38.5335 56.6213 11.7405 -39.5053 -28.8861
# 2 38.5335 81.3380 42.1165 24.1777 -22.8375 -27.0743
# 3 56.6213 42.1165 85.2927 15.9564 -27.3040 -4.8683
# 4 11.7405 24.1777 15.9564 49.2653 1.2989 -11.4065
# 5 -39.5053 -22.8375 -27.3040 1.2989 37.4274 11.6656
# 6 -28.8861 -27.0743 -4.8683 -11.4065 11.6656 41.8955
#
#
#
# Elastic Compliance Matrix: (Units=1/GPa)
#
#
# Indices 1 2 3 4 5 6 
#
# 1 0.010043 0.001548 -0.005080 -0.000391 0.006132 0.005521
# 2 0.001548 0.023835 -0.008900 -0.006588 0.006200 0.011916
# 3 -0.005080 -0.008900 0.022634 -0.004389 0.009098 -0.010353
# 4 -0.000391 -0.006588 -0.004389 0.026466 -0.010107 0.004983
# 5 0.006132 0.006200 0.009098 -0.010107 0.045908 -0.006243
# 6 0.005521 0.011916 -0.010353 0.004983 -0.006243 0.037268
#
#
# Mechanical properties :
#
#
# Convention : Reuss Voigt Hill
#
# Bulk Modulus (GPa) = 31.59714 67.10024 49.34869
# Shear Modulus (GPa) = 24.80559 38.52352 31.66455
#
# Velocity S-wave (km/s) = 3.23440 4.03071 3.65431
# Velocity P-wave (km/s) = 5.22246 7.06828 6.21429
#
# Compressibility (1/GPa) = 0.03164844
#
# Stress axis : x y z
#
# Youngs Moduli (GPa) = 99.57019 41.95584 44.18058
#
# Poissons Ratio (x) = -0.06496 0.22445
# Poissons Ratio (y) = -0.15418 0.39320
# Poissons Ratio (z) = 0.50585 0.37340
#
# Static dielectric constant tensor:
#      x y z
#    x 1.905220 0.033720 0.016680 
#    y 0.033720 1.977630 0.030820 
#    z 0.016680 0.030820 1.895060 
# 
# From -- ./inp_files/1609.got.cif
#   From: 2010.05.17/outbox.cif.g08.bks.cpg/sg1_1_cif.got.tgz:1609.got - 2010.05.17 20:27:59.
