data_PCOD9000919
_publ_section_title
;
Structure prediction by ZEFSAII (Michael W. Deem and Ramdas Pophale) SiO2 
 PCOD9000919
Probable space group: P 1
;
_chemical_formula_sum "Si O2"
_cell_formula_units_Z 8
_cell_length_a 11.700189
_cell_length_b 6.969538
_cell_length_c 14.618777
_cell_angle_alpha 38.037739
_cell_angle_beta 150.744635
_cell_angle_gamma 135.580243
_cell_volume 357.517106
_symmetry_space_group_name_H-M "P 1"
_symmetry_group_IT_number 1
_symmetry_cell_setting 'triclinic'
loop_
_space_group_symop_operation_xyz
x,y,z
loop_
_atom_site_type_symbol
_atom_site_label
_atom_site_fract_x
_atom_site_fract_y
_atom_site_fract_z
Si Si1 0.025270 0.678960 0.243830
Si Si2 0.242233 0.175672 0.917224
Si Si3 0.332918 0.136971 0.714218
Si Si4 0.538669 0.553491 0.853378
Si Si5 0.424374 0.069377 0.271879
Si Si6 0.809457 0.268382 0.917507
Si Si7 0.765983 0.907619 0.727568
Si Si8 0.157651 0.639784 0.905373
O O1 0.155214 0.403406 0.481825
O O2 0.205956 0.824715 0.238993
O O3 0.956519 0.970399 0.148460
O O4 0.780288 0.554181 0.075791
O O5 0.198848 0.898726 0.916417
O O6 0.429882 0.101088 0.154290
O O7 0.990044 0.155530 0.799415
O O8 0.329460 0.487828 0.805232
O O9 0.493988 0.252113 0.870031
O O10 0.531658 0.154965 0.767368
O O11 0.189306 0.819558 0.763937
O O12 0.579268 0.852664 0.700947
O O13 0.358822 0.403685 0.136868
O O14 0.638289 0.973035 0.518315
O O15 0.916706 0.429463 0.839197
O O16 0.850076 0.557713 0.907223
#
# Coordination Sequence:
#
# PCOD9000919 Si02
#       8
#     1   1   1   1   1   1   1   1
#     4  11  21  39  66  94 122 168 213 260 322 381
#     4  10  22  40  63  89 127 168 211 265 313 376
#     4  10  21  44  60  86 133 164 202 272 316 365
#     4  10  21  38  62  92 126 156 215 262 305 389
#     4  11  21  41  67  91 127 172 208 263 323 372
#     4   9  20  38  61  90 121 165 208 258 316 374
#     4  10  20  43  61  87 132 164 207 267 313 376
#     4   9  22  41  62  93 128 163 220 261 308 391
#
# _framework density 22.376550999999999
#
# number of rings (size 3 to 8) (size 9 to 14) (size 15 to 20)
#    0.000    2.000    3.750    0.000    1.750    3.000 
#    2.250    5.000    0.000    0.000    0.000    0.000 
#    0.000    0.000    0.000    0.000    0.000    0.000 
#
# Total GULP energy -44549.314146 kJ/mol
# GULP energy per Si atom -5568.664268 kJ/mol
# Density = 2.232562 g / cm^3
# Si number density = 22.376551 Si / 1000 Ang^3
#
#
#
# Elastic Constant Matrix: (Units=GPa)
#
#
# Indices 1 2 3 4 5 6 
#
# 1 89.7949 29.9513 35.2628 -7.0592 -13.8850 14.9160
# 2 29.9513 92.5944 35.5760 -1.9453 -13.1820 24.2362
# 3 35.2628 35.5760 88.9855 -6.0113 5.3057 17.2104
# 4 -7.0592 -1.9453 -6.0113 26.7488 -1.3253 -5.1965
# 5 -13.8850 -13.1820 5.3057 -1.3253 29.4931 -11.9153
# 6 14.9160 24.2362 17.2104 -5.1965 -11.9153 39.7282
#
#
#
# Elastic Compliance Matrix: (Units=1/GPa)
#
#
# Indices 1 2 3 4 5 6 
#
# 1 0.015336 -0.001707 -0.005757 0.003124 0.007852 0.000541
# 2 -0.001707 0.015201 -0.004722 -0.001219 0.004619 -0.005361
# 3 -0.005757 -0.004722 0.017057 0.000447 -0.010006 -0.005290
# 4 0.003124 -0.001219 0.000447 0.039656 0.005088 0.006090
# 5 0.007852 0.004619 -0.010006 0.005088 0.047093 0.013358
# 6 0.000541 -0.005361 -0.005290 0.006090 0.013358 0.035333
#
#
# Mechanical properties :
#
#
# Convention : Reuss Voigt Hill
#
# Bulk Modulus (GPa) = 43.06031 52.55054 47.80543
# Shear Modulus (GPa) = 24.77837 30.56635 27.67236
#
# Velocity S-wave (km/s) = 3.33128 3.69995 3.52044
# Velocity P-wave (km/s) = 5.83796 6.46440 6.15915
#
# Compressibility (1/GPa) = 0.02322324
#
# Stress axis : x y z
#
# Youngs Moduli (GPa) = 65.20428 65.78307 58.62829
#
# Poissons Ratio (x) = 0.11230 0.33750
# Poissons Ratio (y) = 0.11131 0.27683
# Poissons Ratio (z) = 0.37536 0.31062
#
# Static dielectric constant tensor:
#      x y z
#    x 1.955430 0.033370 -0.018640 
#    y 0.033370 1.862300 -0.002150 
#    z -0.018640 -0.002150 1.806960 
# 
# From -- ./inp_files/4068.got.cif
#   From: 2010.05.17/outbox.cif.g08.bks.cpg/sg1_3_cif.got.tgz:4068.got - 2010.05.17 20:27:59.
