data_PCOD9000178
_publ_section_title
;
Structure prediction by ZEFSAII (Michael W. Deem and Ramdas Pophale) SiO2 
 PCOD9000178
Probable space group: P 1
;
_chemical_formula_sum "Si O2"
_cell_formula_units_Z 8
_cell_length_a 10.029965
_cell_length_b 5.003397
_cell_length_c 8.726767
_cell_angle_alpha 97.293708
_cell_angle_beta 128.347454
_cell_angle_gamma 106.145409
_cell_volume 302.725409
_symmetry_space_group_name_H-M "P 1"
_symmetry_group_IT_number 1
_symmetry_cell_setting 'triclinic'
loop_
_space_group_symop_operation_xyz
x,y,z
loop_
_atom_site_type_symbol
_atom_site_label
_atom_site_fract_x
_atom_site_fract_y
_atom_site_fract_z
Si Si1 0.538940 0.469900 0.593740
Si Si2 0.231722 0.854091 0.878914
Si Si3 0.777188 0.112698 0.733285
Si Si4 0.968579 0.570194 0.145172
Si Si5 0.909508 0.217201 0.507200
Si Si6 0.384345 0.481696 0.148047
Si Si7 0.154365 0.223244 0.430710
Si Si8 0.612696 0.282485 0.080622
O O1 0.613809 0.222583 0.610589
O O2 0.440694 0.492126 0.365313
O O3 0.380824 0.376571 0.604888
O O4 0.707559 0.808655 0.759743
O O5 0.321317 0.726476 0.064789
O O6 0.220922 0.142886 0.964299
O O7 0.403917 0.996595 0.885650
O O8 0.041438 0.573185 0.665827
O O9 0.826740 0.056089 0.595213
O O10 0.945492 0.396067 0.957857
O O11 0.084909 0.457267 0.332005
O O12 0.753369 0.444853 0.052042
O O13 0.076169 0.929163 0.246346
O O14 0.740558 0.184360 0.272537
O O15 0.049942 0.117435 0.511035
O O16 0.555214 0.495693 0.160587
#
# Coordination Sequence:
#
# PCOD9000178 Si02
#       8
#     1   1   1   1   1   1   1   1
#     4  12  25  46  72 103 145 188 230 298 361 420
#     4  10  24  39  70 101 140 181 238 280 352 421
#     4  12  27  44  76 103 144 180 249 284 362 419
#     4  11  26  45  71 103 145 186 230 301 353 423
#     4  11  25  47  73 109 138 190 241 295 348 432
#     4  10  22  41  66 100 138 184 226 287 352 414
#     4  11  28  46  73 100 149 183 238 286 373 408
#     4   9  23  44  69  97 147 180 230 285 363 403
#
# _framework density 26.426590999999998
#
# number of rings (size 3 to 8) (size 9 to 14) (size 15 to 20)
#    0.750    0.500    1.250    3.000   10.500    4.000 
#    0.000    0.000    0.000    0.000    0.000    0.000 
#    0.000    0.000    0.000    0.000    0.000    0.000 
#
# Total GULP energy -44872.164780 kJ/mol
# GULP energy per Si atom -5609.020598 kJ/mol
# Density = 2.636644 g / cm^3
# Si number density = 26.426591 Si / 1000 Ang^3
#
#
#
# Elastic Constant Matrix: (Units=GPa)
#
#
# Indices 1 2 3 4 5 6 
#
# 1 145.2352 36.1492 6.8914 -5.9299 5.9237 15.1707
# 2 36.1492 97.1674 16.8406 6.9525 9.3821 0.6095
# 3 6.8914 16.8406 63.1550 14.6285 -7.2326 1.4820
# 4 -5.9299 6.9525 14.6285 51.0867 2.5668 1.9901
# 5 5.9237 9.3821 -7.2326 2.5668 39.7228 2.6762
# 6 15.1707 0.6095 1.4820 1.9901 2.6762 37.1653
#
#
#
# Elastic Compliance Matrix: (Units=1/GPa)
#
#
# Indices 1 2 3 4 5 6 
#
# 1 0.008076 -0.002979 -0.000438 0.001619 -0.000464 -0.003283
# 2 -0.002979 0.012296 -0.003097 -0.001034 -0.003052 0.001413
# 3 -0.000438 -0.003097 0.018422 -0.005110 0.004519 -0.000557
# 4 0.001619 -0.001034 -0.005110 0.021534 -0.002223 -0.001433
# 5 -0.000464 -0.003052 0.004519 -0.002223 0.027050 -0.001770
# 6 -0.003283 0.001413 -0.000557 -0.001433 -0.001770 0.028450
#
#
# Mechanical properties :
#
#
# Convention : Reuss Voigt Hill
#
# Bulk Modulus (GPa) = 38.81108 47.25775 43.03442
# Shear Modulus (GPa) = 36.37822 41.97339 39.17581
#
# Velocity S-wave (km/s) = 3.71425 3.98967 3.85442
# Velocity P-wave (km/s) = 5.75434 6.25658 6.01071
#
# Compressibility (1/GPa) = 0.02576584
#
# Stress axis : x y z
#
# Youngs Moduli (GPa) = 123.82902 81.32466 54.28349
#
# Poissons Ratio (x) = 0.24226 0.02378
# Poissons Ratio (y) = 0.36888 0.16812
# Poissons Ratio (z) = 0.05424 0.25186
#
# Static dielectric constant tensor:
#      x y z
#    x 2.055450 0.059910 0.017340 
#    y 0.059910 2.008680 -0.005580 
#    z 0.017340 -0.005580 2.073210 
# 
# From -- ./inp_files/5169.got.cif
#   From: 2010.05.17/outbox.cif.g08.bks.cpg/sg1_3_cif.got.tgz:5169.got - 2010.05.17 20:27:59.
