data_PCOD9000061
_publ_section_title
;
Structure prediction by ZEFSAII (Michael W. Deem and Ramdas Pophale) SiO2 
 PCOD9000061
Probable space group: P 1
;
_chemical_formula_sum "Si O2"
_cell_formula_units_Z 8
_cell_length_a 11.469946
_cell_length_b 7.526616
_cell_length_c 7.262880
_cell_angle_alpha 39.179739
_cell_angle_beta 76.122021
_cell_angle_gamma 63.702746
_cell_volume 349.130557
_symmetry_space_group_name_H-M "P 1"
_symmetry_group_IT_number 1
_symmetry_cell_setting 'triclinic'
loop_
_space_group_symop_operation_xyz
x,y,z
loop_
_atom_site_type_symbol
_atom_site_label
_atom_site_fract_x
_atom_site_fract_y
_atom_site_fract_z
Si Si1 0.077360 0.484520 0.978530
Si Si2 0.684671 0.159754 0.726852
Si Si3 0.908634 0.151214 0.372115
Si Si4 0.513366 0.840898 0.146645
Si Si5 0.245630 0.365478 0.372350
Si Si6 0.223838 0.008094 0.987013
Si Si7 0.711490 0.372490 0.946112
Si Si8 0.535768 0.064496 0.361173
O O1 0.180556 0.448503 0.129402
O O2 0.138454 0.221055 0.012273
O O3 0.025796 0.814095 0.632640
O O4 0.960369 0.416072 0.171948
O O5 0.797303 0.144685 0.557484
O O6 0.561276 0.484087 0.468703
O O7 0.628666 0.898612 0.950444
O O8 0.730363 0.194501 0.887947
O O9 0.841805 0.226150 0.136373
O O10 0.374098 0.959655 0.005495
O O11 0.499343 0.022036 0.198867
O O12 0.402409 0.169540 0.441634
O O13 0.220116 0.677741 0.240633
O O14 0.186123 0.172920 0.670856
O O15 0.594687 0.318406 0.137642
O O16 0.653758 0.737680 0.635605
#
# Coordination Sequence:
#
# PCOD9000061 Si02
#       8
#     1   1   1   1   1   1   1   1
#     4  12  28  50  66 102 144 184 238 282 330 412
#     4  10  23  40  66 102 134 178 221 281 344 401
#     4  12  26  44  72  94 142 190 228 276 332 424
#     4  10  21  42  67 101 145 166 218 293 346 403
#     4  12  26  44  72 105 135 186 229 286 349 406
#     4  12  26  44  72 105 135 186 229 286 349 406
#     4  10  23  40  66 102 134 178 221 281 344 401
#     4  10  21  42  67 101 145 166 218 293 346 403
#
# _framework density 22.914062999999999
#
# number of rings (size 3 to 8) (size 9 to 14) (size 15 to 20)
#    0.000    1.000    1.250    4.500    5.250    3.000 
#    0.000    0.000    0.000    0.000    0.000    0.000 
#    0.000    0.000    0.000    0.000    0.000    0.000 
#
# Total GULP energy -44804.523529 kJ/mol
# GULP energy per Si atom -5600.565441 kJ/mol
# Density = 2.286191 g / cm^3
# Si number density = 22.914063 Si / 1000 Ang^3
#
#
#
# Elastic Constant Matrix: (Units=GPa)
#
#
# Indices 1 2 3 4 5 6 
#
# 1 66.1045 4.5475 24.9266 8.4001 26.4127 5.6797
# 2 4.5475 46.1618 -11.3095 9.6236 13.7279 7.2251
# 3 24.9266 -11.3095 101.2737 -1.1306 5.4099 3.0046
# 4 8.4001 9.6236 -1.1306 31.9180 0.6612 -1.3727
# 5 26.4127 13.7279 5.4099 0.6612 44.5959 7.7581
# 6 5.6797 7.2251 3.0046 -1.3727 7.7581 21.9290
#
#
#
# Elastic Compliance Matrix: (Units=1/GPa)
#
#
# Indices 1 2 3 4 5 6 
#
# 1 0.023124 0.002217 -0.004751 -0.006720 -0.013398 -0.001749
# 2 0.002217 0.027929 0.003171 -0.009038 -0.008830 -0.007653
# 3 -0.004751 0.003171 0.011413 0.000615 0.000722 -0.001595
# 4 -0.006720 -0.009038 0.000615 0.035952 0.005282 0.005016
# 5 -0.013398 -0.008830 0.000722 0.005282 0.033844 -0.005362
# 6 -0.001749 -0.007653 -0.001595 0.005016 -0.005362 0.051006
#
#
# Mechanical properties :
#
#
# Convention : Reuss Voigt Hill
#
# Bulk Modulus (GPa) = 15.68859 27.76324 21.72591
# Shear Modulus (GPa) = 24.60119 32.71361 28.65740
#
# Velocity S-wave (km/s) = 3.28018 3.78254 3.54029
# Velocity P-wave (km/s) = 4.60518 5.58743 5.11992
#
# Compressibility (1/GPa) = 0.06374058
#
# Stress axis : x y z
#
# Youngs Moduli (GPa) = 43.24467 35.80456 87.61582
#
# Poissons Ratio (x) = -0.07938 0.41630
# Poissons Ratio (y) = -0.09588 -0.27784
# Poissons Ratio (z) = 0.20547 -0.11354
#
# Static dielectric constant tensor:
#      x y z
#    x 1.832750 -0.004140 0.014700 
#    y -0.004140 1.850610 0.032080 
#    z 0.014700 0.032080 1.830340 
# 
# From -- ./inp_files/2151.got.cif
#   From: 2010.05.17/outbox.cif.g08.bks.cpg/sg1_2_cif.got.tgz:2151.got - 2010.05.17 20:27:59.
