data_PCOD9000717
_publ_section_title
;
Structure prediction by ZEFSAII (Michael W. Deem and Ramdas Pophale) SiO2 
 PCOD9000717
Probable space group: P 1
;
_chemical_formula_sum "Si O2"
_cell_formula_units_Z 8
_cell_length_a 9.164029
_cell_length_b 14.191911
_cell_length_c 9.714694
_cell_angle_alpha 155.827445
_cell_angle_beta 132.447565
_cell_angle_gamma 40.014748
_cell_volume 331.293853
_symmetry_space_group_name_H-M "P 1"
_symmetry_group_IT_number 1
_symmetry_cell_setting 'triclinic'
loop_
_space_group_symop_operation_xyz
x,y,z
loop_
_atom_site_type_symbol
_atom_site_label
_atom_site_fract_x
_atom_site_fract_y
_atom_site_fract_z
Si Si1 0.222820 0.816340 0.032660
Si Si2 0.895258 0.308406 0.791208
Si Si3 0.815685 0.423877 0.216701
Si Si4 0.512852 0.233910 0.530924
Si Si5 0.639500 0.908528 0.438838
Si Si6 0.359103 0.891302 0.619548
Si Si7 0.752503 0.954931 0.890486
Si Si8 0.237691 0.927625 0.895907
O O1 0.390206 0.934666 0.323787
O O2 0.266882 0.743313 0.798247
O O3 0.329697 0.544488 0.823286
O O4 0.950370 0.020784 0.143163
O O5 0.879749 0.367405 0.023780
O O6 0.807060 0.609157 0.085824
O O7 0.710167 0.214335 0.529342
O O8 0.148931 0.064656 0.616063
O O9 0.546407 0.602304 0.302431
O O10 0.884902 0.642399 0.596072
O O11 0.978395 0.162703 0.053254
O O12 0.398710 0.057464 0.187794
O O13 0.627214 0.115466 0.594219
O O14 0.701611 0.956872 0.696499
O O15 0.506393 0.046550 0.925589
O O16 0.280283 0.836699 0.643900
#
# Coordination Sequence:
#
# PCOD9000717 Si02
#       8
#     1   1   1   1   1   1   1   1
#     4  10  20  36  63  86 111 161 193 234 295 341
#     4   9  18  35  59  79 118 150 186 238 288 338
#     4   8  17  35  57  82 113 144 189 237 279 341
#     4  10  19  36  59  85 115 156 190 241 292 336
#     4   9  20  35  61  87 113 152 199 235 286 350
#     4   9  19  36  58  89 116 147 193 242 282 351
#     4   9  18  37  60  83 115 149 191 237 288 336
#     4  10  19  36  61  83 115 149 195 236 288 349
#
# _framework density 24.147746999999999
#
# number of rings (size 3 to 8) (size 9 to 14) (size 15 to 20)
#    0.750    2.000    1.250    0.000    3.500    0.000 
#    2.250    3.750   22.000    0.000    0.000    0.000 
#    0.000    0.000    0.000    0.000    0.000    0.000 
#
# Total GULP energy -44539.504539 kJ/mol
# GULP energy per Si atom -5567.438067 kJ/mol
# Density = 2.409279 g / cm^3
# Si number density = 24.147747 Si / 1000 Ang^3
#
#
#
# Elastic Constant Matrix: (Units=GPa)
#
#
# Indices 1 2 3 4 5 6 
#
# 1 81.4366 48.7086 12.1414 18.2173 4.7548 -2.2160
# 2 48.7086 157.0740 23.7473 11.0612 6.0611 -14.9221
# 3 12.1414 23.7473 35.3305 14.4834 8.6743 -2.1793
# 4 18.2173 11.0612 14.4834 35.9885 -5.5114 16.0179
# 5 4.7548 6.0611 8.6743 -5.5114 28.9329 2.2303
# 6 -2.2160 -14.9221 -2.1793 16.0179 2.2303 56.4397
#
#
#
# Elastic Compliance Matrix: (Units=1/GPa)
#
#
# Indices 1 2 3 4 5 6 
#
# 1 0.017317 -0.004609 0.002807 -0.010447 -0.004922 0.002729
# 2 -0.004609 0.008561 -0.004486 0.000818 0.000336 0.001664
# 3 0.002807 -0.004486 0.045780 -0.025141 -0.018696 0.008566
# 4 -0.010447 0.000818 -0.025141 0.053780 0.020657 -0.017244
# 5 -0.004922 0.000336 -0.018696 0.020657 0.045495 -0.008487
# 6 0.002729 0.001664 0.008566 -0.017244 -0.008487 0.023825
#
#
# Mechanical properties :
#
#
# Convention : Reuss Voigt Hill
#
# Bulk Modulus (GPa) = 16.92605 49.22619 33.07612
# Shear Modulus (GPa) = 22.02363 36.88847 29.45605
#
# Velocity S-wave (km/s) = 3.02327 3.91271 3.49639
# Velocity P-wave (km/s) = 4.38309 6.39078 5.47967
#
# Compressibility (1/GPa) = 0.05908053
#
# Stress axis : x y z
#
# Youngs Moduli (GPa) = 57.74833 116.80261 21.84367
#
# Poissons Ratio (x) = 0.53838 -0.06130
# Poissons Ratio (y) = 0.26618 0.09799
# Poissons Ratio (z) = -0.16207 0.52396
#
# Static dielectric constant tensor:
#      x y z
#    x 1.977880 -0.035420 0.006880 
#    y -0.035420 1.996550 -0.077650 
#    z 0.006880 -0.077650 1.992220 
# 
# From -- ./inp_files/5259.got.cif
#   From: 2010.05.17/outbox.cif.g08.bks.cpg/sg1_3_cif.got.tgz:5259.got - 2010.05.17 20:27:59.
