data_PCOD9000886
_publ_section_title
;
Structure prediction by ZEFSAII (Michael W. Deem and Ramdas Pophale) SiO2 
 PCOD9000886
Probable space group: P 1
;
_chemical_formula_sum "Si O2"
_cell_formula_units_Z 8
_cell_length_a 8.180088
_cell_length_b 9.074435
_cell_length_c 6.676034
_cell_angle_alpha 98.609243
_cell_angle_beta 82.619887
_cell_angle_gamma 131.637215
_cell_volume 365.909784
_symmetry_space_group_name_H-M "P 1"
_symmetry_group_IT_number 1
_symmetry_cell_setting 'triclinic'
loop_
_space_group_symop_operation_xyz
x,y,z
loop_
_atom_site_type_symbol
_atom_site_label
_atom_site_fract_x
_atom_site_fract_y
_atom_site_fract_z
Si Si1 0.990720 0.025130 0.743270
Si Si2 0.320224 0.068099 0.010183
Si Si3 0.969613 0.525220 0.375456
Si Si4 0.661216 0.594593 0.557982
Si Si5 0.404882 0.911313 0.300617
Si Si6 0.243245 0.283016 0.362555
Si Si7 0.617717 0.256376 0.659329
Si Si8 0.870732 0.187072 0.113870
O O1 0.121225 0.138516 0.543161
O O2 0.775325 0.802478 0.680700
O O3 0.927685 0.139809 0.889447
O O4 0.137048 0.010830 0.868527
O O5 0.276820 0.904273 0.128632
O O6 0.349683 0.220710 0.190912
O O7 0.536139 0.159001 0.867109
O O8 0.848838 0.614546 0.410847
O O9 0.863766 0.387336 0.564286
O O10 0.888138 0.375708 0.173884
O O11 0.227954 0.697251 0.380010
O O12 0.446027 0.502870 0.447869
O O13 0.583124 0.415004 0.683299
O O14 0.473509 0.078887 0.484575
O O15 0.636462 0.992938 0.195799
O O16 0.060066 0.250149 0.250957
#
# Coordination Sequence:
#
# PCOD9000886 Si02
#       8
#     1   1   1   1   1   1   1   1
#     4  11  23  42  60  99 129 166 210 266 316 376
#     4  11  19  40  69  93 129 163 212 271 314 366
#     4   9  20  41  64  90 126 165 208 258 311 374
#     4  10  20  41  66  90 124 161 213 262 308 368
#     4  11  21  43  64  96 129 168 212 264 311 381
#     4  11  22  42  64  91 134 168 207 265 316 377
#     4   9  20  38  63  96 124 157 210 268 308 366
#     4  10  25  41  62  93 133 174 206 256 320 384
#
# _framework density 21.863315
#
# number of rings (size 3 to 8) (size 9 to 14) (size 15 to 20)
#    0.750    1.000    2.500    1.500    0.000    4.000 
#   11.250    2.500    0.000    0.000    0.000    0.000 
#    0.000    0.000    0.000    0.000    0.000    0.000 
#
# Total GULP energy -44613.897178 kJ/mol
# GULP energy per Si atom -5576.737147 kJ/mol
# Density = 2.181355 g / cm^3
# Si number density = 21.863315 Si / 1000 Ang^3
#
#
#
# Elastic Constant Matrix: (Units=GPa)
#
#
# Indices 1 2 3 4 5 6 
#
# 1 43.0263 5.7657 18.4365 4.8612 -5.2518 4.1477
# 2 5.7657 131.5944 46.1974 7.6078 -1.7400 21.4590
# 3 18.4365 46.1974 119.8098 -0.3749 -10.4479 -0.5908
# 4 4.8612 7.6078 -0.3749 30.4290 8.9028 -2.8969
# 5 -5.2518 -1.7400 -10.4479 8.9028 25.1141 4.7483
# 6 4.1477 21.4590 -0.5908 -2.8969 4.7483 24.9735
#
#
#
# Elastic Compliance Matrix: (Units=1/GPa)
#
#
# Indices 1 2 3 4 5 6 
#
# 1 0.027877 0.002589 -0.004576 -0.008722 0.009030 -0.009691
# 2 0.002589 0.011325 -0.004529 -0.005445 0.003561 -0.011577
# 3 -0.004576 -0.004529 0.010974 0.001963 0.001688 0.004818
# 4 -0.008722 -0.005445 0.001963 0.042704 -0.019321 0.014801
# 5 0.009030 0.003561 0.001688 -0.019321 0.052677 -0.016776
# 6 -0.009691 -0.011577 0.004818 0.014801 -0.016776 0.056621
#
#
# Mechanical properties :
#
#
# Convention : Reuss Voigt Hill
#
# Bulk Modulus (GPa) = 26.92145 48.35887 37.64016
# Shear Modulus (GPa) = 21.96921 31.03870 26.50396
#
# Velocity S-wave (km/s) = 3.17337 3.77194 3.48553
# Velocity P-wave (km/s) = 5.07615 6.41380 5.78377
#
# Compressibility (1/GPa) = 0.03714510
#
# Stress axis : x y z
#
# Youngs Moduli (GPa) = 35.87171 88.29728 91.12388
#
# Poissons Ratio (x) = -0.22859 0.41695
# Poissons Ratio (y) = -0.09287 0.41269
# Poissons Ratio (z) = 0.16414 0.39989
#
# Static dielectric constant tensor:
#      x y z
#    x 1.868550 0.006880 0.004860 
#    y 0.006880 1.768170 -0.012800 
#    z 0.004860 -0.012800 1.794120 
# 
# From -- ./inp_files/1719.got.cif
#   From: 2010.05.17/outbox.cif.g08.bks.cpg/sg1_1_cif.got.tgz:1719.got - 2010.05.17 20:27:59.
