data_PCOD9000686
_publ_section_title
;
Structure prediction by ZEFSAII (Michael W. Deem and Ramdas Pophale) SiO2 
 PCOD9000686
Probable space group: P 1
;
_chemical_formula_sum "Si O2"
_cell_formula_units_Z 8
_cell_length_a 9.185527
_cell_length_b 7.405063
_cell_length_c 13.589201
_cell_angle_alpha 132.976458
_cell_angle_beta 150.074295
_cell_angle_gamma 52.948688
_cell_volume 337.201625
_symmetry_space_group_name_H-M "P 1"
_symmetry_group_IT_number 1
_symmetry_cell_setting 'triclinic'
loop_
_space_group_symop_operation_xyz
x,y,z
loop_
_atom_site_type_symbol
_atom_site_label
_atom_site_fract_x
_atom_site_fract_y
_atom_site_fract_z
Si Si1 0.220300 0.928520 0.702030
Si Si2 0.598073 0.655214 0.587519
Si Si3 0.572777 0.089054 0.376151
Si Si4 0.396799 0.109960 0.070157
Si Si5 0.815286 0.010270 0.003542
Si Si6 0.580941 0.628922 0.338826
Si Si7 0.102958 0.409154 0.426693
Si Si8 0.039156 0.941409 0.312117
O O1 0.296925 0.643469 0.616484
O O2 0.480248 0.080819 0.865106
O O3 0.903567 0.008510 0.508822
O O4 0.212713 0.965602 0.829196
O O5 0.486286 0.894192 0.336591
O O6 0.685288 0.651579 0.521354
O O7 0.261591 0.757303 0.426375
O O8 0.790042 0.842105 0.831365
O O9 0.364602 0.072150 0.152992
O O10 0.602807 0.375896 0.526069
O O11 0.364573 0.400545 0.133842
O O12 0.733313 0.021014 0.211711
O O13 0.989652 0.264358 0.210288
O O14 0.940358 0.856431 0.114003
O O15 0.825522 0.526294 0.367486
O O16 0.214569 0.190010 0.482467
#
# Coordination Sequence:
#
# PCOD9000686 Si02
#       8
#     1   1   1   1   1   1   1   1
#     4  10  18  38  68  86 120 154 206 260 287 352
#     4  11  21  36  64  85 128 168 182 245 324 346
#     4  10  22  36  60  95 118 156 210 239 299 375
#     4   9  18  39  64  88 113 161 201 253 303 336
#     4   9  20  38  61  90 115 163 199 248 304 344
#     4   9  19  39  59  86 126 147 205 255 278 365
#     4   8  18  39  60  91 116 150 212 250 284 353
#     4   8  18  37  58  87 122 151 201 248 289 363
#
# _framework density 23.724677
#
# number of rings (size 3 to 8) (size 9 to 14) (size 15 to 20)
#    0.750    2.000    1.250    0.750    0.000    3.000 
#    4.500    8.750    8.250    0.000    0.000    0.000 
#    0.000    0.000    0.000    0.000    0.000    0.000 
#
# Total GULP energy -44614.989769 kJ/mol
# GULP energy per Si atom -5576.873721 kJ/mol
# Density = 2.367068 g / cm^3
# Si number density = 23.724677 Si / 1000 Ang^3
#
#
#
# Elastic Constant Matrix: (Units=GPa)
#
#
# Indices 1 2 3 4 5 6 
#
# 1 69.8286 33.1378 29.5270 11.8918 -15.0312 1.5481
# 2 33.1378 148.1016 45.0876 12.2194 -13.5603 7.3755
# 3 29.5270 45.0876 128.2975 33.5377 -43.1905 17.0383
# 4 11.8918 12.2194 33.5377 35.7589 -12.2966 -7.0475
# 5 -15.0312 -13.5603 -43.1905 -12.2966 47.7147 5.8144
# 6 1.5481 7.3755 17.0383 -7.0475 5.8144 28.2507
#
#
#
# Elastic Compliance Matrix: (Units=1/GPa)
#
#
# Indices 1 2 3 4 5 6 
#
# 1 0.017353 -0.003005 -0.001043 -0.002898 0.003030 -0.000884
# 2 -0.003005 0.008090 -0.002412 0.000182 -0.000748 -0.000293
# 3 -0.001043 -0.002412 0.021718 -0.017467 0.016603 -0.020186
# 4 -0.002898 0.000182 -0.017467 0.047444 -0.007370 0.023998
# 5 0.003030 -0.000748 0.016603 -0.007370 0.037203 -0.019480
# 6 -0.000884 -0.000293 -0.020186 0.023998 -0.019480 0.057693
#
#
# Mechanical properties :
#
#
# Convention : Reuss Voigt Hill
#
# Bulk Modulus (GPa) = 29.20369 62.41472 45.80920
# Shear Modulus (GPa) = 23.38263 38.24322 30.81292
#
# Velocity S-wave (km/s) = 3.14280 4.01928 3.60776
# Velocity P-wave (km/s) = 5.05032 6.92131 6.05848
#
# Compressibility (1/GPa) = 0.03424224
#
# Stress axis : x y z
#
# Youngs Moduli (GPa) = 57.62700 123.61241 46.04444
#
# Poissons Ratio (x) = 0.37142 0.04802
# Poissons Ratio (y) = 0.17315 0.11105
# Poissons Ratio (z) = 0.06009 0.29813
#
# Static dielectric constant tensor:
#      x y z
#    x 2.010140 -0.017300 0.000350 
#    y -0.017300 1.891710 0.018830 
#    z 0.000350 0.018830 1.888010 
# 
# From -- ./inp_files/7241.got.cif
#   From: 2010.05.17/outbox.cif.g08.bks.cpg/sg1_4_cif.got.tgz:7241.got - 2010.05.17 20:27:59.
