data_PCOD9000144
_publ_section_title
;
Structure prediction by ZEFSAII (Michael W. Deem and Ramdas Pophale) SiO2 
 PCOD9000144
Probable space group: P 1
;
_chemical_formula_sum "Si O2"
_cell_formula_units_Z 8
_cell_length_a 13.755134
_cell_length_b 11.039737
_cell_length_c 13.866077
_cell_angle_alpha 148.698877
_cell_angle_beta 158.718058
_cell_angle_gamma 29.388315
_cell_volume 364.174664
_symmetry_space_group_name_H-M "P 1"
_symmetry_group_IT_number 1
_symmetry_cell_setting 'triclinic'
loop_
_space_group_symop_operation_xyz
x,y,z
loop_
_atom_site_type_symbol
_atom_site_label
_atom_site_fract_x
_atom_site_fract_y
_atom_site_fract_z
Si Si1 0.229530 0.827960 0.533790
Si Si2 0.136255 0.710889 0.860847
Si Si3 0.790117 0.585347 0.021068
Si Si4 0.126092 0.401620 0.827099
Si Si5 0.365447 0.581762 0.775607
Si Si6 0.553581 0.466217 0.423000
Si Si7 0.481247 0.052437 0.423610
Si Si8 0.825901 0.110584 0.612938
O O1 0.511490 0.742252 0.804275
O O2 0.321550 0.689733 0.422778
O O3 0.119710 0.125933 0.620418
O O4 0.014091 0.715484 0.305156
O O5 0.254738 0.925293 0.141356
O O6 0.319007 0.572990 0.841009
O O7 0.176429 0.520618 0.856064
O O8 0.793954 0.859416 0.622203
O O9 0.665154 0.586987 0.013783
O O10 0.901605 0.306342 0.885181
O O11 0.800030 0.555610 0.671309
O O12 0.376347 0.388488 0.125090
O O13 0.366572 0.328667 0.554096
O O14 0.102165 0.846122 0.682740
O O15 0.714900 0.243703 0.498796
O O16 0.561078 0.079959 0.404794
#
# Coordination Sequence:
#
# PCOD9000144 Si02
#       8
#     1   1   1   1   1   1   1   1
#     4  11  24  42  64  97 129 166 213 262 322 389
#     4  11  26  45  64  96 131 172 227 268 307 382
#     4  10  22  39  66 100 131 160 209 265 325 393
#     4  12  26  43  67  94 130 179 224 258 315 387
#     4  10  23  44  70  95 133 175 207 270 334 377
#     4  11  24  44  67  96 135 170 208 274 326 376
#     4  10  24  44  68  97 129 167 220 272 324 384
#     4   9  21  41  68 101 132 167 212 265 333 396
#
# _framework density 21.967480999999999
#
# number of rings (size 3 to 8) (size 9 to 14) (size 15 to 20)
#    0.000    1.500    0.000    3.750    0.000   20.000 
#    0.000    2.500    0.000    0.000    0.000    0.000 
#    0.000    0.000    0.000    0.000    0.000    0.000 
#
# Total GULP energy -44796.496310 kJ/mol
# GULP energy per Si atom -5599.562039 kJ/mol
# Density = 2.191748 g / cm^3
# Si number density = 21.967481 Si / 1000 Ang^3
#
#
#
# Elastic Constant Matrix: (Units=GPa)
#
#
# Indices 1 2 3 4 5 6 
#
# 1 185.4225 72.7371 56.3937 9.0392 -2.3445 7.7919
# 2 72.7371 77.0391 19.5756 9.5272 -10.8328 -6.1252
# 3 56.3937 19.5756 94.6490 -8.9996 6.9388 10.2254
# 4 9.0392 9.5272 -8.9996 27.6858 0.7914 0.3742
# 5 -2.3445 -10.8328 6.9388 0.7914 24.9372 4.9786
# 6 7.7919 -6.1252 10.2254 0.3742 4.9786 33.6734
#
#
#
# Elastic Compliance Matrix: (Units=1/GPa)
#
#
# Indices 1 2 3 4 5 6 
#
# 1 0.010267 -0.008831 -0.004078 -0.001570 -0.001177 -0.002552
# 2 -0.008831 0.024273 -0.001652 -0.006347 0.009244 0.005664
# 3 -0.004078 -0.001652 0.014682 0.006852 -0.004767 -0.003186
# 4 -0.001570 -0.006347 0.006852 0.041238 -0.005621 -0.002499
# 5 -0.001177 0.009244 -0.004767 -0.005621 0.046182 -0.003364
# 6 -0.002552 0.005664 -0.003186 -0.002499 -0.003364 0.032811
#
#
# Mechanical properties :
#
#
# Convention : Reuss Voigt Hill
#
# Bulk Modulus (GPa) = 49.75025 72.72482 61.23754
# Shear Modulus (GPa) = 24.35765 31.15289 27.75527
#
# Velocity S-wave (km/s) = 3.33348 3.76990 3.55839
# Velocity P-wave (km/s) = 6.12475 7.21991 6.69476
#
# Compressibility (1/GPa) = 0.02010040
#
# Stress axis : x y z
#
# Youngs Moduli (GPa) = 97.40371 41.19729 68.11173
#
# Poissons Ratio (x) = 0.36383 0.27774
# Poissons Ratio (y) = 0.86021 0.11249
# Poissons Ratio (z) = 0.39719 0.06804
#
# Static dielectric constant tensor:
#      x y z
#    x 1.812640 -0.033580 -0.012790 
#    y -0.033580 1.815960 -0.006370 
#    z -0.012790 -0.006370 1.801860 
# 
# From -- ./inp_files/7319.got.cif
#   From: 2010.05.17/outbox.cif.g08.bks.cpg/sg1_4_cif.got.tgz:7319.got - 2010.05.17 20:27:59.
