data_PCOD9000200
_publ_section_title
;
Structure prediction by ZEFSAII (Michael W. Deem and Ramdas Pophale) SiO2 
 PCOD9000200
Probable space group: P 1
;
_chemical_formula_sum "Si O2"
_cell_formula_units_Z 8
_cell_length_a 14.790298
_cell_length_b 11.782522
_cell_length_c 5.394084
_cell_angle_alpha 43.935860
_cell_angle_beta 43.521835
_cell_angle_gamma 29.405186
_cell_volume 306.762248
_symmetry_space_group_name_H-M "P 1"
_symmetry_group_IT_number 1
_symmetry_cell_setting 'triclinic'
loop_
_space_group_symop_operation_xyz
x,y,z
loop_
_atom_site_type_symbol
_atom_site_label
_atom_site_fract_x
_atom_site_fract_y
_atom_site_fract_z
Si Si1 0.652660 0.150150 0.328200
Si Si2 0.039064 0.694843 0.218207
Si Si3 0.268070 0.979505 0.380190
Si Si4 0.867584 0.272237 0.479653
Si Si5 0.098363 0.841685 0.370140
Si Si6 0.393279 0.170229 0.492773
Si Si7 0.491882 0.551492 0.289841
Si Si8 0.580724 0.761992 0.468467
O O1 0.471723 0.235178 0.421751
O O2 0.600755 0.280666 0.489942
O O3 0.739610 0.231939 0.885519
O O4 0.815404 0.863155 0.447704
O O5 0.070400 0.792364 0.233425
O O6 0.204611 0.411472 0.356536
O O7 0.053965 0.755617 0.817655
O O8 0.044743 0.149158 0.507674
O O9 0.383528 0.709876 0.498238
O O10 0.365773 0.944606 0.494662
O O11 0.327167 0.070780 0.932230
O O12 0.735527 0.554126 0.291492
O O13 0.969425 0.116457 0.270372
O O14 0.318994 0.684518 0.229295
O O15 0.568772 0.951273 0.312399
O O16 0.609090 0.600098 0.881257
#
# Coordination Sequence:
#
# PCOD9000200 Si02
#       8
#     1   1   1   1   1   1   1   1
#     4  10  22  42  69 102 134 177 234 290 343 407
#     4  11  25  43  67 102 142 180 225 290 347 409
#     4  10  23  42  65  94 135 185 226 281 347 411
#     4   9  22  43  66 103 124 178 238 286 337 410
#     4  10  22  42  70 101 136 176 229 289 347 399
#     4  11  25  45  61 102 141 185 226 280 354 418
#     4   9  20  40  66  98 128 177 231 286 337 406
#     4  10  23  41  68  92 142 180 227 282 346 416
#
# _framework density 26.078825999999999
#
# number of rings (size 3 to 8) (size 9 to 14) (size 15 to 20)
#    0.000    2.000    1.250    0.000    8.750    2.000 
#    9.000    0.000    0.000    0.000    0.000    0.000 
#    0.000    0.000    0.000    0.000    0.000    0.000 
#
# Total GULP energy -44695.895079 kJ/mol
# GULP energy per Si atom -5586.986885 kJ/mol
# Density = 2.601947 g / cm^3
# Si number density = 26.078826 Si / 1000 Ang^3
#
#
#
# Elastic Constant Matrix: (Units=GPa)
#
#
# Indices 1 2 3 4 5 6 
#
# 1 104.4330 25.9606 14.8510 -2.9474 2.5275 5.8565
# 2 25.9606 184.5730 35.4605 -23.4784 -14.5147 19.1586
# 3 14.8510 35.4605 93.1703 -7.2749 0.5057 6.5513
# 4 -2.9474 -23.4784 -7.2749 25.8715 0.4208 -5.0576
# 5 2.5275 -14.5147 0.5057 0.4208 26.5269 -2.1710
# 6 5.8565 19.1586 6.5513 -5.0576 -2.1710 48.7149
#
#
#
# Elastic Compliance Matrix: (Units=1/GPa)
#
#
# Indices 1 2 3 4 5 6 
#
# 1 0.010129 -0.001343 -0.001084 -0.000472 -0.001727 -0.000670
# 2 -0.001343 0.007150 -0.001991 0.005390 0.003857 -0.001651
# 3 -0.001084 -0.001991 0.011814 0.001295 -0.001281 -0.000598
# 4 -0.000472 0.005390 0.001295 0.044297 0.002469 0.002472
# 5 -0.001727 0.003857 -0.001281 0.002469 0.040032 0.000903
# 6 -0.000670 -0.001651 -0.000598 0.002472 0.000903 0.021635
#
#
# Mechanical properties :
#
#
# Convention : Reuss Voigt Hill
#
# Bulk Modulus (GPa) = 49.36504 59.41338 54.38921
# Shear Modulus (GPa) = 33.19058 40.61627 36.90343
#
# Velocity S-wave (km/s) = 3.57137 3.95073 3.76583
# Velocity P-wave (km/s) = 5.99804 6.60626 6.30948
#
# Compressibility (1/GPa) = 0.02025725
#
# Stress axis : x y z
#
# Youngs Moduli (GPa) = 98.72171 139.86681 84.64700
#
# Poissons Ratio (x) = 0.18781 0.09175
# Poissons Ratio (y) = 0.13256 0.16854
# Poissons Ratio (z) = 0.10701 0.27849
#
# Static dielectric constant tensor:
#      x y z
#    x 2.024060 -0.002490 0.020890 
#    y -0.002490 2.112650 0.028120 
#    z 0.020890 0.028120 2.072430 
# 
# From -- ./inp_files/1119.got.cif
#   From: 2010.05.17/outbox.cif.g08.bks.cpg/sg1_1_cif.got.tgz:1119.got - 2010.05.17 20:27:59.
