data_PCOD9000236
_publ_section_title
;
Structure prediction by ZEFSAII (Michael W. Deem and Ramdas Pophale) SiO2 
 PCOD9000236
Probable space group: P 1
;
_chemical_formula_sum "Si O2"
_cell_formula_units_Z 8
_cell_length_a 14.401453
_cell_length_b 13.460463
_cell_length_c 10.966718
_cell_angle_alpha 31.851649
_cell_angle_beta 30.873916
_cell_angle_gamma 20.529944
_cell_volume 370.075304
_symmetry_space_group_name_H-M "P 1"
_symmetry_group_IT_number 1
_symmetry_cell_setting 'triclinic'
loop_
_space_group_symop_operation_xyz
x,y,z
loop_
_atom_site_type_symbol
_atom_site_label
_atom_site_fract_x
_atom_site_fract_y
_atom_site_fract_z
Si Si1 0.666860 0.421660 0.378530
Si Si2 0.359194 0.524790 0.948697
Si Si3 0.430755 0.950595 0.680625
Si Si4 0.807461 0.351487 0.011309
Si Si5 0.762478 0.050811 0.195134
Si Si6 0.539263 0.130977 0.935539
Si Si7 0.195492 0.098120 0.270201
Si Si8 0.467722 0.857767 0.447968
O O1 0.721269 0.389925 0.207156
O O2 0.683800 0.191676 0.644628
O O3 0.915190 0.323212 0.275827
O O4 0.381868 0.766533 0.369077
O O5 0.523991 0.319897 0.093726
O O6 0.373592 0.369611 0.982086
O O7 0.510778 0.600065 0.664103
O O8 0.039514 0.807643 0.054260
O O9 0.630830 0.961744 0.483139
O O10 0.437546 0.934573 0.542275
O O11 0.106352 0.220423 0.803435
O O12 0.569096 0.656582 0.890106
O O13 0.838212 0.131766 0.133395
O O14 0.367071 0.155310 0.001429
O O15 0.668151 0.849560 0.160575
O O16 0.186781 0.101789 0.424897
#
# Coordination Sequence:
#
# PCOD9000236 Si02
#       8
#     1   1   1   1   1   1   1   1
#     4  12  26  48  66  98 136 190 226 265 329 399
#     4  12  23  41  71 105 138 166 220 277 355 399
#     4  12  25  45  72 103 133 175 224 280 344 395
#     4  12  27  45  69  96 142 181 227 274 319 404
#     4  12  25  43  69 101 137 178 216 279 339 403
#     4  10  24  45  69 104 134 177 217 284 337 402
#     4  10  26  42  71 100 132 176 224 282 330 390
#     4  10  22  43  73 105 132 169 222 283 351 390
#
# _framework density 21.617222000000002
#
# number of rings (size 3 to 8) (size 9 to 14) (size 15 to 20)
#    0.750    0.000    5.000    1.500    1.750    6.000 
#    0.000    0.000    0.000    0.000    0.000    0.000 
#    0.000    0.000    0.000    0.000    0.000    0.000 
#
# Total GULP energy -44639.420575 kJ/mol
# GULP energy per Si atom -5579.927572 kJ/mol
# Density = 2.156802 g / cm^3
# Si number density = 21.617222 Si / 1000 Ang^3
#
#
#
# Elastic Constant Matrix: (Units=GPa)
#
#
# Indices 1 2 3 4 5 6 
#
# 1 71.0309 -11.6852 57.1530 -7.5762 9.2884 -1.1176
# 2 -11.6852 -10.6426 5.6279 -16.6493 -2.2656 -1.0469
# 3 57.1530 5.6279 107.5986 -6.5914 -2.9316 16.0765
# 4 -7.5762 -16.6493 -6.5914 19.2659 2.6262 -4.8584
# 5 9.2884 -2.2656 -2.9316 2.6262 42.2526 -1.5418
# 6 -1.1176 -1.0469 16.0765 -4.8584 -1.5418 19.1807
#
#
#
# Elastic Compliance Matrix: (Units=1/GPa)
#
#
# Indices 1 2 3 4 5 6 
#
# 1 0.021080 -0.017011 -0.012140 -0.007768 -0.005612 0.008056
# 2 -0.017011 -0.023660 0.011445 -0.028544 0.004355 -0.018756
# 3 -0.012140 0.011445 0.017587 0.007457 0.003578 -0.012647
# 4 -0.007768 -0.028544 0.007457 0.026459 -0.001010 -0.001640
# 5 -0.005612 0.004355 0.003578 -0.001010 0.025398 -0.001302
# 6 0.008056 -0.018756 -0.012647 -0.001640 -0.001302 0.061662
#
#
# Mechanical properties :
#
#
# Convention : Reuss Voigt Hill
#
# Bulk Modulus (GPa) = -49.01250 30.01980 -9.49635
# Shear Modulus (GPa) = 31.82005 23.93259 27.87632
#
# Velocity S-wave (km/s) = 3.84080 3.33093 3.59492
# Velocity P-wave (km/s) = 1.74733 5.35823 3.58172
#
# Compressibility (1/GPa) = -0.02040296
#
# Stress axis : x y z
#
# Youngs Moduli (GPa) = 47.43864 -42.26463 56.85932
#
# Poissons Ratio (x) = -0.71895 0.69025
# Poissons Ratio (y) = 0.80696 -0.65078
# Poissons Ratio (z) = 0.57589 0.48374
#
# Static dielectric constant tensor:
#      x y z
#    x 1.754220 0.016690 -0.024660 
#    y 0.016690 1.783420 -0.003300 
#    z -0.024660 -0.003300 1.826510 
# 
# From -- ./inp_files/6846.got.cif
#   From: 2010.05.17/outbox.cif.g08.bks.cpg/sg1_4_cif.got.tgz:6846.got - 2010.05.17 20:27:59.
