data_PCOD9000706
_publ_section_title
;
Structure prediction by ZEFSAII (Michael W. Deem and Ramdas Pophale) SiO2 
 PCOD9000706
Probable space group: P 1
;
_chemical_formula_sum "Si O2"
_cell_formula_units_Z 8
_cell_length_a 10.669555
_cell_length_b 5.763654
_cell_length_c 10.820427
_cell_angle_alpha 60.651704
_cell_angle_beta 142.511602
_cell_angle_gamma 130.552944
_cell_volume 307.219330
_symmetry_space_group_name_H-M "P 1"
_symmetry_group_IT_number 1
_symmetry_cell_setting 'triclinic'
loop_
_space_group_symop_operation_xyz
x,y,z
loop_
_atom_site_type_symbol
_atom_site_label
_atom_site_fract_x
_atom_site_fract_y
_atom_site_fract_z
Si Si1 0.836420 0.965740 0.204630
Si Si2 0.350615 0.081119 0.588649
Si Si3 0.868375 0.255487 0.640390
Si Si4 0.582708 0.259818 0.989735
Si Si5 0.699337 0.912834 0.853111
Si Si6 0.737822 0.646966 0.590837
Si Si7 0.357890 0.423754 0.076663
Si Si8 0.247593 0.836398 0.045030
O O1 0.603243 0.648284 0.140477
O O2 0.828857 0.101217 0.027858
O O3 0.077021 0.965367 0.402231
O O4 0.794186 0.189465 0.201242
O O5 0.435760 0.125860 0.784109
O O6 0.510635 0.396346 0.554930
O O7 0.432093 0.850936 0.657818
O O8 0.769946 0.491785 0.529790
O O9 0.803888 0.061498 0.767633
O O10 0.764501 0.986539 0.526049
O O11 0.152321 0.418750 0.827468
O O12 0.704653 0.612729 0.968419
O O13 0.389491 0.093873 0.985704
O O14 0.970684 0.693895 0.836362
O O15 0.328333 0.585056 0.137618
O O16 0.306384 0.073196 0.144287
#
# Coordination Sequence:
#
# PCOD9000706 Si02
#       8
#     1   1   1   1   1   1   1   1
#     4  10  21  35  54  81 111 141 181 227 273 323
#     4  10  21  35  54  81 111 141 181 227 273 323
#     4   9  17  31  55  76 105 141 185 218 265 326
#     4  10  19  35  55  79 106 145 182 222 272 323
#     4  10  19  35  55  79 106 145 182 222 272 323
#     4   9  17  32  52  79 104 143 180 221 268 321
#     4   9  17  32  52  79 104 143 180 221 268 321
#     4   9  17  31  55  76 105 141 185 218 265 326
#
# _framework density 26.040029000000001
#
# number of rings (size 3 to 8) (size 9 to 14) (size 15 to 20)
#    0.000    2.500    2.500    0.000    0.000    1.000 
#    0.000    1.250    0.000    1.500    0.000    0.000 
#    0.000    0.000    0.000    0.000    0.000    0.000 
#
# Total GULP energy -44643.350323 kJ/mol
# GULP energy per Si atom -5580.418790 kJ/mol
# Density = 2.598076 g / cm^3
# Si number density = 26.040029 Si / 1000 Ang^3
#
#
#
# Elastic Constant Matrix: (Units=GPa)
#
#
# Indices 1 2 3 4 5 6 
#
# 1 93.5117 32.1510 47.4025 -0.3171 17.4456 -7.1734
# 2 32.1510 120.3090 2.4484 0.2877 7.0291 -40.7959
# 3 47.4025 2.4484 75.7362 8.1441 27.3843 -12.1726
# 4 -0.3171 0.2877 8.1441 29.3707 7.9371 4.4161
# 5 17.4456 7.0291 27.3843 7.9371 47.8477 -3.7672
# 6 -7.1734 -40.7959 -12.1726 4.4161 -3.7672 48.3683
#
#
#
# Elastic Compliance Matrix: (Units=1/GPa)
#
#
# Indices 1 2 3 4 5 6 
#
# 1 0.019772 -0.007551 -0.014060 0.005163 0.000508 -0.007407
# 2 -0.007551 0.014897 0.007581 -0.003804 -0.002077 0.013538
# 3 -0.014060 0.007581 0.027891 -0.006963 -0.009913 0.011191
# 4 0.005163 -0.003804 -0.006963 0.038457 -0.004351 -0.008045
# 5 0.000508 -0.002077 -0.009913 -0.004351 0.027285 -0.001649
# 6 -0.007407 0.013538 0.011191 -0.008045 -0.001649 0.034417
#
#
# Mechanical properties :
#
#
# Convention : Reuss Voigt Hill
#
# Bulk Modulus (GPa) = 28.98770 50.39563 39.69166
# Shear Modulus (GPa) = 24.71819 38.95436 31.83627
#
# Velocity S-wave (km/s) = 3.08431 3.87194 3.50035
# Velocity P-wave (km/s) = 4.88264 6.27569 5.62248
#
# Compressibility (1/GPa) = 0.03449739
#
# Stress axis : x y z
#
# Youngs Moduli (GPa) = 50.57630 67.12889 35.85414
#
# Poissons Ratio (x) = 0.50692 0.50412
# Poissons Ratio (y) = 0.38192 -0.27180
# Poissons Ratio (z) = 0.71112 -0.50888
#
# Static dielectric constant tensor:
#      x y z
#    x 2.159540 -0.223790 0.034420 
#    y -0.223790 2.206980 0.008470 
#    z 0.034420 0.008470 2.066160 
# 
# From -- ./inp_files/340.got.cif
#   From: 2010.05.17/outbox.cif.g08.bks.cpg/sg1_1_cif.got.tgz:340.got - 2010.05.17 20:27:59.
