data_PCOD9000997
_publ_section_title
;
Structure prediction by ZEFSAII (Michael W. Deem and Ramdas Pophale) SiO2 
 PCOD9000997
Probable space group: P -1
;
_chemical_formula_sum "Si O2"
_cell_formula_units_Z 16
_cell_length_a 8.564626
_cell_length_b 15.341588
_cell_length_c 7.605316
_cell_angle_alpha 105.013711
_cell_angle_beta 129.079599
_cell_angle_gamma 53.214490
_cell_volume 609.887523
_symmetry_space_group_name_H-M "P -1"
_symmetry_group_IT_number 2
_symmetry_cell_setting 'triclinic'
loop_
_space_group_symop_operation_xyz
x,y,z
-x,-y,-z
loop_
_atom_site_type_symbol
_atom_site_label
_atom_site_fract_x
_atom_site_fract_y
_atom_site_fract_z
Si Si1 0.933830 0.277940 0.405478
Si Si2 0.682903 0.746522 0.827644
Si Si3 0.504391 0.826954 0.135954
Si Si4 0.709930 0.301112 0.598740
Si Si5 0.936217 0.913345 0.413631
Si Si6 0.409056 0.036284 0.254549
Si Si7 0.069892 0.576509 0.799481
Si Si8 0.588790 0.629067 0.266863
O O1 0.769345 0.347610 0.496216
O O2 0.222676 0.222831 0.614255
O O3 0.934566 0.169167 0.368524
O O4 0.859523 0.352182 0.222633
O O5 0.481232 0.729643 0.599901
O O6 0.703301 0.834934 0.779728
O O7 0.950311 0.629991 0.930749
O O8 0.584598 0.790134 0.974044
O O9 0.437228 0.754658 0.156040
O O10 0.318083 0.959354 0.098369
O O11 0.588476 0.375200 0.722732
O O12 0.964516 0.175944 0.720484
O O13 0.647405 0.981650 0.268919
O O14 0.000000 0.000000 0.500000
O O15 0.500000 0.000000 0.500000
O O16 0.834424 0.595247 0.533906
O O17 0.297120 0.450575 0.863457
#
# Coordination Sequence:
#
# PCOD9000997 Si02
#       8
#     2   2   2   2   2   2   2   2
#     4   8  17  33  52  77  99 137 176 214 250 307
#     4  11  20  33  52  82 109 137 165 220 267 306
#     4  10  21  33  51  80 111 132 173 215 267 305
#     4   9  18  33  56  76 102 137 178 210 259 306
#     4   9  16  29  51  77 100 128 173 207 251 303
#     4  11  19  33  58  77 102 139 179 208 248 317
#     4   9  18  34  55  76 102 136 189 214 248 308
#     4   9  18  35  54  76 101 142 180 217 249 313
#
# _framework density 26.234345000000001
#
# number of rings (size 3 to 8) (size 9 to 14) (size 15 to 20)
#    0.750    1.750    1.250    3.375    0.000    1.000 
#    0.000    1.250    0.000    3.000    0.000    0.000 
#    0.000    0.000    0.000    0.000    0.000    0.000 
#
# Total GULP energy -89277.279521 kJ/mol
# GULP energy per Si atom -5579.829970 kJ/mol
# Density = 2.617463 g / cm^3
# Si number density = 26.234345 Si / 1000 Ang^3
#
#
#
# Elastic Constant Matrix: (Units=GPa)
#
#
# Indices 1 2 3 4 5 6 
#
# 1 96.9330 15.2136 3.0915 5.1241 -9.3053 -21.7969
# 2 15.2136 44.9488 -12.8163 8.4775 -3.3107 -16.1866
# 3 3.0915 -12.8163 75.1407 6.3195 -6.6903 -8.1068
# 4 5.1241 8.4775 6.3195 19.9179 -10.6861 -14.2315
# 5 -9.3053 -3.3107 -6.6903 -10.6861 36.9057 11.0273
# 6 -21.7969 -16.1866 -8.1068 -14.2315 11.0273 45.1804
#
#
#
# Elastic Compliance Matrix: (Units=1/GPa)
#
#
# Indices 1 2 3 4 5 6 
#
# 1 0.011956 -0.002746 -0.000478 0.003007 0.002012 0.005155
# 2 -0.002746 0.029557 0.006628 -0.009294 -0.001919 0.007995
# 3 -0.000478 0.006628 0.015284 -0.004808 0.000912 0.003149
# 4 0.003007 -0.009294 -0.004808 0.075730 0.015826 0.017250
# 5 0.002012 -0.001919 0.000912 0.015826 0.032960 -0.002613
# 6 0.005155 0.007995 0.003149 0.017250 -0.002613 0.034121
#
#
# Mechanical properties :
#
#
# Convention : Reuss Voigt Hill
#
# Bulk Modulus (GPa) = 15.72193 25.33334 20.52764
# Shear Modulus (GPa) = 23.36447 34.50307 28.93377
#
# Velocity S-wave (km/s) = 2.98754 3.63049 3.32459
# Velocity P-wave (km/s) = 4.23160 5.22029 4.75173
#
# Compressibility (1/GPa) = 0.06360542
#
# Stress axis : x y z
#
# Youngs Moduli (GPa) = 83.64102 33.83280 65.42892
#
# Poissons Ratio (x) = 0.09289 0.03126
# Poissons Ratio (y) = 0.22964 -0.43364
# Poissons Ratio (z) = 0.03996 -0.22423
#
# Static dielectric constant tensor:
#      x y z
#    x 2.051490 0.045990 0.052130 
#    y 0.045990 2.193360 0.110410 
#    z 0.052130 0.110410 2.217090 
# 
# From -- ./inp_files/197251.got.cif
#   From: 2010.05.17/outbox.cif.g08.bks.cpg/sg2_99_cif.got.tgz:197251.got - 2010.06.03 11:33:40.
