data_PCOD9000118
_publ_section_title
;
Structure prediction by ZEFSAII (Michael W. Deem and Ramdas Pophale) SiO2 
 PCOD9000118
Probable space group: P 1
;
_chemical_formula_sum "Si O2"
_cell_formula_units_Z 8
_cell_length_a 10.642914
_cell_length_b 8.043006
_cell_length_c 7.478429
_cell_angle_alpha 54.364690
_cell_angle_beta 52.370947
_cell_angle_gamma 45.072136
_cell_volume 345.610005
_symmetry_space_group_name_H-M "P 1"
_symmetry_group_IT_number 1
_symmetry_cell_setting 'triclinic'
loop_
_space_group_symop_operation_xyz
x,y,z
loop_
_atom_site_type_symbol
_atom_site_label
_atom_site_fract_x
_atom_site_fract_y
_atom_site_fract_z
Si Si1 0.014900 0.360980 0.376250
Si Si2 0.307453 0.839771 0.396182
Si Si3 0.675757 0.406496 0.481222
Si Si4 0.653757 0.543879 0.786423
Si Si5 0.265643 0.995816 0.919749
Si Si6 0.210868 0.485166 0.561940
Si Si7 0.025867 0.772272 0.193461
Si Si8 0.634574 0.218176 0.286439
O O1 0.091522 0.533237 0.168402
O O2 0.886496 0.351322 0.338205
O O3 0.855486 0.491057 0.587965
O O4 0.175933 0.088976 0.459551
O O5 0.521426 0.678759 0.378355
O O6 0.236466 0.653892 0.573752
O O7 0.290128 0.926836 0.151829
O O8 0.623637 0.404531 0.735034
O O9 0.664982 0.227927 0.466180
O O10 0.479230 0.821945 0.766645
O O11 0.661072 0.418537 0.042633
O O12 0.180181 0.280693 0.790818
O O13 0.139384 0.904760 0.998851
O O14 0.066770 0.670750 0.424462
O O15 0.415503 0.322412 0.386250
O O16 0.804952 0.963019 0.227614
#
# Coordination Sequence:
#
# PCOD9000118 Si02
#       8
#     1   1   1   1   1   1   1   1
#     4  10  24  42  63 105 137 172 227 278 334 402
#     4  10  21  46  66  99 141 173 229 282 337 405
#     4   9  21  40  70  93 139 171 223 279 331 393
#     4  10  22  41  73 100 133 182 226 276 342 405
#     4  11  22  45  72  97 135 186 229 270 350 398
#     4  10  23  43  70  98 132 185 224 279 339 402
#     4  11  24  40  70  97 140 183 221 279 337 404
#     4  11  21  47  68  99 141 176 227 283 336 409
#
# _framework density 23.147478
#
# number of rings (size 3 to 8) (size 9 to 14) (size 15 to 20)
#    0.750    1.000    3.750    2.250    3.500    0.000 
#    6.750    0.000    0.000    0.000    0.000    0.000 
#    0.000    0.000    0.000    0.000    0.000    0.000 
#
# Total GULP energy -44630.663329 kJ/mol
# GULP energy per Si atom -5578.832916 kJ/mol
# Density = 2.309479 g / cm^3
# Si number density = 23.147478 Si / 1000 Ang^3
#
#
#
# Elastic Constant Matrix: (Units=GPa)
#
#
# Indices 1 2 3 4 5 6 
#
# 1 27.4744 0.7518 0.6523 -0.6285 1.2985 -12.4669
# 2 0.7518 137.1763 23.7862 -19.0472 -16.2088 -13.0531
# 3 0.6523 23.7862 64.3886 -8.6040 -11.1607 2.7445
# 4 -0.6285 -19.0472 -8.6040 39.1600 5.8327 -2.2161
# 5 1.2985 -16.2088 -11.1607 5.8327 23.6278 -1.3411
# 6 -12.4669 -13.0531 2.7445 -2.2161 -1.3411 34.6728
#
#
#
# Elastic Compliance Matrix: (Units=1/GPa)
#
#
# Indices 1 2 3 4 5 6 
#
# 1 0.044138 0.001800 -0.001799 0.002388 -0.001678 0.016778
# 2 0.001800 0.009155 -0.002351 0.003566 0.004456 0.004680
# 3 -0.001799 -0.002351 0.017852 0.001656 0.006363 -0.002593
# 4 0.002388 0.003566 0.001656 0.028437 -0.003710 0.003744
# 5 -0.001678 0.004456 0.006363 -0.003710 0.049521 0.002249
# 6 0.016778 0.004680 -0.002593 0.003744 0.002249 0.037167
#
#
# Mechanical properties :
#
#
# Convention : Reuss Voigt Hill
#
# Bulk Modulus (GPa) = 15.04993 31.04664 23.04828
# Shear Modulus (GPa) = 23.46113 33.08207 28.27160
#
# Velocity S-wave (km/s) = 3.18708 3.78456 3.49860
# Velocity P-wave (km/s) = 4.47875 5.70428 5.12826
#
# Compressibility (1/GPa) = 0.06644549
#
# Stress axis : x y z
#
# Youngs Moduli (GPa) = 22.65611 109.23374 56.01631
#
# Poissons Ratio (x) = -0.19661 0.10077
# Poissons Ratio (y) = -0.04078 0.13167
# Poissons Ratio (z) = 0.04076 0.25677
#
# Static dielectric constant tensor:
#      x y z
#    x 1.920130 0.045650 -0.007190 
#    y 0.045650 1.898190 0.029000 
#    z -0.007190 0.029000 1.878070 
# 
# From -- ./inp_files/4798.got.cif
#   From: 2010.05.17/outbox.cif.g08.bks.cpg/sg1_3_cif.got.tgz:4798.got - 2010.05.17 20:27:59.
