data_PCOD9000329
_publ_section_title
;
Structure prediction by ZEFSAII (Michael W. Deem and Ramdas Pophale) SiO2 
 PCOD9000329
Probable space group: P 1
;
_chemical_formula_sum "Si O2"
_cell_formula_units_Z 8
_cell_length_a 8.694110
_cell_length_b 8.321514
_cell_length_c 7.135857
_cell_angle_alpha 55.624069
_cell_angle_beta 66.842558
_cell_angle_gamma 101.064428
_cell_volume 328.344960
_symmetry_space_group_name_H-M "P 1"
_symmetry_group_IT_number 1
_symmetry_cell_setting 'triclinic'
loop_
_space_group_symop_operation_xyz
x,y,z
loop_
_atom_site_type_symbol
_atom_site_label
_atom_site_fract_x
_atom_site_fract_y
_atom_site_fract_z
Si Si1 0.683980 0.638610 0.332990
Si Si2 0.307441 0.402418 0.423491
Si Si3 0.556063 0.584466 0.843624
Si Si4 0.571596 0.044931 0.607119
Si Si5 0.235319 0.785210 0.382193
Si Si6 0.847624 0.465091 0.927249
Si Si7 0.130283 0.914327 0.973443
Si Si8 0.669962 0.086629 0.969564
O O1 0.513858 0.471136 0.380118
O O2 0.581824 0.533486 0.651992
O O3 0.908543 0.699930 0.166583
O O4 0.706299 0.885190 0.132736
O O5 0.272139 0.603344 0.372712
O O6 0.726376 0.265897 0.266214
O O7 0.147405 0.149795 0.744972
O O8 0.583984 0.831788 0.674351
O O9 0.737705 0.597408 0.855789
O O10 0.354984 0.416281 0.170321
O O11 0.644492 0.099704 0.751826
O O12 0.337524 0.955120 0.770115
O O13 0.148698 0.882934 0.208292
O O14 0.081625 0.648282 0.712251
O O15 0.448228 0.991825 0.217166
O O16 0.823673 0.325324 0.838314
#
# Coordination Sequence:
#
# PCOD9000329 Si02
#       8
#     1   1   1   1   1   1   1   1
#     4  11  23  43  69  96 132 172 216 269 326 385
#     4  11  24  45  64  97 135 171 210 274 328 377
#     4  12  23  41  69 100 133 166 221 277 314 385
#     4  11  24  45  66  97 137 169 218 275 317 388
#     4  10  23  43  67  95 134 170 217 267 324 389
#     4  12  24  43  71  97 129 177 218 266 328 384
#     4  11  22  42  69  92 131 177 213 263 329 388
#     4  10  23  46  69  92 135 176 211 269 332 382
#
# _framework density 24.364616999999999
#
# number of rings (size 3 to 8) (size 9 to 14) (size 15 to 20)
#    0.000    1.000    7.500    0.750    3.500    0.000 
#    2.250    7.500    0.000    0.000    0.000    0.000 
#    0.000    0.000    0.000    0.000    0.000    0.000 
#
# Total GULP energy -44766.477265 kJ/mol
# GULP energy per Si atom -5595.809658 kJ/mol
# Density = 2.430916 g / cm^3
# Si number density = 24.364617 Si / 1000 Ang^3
#
#
#
# Elastic Constant Matrix: (Units=GPa)
#
#
# Indices 1 2 3 4 5 6 
#
# 1 67.3138 3.2687 49.4311 18.1500 0.0448 2.2647
# 2 3.2687 64.5724 29.6169 20.1649 8.6558 0.6734
# 3 49.4311 29.6169 150.4062 22.5391 3.5358 -1.1027
# 4 18.1500 20.1649 22.5391 45.4725 -1.2988 6.9842
# 5 0.0448 8.6558 3.5358 -1.2988 40.7800 -4.2038
# 6 2.2647 0.6734 -1.1027 6.9842 -4.2038 30.1941
#
#
#
# Elastic Compliance Matrix: (Units=1/GPa)
#
#
# Indices 1 2 3 4 5 6 
#
# 1 0.021640 0.004377 -0.006896 -0.007115 -0.000624 -0.000414
# 2 0.004377 0.020496 -0.004014 -0.009056 -0.004236 0.000573
# 3 -0.006896 -0.004014 0.009783 -0.000481 0.000108 0.001090
# 4 -0.007115 -0.009056 -0.000481 0.030060 0.002320 -0.005912
# 5 -0.000624 -0.004236 0.000108 0.002320 0.025816 0.003203
# 6 -0.000414 0.000573 0.001090 -0.005912 0.003203 0.034991
#
#
# Mechanical properties :
#
#
# Convention : Reuss Voigt Hill
#
# Bulk Modulus (GPa) = 25.73756 49.65843 37.69799
# Shear Modulus (GPa) = 29.62061 36.62103 33.12082
#
# Velocity S-wave (km/s) = 3.49050 3.88111 3.69098
# Velocity P-wave (km/s) = 5.17989 6.36472 5.80263
#
# Compressibility (1/GPa) = 0.03885373
#
# Stress axis : x y z
#
# Youngs Moduli (GPa) = 46.21063 48.79083 102.21846
#
# Poissons Ratio (x) = -0.21358 0.70492
# Poissons Ratio (y) = -0.20228 0.41027
# Poissons Ratio (z) = 0.31868 0.19583
#
# Static dielectric constant tensor:
#      x y z
#    x 1.915260 -0.014640 0.035200 
#    y -0.014640 1.961830 0.039460 
#    z 0.035200 0.039460 1.929290 
# 
# From -- ./inp_files/6334.got.cif
#   From: 2010.05.17/outbox.cif.g08.bks.cpg/sg1_4_cif.got.tgz:6334.got - 2010.05.17 20:27:59.
