data_PCOD9000634
_publ_section_title
;
Structure prediction by ZEFSAII (Michael W. Deem and Ramdas Pophale) SiO2 
 PCOD9000634
Probable space group: P 1
;
_chemical_formula_sum "Si O2"
_cell_formula_units_Z 8
_cell_length_a 11.667082
_cell_length_b 5.254463
_cell_length_c 8.047122
_cell_angle_alpha 89.287909
_cell_angle_beta 139.866436
_cell_angle_gamma 84.500011
_cell_volume 313.681275
_symmetry_space_group_name_H-M "P 1"
_symmetry_group_IT_number 1
_symmetry_cell_setting 'triclinic'
loop_
_space_group_symop_operation_xyz
x,y,z
loop_
_atom_site_type_symbol
_atom_site_label
_atom_site_fract_x
_atom_site_fract_y
_atom_site_fract_z
Si Si1 0.502010 0.653020 0.429930
Si Si2 0.899965 0.937079 0.575766
Si Si3 0.687968 0.716120 0.058336
Si Si4 0.565374 0.365734 0.167443
Si Si5 0.196768 0.213254 0.785406
Si Si6 0.987724 0.342064 0.209574
Si Si7 0.659572 0.099876 0.769083
Si Si8 0.119071 0.570622 0.027270
O O1 0.521531 0.578127 0.260177
O O2 0.575746 0.383904 0.609416
O O3 0.292265 0.707222 0.244303
O O4 0.596390 0.895847 0.573803
O O5 0.803856 0.774214 0.343023
O O6 0.762273 0.204506 0.426309
O O7 0.092926 0.978806 0.716714
O O8 0.946458 0.784685 0.797223
O O9 0.566404 0.516918 0.993733
O O10 0.831887 0.576758 0.087886
O O11 0.594146 0.980450 0.869112
O O12 0.411227 0.187642 0.008201
O O13 0.112445 0.299918 0.511333
O O14 0.148590 0.400516 0.891631
O O15 0.087222 0.404663 0.153082
O O16 0.868740 0.119004 0.039355
#
# Coordination Sequence:
#
# PCOD9000634 Si02
#       8
#     1   1   1   1   1   1   1   1
#     4  11  30  52  78 120 162 211 276 335 400 491
#     4  12  25  50  80 117 167 212 270 334 413 480
#     4  12  25  47  76 118 157 220 264 331 408 479
#     4  11  28  48  81 117 159 217 265 340 408 478
#     4  11  26  52  75 117 160 206 283 329 409 483
#     4  12  26  50  79 114 165 217 266 340 400 480
#     4  12  27  50  78 115 162 210 271 326 406 480
#     4  11  29  49  79 118 164 215 271 337 406 483
#
# _framework density 25.503599000000001
#
# number of rings (size 3 to 8) (size 9 to 14) (size 15 to 20)
#    0.000    0.500    5.000    0.000   12.250    1.000 
#    0.000    1.250    0.000    0.000    0.000    0.000 
#    0.000    0.000    0.000    0.000    0.000    0.000 
#
# Total GULP energy -44800.518593 kJ/mol
# GULP energy per Si atom -5600.064824 kJ/mol
# Density = 2.544555 g / cm^3
# Si number density = 25.503599 Si / 1000 Ang^3
#
#
#
# Elastic Constant Matrix: (Units=GPa)
#
#
# Indices 1 2 3 4 5 6 
#
# 1 114.5359 34.4315 48.0441 2.1729 -7.6576 12.3909
# 2 34.4315 112.0666 40.2678 8.6268 -2.9863 4.2282
# 3 48.0441 40.2678 119.5277 9.0223 -10.6920 8.1337
# 4 2.1729 8.6268 9.0223 52.8971 13.8125 -12.0586
# 5 -7.6576 -2.9863 -10.6920 13.8125 40.2824 4.4801
# 6 12.3909 4.2282 8.1337 -12.0586 4.4801 25.3896
#
#
#
# Elastic Compliance Matrix: (Units=1/GPa)
#
#
# Indices 1 2 3 4 5 6 
#
# 1 0.011439 -0.001976 -0.003275 -0.001360 0.002208 -0.005240
# 2 -0.001976 0.010609 -0.002596 -0.001445 0.000296 -0.000709
# 3 -0.003275 -0.002596 0.011396 -0.003233 0.003743 -0.003816
# 4 -0.001360 -0.001445 -0.003233 0.026792 -0.012282 0.016832
# 5 0.002208 0.000296 0.003743 -0.012282 0.032007 -0.013807
# 6 -0.005240 -0.000709 -0.003816 0.016832 -0.013807 0.053714
#
#
# Mechanical properties :
#
#
# Convention : Reuss Voigt Hill
#
# Bulk Modulus (GPa) = 56.34217 65.73523 61.03870
# Shear Modulus (GPa) = 29.83844 38.60627 34.22236
#
# Velocity S-wave (km/s) = 3.42419 3.89493 3.66712
# Velocity P-wave (km/s) = 6.14600 6.78661 6.47423
#
# Compressibility (1/GPa) = 0.01774870
#
# Stress axis : x y z
#
# Youngs Moduli (GPa) = 87.41841 94.25810 87.75153
#
# Poissons Ratio (x) = 0.18630 0.28743
# Poissons Ratio (y) = 0.17278 0.22779
# Poissons Ratio (z) = 0.28634 0.24468
#
# Static dielectric constant tensor:
#      x y z
#    x 2.021200 -0.020360 -0.033120 
#    y -0.020360 2.024840 -0.023750 
#    z -0.033120 -0.023750 2.007310 
# 
# From -- ./inp_files/5153.got.cif
#   From: 2010.05.17/outbox.cif.g08.bks.cpg/sg1_3_cif.got.tgz:5153.got - 2010.05.17 20:27:59.
