data_PCOD9000010
_publ_section_title
;
Structure prediction by ZEFSAII (Michael W. Deem and Ramdas Pophale) SiO2 
 PCOD9000010
Probable space group: P 1
;
_chemical_formula_sum "Si O2"
_cell_formula_units_Z 8
_cell_length_a 7.595936
_cell_length_b 9.013094
_cell_length_c 8.754630
_cell_angle_alpha 50.593808
_cell_angle_beta 113.534260
_cell_angle_gamma 85.884802
_cell_volume 377.193273
_symmetry_space_group_name_H-M "P 1"
_symmetry_group_IT_number 1
_symmetry_cell_setting 'triclinic'
loop_
_space_group_symop_operation_xyz
x,y,z
loop_
_atom_site_type_symbol
_atom_site_label
_atom_site_fract_x
_atom_site_fract_y
_atom_site_fract_z
Si Si1 0.511770 0.066400 0.533930
Si Si2 0.094908 0.043518 0.892342
Si Si3 0.779658 0.334303 0.359306
Si Si4 0.802560 0.751156 0.606930
Si Si5 0.681004 0.194300 0.142156
Si Si6 0.209779 0.298249 0.025254
Si Si7 0.651767 0.165062 0.792422
Si Si8 0.547819 0.636291 0.334150
O O1 0.622483 0.223582 0.423386
O O2 0.290440 0.162563 0.298815
O O3 0.504175 0.080584 0.704898
O O4 0.666679 0.837809 0.659136
O O5 0.309251 0.821346 0.097982
O O6 0.008252 0.179398 0.617599
O O7 0.888879 0.020590 0.897350
O O8 0.128231 0.187407 0.941671
O O9 0.765474 0.341899 0.166557
O O10 0.683491 0.555633 0.276926
O O11 0.658679 0.717820 0.447046
O O12 0.825480 0.957191 0.418814
O O13 0.024739 0.536819 0.837812
O O14 0.428238 0.285933 0.037356
O O15 0.683925 0.162140 0.984829
O O16 0.560126 0.417830 0.552817
#
# Coordination Sequence:
#
# PCOD9000010 Si02
#       8
#     1   1   1   1   1   1   1   1
#     4   8  18  32  52  80 104 131 177 210 254 307
#     4  10  17  33  60  77  98 138 180 211 249 308
#     4   8  18  32  52  80 104 131 177 210 254 307
#     4  10  17  33  60  77  98 138 180 211 249 308
#     4  10  22  36  50  80 114 131 166 222 262 301
#     4  10  17  33  60  77  98 138 180 211 249 308
#     4  10  22  36  50  80 114 131 166 222 262 301
#     4  10  17  33  60  77  98 138 180 211 249 308
#
# _framework density 21.209285000000001
#
# number of rings (size 3 to 8) (size 9 to 14) (size 15 to 20)
#    0.000    3.000    5.000    0.000    0.000   10.000 
#    0.000    2.500    0.000    0.000    0.000    0.000 
#    0.000    0.000    0.000    0.000    0.000    0.000 
#
# Total GULP energy -44542.347408 kJ/mol
# GULP energy per Si atom -5567.793426 kJ/mol
# Density = 2.116101 g / cm^3
# Si number density = 21.209285 Si / 1000 Ang^3
#
#
#
# Elastic Constant Matrix: (Units=GPa)
#
#
# Indices 1 2 3 4 5 6 
#
# 1 16.0715 1.9819 13.4415 -1.8075 9.6688 -8.9323
# 2 1.9819 123.0002 37.5791 29.4819 -6.9669 -12.9810
# 3 13.4415 37.5791 104.4985 3.8654 11.3199 -21.0661
# 4 -1.8075 29.4819 3.8654 67.0981 -5.6722 5.8747
# 5 9.6688 -6.9669 11.3199 -5.6722 22.8385 0.9446
# 6 -8.9323 -12.9810 -21.0661 5.8747 0.9446 27.8326
#
#
#
# Elastic Compliance Matrix: (Units=1/GPa)
#
#
# Indices 1 2 3 4 5 6 
#
# 1 0.114730 0.001108 -0.001715 -0.004938 -0.050214 0.038785
# 2 0.001108 0.010846 -0.003501 -0.004573 0.003289 0.003618
# 3 -0.001715 -0.003501 0.013618 -0.000683 -0.007614 0.008527
# 4 -0.004938 -0.004573 -0.000683 0.018035 0.005854 -0.008240
# 5 -0.050214 0.003289 -0.007614 0.005854 0.072269 -0.024032
# 6 0.038785 0.003618 0.008527 -0.008240 -0.024032 0.059072
#
#
# Mechanical properties :
#
#
# Convention : Reuss Voigt Hill
#
# Bulk Modulus (GPa) = 7.63488 38.84171 23.23829
# Shear Modulus (GPa) = 14.68667 36.25834 25.47250
#
# Velocity S-wave (km/s) = 2.63433 4.13916 3.46931
# Velocity P-wave (km/s) = 3.58615 6.41847 5.19891
#
# Compressibility (1/GPa) = 0.13097791
#
# Stress axis : x y z
#
# Youngs Moduli (GPa) = 8.71614 92.20057 73.43257
#
# Poissons Ratio (x) = -0.10216 0.12595
# Poissons Ratio (y) = -0.00966 0.25706
# Poissons Ratio (z) = 0.01495 0.32276
#
# Static dielectric constant tensor:
#      x y z
#    x 1.851630 -0.011820 -0.051870 
#    y -0.011820 1.839910 0.071450 
#    z -0.051870 0.071450 1.806140 
# 
# From -- ./inp_files/3727.got.cif
#   From: 2010.05.17/outbox.cif.g08.bks.cpg/sg1_2_cif.got.tgz:3727.got - 2010.05.17 20:27:59.
