data_PCOD9000293
_publ_section_title
;
Structure prediction by ZEFSAII (Michael W. Deem and Ramdas Pophale) SiO2 
 PCOD9000293
Probable space group: P 1
;
_chemical_formula_sum "Si O2"
_cell_formula_units_Z 8
_cell_length_a 10.538748
_cell_length_b 5.589933
_cell_length_c 11.877425
_cell_angle_alpha 123.404574
_cell_angle_beta 32.901415
_cell_angle_gamma 117.328540
_cell_volume 317.283745
_symmetry_space_group_name_H-M "P 1"
_symmetry_group_IT_number 1
_symmetry_cell_setting 'triclinic'
loop_
_space_group_symop_operation_xyz
x,y,z
loop_
_atom_site_type_symbol
_atom_site_label
_atom_site_fract_x
_atom_site_fract_y
_atom_site_fract_z
Si Si1 0.849120 0.022490 0.089070
Si Si2 0.438805 0.504242 0.739280
Si Si3 0.591902 0.100350 0.704931
Si Si4 0.130795 0.428114 0.144379
Si Si5 0.780491 0.118078 0.900756
Si Si6 0.196913 0.483155 0.688337
Si Si7 0.440080 0.598485 0.322574
Si Si8 0.953055 0.554659 0.553711
O O1 0.821146 0.110173 0.002835
O O2 0.937014 0.261402 0.172029
O O3 0.605531 0.870011 0.259164
O O4 0.049835 0.776965 0.883563
O O5 0.564660 0.230811 0.632270
O O6 0.284088 0.398885 0.724075
O O7 0.586558 0.764932 0.645601
O O8 0.265847 0.614268 0.997160
O O9 0.827244 0.260319 0.607305
O O10 0.346134 0.219326 0.968158
O O11 0.760684 0.801313 0.785502
O O12 0.030057 0.554426 0.366474
O O13 0.568685 0.335590 0.095544
O O14 0.017344 0.255630 0.713651
O O15 0.409358 0.523879 0.456695
O O16 0.180970 0.629641 0.475215
#
# Coordination Sequence:
#
# PCOD9000293 Si02
#       8
#     1   1   1   1   1   1   1   1
#     4  11  23  48  77 112 153 200 270 326 380 474
#     4  10  22  49  77 114 154 201 262 335 379 470
#     4  10  25  47  74 113 161 201 263 322 392 476
#     4  10  25  47  79 114 156 204 263 328 396 465
#     4  11  26  49  74 110 157 202 267 320 388 480
#     4  11  22  47  77 111 151 203 262 328 390 459
#     4  11  29  44  81 112 154 209 264 320 399 471
#     4  12  28  51  75 118 158 216 251 325 406 475
#
# _framework density 25.214020000000001
#
# number of rings (size 3 to 8) (size 9 to 14) (size 15 to 20)
#    0.750    0.500    3.750    0.000    5.250    3.000 
#    4.500    0.000    0.000    0.000    0.000    0.000 
#    0.000    0.000    0.000    0.000    0.000    0.000 
#
# Total GULP energy -44769.661097 kJ/mol
# GULP energy per Si atom -5596.207637 kJ/mol
# Density = 2.515663 g / cm^3
# Si number density = 25.214020 Si / 1000 Ang^3
#
#
#
# Elastic Constant Matrix: (Units=GPa)
#
#
# Indices 1 2 3 4 5 6 
#
# 1 132.9648 26.5196 48.5644 -3.4502 10.2860 -5.4727
# 2 26.5196 117.2580 46.2468 -17.3975 -0.0107 -0.4254
# 3 48.5644 46.2468 106.8183 -25.5423 -5.6701 13.9082
# 4 -3.4502 -17.3975 -25.5423 49.1669 -3.1670 -3.3179
# 5 10.2860 -0.0107 -5.6701 -3.1670 42.3136 1.3916
# 6 -5.4727 -0.4254 13.9082 -3.3179 1.3916 31.7409
#
#
#
# Elastic Compliance Matrix: (Units=1/GPa)
#
#
# Indices 1 2 3 4 5 6 
#
# 1 0.010056 -0.000357 -0.005700 -0.002329 -0.003519 0.004137
# 2 -0.000357 0.010562 -0.004339 0.001575 -0.000445 0.002166
# 3 -0.005700 -0.004339 0.016627 0.006454 0.004353 -0.007843
# 4 -0.002329 0.001575 0.006454 0.024241 0.003273 -0.000818
# 5 -0.003519 -0.000445 0.004353 0.003273 0.025425 -0.003293
# 6 0.004137 0.002166 -0.007843 -0.000818 -0.003293 0.035743
#
#
# Mechanical properties :
#
#
# Convention : Reuss Voigt Hill
#
# Bulk Modulus (GPa) = 60.78012 66.63363 63.70688
# Shear Modulus (GPa) = 33.57279 40.35829 36.96554
#
# Velocity S-wave (km/s) = 3.65295 4.00513 3.83308
# Velocity P-wave (km/s) = 6.47689 6.91901 6.70159
#
# Compressibility (1/GPa) = 0.01645275
#
# Stress axis : x y z
#
# Youngs Moduli (GPa) = 99.44500 94.67931 60.14291
#
# Poissons Ratio (x) = 0.03382 0.34279
# Poissons Ratio (y) = 0.03552 0.26097
# Poissons Ratio (z) = 0.56679 0.41084
#
# Static dielectric constant tensor:
#      x y z
#    x 1.977230 -0.022360 -0.024270 
#    y -0.022360 1.985850 0.007770 
#    z -0.024270 0.007770 1.967440 
# 
# From -- ./inp_files/6268.got.cif
#   From: 2010.05.17/outbox.cif.g08.bks.cpg/sg1_4_cif.got.tgz:6268.got - 2010.05.17 20:27:59.
