data_PCOD9000893
_publ_section_title
;
Structure prediction by ZEFSAII (Michael W. Deem and Ramdas Pophale) SiO2 
 PCOD9000893
Probable space group: P 1
;
_chemical_formula_sum "Si O2"
_cell_formula_units_Z 8
_cell_length_a 8.098362
_cell_length_b 9.547168
_cell_length_c 9.609330
_cell_angle_alpha 146.225918
_cell_angle_beta 86.740616
_cell_angle_gamma 110.105402
_cell_volume 348.591872
_symmetry_space_group_name_H-M "P 1"
_symmetry_group_IT_number 1
_symmetry_cell_setting 'triclinic'
loop_
_space_group_symop_operation_xyz
x,y,z
loop_
_atom_site_type_symbol
_atom_site_label
_atom_site_fract_x
_atom_site_fract_y
_atom_site_fract_z
Si Si1 0.071680 0.681020 0.191010
Si Si2 0.428439 0.120818 0.690835
Si Si3 0.286533 0.620244 0.528421
Si Si4 0.853283 0.823237 0.494018
Si Si5 0.666418 0.758915 0.729646
Si Si6 0.228441 0.302707 0.008373
Si Si7 0.822065 0.254054 0.643630
Si Si8 0.848731 0.342816 0.400489
O O1 0.251448 0.008701 0.493074
O O2 0.878439 0.582322 0.212588
O O3 0.161469 0.501423 0.100872
O O4 0.994951 0.583388 0.958955
O O5 0.376248 0.888815 0.630765
O O6 0.618162 0.197179 0.662434
O O7 0.429013 0.381729 0.991658
O O8 0.438946 0.653359 0.664632
O O9 0.081734 0.555886 0.541895
O O10 0.241317 0.343496 0.204361
O O11 0.862383 0.033974 0.546008
O O12 0.048710 0.979206 0.708875
O O13 0.696042 0.778948 0.576764
O O14 0.739727 0.530243 0.567407
O O15 0.775425 0.075906 0.068556
O O16 0.816983 0.204026 0.440206
#
# Coordination Sequence:
#
# PCOD9000893 Si02
#       8
#     1   1   1   1   1   1   1   1
#     4   9  21  37  64 100 133 176 229 295 353 409
#     4  10  21  39  68 102 133 176 245 292 341 429
#     4  11  24  42  74 101 142 194 236 298 360 424
#     4  10  20  41  71  98 134 181 244 287 344 427
#     4  12  27  47  76 105 146 195 243 291 360 440
#     4   9  18  37  63 102 129 168 235 300 334 406
#     4  11  25  43  68  99 142 185 227 296 365 415
#     4  12  30  50  68 111 155 185 237 303 367 428
#
# _framework density 22.949475
#
# number of rings (size 3 to 8) (size 9 to 14) (size 15 to 20)
#    0.000    1.500    2.500    2.250    7.000    1.000 
#    6.750    0.000    0.000    0.000    0.000    0.000 
#    0.000    0.000    0.000    0.000    0.000    0.000 
#
# Total GULP energy -44563.246460 kJ/mol
# GULP energy per Si atom -5570.405807 kJ/mol
# Density = 2.289724 g / cm^3
# Si number density = 22.949475 Si / 1000 Ang^3
#
#
#
# Elastic Constant Matrix: (Units=GPa)
#
#
# Indices 1 2 3 4 5 6 
#
# 1 168.8466 35.6709 40.0797 -5.5792 -4.7153 1.6718
# 2 35.6709 86.3390 14.1578 -16.4446 -4.6025 -4.3261
# 3 40.0797 14.1578 68.1967 -12.9498 -6.0356 -4.5567
# 4 -5.5792 -16.4446 -12.9498 16.4454 1.2036 -3.4817
# 5 -4.7153 -4.6025 -6.0356 1.2036 37.1542 -0.6774
# 6 1.6718 -4.3261 -4.5567 -3.4817 -0.6774 24.0056
#
#
#
# Elastic Compliance Matrix: (Units=1/GPa)
#
#
# Indices 1 2 3 4 5 6 
#
# 1 0.007720 -0.003574 -0.005061 -0.005553 -0.000159 -0.002952
# 2 -0.003574 0.016606 0.002816 0.018884 0.001569 0.006559
# 3 -0.005061 0.002816 0.021523 0.019511 0.002714 0.007852
# 4 -0.005553 0.018884 0.019511 0.097617 0.002038 0.021709
# 5 -0.000159 0.001569 0.002714 0.002038 0.027498 0.001880
# 6 -0.002952 0.006559 0.007852 0.021709 0.001880 0.047737
#
#
# Mechanical properties :
#
#
# Convention : Reuss Voigt Hill
#
# Bulk Modulus (GPa) = 29.23020 55.91102 42.57061
# Shear Modulus (GPa) = 20.68311 31.08597 25.88454
#
# Velocity S-wave (km/s) = 3.00533 3.68440 3.36205
# Velocity P-wave (km/s) = 4.98067 6.52037 5.80183
#
# Compressibility (1/GPa) = 0.03421119
#
# Stress axis : x y z
#
# Youngs Moduli (GPa) = 129.52996 60.21896 46.46187
#
# Poissons Ratio (x) = 0.21521 0.23515
# Poissons Ratio (y) = 0.46291 -0.13083
# Poissons Ratio (z) = 0.65557 -0.16957
#
# Static dielectric constant tensor:
#      x y z
#    x 1.995100 0.049590 -0.012830 
#    y 0.049590 1.854940 0.075200 
#    z -0.012830 0.075200 2.096610 
# 
# From -- ./inp_files/2456.got.cif
#   From: 2010.05.17/outbox.cif.g08.bks.cpg/sg1_2_cif.got.tgz:2456.got - 2010.05.17 20:27:59.
