data_PCOD9000941
_publ_section_title
;
Structure prediction by ZEFSAII (Michael W. Deem and Ramdas Pophale) SiO2 
 PCOD9000941
Probable space group: P 1
;
_chemical_formula_sum "Si O2"
_cell_formula_units_Z 8
_cell_length_a 5.735871
_cell_length_b 15.287670
_cell_length_c 5.081684
_cell_angle_alpha 89.413575
_cell_angle_beta 93.708966
_cell_angle_gamma 48.334173
_cell_volume 331.335707
_symmetry_space_group_name_H-M "P 1"
_symmetry_group_IT_number 1
_symmetry_cell_setting 'triclinic'
loop_
_space_group_symop_operation_xyz
x,y,z
loop_
_atom_site_type_symbol
_atom_site_label
_atom_site_fract_x
_atom_site_fract_y
_atom_site_fract_z
Si Si1 0.743050 0.011840 0.278710
Si Si2 0.181217 0.564295 0.185675
Si Si3 0.857123 0.392045 0.330288
Si Si4 0.680235 0.839167 0.190578
Si Si5 0.132287 0.167126 0.575804
Si Si6 0.149506 0.454194 0.703546
Si Si7 0.262671 0.941006 0.674228
Si Si8 0.433565 0.233187 0.989376
O O1 0.398130 0.093661 0.374417
O O2 0.773861 0.915390 0.120826
O O3 0.735968 0.108546 0.133968
O O4 0.995090 0.947713 0.530828
O O5 0.544191 0.493179 0.150597
O O6 0.192554 0.509770 0.464375
O O7 0.970059 0.701989 0.195506
O O8 0.052915 0.534339 0.946800
O O9 0.852959 0.291346 0.419864
O O10 0.898942 0.445790 0.579717
O O11 0.178481 0.320721 0.191761
O O12 0.534436 0.875007 0.472219
O O13 0.413010 0.877779 0.962913
O O14 0.277053 0.196441 0.801291
O O15 0.103961 0.076618 0.680046
O O16 0.445357 0.319271 0.818967
#
# Coordination Sequence:
#
# PCOD9000941 Si02
#       8
#     1   1   1   1   1   1   1   1
#     4  10  23  43  69 102 133 179 216 288 345 389
#     4  12  27  45  72  96 142 187 224 275 341 399
#     4  10  24  44  67 106 137 180 219 284 341 400
#     4  11  26  47  65 102 135 174 238 274 316 417
#     4   9  21  39  66 102 141 159 226 279 336 415
#     4  11  25  45  65 105 136 176 231 274 332 413
#     4  11  24  44  71  99 131 180 222 279 345 387
#     4  10  20  45  69 102 147 163 226 291 332 414
#
# _framework density 24.144696
#
# number of rings (size 3 to 8) (size 9 to 14) (size 15 to 20)
#    0.000    1.500    2.500    0.750    7.000    2.000 
#    0.000    0.000    0.000    0.000    0.000    0.000 
#    0.000    0.000    0.000    0.000    0.000    0.000 
#
# Total GULP energy -44751.138207 kJ/mol
# GULP energy per Si atom -5593.892276 kJ/mol
# Density = 2.408974 g / cm^3
# Si number density = 24.144696 Si / 1000 Ang^3
#
#
#
# Elastic Constant Matrix: (Units=GPa)
#
#
# Indices 1 2 3 4 5 6 
#
# 1 47.6044 45.7571 14.4340 -6.0430 -6.4170 1.9583
# 2 45.7571 178.4438 54.7293 3.4915 15.0225 -4.1909
# 3 14.4340 54.7293 111.0566 0.7525 -6.7676 9.8290
# 4 -6.0430 3.4915 0.7525 35.5257 -1.5888 9.9668
# 5 -6.4170 15.0225 -6.7676 -1.5888 40.6628 2.0831
# 6 1.9583 -4.1909 9.8290 9.9668 2.0831 16.9133
#
#
#
# Elastic Compliance Matrix: (Units=1/GPa)
#
#
# Indices 1 2 3 4 5 6 
#
# 1 0.035188 -0.011742 0.003433 0.012612 0.011871 -0.017873
# 2 -0.011742 0.011446 -0.005658 -0.006866 -0.007932 0.012507
# 3 0.003433 -0.005658 0.012777 0.004673 0.005590 -0.012667
# 4 0.012612 -0.006866 0.004673 0.039759 0.008413 -0.030343
# 5 0.011871 -0.007932 0.005590 0.008413 0.031445 -0.015419
# 6 -0.017873 0.012507 -0.012667 -0.030343 -0.015419 0.091435
#
#
# Mechanical properties :
#
#
# Convention : Reuss Voigt Hill
#
# Bulk Modulus (GPa) = 31.77003 62.99395 47.38199
# Shear Modulus (GPa) = 19.19555 33.43266 26.31410
#
# Velocity S-wave (km/s) = 2.82267 3.72516 3.30487
# Velocity P-wave (km/s) = 4.87955 6.68201 5.85061
#
# Compressibility (1/GPa) = 0.03147621
#
# Stress axis : x y z
#
# Youngs Moduli (GPa) = 28.41872 87.36524 78.26638
#
# Poissons Ratio (x) = 1.02582 -0.26867
# Poissons Ratio (y) = 0.33368 0.44287
# Poissons Ratio (z) = -0.09755 0.49435
#
# Static dielectric constant tensor:
#      x y z
#    x 1.971450 0.010390 -0.058640 
#    y 0.010390 1.889010 -0.023910 
#    z -0.058640 -0.023910 1.975410 
# 
# From -- ./inp_files/428.got.cif
#   From: 2010.05.17/outbox.cif.g08.bks.cpg/sg1_1_cif.got.tgz:428.got - 2010.05.17 20:27:59.
