data_PCOD9000973
_publ_section_title
;
Structure prediction by ZEFSAII (Michael W. Deem and Ramdas Pophale) SiO2 
 PCOD9000973
Probable space group: P 1
;
_chemical_formula_sum "Si O2"
_cell_formula_units_Z 8
_cell_length_a 12.443439
_cell_length_b 5.096257
_cell_length_c 15.426291
_cell_angle_alpha 84.114906
_cell_angle_beta 26.614913
_cell_angle_gamma 71.330039
_cell_volume 374.301542
_symmetry_space_group_name_H-M "P 1"
_symmetry_group_IT_number 1
_symmetry_cell_setting 'triclinic'
loop_
_space_group_symop_operation_xyz
x,y,z
loop_
_atom_site_type_symbol
_atom_site_label
_atom_site_fract_x
_atom_site_fract_y
_atom_site_fract_z
Si Si1 0.537080 0.262380 0.051900
Si Si2 0.344248 0.346035 0.900487
Si Si3 0.393809 0.815702 0.239071
Si Si4 0.823651 0.722811 0.388965
Si Si5 0.966412 0.682782 0.835237
Si Si6 0.918878 0.769682 0.675425
Si Si7 0.444269 0.441101 0.637155
Si Si8 0.707474 0.634310 0.663156
O O1 0.421600 0.612706 0.141502
O O2 0.340380 0.141317 0.234721
O O3 0.818972 0.053166 0.914318
O O4 0.649307 0.099107 0.884794
O O5 0.279235 0.467595 0.844204
O O6 0.603249 0.395240 0.734504
O O7 0.444203 0.986983 0.839550
O O8 0.093165 0.536122 0.141164
O O9 0.166887 0.816958 0.463599
O O10 0.704476 0.662301 0.060780
O O11 0.586210 0.646749 0.534591
O O12 0.876656 0.627643 0.455351
O O13 0.691997 0.086992 0.464857
O O14 0.006335 0.580600 0.708848
O O15 0.234872 0.535210 0.704837
O O16 0.841081 0.618104 0.660111
#
# Coordination Sequence:
#
# PCOD9000973 Si02
#       8
#     1   1   1   1   1   1   1   1
#     4   8  21  34  52  79 113 145 181 220 262 329
#     4  10  22  41  59  81 111 147 187 236 281 314
#     4   9  19  37  52  79 115 148 182 216 270 333
#     4  10  22  38  61  82 107 150 189 229 280 326
#     4   8  22  37  55  85 118 143 183 229 271 335
#     4   9  21  38  57  85 114 151 179 227 281 330
#     4  10  21  39  57  85 113 142 190 231 270 334
#     4  10  22  38  59  84 113 142 189 234 271 333
#
# _framework density 21.373139999999999
#
# number of rings (size 3 to 8) (size 9 to 14) (size 15 to 20)
#    1.500    1.000    0.000    0.750    1.750    9.000 
#    2.250    0.000    0.000    0.000    0.000    0.000 
#    0.000    0.000    0.000    0.000    0.000    0.000 
#
# Total GULP energy -44602.280020 kJ/mol
# GULP energy per Si atom -5575.285002 kJ/mol
# Density = 2.132449 g / cm^3
# Si number density = 21.373140 Si / 1000 Ang^3
#
#
#
# Elastic Constant Matrix: (Units=GPa)
#
#
# Indices 1 2 3 4 5 6 
#
# 1 118.7466 -0.8465 17.1389 -8.5334 6.3846 -14.4659
# 2 -0.8465 51.6308 -13.4730 3.4256 0.8886 7.6865
# 3 17.1389 -13.4730 100.4520 -1.2487 29.0368 -4.9055
# 4 -8.5334 3.4256 -1.2487 28.0753 11.0969 2.4183
# 5 6.3846 0.8886 29.0368 11.0969 31.8158 -0.8899
# 6 -14.4659 7.6865 -4.9055 2.4183 -0.8899 27.0311
#
#
#
# Elastic Compliance Matrix: (Units=1/GPa)
#
#
# Indices 1 2 3 4 5 6 
#
# 1 0.009484 -0.000973 -0.000849 0.003399 -0.002152 0.004823
# 2 -0.000973 0.021353 0.003835 -0.000707 -0.003821 -0.005959
# 3 -0.000849 0.003835 0.015376 0.006339 -0.016177 0.000146
# 4 0.003399 -0.000707 0.006339 0.046087 -0.022570 -0.001696
# 5 -0.002152 -0.003821 -0.016177 -0.022570 0.054629 0.000817
# 6 0.004823 -0.005959 0.000146 -0.001696 0.000817 0.041475
#
#
# Mechanical properties :
#
#
# Convention : Reuss Voigt Hill
#
# Bulk Modulus (GPa) = 19.90453 30.71870 25.31161
# Shear Modulus (GPa) = 24.86028 35.25175 30.05601
#
# Velocity S-wave (km/s) = 3.41421 4.06562 3.75407
# Velocity P-wave (km/s) = 4.98753 6.03679 5.53707
#
# Compressibility (1/GPa) = 0.05023982
#
# Stress axis : x y z
#
# Youngs Moduli (GPa) = 105.43633 46.83240 65.03549
#
# Poissons Ratio (x) = 0.04555 0.05520
# Poissons Ratio (y) = 0.10254 -0.24938
# Poissons Ratio (z) = 0.08949 -0.17958
#
# Static dielectric constant tensor:
#      x y z
#    x 1.768490 -0.008830 0.001660 
#    y -0.008830 1.776570 0.017480 
#    z 0.001660 0.017480 1.799010 
# 
# From -- ./inp_files/7207.got.cif
#   From: 2010.05.17/outbox.cif.g08.bks.cpg/sg1_4_cif.got.tgz:7207.got - 2010.05.17 20:27:59.
