data_PCOD9000967
_publ_section_title
;
Structure prediction by ZEFSAII (Michael W. Deem and Ramdas Pophale) SiO2 
 PCOD9000967
Probable space group: P 1
;
_chemical_formula_sum "Si O2"
_cell_formula_units_Z 8
_cell_length_a 11.556776
_cell_length_b 12.054480
_cell_length_c 5.987062
_cell_angle_alpha 85.858107
_cell_angle_beta 96.793989
_cell_angle_gamma 154.697598
_cell_volume 352.785039
_symmetry_space_group_name_H-M "P 1"
_symmetry_group_IT_number 1
_symmetry_cell_setting 'triclinic'
loop_
_space_group_symop_operation_xyz
x,y,z
loop_
_atom_site_type_symbol
_atom_site_label
_atom_site_fract_x
_atom_site_fract_y
_atom_site_fract_z
Si Si1 0.950480 0.600900 0.917230
Si Si2 0.215109 0.495707 0.743084
Si Si3 0.854675 0.285270 0.032329
Si Si4 0.473341 0.568212 0.486879
Si Si5 0.869641 0.097449 0.376403
Si Si6 0.262132 0.977315 0.306661
Si Si7 0.370140 0.863005 0.626729
Si Si8 0.696738 0.514804 0.509927
O O1 0.879004 0.435235 0.086607
O O2 0.713903 0.462027 0.755456
O O3 0.117099 0.685197 0.745908
O O4 0.142075 0.851892 0.053466
O O5 0.431747 0.586638 0.723829
O O6 0.302451 0.676574 0.582705
O O7 0.138000 0.482094 0.962743
O O8 0.939673 0.202828 0.625298
O O9 0.630124 0.095256 0.813331
O O10 0.776173 0.124337 0.215167
O O11 0.589209 0.545579 0.519552
O O12 0.172143 0.315631 0.346962
O O13 0.668969 0.821865 0.367584
O O14 0.386699 0.967154 0.420260
O O15 0.997602 0.777109 0.429396
O O16 0.488585 0.266896 0.342766
#
# Coordination Sequence:
#
# PCOD9000967 Si02
#       8
#     1   1   1   1   1   1   1   1
#     4  10  24  41  67 103 126 180 216 283 335 398
#     4   9  22  39  62  99 126 179 208 272 333 384
#     4  11  21  39  67 101 136 167 223 276 337 407
#     4  10  23  46  65  93 136 180 214 278 323 394
#     4  10  23  40  65  94 134 174 217 264 339 388
#     4  11  24  42  69 100 130 175 221 276 339 384
#     4  10  21  38  65  97 142 159 219 277 339 397
#     4  11  24  47  68  95 136 174 230 270 325 398
#
# _framework density 22.676697999999998
#
# number of rings (size 3 to 8) (size 9 to 14) (size 15 to 20)
#    0.750    1.000    1.250    2.250    5.250    1.000 
#    2.250    2.500    0.000    0.000    0.000    0.000 
#    0.000    0.000    0.000    0.000    0.000    0.000 
#
# Total GULP energy -44658.687001 kJ/mol
# GULP energy per Si atom -5582.335875 kJ/mol
# Density = 2.262509 g / cm^3
# Si number density = 22.676698 Si / 1000 Ang^3
#
#
#
# Elastic Constant Matrix: (Units=GPa)
#
#
# Indices 1 2 3 4 5 6 
#
# 1 168.3416 46.6068 27.2928 1.0316 9.2689 -21.4110
# 2 46.6068 119.3444 10.0729 8.3051 7.2636 -7.4785
# 3 27.2928 10.0729 38.8763 12.4258 8.0392 -9.3518
# 4 1.0316 8.3051 12.4258 31.2620 0.8970 0.3616
# 5 9.2689 7.2636 8.0392 0.8970 18.4866 6.1824
# 6 -21.4110 -7.4785 -9.3518 0.3616 6.1824 32.6500
#
#
#
# Elastic Compliance Matrix: (Units=1/GPa)
#
#
# Indices 1 2 3 4 5 6 
#
# 1 0.007923 -0.002486 -0.004083 0.002052 -0.002635 0.003933
# 2 -0.002486 0.009769 0.001304 -0.002948 -0.003582 0.001692
# 3 -0.004083 0.001304 0.040594 -0.015932 -0.019747 0.013164
# 4 0.002052 -0.002948 -0.015932 0.038899 0.007064 -0.005662
# 5 -0.002635 -0.003582 -0.019747 0.007064 0.072423 -0.021997
# 6 0.003933 0.001692 0.013164 -0.005662 -0.021997 0.041593
#
#
# Mechanical properties :
#
#
# Convention : Reuss Voigt Hill
#
# Bulk Modulus (GPa) = 20.93969 54.94526 37.94247
# Shear Modulus (GPa) = 21.03945 32.65237 26.84591
#
# Velocity S-wave (km/s) = 3.04929 3.79873 3.44445
# Velocity P-wave (km/s) = 4.65313 6.59719 5.70852
#
# Compressibility (1/GPa) = 0.04775621
#
# Stress axis : x y z
#
# Youngs Moduli (GPa) = 126.21135 102.36551 24.63434
#
# Poissons Ratio (x) = 0.25443 0.10059
# Poissons Ratio (y) = 0.31370 -0.03212
# Poissons Ratio (z) = 0.51534 -0.13347
#
# Static dielectric constant tensor:
#      x y z
#    x 1.829510 0.037340 -0.017290 
#    y 0.037340 1.900040 -0.043650 
#    z -0.017290 -0.043650 1.883680 
# 
# From -- ./inp_files/666.got.cif
#   From: 2010.05.17/outbox.cif.g08.bks.cpg/sg1_1_cif.got.tgz:666.got - 2010.05.17 20:27:59.
