data_PCOD9000138
_publ_section_title
;
Structure prediction by ZEFSAII (Michael W. Deem and Ramdas Pophale) SiO2 
 PCOD9000138
Probable space group: P 1
;
_chemical_formula_sum "Si O2"
_cell_formula_units_Z 8
_cell_length_a 12.119641
_cell_length_b 15.883942
_cell_length_c 5.316665
_cell_angle_alpha 125.605125
_cell_angle_beta 119.821122
_cell_angle_gamma 25.725966
_cell_volume 360.137086
_symmetry_space_group_name_H-M "P 1"
_symmetry_group_IT_number 1
_symmetry_cell_setting 'triclinic'
loop_
_space_group_symop_operation_xyz
x,y,z
loop_
_atom_site_type_symbol
_atom_site_label
_atom_site_fract_x
_atom_site_fract_y
_atom_site_fract_z
Si Si1 0.104830 0.526240 0.659410
Si Si2 0.765915 0.942029 0.842240
Si Si3 0.363179 0.941771 0.912778
Si Si4 0.537585 0.283565 0.431755
Si Si5 0.330618 0.092806 0.640314
Si Si6 0.728685 0.494503 0.674605
Si Si7 0.995822 0.634831 0.228523
Si Si8 0.760202 0.344626 0.948222
O O1 0.403002 0.317110 0.572946
O O2 0.967264 0.582824 0.352557
O O3 0.995237 0.722152 0.869212
O O4 0.994465 0.567075 0.863721
O O5 0.494954 0.080554 0.840840
O O6 0.827746 0.854882 0.480330
O O7 0.741007 0.075556 0.140009
O O8 0.411000 0.960287 0.728673
O O9 0.542812 0.719387 0.791289
O O10 0.392907 0.003508 0.279950
O O11 0.066561 0.118731 0.887536
O O12 0.287483 0.469872 0.294677
O O13 0.637697 0.320506 0.709424
O O14 0.026629 0.316077 0.699073
O O15 0.678443 0.479983 0.866171
O O16 0.696669 0.433658 0.306470
#
# Coordination Sequence:
#
# PCOD9000138 Si02
#       8
#     1   1   1   1   1   1   1   1
#     4   8  20  36  52  81 117 153 199 231 278 359
#     4   9  21  38  60  88 125 158 192 244 302 357
#     4  10  22  41  63  86 120 157 201 256 304 341
#     4   9  21  38  60  88 125 158 192 244 302 357
#     4  10  22  39  61  93 118 154 208 245 293 374
#     4  10  22  41  63  86 120 157 201 256 304 341
#     4   8  20  36  52  81 117 153 199 231 278 359
#     4  10  22  39  61  93 118 154 208 245 293 374
#
# _framework density 22.213764999999999
#
# number of rings (size 3 to 8) (size 9 to 14) (size 15 to 20)
#    1.500    1.000    0.000    0.750    3.500    5.000 
#    0.000    0.000    0.000    0.000    0.000    0.000 
#    0.000    0.000    0.000    0.000    0.000    0.000 
#
# Total GULP energy -44562.220234 kJ/mol
# GULP energy per Si atom -5570.277529 kJ/mol
# Density = 2.216320 g / cm^3
# Si number density = 22.213765 Si / 1000 Ang^3
#
#
#
# Elastic Constant Matrix: (Units=GPa)
#
#
# Indices 1 2 3 4 5 6 
#
# 1 27.0998 18.0155 31.8811 -8.6456 -8.2804 6.7556
# 2 18.0155 97.1987 28.3846 0.5417 6.4669 13.3384
# 3 31.8811 28.3846 99.9625 -7.0343 -12.2920 8.2807
# 4 -8.6456 0.5417 -7.0343 32.3990 6.6876 -0.3069
# 5 -8.2804 6.4669 -12.2920 6.6876 42.9638 -11.8042
# 6 6.7556 13.3384 8.2807 -0.3069 -11.8042 22.3773
#
#
#
# Elastic Compliance Matrix: (Units=1/GPa)
#
#
# Indices 1 2 3 4 5 6 
#
# 1 0.071366 -0.007267 -0.018443 0.013983 0.005372 -0.007364
# 2 -0.007267 0.013730 -0.001716 -0.001362 -0.006108 -0.008596
# 3 -0.018443 -0.001716 0.016374 -0.001757 0.002107 0.001619
# 4 0.013983 -0.001362 -0.001757 0.035085 -0.004315 -0.004555
# 5 0.005372 -0.006108 0.002107 -0.004315 0.031376 0.017731
# 6 -0.007364 -0.008596 0.001619 -0.004555 0.017731 0.060727
#
#
# Mechanical properties :
#
#
# Convention : Reuss Voigt Hill
#
# Bulk Modulus (GPa) = 21.45035 42.31370 31.88203
# Shear Modulus (GPa) = 16.71971 29.28001 22.99986
#
# Velocity S-wave (km/s) = 2.74647 3.63451 3.22123
# Velocity P-wave (km/s) = 4.44238 6.05827 5.31212
#
# Compressibility (1/GPa) = 0.04661928
#
# Stress axis : x y z
#
# Youngs Moduli (GPa) = 14.01229 72.83526 61.07131
#
# Poissons Ratio (x) = 0.52926 1.12633
# Poissons Ratio (y) = 0.10182 0.10479
# Poissons Ratio (z) = 0.25843 0.12498
#
# Static dielectric constant tensor:
#      x y z
#    x 1.842860 0.053740 -0.101300 
#    y 0.053740 1.889050 -0.041920 
#    z -0.101300 -0.041920 1.887490 
# 
# From -- ./inp_files/2516.got.cif
#   From: 2010.05.17/outbox.cif.g08.bks.cpg/sg1_2_cif.got.tgz:2516.got - 2010.05.17 20:27:59.
