data_PCOD9000075
_publ_section_title
;
Structure prediction by ZEFSAII (Michael W. Deem and Ramdas Pophale) SiO2 
 PCOD9000075
Probable space group: P 1
;
_chemical_formula_sum "Si O2"
_cell_formula_units_Z 8
_cell_length_a 7.734314
_cell_length_b 9.232720
_cell_length_c 7.483602
_cell_angle_alpha 69.038825
_cell_angle_beta 60.576077
_cell_angle_gamma 65.663266
_cell_volume 415.903289
_symmetry_space_group_name_H-M "P 1"
_symmetry_group_IT_number 1
_symmetry_cell_setting 'triclinic'
loop_
_space_group_symop_operation_xyz
x,y,z
loop_
_atom_site_type_symbol
_atom_site_label
_atom_site_fract_x
_atom_site_fract_y
_atom_site_fract_z
Si Si1 0.097410 0.662970 0.265820
Si Si2 0.173367 0.176117 0.129301
Si Si3 0.510038 0.400063 0.291170
Si Si4 0.598316 0.163286 0.040278
Si Si5 0.958655 0.845194 0.923930
Si Si6 0.874098 0.528653 0.167409
Si Si7 0.938984 0.939085 0.506920
Si Si8 0.499034 0.155030 0.707077
O O1 0.308574 0.529568 0.261082
O O2 0.929782 0.576402 0.316631
O O3 0.016458 0.779361 0.420630
O O4 0.117540 0.772727 0.034842
O O5 0.365099 0.147248 0.184739
O O6 0.054325 0.366545 0.095064
O O7 0.295059 0.119335 0.906426
O O8 0.018535 0.078109 0.311967
O O9 0.626520 0.287561 0.118234
O O10 0.661083 0.488857 0.267407
O O11 0.452142 0.283836 0.517392
O O12 0.587751 0.221031 0.812703
O O13 0.772358 0.991428 0.033928
O O14 0.026408 0.907208 0.678084
O O15 0.878848 0.689210 0.985498
O O16 0.689317 0.003102 0.619888
#
# Coordination Sequence:
#
# PCOD9000075 Si02
#       8
#     1   1   1   1   1   1   1   1
#     4  10  24  39  63  99 132 168 217 267 314 399
#     4  10  21  43  65  95 129 163 225 264 305 402
#     4  12  21  41  70  91 134 178 203 273 331 366
#     4   9  20  41  65  91 135 160 220 268 311 390
#     4   9  22  43  60  95 136 160 215 276 308 393
#     4  10  23  42  63  96 134 163 223 263 312 395
#     4  11  21  42  71  88 134 177 202 274 338 356
#     4   9  22  39  65  99 126 163 227 263 307 403
#
# _framework density 19.235244000000002
#
# number of rings (size 3 to 8) (size 9 to 14) (size 15 to 20)
#    1.500    0.500    2.500    0.750    3.500    0.000 
#    4.500    0.000    5.500    0.000    0.000    0.000 
#    0.000    0.000    0.000    0.000    0.000    0.000 
#
# Total GULP energy -44533.969542 kJ/mol
# GULP energy per Si atom -5566.746193 kJ/mol
# Density = 1.919146 g / cm^3
# Si number density = 19.235244 Si / 1000 Ang^3
#
#
#
# Elastic Constant Matrix: (Units=GPa)
#
#
# Indices 1 2 3 4 5 6 
#
# 1 70.3655 39.8799 15.0147 -0.2855 16.7506 -10.2006
# 2 39.8799 133.1776 50.9281 6.1418 14.3255 -6.7678
# 3 15.0147 50.9281 81.4006 6.0390 16.4809 -14.0524
# 4 -0.2855 6.1418 6.0390 15.7946 -0.8393 12.5024
# 5 16.7506 14.3255 16.4809 -0.8393 19.7090 -13.5798
# 6 -10.2006 -6.7678 -14.0524 12.5024 -13.5798 29.9322
#
#
#
# Elastic Compliance Matrix: (Units=1/GPa)
#
#
# Indices 1 2 3 4 5 6 
#
# 1 0.020515 -0.005542 0.002713 0.001366 -0.016263 -0.000937
# 2 -0.005542 0.011571 -0.006611 -0.000492 0.000454 -0.001965
# 3 0.002713 -0.006611 0.020604 -0.015527 -0.006765 0.012519
# 4 0.001366 -0.000492 -0.015527 0.127914 -0.034862 -0.076180
# 5 -0.016263 0.000454 -0.006765 -0.034862 0.105469 0.053795
# 6 -0.000937 -0.001965 0.012519 -0.076180 0.053795 0.094748
#
#
# Mechanical properties :
#
#
# Convention : Reuss Voigt Hill
#
# Bulk Modulus (GPa) = 29.57878 55.17658 42.37768
# Shear Modulus (GPa) = 12.16635 25.02854 18.59744
#
# Velocity S-wave (km/s) = 2.51769 3.61110 3.11278
# Velocity P-wave (km/s) = 4.88492 6.79221 5.91594
#
# Compressibility (1/GPa) = 0.03380802
#
# Stress axis : x y z
#
# Youngs Moduli (GPa) = 48.74572 86.42630 48.53504
#
# Poissons Ratio (x) = 0.47895 -0.13166
# Poissons Ratio (y) = 0.27013 0.32089
# Poissons Ratio (z) = -0.13224 0.57140
#
# Static dielectric constant tensor:
#      x y z
#    x 1.697370 0.007760 0.009720 
#    y 0.007760 1.664400 -0.006980 
#    z 0.009720 -0.006980 1.677420 
# 
# From -- ./inp_files/4113.got.cif
#   From: 2010.05.17/outbox.cif.g08.bks.cpg/sg1_3_cif.got.tgz:4113.got - 2010.05.17 20:27:59.
