data_PCOD9000662
_publ_section_title
;
Structure prediction by ZEFSAII (Michael W. Deem and Ramdas Pophale) SiO2 
 PCOD9000662
Probable space group: P 1
;
_chemical_formula_sum "Si O2"
_cell_formula_units_Z 8
_cell_length_a 5.048648
_cell_length_b 8.205043
_cell_length_c 11.903784
_cell_angle_alpha 46.927841
_cell_angle_beta 70.443126
_cell_angle_gamma 91.651242
_cell_volume 314.803165
_symmetry_space_group_name_H-M "P 1"
_symmetry_group_IT_number 1
_symmetry_cell_setting 'triclinic'
loop_
_space_group_symop_operation_xyz
x,y,z
loop_
_atom_site_type_symbol
_atom_site_label
_atom_site_fract_x
_atom_site_fract_y
_atom_site_fract_z
Si Si1 0.679440 0.727750 0.098510
Si Si2 0.655536 0.505638 0.868060
Si Si3 0.457344 0.986900 0.184184
Si Si4 0.663297 0.090293 0.729549
Si Si5 0.810475 0.628196 0.532096
Si Si6 0.169779 0.927938 0.684270
Si Si7 0.629876 0.026496 0.373333
Si Si8 0.169683 0.474085 0.137127
O O1 0.644666 0.844213 0.166343
O O2 0.945382 0.622685 0.109418
O O3 0.679122 0.928187 0.911351
O O4 0.361594 0.006200 0.735328
O O5 0.397778 0.544949 0.963890
O O6 0.506306 0.222212 0.991155
O O7 0.771925 0.630691 0.671765
O O8 0.958693 0.644538 0.833408
O O9 0.585447 0.133032 0.211780
O O10 0.125453 0.799242 0.350204
O O11 0.939105 0.063687 0.634888
O O12 0.729563 0.360133 0.629745
O O13 0.372567 0.518717 0.198987
O O14 0.583046 0.756806 0.468705
O O15 0.408556 0.004824 0.515102
O O16 0.960896 0.195645 0.285408
#
# Coordination Sequence:
#
# PCOD9000662 Si02
#       8
#     1   1   1   1   1   1   1   1
#     4  12  29  51  79 120 163 221 269 337 414 485
#     4  12  26  58  84 120 166 218 278 338 404 492
#     4  12  29  54  79 122 167 218 272 336 414 490
#     4  12  29  51  79 120 163 221 269 337 414 485
#     4  12  29  54  79 122 167 218 272 336 414 490
#     4  12  29  52  83 119 164 216 278 335 404 488
#     4  12  30  50  80 124 166 218 276 338 412 478
#     4  12  29  52  83 119 164 216 278 335 404 488
#
# _framework density 25.412707000000001
#
# number of rings (size 3 to 8) (size 9 to 14) (size 15 to 20)
#    0.000    0.000    5.000    2.250   10.500    0.000 
#    4.500    0.000    0.000    0.000    0.000    0.000 
#    0.000    0.000    0.000    0.000    0.000    0.000 
#
# Total GULP energy -44723.652600 kJ/mol
# GULP energy per Si atom -5590.456575 kJ/mol
# Density = 2.535487 g / cm^3
# Si number density = 25.412707 Si / 1000 Ang^3
#
#
#
# Elastic Constant Matrix: (Units=GPa)
#
#
# Indices 1 2 3 4 5 6 
#
# 1 116.8962 41.1118 28.6557 -2.1357 -22.7410 -0.6835
# 2 41.1118 144.2549 52.5763 -3.9983 -8.5924 -12.2305
# 3 28.6557 52.5763 142.3869 -1.4195 -13.1761 1.9254
# 4 -2.1357 -3.9983 -1.4195 46.1111 -4.4487 1.5664
# 5 -22.7410 -8.5924 -13.1761 -4.4487 32.7205 -6.6851
# 6 -0.6835 -12.2305 1.9254 1.5664 -6.6851 43.1496
#
#
#
# Elastic Compliance Matrix: (Units=1/GPa)
#
#
# Indices 1 2 3 4 5 6 
#
# 1 0.010928 -0.002380 -0.000677 0.000929 0.006940 0.000570
# 2 -0.002380 0.008881 -0.002817 0.000498 0.000144 0.002610
# 3 -0.000677 -0.002817 0.008401 0.000208 0.002022 -0.000878
# 4 0.000929 0.000498 0.000208 0.022154 0.003860 -0.000059
# 5 0.006940 0.000144 0.002022 0.003860 0.037947 0.005800
# 6 0.000570 0.002610 -0.000878 -0.000059 0.005800 0.024864
#
#
# Mechanical properties :
#
#
# Convention : Reuss Voigt Hill
#
# Bulk Modulus (GPa) = 60.74832 72.02508 66.38670
# Shear Modulus (GPa) = 38.34064 43.14251 40.74158
#
# Velocity S-wave (km/s) = 3.88844 4.12475 4.00834
# Velocity P-wave (km/s) = 6.64203 7.14762 6.89946
#
# Compressibility (1/GPa) = 0.01646136
#
# Stress axis : x y z
#
# Youngs Moduli (GPa) = 91.50714 112.59982 119.03969
#
# Poissons Ratio (x) = 0.26803 0.08054
# Poissons Ratio (y) = 0.21782 0.33536
# Poissons Ratio (z) = 0.06191 0.31722
#
# Static dielectric constant tensor:
#      x y z
#    x 2.066050 -0.008400 0.078340 
#    y -0.008400 1.981780 -0.008850 
#    z 0.078340 -0.008850 2.060000 
# 
# From -- ./inp_files/6983.got.cif
#   From: 2010.05.17/outbox.cif.g08.bks.cpg/sg1_4_cif.got.tgz:6983.got - 2010.05.17 20:27:59.
