data_PCOD9000841
_publ_section_title
;
Structure prediction by ZEFSAII (Michael W. Deem and Ramdas Pophale) SiO2 
 PCOD9000841
Probable space group: P 1
;
_chemical_formula_sum "Si O2"
_cell_formula_units_Z 8
_cell_length_a 6.707929
_cell_length_b 7.298999
_cell_length_c 10.415012
_cell_angle_alpha 135.805633
_cell_angle_beta 87.636109
_cell_angle_gamma 112.281129
_cell_volume 307.192270
_symmetry_space_group_name_H-M "P 1"
_symmetry_group_IT_number 1
_symmetry_cell_setting 'triclinic'
loop_
_space_group_symop_operation_xyz
x,y,z
loop_
_atom_site_type_symbol
_atom_site_label
_atom_site_fract_x
_atom_site_fract_y
_atom_site_fract_z
Si Si1 0.643280 0.126970 0.818530
Si Si2 0.580050 0.530637 0.487985
Si Si3 0.803076 0.197270 0.301469
Si Si4 0.980504 0.004722 0.421283
Si Si5 0.006488 0.547977 0.854641
Si Si6 0.303754 0.771160 0.213048
Si Si7 0.810113 0.874941 0.881592
Si Si8 0.475323 0.397204 0.157947
O O1 0.756659 0.408464 0.862279
O O2 0.543551 0.811772 0.589327
O O3 0.846065 0.113287 0.887460
O O4 0.482260 0.155909 0.940798
O O5 0.592145 0.584361 0.669762
O O6 0.435643 0.306356 0.262580
O O7 0.820862 0.525356 0.456924
O O8 0.985772 0.159969 0.361710
O O9 0.567948 0.025472 0.305210
O O10 0.768445 0.024328 0.082655
O O11 0.736612 0.691841 0.286566
O O12 0.174232 0.912432 0.364813
O O13 0.008772 0.261725 0.648165
O O14 0.994054 0.775868 0.867139
O O15 0.187068 0.672222 0.026981
O O16 0.311304 0.510817 0.163586
#
# Coordination Sequence:
#
# PCOD9000841 Si02
#       8
#     1   1   1   1   1   1   1   1
#     4  10  21  38  71  92 122 169 210 261 312 370
#     4  10  20  38  68  94 118 174 212 254 320 378
#     4  11  21  42  65  90 128 168 210 259 319 375
#     4  11  21  41  66  88 128 169 211 259 310 384
#     4  12  21  42  65  99 126 166 215 259 320 371
#     4  11  26  37  63  99 124 171 210 262 318 377
#     4  10  21  38  71  92 122 169 210 261 312 370
#     4  11  21  42  65  90 128 168 210 259 319 375
#
# _framework density 26.042323
#
# number of rings (size 3 to 8) (size 9 to 14) (size 15 to 20)
#    0.750    0.500    6.250    0.750    0.000    2.000 
#    2.250    1.250    5.500    0.000    0.000    0.000 
#    0.000    0.000    0.000    0.000    0.000    0.000 
#
# Total GULP energy -44628.320412 kJ/mol
# GULP energy per Si atom -5578.540052 kJ/mol
# Density = 2.598305 g / cm^3
# Si number density = 26.042323 Si / 1000 Ang^3
#
#
#
# Elastic Constant Matrix: (Units=GPa)
#
#
# Indices 1 2 3 4 5 6 
#
# 1 93.8980 27.3346 28.3200 10.9689 -26.2959 -16.0764
# 2 27.3346 94.6007 29.3938 -5.5001 -5.6464 -29.4332
# 3 28.3200 29.3938 146.0061 -7.5920 -48.2877 -1.9821
# 4 10.9689 -5.5001 -7.5920 40.6583 -10.0430 -4.3997
# 5 -26.2959 -5.6464 -48.2877 -10.0430 38.4443 6.8936
# 6 -16.0764 -29.4332 -1.9821 -4.3997 6.8936 48.8958
#
#
#
# Elastic Compliance Matrix: (Units=1/GPa)
#
#
# Indices 1 2 3 4 5 6 
#
# 1 0.014662 -0.003825 0.001384 -0.001482 0.010650 0.000940
# 2 -0.003825 0.015602 -0.004665 0.001418 -0.007450 0.009123
# 3 0.001384 -0.004665 0.014907 0.006630 0.021467 -0.004179
# 4 -0.001482 0.001418 0.006630 0.030317 0.015223 0.001217
# 5 0.010650 -0.007450 0.021467 0.015223 0.064548 -0.007843
# 6 0.000940 0.009123 -0.004179 0.001217 -0.007843 0.027298
#
#
# Mechanical properties :
#
#
# Convention : Reuss Voigt Hill
#
# Bulk Modulus (GPa) = 32.30079 56.06684 44.18382
# Shear Modulus (GPa) = 26.05971 42.23011 34.14491
#
# Velocity S-wave (km/s) = 3.16676 4.03127 3.62488
# Velocity P-wave (km/s) = 5.07950 6.57602 5.87560
#
# Compressibility (1/GPa) = 0.03095899
#
# Stress axis : x y z
#
# Youngs Moduli (GPa) = 68.20153 64.09572 67.08053
#
# Poissons Ratio (x) = 0.24515 -0.09283
# Poissons Ratio (y) = 0.26086 0.31295
# Poissons Ratio (z) = -0.09438 0.29902
#
# Static dielectric constant tensor:
#      x y z
#    x 2.037180 0.010360 0.042490 
#    y 0.010360 2.235850 0.127090 
#    z 0.042490 0.127090 2.062690 
# 
# From -- ./inp_files/1641.got.cif
#   From: 2010.05.17/outbox.cif.g08.bks.cpg/sg1_1_cif.got.tgz:1641.got - 2010.05.17 20:27:59.
