data_PCOD9000931
_publ_section_title
;
Structure prediction by ZEFSAII (Michael W. Deem and Ramdas Pophale) SiO2 
 PCOD9000931
Probable space group: P 1
;
_chemical_formula_sum "Si O2"
_cell_formula_units_Z 6
_cell_length_a 5.393075
_cell_length_b 9.321737
_cell_length_c 9.834611
_cell_angle_alpha 42.543267
_cell_angle_beta 136.115463
_cell_angle_gamma 128.902646
_cell_volume 226.721589
_symmetry_space_group_name_H-M "P 1"
_symmetry_group_IT_number 1
_symmetry_cell_setting 'triclinic'
loop_
_space_group_symop_operation_xyz
x,y,z
loop_
_atom_site_type_symbol
_atom_site_label
_atom_site_fract_x
_atom_site_fract_y
_atom_site_fract_z
Si Si1 0.042410 0.800050 0.477620
Si Si2 0.589696 0.131401 0.780814
Si Si3 0.364457 0.665411 0.131398
Si Si4 0.265669 0.429419 0.989569
Si Si5 0.554060 0.064289 0.258870
Si Si6 0.015120 0.023428 0.815564
O O1 0.247645 0.649965 0.751031
O O2 0.666191 0.645704 0.377286
O O3 0.319511 0.910828 0.390534
O O4 0.883430 0.963453 0.400133
O O5 0.891374 0.273161 0.897562
O O6 0.193715 0.147760 0.665240
O O7 0.692945 0.131989 0.664589
O O8 0.588219 0.879080 0.991177
O O9 0.263920 0.477863 0.114365
O O10 0.025405 0.770777 0.971901
O O11 0.582880 0.305100 0.160643
O O12 0.307772 0.070985 0.021177
#
# Coordination Sequence:
#
# PCOD9000931 Si02
#       6
#     1   1   1   1   1   1
#     4  11  23  43  64  93 130 164 209 263 313 372
#     4   9  18  38  58  88 128 152 202 265 294 361
#     4   9  20  41  62  92 126 162 209 263 301 379
#     4  11  22  42  70  93 120 182 202 253 334 364
#     4  10  20  44  61  91 137 154 208 278 292 374
#     4   8  15  36  61  75 127 160 176 270 304 324
#
# _framework density 26.464179999999999
#
# number of rings (size 3 to 8) (size 9 to 14) (size 15 to 20)
#    1.000    1.333    3.333    0.000    0.000    4.000 
#   15.000    3.333    0.000    0.000    0.000    0.000 
#    0.000    0.000    0.000    0.000    0.000    0.000 
#
# Total GULP energy -33492.073709 kJ/mol
# GULP energy per Si atom -5582.012285 kJ/mol
# Density = 2.640395 g / cm^3
# Si number density = 26.464180 Si / 1000 Ang^3
#
#
#
# Elastic Constant Matrix: (Units=GPa)
#
#
# Indices 1 2 3 4 5 6 
#
# 1 221.5966 72.8534 64.5351 6.0790 9.1436 -45.6627
# 2 72.8534 177.4177 43.5750 8.2163 16.1170 -45.5291
# 3 64.5351 43.5750 125.2965 0.7133 18.6905 -14.7181
# 4 6.0790 8.2163 0.7133 34.3465 -0.9734 -0.7979
# 5 9.1436 16.1170 18.6905 -0.9734 34.8982 2.9569
# 6 -45.6627 -45.5291 -14.7181 -0.7979 2.9569 49.5766
#
#
#
# Elastic Compliance Matrix: (Units=1/GPa)
#
#
# Indices 1 2 3 4 5 6 
#
# 1 0.006458 -0.000830 -0.002449 -0.000801 -0.000398 0.004470
# 2 -0.000830 0.008428 -0.001140 -0.001792 -0.003693 0.006828
# 3 -0.002449 -0.001140 0.010285 0.000370 -0.004331 0.000015
# 4 -0.000801 -0.001792 0.000370 0.029685 0.001828 -0.001905
# 5 -0.000398 -0.003693 -0.004331 0.001828 0.033429 -0.007008
# 6 0.004470 0.006828 0.000015 -0.001905 -0.007008 0.030950
#
#
# Mechanical properties :
#
#
# Convention : Reuss Voigt Hill
#
# Bulk Modulus (GPa) = 61.22766 98.47085 79.84926
# Shear Modulus (GPa) = 37.44819 46.65407 42.05113
#
# Velocity S-wave (km/s) = 3.76580 4.20326 3.99053
# Velocity P-wave (km/s) = 6.48804 7.80041 7.17430
#
# Compressibility (1/GPa) = 0.01633249
#
# Stress axis : x y z
#
# Youngs Moduli (GPa) = 154.84088 118.65105 97.23358
#
# Poissons Ratio (x) = 0.09851 0.23809
# Poissons Ratio (y) = 0.12855 0.11088
# Poissons Ratio (z) = 0.37914 0.13530
#
# Static dielectric constant tensor:
#      x y z
#    x 2.249730 0.075540 -0.022590 
#    y 0.075540 2.094270 0.020540 
#    z -0.022590 0.020540 2.037660 
# 
# From -- ./inp_files/2947.got.cif
#   From: 2010.05.17/outbox.cif.g08.bks.cpg/sg1_2_cif.got.tgz:2947.got - 2010.05.17 20:27:59.
