data_PCOD9000923
_publ_section_title
;
Structure prediction by ZEFSAII (Michael W. Deem and Ramdas Pophale) SiO2 
 PCOD9000923
Probable space group: P 1
;
_chemical_formula_sum "Si O2"
_cell_formula_units_Z 8
_cell_length_a 8.542681
_cell_length_b 7.302961
_cell_length_c 5.045634
_cell_angle_alpha 76.935390
_cell_angle_beta 98.311220
_cell_angle_gamma 72.673336
_cell_volume 285.020136
_symmetry_space_group_name_H-M "P 1"
_symmetry_group_IT_number 1
_symmetry_cell_setting 'triclinic'
loop_
_space_group_symop_operation_xyz
x,y,z
loop_
_atom_site_type_symbol
_atom_site_label
_atom_site_fract_x
_atom_site_fract_y
_atom_site_fract_z
Si Si1 0.617990 0.860700 0.240160
Si Si2 0.928868 0.811151 0.958913
Si Si3 0.184014 0.079836 0.330790
Si Si4 0.282175 0.859433 0.934873
Si Si5 0.256594 0.434638 0.542466
Si Si6 0.479285 0.320124 0.164478
Si Si7 0.903831 0.528445 0.667430
Si Si8 0.842545 0.189100 0.444525
O O1 0.481502 0.794910 0.063723
O O2 0.718379 0.685596 0.517566
O O3 0.523247 0.077511 0.278120
O O4 0.773978 0.881140 0.102479
O O5 0.939240 0.586557 0.951282
O O6 0.858222 0.981104 0.658183
O O7 0.125615 0.793945 0.024371
O O8 0.231118 0.243301 0.455427
O O9 0.986212 0.132582 0.280672
O O10 0.229377 0.059853 0.041996
O O11 0.260795 0.885216 0.603638
O O12 0.380121 0.461151 0.333854
O O13 0.064299 0.560324 0.541093
O O14 0.371225 0.393084 0.848745
O O15 0.668750 0.316954 0.226379
O O16 0.892329 0.322183 0.633805
#
# Coordination Sequence:
#
# PCOD9000923 Si02
#       8
#     1   1   1   1   1   1   1   1
#     4  12  25  47  81 116 152 204 268 323 381 476
#     4  11  26  50  77 115 158 208 253 328 400 458
#     4  10  20  43  67 111 140 199 250 306 379 461
#     4  11  24  41  78 106 152 201 256 309 388 458
#     4  11  24  44  74 104 159 195 250 317 390 453
#     4  12  23  45  77 111 145 209 254 312 390 467
#     4  11  28  50  73 116 156 200 263 330 384 467
#     4  10  24  48  77 109 156 206 254 323 398 462
#
# _framework density 28.068192
#
# number of rings (size 3 to 8) (size 9 to 14) (size 15 to 20)
#    0.000    1.000    3.750    1.500    5.250    2.000 
#   11.250    0.000    0.000    0.000    0.000    0.000 
#    0.000    0.000    0.000    0.000    0.000    0.000 
#
# Total GULP energy -44683.680470 kJ/mol
# GULP energy per Si atom -5585.460059 kJ/mol
# Density = 2.800431 g / cm^3
# Si number density = 28.068192 Si / 1000 Ang^3
#
#
#
# Elastic Constant Matrix: (Units=GPa)
#
#
# Indices 1 2 3 4 5 6 
#
# 1 180.3978 27.5062 49.9491 -18.6099 53.7210 -27.6205
# 2 27.5062 100.7807 27.3789 0.5145 10.0957 -27.1149
# 3 49.9491 27.3789 129.7150 3.6724 27.2968 -29.2129
# 4 -18.6099 0.5145 3.6724 28.5183 -11.9202 4.8311
# 5 53.7210 10.0957 27.2968 -11.9202 59.0286 -0.4939
# 6 -27.6205 -27.1149 -29.2129 4.8311 -0.4939 63.8924
#
#
#
# Elastic Compliance Matrix: (Units=1/GPa)
#
#
# Indices 1 2 3 4 5 6 
#
# 1 0.008635 -0.000655 -0.001280 0.002606 -0.006607 0.002622
# 2 -0.000655 0.011665 -0.000894 -0.001816 -0.001315 0.004386
# 3 -0.001280 -0.000894 0.010380 -0.004693 -0.004395 0.004134
# 4 0.002606 -0.001816 -0.004693 0.041786 0.008506 -0.004884
# 5 -0.006607 -0.001315 -0.004395 0.008506 0.026880 -0.005859
# 6 0.002622 0.004386 0.004134 -0.004884 -0.005859 0.020860
#
#
# Mechanical properties :
#
#
# Convention : Reuss Voigt Hill
#
# Bulk Modulus (GPa) = 39.96538 68.95130 54.45834
# Shear Modulus (GPa) = 37.25662 50.69183 43.97422
#
# Velocity S-wave (km/s) = 3.64725 4.25434 3.96244
# Velocity P-wave (km/s) = 5.65740 6.98223 6.35444
#
# Compressibility (1/GPa) = 0.02502166
#
# Stress axis : x y z
#
# Youngs Moduli (GPa) = 115.80441 85.72496 96.34320
#
# Poissons Ratio (x) = 0.05617 0.12331
# Poissons Ratio (y) = 0.07588 0.08613
# Poissons Ratio (z) = 0.14822 0.07664
#
# Static dielectric constant tensor:
#      x y z
#    x 2.247400 0.119780 -0.032640 
#    y 0.119780 2.291560 -0.068550 
#    z -0.032640 -0.068550 2.213950 
# 
# From -- ./inp_files/1160.got.cif
#   From: 2010.05.17/outbox.cif.g08.bks.cpg/sg1_1_cif.got.tgz:1160.got - 2010.05.17 20:27:59.
