data_PCOD9000862
_publ_section_title
;
Structure prediction by ZEFSAII (Michael W. Deem and Ramdas Pophale) SiO2 
 PCOD9000862
Probable space group: P 1
;
_chemical_formula_sum "Si O2"
_cell_formula_units_Z 8
_cell_length_a 9.308521
_cell_length_b 8.009342
_cell_length_c 7.898141
_cell_angle_alpha 92.980909
_cell_angle_beta 133.364379
_cell_angle_gamma 60.497968
_cell_volume 332.312230
_symmetry_space_group_name_H-M "P 1"
_symmetry_group_IT_number 1
_symmetry_cell_setting 'triclinic'
loop_
_space_group_symop_operation_xyz
x,y,z
loop_
_atom_site_type_symbol
_atom_site_label
_atom_site_fract_x
_atom_site_fract_y
_atom_site_fract_z
Si Si1 0.068450 0.543430 0.453880
Si Si2 0.097182 0.172372 0.368864
Si Si3 0.615503 0.923816 0.904525
Si Si4 0.986776 0.085055 0.766229
Si Si5 0.228552 0.264802 0.117283
Si Si6 0.652528 0.238903 0.809483
Si Si7 0.630407 0.182933 0.230192
Si Si8 0.144052 0.634352 0.877511
O O1 0.046006 0.357677 0.457348
O O2 0.355455 0.434323 0.616218
O O3 0.015119 0.666176 0.593098
O O4 0.856815 0.695336 0.151189
O O5 0.363925 0.957352 0.645779
O O6 0.170574 0.228155 0.253640
O O7 0.853223 0.194911 0.114527
O O8 0.675542 0.025569 0.812420
O O9 0.579154 0.077846 0.036508
O O10 0.758404 0.254419 0.720435
O O11 0.901967 0.101900 0.505298
O O12 0.168457 0.144321 0.937352
O O13 0.104553 0.845991 0.908546
O O14 0.087361 0.511422 0.955539
O O15 0.520332 0.153379 0.309991
O O16 0.441557 0.439498 0.069565
#
# Coordination Sequence:
#
# PCOD9000862 Si02
#       8
#     1   1   1   1   1   1   1   1
#     4  11  22  43  62  95 128 173 211 262 326 380
#     4  10  21  42  62  95 129 166 211 267 318 387
#     4  11  22  38  67  92 130 170 209 264 327 376
#     4  11  22  42  66  93 127 172 212 267 326 377
#     4   9  22  42  63  93 131 160 217 270 315 382
#     4  10  23  40  64  93 131 164 215 263 319 385
#     4  10  20  40  61  91 132 162 213 274 311 382
#     4  10  22  43  63  94 128 167 218 265 320 373
#
# _framework density 24.073744999999999
#
# number of rings (size 3 to 8) (size 9 to 14) (size 15 to 20)
#    0.750    1.000    3.750    1.500    1.750    3.000 
#    4.500    2.500    0.000    0.000    0.000    0.000 
#    0.000    0.000    0.000    0.000    0.000    0.000 
#
# Total GULP energy -44594.161128 kJ/mol
# GULP energy per Si atom -5574.270141 kJ/mol
# Density = 2.401895 g / cm^3
# Si number density = 24.073745 Si / 1000 Ang^3
#
#
#
# Elastic Constant Matrix: (Units=GPa)
#
#
# Indices 1 2 3 4 5 6 
#
# 1 66.9016 10.7333 27.8996 -3.5770 15.5076 2.9878
# 2 10.7333 87.4919 36.9866 -3.4547 12.9648 9.5055
# 3 27.8996 36.9866 184.0745 -0.0572 24.5825 7.5462
# 4 -3.5770 -3.4547 -0.0572 48.3019 3.8463 3.5243
# 5 15.5076 12.9648 24.5825 3.8463 43.5527 6.1501
# 6 2.9878 9.5055 7.5462 3.5243 6.1501 23.8689
#
#
#
# Elastic Compliance Matrix: (Units=1/GPa)
#
#
# Indices 1 2 3 4 5 6 
#
# 1 0.017040 -0.000487 -0.001803 0.001647 -0.005005 -0.000323
# 2 -0.000487 0.013209 -0.002129 0.001378 -0.002087 -0.004192
# 3 -0.001803 -0.002129 0.006457 -0.000068 -0.002312 -0.000362
# 4 0.001647 0.001378 -0.000068 0.021352 -0.002382 -0.003272
# 5 -0.005005 -0.002087 -0.002312 -0.002382 0.027522 -0.004551
# 6 -0.000323 -0.004192 -0.000362 -0.003272 -0.004551 0.045376
#
#
# Mechanical properties :
#
#
# Convention : Reuss Voigt Hill
#
# Bulk Modulus (GPa) = 35.88322 54.41188 45.14755
# Shear Modulus (GPa) = 33.53865 40.66793 37.10329
#
# Velocity S-wave (km/s) = 3.73656 4.11458 3.93012
# Velocity P-wave (km/s) = 5.79256 6.72490 6.27606
#
# Compressibility (1/GPa) = 0.02786818
#
# Stress axis : x y z
#
# Youngs Moduli (GPa) = 58.68624 75.70866 154.86493
#
# Poissons Ratio (x) = 0.03684 0.27919
# Poissons Ratio (y) = 0.02855 0.32976
# Poissons Ratio (z) = 0.10580 0.16121
#
# Static dielectric constant tensor:
#      x y z
#    x 2.007830 -0.032940 -0.048150 
#    y -0.032940 1.917590 -0.005330 
#    z -0.048150 -0.005330 1.979210 
# 
# From -- ./inp_files/4667.got.cif
#   From: 2010.05.17/outbox.cif.g08.bks.cpg/sg1_3_cif.got.tgz:4667.got - 2010.05.17 20:27:59.
