data_PCOD9000019
_publ_section_title
;
Structure prediction by ZEFSAII (Michael W. Deem and Ramdas Pophale) SiO2 
 PCOD9000019
Probable space group: P 1
;
_chemical_formula_sum "Si O2"
_cell_formula_units_Z 8
_cell_length_a 7.669815
_cell_length_b 8.877336
_cell_length_c 10.630023
_cell_angle_alpha 59.748756
_cell_angle_beta 117.047606
_cell_angle_gamma 65.600444
_cell_volume 306.635545
_symmetry_space_group_name_H-M "P 1"
_symmetry_group_IT_number 1
_symmetry_cell_setting 'triclinic'
loop_
_space_group_symop_operation_xyz
x,y,z
loop_
_atom_site_type_symbol
_atom_site_label
_atom_site_fract_x
_atom_site_fract_y
_atom_site_fract_z
Si Si1 0.029590 0.313610 0.778550
Si Si2 0.778838 0.118603 0.167267
Si Si3 0.005795 0.814225 0.696251
Si Si4 0.490293 0.065401 0.787229
Si Si5 0.292167 0.745680 0.061099
Si Si6 0.531804 0.987166 0.302097
Si Si7 0.206090 0.602487 0.324175
Si Si8 0.008572 0.190234 0.416076
O O1 0.281004 0.192837 0.796938
O O2 0.673623 0.685438 0.480817
O O3 0.052016 0.089371 0.871597
O O4 0.173940 0.253863 0.991235
O O5 0.974440 0.139548 0.285899
O O6 0.780662 0.935591 0.324036
O O7 0.978700 0.915714 0.193673
O O8 0.359564 0.475132 0.885976
O O9 0.636773 0.991121 0.469684
O O10 0.103830 0.752519 0.900562
O O11 0.990961 0.022724 0.557601
O O12 0.412353 0.317741 0.602331
O O13 0.333671 0.055787 0.632828
O O14 0.898332 0.728585 0.094806
O O15 0.641008 0.555507 0.182640
O O16 0.409154 0.555380 0.302898
#
# Coordination Sequence:
#
# PCOD9000019 Si02
#       8
#     1   1   1   1   1   1   1   1
#     4  12  21  39  68  97 127 175 231 269 314 408
#     4  10  21  40  66  98 133 172 228 269 335 392
#     4  10  21  40  69  97 135 177 227 269 332 408
#     4  12  23  43  69 100 133 178 234 271 327 406
#     4  11  26  43  66 104 142 174 218 287 350 386
#     4  11  20  37  65  98 122 169 228 274 308 390
#     4  12  27  43  69 102 141 172 218 292 346 385
#     4  10  23  41  70  96 131 183 230 267 320 417
#
# _framework density 26.089604000000001
#
# number of rings (size 3 to 8) (size 9 to 14) (size 15 to 20)
#    0.000    1.000    5.000    1.500    5.250    0.000 
#    0.000    2.500    0.000    0.000    0.000    0.000 
#    0.000    0.000    0.000    0.000    0.000    0.000 
#
# Total GULP energy -44746.726218 kJ/mol
# GULP energy per Si atom -5593.340777 kJ/mol
# Density = 2.603022 g / cm^3
# Si number density = 26.089604 Si / 1000 Ang^3
#
#
#
# Elastic Constant Matrix: (Units=GPa)
#
#
# Indices 1 2 3 4 5 6 
#
# 1 60.2555 34.1126 19.5614 0.9263 -7.9637 7.3694
# 2 34.1126 104.5421 27.5965 9.0451 7.5601 16.8228
# 3 19.5614 27.5965 134.6999 8.5596 -14.1227 9.1227
# 4 0.9263 9.0451 8.5596 53.0442 15.7933 0.9938
# 5 -7.9637 7.5601 -14.1227 15.7933 40.8564 7.2692
# 6 7.3694 16.8228 9.1227 0.9938 7.2692 31.7165
#
#
#
# Elastic Compliance Matrix: (Units=1/GPa)
#
#
# Indices 1 2 3 4 5 6 
#
# 1 0.021887 -0.006854 -0.000927 -0.000794 0.005971 -0.002527
# 2 -0.006854 0.013236 -0.001737 -0.000783 -0.003347 -0.004137
# 3 -0.000927 -0.001737 0.008692 -0.002380 0.004477 -0.002315
# 4 -0.000794 -0.000783 -0.002380 0.022296 -0.009962 0.002869
# 5 0.005971 -0.003347 0.004477 -0.009962 0.033112 -0.008177
# 6 -0.002527 -0.004137 -0.002315 0.002869 -0.008177 0.036761
#
#
# Mechanical properties :
#
#
# Convention : Reuss Voigt Hill
#
# Bulk Modulus (GPa) = 40.35582 51.33761 45.84671
# Shear Modulus (GPa) = 30.62233 39.67189 35.14711
#
# Velocity S-wave (km/s) = 3.42970 3.90372 3.67436
# Velocity P-wave (km/s) = 5.58440 6.32762 5.96759
#
# Compressibility (1/GPa) = 0.02477958
#
# Stress axis : x y z
#
# Youngs Moduli (GPa) = 45.68837 75.55142 115.05047
#
# Poissons Ratio (x) = 0.51781 0.10662
# Poissons Ratio (y) = 0.31313 0.19989
# Poissons Ratio (z) = 0.04234 0.13126
#
# Static dielectric constant tensor:
#      x y z
#    x 2.064440 0.023510 0.030370 
#    y 0.023510 2.102970 0.060450 
#    z 0.030370 0.060450 2.054120 
# 
# From -- ./inp_files/2729.got.cif
#   From: 2010.05.17/outbox.cif.g08.bks.cpg/sg1_2_cif.got.tgz:2729.got - 2010.05.17 20:27:59.
