data_PCOD9000306
_publ_section_title
;
Structure prediction by ZEFSAII (Michael W. Deem and Ramdas Pophale) SiO2 
 PCOD9000306
Probable space group: P 1
;
_chemical_formula_sum "Si O2"
_cell_formula_units_Z 8
_cell_length_a 5.995801
_cell_length_b 11.875864
_cell_length_c 8.835177
_cell_angle_alpha 144.356630
_cell_angle_beta 97.880268
_cell_angle_gamma 72.830274
_cell_volume 344.247517
_symmetry_space_group_name_H-M "P 1"
_symmetry_group_IT_number 1
_symmetry_cell_setting 'triclinic'
loop_
_space_group_symop_operation_xyz
x,y,z
loop_
_atom_site_type_symbol
_atom_site_label
_atom_site_fract_x
_atom_site_fract_y
_atom_site_fract_z
Si Si1 0.139300 0.830540 0.535720
Si Si2 0.953102 0.789515 0.152074
Si Si3 0.699168 0.453469 0.692437
Si Si4 0.427872 0.017081 0.932864
Si Si5 0.133302 0.061952 0.262661
Si Si6 0.686888 0.203821 0.973241
Si Si7 0.513963 0.200320 0.623955
Si Si8 0.557245 0.592159 0.512630
O O1 0.104324 0.756114 0.285101
O O2 0.298190 0.981556 0.728226
O O3 0.300969 0.656420 0.472714
O O4 0.889487 0.986751 0.739620
O O5 0.093198 0.858780 0.104829
O O6 0.731501 0.995328 0.383244
O O7 0.846899 0.605574 0.916496
O O8 0.552942 0.387586 0.738729
O O9 0.541150 0.552579 0.643559
O O10 0.885729 0.240654 0.422917
O O11 0.626595 0.799186 0.737760
O O12 0.531678 0.191733 0.091962
O O13 0.263692 0.043144 0.092696
O O14 0.284711 0.146294 0.489237
O O15 0.539248 0.240518 0.845730
O O16 0.746144 0.409069 0.240713
#
# Coordination Sequence:
#
# PCOD9000306 Si02
#       8
#     1   1   1   1   1   1   1   1
#     4   9  23  45  63  98 130 175 223 276 328 399
#     4  10  23  44  67  96 139 175 228 276 335 404
#     4  11  24  43  68 104 134 176 228 275 339 406
#     4  10  23  41  63  99 132 172 226 272 334 395
#     4  11  23  41  70  98 137 183 219 281 337 393
#     4  11  22  45  68  93 138 174 222 284 328 398
#     4  10  24  42  68  99 135 177 224 282 336 395
#     4  10  24  43  63  99 131 176 224 268 335 402
#
# _framework density 23.239090999999998
#
# number of rings (size 3 to 8) (size 9 to 14) (size 15 to 20)
#    0.750    1.000    0.000    3.000    1.750    8.000 
#    6.750    0.000    0.000    0.000    0.000    0.000 
#    0.000    0.000    0.000    0.000    0.000    0.000 
#
# Total GULP energy -44622.251025 kJ/mol
# GULP energy per Si atom -5577.781378 kJ/mol
# Density = 2.318620 g / cm^3
# Si number density = 23.239091 Si / 1000 Ang^3
#
#
#
# Elastic Constant Matrix: (Units=GPa)
#
#
# Indices 1 2 3 4 5 6 
#
# 1 52.8809 48.1651 14.5021 -3.7757 15.2699 -2.3306
# 2 48.1651 154.9615 35.3893 -4.7925 9.1973 -10.5301
# 3 14.5021 35.3893 95.8883 -2.4097 8.8299 4.8820
# 4 -3.7757 -4.7925 -2.4097 23.7234 -2.9728 10.5187
# 5 15.2699 9.1973 8.8299 -2.9728 41.3076 1.3177
# 6 -2.3306 -10.5301 4.8820 10.5187 1.3177 41.6647
#
#
#
# Elastic Compliance Matrix: (Units=1/GPa)
#
#
# Indices 1 2 3 4 5 6 
#
# 1 0.029416 -0.008514 -0.000413 0.002150 -0.008712 -0.000725
# 2 -0.008514 0.009749 -0.002575 -0.000524 0.001414 0.002377
# 3 -0.000413 -0.002575 0.011746 0.001456 -0.001605 -0.002367
# 4 0.002150 -0.000524 0.001456 0.048444 0.002896 -0.012504
# 5 -0.008712 0.001414 -0.001605 0.002896 0.027715 -0.001550
# 6 -0.000725 0.002377 -0.002367 -0.012504 -0.001550 0.028045
#
#
# Mechanical properties :
#
#
# Convention : Reuss Voigt Hill
#
# Bulk Modulus (GPa) = 35.83364 55.53819 45.68592
# Shear Modulus (GPa) = 26.67772 35.05076 30.86424
#
# Velocity S-wave (km/s) = 3.39184 3.88785 3.64829
# Velocity P-wave (km/s) = 5.54910 6.64111 6.11951
#
# Compressibility (1/GPa) = 0.02790674
#
# Stress axis : x y z
#
# Youngs Moduli (GPa) = 33.99493 102.57360 85.13246
#
# Poissons Ratio (x) = 0.87336 0.03518
# Poissons Ratio (y) = 0.28945 0.21919
# Poissons Ratio (z) = 0.01405 0.26410
#
# Static dielectric constant tensor:
#      x y z
#    x 1.915610 -0.021620 -0.019780 
#    y -0.021620 1.865290 0.008620 
#    z -0.019780 0.008620 1.865590 
# 
# From -- ./inp_files/3239.got.cif
#   From: 2010.05.17/outbox.cif.g08.bks.cpg/sg1_2_cif.got.tgz:3239.got - 2010.05.17 20:27:59.
