data_PCOD9000080
_publ_section_title
;
Structure prediction by ZEFSAII (Michael W. Deem and Ramdas Pophale) SiO2 
 PCOD9000080
Probable space group: P 1
;
_chemical_formula_sum "Si O2"
_cell_formula_units_Z 6
_cell_length_a 6.993870
_cell_length_b 7.332752
_cell_length_c 9.101291
_cell_angle_alpha 77.968142
_cell_angle_beta 103.427111
_cell_angle_gamma 40.889198
_cell_volume 237.053029
_symmetry_space_group_name_H-M "P 1"
_symmetry_group_IT_number 1
_symmetry_cell_setting 'triclinic'
loop_
_space_group_symop_operation_xyz
x,y,z
loop_
_atom_site_type_symbol
_atom_site_label
_atom_site_fract_x
_atom_site_fract_y
_atom_site_fract_z
Si Si1 0.453910 0.371340 0.468480
Si Si2 0.242091 0.959926 0.355634
Si Si3 0.767908 0.611591 0.744624
Si Si4 0.304293 0.657337 0.801454
Si Si5 0.449715 0.158999 0.780145
Si Si6 0.387284 0.653604 0.152549
O O1 0.389593 0.632978 0.472719
O O2 0.283724 0.374128 0.560447
O O3 0.311087 0.522610 0.253035
O O4 0.515784 0.868395 0.513371
O O5 0.254900 0.931583 0.185363
O O6 0.551454 0.620263 0.782713
O O7 0.829443 0.318886 0.275021
O O8 0.163202 0.264122 0.802012
O O9 0.890867 0.984667 0.608626
O O10 0.772259 0.771812 0.839777
O O11 0.254342 0.740948 0.949796
O O12 0.501503 0.301649 0.863579
#
# Coordination Sequence:
#
# PCOD9000080 Si02
#       6
#     1   1   1   1   1   1
#     4  10  21  46  69  99 131 183 221 271 344 393
#     4  10  21  43  67 101 128 178 226 266 341 395
#     4  12  24  42  72  99 134 184 227 271 340 410
#     4  12  24  47  74  96 143 178 222 289 334 401
#     4  12  25  39  73 102 132 182 228 272 343 402
#     4  10  23  39  75  99 130 183 226 271 348 395
#
# _framework density 25.310789
#
# number of rings (size 3 to 8) (size 9 to 14) (size 15 to 20)
#    1.000    0.000    5.000    2.000    2.333    0.000 
#    0.000    5.000    3.667    0.000    0.000    0.000 
#    0.000    0.000    0.000    0.000    0.000    0.000 
#
# Total GULP energy -33498.978954 kJ/mol
# GULP energy per Si atom -5583.163159 kJ/mol
# Density = 2.525318 g / cm^3
# Si number density = 25.310789 Si / 1000 Ang^3
#
#
#
# Elastic Constant Matrix: (Units=GPa)
#
#
# Indices 1 2 3 4 5 6 
#
# 1 89.6642 36.7780 20.1414 18.9193 -15.2358 -7.4429
# 2 36.7780 155.7742 29.8542 29.2050 -1.8744 -9.3990
# 3 20.1414 29.8542 97.1653 40.7122 -6.6609 -2.4112
# 4 18.9193 29.2050 40.7122 53.5226 -8.9397 1.7224
# 5 -15.2358 -1.8744 -6.6609 -8.9397 30.1300 15.6565
# 6 -7.4429 -9.3990 -2.4112 1.7224 15.6565 46.7321
#
#
#
# Elastic Compliance Matrix: (Units=1/GPa)
#
#
# Indices 1 2 3 4 5 6 
#
# 1 0.013879 -0.002748 -0.000929 -0.001614 0.006412 -0.000479
# 2 -0.002748 0.007947 -0.000538 -0.003585 -0.003312 0.002375
# 3 -0.000929 -0.000538 0.015327 -0.011272 -0.001154 0.001337
# 4 -0.001614 -0.003585 -0.011272 0.031423 0.008723 -0.005640
# 5 0.006412 -0.003312 -0.001154 0.008723 0.046703 -0.015673
# 6 -0.000479 0.002375 0.001337 -0.005640 -0.015673 0.027328
#
#
# Mechanical properties :
#
#
# Convention : Reuss Voigt Hill
#
# Bulk Modulus (GPa) = 34.81542 57.35009 46.08276
# Shear Modulus (GPa) = 31.13131 43.13228 37.13180
#
# Velocity S-wave (km/s) = 3.51089 4.13256 3.83434
# Velocity P-wave (km/s) = 5.49728 6.74376 6.15217
#
# Compressibility (1/GPa) = 0.02872291
#
# Stress axis : x y z
#
# Youngs Moduli (GPa) = 72.05274 125.83265 65.24571
#
# Poissons Ratio (x) = 0.34578 0.06061
# Poissons Ratio (y) = 0.19800 0.03510
# Poissons Ratio (z) = 0.06693 0.06769
#
# Static dielectric constant tensor:
#      x y z
#    x 1.981200 0.022490 -0.028980 
#    y 0.022490 1.962770 0.019230 
#    z -0.028980 0.019230 2.069240 
# 
# From -- ./inp_files/5472.got.cif
#   From: 2010.05.17/outbox.cif.g08.bks.cpg/sg1_3_cif.got.tgz:5472.got - 2010.05.17 20:27:59.
