data_PCOD9000857
_publ_section_title
;
Structure prediction by ZEFSAII (Michael W. Deem and Ramdas Pophale) SiO2 
 PCOD9000857
Probable space group: P 1
;
_chemical_formula_sum "Si O2"
_cell_formula_units_Z 8
_cell_length_a 8.146222
_cell_length_b 7.366561
_cell_length_c 11.026858
_cell_angle_alpha 138.845353
_cell_angle_beta 58.209161
_cell_angle_gamma 125.657167
_cell_volume 349.015352
_symmetry_space_group_name_H-M "P 1"
_symmetry_group_IT_number 1
_symmetry_cell_setting 'triclinic'
loop_
_space_group_symop_operation_xyz
x,y,z
loop_
_atom_site_type_symbol
_atom_site_label
_atom_site_fract_x
_atom_site_fract_y
_atom_site_fract_z
Si Si1 0.166350 0.976250 0.557430
Si Si2 0.955944 0.392222 0.932780
Si Si3 0.235946 0.788103 0.193549
Si Si4 0.774654 0.354071 0.727136
Si Si5 0.754260 0.532468 0.571457
Si Si6 0.584148 0.908465 0.401240
Si Si7 0.518592 0.931435 0.928482
Si Si8 0.419582 0.369617 0.034888
O O1 0.225623 0.021780 0.415096
O O2 0.944427 0.721301 0.514493
O O3 0.349726 0.893702 0.506552
O O4 0.128181 0.236649 0.777150
O O5 0.747658 0.165927 0.952325
O O6 0.041343 0.673361 0.124117
O O7 0.915333 0.433971 0.828643
O O8 0.253853 0.512948 0.127473
O O9 0.425427 0.889080 0.077453
O O10 0.841078 0.563479 0.691866
O O11 0.719707 0.027065 0.527558
O O12 0.558160 0.363200 0.863145
O O13 0.676201 0.182937 0.410748
O O14 0.563983 0.653475 0.712205
O O15 0.562974 0.608721 0.194191
O O16 0.377154 0.063215 0.966227
#
# Coordination Sequence:
#
# PCOD9000857 Si02
#       8
#     1   1   1   1   1   1   1   1
#     4  10  21  38  61  90 121 163 204 253 304 362
#     4  10  22  40  60  91 125 162 204 249 305 367
#     4  11  22  42  60  91 130 156 201 260 301 364
#     4   9  19  40  62  86 124 161 201 251 298 364
#     4   9  19  41  66  88 126 163 203 253 312 358
#     4   9  20  39  63  87 128 157 202 255 306 353
#     4  10  21  41  65  89 121 166 207 241 315 362
#     4  10  20  39  67  90 121 164 204 252 305 366
#
# _framework density 22.921628999999999
#
# number of rings (size 3 to 8) (size 9 to 14) (size 15 to 20)
#    0.750    1.500    1.250    1.500    0.000    4.000 
#   13.500    5.000    0.000    0.000    0.000    0.000 
#    0.000    0.000    0.000    0.000    0.000    0.000 
#
# Total GULP energy -44576.182704 kJ/mol
# GULP energy per Si atom -5572.022838 kJ/mol
# Density = 2.286946 g / cm^3
# Si number density = 22.921629 Si / 1000 Ang^3
#
#
#
# Elastic Constant Matrix: (Units=GPa)
#
#
# Indices 1 2 3 4 5 6 
#
# 1 75.0847 20.4664 16.9889 -0.5681 21.0958 -3.9862
# 2 20.4664 41.7273 7.1813 -16.2653 -9.7557 -5.5252
# 3 16.9889 7.1813 85.6229 -7.2555 5.2125 2.3327
# 4 -0.5681 -16.2653 -7.2555 33.7517 2.5361 1.1405
# 5 21.0958 -9.7557 5.2125 2.5361 30.6809 0.9539
# 6 -3.9862 -5.5252 2.3327 1.1405 0.9539 27.1800
#
#
#
# Elastic Compliance Matrix: (Units=1/GPa)
#
#
# Indices 1 2 3 4 5 6 
#
# 1 0.026408 -0.021275 -0.002768 -0.008651 -0.023768 0.000983
# 2 -0.021275 0.050165 -0.000051 0.021478 0.028652 0.005175
# 3 -0.002768 -0.000051 0.012531 0.002707 -0.000416 -0.001591
# 4 -0.008651 0.021478 0.002707 0.039708 0.009008 0.000883
# 5 -0.023768 0.028652 -0.000416 0.009008 0.057374 -0.000017
# 6 0.000983 0.005175 -0.001591 0.000883 -0.000017 0.038088
#
#
# Mechanical properties :
#
#
# Convention : Reuss Voigt Hill
#
# Bulk Modulus (GPa) = 24.44103 32.41200 28.42651
# Shear Modulus (GPa) = 17.47625 28.84241 23.15933
#
# Velocity S-wave (km/s) = 2.76422 3.55111 3.18208
# Velocity P-wave (km/s) = 4.56879 5.56641 5.09209
#
# Compressibility (1/GPa) = 0.04091481
#
# Stress axis : x y z
#
# Youngs Moduli (GPa) = 37.86665 19.93410 79.80340
#
# Poissons Ratio (x) = 0.42410 0.22092
# Poissons Ratio (y) = 0.80562 0.00410
# Poissons Ratio (z) = 0.10483 0.00102
#
# Static dielectric constant tensor:
#      x y z
#    x 1.922820 -0.030260 -0.029350 
#    y -0.030260 1.857140 0.033990 
#    z -0.029350 0.033990 1.852070 
# 
# From -- ./inp_files/6490.got.cif
#   From: 2010.05.17/outbox.cif.g08.bks.cpg/sg1_4_cif.got.tgz:6490.got - 2010.05.17 20:27:59.
