data_PCOD9000209
_publ_section_title
;
Structure prediction by ZEFSAII (Michael W. Deem and Ramdas Pophale) SiO2 
 PCOD9000209
Probable space group: P 1
;
_chemical_formula_sum "Si O2"
_cell_formula_units_Z 8
_cell_length_a 7.235967
_cell_length_b 7.861635
_cell_length_c 7.047342
_cell_angle_alpha 65.799948
_cell_angle_beta 58.271380
_cell_angle_gamma 79.617177
_cell_volume 310.695063
_symmetry_space_group_name_H-M "P 1"
_symmetry_group_IT_number 1
_symmetry_cell_setting 'triclinic'
loop_
_space_group_symop_operation_xyz
x,y,z
loop_
_atom_site_type_symbol
_atom_site_label
_atom_site_fract_x
_atom_site_fract_y
_atom_site_fract_z
Si Si1 0.963200 0.363650 0.382890
Si Si2 0.867245 0.358512 0.000401
Si Si3 0.006780 0.756019 0.677158
Si Si4 0.111144 0.755227 0.062034
Si Si5 0.698112 0.048173 0.834114
Si Si6 0.420460 0.286329 0.307930
Si Si7 0.428725 0.707153 0.216474
Si Si8 0.257683 0.135194 0.830755
O O1 0.864557 0.331847 0.243217
O O2 0.848102 0.240556 0.664804
O O3 0.965561 0.587131 0.307114
O O4 0.216618 0.313915 0.269938
O O5 0.647633 0.243804 0.108853
O O6 0.854258 0.568197 0.834224
O O7 0.113583 0.312187 0.841852
O O8 0.215142 0.754155 0.430239
O O9 0.859362 0.934098 0.658107
O O10 0.095001 0.743211 0.851440
O O11 0.352453 0.732651 0.026781
O O12 0.077074 0.968067 0.036782
O O13 0.466346 0.118401 0.856054
O O14 0.618817 0.863685 0.086699
O O15 0.462339 0.485637 0.306392
O O16 0.347847 0.131977 0.570193
#
# Coordination Sequence:
#
# PCOD9000209 Si02
#       8
#     1   1   1   1   1   1   1   1
#     4  10  23  43  69  99 138 177 228 289 335 404
#     4  11  23  44  73  99 137 183 230 282 347 410
#     4  11  22  44  72 100 137 183 232 285 347 410
#     4   9  23  43  66  98 140 174 233 285 328 420
#     4  11  23  40  71 102 141 178 227 287 341 412
#     4  11  21  45  69  99 142 176 226 292 338 410
#     4  10  22  42  73  99 138 186 225 285 357 400
#     4  11  23  43  69 100 139 181 227 283 351 404
#
# _framework density 25.748719000000001
#
# number of rings (size 3 to 8) (size 9 to 14) (size 15 to 20)
#    0.000    1.500    3.750    0.750    3.500    0.000 
#    4.500    2.500    2.750    0.000    0.000    0.000 
#    0.000    0.000    0.000    0.000    0.000    0.000 
#
# Total GULP energy -44634.153778 kJ/mol
# GULP energy per Si atom -5579.269222 kJ/mol
# Density = 2.569011 g / cm^3
# Si number density = 25.748719 Si / 1000 Ang^3
#
#
#
# Elastic Constant Matrix: (Units=GPa)
#
#
# Indices 1 2 3 4 5 6 
#
# 1 112.6799 0.3908 31.2507 5.2763 -13.5801 -12.4022
# 2 0.3908 62.8749 29.1454 -29.5632 -15.0202 -12.0348
# 3 31.2507 29.1454 144.0419 -4.8608 -26.3937 -5.5372
# 4 5.2763 -29.5632 -4.8608 48.2618 2.5957 -13.1989
# 5 -13.5801 -15.0202 -26.3937 2.5957 42.3733 -2.1894
# 6 -12.4022 -12.0348 -5.5372 -13.1989 -2.1894 34.9478
#
#
#
# Elastic Compliance Matrix: (Units=1/GPa)
#
#
# Indices 1 2 3 4 5 6 
#
# 1 0.010432 0.004223 -0.002122 0.002695 0.003667 0.006068
# 2 0.004223 0.040695 -0.004817 0.030739 0.012297 0.027129
# 3 -0.002122 -0.004817 0.008805 -0.002482 0.003158 -0.001756
# 4 0.002695 0.030739 -0.002482 0.046536 0.008876 0.029280
# 5 0.003667 0.012297 0.003158 0.008876 0.031144 0.011340
# 6 0.006068 0.027129 -0.001756 0.029280 0.011340 0.051600
#
#
# Mechanical properties :
#
#
# Convention : Reuss Voigt Hill
#
# Bulk Modulus (GPa) = 18.34804 49.01895 33.68349
# Shear Modulus (GPa) = 23.49520 42.37059 32.93289
#
# Velocity S-wave (km/s) = 3.02401 4.06093 3.58021
# Velocity P-wave (km/s) = 4.39705 6.40835 5.49550
#
# Compressibility (1/GPa) = 0.05450174
#
# Stress axis : x y z
#
# Youngs Moduli (GPa) = 95.85766 24.57295 113.57401
#
# Poissons Ratio (x) = -0.10378 0.24097
# Poissons Ratio (y) = -0.40485 0.54709
# Poissons Ratio (z) = 0.20338 0.11837
#
# Static dielectric constant tensor:
#      x y z
#    x 2.033620 0.079140 0.004910 
#    y 0.079140 2.127540 -0.010160 
#    z 0.004910 -0.010160 2.000670 
# 
# From -- ./inp_files/3322.got.cif
#   From: 2010.05.17/outbox.cif.g08.bks.cpg/sg1_2_cif.got.tgz:3322.got - 2010.05.17 20:27:59.
