data_PCOD9000142
_publ_section_title
;
Structure prediction by ZEFSAII (Michael W. Deem and Ramdas Pophale) SiO2 
 PCOD9000142
Probable space group: P 1
;
_chemical_formula_sum "Si O2"
_cell_formula_units_Z 8
_cell_length_a 9.371618
_cell_length_b 5.206330
_cell_length_c 8.989125
_cell_angle_alpha 121.996009
_cell_angle_beta 74.876045
_cell_angle_gamma 106.503935
_cell_volume 353.339534
_symmetry_space_group_name_H-M "P 1"
_symmetry_group_IT_number 1
_symmetry_cell_setting 'triclinic'
loop_
_space_group_symop_operation_xyz
x,y,z
loop_
_atom_site_type_symbol
_atom_site_label
_atom_site_fract_x
_atom_site_fract_y
_atom_site_fract_z
Si Si1 0.978920 0.928060 0.053640
Si Si2 0.274311 0.201752 0.246605
Si Si3 0.408968 0.710147 0.576623
Si Si4 0.381995 0.275410 0.934846
Si Si5 0.581633 0.330624 0.633089
Si Si6 0.096942 0.949815 0.465994
Si Si7 0.898341 0.312237 0.425264
Si Si8 0.090497 0.307675 0.871792
O O1 0.996009 0.575279 0.948562
O O2 0.130620 0.102287 0.149239
O O3 0.244720 0.428712 0.957319
O O4 0.989062 0.053744 0.923523
O O5 0.297053 0.516251 0.431789
O O6 0.238231 0.960370 0.319174
O O7 0.400983 0.254326 0.100092
O O8 0.492036 0.488921 0.583661
O O9 0.527271 0.962130 0.534091
O O10 0.856683 0.061983 0.226300
O O11 0.337270 0.922115 0.777173
O O12 0.527809 0.411574 0.838215
O O13 0.755147 0.405770 0.571345
O O14 0.001191 0.617837 0.424997
O O15 0.986929 0.141430 0.467849
O O16 0.139818 0.145222 0.662306
#
# Coordination Sequence:
#
# PCOD9000142 Si02
#       8
#     1   1   1   1   1   1   1   1
#     4  10  23  37  63  92 129 172 195 277 311 387
#     4  10  22  39  64  99 128 158 218 254 344 367
#     4  10  23  40  65  98 123 174 209 269 317 383
#     4   9  24  40  67  94 133 166 201 276 318 384
#     4  10  23  44  66  86 130 177 213 262 317 374
#     4  11  24  38  69  96 130 172 211 273 316 395
#     4  11  23  45  64  92 128 178 223 252 324 379
#     4  11  22  39  62  95 135 155 214 259 341 365
#
# _framework density 22.641109
#
# number of rings (size 3 to 8) (size 9 to 14) (size 15 to 20)
#    0.750    1.000    0.000    3.750   10.500    2.000 
#    0.000    3.750    0.000    0.000    0.000    0.000 
#    0.000    0.000    0.000    0.000    0.000    0.000 
#
# Total GULP energy -44615.143070 kJ/mol
# GULP energy per Si atom -5576.892884 kJ/mol
# Density = 2.258958 g / cm^3
# Si number density = 22.641109 Si / 1000 Ang^3
#
#
#
# Elastic Constant Matrix: (Units=GPa)
#
#
# Indices 1 2 3 4 5 6 
#
# 1 52.8902 36.7329 28.6933 -23.5276 -10.0426 -18.6082
# 2 36.7329 146.9589 51.9323 -23.3752 -2.3879 -31.6084
# 3 28.6933 51.9323 158.8149 -14.8711 -7.8222 -17.2112
# 4 -23.5276 -23.3752 -14.8711 46.3960 2.5265 2.2737
# 5 -10.0426 -2.3879 -7.8222 2.5265 26.1489 -4.8967
# 6 -18.6082 -31.6084 -17.2112 2.2737 -4.8967 27.7693
#
#
#
# Elastic Compliance Matrix: (Units=1/GPa)
#
#
# Indices 1 2 3 4 5 6 
#
# 1 0.041678 -0.000646 -0.001673 0.017866 0.018972 0.028039
# 2 -0.000646 0.010439 -0.001732 0.003772 0.001766 0.010379
# 3 -0.001673 -0.001732 0.007494 0.000498 0.001733 0.001817
# 4 0.017866 0.003772 0.000498 0.031536 0.007165 0.015256
# 5 0.018972 0.001766 0.001733 0.007165 0.050016 0.024031
# 6 0.028039 0.010379 0.001817 0.015256 0.024031 0.070729
#
#
# Mechanical properties :
#
#
# Convention : Reuss Voigt Hill
#
# Bulk Modulus (GPa) = 19.41355 65.93120 42.67238
# Shear Modulus (GPa) = 21.08261 36.14987 28.61624
#
# Velocity S-wave (km/s) = 3.05481 4.00014 3.55900
# Velocity P-wave (km/s) = 4.58645 7.10762 5.98138
#
# Compressibility (1/GPa) = 0.05151041
#
# Stress axis : x y z
#
# Youngs Moduli (GPa) = 23.99360 95.79474 133.43740
#
# Poissons Ratio (x) = 0.06184 0.22322
# Poissons Ratio (y) = 0.01549 0.23110
# Poissons Ratio (z) = 0.04014 0.16591
#
# Static dielectric constant tensor:
#      x y z
#    x 1.867070 -0.001390 -0.058910 
#    y -0.001390 1.883320 -0.033240 
#    z -0.058910 -0.033240 1.935420 
# 
# From -- ./inp_files/5122.got.cif
#   From: 2010.05.17/outbox.cif.g08.bks.cpg/sg1_3_cif.got.tgz:5122.got - 2010.05.17 20:27:59.
