data_PCOD9000291
_publ_section_title
;
Structure prediction by ZEFSAII (Michael W. Deem and Ramdas Pophale) SiO2 
 PCOD9000291
Probable space group: P 1
;
_chemical_formula_sum "Si O2"
_cell_formula_units_Z 6
_cell_length_a 9.043610
_cell_length_b 7.140969
_cell_length_c 6.907385
_cell_angle_alpha 137.878802
_cell_angle_beta 127.197071
_cell_angle_gamma 48.170832
_cell_volume 217.478407
_symmetry_space_group_name_H-M "P 1"
_symmetry_group_IT_number 1
_symmetry_cell_setting 'triclinic'
loop_
_space_group_symop_operation_xyz
x,y,z
loop_
_atom_site_type_symbol
_atom_site_label
_atom_site_fract_x
_atom_site_fract_y
_atom_site_fract_z
Si Si1 0.378620 0.614670 0.989490
Si Si2 0.629858 0.988265 0.494516
Si Si3 0.986686 0.443333 0.250453
Si Si4 0.674676 0.770785 0.952657
Si Si5 0.260209 0.744571 0.584347
Si Si6 0.015356 0.917133 0.163220
O O1 0.264190 0.820116 0.871505
O O2 0.516361 0.774317 0.303912
O O3 0.603071 0.019740 0.262552
O O4 0.208553 0.621216 0.008853
O O5 0.868155 0.768674 0.521316
O O6 0.524454 0.293025 0.766776
O O7 0.810698 0.866809 0.988833
O O8 0.184966 0.468790 0.338196
O O9 0.832087 0.479813 0.977635
O O10 0.999997 0.192046 0.223404
O O11 0.484346 0.715518 0.680249
O O12 0.093858 0.963324 0.472769
#
# Coordination Sequence:
#
# PCOD9000291 Si02
#       6
#     1   1   1   1   1   1
#     4  11  23  48  78 112 158 208 258 329 396 475
#     4   9  22  48  77 107 161 210 250 326 404 464
#     4   9  21  45  79 113 151 207 258 325 392 469
#     4   8  21  47  77 114 156 204 264 325 392 473
#     4  10  22  48  76 111 157 203 262 321 396 466
#     4  11  23  46  81 117 149 206 272 320 396 471
#
# _framework density 27.588944000000001
#
# number of rings (size 3 to 8) (size 9 to 14) (size 15 to 20)
#    1.000    1.333    0.000    1.000    0.000    2.667 
#    9.000   15.000    0.000    0.000    0.000    0.000 
#    0.000    0.000    0.000    0.000    0.000    0.000 
#
# Total GULP energy -33539.605470 kJ/mol
# GULP energy per Si atom -5589.934245 kJ/mol
# Density = 2.752615 g / cm^3
# Si number density = 27.588944 Si / 1000 Ang^3
#
#
#
# Elastic Constant Matrix: (Units=GPa)
#
#
# Indices 1 2 3 4 5 6 
#
# 1 248.0868 91.0419 75.6548 3.4486 37.2433 -8.7490
# 2 91.0419 136.8090 56.1482 13.3172 4.0053 15.1889
# 3 75.6548 56.1482 127.4157 -15.7041 44.5386 8.0279
# 4 3.4486 13.3172 -15.7041 52.5907 -4.8134 -12.6714
# 5 37.2433 4.0053 44.5386 -4.8134 74.2102 -2.1998
# 6 -8.7490 15.1889 8.0279 -12.6714 -2.1998 50.8333
#
#
#
# Elastic Compliance Matrix: (Units=1/GPa)
#
#
# Indices 1 2 3 4 5 6 
#
# 1 0.006254 -0.003859 -0.001412 0.000570 -0.001972 0.002509
# 2 -0.003859 0.012917 -0.005081 -0.005367 0.003796 -0.004895
# 3 -0.001412 -0.005081 0.014018 0.004909 -0.007113 -0.000023
# 4 0.000570 -0.005367 0.004909 0.023299 -0.001233 0.006681
# 5 -0.001972 0.003796 -0.007113 -0.001233 0.018453 0.000141
# 6 0.002509 -0.004895 -0.000023 0.006681 0.000141 0.023242
#
#
# Mechanical properties :
#
#
# Convention : Reuss Voigt Hill
#
# Bulk Modulus (GPa) = 80.08255 106.44458 93.26357
# Shear Modulus (GPa) = 40.63430 54.82462 47.72946
#
# Velocity S-wave (km/s) = 3.84193 4.46263 4.16386
# Velocity P-wave (km/s) = 6.98360 8.07586 7.54951
#
# Compressibility (1/GPa) = 0.01248711
#
# Stress axis : x y z
#
# Youngs Moduli (GPa) = 159.89893 77.41477 71.33542
#
# Poissons Ratio (x) = 0.29872 0.10069
# Poissons Ratio (y) = 0.61701 0.36245
# Poissons Ratio (z) = 0.22570 0.39334
#
# Static dielectric constant tensor:
#      x y z
#    x 2.116400 -0.027190 -0.017750 
#    y -0.027190 2.243740 -0.048630 
#    z -0.017750 -0.048630 2.181630 
# 
# From -- ./inp_files/834.got.cif
#   From: 2010.05.17/outbox.cif.g08.bks.cpg/sg1_1_cif.got.tgz:834.got - 2010.05.17 20:27:59.
