data_PCOD9000571
_publ_section_title
;
Structure prediction by ZEFSAII (Michael W. Deem and Ramdas Pophale) SiO2 
 PCOD9000571
Probable space group: P 1
;
_chemical_formula_sum "Si O2"
_cell_formula_units_Z 8
_cell_length_a 12.412651
_cell_length_b 10.549016
_cell_length_c 7.492821
_cell_angle_alpha 53.000516
_cell_angle_beta 144.680571
_cell_angle_gamma 143.287713
_cell_volume 335.178296
_symmetry_space_group_name_H-M "P 1"
_symmetry_group_IT_number 1
_symmetry_cell_setting 'triclinic'
loop_
_space_group_symop_operation_xyz
x,y,z
loop_
_atom_site_type_symbol
_atom_site_label
_atom_site_fract_x
_atom_site_fract_y
_atom_site_fract_z
Si Si1 0.492590 0.592810 0.663870
Si Si2 0.357993 0.019398 0.251121
Si Si3 0.804924 0.491716 0.333388
Si Si4 0.083726 0.127820 0.332615
Si Si5 0.028116 0.427301 0.387201
Si Si6 0.957638 0.051239 0.810509
Si Si7 0.632861 0.055752 0.944030
Si Si8 0.206676 0.832787 0.839614
O O1 0.308349 0.376525 0.480089
O O2 0.306240 0.574763 0.561206
O O3 0.672739 0.580178 0.030697
O O4 0.680009 0.816385 0.624929
O O5 0.591932 0.238912 0.284253
O O6 0.154352 0.037165 0.009213
O O7 0.473180 0.011888 0.592023
O O8 0.243791 0.843370 0.091728
O O9 0.977842 0.538540 0.362492
O O10 0.968002 0.602607 0.636869
O O11 0.023062 0.109539 0.057958
O O12 0.163577 0.994838 0.599608
O O13 0.831877 0.033012 0.180159
O O14 0.814782 0.301468 0.052418
O O15 0.984801 0.234904 0.595052
O O16 0.439887 0.913049 0.964228
#
# Coordination Sequence:
#
# PCOD9000571 Si02
#       8
#     1   1   1   1   1   1   1   1
#     4  11  24  48  76 108 144 199 246 301 380 435
#     4  12  24  49  74 107 155 194 246 309 369 440
#     4  12  24  46  76 108 148 199 243 304 377 436
#     4  11  23  44  75 105 147 190 246 309 362 441
#     4  11  25  50  75 108 154 189 251 313 359 449
#     4  12  25  48  78 108 150 199 244 309 375 436
#     4  11  24  48  74 101 151 193 240 317 359 433
#     4  12  25  47  74 107 147 197 246 304 371 440
#
# _framework density 23.867894
#
# number of rings (size 3 to 8) (size 9 to 14) (size 15 to 20)
#    0.000    0.500    6.250    1.500    1.750    1.000 
#   11.250    0.000    0.000    0.000    0.000    0.000 
#    0.000    0.000    0.000    0.000    0.000    0.000 
#
# Total GULP energy -44874.744261 kJ/mol
# GULP energy per Si atom -5609.343033 kJ/mol
# Density = 2.381357 g / cm^3
# Si number density = 23.867894 Si / 1000 Ang^3
#
#
#
# Elastic Constant Matrix: (Units=GPa)
#
#
# Indices 1 2 3 4 5 6 
#
# 1 159.9417 18.0674 76.0138 16.7832 -2.2019 -7.1826
# 2 18.0674 67.6751 48.6470 8.7579 12.6863 -8.2862
# 3 76.0138 48.6470 147.3448 9.9283 -6.9068 -2.7629
# 4 16.7832 8.7579 9.9283 33.0553 12.3436 -14.1307
# 5 -2.2019 12.6863 -6.9068 12.3436 44.0592 21.4196
# 6 -7.1826 -8.2862 -2.7629 -14.1307 21.4196 14.4096
#
#
#
# Elastic Compliance Matrix: (Units=1/GPa)
#
#
# Indices 1 2 3 4 5 6 
#
# 1 0.008699 0.001330 -0.004648 -0.003836 0.000649 -0.000516
# 2 0.001330 0.015516 -0.004691 -0.015825 0.009443 -0.020870
# 3 -0.004648 -0.004691 0.010218 0.007397 -0.005024 0.011667
# 4 -0.003836 -0.015825 0.007397 0.003219 0.027952 -0.047987
# 5 0.000649 0.009443 -0.005024 0.027952 -0.015372 0.055052
# 6 -0.000516 -0.020870 0.011667 -0.047987 0.055052 -0.069515
#
#
# Mechanical properties :
#
#
# Convention : Reuss Voigt Hill
#
# Bulk Modulus (GPa) = 54.30156 73.37981 63.84068
# Shear Modulus (GPa) = -199.37743 33.78704 -82.79519
#
# Velocity S-wave (km/s) = -9.14959 3.76651 -5.89612
# Velocity P-wave (km/s) = 9.42443 7.05169 4.42117
#
# Compressibility (1/GPa) = 0.01841568
#
# Stress axis : x y z
#
# Youngs Moduli (GPa) = 114.95276 64.44937 97.86371
#
# Poissons Ratio (x) = -0.08573 0.45486
# Poissons Ratio (y) = -0.15292 0.45911
# Poissons Ratio (z) = 0.53428 0.30236
#
# Static dielectric constant tensor:
#      x y z
#    x 1.878280 -0.013180 -0.007330 
#    y -0.013180 1.895050 0.004810 
#    z -0.007330 0.004810 1.885850 
# 
# From -- ./inp_files/5512.got.cif
#   From: 2010.05.17/outbox.cif.g08.bks.cpg/sg1_3_cif.got.tgz:5512.got - 2010.05.17 20:27:59.
