data_PCOD9000305
_publ_section_title
;
Structure prediction by ZEFSAII (Michael W. Deem and Ramdas Pophale) SiO2 
 PCOD9000305
Probable space group: P 1
;
_chemical_formula_sum "Si O2"
_cell_formula_units_Z 8
_cell_length_a 12.526380
_cell_length_b 16.676861
_cell_length_c 4.942159
_cell_angle_alpha 126.586518
_cell_angle_beta 54.808916
_cell_angle_gamma 156.809283
_cell_volume 325.128299
_symmetry_space_group_name_H-M "P 1"
_symmetry_group_IT_number 1
_symmetry_cell_setting 'triclinic'
loop_
_space_group_symop_operation_xyz
x,y,z
loop_
_atom_site_type_symbol
_atom_site_label
_atom_site_fract_x
_atom_site_fract_y
_atom_site_fract_z
Si Si1 0.857820 0.666590 0.594250
Si Si2 0.982540 0.440914 0.390784
Si Si3 0.635442 0.048036 0.394154
Si Si4 0.277118 0.257822 0.685562
Si Si5 0.046786 0.189049 0.374586
Si Si6 0.344062 0.659514 0.801067
Si Si7 0.784055 0.830470 0.776407
Si Si8 0.103463 0.743903 0.892057
O O1 0.568982 0.416300 0.487996
O O2 0.788722 0.730225 0.720736
O O3 0.081020 0.766665 0.275142
O O4 0.959112 0.726000 0.870131
O O5 0.083148 0.495864 0.048959
O O6 0.742439 0.208523 0.371604
O O7 0.238869 0.585921 0.502515
O O8 0.939865 0.529778 0.679447
O O9 0.523214 0.879308 0.041081
O O10 0.886725 0.174366 0.458764
O O11 0.398618 0.921439 0.691704
O O12 0.150859 0.253837 0.655380
O O13 0.051697 0.021562 0.580613
O O14 0.291378 0.321749 0.083323
O O15 0.838305 0.956483 0.165058
O O16 0.520933 0.684814 0.696375
#
# Coordination Sequence:
#
# PCOD9000305 Si02
#       8
#     1   1   1   1   1   1   1   1
#     4  12  26  43  67  90 140 176 221 262 321 394
#     4  11  25  43  70  97 133 181 216 282 334 386
#     4  10  24  45  73  95 139 173 216 288 340 380
#     4  10  23  41  62 100 131 166 211 272 325 399
#     4   9  22  41  67 100 127 155 222 271 340 390
#     4  10  24  41  68 108 133 158 231 275 339 411
#     4   9  25  38  69  96 132 172 206 276 338 386
#     4  11  27  44  62 100 131 181 231 262 305 416
#
# _framework density 24.605672999999999
#
# number of rings (size 3 to 8) (size 9 to 14) (size 15 to 20)
#    0.750    1.000    0.000    2.250   10.500    6.000 
#    0.000    0.000    0.000    0.000    0.000    0.000 
#    0.000    0.000    0.000    0.000    0.000    0.000 
#
# Total GULP energy -44794.360784 kJ/mol
# GULP energy per Si atom -5599.295098 kJ/mol
# Density = 2.454967 g / cm^3
# Si number density = 24.605673 Si / 1000 Ang^3
#
#
#
# Elastic Constant Matrix: (Units=GPa)
#
#
# Indices 1 2 3 4 5 6 
#
# 1 93.8264 14.9266 4.3689 -1.9740 -1.3298 -13.8221
# 2 14.9266 100.4534 20.3467 -11.8894 -9.6260 -18.3953
# 3 4.3689 20.3467 57.7078 2.2343 2.3248 -5.4970
# 4 -1.9740 -11.8894 2.2343 34.5345 -4.1989 -7.8413
# 5 -1.3298 -9.6260 2.3248 -4.1989 37.5076 0.3706
# 6 -13.8221 -18.3953 -5.4970 -7.8413 0.3706 42.2202
#
#
#
# Elastic Compliance Matrix: (Units=1/GPa)
#
#
# Indices 1 2 3 4 5 6 
#
# 1 0.011354 -0.000797 -0.000301 0.001241 0.000320 0.003558
# 2 -0.000797 0.013335 -0.004491 0.006771 0.004369 0.006184
# 3 -0.000301 -0.004491 0.019154 -0.003159 -0.002703 -0.000124
# 4 0.001241 0.006771 -0.003159 0.034367 0.005733 0.009278
# 5 0.000320 0.004369 -0.002703 0.005733 0.028579 0.002471
# 6 0.003558 0.006184 -0.000124 0.009278 0.002471 0.029230
#
#
# Mechanical properties :
#
#
# Convention : Reuss Voigt Hill
#
# Bulk Modulus (GPa) = 30.61214 36.80798 33.71006
# Shear Modulus (GPa) = 31.62878 37.00884 34.31881
#
# Velocity S-wave (km/s) = 3.58917 3.88245 3.73869
# Velocity P-wave (km/s) = 5.44466 5.92364 5.68919
#
# Compressibility (1/GPa) = 0.03266678
#
# Stress axis : x y z
#
# Youngs Moduli (GPa) = 88.07778 74.98824 52.20809
#
# Poissons Ratio (x) = 0.05977 0.01569
# Poissons Ratio (y) = 0.07020 0.23445
# Poissons Ratio (z) = 0.02647 0.33674
#
# Static dielectric constant tensor:
#      x y z
#    x 1.889450 -0.005970 -0.006760 
#    y -0.005970 1.993370 0.018010 
#    z -0.006760 0.018010 1.918720 
# 
# From -- ./inp_files/2474.got.cif
#   From: 2010.05.17/outbox.cif.g08.bks.cpg/sg1_2_cif.got.tgz:2474.got - 2010.05.17 20:27:59.
