data_PCOD9000940
_publ_section_title
;
Structure prediction by ZEFSAII (Michael W. Deem and Ramdas Pophale) SiO2 
 PCOD9000940
Probable space group: P 1
;
_chemical_formula_sum "Si O2"
_cell_formula_units_Z 8
_cell_length_a 6.343687
_cell_length_b 9.362860
_cell_length_c 9.944024
_cell_angle_alpha 134.030505
_cell_angle_beta 56.658589
_cell_angle_gamma 101.497067
_cell_volume 337.941512
_symmetry_space_group_name_H-M "P 1"
_symmetry_group_IT_number 1
_symmetry_cell_setting 'triclinic'
loop_
_space_group_symop_operation_xyz
x,y,z
loop_
_atom_site_type_symbol
_atom_site_label
_atom_site_fract_x
_atom_site_fract_y
_atom_site_fract_z
Si Si1 0.086360 0.555790 0.047150
Si Si2 0.091710 0.824408 0.449251
Si Si3 0.040832 0.073386 0.141678
Si Si4 0.269840 0.476830 0.650262
Si Si5 0.884273 0.183482 0.964216
Si Si6 0.526045 0.999378 0.281578
Si Si7 0.497982 0.703764 0.880884
Si Si8 0.269039 0.449730 0.346612
O O1 0.955184 0.751802 0.319020
O O2 0.384133 0.574364 0.947595
O O3 0.051539 0.555482 0.896632
O O4 0.047280 0.344007 0.973949
O O5 0.199929 0.613890 0.359073
O O6 0.912421 0.005338 0.725420
O O7 0.337668 0.905974 0.375049
O O8 0.779238 0.046321 0.285755
O O9 0.115191 0.281376 0.279473
O O10 0.276788 0.885564 0.996881
O O11 0.987154 0.084429 0.007531
O O12 0.341371 0.228320 0.452523
O O13 0.184381 0.566787 0.593886
O O14 0.538946 0.532449 0.636150
O O15 0.580197 0.327327 0.167591
O O16 0.623196 0.842845 0.019054
#
# Coordination Sequence:
#
# PCOD9000940 Si02
#       8
#     1   1   1   1   1   1   1   1
#     4   9  22  43  70 101 140 178 239 287 343 423
#     4  11  24  48  73 102 140 190 231 290 362 407
#     4  12  23  44  66 105 143 182 232 286 354 418
#     4  10  20  45  67  99 140 177 228 296 335 412
#     4  12  24  46  71 103 150 179 232 303 345 416
#     4  11  22  45  70  97 140 184 237 288 341 426
#     4   9  21  41  68  93 134 181 234 279 342 416
#     4  12  26  46  71 110 143 181 241 287 354 426
#
# _framework density 23.672734999999999
#
# number of rings (size 3 to 8) (size 9 to 14) (size 15 to 20)
#    0.750    0.500    5.000    0.750    1.750    0.000 
#   13.500    5.000    0.000    0.000    0.000    0.000 
#    0.000    0.000    0.000    0.000    0.000    0.000 
#
# Total GULP energy -44562.203496 kJ/mol
# GULP energy per Si atom -5570.275437 kJ/mol
# Density = 2.361886 g / cm^3
# Si number density = 23.672735 Si / 1000 Ang^3
#
#
#
# Elastic Constant Matrix: (Units=GPa)
#
#
# Indices 1 2 3 4 5 6 
#
# 1 61.3490 55.0950 36.7479 3.8988 -5.6046 -6.4605
# 2 55.0950 135.8349 32.2770 16.5925 -0.8697 1.1390
# 3 36.7479 32.2770 151.9193 4.8201 16.9037 -5.3351
# 4 3.8988 16.5925 4.8201 43.5692 3.8570 12.1256
# 5 -5.6046 -0.8697 16.9037 3.8570 28.1986 8.7595
# 6 -6.4605 1.1390 -5.3351 12.1256 8.7595 21.8637
#
#
#
# Elastic Compliance Matrix: (Units=1/GPa)
#
#
# Indices 1 2 3 4 5 6 
#
# 1 0.031138 -0.011242 -0.005812 -0.000017 0.007682 0.005301
# 2 -0.011242 0.012245 0.000272 -0.003107 -0.001052 -0.001749
# 3 -0.005812 0.000272 0.008958 -0.001037 -0.007646 0.004093
# 4 -0.000017 -0.003107 -0.001037 0.028758 0.001796 -0.016765
# 5 0.007682 -0.001052 -0.007646 0.001796 0.047355 -0.019510
# 6 0.005301 -0.001749 0.004093 -0.016765 -0.019510 0.065508
#
#
# Mechanical properties :
#
#
# Convention : Reuss Voigt Hill
#
# Bulk Modulus (GPa) = 53.25520 66.37143 59.81331
# Shear Modulus (GPa) = 21.38718 33.72520 27.55619
#
# Velocity S-wave (km/s) = 3.00901 3.77854 3.41552
# Velocity P-wave (km/s) = 5.88366 6.86545 6.39343
#
# Compressibility (1/GPa) = 0.01877751
#
# Stress axis : x y z
#
# Youngs Moduli (GPa) = 32.11468 81.66915 111.63453
#
# Poissons Ratio (x) = 0.91812 0.64878
# Poissons Ratio (y) = 0.36103 -0.03037
# Poissons Ratio (z) = 0.18664 -0.02222
#
# Static dielectric constant tensor:
#      x y z
#    x 1.935580 0.038530 0.019840 
#    y 0.038530 1.894050 -0.019850 
#    z 0.019840 -0.019850 2.003020 
# 
# From -- ./inp_files/3995.got.cif
#   From: 2010.05.17/outbox.cif.g08.bks.cpg/sg1_2_cif.got.tgz:3995.got - 2010.05.17 20:27:59.
