data_PCOD9000961
_publ_section_title
;
Structure prediction by ZEFSAII (Michael W. Deem and Ramdas Pophale) SiO2 
 PCOD9000961
Probable space group: P 1
;
_chemical_formula_sum "Si O2"
_cell_formula_units_Z 8
_cell_length_a 9.224902
_cell_length_b 7.576988
_cell_length_c 8.239832
_cell_angle_alpha 38.157818
_cell_angle_beta 77.545298
_cell_angle_gamma 82.384047
_cell_volume 346.802678
_symmetry_space_group_name_H-M "P 1"
_symmetry_group_IT_number 1
_symmetry_cell_setting 'triclinic'
loop_
_space_group_symop_operation_xyz
x,y,z
loop_
_atom_site_type_symbol
_atom_site_label
_atom_site_fract_x
_atom_site_fract_y
_atom_site_fract_z
Si Si1 0.409640 0.244460 0.857000
Si Si2 0.790881 0.630667 0.970307
Si Si3 0.798443 0.103443 0.143335
Si Si4 0.638975 0.600929 0.706947
Si Si5 0.260026 0.515878 0.149151
Si Si6 0.518166 0.611270 0.255548
Si Si7 0.108341 0.995350 0.016065
Si Si8 0.108013 0.961852 0.679118
O O1 0.478323 0.445110 0.836732
O O2 0.471316 0.394607 0.567800
O O3 0.232776 0.198239 0.926634
O O4 0.468783 0.927911 0.077425
O O5 0.683785 0.725833 0.781509
O O6 0.947424 0.809207 0.793348
O O7 0.817156 0.303614 0.153342
O O8 0.227556 0.725349 0.856778
O O9 0.952666 0.978539 0.153459
O O10 0.676291 0.849785 0.390719
O O11 0.746632 0.334905 0.858058
O O12 0.423028 0.502615 0.197196
O O13 0.693053 0.634369 0.152926
O O14 0.174202 0.688997 0.186531
O O15 0.177798 0.206165 0.369593
O O16 0.089641 0.104072 0.758179
#
# Coordination Sequence:
#
# PCOD9000961 Si02
#       8
#     1   1   1   1   1   1   1   1
#     4  11  23  40  65  93 114 162 202 255 292 354
#     4  10  27  39  61  91 127 162 193 248 305 363
#     4  10  24  42  58  90 124 163 196 244 303 363
#     4  10  25  42  58  91 126 159 204 234 313 355
#     4   9  20  37  61  90 115 151 201 251 292 341
#     4  11  22  41  64  91 122 153 208 248 300 352
#     4   9  22  39  65  87 120 150 210 246 297 344
#     4  10  21  38  62  91 116 152 206 244 298 344
#
# _framework density 23.067874
#
# number of rings (size 3 to 8) (size 9 to 14) (size 15 to 20)
#    1.500    0.500    1.250    0.750    8.750    0.000 
#    2.250    0.000    0.000    0.000    0.000    0.000 
#    0.000    0.000    0.000    0.000    0.000    0.000 
#
# Total GULP energy -44620.081238 kJ/mol
# GULP energy per Si atom -5577.510155 kJ/mol
# Density = 2.301537 g / cm^3
# Si number density = 23.067874 Si / 1000 Ang^3
#
#
#
# Elastic Constant Matrix: (Units=GPa)
#
#
# Indices 1 2 3 4 5 6 
#
# 1 67.0164 27.4056 0.5222 -11.4548 -9.0137 14.1961
# 2 27.4056 45.8817 11.1616 -11.6280 -0.0705 17.5538
# 3 0.5222 11.1616 109.2075 -29.3232 8.4889 1.9145
# 4 -11.4548 -11.6280 -29.3232 32.3292 11.1135 -8.2441
# 5 -9.0137 -0.0705 8.4889 11.1135 21.0195 -2.2940
# 6 14.1961 17.5538 1.9145 -8.2441 -2.2940 44.2110
#
#
#
# Elastic Compliance Matrix: (Units=1/GPa)
#
#
# Indices 1 2 3 4 5 6 
#
# 1 0.021481 -0.012272 0.000646 0.000475 0.008492 -0.001524
# 2 -0.012272 0.034947 0.000316 0.010320 -0.011671 -0.008630
# 3 0.000646 0.000316 0.016253 0.021631 -0.017495 0.002089
# 4 0.000475 0.010320 0.021631 0.071633 -0.045739 0.005798
# 5 0.008492 -0.011671 -0.017495 -0.045739 0.082252 -0.001596
# 6 -0.001524 -0.008630 0.002089 0.005798 -0.001596 0.027443
#
#
# Mechanical properties :
#
#
# Convention : Reuss Voigt Hill
#
# Bulk Modulus (GPa) = 19.97498 33.36493 26.66995
# Shear Modulus (GPa) = 17.04652 31.71303 24.37977
#
# Velocity S-wave (km/s) = 2.72135 3.71181 3.25448
# Velocity P-wave (km/s) = 4.30725 5.73282 5.07039
#
# Compressibility (1/GPa) = 0.05006262
#
# Stress axis : x y z
#
# Youngs Moduli (GPa) = 46.55222 28.61436 61.52792
#
# Poissons Ratio (x) = 0.35114 -0.03973
# Poissons Ratio (y) = 0.57127 -0.01947
# Poissons Ratio (z) = -0.03006 -0.00905
#
# Static dielectric constant tensor:
#      x y z
#    x 1.861220 0.036170 0.021560 
#    y 0.036170 1.904260 0.049080 
#    z 0.021560 0.049080 1.840310 
# 
# From -- ./inp_files/4022.got.cif
#   From: 2010.05.17/outbox.cif.g08.bks.cpg/sg1_3_cif.got.tgz:4022.got - 2010.05.17 20:27:59.
