data_PCOD9000299
_publ_section_title
;
Structure prediction by ZEFSAII (Michael W. Deem and Ramdas Pophale) SiO2 
 PCOD9000299
Probable space group: P 1
;
_chemical_formula_sum "Si O2"
_cell_formula_units_Z 8
_cell_length_a 12.010981
_cell_length_b 9.727647
_cell_length_c 5.113099
_cell_angle_alpha 92.309499
_cell_angle_beta 74.470491
_cell_angle_gamma 37.837537
_cell_volume 319.455205
_symmetry_space_group_name_H-M "P 1"
_symmetry_group_IT_number 1
_symmetry_cell_setting 'triclinic'
loop_
_space_group_symop_operation_xyz
x,y,z
loop_
_atom_site_type_symbol
_atom_site_label
_atom_site_fract_x
_atom_site_fract_y
_atom_site_fract_z
Si Si1 0.406490 0.741100 0.859420
Si Si2 0.394352 0.485131 0.139445
Si Si3 0.987924 0.291072 0.078469
Si Si4 0.487432 0.112574 0.171718
Si Si5 0.823012 0.905228 0.339126
Si Si6 0.713079 0.302298 0.263399
Si Si7 0.093504 0.605331 0.641825
Si Si8 0.748437 0.605582 0.766847
O O1 0.516056 0.583727 0.513305
O O2 0.600307 0.617487 0.880728
O O3 0.318029 0.688454 0.035979
O O4 0.229819 0.029507 0.957220
O O5 0.618771 0.314445 0.081751
O O6 0.227094 0.610336 0.478933
O O7 0.445452 0.278989 0.002748
O O8 0.897532 0.225294 0.105012
O O9 0.862346 0.486471 0.408181
O O10 0.922709 0.429907 0.866022
O O11 0.261132 0.319461 0.460337
O O12 0.592924 0.882854 0.945156
O O13 0.635095 0.016750 0.310953
O O14 0.008072 0.702861 0.993148
O O15 0.911403 0.771153 0.553162
O O16 0.773160 0.117445 0.401903
#
# Coordination Sequence:
#
# PCOD9000299 Si02
#       8
#     1   1   1   1   1   1   1   1
#     4  11  24  43  70  96 140 173 221 276 336 387
#     4   9  21  42  67  97 131 174 210 282 330 387
#     4  11  26  42  73  93 137 179 226 266 331 398
#     4   9  25  45  69  97 139 173 222 278 331 391
#     4  11  24  41  66  99 135 167 220 269 335 392
#     4  10  23  39  64 102 132 173 216 278 327 394
#     4  10  25  40  65 101 129 176 213 273 330 394
#     4  11  26  48  64 103 131 181 224 272 324 403
#
# _framework density 25.042632999999999
#
# number of rings (size 3 to 8) (size 9 to 14) (size 15 to 20)
#    0.750    1.000    1.250    0.750    8.750    5.000 
#    2.250    0.000    0.000    0.000    0.000    0.000 
#    0.000    0.000    0.000    0.000    0.000    0.000 
#
# Total GULP energy -44720.430067 kJ/mol
# GULP energy per Si atom -5590.053758 kJ/mol
# Density = 2.498564 g / cm^3
# Si number density = 25.042633 Si / 1000 Ang^3
#
#
#
# Elastic Constant Matrix: (Units=GPa)
#
#
# Indices 1 2 3 4 5 6 
#
# 1 73.9987 18.4551 25.7342 -1.5488 2.2089 -1.5560
# 2 18.4551 93.8260 28.1289 14.3325 14.3366 -15.7591
# 3 25.7342 28.1289 109.4576 5.6568 17.2470 -4.1244
# 4 -1.5488 14.3325 5.6568 40.6012 0.5822 -0.3162
# 5 2.2089 14.3366 17.2470 0.5822 35.0919 10.6303
# 6 -1.5560 -15.7591 -4.1244 -0.3162 10.6303 35.7089
#
#
#
# Elastic Compliance Matrix: (Units=1/GPa)
#
#
# Indices 1 2 3 4 5 6 
#
# 1 0.015375 -0.002981 -0.003401 0.002064 0.002414 -0.001739
# 2 -0.002981 0.015076 -0.001349 -0.005068 -0.007848 0.008659
# 3 -0.003401 -0.001349 0.011275 -0.001130 -0.005412 0.002160
# 4 0.002064 -0.005068 -0.001130 0.026590 0.002938 -0.002916
# 5 0.002414 -0.007848 -0.005412 0.002938 0.038865 -0.015527
# 6 -0.001739 0.008659 0.002160 -0.002916 -0.015527 0.036596
#
#
# Mechanical properties :
#
#
# Convention : Reuss Voigt Hill
#
# Bulk Modulus (GPa) = 38.07475 46.87986 42.47731
# Shear Modulus (GPa) = 29.76309 35.94470 32.85390
#
# Velocity S-wave (km/s) = 3.45120 3.79270 3.62597
# Velocity P-wave (km/s) = 5.57835 6.15955 5.87614
#
# Compressibility (1/GPa) = 0.02626412
#
# Stress axis : x y z
#
# Youngs Moduli (GPa) = 65.04264 66.32884 88.69388
#
# Poissons Ratio (x) = 0.19770 0.30167
# Poissons Ratio (y) = 0.19387 0.11964
# Poissons Ratio (z) = 0.22123 0.08947
#
# Static dielectric constant tensor:
#      x y z
#    x 2.028140 0.020850 -0.015530 
#    y 0.020850 2.016290 -0.014280 
#    z -0.015530 -0.014280 1.997580 
# 
# From -- ./inp_files/2790.got.cif
#   From: 2010.05.17/outbox.cif.g08.bks.cpg/sg1_2_cif.got.tgz:2790.got - 2010.05.17 20:27:59.
