data_PCOD9000587
_publ_section_title
;
Structure prediction by ZEFSAII (Michael W. Deem and Ramdas Pophale) SiO2 
 PCOD9000587
Probable space group: P 1
;
_chemical_formula_sum "Si O2"
_cell_formula_units_Z 8
_cell_length_a 11.568987
_cell_length_b 5.103123
_cell_length_c 11.697938
_cell_angle_alpha 108.760592
_cell_angle_beta 153.878002
_cell_angle_gamma 71.293332
_cell_volume 287.067685
_symmetry_space_group_name_H-M "P 1"
_symmetry_group_IT_number 1
_symmetry_cell_setting 'triclinic'
loop_
_space_group_symop_operation_xyz
x,y,z
loop_
_atom_site_type_symbol
_atom_site_label
_atom_site_fract_x
_atom_site_fract_y
_atom_site_fract_z
Si Si1 0.848770 0.617020 0.026380
Si Si2 0.929384 0.735458 0.684966
Si Si3 0.619320 0.278989 0.231435
Si Si4 0.195604 0.697130 0.135955
Si Si5 0.520335 0.166952 0.391141
Si Si6 0.312251 0.423917 0.579148
Si Si7 0.907262 0.135674 0.293740
Si Si8 0.181044 0.915873 0.708476
O O1 0.954392 0.704703 0.010556
O O2 0.093251 0.471893 0.293273
O O3 0.786432 0.903674 0.081136
O O4 0.603866 0.428350 0.790244
O O5 0.706285 0.554771 0.411584
O O6 0.799612 0.025054 0.661480
O O7 0.111811 0.793595 0.749729
O O8 0.090421 0.578979 0.906950
O O9 0.553159 0.127747 0.278343
O O10 0.731745 0.407732 0.205204
O O11 0.375386 0.152905 0.930769
O O12 0.421387 0.486938 0.362435
O O13 0.312679 0.983444 0.244766
O O14 0.269310 0.681276 0.663985
O O15 0.197777 0.170294 0.510858
O O16 0.910386 0.065187 0.427169
#
# Coordination Sequence:
#
# PCOD9000587 Si02
#       8
#     1   1   1   1   1   1   1   1
#     4  11  29  53  74 115 160 221 283 341 404 498
#     4  12  27  49  80 120 166 215 267 349 428 501
#     4  12  24  43  78 118 161 203 267 340 427 498
#     4  12  31  54  81 116 167 223 282 341 410 501
#     4  12  28  50  79 119 159 218 274 336 419 496
#     4  11  26  48  77 114 159 212 275 339 416 489
#     4  11  25  44  81 114 156 212 266 345 420 496
#     4  11  24  43  74 118 160 204 266 339 426 501
#
# _framework density 27.867992000000001
#
# number of rings (size 3 to 8) (size 9 to 14) (size 15 to 20)
#    0.000    0.500    6.250    0.000    8.750    1.000 
#    0.000    0.000    0.000    0.000    0.000    0.000 
#    0.000    0.000    0.000    0.000    0.000    0.000 
#
# Total GULP energy -44716.114929 kJ/mol
# GULP energy per Si atom -5589.514366 kJ/mol
# Density = 2.780456 g / cm^3
# Si number density = 27.867992 Si / 1000 Ang^3
#
#
#
# Elastic Constant Matrix: (Units=GPa)
#
#
# Indices 1 2 3 4 5 6 
#
# 1 182.5602 33.5392 39.2491 3.6420 27.8986 44.5557
# 2 33.5392 106.4861 36.8813 10.2241 8.5853 20.8539
# 3 39.2491 36.8813 144.5713 2.6641 24.5199 26.5571
# 4 3.6420 10.2241 2.6641 42.7957 15.0691 12.1482
# 5 27.8986 8.5853 24.5199 15.0691 42.5485 12.0023
# 6 44.5557 20.8539 26.5571 12.1482 12.0023 47.7651
#
#
#
# Elastic Compliance Matrix: (Units=1/GPa)
#
#
# Indices 1 2 3 4 5 6 
#
# 1 0.007851 -0.001142 0.000003 0.002904 -0.004104 -0.006533
# 2 -0.001142 0.011093 -0.002274 -0.002206 0.001241 -0.002265
# 3 0.000003 -0.002274 0.008860 0.002585 -0.004594 -0.003439
# 4 0.002904 -0.002206 0.002585 0.029686 -0.011231 -0.007912
# 5 -0.004104 0.001241 -0.004594 -0.011231 0.032413 0.000553
# 6 -0.006533 -0.002265 -0.003439 -0.007912 0.000553 0.031804
#
#
# Mechanical properties :
#
#
# Convention : Reuss Voigt Hill
#
# Bulk Modulus (GPa) = 47.67019 72.55076 60.11047
# Shear Modulus (GPa) = 36.89347 48.21839 42.55593
#
# Velocity S-wave (km/s) = 3.64244 4.16413 3.91199
# Velocity P-wave (km/s) = 5.90192 7.01500 6.48240
#
# Compressibility (1/GPa) = 0.02097747
#
# Stress axis : x y z
#
# Youngs Moduli (GPa) = 127.37678 90.14424 112.87244
#
# Poissons Ratio (x) = 0.10295 -0.00031
# Poissons Ratio (y) = 0.14548 0.25664
# Poissons Ratio (z) = -0.00035 0.20496
#
# Static dielectric constant tensor:
#      x y z
#    x 2.480780 0.170720 0.021950 
#    y 0.170720 2.270280 -0.118940 
#    z 0.021950 -0.118940 2.213320 
# 
# From -- ./inp_files/477.got.cif
#   From: 2010.05.17/outbox.cif.g08.bks.cpg/sg1_1_cif.got.tgz:477.got - 2010.05.17 20:27:59.
