data_PCOD9000235
_publ_section_title
;
Structure prediction by ZEFSAII (Michael W. Deem and Ramdas Pophale) SiO2 
 PCOD9000235
Probable space group: P 1
;
_chemical_formula_sum "Si O2"
_cell_formula_units_Z 8
_cell_length_a 11.282256
_cell_length_b 5.118033
_cell_length_c 10.790672
_cell_angle_alpha 96.176610
_cell_angle_beta 152.613480
_cell_angle_gamma 83.334300
_cell_volume 284.662187
_symmetry_space_group_name_H-M "P 1"
_symmetry_group_IT_number 1
_symmetry_cell_setting 'triclinic'
loop_
_space_group_symop_operation_xyz
x,y,z
loop_
_atom_site_type_symbol
_atom_site_label
_atom_site_fract_x
_atom_site_fract_y
_atom_site_fract_z
Si Si1 0.671370 0.097270 0.461850
Si Si2 0.984777 0.839019 0.072883
Si Si3 0.046811 0.735082 0.707931
Si Si4 0.371514 0.968767 0.806089
Si Si5 0.692023 0.337468 0.232190
Si Si6 0.755805 0.531268 0.060064
Si Si7 0.352122 0.604026 0.206781
Si Si8 0.437503 0.118661 0.602521
O O1 0.672033 0.124938 0.313749
O O2 0.558841 0.371857 0.423890
O O3 0.959423 0.971321 0.734276
O O4 0.494443 0.872812 0.334422
O O5 0.949893 0.668921 0.156836
O O6 0.184008 0.075748 0.283731
O O7 0.121169 0.644935 0.090703
O O8 0.695753 0.958639 0.784255
O O9 0.811565 0.566635 0.434979
O O10 0.173365 0.853694 0.710670
O O11 0.233904 0.552526 0.958367
O O12 0.618255 0.761354 0.027376
O O13 0.344191 0.985434 0.635772
O O14 0.427105 0.264960 0.914830
O O15 0.857945 0.334741 0.255610
O O16 0.556253 0.388009 0.776059
#
# Coordination Sequence:
#
# PCOD9000235 Si02
#       8
#     1   1   1   1   1   1   1   1
#     4  12  27  51  74 119 156 207 272 327 403 481
#     4  11  27  51  75 111 157 212 273 330 404 480
#     4  12  26  47  81 113 159 217 253 339 408 483
#     4  10  22  43  72 112 155 196 261 326 404 476
#     4  11  22  43  75 111 153 197 261 322 402 475
#     4  10  23  46  76 114 155 205 266 335 402 486
#     4  12  30  52  78 115 164 212 273 333 398 489
#     4  10  25  47  75 111 149 208 265 332 401 478
#
# _framework density 28.103484999999999
#
# number of rings (size 3 to 8) (size 9 to 14) (size 15 to 20)
#    0.000    1.000    2.500    2.250    5.250    9.000 
#    2.250    0.000    0.000    0.000    0.000    0.000 
#    0.000    0.000    0.000    0.000    0.000    0.000 
#
# Total GULP energy -44695.338894 kJ/mol
# GULP energy per Si atom -5586.917362 kJ/mol
# Density = 2.803952 g / cm^3
# Si number density = 28.103485 Si / 1000 Ang^3
#
#
#
# Elastic Constant Matrix: (Units=GPa)
#
#
# Indices 1 2 3 4 5 6 
#
# 1 188.0745 60.7994 49.5267 12.7067 42.3411 -19.4006
# 2 60.7994 142.4127 50.9815 25.4488 24.0227 -7.5711
# 3 49.5267 50.9815 134.3028 23.0298 10.2853 -0.5186
# 4 12.7067 25.4488 23.0298 46.3488 -4.3842 14.7205
# 5 42.3411 24.0227 10.2853 -4.3842 42.1453 2.0465
# 6 -19.4006 -7.5711 -0.5186 14.7205 2.0465 40.9114
#
#
#
# Elastic Compliance Matrix: (Units=1/GPa)
#
#
# Indices 1 2 3 4 5 6 
#
# 1 0.008810 -0.000690 -0.001620 -0.003928 -0.008757 0.005881
# 2 -0.000690 0.010357 -0.002168 -0.006241 -0.005529 0.004084
# 3 -0.001620 -0.002168 0.009359 -0.002995 0.000267 0.000013
# 4 -0.003928 -0.006241 -0.002995 0.033781 0.012517 -0.015836
# 5 -0.008757 -0.005529 0.000267 0.012517 0.037474 -0.011551
# 6 0.005881 0.004084 0.000013 -0.015836 -0.011551 0.034264
#
#
# Mechanical properties :
#
#
# Convention : Reuss Voigt Hill
#
# Bulk Modulus (GPa) = 51.09532 87.48947 69.29239
# Shear Modulus (GPa) = 33.43914 46.11326 39.77620
#
# Velocity S-wave (km/s) = 3.45317 4.05512 3.76619
# Velocity P-wave (km/s) = 5.84122 7.28863 6.60469
#
# Compressibility (1/GPa) = 0.01957127
#
# Stress axis : x y z
#
# Youngs Moduli (GPa) = 113.50731 96.54878 106.84342
#
# Poissons Ratio (x) = 0.06658 0.17312
# Poissons Ratio (y) = 0.07827 0.23164
# Poissons Ratio (z) = 0.18391 0.20932
#
# Static dielectric constant tensor:
#      x y z
#    x 2.165380 -0.022950 -0.001400 
#    y -0.022950 2.358210 -0.093960 
#    z -0.001400 -0.093960 2.173940 
# 
# From -- ./inp_files/2373.got.cif
#   From: 2010.05.17/outbox.cif.g08.bks.cpg/sg1_2_cif.got.tgz:2373.got - 2010.05.17 20:27:59.
