data_PCOD9000471
_publ_section_title
;
Structure prediction by ZEFSAII (Michael W. Deem and Ramdas Pophale) SiO2 
 PCOD9000471
Probable space group: P 1
;
_chemical_formula_sum "Si O2"
_cell_formula_units_Z 8
_cell_length_a 11.844827
_cell_length_b 5.133100
_cell_length_c 8.548551
_cell_angle_alpha 90.683308
_cell_angle_beta 139.362236
_cell_angle_gamma 91.047623
_cell_volume 338.182620
_symmetry_space_group_name_H-M "P 1"
_symmetry_group_IT_number 1
_symmetry_cell_setting 'triclinic'
loop_
_space_group_symop_operation_xyz
x,y,z
loop_
_atom_site_type_symbol
_atom_site_label
_atom_site_fract_x
_atom_site_fract_y
_atom_site_fract_z
Si Si1 0.732470 0.199540 0.802090
Si Si2 0.622176 0.824017 0.450897
Si Si3 0.753591 0.589457 0.291915
Si Si4 0.103452 0.833384 0.520885
Si Si5 0.105590 0.341964 0.302739
Si Si6 0.619829 0.078651 0.025192
Si Si7 0.370998 0.138974 0.996099
Si Si8 0.378844 0.440348 0.313644
O O1 0.569806 0.343581 0.560151
O O2 0.759745 0.961450 0.710932
O O3 0.655766 0.089000 0.881406
O O4 0.910361 0.359977 0.026013
O O5 0.707048 0.614287 0.425772
O O6 0.443844 0.738957 0.354041
O O7 0.546462 0.027222 0.250667
O O8 0.761400 0.291413 0.245448
O O9 0.925755 0.745848 0.418923
O O10 0.616249 0.772054 0.061297
O O11 0.149087 0.581806 0.466444
O O12 0.096032 0.072848 0.391027
O O13 0.228653 0.923240 0.794955
O O14 0.242516 0.364032 0.303877
O O15 0.447100 0.217249 0.905755
O O16 0.317393 0.333260 0.077008
#
# Coordination Sequence:
#
# PCOD9000471 Si02
#       8
#     1   1   1   1   1   1   1   1
#     4  11  25  46  71 106 138 191 230 294 351 419
#     4  10  25  44  69 103 139 189 232 282 361 417
#     4  11  22  45  68  98 138 175 235 284 338 414
#     4  12  26  48  70 106 138 185 238 294 346 412
#     4  12  29  47  72 108 142 184 240 289 353 420
#     4  11  22  43  70  98 135 178 236 283 339 414
#     4  10  25  44  68 102 139 187 232 290 349 414
#     4  11  26  47  70 103 147 187 231 290 355 422
#
# _framework density 23.655857999999998
#
# number of rings (size 3 to 8) (size 9 to 14) (size 15 to 20)
#    0.000    1.000    3.750    0.750   12.250    1.000 
#    2.250    0.000    0.000    0.000    0.000    0.000 
#    0.000    0.000    0.000    0.000    0.000    0.000 
#
# Total GULP energy -44601.767007 kJ/mol
# GULP energy per Si atom -5575.220876 kJ/mol
# Density = 2.360202 g / cm^3
# Si number density = 23.655858 Si / 1000 Ang^3
#
#
#
# Elastic Constant Matrix: (Units=GPa)
#
#
# Indices 1 2 3 4 5 6 
#
# 1 117.4593 18.2952 14.6136 -10.3628 11.2305 18.2204
# 2 18.2952 101.6212 23.5191 13.4940 2.8321 9.9348
# 3 14.6136 23.5191 94.8970 17.4152 1.3627 -5.8938
# 4 -10.3628 13.4940 17.4152 23.6387 0.9501 -1.2075
# 5 11.2305 2.8321 1.3627 0.9501 27.7573 12.3791
# 6 18.2204 9.9348 -5.8938 -1.2075 12.3791 35.4230
#
#
#
# Elastic Compliance Matrix: (Units=1/GPa)
#
#
# Indices 1 2 3 4 5 6 
#
# 1 0.010738 -0.001797 -0.002865 0.007710 -0.002311 -0.004425
# 2 -0.001797 0.011693 -0.001660 -0.006462 0.001313 -0.003311
# 3 -0.002865 -0.001660 0.013495 -0.010006 -0.000836 0.004136
# 4 0.007710 -0.006462 -0.010006 0.056859 -0.003645 -0.000607
# 5 -0.002311 0.001313 -0.000836 -0.003645 0.043529 -0.014655
# 6 -0.004425 -0.003311 0.004136 -0.000607 -0.014655 0.037224
#
#
# Mechanical properties :
#
#
# Convention : Reuss Voigt Hill
#
# Bulk Modulus (GPa) = 42.95002 47.42589 45.18796
# Shear Modulus (GPa) = 25.78085 34.53379 30.15732
#
# Velocity S-wave (km/s) = 3.30484 3.82493 3.57436
# Velocity P-wave (km/s) = 5.72348 6.29274 6.01485
#
# Compressibility (1/GPa) = 0.02328287
#
# Stress axis : x y z
#
# Youngs Moduli (GPa) = 93.13134 85.51952 74.09937
#
# Poissons Ratio (x) = 0.15367 0.21228
# Poissons Ratio (y) = 0.16735 0.12300
# Poissons Ratio (z) = 0.26680 0.14196
#
# Static dielectric constant tensor:
#      x y z
#    x 1.959230 0.048080 0.014760 
#    y 0.048080 2.086960 -0.036650 
#    z 0.014760 -0.036650 1.983880 
# 
# From -- ./inp_files/1040.got.cif
#   From: 2010.05.17/outbox.cif.g08.bks.cpg/sg1_1_cif.got.tgz:1040.got - 2010.05.17 20:27:59.
