data_PCOD9000207
_publ_section_title
;
Structure prediction by ZEFSAII (Michael W. Deem and Ramdas Pophale) SiO2 
 PCOD9000207
Probable space group: P 1
;
_chemical_formula_sum "Si O2"
_cell_formula_units_Z 8
_cell_length_a 10.794031
_cell_length_b 14.014722
_cell_length_c 9.509718
_cell_angle_alpha 27.261454
_cell_angle_beta 139.810233
_cell_angle_gamma 150.943562
_cell_volume 319.472811
_symmetry_space_group_name_H-M "P 1"
_symmetry_group_IT_number 1
_symmetry_cell_setting 'triclinic'
loop_
_space_group_symop_operation_xyz
x,y,z
loop_
_atom_site_type_symbol
_atom_site_label
_atom_site_fract_x
_atom_site_fract_y
_atom_site_fract_z
Si Si1 0.342330 0.393540 0.527500
Si Si2 0.467023 0.911815 0.308208
Si Si3 0.476494 0.424498 0.913520
Si Si4 0.162824 0.178907 0.235439
Si Si5 0.339507 0.761021 0.711213
Si Si6 0.053347 0.858261 0.833282
Si Si7 0.763691 0.412476 0.731053
Si Si8 0.619905 0.991756 0.929324
O O1 0.355116 0.312742 0.801459
O O2 0.584533 0.472896 0.545710
O O3 0.393599 0.676403 0.201322
O O4 0.094958 0.114479 0.608109
O O5 0.483881 0.679833 0.602524
O O6 0.414547 0.900193 0.441958
O O7 0.242998 0.849028 0.099087
O O8 0.715267 0.206389 0.079759
O O9 0.770232 0.568769 0.977105
O O10 0.323160 0.235580 0.162433
O O11 0.298444 0.480014 0.028580
O O12 0.116193 0.960997 0.591658
O O13 0.887922 0.069585 0.091119
O O14 0.554551 0.962603 0.747932
O O15 0.062447 0.653000 0.653985
O O16 0.652561 0.229651 0.731136
#
# Coordination Sequence:
#
# PCOD9000207 Si02
#       8
#     1   1   1   1   1   1   1   1
#     4  11  23  42  69 101 132 183 224 276 348 401
#     4  10  23  43  69 100 136 174 231 281 331 412
#     4  11  23  46  70 100 140 181 226 283 344 406
#     4  10  22  42  72 102 133 179 232 278 341 412
#     4  10  22  44  69  98 134 183 223 282 345 399
#     4  11  23  44  67 103 140 173 234 281 334 414
#     4  10  23  44  66  98 138 173 232 278 333 416
#     4  11  21  45  72  96 137 182 224 283 346 400
#
# _framework density 25.041255
#
# number of rings (size 3 to 8) (size 9 to 14) (size 15 to 20)
#    0.000    1.500    3.750    0.750    0.000    6.000 
#    4.500    6.250    0.000    0.000    0.000    0.000 
#    0.000    0.000    0.000    0.000    0.000    0.000 
#
# Total GULP energy -44820.571301 kJ/mol
# GULP energy per Si atom -5602.571413 kJ/mol
# Density = 2.498426 g / cm^3
# Si number density = 25.041255 Si / 1000 Ang^3
#
#
#
# Elastic Constant Matrix: (Units=GPa)
#
#
# Indices 1 2 3 4 5 6 
#
# 1 107.4700 50.6379 41.1029 12.5581 -37.0139 -16.8939
# 2 50.6379 98.3764 41.5458 14.1773 -21.9644 -14.0816
# 3 41.1029 41.5458 100.6017 6.1474 -7.8888 -20.1707
# 4 12.5581 14.1773 6.1474 50.3096 -7.2000 2.5167
# 5 -37.0139 -21.9644 -7.8888 -7.2000 49.3260 4.5080
# 6 -16.8939 -14.0816 -20.1707 2.5167 4.5080 33.3929
#
#
#
# Elastic Compliance Matrix: (Units=1/GPa)
#
#
# Indices 1 2 3 4 5 6 
#
# 1 0.016618 -0.004277 -0.003539 -0.001314 0.009508 0.003281
# 2 -0.004277 0.015116 -0.003800 -0.002475 0.002390 0.001779
# 3 -0.003539 -0.003800 0.013844 -0.000389 -0.002681 0.005361
# 4 -0.001314 -0.002475 -0.000389 0.021323 0.001303 -0.003726
# 5 0.009508 0.002390 -0.002681 0.001303 0.028207 0.000293
# 6 0.003281 0.001779 0.005361 -0.003726 0.000293 0.035836
#
#
# Mechanical properties :
#
#
# Convention : Reuss Voigt Hill
#
# Bulk Modulus (GPa) = 44.75278 63.66904 54.21091
# Shear Modulus (GPa) = 30.93594 38.14982 34.54288
#
# Velocity S-wave (km/s) = 3.51864 3.90741 3.71811
# Velocity P-wave (km/s) = 5.86670 6.77038 6.33467
#
# Compressibility (1/GPa) = 0.02234498
#
# Stress axis : x y z
#
# Youngs Moduli (GPa) = 60.17658 66.15371 72.23427
#
# Poissons Ratio (x) = 0.28296 0.25567
# Poissons Ratio (y) = 0.25739 0.27447
# Poissons Ratio (z) = 0.21299 0.25136
#
# Static dielectric constant tensor:
#      x y z
#    x 2.016240 -0.046290 0.052320 
#    y -0.046290 1.949310 -0.025070 
#    z 0.052320 -0.025070 1.991310 
# 
# From -- ./inp_files/5595.got.cif
#   From: 2010.05.17/outbox.cif.g08.bks.cpg/sg1_3_cif.got.tgz:5595.got - 2010.05.17 20:27:59.
