data_PCOD9000384
_publ_section_title
;
Structure prediction by ZEFSAII (Michael W. Deem and Ramdas Pophale) SiO2 
 PCOD9000384
Probable space group: P 1
;
_chemical_formula_sum "Si O2"
_cell_formula_units_Z 8
_cell_length_a 10.073794
_cell_length_b 5.314151
_cell_length_c 8.883435
_cell_angle_alpha 70.698414
_cell_angle_beta 61.178565
_cell_angle_gamma 110.937164
_cell_volume 307.009622
_symmetry_space_group_name_H-M "P 1"
_symmetry_group_IT_number 1
_symmetry_cell_setting 'triclinic'
loop_
_space_group_symop_operation_xyz
x,y,z
loop_
_atom_site_type_symbol
_atom_site_label
_atom_site_fract_x
_atom_site_fract_y
_atom_site_fract_z
Si Si1 0.623990 0.151760 0.056550
Si Si2 0.293576 0.454818 0.523215
Si Si3 0.998460 0.298481 0.953524
Si Si4 0.497273 0.438159 0.703198
Si Si5 0.686541 0.830238 0.805316
Si Si6 0.107866 0.115693 0.410125
Si Si7 0.898565 0.677328 0.339857
Si Si8 0.190415 0.668799 0.048733
O O1 0.425355 0.828829 0.302934
O O2 0.811575 0.273606 0.029660
O O3 0.626012 0.470714 0.971168
O O4 0.654963 0.020737 0.909811
O O5 0.420313 0.473131 0.583850
O O6 0.233560 0.190164 0.472774
O O7 0.094557 0.322553 0.738913
O O8 0.177179 0.616361 0.888443
O O9 0.939383 0.979387 0.151904
O O10 0.567767 0.723112 0.734666
O O11 0.681482 0.461457 0.555722
O O12 0.328950 0.064291 0.932850
O O13 0.911281 0.039109 0.594104
O O14 0.224638 0.451990 0.175402
O O15 0.029378 0.817196 0.392378
O O16 0.968193 0.508161 0.237878
#
# Coordination Sequence:
#
# PCOD9000384 Si02
#       8
#     1   1   1   1   1   1   1   1
#     4  12  28  50  76 110 153 197 250 308 372 441
#     4  12  25  45  74 112 146 192 253 308 368 441
#     4  11  25  45  70 110 147 196 244 312 369 441
#     4  11  25  45  75 112 141 197 245 308 371 446
#     4  11  28  51  77 105 157 198 246 306 378 442
#     4  10  25  46  72 106 144 197 244 308 366 448
#     4  10  23  47  70 102 147 195 241 305 376 441
#     4  11  25  45  76 101 151 192 251 299 378 446
#
# _framework density 26.057817
#
# number of rings (size 3 to 8) (size 9 to 14) (size 15 to 20)
#    0.000    1.000    3.750    0.750    8.750    3.000 
#    0.000    0.000    0.000    0.000    0.000    0.000 
#    0.000    0.000    0.000    0.000    0.000    0.000 
#
# Total GULP energy -44848.108318 kJ/mol
# GULP energy per Si atom -5606.013540 kJ/mol
# Density = 2.599851 g / cm^3
# Si number density = 26.057817 Si / 1000 Ang^3
#
#
#
# Elastic Constant Matrix: (Units=GPa)
#
#
# Indices 1 2 3 4 5 6 
#
# 1 117.2119 43.0855 23.0473 7.7986 20.3503 32.7659
# 2 43.0855 89.4665 33.6526 11.4242 21.0157 14.3646
# 3 23.0473 33.6526 138.5810 -0.1997 -0.7005 0.0073
# 4 7.7986 11.4242 -0.1997 45.9111 0.0381 6.9536
# 5 20.3503 21.0157 -0.7005 0.0381 44.9573 5.6005
# 6 32.7659 14.3646 0.0073 6.9536 5.6005 51.7907
#
#
#
# Elastic Compliance Matrix: (Units=1/GPa)
#
#
# Indices 1 2 3 4 5 6 
#
# 1 0.012530 -0.003789 -0.001179 -0.000202 -0.003107 -0.006513
# 2 -0.003789 0.016193 -0.003336 -0.003239 -0.005775 -0.001034
# 3 -0.001179 -0.003336 0.008234 0.000863 0.002055 0.001332
# 4 -0.000202 -0.003239 0.000863 0.022966 0.001881 -0.002261
# 5 -0.003107 -0.005775 0.002055 0.001881 0.026321 0.000468
# 6 -0.006513 -0.001034 0.001332 -0.002261 0.000468 0.023969
#
#
# Mechanical properties :
#
#
# Convention : Reuss Voigt Hill
#
# Bulk Modulus (GPa) = 49.14523 60.53670 54.84096
# Shear Modulus (GPa) = 37.42395 44.89674 41.16034
#
# Velocity S-wave (km/s) = 3.79382 4.15537 3.97870
# Velocity P-wave (km/s) = 6.17185 6.80477 6.49602
#
# Compressibility (1/GPa) = 0.02034786
#
# Stress axis : x y z
#
# Youngs Moduli (GPa) = 79.80940 61.75471 121.45101
#
# Poissons Ratio (x) = 0.23400 0.14323
# Poissons Ratio (y) = 0.30241 0.40515
# Poissons Ratio (z) = 0.09412 0.20601
#
# Static dielectric constant tensor:
#      x y z
#    x 2.049480 -0.006380 -0.006300 
#    y -0.006380 1.988990 -0.015590 
#    z -0.006300 -0.015590 1.988410 
# 
# From -- ./inp_files/1340.got.cif
#   From: 2010.05.17/outbox.cif.g08.bks.cpg/sg1_1_cif.got.tgz:1340.got - 2010.05.17 20:27:59.
