data_PCOD9000294
_publ_section_title
;
Structure prediction by ZEFSAII (Michael W. Deem and Ramdas Pophale) SiO2 
 PCOD9000294
Probable space group: P 1
;
_chemical_formula_sum "Si O2"
_cell_formula_units_Z 8
_cell_length_a 6.781791
_cell_length_b 9.893370
_cell_length_c 7.725295
_cell_angle_alpha 43.231547
_cell_angle_beta 77.866155
_cell_angle_gamma 91.350931
_cell_volume 334.790550
_symmetry_space_group_name_H-M "P 1"
_symmetry_group_IT_number 1
_symmetry_cell_setting 'triclinic'
loop_
_space_group_symop_operation_xyz
x,y,z
loop_
_atom_site_type_symbol
_atom_site_label
_atom_site_fract_x
_atom_site_fract_y
_atom_site_fract_z
Si Si1 0.465230 0.048850 0.711110
Si Si2 0.801952 0.916177 0.148211
Si Si3 0.974736 0.695933 0.623617
Si Si4 0.328526 0.600809 0.118683
Si Si5 0.036779 0.849969 0.840550
Si Si6 0.383408 0.580644 0.532938
Si Si7 0.578872 0.335372 0.146248
Si Si8 0.552577 0.189948 0.943785
O O1 0.234972 0.033005 0.691210
O O2 0.624526 0.231546 0.413285
O O3 0.456836 0.073806 0.894483
O O4 0.489253 0.827166 0.863489
O O5 0.940912 0.832953 0.337937
O O6 0.565495 0.784765 0.347618
O O7 0.860167 0.864612 0.993252
O O8 0.176892 0.610757 0.634768
O O9 0.995195 0.836271 0.659311
O O10 0.784884 0.149707 0.938371
O O11 0.332368 0.547284 0.369385
O O12 0.407569 0.453225 0.116891
O O13 0.111150 0.645960 0.064619
O O14 0.495280 0.156659 0.187902
O O15 0.489897 0.402240 0.732393
O O16 0.778312 0.501318 0.878363
#
# Coordination Sequence:
#
# PCOD9000294 Si02
#       8
#     1   1   1   1   1   1   1   1
#     4  10  25  46  74 110 148 195 245 308 371 439
#     4  12  26  49  74 113 151 198 247 312 378 444
#     4  12  27  47  81 110 150 206 248 303 382 452
#     4  10  22  49  79 104 150 199 242 311 372 438
#     4  10  25  47  78 109 147 203 248 303 380 443
#     4  12  24  52  76 107 158 196 247 313 377 443
#     4  12  26  44  75 115 149 193 252 307 371 444
#     4  12  27  44  79 112 151 194 249 315 371 437
#
# _framework density 23.895536
#
# number of rings (size 3 to 8) (size 9 to 14) (size 15 to 20)
#    0.750    0.000    5.000    1.500    3.500    1.000 
#    2.250    2.500    0.000    0.000    0.000    0.000 
#    0.000    0.000    0.000    0.000    0.000    0.000 
#
# Total GULP energy -44643.201180 kJ/mol
# GULP energy per Si atom -5580.400148 kJ/mol
# Density = 2.384115 g / cm^3
# Si number density = 23.895536 Si / 1000 Ang^3
#
#
#
# Elastic Constant Matrix: (Units=GPa)
#
#
# Indices 1 2 3 4 5 6 
#
# 1 68.8946 42.0082 43.2634 2.0210 10.6134 -16.6936
# 2 42.0082 182.0544 26.6245 11.4410 8.3709 -23.7430
# 3 43.2634 26.6245 73.6269 -0.6908 12.8934 -18.4652
# 4 2.0210 11.4410 -0.6908 30.2498 -2.3851 10.6541
# 5 10.6134 8.3709 12.8934 -2.3851 26.4423 1.2649
# 6 -16.6936 -23.7430 -18.4652 10.6541 1.2649 51.3491
#
#
#
# Elastic Compliance Matrix: (Units=1/GPa)
#
#
# Indices 1 2 3 4 5 6 
#
# 1 0.025821 -0.003475 -0.012657 -0.001925 -0.003396 0.002719
# 2 -0.003475 0.006905 0.000538 -0.003554 -0.001519 0.003031
# 3 -0.012657 0.000538 0.023217 -0.001075 -0.006741 0.004872
# 4 -0.001925 -0.003554 -0.001075 0.038845 0.006446 -0.010874
# 5 -0.003396 -0.001519 -0.006741 0.006446 0.043848 -0.006648
# 6 0.002719 0.003031 0.004872 -0.010874 -0.006648 0.025932
#
#
# Mechanical properties :
#
#
# Convention : Reuss Voigt Hill
#
# Bulk Modulus (GPa) = 40.39803 60.92978 50.66390
# Shear Modulus (GPa) = 24.50903 35.78690 30.14797
#
# Velocity S-wave (km/s) = 3.20609 3.87413 3.55583
# Velocity P-wave (km/s) = 5.53608 6.75023 6.17308
#
# Compressibility (1/GPa) = 0.02475368
#
# Stress axis : x y z
#
# Youngs Moduli (GPa) = 38.72888 144.83149 43.07209
#
# Poissons Ratio (x) = 0.50332 0.54516
# Poissons Ratio (y) = 0.13459 -0.02318
# Poissons Ratio (z) = 0.49019 -0.07793
#
# Static dielectric constant tensor:
#      x y z
#    x 1.949620 0.013400 0.005160 
#    y 0.013400 1.897570 -0.043170 
#    z 0.005160 -0.043170 1.968510 
# 
# From -- ./inp_files/3205.got.cif
#   From: 2010.05.17/outbox.cif.g08.bks.cpg/sg1_2_cif.got.tgz:3205.got - 2010.05.17 20:27:59.
