data_PCOD9000989
_publ_section_title
;
Structure prediction by ZEFSAII (Michael W. Deem and Ramdas Pophale) SiO2 
 PCOD9000989
Probable space group: P -1
;
_chemical_formula_sum "Si O2"
_cell_formula_units_Z 16
_cell_length_a 17.474454
_cell_length_b 13.675064
_cell_length_c 5.102995
_cell_angle_alpha 104.994547
_cell_angle_beta 119.617838
_cell_angle_gamma 59.291158
_cell_volume 911.416181
_symmetry_space_group_name_H-M "P -1"
_symmetry_group_IT_number 2
_symmetry_cell_setting 'triclinic'
loop_
_space_group_symop_operation_xyz
x,y,z
-x,-y,-z
loop_
_atom_site_type_symbol
_atom_site_label
_atom_site_fract_x
_atom_site_fract_y
_atom_site_fract_z
Si Si1 0.849022 0.014390 0.737425
Si Si2 0.300507 0.308806 0.981145
Si Si3 0.771101 0.569382 0.559404
Si Si4 0.568187 0.946777 0.828443
Si Si5 0.065920 0.817453 0.113312
Si Si6 0.083734 0.674701 0.544684
Si Si7 0.767983 0.953980 0.036511
Si Si8 0.124451 0.306170 0.932999
O O1 0.822260 0.975156 0.391476
O O2 0.862267 0.126542 0.788398
O O3 0.772043 0.025239 0.842600
O O4 0.955084 0.916813 0.947588
O O5 0.305704 0.346982 0.724848
O O6 0.198204 0.297384 0.814630
O O7 0.281328 0.406739 0.230114
O O8 0.383764 0.189566 0.144160
O O9 0.822559 0.442873 0.450747
O O10 0.856778 0.609309 0.784284
O O11 0.500000 0.000000 0.500000
O O12 0.660802 0.973800 0.964918
O O13 0.500000 0.000000 0.000000
O O14 0.077178 0.770390 0.393369
O O15 0.083939 0.717767 0.867938
O O16 0.985440 0.659436 0.318259
O O17 0.827844 0.821393 0.961872
#
# Coordination Sequence:
#
# PCOD9000989 Si02
#       8
#     2   2   2   2   2   2   2   2
#     4  11  21  38  52  75 105 150 190 221 273 302
#     4   9  21  34  50  70 109 144 168 209 265 316
#     4  10  21  33  49  73 109 145 188 213 250 319
#     4  11  22  36  57  85 111 135 173 220 269 336
#     4  11  23  34  52  75 107 143 198 240 243 297
#     4  12  21  33  50  76 106 146 193 224 259 285
#     4  11  21  35  59  75 110 149 175 211 278 329
#     4   9  21  30  50  72 107 146 181 212 245 320
#
# _framework density 17.555098000000001
#
# number of rings (size 3 to 8) (size 9 to 14) (size 15 to 20)
#    0.750    0.750    2.500    3.375    5.250    2.500 
#    0.000    0.000    0.000    0.000    0.000    0.000 
#    0.000   70.000    0.000    0.000    0.000    0.000 
#
# Total GULP energy -89202.856199 kJ/mol
# GULP energy per Si atom -5575.178512 kJ/mol
# Density = 1.751514 g / cm^3
# Si number density = 17.555098 Si / 1000 Ang^3
#
#
#
# Elastic Constant Matrix: (Units=GPa)
#
#
# Indices 1 2 3 4 5 6 
#
# 1 51.8771 4.7235 4.7808 4.8600 -6.0789 -6.1688
# 2 4.7235 41.0001 6.0171 -1.8691 10.7070 -10.5459
# 3 4.7808 6.0171 37.7197 -7.1185 -3.6100 4.3904
# 4 4.8600 -1.8691 -7.1185 14.2508 1.7223 -0.8241
# 5 -6.0789 10.7070 -3.6100 1.7223 21.6538 -2.0572
# 6 -6.1688 -10.5459 4.3904 -0.8241 -2.0572 22.4703
#
#
#
# Elastic Compliance Matrix: (Units=1/GPa)
#
#
# Indices 1 2 3 4 5 6 
#
# 1 0.022730 -0.003230 -0.004309 -0.011035 0.008703 0.005958
# 2 -0.003230 0.034928 -0.007804 0.004905 -0.018394 0.015527
# 3 -0.004309 -0.007804 0.033005 0.015625 0.005942 -0.010177
# 4 -0.011035 0.004905 0.015625 0.083464 -0.009710 -0.001608
# 5 0.008703 -0.018394 0.005942 -0.009710 0.059261 -0.002335
# 6 0.005958 0.015527 -0.010177 -0.001608 -0.002335 0.055142
#
#
# Mechanical properties :
#
#
# Convention : Reuss Voigt Hill
#
# Bulk Modulus (GPa) = 16.67304 17.95997 17.31651
# Shear Modulus (GPa) = 14.74028 19.34669 17.04348
#
# Velocity S-wave (km/s) = 2.90083 3.32332 3.11924
# Velocity P-wave (km/s) = 4.55389 4.99788 4.78104
#
# Compressibility (1/GPa) = 0.05997705
#
# Stress axis : x y z
#
# Youngs Moduli (GPa) = 43.99562 28.62993 30.29883
#
# Poissons Ratio (x) = 0.09246 0.13055
# Poissons Ratio (y) = 0.14209 0.23647
# Poissons Ratio (z) = 0.18957 0.22344
#
# Static dielectric constant tensor:
#      x y z
#    x 1.607640 0.012870 -0.009100 
#    y 0.012870 1.612190 0.000380 
#    z -0.009100 0.000380 1.586820 
# 
# From -- ./inp_files/109319.got.cif
#   From: 2010.05.17/outbox.cif.g08.bks.cpg/sg2_55_cif.got.tgz:109319.got - 2010.06.03 11:33:40.
