data_PCOD9000486
_publ_section_title
;
Structure prediction by ZEFSAII (Michael W. Deem and Ramdas Pophale) SiO2 
 PCOD9000486
Probable space group: P 1
;
_chemical_formula_sum "Si O2"
_cell_formula_units_Z 8
_cell_length_a 7.960552
_cell_length_b 11.390523
_cell_length_c 5.210988
_cell_angle_alpha 102.219861
_cell_angle_beta 74.728307
_cell_angle_gamma 137.147204
_cell_volume 309.887025
_symmetry_space_group_name_H-M "P 1"
_symmetry_group_IT_number 1
_symmetry_cell_setting 'triclinic'
loop_
_space_group_symop_operation_xyz
x,y,z
loop_
_atom_site_type_symbol
_atom_site_label
_atom_site_fract_x
_atom_site_fract_y
_atom_site_fract_z
Si Si1 0.625000 0.686880 0.479820
Si Si2 0.443077 0.235396 0.956796
Si Si3 0.024332 0.078526 0.389225
Si Si4 0.611996 0.946013 0.116431
Si Si5 0.221291 0.582083 0.209074
Si Si6 0.909894 0.607490 0.069315
Si Si7 0.245849 0.367269 0.807227
Si Si8 0.387075 0.943475 0.727141
O O1 0.375766 0.622495 0.419399
O O2 0.753647 0.647993 0.230840
O O3 0.508861 0.551601 0.689898
O O4 0.838482 0.894003 0.523792
O O5 0.731058 0.415431 0.940537
O O6 0.292229 0.152934 0.248769
O O7 0.380425 0.082586 0.768905
O O8 0.322769 0.291036 0.901744
O O9 0.085033 0.232773 0.578411
O O10 0.870982 0.030800 0.168444
O O11 0.448566 0.748021 0.022741
O O12 0.584851 0.014312 0.910650
O O13 0.476451 0.935624 0.416838
O O14 0.025621 0.593857 0.264165
O O15 0.121044 0.410420 0.044189
O O16 0.129485 0.760965 0.861289
#
# Coordination Sequence:
#
# PCOD9000486 Si02
#       8
#     1   1   1   1   1   1   1   1
#     4  11  24  50  72 109 150 203 258 320 383 461
#     4  12  27  45  72 115 151 205 252 318 391 455
#     4  11  26  46  77 109 154 202 251 323 387 461
#     4  10  27  49  81 109 153 202 264 315 390 455
#     4  10  25  46  73 110 147 202 253 317 381 457
#     4  11  24  48  76 106 155 197 256 320 383 457
#     4  12  26  45  74 113 154 201 261 310 392 461
#     4  11  27  51  75 115 150 204 259 321 383 459
#
# _framework density 25.815861000000002
#
# number of rings (size 3 to 8) (size 9 to 14) (size 15 to 20)
#    0.000    1.000    3.750    0.000   12.250    5.000 
#    0.000    0.000    0.000    0.000    0.000    0.000 
#    0.000    0.000    0.000    0.000    0.000    0.000 
#
# Total GULP energy -44748.673833 kJ/mol
# GULP energy per Si atom -5593.584229 kJ/mol
# Density = 2.575710 g / cm^3
# Si number density = 25.815861 Si / 1000 Ang^3
#
#
#
# Elastic Constant Matrix: (Units=GPa)
#
#
# Indices 1 2 3 4 5 6 
#
# 1 84.0209 42.5214 16.2679 -1.7441 4.8127 -14.4194
# 2 42.5214 187.6202 43.1638 2.4873 -15.6150 -11.5032
# 3 16.2679 43.1638 83.7813 2.0666 -11.3837 -7.9454
# 4 -1.7441 2.4873 2.0666 50.4426 2.4013 -3.6215
# 5 4.8127 -15.6150 -11.3837 2.4013 38.6033 0.7671
# 6 -14.4194 -11.5032 -7.9454 -3.6215 0.7671 44.8298
#
#
#
# Elastic Compliance Matrix: (Units=1/GPa)
#
#
# Indices 1 2 3 4 5 6 
#
# 1 0.014617 -0.003070 -0.001416 0.001162 -0.003630 0.003819
# 2 -0.003070 0.006837 -0.002565 -0.000436 0.002414 0.000236
# 3 -0.001416 -0.002565 0.014118 -0.000566 0.003312 0.001286
# 4 0.001162 -0.000436 -0.000566 0.020124 -0.001776 0.001817
# 5 -0.003630 0.002414 0.003312 -0.001776 0.028433 -0.000591
# 6 0.003819 0.000236 0.001286 0.001817 -0.000591 0.023980
#
#
# Mechanical properties :
#
#
# Convention : Reuss Voigt Hill
#
# Bulk Modulus (GPa) = 46.57798 62.14763 54.36280
# Shear Modulus (GPa) = 38.64896 43.67308 41.16102
#
# Velocity S-wave (km/s) = 3.87344 4.11751 3.99734
# Velocity P-wave (km/s) = 6.17140 6.83600 6.51218
#
# Compressibility (1/GPa) = 0.02146937
#
# Stress axis : x y z
#
# Youngs Moduli (GPa) = 68.41226 146.26143 70.83017
#
# Poissons Ratio (x) = 0.44908 0.10031
# Poissons Ratio (y) = 0.21005 0.18169
# Poissons Ratio (z) = 0.09688 0.37517
#
# Static dielectric constant tensor:
#      x y z
#    x 2.073700 0.031230 0.000190 
#    y 0.031230 2.037810 0.007280 
#    z 0.000190 0.007280 2.140140 
# 
# From -- ./inp_files/1681.got.cif
#   From: 2010.05.17/outbox.cif.g08.bks.cpg/sg1_1_cif.got.tgz:1681.got - 2010.05.17 20:27:59.
