data_PCOD9000411
_publ_section_title
;
Structure prediction by ZEFSAII (Michael W. Deem and Ramdas Pophale) SiO2 
 PCOD9000411
Probable space group: P 1
;
_chemical_formula_sum "Si O2"
_cell_formula_units_Z 6
_cell_length_a 5.208979
_cell_length_b 11.713258
_cell_length_c 5.208989
_cell_angle_alpha 116.409996
_cell_angle_beta 90.324671
_cell_angle_gamma 89.858099
_cell_volume 284.647543
_symmetry_space_group_name_H-M "P 1"
_symmetry_group_IT_number 1
_symmetry_cell_setting 'triclinic'
loop_
_space_group_symop_operation_xyz
x,y,z
loop_
_atom_site_type_symbol
_atom_site_label
_atom_site_fract_x
_atom_site_fract_y
_atom_site_fract_z
Si Si1 0.894180 0.834840 0.278670
Si Si2 0.163255 0.049709 0.224466
Si Si3 0.385150 0.942290 0.607993
Si Si4 0.385012 0.442289 0.108077
Si Si5 0.163146 0.334839 0.509646
Si Si6 0.894053 0.549708 0.993610
O O1 0.657016 0.878825 0.494435
O O2 0.155602 0.841936 0.452885
O O3 0.853002 0.692267 0.035790
O O4 0.946840 0.942258 0.169645
O O5 0.062851 0.192262 0.325915
O O6 0.330393 0.042632 0.478803
O O7 0.335056 0.005762 0.943339
O O8 0.334923 0.378818 0.316461
O O9 0.330284 0.341940 0.778158
O O10 0.656867 0.505775 0.121473
O O11 0.155453 0.542622 0.153677
O O12 0.946682 0.442254 0.669734
#
# Coordination Sequence:
#
# PCOD9000411 Si02
#       6
#     1   1   1   1   1   1
#     4  10  24  44  67  96 129 168 214 264 318 378
#     4  10  24  44  67  96 129 168 214 264 318 378
#     4  10  24  42  64  98 126 168 212 258 320 376
#     4  10  24  42  64  98 126 168 212 258 320 376
#     4  10  24  44  67  96 129 168 214 264 318 378
#     4  10  24  44  67  96 129 168 214 264 318 378
#
# _framework density 21.078700999999999
#
# number of rings (size 3 to 8) (size 9 to 14) (size 15 to 20)
#    2.000    0.000    0.000    2.000    4.667    5.333 
#    0.000    0.000    0.000    0.000    0.000    0.000 
#    0.000    0.000    0.000    0.000    0.000    0.000 
#
# Total GULP energy -33419.223700 kJ/mol
# GULP energy per Si atom -5569.870617 kJ/mol
# Density = 2.103072 g / cm^3
# Si number density = 21.078701 Si / 1000 Ang^3
#
#
#
# Elastic Constant Matrix: (Units=GPa)
#
#
# Indices 1 2 3 4 5 6 
#
# 1 107.7611 45.1504 48.4567 -0.1256 -34.3727 17.5675
# 2 45.1504 147.4023 90.3894 32.4683 -28.2854 26.2821
# 3 48.4567 90.3894 122.4086 -3.1649 -33.6699 17.0800
# 4 -0.1256 32.4683 -3.1649 43.1636 -1.3566 0.9376
# 5 -34.3727 -28.2854 -33.6699 -1.3566 25.3679 -8.6395
# 6 17.5675 26.2821 17.0800 0.9376 -8.6395 15.8807
#
#
#
# Elastic Compliance Matrix: (Units=1/GPa)
#
#
# Indices 1 2 3 4 5 6 
#
# 1 0.017121 -0.000337 0.000215 0.001129 0.020630 -0.007458
# 2 -0.000337 0.024665 -0.016275 -0.019347 -0.003701 -0.023814
# 3 0.000215 -0.016275 0.024133 0.014374 0.018297 0.009848
# 4 0.001129 -0.019347 0.014374 0.038628 0.006799 0.016728
# 5 0.020630 -0.003701 0.018297 0.006799 0.092510 0.013552
# 6 -0.007458 -0.023814 0.009848 0.016728 0.013552 0.106425
#
#
# Mechanical properties :
#
#
# Convention : Reuss Voigt Hill
#
# Bulk Modulus (GPa) = 30.18821 82.84055 56.51438
# Shear Modulus (GPa) = 14.39603 29.78748 22.09176
#
# Velocity S-wave (km/s) = 2.61620 3.76327 3.24089
# Velocity P-wave (km/s) = 4.84549 7.63341 6.39326
#
# Compressibility (1/GPa) = 0.03312551
#
# Stress axis : x y z
#
# Youngs Moduli (GPa) = 58.40613 40.54335 41.43739
#
# Poissons Ratio (x) = 0.01365 -0.00891
# Poissons Ratio (y) = 0.01966 0.67441
# Poissons Ratio (z) = -0.01257 0.65986
#
# Static dielectric constant tensor:
#      x y z
#    x 1.748030 -0.014710 0.024060 
#    y -0.014710 1.734780 -0.003240 
#    z 0.024060 -0.003240 1.735470 
# 
# From -- ./inp_files/99.got.cif
#   From: 2010.05.17/outbox.cif.g08.bks.cpg/sg1_1_cif.got.tgz:99.got - 2010.05.17 20:27:59.
