data_PCOD9000837
_publ_section_title
;
Structure prediction by ZEFSAII (Michael W. Deem and Ramdas Pophale) SiO2 
 PCOD9000837
Probable space group: P 1
;
_chemical_formula_sum "Si O2"
_cell_formula_units_Z 8
_cell_length_a 4.963223
_cell_length_b 12.329497
_cell_length_c 6.711609
_cell_angle_alpha 107.712621
_cell_angle_beta 50.733068
_cell_angle_gamma 94.395544
_cell_volume 299.135354
_symmetry_space_group_name_H-M "P 1"
_symmetry_group_IT_number 1
_symmetry_cell_setting 'triclinic'
loop_
_space_group_symop_operation_xyz
x,y,z
loop_
_atom_site_type_symbol
_atom_site_label
_atom_site_fract_x
_atom_site_fract_y
_atom_site_fract_z
Si Si1 0.512140 0.987220 0.161870
Si Si2 0.677841 0.181126 0.969668
Si Si3 0.343723 0.434998 0.381349
Si Si4 0.713769 0.621658 0.407185
Si Si5 0.884132 0.846190 0.401364
Si Si6 0.690254 0.546006 0.957745
Si Si7 0.467632 0.074457 0.649729
Si Si8 0.935736 0.764169 0.866548
O O1 0.197333 0.919070 0.327698
O O2 0.620595 0.049173 0.343477
O O3 0.801184 0.884196 0.888039
O O4 0.427668 0.091405 0.108716
O O5 0.663218 0.162869 0.730169
O O6 0.064251 0.131738 0.841745
O O7 0.533453 0.307428 0.183396
O O8 0.570040 0.503566 0.466412
O O9 0.954305 0.451331 0.662408
O O10 0.359202 0.500777 0.193688
O O11 0.915554 0.725158 0.438409
O O12 0.328894 0.702837 0.604482
O O13 0.881125 0.576792 0.090826
O O14 0.541591 0.944977 0.635590
O O15 0.907028 0.805808 0.135328
O O16 0.682916 0.664890 0.905888
#
# Coordination Sequence:
#
# PCOD9000837 Si02
#       8
#     1   1   1   1   1   1   1   1
#     4  11  25  40  70 109 149 189 244 304 373 439
#     4  12  27  45  73 103 146 198 246 296 369 443
#     4   9  20  39  70  99 141 192 242 302 360 439
#     4   8  17  36  68  93 141 179 241 290 367 426
#     4  10  20  38  66 103 142 181 237 299 365 429
#     4   8  17  37  67  98 138 186 241 300 365 429
#     4  11  26  46  67 106 142 195 239 305 363 437
#     4   9  18  37  65 101 141 188 232 302 366 438
#
# _framework density 26.743746000000002
#
# number of rings (size 3 to 8) (size 9 to 14) (size 15 to 20)
#    0.750    1.500    1.250    0.750    7.000    0.000 
#    0.000    1.250   16.500    0.000    0.000    0.000 
#    0.000    0.000    0.000    0.000    0.000    0.000 
#
# Total GULP energy -44649.832957 kJ/mol
# GULP energy per Si atom -5581.229120 kJ/mol
# Density = 2.668288 g / cm^3
# Si number density = 26.743746 Si / 1000 Ang^3
#
#
#
# Elastic Constant Matrix: (Units=GPa)
#
#
# Indices 1 2 3 4 5 6 
#
# 1 81.4390 16.5721 23.3088 18.2591 -4.1607 9.8539
# 2 16.5721 129.0272 55.4045 46.9324 -3.2088 -1.2771
# 3 23.3088 55.4045 154.1589 34.4401 -16.1154 -4.1809
# 4 18.2591 46.9324 34.4401 65.6949 4.2547 -0.8309
# 5 -4.1607 -3.2088 -16.1154 4.2547 29.6792 -4.8074
# 6 9.8539 -1.2771 -4.1809 -0.8309 -4.8074 29.4209
#
#
#
# Elastic Compliance Matrix: (Units=1/GPa)
#
#
# Indices 1 2 3 4 5 6 
#
# 1 0.014056 -0.000037 -0.001427 -0.003250 0.000870 -0.004862
# 2 -0.000037 0.011317 -0.002433 -0.006856 0.000898 0.000111
# 3 -0.001427 -0.002433 0.008794 -0.002775 0.005095 0.002376
# 4 -0.003250 -0.006856 -0.002775 0.022865 -0.005971 0.000067
# 5 0.000870 0.000898 0.005095 -0.005971 0.038606 0.006611
# 6 -0.004862 0.000111 0.002376 0.000067 0.006611 0.037042
#
#
# Mechanical properties :
#
#
# Convention : Reuss Voigt Hill
#
# Bulk Modulus (GPa) = 37.91665 61.68841 49.80253
# Shear Modulus (GPa) = 33.49712 42.91498 38.20605
#
# Velocity S-wave (km/s) = 3.54294 4.01018 3.78378
# Velocity P-wave (km/s) = 5.56283 6.67523 6.14425
#
# Compressibility (1/GPa) = 0.02637364
#
# Stress axis : x y z
#
# Youngs Moduli (GPa) = 71.14153 88.36246 113.71268
#
# Poissons Ratio (x) = 0.00326 0.16225
# Poissons Ratio (y) = 0.00263 0.27669
# Poissons Ratio (z) = 0.10150 0.21501
#
# Static dielectric constant tensor:
#      x y z
#    x 2.260020 -0.047390 0.054900 
#    y -0.047390 2.095880 -0.112240 
#    z 0.054900 -0.112240 2.129870 
# 
# From -- ./inp_files/3172.got.cif
#   From: 2010.05.17/outbox.cif.g08.bks.cpg/sg1_2_cif.got.tgz:3172.got - 2010.05.17 20:27:59.
