data_PCOD9000800
_publ_section_title
;
Structure prediction by ZEFSAII (Michael W. Deem and Ramdas Pophale) SiO2 
 PCOD9000800
Probable space group: P 1
;
_chemical_formula_sum "Si O2"
_cell_formula_units_Z 8
_cell_length_a 8.234490
_cell_length_b 7.447931
_cell_length_c 9.601242
_cell_angle_alpha 70.626712
_cell_angle_beta 48.484817
_cell_angle_gamma 96.492344
_cell_volume 366.847901
_symmetry_space_group_name_H-M "P 1"
_symmetry_group_IT_number 1
_symmetry_cell_setting 'triclinic'
loop_
_space_group_symop_operation_xyz
x,y,z
loop_
_atom_site_type_symbol
_atom_site_label
_atom_site_fract_x
_atom_site_fract_y
_atom_site_fract_z
Si Si1 0.611840 0.937660 0.335420
Si Si2 0.661301 0.609707 0.751294
Si Si3 0.070934 0.766486 0.796358
Si Si4 0.294517 0.791508 0.964544
Si Si5 0.640108 0.315316 0.060725
Si Si6 0.791281 0.624209 0.368575
Si Si7 0.731945 0.175220 0.502987
Si Si8 0.067574 0.062826 0.516840
O O1 0.314619 0.810638 0.554773
O O2 0.716805 0.774816 0.282838
O O3 0.701616 0.128490 0.122850
O O4 0.709453 0.044086 0.406643
O O5 0.443512 0.655173 0.922782
O O6 0.638435 0.586297 0.606109
O O7 0.913838 0.828137 0.587528
O O8 0.653823 0.396488 0.874469
O O9 0.151069 0.751925 0.910244
O O10 0.031038 0.970709 0.720034
O O11 0.829815 0.542600 0.962522
O O12 0.498317 0.036192 0.768507
O O13 0.082299 0.741038 0.208514
O O14 0.356616 0.209713 0.294710
O O15 0.738882 0.395365 0.398078
O O16 0.950453 0.197807 0.473513
#
# Coordination Sequence:
#
# PCOD9000800 Si02
#       8
#     1   1   1   1   1   1   1   1
#     4  10  21  41  62  90 127 155 205 259 292 365
#     4  10  21  41  62  90 127 155 205 259 292 365
#     4   9  18  37  63  88 126 160 198 255 304 354
#     4  10  21  40  63  93 121 160 205 252 303 360
#     4  10  20  34  66  90 118 174 192 244 326 340
#     4  12  22  38  68  92 118 166 204 246 308 364
#     4  10  21  40  63  93 121 160 205 252 303 360
#     4   9  18  37  63  88 126 160 198 255 304 354
#
# _framework density 21.807402
#
# number of rings (size 3 to 8) (size 9 to 14) (size 15 to 20)
#    0.000    2.000    3.750    1.500    0.000    2.000 
#    4.500    0.000   44.000    0.000    0.000    0.000 
#    0.000    0.000    0.000    0.000    0.000    0.000 
#
# Total GULP energy -44561.498373 kJ/mol
# GULP energy per Si atom -5570.187297 kJ/mol
# Density = 2.175777 g / cm^3
# Si number density = 21.807402 Si / 1000 Ang^3
#
#
#
# Elastic Constant Matrix: (Units=GPa)
#
#
# Indices 1 2 3 4 5 6 
#
# 1 86.4845 36.4229 11.9475 -11.0684 -9.7667 -21.5850
# 2 36.4229 102.0750 40.2486 -20.4403 3.0140 -35.5333
# 3 11.9475 40.2486 77.4417 -17.7738 -9.9659 -15.8270
# 4 -11.0684 -20.4403 -17.7738 30.6223 -9.4779 4.8067
# 5 -9.7667 3.0140 -9.9659 -9.4779 37.4085 -9.3427
# 6 -21.5850 -35.5333 -15.8270 4.8067 -9.3427 27.4114
#
#
#
# Elastic Compliance Matrix: (Units=1/GPa)
#
#
# Indices 1 2 3 4 5 6 
#
# 1 0.019438 0.000484 0.006127 0.012120 0.015381 0.022589
# 2 0.000484 0.022934 -0.002117 0.012146 0.008170 0.029543
# 3 0.006127 -0.002117 0.022499 0.016109 0.016291 0.017799
# 4 0.012120 0.012146 0.016109 0.058320 0.029882 0.034548
# 5 0.015381 0.008170 0.016291 0.029882 0.053243 0.045016
# 6 0.022589 0.029543 0.017799 0.034548 0.045016 0.112127
#
#
# Mechanical properties :
#
#
# Convention : Reuss Voigt Hill
#
# Bulk Modulus (GPa) = 13.53913 49.24881 31.39397
# Shear Modulus (GPa) = 16.43695 30.91393 23.67544
#
# Velocity S-wave (km/s) = 2.74840 3.76917 3.29851
# Velocity P-wave (km/s) = 4.03653 6.44785 5.37905
#
# Compressibility (1/GPa) = 0.07385999
#
# Stress axis : x y z
#
# Youngs Moduli (GPa) = 51.44472 43.60376 44.44596
#
# Poissons Ratio (x) = -0.02112 -0.27232
# Poissons Ratio (y) = -0.02492 0.09410
# Poissons Ratio (z) = -0.31521 0.09232
#
# Static dielectric constant tensor:
#      x y z
#    x 1.864260 -0.021570 0.015260 
#    y -0.021570 1.800590 0.006560 
#    z 0.015260 0.006560 1.839330 
# 
# From -- ./inp_files/4729.got.cif
#   From: 2010.05.17/outbox.cif.g08.bks.cpg/sg1_3_cif.got.tgz:4729.got - 2010.05.17 20:27:59.
