data_PCOD9000154
_publ_section_title
;
Structure prediction by ZEFSAII (Michael W. Deem and Ramdas Pophale) SiO2 
 PCOD9000154
Probable space group: P 1
;
_chemical_formula_sum "Si O2"
_cell_formula_units_Z 8
_cell_length_a 8.165032
_cell_length_b 7.467002
_cell_length_c 9.529588
_cell_angle_alpha 53.521560
_cell_angle_beta 135.088575
_cell_angle_gamma 128.595117
_cell_volume 308.071760
_symmetry_space_group_name_H-M "P 1"
_symmetry_group_IT_number 1
_symmetry_cell_setting 'triclinic'
loop_
_space_group_symop_operation_xyz
x,y,z
loop_
_atom_site_type_symbol
_atom_site_label
_atom_site_fract_x
_atom_site_fract_y
_atom_site_fract_z
Si Si1 0.916080 0.462350 0.608570
Si Si2 0.695449 0.543054 0.179257
Si Si3 0.418432 0.730380 0.741248
Si Si4 0.892067 0.316564 0.149562
Si Si5 0.348200 0.786366 0.186896
Si Si6 0.893123 0.917219 0.516081
Si Si7 0.416693 0.066111 0.825934
Si Si8 0.932824 0.969588 0.946183
O O1 0.688897 0.439471 0.377470
O O2 0.926937 0.665962 0.630878
O O3 0.149282 0.591330 0.583298
O O4 0.928158 0.228739 0.796096
O O5 0.794404 0.393113 0.200000
O O6 0.439274 0.542959 0.959121
O O7 0.859118 0.824900 0.116361
O O8 0.424340 0.964674 0.722141
O O9 0.680271 0.804223 0.785632
O O10 0.156361 0.518050 0.189244
O O11 0.927243 0.071534 0.322889
O O12 0.670130 0.280166 0.919927
O O13 0.600093 0.847222 0.400366
O O14 0.184583 0.937752 0.070652
O O15 0.422131 0.871036 0.034255
O O16 0.141414 0.077928 0.676018
#
# Coordination Sequence:
#
# PCOD9000154 Si02
#       8
#     1   1   1   1   1   1   1   1
#     4  11  22  44  69  92 137 174 219 276 330 391
#     4   9  21  42  64  96 128 170 217 275 322 385
#     4   9  22  43  61 100 128 171 228 263 326 400
#     4  10  22  40  64  94 134 169 216 273 329 391
#     4  10  22  42  63 100 129 170 223 269 332 394
#     4  10  24  40  65 101 128 174 219 267 340 392
#     4  10  22  41  66  91 136 173 212 273 327 394
#     4   9  23  42  66  98 128 171 226 268 328 393
#
# _framework density 25.967974999999999
#
# number of rings (size 3 to 8) (size 9 to 14) (size 15 to 20)
#    0.750    1.500    0.000    1.500    5.250    5.000 
#    6.750    0.000    0.000    0.000    0.000    0.000 
#    0.000    0.000    0.000    0.000    0.000    0.000 
#
# Total GULP energy -44571.931870 kJ/mol
# GULP energy per Si atom -5571.491484 kJ/mol
# Density = 2.590887 g / cm^3
# Si number density = 25.967975 Si / 1000 Ang^3
#
#
#
# Elastic Constant Matrix: (Units=GPa)
#
#
# Indices 1 2 3 4 5 6 
#
# 1 51.9952 33.6448 29.5357 4.4447 15.2690 8.5463
# 2 33.6448 133.4845 68.6516 -16.2839 12.4393 22.8937
# 3 29.5357 68.6516 145.0600 6.1805 26.2092 13.3892
# 4 4.4447 -16.2839 6.1805 55.2486 2.7013 13.7708
# 5 15.2690 12.4393 26.2092 2.7013 40.0013 16.5833
# 6 8.5463 22.8937 13.3892 13.7708 16.5833 38.8874
#
#
#
# Elastic Compliance Matrix: (Units=1/GPa)
#
#
# Indices 1 2 3 4 5 6 
#
# 1 0.026265 -0.006549 -0.000832 -0.004431 -0.008649 0.003627
# 2 -0.006549 0.014259 -0.005810 0.007601 0.005502 -0.009993
# 3 -0.000832 -0.005810 0.010740 -0.003491 -0.006256 0.003810
# 4 -0.004431 0.007601 -0.003491 0.024100 0.005441 -0.013154
# 5 -0.008649 0.005502 -0.006256 0.005441 0.037392 -0.017057
# 6 0.003627 -0.009993 0.003810 -0.013154 -0.017057 0.041421
#
#
# Mechanical properties :
#
#
# Convention : Reuss Voigt Hill
#
# Bulk Modulus (GPa) = 40.18970 66.02265 53.10618
# Shear Modulus (GPa) = 26.47544 40.07463 33.27503
#
# Velocity S-wave (km/s) = 3.19649 3.93266 3.58353
# Velocity P-wave (km/s) = 5.39756 6.78977 6.13329
#
# Compressibility (1/GPa) = 0.02488200
#
# Stress axis : x y z
#
# Youngs Moduli (GPa) = 38.07324 70.13188 93.10632
#
# Poissons Ratio (x) = 0.45929 0.07745
# Poissons Ratio (y) = 0.24934 0.54098
# Poissons Ratio (z) = 0.03167 0.40749
#
# Static dielectric constant tensor:
#      x y z
#    x 2.121710 -0.012430 0.030700 
#    y -0.012430 2.101910 0.036550 
#    z 0.030700 0.036550 2.052110 
# 
# From -- ./inp_files/6446.got.cif
#   From: 2010.05.17/outbox.cif.g08.bks.cpg/sg1_4_cif.got.tgz:6446.got - 2010.05.17 20:27:59.
