data_PCOD9000596
_publ_section_title
;
Structure prediction by ZEFSAII (Michael W. Deem and Ramdas Pophale) SiO2 
 PCOD9000596
Probable space group: P 1
;
_chemical_formula_sum "Si O2"
_cell_formula_units_Z 8
_cell_length_a 11.048025
_cell_length_b 5.610630
_cell_length_c 10.568352
_cell_angle_alpha 108.323609
_cell_angle_beta 140.492228
_cell_angle_gamma 51.039625
_cell_volume 304.148229
_symmetry_space_group_name_H-M "P 1"
_symmetry_group_IT_number 1
_symmetry_cell_setting 'triclinic'
loop_
_space_group_symop_operation_xyz
x,y,z
loop_
_atom_site_type_symbol
_atom_site_label
_atom_site_fract_x
_atom_site_fract_y
_atom_site_fract_z
Si Si1 0.282840 0.595470 0.827000
Si Si2 0.816325 0.540334 0.681003
Si Si3 0.180351 0.393830 0.124443
Si Si4 0.737471 0.878265 0.031166
Si Si5 0.299933 0.851364 0.638235
Si Si6 0.482944 0.706531 0.227210
Si Si7 0.900032 0.570083 0.380977
Si Si8 0.569317 0.297150 0.573809
O O1 0.227391 0.857225 0.724480
O O2 0.060358 0.590834 0.617141
O O3 0.554536 0.268287 0.950206
O O4 0.326854 0.635204 0.013277
O O5 0.093008 0.383834 0.914099
O O6 0.721004 0.475709 0.469838
O O7 0.741266 0.392577 0.700602
O O8 0.690382 0.925380 0.639991
O O9 0.946134 0.691942 0.061874
O O10 0.401661 0.397578 0.329451
O O11 0.290870 0.038267 0.206388
O O12 0.539894 0.825158 0.836332
O O13 0.864089 0.737718 0.246568
O O14 0.387147 0.532361 0.579150
O O15 0.072717 0.178713 0.438878
O O16 0.625941 0.743231 0.238642
#
# Coordination Sequence:
#
# PCOD9000596 Si02
#       8
#     1   1   1   1   1   1   1   1
#     4  11  26  46  75 105 144 195 251 307 372 445
#     4  11  27  49  72 108 155 197 246 307 376 449
#     4  11  26  46  76 108 152 193 246 311 379 445
#     4  11  24  47  77 110 140 192 255 313 370 445
#     4  11  24  45  76 106 148 190 253 307 377 440
#     4  11  28  46  70 110 147 193 245 301 378 452
#     4  11  27  45  75 104 147 191 250 307 371 446
#     4  11  26  46  75 111 147 195 252 307 375 444
#
# _framework density 26.302966999999999
#
# number of rings (size 3 to 8) (size 9 to 14) (size 15 to 20)
#    0.000    1.000    2.500    1.500   10.500    8.000 
#    0.000    0.000    0.000    0.000    0.000    0.000 
#    0.000    0.000    0.000    0.000    0.000    0.000 
#
# Total GULP energy -44719.315785 kJ/mol
# GULP energy per Si atom -5589.914473 kJ/mol
# Density = 2.624310 g / cm^3
# Si number density = 26.302967 Si / 1000 Ang^3
#
#
#
# Elastic Constant Matrix: (Units=GPa)
#
#
# Indices 1 2 3 4 5 6 
#
# 1 65.2071 20.1932 29.9445 -1.4191 11.4494 13.6995
# 2 20.1932 121.1831 48.1976 -18.4673 10.0176 -4.0095
# 3 29.9445 48.1976 192.9855 -2.2324 -6.9649 2.5944
# 4 -1.4191 -18.4673 -2.2324 47.0081 -2.1739 -2.7350
# 5 11.4494 10.0176 -6.9649 -2.1739 54.7282 4.5449
# 6 13.6995 -4.0095 2.5944 -2.7350 4.5449 31.6723
#
#
#
# Elastic Compliance Matrix: (Units=1/GPa)
#
#
# Indices 1 2 3 4 5 6 
#
# 1 0.019481 -0.002445 -0.002435 -0.001115 -0.003305 -0.008158
# 2 -0.002445 0.010435 -0.002288 0.004018 -0.001793 0.003170
# 3 -0.002435 -0.002288 0.006186 -0.000602 0.001695 -0.000038
# 4 -0.001115 0.004018 -0.000602 0.022968 0.000083 0.003012
# 5 -0.003305 -0.001793 0.001695 0.000083 0.019656 -0.001750
# 6 -0.008158 0.003170 -0.000038 0.003012 -0.001750 0.036018
#
#
# Mechanical properties :
#
#
# Convention : Reuss Voigt Hill
#
# Bulk Modulus (GPa) = 45.94039 64.00515 54.97277
# Shear Modulus (GPa) = 36.67507 45.41777 41.04642
#
# Velocity S-wave (km/s) = 3.73813 4.15989 3.95463
# Velocity P-wave (km/s) = 6.01126 6.88909 6.46509
#
# Compressibility (1/GPa) = 0.02176734
#
# Stress axis : x y z
#
# Youngs Moduli (GPa) = 51.33262 95.83461 161.66761
#
# Poissons Ratio (x) = 0.23427 0.39361
# Poissons Ratio (y) = 0.12549 0.36983
# Poissons Ratio (z) = 0.12498 0.21923
#
# Static dielectric constant tensor:
#      x y z
#    x 2.072390 0.017740 -0.049280 
#    y 0.017740 2.102440 0.017270 
#    z -0.049280 0.017270 2.033320 
# 
# From -- ./inp_files/2365.got.cif
#   From: 2010.05.17/outbox.cif.g08.bks.cpg/sg1_2_cif.got.tgz:2365.got - 2010.05.17 20:27:59.
