data_PCOD9000195
_publ_section_title
;
Structure prediction by ZEFSAII (Michael W. Deem and Ramdas Pophale) SiO2 
 PCOD9000195
Probable space group: P 1
;
_chemical_formula_sum "Si O2"
_cell_formula_units_Z 8
_cell_length_a 9.352235
_cell_length_b 7.851580
_cell_length_c 8.895397
_cell_angle_alpha 88.283043
_cell_angle_beta 136.458159
_cell_angle_gamma 66.269973
_cell_volume 354.311426
_symmetry_space_group_name_H-M "P 1"
_symmetry_group_IT_number 1
_symmetry_cell_setting 'triclinic'
loop_
_space_group_symop_operation_xyz
x,y,z
loop_
_atom_site_type_symbol
_atom_site_label
_atom_site_fract_x
_atom_site_fract_y
_atom_site_fract_z
Si Si1 0.429420 0.438360 0.491130
Si Si2 0.404948 0.065351 0.933868
Si Si3 0.149768 0.903734 0.295296
Si Si4 0.365713 0.485856 0.952529
Si Si5 0.996826 0.741661 0.944965
Si Si6 0.822875 0.237222 0.517723
Si Si7 0.933851 0.854117 0.426017
Si Si8 0.430840 0.067034 0.605159
O O1 0.400699 0.648650 0.517751
O O2 0.649931 0.325238 0.533371
O O3 0.444446 0.265081 0.610105
O O4 0.147257 0.553476 0.189497
O O5 0.408381 0.266052 0.958703
O O6 0.422956 0.012758 0.772995
O O7 0.116271 0.157655 0.765434
O O8 0.677527 0.861828 0.221770
O O9 0.057277 0.898556 0.058036
O O10 0.198772 0.077510 0.349884
O O11 0.956276 0.933227 0.277690
O O12 0.637999 0.413587 0.239427
O O13 0.219819 0.636493 0.692528
O O14 0.143777 0.626330 0.907637
O O15 0.688248 0.877235 0.715312
O O16 0.869012 0.023617 0.499699
#
# Coordination Sequence:
#
# PCOD9000195 Si02
#       8
#     1   1   1   1   1   1   1   1
#     4   9  22  43  62  93 132 163 218 270 321 383
#     4  11  23  38  68  95 133 165 223 268 324 391
#     4  10  22  42  66  94 133 168 223 269 319 391
#     4  10  23  40  68  90 134 172 212 271 329 381
#     4   9  22  43  60  96 132 164 225 272 306 408
#     4  10  22  43  61  97 131 166 217 272 319 394
#     4  11  21  43  63  96 131 171 213 276 320 388
#     4  12  21  42  68  93 130 177 213 272 332 380
#
# _framework density 22.579008999999999
#
# number of rings (size 3 to 8) (size 9 to 14) (size 15 to 20)
#    0.750    1.000    2.500    1.500    1.750    1.000 
#    4.500    5.000    0.000    0.000    0.000    0.000 
#    0.000    0.000    0.000    0.000    0.000    0.000 
#
# Total GULP energy -44543.082735 kJ/mol
# GULP energy per Si atom -5567.885342 kJ/mol
# Density = 2.252762 g / cm^3
# Si number density = 22.579009 Si / 1000 Ang^3
#
#
#
# Elastic Constant Matrix: (Units=GPa)
#
#
# Indices 1 2 3 4 5 6 
#
# 1 50.6242 19.3514 16.7980 3.8012 19.2444 -7.7291
# 2 19.3514 71.1171 1.7736 10.9194 3.0809 -13.5073
# 3 16.7980 1.7736 74.4272 -11.9196 15.2947 12.3004
# 4 3.8012 10.9194 -11.9196 34.5930 -0.9909 -3.2650
# 5 19.2444 3.0809 15.2947 -0.9909 29.0683 3.1976
# 6 -7.7291 -13.5073 12.3004 -3.2650 3.1976 31.0991
#
#
#
# Elastic Compliance Matrix: (Units=1/GPa)
#
#
# Indices 1 2 3 4 5 6 
#
# 1 0.032769 -0.005630 -0.005368 -0.003336 -0.019428 0.009469
# 2 -0.005630 0.017406 -0.001236 -0.004688 0.001715 0.005981
# 3 -0.005368 -0.001236 0.017939 0.006288 -0.004679 -0.007825
# 4 -0.003336 -0.004688 0.006288 0.032754 0.000732 -0.001989
# 5 -0.019428 0.001715 -0.004679 0.000732 0.050376 -0.007336
# 6 0.009469 0.005981 -0.007825 -0.001989 -0.007336 0.040747
#
#
# Mechanical properties :
#
#
# Convention : Reuss Voigt Hill
#
# Bulk Modulus (GPa) = 22.91250 30.22380 26.56815
# Shear Modulus (GPa) = 21.64448 29.50180 25.57314
#
# Velocity S-wave (km/s) = 3.09950 3.61862 3.36907
# Velocity P-wave (km/s) = 4.79364 5.55644 5.18908
#
# Compressibility (1/GPa) = 0.04364431
#
# Stress axis : x y z
#
# Youngs Moduli (GPa) = 30.51701 57.45302 55.74521
#
# Poissons Ratio (x) = 0.32348 0.29926
# Poissons Ratio (y) = 0.17182 0.06888
# Poissons Ratio (z) = 0.16383 0.07099
#
# Static dielectric constant tensor:
#      x y z
#    x 1.829210 0.019890 0.000540 
#    y 0.019890 1.846310 -0.042560 
#    z 0.000540 -0.042560 1.951400 
# 
# From -- ./inp_files/4277.got.cif
#   From: 2010.05.17/outbox.cif.g08.bks.cpg/sg1_3_cif.got.tgz:4277.got - 2010.05.17 20:27:59.
