data_PCOD9000348
_publ_section_title
;
Structure prediction by ZEFSAII (Michael W. Deem and Ramdas Pophale) SiO2 
 PCOD9000348
Probable space group: P 1
;
_chemical_formula_sum "Si O2"
_cell_formula_units_Z 8
_cell_length_a 8.955623
_cell_length_b 14.588999
_cell_length_c 5.097221
_cell_angle_alpha 124.574676
_cell_angle_beta 51.659052
_cell_angle_gamma 143.548795
_cell_volume 306.972192
_symmetry_space_group_name_H-M "P 1"
_symmetry_group_IT_number 1
_symmetry_cell_setting 'triclinic'
loop_
_space_group_symop_operation_xyz
x,y,z
loop_
_atom_site_type_symbol
_atom_site_label
_atom_site_fract_x
_atom_site_fract_y
_atom_site_fract_z
Si Si1 0.731130 0.925610 0.169910
Si Si2 0.597231 0.180946 0.974967
Si Si3 0.469211 0.369233 0.621538
Si Si4 0.884452 0.117063 0.838218
Si Si5 0.968342 0.578417 0.658601
Si Si6 0.707330 0.678946 0.612690
Si Si7 0.235657 0.872998 0.544406
Si Si8 0.134765 0.511761 0.847124
O O1 0.462128 0.872361 0.264061
O O2 0.820300 0.015817 0.490113
O O3 0.697723 0.780635 0.988634
O O4 0.918140 0.047159 0.932448
O O5 0.663370 0.123873 0.052899
O O6 0.891927 0.324398 0.761367
O O7 0.392613 0.039979 0.769880
O O8 0.478888 0.249713 0.302835
O O9 0.647031 0.437298 0.800458
O O10 0.642966 0.528625 0.530253
O O11 0.172444 0.292832 0.813249
O O12 0.055540 0.737436 0.740731
O O13 0.096317 0.591862 0.807080
O O14 0.065837 0.533651 0.247233
O O15 0.437895 0.595181 0.608845
O O16 0.028308 0.812674 0.438750
#
# Coordination Sequence:
#
# PCOD9000348 Si02
#       8
#     1   1   1   1   1   1   1   1
#     4  11  26  45  72 102 144 182 236 287 355 406
#     4  10  23  44  71 103 148 180 235 284 358 411
#     4  10  23  46  72 107 140 189 234 288 349 422
#     4  11  25  46  72 105 140 187 231 293 346 420
#     4  10  24  43  73  98 142 180 231 286 346 409
#     4  11  23  44  74 106 141 184 239 289 348 420
#     4  10  23  45  73 105 141 186 234 291 351 414
#     4  11  23  45  69 102 140 184 226 286 347 412
#
# _framework density 26.060995999999999
#
# number of rings (size 3 to 8) (size 9 to 14) (size 15 to 20)
#    0.000    1.500    2.500    0.750    3.500    8.000 
#    0.000   21.250    0.000    0.000    0.000    0.000 
#    0.000    0.000    0.000    0.000    0.000    0.000 
#
# Total GULP energy -44671.334511 kJ/mol
# GULP energy per Si atom -5583.916814 kJ/mol
# Density = 2.600168 g / cm^3
# Si number density = 26.060996 Si / 1000 Ang^3
#
#
#
# Elastic Constant Matrix: (Units=GPa)
#
#
# Indices 1 2 3 4 5 6 
#
# 1 73.3218 -6.0157 16.8494 9.9261 -53.1374 7.3496
# 2 -6.0157 110.0272 15.1058 33.5016 -20.8571 19.2276
# 3 16.8494 15.1058 69.3918 19.3273 -12.3541 -18.4037
# 4 9.9261 33.5016 19.3273 25.1354 1.9960 -14.0981
# 5 -53.1374 -20.8571 -12.3541 1.9960 5.5590 -9.1894
# 6 7.3496 19.2276 -18.4037 -14.0981 -9.1894 59.9599
#
#
#
# Elastic Compliance Matrix: (Units=1/GPa)
#
#
# Indices 1 2 3 4 5 6 
#
# 1 0.002251 -0.005687 -0.005052 0.012073 -0.014328 0.000640
# 2 -0.005687 0.014632 -0.001847 -0.021307 -0.015727 -0.011982
# 3 -0.005052 -0.001847 0.019216 -0.007302 -0.001315 0.005191
# 4 0.012073 -0.021307 -0.007302 0.081799 0.035886 0.027844
# 5 -0.014328 -0.015727 -0.001315 0.035886 -0.009861 0.013323
# 6 0.000640 -0.011982 0.005191 0.027844 0.013323 0.030624
#
#
# Mechanical properties :
#
#
# Convention : Reuss Voigt Hill
#
# Bulk Modulus (GPa) = 91.52980 33.84664 62.68822
# Shear Modulus (GPa) = 29.85497 33.25095 31.55296
#
# Velocity S-wave (km/s) = 3.38831 3.57583 3.48334
# Velocity P-wave (km/s) = 7.10670 5.48311 6.34703
#
# Compressibility (1/GPa) = 0.01092540
#
# Stress axis : x y z
#
# Youngs Moduli (GPa) = 444.29644 68.34502 52.03864
#
# Poissons Ratio (x) = 0.38869 0.26291
# Poissons Ratio (y) = 2.52676 0.09614
# Poissons Ratio (z) = 2.24466 0.12627
#
# Static dielectric constant tensor:
#      x y z
#    x 2.058140 0.019540 -0.011740 
#    y 0.019540 2.198690 -0.112800 
#    z -0.011740 -0.112800 2.098370 
# 
# From -- ./inp_files/1869.got.cif
#   From: 2010.05.17/outbox.cif.g08.bks.cpg/sg1_1_cif.got.tgz:1869.got - 2010.05.17 20:27:59.
