data_PCOD9000290
_publ_section_title
;
Structure prediction by ZEFSAII (Michael W. Deem and Ramdas Pophale) SiO2 
 PCOD9000290
Probable space group: P 1
;
_chemical_formula_sum "Si O2"
_cell_formula_units_Z 8
_cell_length_a 9.086807
_cell_length_b 14.575247
_cell_length_c 11.258439
_cell_angle_alpha 149.402807
_cell_angle_beta 41.393763
_cell_angle_gamma 155.529267
_cell_volume 310.448196
_symmetry_space_group_name_H-M "P 1"
_symmetry_group_IT_number 1
_symmetry_cell_setting 'triclinic'
loop_
_space_group_symop_operation_xyz
x,y,z
loop_
_atom_site_type_symbol
_atom_site_label
_atom_site_fract_x
_atom_site_fract_y
_atom_site_fract_z
Si Si1 0.189010 0.330690 0.591890
Si Si2 0.979854 0.684208 0.507674
Si Si3 0.767568 0.990962 0.685134
Si Si4 0.199913 0.708662 0.895517
Si Si5 0.148809 0.449351 0.277046
Si Si6 0.774785 0.736070 0.062265
Si Si7 0.966676 0.716971 0.290756
Si Si8 0.167378 0.106288 0.011105
O O1 0.608870 0.558028 0.590636
O O2 0.120097 0.448181 0.673721
O O3 0.021832 0.265538 0.749520
O O4 0.003683 0.029248 0.324789
O O5 0.081688 0.710129 0.339429
O O6 0.935604 0.482616 0.392483
O O7 0.257060 0.000998 0.750116
O O8 0.577926 0.963151 0.880773
O O9 0.431939 0.714324 0.496226
O O10 0.972991 0.938643 0.538820
O O11 0.910494 0.628587 0.902030
O O12 0.181446 0.785831 0.122808
O O13 0.374800 0.516545 0.103008
O O14 0.005858 0.180336 0.128536
O O15 0.886573 0.847154 0.985425
O O16 0.545415 0.399146 0.169616
#
# Coordination Sequence:
#
# PCOD9000290 Si02
#       8
#     1   1   1   1   1   1   1   1
#     4  11  24  44  73 109 148 191 245 302 363 440
#     4  12  26  48  72 114 150 191 249 304 367 440
#     4  10  22  48  75 106 146 198 246 297 370 437
#     4  12  23  42  80 107 142 204 242 297 379 431
#     4  10  24  47  71 111 151 187 251 308 358 442
#     4  11  23  44  77 106 146 195 249 298 369 439
#     4  11  24  50  73 109 150 192 250 298 363 446
#     4  11  24  49  73 102 151 196 236 304 373 427
#
# _framework density 25.769192
#
# number of rings (size 3 to 8) (size 9 to 14) (size 15 to 20)
#    0.000    1.000    6.250    1.500    5.250    2.000 
#    6.750    0.000    0.000    0.000    0.000    0.000 
#    0.000    0.000    0.000    0.000    0.000    0.000 
#
# Total GULP energy -44862.387734 kJ/mol
# GULP energy per Si atom -5607.798467 kJ/mol
# Density = 2.571054 g / cm^3
# Si number density = 25.769192 Si / 1000 Ang^3
#
#
#
# Elastic Constant Matrix: (Units=GPa)
#
#
# Indices 1 2 3 4 5 6 
#
# 1 149.0837 36.5101 48.0717 2.0991 -28.1489 -41.8418
# 2 36.5101 102.1812 17.9785 -24.7163 -3.2793 -30.6029
# 3 48.0717 17.9785 80.9664 -10.6321 -8.8099 -10.0839
# 4 2.0991 -24.7163 -10.6321 46.6344 -12.7032 6.0820
# 5 -28.1489 -3.2793 -8.8099 -12.7032 52.6305 -5.3125
# 6 -41.8418 -30.6029 -10.0839 6.0820 -5.3125 44.6674
#
#
#
# Elastic Compliance Matrix: (Units=1/GPa)
#
#
# Indices 1 2 3 4 5 6 
#
# 1 0.013409 -0.000363 -0.005860 -0.001812 0.006948 0.012062
# 2 -0.000363 0.014564 -0.000590 0.007335 0.003283 0.008897
# 3 -0.005860 -0.000590 0.016176 0.004065 0.000239 -0.002767
# 4 -0.001812 0.007335 0.004065 0.028103 0.007078 0.001261
# 5 0.006948 0.003283 0.000239 0.007078 0.025771 0.010913
# 6 0.012062 0.008897 -0.002767 0.001261 0.010913 0.040284
#
#
# Mechanical properties :
#
#
# Convention : Reuss Voigt Hill
#
# Bulk Modulus (GPa) = 32.76213 59.70578 46.23396
# Shear Modulus (GPa) = 30.84354 44.09786 37.47070
#
# Velocity S-wave (km/s) = 3.46340 4.14123 3.81739
# Velocity P-wave (km/s) = 5.36049 6.78868 6.11641
#
# Compressibility (1/GPa) = 0.03052305
#
# Stress axis : x y z
#
# Youngs Moduli (GPa) = 74.57700 68.66158 61.81860
#
# Poissons Ratio (x) = 0.02491 0.36228
# Poissons Ratio (y) = 0.02706 0.03648
# Poissons Ratio (z) = 0.43705 0.04051
#
# Static dielectric constant tensor:
#      x y z
#    x 2.005450 0.013210 0.074020 
#    y 0.013210 2.003780 -0.002560 
#    z 0.074020 -0.002560 2.048380 
# 
# From -- ./inp_files/6625.got.cif
#   From: 2010.05.17/outbox.cif.g08.bks.cpg/sg1_4_cif.got.tgz:6625.got - 2010.05.17 20:27:59.
