data_PCOD9000863
_publ_section_title
;
Structure prediction by ZEFSAII (Michael W. Deem and Ramdas Pophale) SiO2 
 PCOD9000863
Probable space group: P 1
;
_chemical_formula_sum "Si O2"
_cell_formula_units_Z 8
_cell_length_a 11.684020
_cell_length_b 19.168986
_cell_length_c 7.552647
_cell_angle_alpha 42.532624
_cell_angle_beta 140.927018
_cell_angle_gamma 155.696819
_cell_volume 435.999376
_symmetry_space_group_name_H-M "P 1"
_symmetry_group_IT_number 1
_symmetry_cell_setting 'triclinic'
loop_
_space_group_symop_operation_xyz
x,y,z
loop_
_atom_site_type_symbol
_atom_site_label
_atom_site_fract_x
_atom_site_fract_y
_atom_site_fract_z
Si Si1 0.430830 0.908020 0.883940
Si Si2 0.563502 0.423725 0.084118
Si Si3 0.875279 0.097194 0.758863
Si Si4 0.457132 0.728882 0.017780
Si Si5 0.857531 0.398796 0.718229
Si Si6 0.481139 0.394992 0.432014
Si Si7 0.783151 0.667795 0.586126
Si Si8 0.821302 0.141472 0.221763
O O1 0.134893 0.843237 0.646246
O O2 0.697914 0.062373 0.781671
O O3 0.346121 0.756901 0.986245
O O4 0.561749 0.967147 0.127307
O O5 0.749200 0.404638 0.395528
O O6 0.516757 0.453869 0.165043
O O7 0.736576 0.575583 0.874319
O O8 0.230102 0.251806 0.930375
O O9 0.803342 0.126013 0.440239
O O10 0.723418 0.915612 0.898146
O O11 0.596237 0.687937 0.338903
O O12 0.190015 0.582009 0.836690
O O13 0.635468 0.352945 0.679930
O O14 0.826542 0.262754 0.940412
O O15 0.647736 0.542877 0.493224
O O16 0.136332 0.233401 0.372609
#
# Coordination Sequence:
#
# PCOD9000863 Si02
#       8
#     1   1   1   1   1   1   1   1
#     4  10  24  40  62  96 124 156 208 256 298 368
#     4  10  22  41  63  94 122 158 214 247 293 386
#     4  10  22  43  61  92 127 155 211 253 294 377
#     4  10  22  43  61  92 127 155 211 253 294 377
#     4  10  22  41  63  94 122 158 214 247 293 386
#     4  10  20  40  62  94 120 154 212 254 286 372
#     4  12  22  42  66  85 131 166 193 259 315 343
#     4  12  22  42  66  85 131 166 193 259 315 343
#
# _framework density 18.348649999999999
#
# number of rings (size 3 to 8) (size 9 to 14) (size 15 to 20)
#    1.500    0.000    5.000    0.000    3.500    0.000 
#    9.000    0.000    0.000    0.000    0.000    0.000 
#    0.000    0.000    0.000    0.000    0.000    0.000 
#
# Total GULP energy -44541.937485 kJ/mol
# GULP energy per Si atom -5567.742186 kJ/mol
# Density = 1.830689 g / cm^3
# Si number density = 18.348650 Si / 1000 Ang^3
#
#
#
# Elastic Constant Matrix: (Units=GPa)
#
#
# Indices 1 2 3 4 5 6 
#
# 1 45.1033 1.6583 14.3091 5.0986 -5.7439 1.2631
# 2 1.6583 58.9539 14.8141 19.8373 -3.2361 5.5210
# 3 14.3091 14.8141 78.9303 10.0995 -15.1028 13.0717
# 4 5.0986 19.8373 10.0995 33.1017 -0.5620 -1.7966
# 5 -5.7439 -3.2361 -15.1028 -0.5620 31.0570 12.4376
# 6 1.2631 5.5210 13.0717 -1.7966 12.4376 21.3625
#
#
#
# Elastic Compliance Matrix: (Units=1/GPa)
#
#
# Indices 1 2 3 4 5 6 
#
# 1 0.024123 0.001961 -0.002837 -0.004120 0.004472 -0.003147
# 2 0.001961 0.023404 0.000773 -0.015108 0.007917 -0.012517
# 3 -0.002837 0.000773 0.022529 -0.007995 0.021087 -0.026767
# 4 -0.004120 -0.015108 -0.007995 0.043226 -0.013716 0.020662
# 5 0.004472 0.007917 0.021087 -0.013716 0.065740 -0.054642
# 6 -0.003147 -0.012517 -0.026767 0.020662 -0.054642 0.100162
#
#
# Mechanical properties :
#
#
# Convention : Reuss Voigt Hill
#
# Bulk Modulus (GPa) = 14.31657 27.17228 20.74443
# Shear Modulus (GPa) = 16.51945 27.25130 21.88537
#
# Velocity S-wave (km/s) = 3.00377 3.85800 3.45737
# Velocity P-wave (km/s) = 4.45529 5.88953 5.22189
#
# Compressibility (1/GPa) = 0.06984912
#
# Stress axis : x y z
#
# Youngs Moduli (GPa) = 41.45473 42.72863 44.38643
#
# Poissons Ratio (x) = -0.08379 0.12593
# Poissons Ratio (y) = -0.08129 -0.03431
# Poissons Ratio (z) = 0.11761 -0.03303
#
# Static dielectric constant tensor:
#      x y z
#    x 1.627300 0.006000 -0.005310 
#    y 0.006000 1.642270 0.012780 
#    z -0.005310 0.012780 1.615470 
# 
# From -- ./inp_files/4770.got.cif
#   From: 2010.05.17/outbox.cif.g08.bks.cpg/sg1_3_cif.got.tgz:4770.got - 2010.05.17 20:27:59.
