data_PCOD9000825
_publ_section_title
;
Structure prediction by ZEFSAII (Michael W. Deem and Ramdas Pophale) SiO2 
 PCOD9000825
Probable space group: P 1
;
_chemical_formula_sum "Si O2"
_cell_formula_units_Z 8
_cell_length_a 8.524228
_cell_length_b 9.727294
_cell_length_c 5.789237
_cell_angle_alpha 88.379065
_cell_angle_beta 59.230662
_cell_angle_gamma 51.242298
_cell_volume 289.490264
_symmetry_space_group_name_H-M "P 1"
_symmetry_group_IT_number 1
_symmetry_cell_setting 'triclinic'
loop_
_space_group_symop_operation_xyz
x,y,z
loop_
_atom_site_type_symbol
_atom_site_label
_atom_site_fract_x
_atom_site_fract_y
_atom_site_fract_z
Si Si1 0.209900 0.652780 0.455850
Si Si2 0.027882 0.052955 0.045558
Si Si3 0.731983 0.029699 0.563941
Si Si4 0.754606 0.545278 0.061892
Si Si5 0.303261 0.499969 0.901328
Si Si6 0.735860 0.451055 0.499663
Si Si7 0.168597 0.171988 0.567137
Si Si8 0.509966 0.903508 0.947880
O O1 0.487172 0.590575 0.245269
O O2 0.192138 0.578602 0.717806
O O3 0.187808 0.566911 0.246117
O O4 0.959414 0.886018 0.590809
O O5 0.879274 0.993591 0.219634
O O6 0.824559 0.282341 0.262714
O O7 0.134359 0.042020 0.718866
O O8 0.259781 0.953475 0.053696
O O9 0.518515 0.262293 0.760057
O O10 0.588293 0.961693 0.680836
O O11 0.743963 0.585341 0.341788
O O12 0.063290 0.336362 0.824122
O O13 0.708633 0.689602 0.909977
O O14 0.453769 0.565796 0.788288
O O15 0.928936 0.326917 0.567242
O O16 0.420036 0.044919 0.228002
#
# Coordination Sequence:
#
# PCOD9000825 Si02
#       8
#     1   1   1   1   1   1   1   1
#     4  11  23  44  73 106 139 196 243 295 368 432
#     4   9  20  42  65  94 131 180 230 286 349 426
#     4  11  25  46  70 104 146 187 238 302 361 434
#     4  10  20  37  67  98 134 177 235 289 349 433
#     4  10  23  43  70 103 143 188 243 297 360 430
#     4   8  17  35  64  95 124 175 229 280 349 412
#     4  10  20  40  69  92 132 184 229 286 361 415
#     4  11  24  43  64 104 135 179 233 285 361 424
#
# _framework density 27.634782000000001
#
# number of rings (size 3 to 8) (size 9 to 14) (size 15 to 20)
#    0.000    2.000    2.500    0.750    0.000    5.000 
#   11.250    0.000    0.000    0.000    0.000    0.000 
#    0.000    0.000    0.000    0.000    0.000    0.000 
#
# Total GULP energy -44591.861341 kJ/mol
# GULP energy per Si atom -5573.982668 kJ/mol
# Density = 2.757188 g / cm^3
# Si number density = 27.634782 Si / 1000 Ang^3
#
#
#
# Elastic Constant Matrix: (Units=GPa)
#
#
# Indices 1 2 3 4 5 6 
#
# 1 73.8974 37.8945 41.8954 -0.9590 -4.4176 -7.5793
# 2 37.8945 172.5705 63.4674 -13.3438 6.9425 -16.4546
# 3 41.8954 63.4674 115.1046 -28.5313 4.5933 1.8092
# 4 -0.9590 -13.3438 -28.5313 63.3942 -7.1533 0.6579
# 5 -4.4176 6.9425 4.5933 -7.1533 28.7727 -16.1355
# 6 -7.5793 -16.4546 1.8092 0.6579 -16.1355 40.2425
#
#
#
# Elastic Compliance Matrix: (Units=1/GPa)
#
#
# Indices 1 2 3 4 5 6 
#
# 1 0.019516 -0.001477 -0.007317 -0.002528 0.007512 0.006454
# 2 -0.001477 0.007828 -0.003869 -0.000119 0.000271 0.003207
# 3 -0.007317 -0.003869 0.015090 0.005437 -0.004305 -0.005454
# 4 -0.002528 -0.000119 0.005437 0.018560 0.003593 0.000368
# 5 0.007512 0.000271 -0.004305 0.003593 0.049481 0.021500
# 6 0.006454 0.003207 -0.005454 0.000368 0.021500 0.036236
#
#
# Mechanical properties :
#
#
# Convention : Reuss Voigt Hill
#
# Bulk Modulus (GPa) = 58.45431 72.00966 65.23199
# Shear Modulus (GPa) = 28.13121 41.03624 34.58372
#
# Velocity S-wave (km/s) = 3.19402 3.85768 3.54143
# Velocity P-wave (km/s) = 5.89921 6.77912 6.35441
#
# Compressibility (1/GPa) = 0.01710738
#
# Stress axis : x y z
#
# Youngs Moduli (GPa) = 51.23989 127.75035 66.27057
#
# Poissons Ratio (x) = 0.18866 0.48490
# Poissons Ratio (y) = 0.07567 0.25642
# Poissons Ratio (z) = 0.37492 0.49431
#
# Static dielectric constant tensor:
#      x y z
#    x 2.291610 0.093630 0.054460 
#    y 0.093630 2.242670 0.024020 
#    z 0.054460 0.024020 2.320910 
# 
# From -- ./inp_files/1200.got.cif
#   From: 2010.05.17/outbox.cif.g08.bks.cpg/sg1_1_cif.got.tgz:1200.got - 2010.05.17 20:27:59.
