data_PCOD9000179
_publ_section_title
;
Structure prediction by ZEFSAII (Michael W. Deem and Ramdas Pophale) SiO2 
 PCOD9000179
Probable space group: P 1
;
_chemical_formula_sum "Si O2"
_cell_formula_units_Z 8
_cell_length_a 12.176562
_cell_length_b 5.038992
_cell_length_c 14.696498
_cell_angle_alpha 83.450283
_cell_angle_beta 29.791065
_cell_angle_gamma 102.860001
_cell_volume 337.684971
_symmetry_space_group_name_H-M "P 1"
_symmetry_group_IT_number 1
_symmetry_cell_setting 'triclinic'
loop_
_space_group_symop_operation_xyz
x,y,z
loop_
_atom_site_type_symbol
_atom_site_label
_atom_site_fract_x
_atom_site_fract_y
_atom_site_fract_z
Si Si1 0.503110 0.125000 0.073770
Si Si2 0.708896 0.020932 0.480021
Si Si3 0.180730 0.947689 0.939808
Si Si4 0.081831 0.125882 0.829509
Si Si5 0.146244 0.566236 0.607960
Si Si6 0.451923 0.524648 0.236628
Si Si7 0.586595 0.159912 0.379396
Si Si8 0.084057 0.828048 0.217373
O O1 0.383013 0.219170 0.235947
O O2 0.474535 0.800043 0.143264
O O3 0.324866 0.019608 0.114127
O O4 0.844938 0.467016 0.802179
O O5 0.645658 0.976217 0.418794
O O6 0.967121 0.437727 0.297948
O O7 0.437827 0.948075 0.727154
O O8 0.817503 0.814031 0.437114
O O9 0.155816 0.181399 0.880757
O O10 0.196948 0.024128 0.031347
O O11 0.880689 0.556833 0.150242
O O12 0.086558 0.400182 0.757884
O O13 0.335222 0.146556 0.603022
O O14 0.767835 0.752336 0.047923
O O15 0.217117 0.399817 0.488478
O O16 0.451166 0.958824 0.389383
#
# Coordination Sequence:
#
# PCOD9000179 Si02
#       8
#     1   1   1   1   1   1   1   1
#     4  11  26  47  69 102 139 183 237 284 334 414
#     4  10  25  43  69 102 136 181 232 283 340 411
#     4  10  24  44  71 103 138 186 221 287 357 402
#     4  10  22  42  65 104 144 172 227 280 347 421
#     4  11  25  42  71 103 142 179 227 285 352 413
#     4  11  25  42  72 100 138 187 223 282 351 399
#     4  10  22  41  66 103 142 175 223 284 347 420
#     4  11  25  49  69  99 141 183 236 285 336 410
#
# _framework density 23.690719000000001
#
# number of rings (size 3 to 8) (size 9 to 14) (size 15 to 20)
#    0.000    1.500    1.250    1.500   10.500    5.000 
#    2.250    0.000    0.000    0.000    0.000    0.000 
#    0.000    0.000    0.000    0.000    0.000    0.000 
#
# Total GULP energy -44795.389948 kJ/mol
# GULP energy per Si atom -5599.423744 kJ/mol
# Density = 2.363680 g / cm^3
# Si number density = 23.690719 Si / 1000 Ang^3
#
#
#
# Elastic Constant Matrix: (Units=GPa)
#
#
# Indices 1 2 3 4 5 6 
#
# 1 191.3662 37.6776 56.3925 2.1777 -23.3965 25.8559
# 2 37.6776 73.5622 12.0756 8.2696 -12.6326 14.0906
# 3 56.3925 12.0756 84.7082 11.8620 -3.3901 14.2863
# 4 2.1777 8.2696 11.8620 32.1194 2.2525 1.8535
# 5 -23.3965 -12.6326 -3.3901 2.2525 34.4197 -1.6881
# 6 25.8559 14.0906 14.2863 1.8535 -1.6881 40.9737
#
#
#
# Elastic Compliance Matrix: (Units=1/GPa)
#
#
# Indices 1 2 3 4 5 6 
#
# 1 0.007786 -0.002308 -0.004513 0.001611 0.003775 -0.002463
# 2 -0.002308 0.016783 0.000664 -0.004503 0.004748 -0.004147
# 3 -0.004513 0.000664 0.015904 -0.005509 -0.001031 -0.002719
# 4 0.001611 -0.004503 -0.005509 0.034407 -0.003315 0.000760
# 5 0.003775 0.004748 -0.001031 -0.003315 0.033372 -0.002130
# 6 -0.002463 -0.004147 -0.002719 0.000760 -0.002130 0.028212
#
#
# Mechanical properties :
#
#
# Convention : Reuss Voigt Hill
#
# Bulk Modulus (GPa) = 35.51333 62.43644 48.97489
# Shear Modulus (GPa) = 31.61243 37.73530 34.67386
#
# Velocity S-wave (km/s) = 3.65688 3.99536 3.82986
# Velocity P-wave (km/s) = 5.73178 6.90622 6.34623
#
# Compressibility (1/GPa) = 0.02815844
#
# Stress axis : x y z
#
# Youngs Moduli (GPa) = 128.43575 59.58408 62.87724
#
# Poissons Ratio (x) = 0.13752 0.28379
# Poissons Ratio (y) = 0.29643 -0.04176
# Poissons Ratio (z) = 0.57968 -0.03957
#
# Static dielectric constant tensor:
#      x y z
#    x 1.874650 -0.039890 0.040300 
#    y -0.039890 1.923490 -0.054430 
#    z 0.040300 -0.054430 1.930620 
# 
# From -- ./inp_files/359.got.cif
#   From: 2010.05.17/outbox.cif.g08.bks.cpg/sg1_1_cif.got.tgz:359.got - 2010.05.17 20:27:59.
