data_PCOD9000502
_publ_section_title
;
Structure prediction by ZEFSAII (Michael W. Deem and Ramdas Pophale) SiO2 
 PCOD9000502
Probable space group: P 1
;
_chemical_formula_sum "Si O2"
_cell_formula_units_Z 6
_cell_length_a 5.279905
_cell_length_b 5.112906
_cell_length_c 10.782674
_cell_angle_alpha 103.341720
_cell_angle_beta 64.123783
_cell_angle_gamma 97.596974
_cell_volume 254.667501
_symmetry_space_group_name_H-M "P 1"
_symmetry_group_IT_number 1
_symmetry_cell_setting 'triclinic'
loop_
_space_group_symop_operation_xyz
x,y,z
loop_
_atom_site_type_symbol
_atom_site_label
_atom_site_fract_x
_atom_site_fract_y
_atom_site_fract_z
Si Si1 0.483460 0.270790 0.453140
Si Si2 0.551911 0.814476 0.241280
Si Si3 0.049767 0.547955 0.400755
Si Si4 0.491142 0.220775 0.874985
Si Si5 0.834113 0.267797 0.057934
Si Si6 0.584584 0.643918 0.690215
O O1 0.262859 0.358468 0.406966
O O2 0.416156 0.435012 0.610132
O O3 0.801840 0.375671 0.372036
O O4 0.516966 0.949557 0.401157
O O5 0.227030 0.719028 0.282101
O O6 0.731122 0.557353 0.152775
O O7 0.681247 0.039341 0.149081
O O8 0.880674 0.699636 0.560987
O O9 0.598428 0.465575 0.790983
O O10 0.474239 0.934637 0.776003
O O11 0.709018 0.212054 0.940985
O O12 0.171200 0.265194 0.990678
#
# Coordination Sequence:
#
# PCOD9000502 Si02
#       6
#     1   1   1   1   1   1
#     4  10  26  43  76 112 139 187 227 319 363 415
#     4  12  26  51  74 111 148 182 254 290 374 426
#     4  10  26  43  76 112 139 187 227 319 363 415
#     4  12  28  49  70 105 146 200 240 286 352 436
#     4  12  30  45  76 101 150 202 234 294 346 442
#     4  10  28  45  78 103 150 176 254 292 368 422
#
# _framework density 23.560130999999998
#
# number of rings (size 3 to 8) (size 9 to 14) (size 15 to 20)
#    1.000    0.000    1.667    2.000   11.667    4.000 
#    0.000    0.000    0.000    0.000    0.000    0.000 
#    0.000    0.000    0.000    0.000    0.000    0.000 
#
# Total GULP energy -33503.099859 kJ/mol
# GULP energy per Si atom -5583.849977 kJ/mol
# Density = 2.350651 g / cm^3
# Si number density = 23.560131 Si / 1000 Ang^3
#
#
#
# Elastic Constant Matrix: (Units=GPa)
#
#
# Indices 1 2 3 4 5 6 
#
# 1 77.5444 6.6716 12.8851 -0.1217 -0.5636 5.0112
# 2 6.6716 131.6119 40.3205 16.6998 -21.6512 -13.5583
# 3 12.8851 40.3205 75.2275 12.8097 -21.1250 -6.9332
# 4 -0.1217 16.6998 12.8097 63.5470 -5.5500 -2.3375
# 5 -0.5636 -21.6512 -21.1250 -5.5500 36.3427 3.0777
# 6 5.0112 -13.5583 -6.9332 -2.3375 3.0777 23.7369
#
#
#
# Elastic Compliance Matrix: (Units=1/GPa)
#
#
# Indices 1 2 3 4 5 6 
#
# 1 0.013653 -0.000480 -0.002894 0.000477 -0.001363 -0.003778
# 2 -0.000480 0.009882 -0.003705 -0.001424 0.003160 0.004113
# 3 -0.002894 -0.003705 0.018618 -0.001984 0.008039 0.002695
# 4 0.000477 -0.001424 -0.001984 0.016560 0.000529 0.000069
# 5 -0.001363 0.003160 0.008039 0.000529 0.034125 0.000068
# 6 -0.003778 0.004113 0.002695 0.000069 0.000068 0.046061
#
#
# Mechanical properties :
#
#
# Convention : Reuss Voigt Hill
#
# Bulk Modulus (GPa) = 35.71999 44.90424 40.31211
# Shear Modulus (GPa) = 30.79045 39.69243 35.24144
#
# Velocity S-wave (km/s) = 3.61901 4.10900 3.87176
# Velocity P-wave (km/s) = 5.71464 6.45078 6.09384
#
# Compressibility (1/GPa) = 0.02799553
#
# Stress axis : x y z
#
# Youngs Moduli (GPa) = 73.24447 101.19563 53.71080
#
# Poissons Ratio (x) = 0.04853 0.15542
# Poissons Ratio (y) = 0.03513 0.19902
# Poissons Ratio (z) = 0.21195 0.37497
#
# Static dielectric constant tensor:
#      x y z
#    x 1.863410 -0.009660 0.025240 
#    y -0.009660 1.894670 0.017780 
#    z 0.025240 0.017780 1.966140 
# 
# From -- ./inp_files/740.got.cif
#   From: 2010.05.17/outbox.cif.g08.bks.cpg/sg1_1_cif.got.tgz:740.got - 2010.05.17 20:27:59.
