data_PCOD9000286
_publ_section_title
;
Structure prediction by ZEFSAII (Michael W. Deem and Ramdas Pophale) SiO2 
 PCOD9000286
Probable space group: P 1
;
_chemical_formula_sum "Si O2"
_cell_formula_units_Z 8
_cell_length_a 4.996817
_cell_length_b 10.818781
_cell_length_c 11.534865
_cell_angle_alpha 36.792837
_cell_angle_beta 120.683214
_cell_angle_gamma 106.875985
_cell_volume 312.592347
_symmetry_space_group_name_H-M "P 1"
_symmetry_group_IT_number 1
_symmetry_cell_setting 'triclinic'
loop_
_space_group_symop_operation_xyz
x,y,z
loop_
_atom_site_type_symbol
_atom_site_label
_atom_site_fract_x
_atom_site_fract_y
_atom_site_fract_z
Si Si1 0.581450 0.361470 0.371950
Si Si2 0.044297 0.957222 0.456244
Si Si3 0.512487 0.893558 0.794840
Si Si4 0.313683 0.396954 0.796431
Si Si5 0.141096 0.709352 0.172835
Si Si6 0.443148 0.230774 0.208356
Si Si7 0.635133 0.637617 0.532933
Si Si8 0.204125 0.135162 0.770002
O O1 0.566340 0.115523 0.583934
O O2 0.393947 0.543755 0.276667
O O3 0.417388 0.392095 0.187583
O O4 0.957608 0.329367 0.507417
O O5 0.798849 0.834297 0.438131
O O6 0.305244 0.819523 0.703437
O O7 0.216629 0.073901 0.312129
O O8 0.819397 0.119010 0.372786
O O9 0.351018 0.983525 0.811765
O O10 0.801456 0.705255 0.043098
O O11 0.529630 0.563190 0.690012
O O12 0.409264 0.236694 0.829546
O O13 0.927113 0.478837 0.649991
O O14 0.376776 0.311484 0.003462
O O15 0.306287 0.678211 0.358318
O O16 0.090802 0.965263 0.953931
#
# Coordination Sequence:
#
# PCOD9000286 Si02
#       8
#     1   1   1   1   1   1   1   1
#     4  10  22  47  74 108 151 195 261 317 386 457
#     4  11  24  50  78 108 155 202 259 316 392 461
#     4  10  24  45  78 110 148 200 255 326 383 460
#     4  12  27  47  74 112 158 204 258 319 385 461
#     4  11  25  44  78 112 148 204 258 319 385 461
#     4  11  24  49  78 108 153 208 251 321 391 458
#     4  12  27  48  74 112 159 203 258 321 381 465
#     4  11  23  44  76 106 152 200 260 315 387 457
#
# _framework density 25.592435999999999
#
# number of rings (size 3 to 8) (size 9 to 14) (size 15 to 20)
#    0.000    1.000    2.500    3.000    3.500    2.000 
#    9.000    0.000    0.000    0.000    0.000    0.000 
#    0.000    0.000    0.000    0.000    0.000    0.000 
#
# Total GULP energy -44658.273536 kJ/mol
# GULP energy per Si atom -5582.284192 kJ/mol
# Density = 2.553419 g / cm^3
# Si number density = 25.592436 Si / 1000 Ang^3
#
#
#
# Elastic Constant Matrix: (Units=GPa)
#
#
# Indices 1 2 3 4 5 6 
#
# 1 120.9757 14.7159 47.3171 7.8378 -15.3924 15.2957
# 2 14.7159 104.7441 43.1006 21.9929 -17.1359 9.1161
# 3 47.3171 43.1006 134.6832 22.1689 -7.1580 8.6146
# 4 7.8378 21.9929 22.1689 37.0088 -9.1546 2.9193
# 5 -15.3924 -17.1359 -7.1580 -9.1546 48.9826 -6.0579
# 6 15.2957 9.1161 8.6146 2.9193 -6.0579 43.2795
#
#
#
# Elastic Compliance Matrix: (Units=1/GPa)
#
#
# Indices 1 2 3 4 5 6 
#
# 1 0.010230 0.000592 -0.003548 0.000478 0.002659 -0.002694
# 2 0.000592 0.012364 -0.003132 -0.004743 0.002988 -0.001452
# 3 -0.003548 -0.003132 0.010239 -0.003873 -0.001447 -0.000065
# 4 0.000478 -0.004743 -0.003873 0.033076 0.004100 -0.000056
# 5 0.002659 0.002988 -0.001447 0.004100 0.023058 0.001670
# 6 -0.002694 -0.001452 -0.000065 -0.000056 0.001670 0.024614
#
#
# Mechanical properties :
#
#
# Convention : Reuss Voigt Hill
#
# Bulk Modulus (GPa) = 48.41397 63.40780 55.91088
# Shear Modulus (GPa) = 37.69523 42.87215 40.28369
#
# Velocity S-wave (km/s) = 3.84201 4.09735 3.97173
# Velocity P-wave (km/s) = 6.21609 6.87125 6.55186
#
# Compressibility (1/GPa) = 0.02065520
#
# Stress axis : x y z
#
# Youngs Moduli (GPa) = 97.75136 80.88151 97.66923
#
# Poissons Ratio (x) = -0.04789 0.34658
# Poissons Ratio (y) = -0.05788 0.30593
# Poissons Ratio (z) = 0.34687 0.25334
#
# Static dielectric constant tensor:
#      x y z
#    x 2.160670 0.114320 0.030380 
#    y 0.114320 2.109350 -0.027920 
#    z 0.030380 -0.027920 2.098340 
# 
# From -- ./inp_files/6099.got.cif
#   From: 2010.05.17/outbox.cif.g08.bks.cpg/sg1_4_cif.got.tgz:6099.got - 2010.05.17 20:27:59.
