data_PCOD9000261
_publ_section_title
;
Structure prediction by ZEFSAII (Michael W. Deem and Ramdas Pophale) SiO2 
 PCOD9000261
Probable space group: P 1
;
_chemical_formula_sum "Si O2"
_cell_formula_units_Z 8
_cell_length_a 7.387766
_cell_length_b 8.280243
_cell_length_c 7.449163
_cell_angle_alpha 118.020102
_cell_angle_beta 90.460907
_cell_angle_gamma 55.809842
_cell_volume 311.639151
_symmetry_space_group_name_H-M "P 1"
_symmetry_group_IT_number 1
_symmetry_cell_setting 'triclinic'
loop_
_space_group_symop_operation_xyz
x,y,z
loop_
_atom_site_type_symbol
_atom_site_label
_atom_site_fract_x
_atom_site_fract_y
_atom_site_fract_z
Si Si1 0.951530 0.940190 0.055750
Si Si2 0.197230 0.364851 0.453371
Si Si3 0.132488 0.853452 0.362828
Si Si4 0.511886 0.848813 0.169472
Si Si5 0.195352 0.035092 0.820245
Si Si6 0.682001 0.699210 0.474758
Si Si7 0.994076 0.484621 0.871670
Si Si8 0.499920 0.403003 0.287075
O O1 0.923096 0.007956 0.302966
O O2 0.693869 0.140065 0.079758
O O3 0.025528 0.682128 0.942435
O O4 0.120557 0.959894 0.949628
O O5 0.374596 0.421332 0.479882
O O6 0.939837 0.568359 0.482659
O O7 0.144287 0.311545 0.618136
O O8 0.355183 0.110518 0.225323
O O9 0.334587 0.814905 0.223890
O O10 0.262834 0.578588 0.260374
O O11 0.105146 0.971699 0.613661
O O12 0.647835 0.815800 0.339912
O O13 0.715155 0.641388 0.939088
O O14 0.071322 0.311884 0.950085
O O15 0.468591 0.890192 0.703337
O O16 0.633901 0.511030 0.355738
#
# Coordination Sequence:
#
# PCOD9000261 Si02
#       8
#     1   1   1   1   1   1   1   1
#     4  12  25  46  74 106 148 194 235 314 371 421
#     4  12  23  44  72 102 142 191 236 301 375 419
#     4  10  23  47  72  97 149 195 232 306 374 420
#     4  10  22  45  66 100 143 181 244 300 352 444
#     4  10  23  49  72 111 146 186 258 294 357 467
#     4  10  23  45  72  94 144 197 226 304 371 418
#     4  12  24  44  73 109 144 183 253 302 354 457
#     4  10  23  44  69 105 144 181 252 299 346 458
#
# _framework density 25.670718000000001
#
# number of rings (size 3 to 8) (size 9 to 14) (size 15 to 20)
#    0.000    1.500    3.750    3.750    3.500    0.000 
#    2.250    1.250    0.000    0.000    0.000    0.000 
#    0.000    0.000    0.000    0.000    0.000    0.000 
#
# Total GULP energy -44630.347223 kJ/mol
# GULP energy per Si atom -5578.793403 kJ/mol
# Density = 2.561229 g / cm^3
# Si number density = 25.670718 Si / 1000 Ang^3
#
#
#
# Elastic Constant Matrix: (Units=GPa)
#
#
# Indices 1 2 3 4 5 6 
#
# 1 91.4160 30.7409 29.7383 2.2696 -24.9230 15.6139
# 2 30.7409 148.6968 42.0703 17.5918 -1.3772 -5.4980
# 3 29.7383 42.0703 84.7385 7.6681 -18.6490 5.8379
# 4 2.2696 17.5918 7.6681 55.6747 -3.9155 -1.3204
# 5 -24.9230 -1.3772 -18.6490 -3.9155 35.5741 -0.5633
# 6 15.6139 -5.4980 5.8379 -1.3204 -0.5633 29.5574
#
#
#
# Elastic Compliance Matrix: (Units=1/GPa)
#
#
# Indices 1 2 3 4 5 6 
#
# 1 0.017141 -0.003564 -0.001254 0.001169 0.011197 -0.009205
# 2 -0.003564 0.009087 -0.004357 -0.002350 -0.004621 0.004240
# 3 -0.001254 -0.004357 0.016290 -0.000372 0.007400 -0.003241
# 4 0.001169 -0.002350 -0.000372 0.018889 0.002611 -0.000088
# 5 0.011197 -0.004621 0.007400 0.002611 0.039826 -0.007360
# 6 -0.009205 0.004240 -0.003241 -0.000088 -0.007360 0.039980
#
#
# Mechanical properties :
#
#
# Convention : Reuss Voigt Hill
#
# Bulk Modulus (GPa) = 41.37645 58.88335 50.12990
# Shear Modulus (GPa) = 29.82992 38.98134 34.40563
#
# Velocity S-wave (km/s) = 3.41254 3.90104 3.66494
# Velocity P-wave (km/s) = 5.62853 6.57864 6.12205
#
# Compressibility (1/GPa) = 0.02416834
#
# Stress axis : x y z
#
# Youngs Moduli (GPa) = 58.33982 110.05245 61.38875
#
# Poissons Ratio (x) = 0.39222 0.07696
# Poissons Ratio (y) = 0.20792 0.26746
# Poissons Ratio (z) = 0.07314 0.47948
#
# Static dielectric constant tensor:
#      x y z
#    x 2.075250 -0.025930 0.099010 
#    y -0.025930 2.109330 -0.024240 
#    z 0.099010 -0.024240 2.056200 
# 
# From -- ./inp_files/4347.got.cif
#   From: 2010.05.17/outbox.cif.g08.bks.cpg/sg1_3_cif.got.tgz:4347.got - 2010.05.17 20:27:59.
