data_PCOD9000818
_publ_section_title
;
Structure prediction by ZEFSAII (Michael W. Deem and Ramdas Pophale) SiO2 
 PCOD9000818
Probable space group: P 1
;
_chemical_formula_sum "Si O2"
_cell_formula_units_Z 6
_cell_length_a 7.152156
_cell_length_b 11.718327
_cell_length_c 5.398209
_cell_angle_alpha 93.493848
_cell_angle_beta 100.139189
_cell_angle_gamma 149.245781
_cell_volume 206.510091
_symmetry_space_group_name_H-M "P 1"
_symmetry_group_IT_number 1
_symmetry_cell_setting 'triclinic'
loop_
_space_group_symop_operation_xyz
x,y,z
loop_
_atom_site_type_symbol
_atom_site_label
_atom_site_fract_x
_atom_site_fract_y
_atom_site_fract_z
Si Si1 0.351220 0.658220 0.938990
Si Si2 0.354979 0.206926 0.278566
Si Si3 0.321689 0.875543 0.120496
Si Si4 0.631149 0.603488 0.242122
Si Si5 0.656649 0.976153 0.698743
Si Si6 0.241635 0.084577 0.739352
O O1 0.348045 0.703582 0.661582
O O2 0.166555 0.660297 0.058782
O O3 0.290158 0.501247 0.018086
O O4 0.854241 0.941096 0.145393
O O5 0.502015 0.414670 0.306124
O O6 0.505600 0.234018 0.573691
O O7 0.441276 0.170290 0.062608
O O8 0.597879 0.021497 0.450014
O O9 0.929782 0.736106 0.098128
O O10 0.543417 0.990686 0.919939
O O11 0.882356 0.805780 0.539738
O O12 0.059840 0.116103 0.750326
#
# Coordination Sequence:
#
# PCOD9000818 Si02
#       6
#     1   1   1   1   1   1
#     4   8  20  41  59  83 127 154 197 254 289 360
#     4  10  21  37  65  91 119 157 211 248 295 370
#     4  10  20  36  64  88 122 159 200 253 303 357
#     4  11  22  39  71  90 116 176 197 245 327 349
#     4   9  17  38  61  80 123 160 186 257 297 341
#     4  10  20  41  62  86 127 158 201 257 293 365
#
# _framework density 29.054273999999999
#
# number of rings (size 3 to 8) (size 9 to 14) (size 15 to 20)
#    1.000    1.333    3.333    0.000    0.000    9.333 
#    0.000    3.333    7.333    0.000    0.000    0.000 
#    0.000    0.000    0.000    0.000    0.000    0.000 
#
# Total GULP energy -33457.664798 kJ/mol
# GULP energy per Si atom -5576.277466 kJ/mol
# Density = 2.898814 g / cm^3
# Si number density = 29.054274 Si / 1000 Ang^3
#
#
#
# Elastic Constant Matrix: (Units=GPa)
#
#
# Indices 1 2 3 4 5 6 
#
# 1 143.2166 1.3498 24.4808 -0.4157 -45.6860 -5.5472
# 2 1.3498 134.1303 45.2054 -8.9628 -20.9012 -16.6096
# 3 24.4808 45.2054 229.2850 -33.9413 -37.4174 -11.1191
# 4 -0.4157 -8.9628 -33.9413 49.2049 1.9263 -1.0024
# 5 -45.6860 -20.9012 -37.4174 1.9263 40.2739 -8.5054
# 6 -5.5472 -16.6096 -11.1191 -1.0024 -8.5054 46.7310
#
#
#
# Elastic Compliance Matrix: (Units=1/GPa)
#
#
# Indices 1 2 3 4 5 6 
#
# 1 0.013148 0.003260 0.001635 0.001206 0.019478 0.006679
# 2 0.003260 0.009795 -0.000218 0.001396 0.009697 0.005612
# 3 0.001635 -0.000218 0.006304 0.004071 0.008073 0.003173
# 4 0.001206 0.001396 0.004071 0.023247 0.005416 0.003092
# 5 0.019478 0.009697 0.008073 0.005416 0.063278 0.019313
# 6 0.006679 0.005612 0.003173 0.003092 0.019313 0.028523
#
#
# Mechanical properties :
#
#
# Convention : Reuss Voigt Hill
#
# Bulk Modulus (GPa) = 25.90682 72.07818 48.99250
# Shear Modulus (GPa) = 33.82735 56.28170 45.05452
#
# Velocity S-wave (km/s) = 3.41586 4.40605 3.94217
# Velocity P-wave (km/s) = 4.94909 7.12365 6.13351
#
# Compressibility (1/GPa) = 0.03859987
#
# Stress axis : x y z
#
# Youngs Moduli (GPa) = 76.05713 102.08919 158.63296
#
# Poissons Ratio (x) = -0.33278 -0.25930
# Poissons Ratio (y) = -0.24792 0.03458
# Poissons Ratio (z) = -0.12432 0.02225
#
# Static dielectric constant tensor:
#      x y z
#    x 2.329900 -0.066080 0.204250 
#    y -0.066080 2.380170 0.041430 
#    z 0.204250 0.041430 2.490270 
# 
# From -- ./inp_files/1807.got.cif
#   From: 2010.05.17/outbox.cif.g08.bks.cpg/sg1_1_cif.got.tgz:1807.got - 2010.05.17 20:27:59.
