data_PCOD9000111
_publ_section_title
;
Structure prediction by ZEFSAII (Michael W. Deem and Ramdas Pophale) SiO2 
 PCOD9000111
Probable space group: P 1
;
_chemical_formula_sum "Si O2"
_cell_formula_units_Z 8
_cell_length_a 6.993579
_cell_length_b 9.668389
_cell_length_c 7.887600
_cell_angle_alpha 133.981395
_cell_angle_beta 63.825329
_cell_angle_gamma 131.482138
_cell_volume 287.328300
_symmetry_space_group_name_H-M "P 1"
_symmetry_group_IT_number 1
_symmetry_cell_setting 'triclinic'
loop_
_space_group_symop_operation_xyz
x,y,z
loop_
_atom_site_type_symbol
_atom_site_label
_atom_site_fract_x
_atom_site_fract_y
_atom_site_fract_z
Si Si1 0.380010 0.065880 0.790760
Si Si2 0.708921 0.044080 0.903036
Si Si3 0.191858 0.830369 0.327589
Si Si4 0.146811 0.375166 0.212259
Si Si5 0.427114 0.345547 0.557026
Si Si6 0.669143 0.657656 0.396528
Si Si7 0.617223 0.760714 0.039867
Si Si8 0.896468 0.202937 0.514459
O O1 0.454873 0.011309 0.896109
O O2 0.656561 0.182327 0.684689
O O3 0.189983 0.868777 0.564599
O O4 0.247974 0.204115 0.997351
O O5 0.785020 0.917638 0.633142
O O6 0.935808 0.297011 0.083157
O O7 0.670034 0.898059 0.960766
O O8 0.344310 0.712718 0.148012
O O9 0.909023 0.676064 0.233846
O O10 0.356556 0.088698 0.401811
O O11 0.426481 0.596143 0.329187
O O12 0.990976 0.343281 0.419503
O O13 0.567523 0.475655 0.437571
O O14 0.152086 0.312154 0.616633
O O15 0.583167 0.522469 0.800560
O O16 0.811214 0.949003 0.259385
#
# Coordination Sequence:
#
# PCOD9000111 Si02
#       8
#     1   1   1   1   1   1   1   1
#     4  11  23  42  69 102 139 183 234 290 352 423
#     4  10  21  45  67  98 144 176 236 303 338 428
#     4  11  23  45  68 108 140 179 248 286 347 449
#     4  10  22  43  69  96 138 187 228 290 364 408
#     4  10  22  44  70  97 145 182 228 305 346 414
#     4  10  22  44  69 101 135 184 234 289 362 414
#     4   9  22  42  69  97 138 190 227 291 370 403
#     4   9  21  41  65  97 141 175 233 296 335 423
#
# _framework density 27.842714999999998
#
# number of rings (size 3 to 8) (size 9 to 14) (size 15 to 20)
#    0.000    2.000    1.250    0.750    5.250    0.000 
#    9.000    5.000    0.000    0.000    0.000    0.000 
#    0.000    0.000    0.000    0.000    0.000    0.000 
#
# Total GULP energy -44748.913774 kJ/mol
# GULP energy per Si atom -5593.614222 kJ/mol
# Density = 2.777934 g / cm^3
# Si number density = 27.842715 Si / 1000 Ang^3
#
#
#
# Elastic Constant Matrix: (Units=GPa)
#
#
# Indices 1 2 3 4 5 6 
#
# 1 117.5072 26.6118 15.4004 -3.4888 11.7005 -0.1053
# 2 26.6118 140.4666 21.7182 8.1612 6.8476 2.0651
# 3 15.4004 21.7182 120.1211 4.4385 16.8177 -2.6299
# 4 -3.4888 8.1612 4.4385 33.1736 14.4072 4.2866
# 5 11.7005 6.8476 16.8177 14.4072 45.9026 1.0458
# 6 -0.1053 2.0651 -2.6299 4.2866 1.0458 54.1093
#
#
#
# Elastic Compliance Matrix: (Units=1/GPa)
#
#
# Indices 1 2 3 4 5 6 
#
# 1 0.009326 -0.001694 -0.000607 0.002683 -0.002742 -0.000106
# 2 -0.001694 0.007724 -0.001157 -0.002050 0.000352 -0.000199
# 3 -0.000607 -0.001157 0.009045 0.000284 -0.003088 0.000520
# 4 0.002683 -0.002050 0.000284 0.036364 -0.011837 -0.002555
# 5 -0.002742 0.000352 -0.003088 -0.011837 0.027273 0.000242
# 6 -0.000106 -0.000199 0.000520 -0.002555 0.000242 0.018711
#
#
# Mechanical properties :
#
#
# Convention : Reuss Voigt Hill
#
# Bulk Modulus (GPa) = 52.13988 56.17285 54.15636
# Shear Modulus (GPa) = 41.06713 47.59472 44.33093
#
# Velocity S-wave (km/s) = 3.84470 4.13899 3.99456
# Velocity P-wave (km/s) = 6.20292 6.56205 6.38501
#
# Compressibility (1/GPa) = 0.01917918
#
# Stress axis : x y z
#
# Youngs Moduli (GPa) = 107.22940 129.46954 110.55655
#
# Poissons Ratio (x) = 0.21927 0.06711
# Poissons Ratio (y) = 0.18161 0.12793
# Poissons Ratio (z) = 0.06509 0.14982
#
# Static dielectric constant tensor:
#      x y z
#    x 2.117960 -0.071420 0.021360 
#    y -0.071420 2.466850 0.000810 
#    z 0.021360 0.000810 2.202980 
# 
# From -- ./inp_files/4877.got.cif
#   From: 2010.05.17/outbox.cif.g08.bks.cpg/sg1_3_cif.got.tgz:4877.got - 2010.05.17 20:27:59.
