data_PCOD9000008
_publ_section_title
;
Structure prediction by ZEFSAII (Michael W. Deem and Ramdas Pophale) SiO2 
 PCOD9000008
Probable space group: P 1
;
_chemical_formula_sum "Si O2"
_cell_formula_units_Z 8
_cell_length_a 5.072607
_cell_length_b 4.756229
_cell_length_c 12.355360
_cell_angle_alpha 74.897956
_cell_angle_beta 93.254947
_cell_angle_gamma 117.251306
_cell_volume 255.173146
_symmetry_space_group_name_H-M "P 1"
_symmetry_group_IT_number 1
_symmetry_cell_setting 'triclinic'
loop_
_space_group_symop_operation_xyz
x,y,z
loop_
_atom_site_type_symbol
_atom_site_label
_atom_site_fract_x
_atom_site_fract_y
_atom_site_fract_z
Si Si1 0.185930 0.515150 0.933350
Si Si2 0.036936 0.099998 0.805599
Si Si3 0.193525 0.548495 0.385878
Si Si4 0.698568 0.968150 0.048045
Si Si5 0.178720 0.072571 0.571640
Si Si6 0.510600 0.671049 0.689524
Si Si7 0.740116 0.785696 0.452870
Si Si8 0.073684 0.636713 0.143064
O O1 0.322104 0.459510 0.816833
O O2 0.103610 0.798457 0.863687
O O3 0.485667 0.647539 0.992968
O O4 0.960919 0.386214 0.060994
O O5 0.734797 0.982021 0.742662
O O6 0.913124 0.154733 0.922827
O O7 0.246485 0.249136 0.676016
O O8 0.991242 0.710761 0.413183
O O9 0.524561 0.877979 0.363973
O O10 0.133964 0.477932 0.264269
O O11 0.435678 0.419077 0.481600
O O12 0.847996 0.784721 0.139752
O O13 0.388190 0.950588 0.087020
O O14 0.337493 0.838850 0.603399
O O15 0.969160 0.160642 0.469331
O O16 0.797109 0.723393 0.609918
#
# Coordination Sequence:
#
# PCOD9000008 Si02
#       8
#     1   1   1   1   1   1   1   1
#     4  10  25  44  66  96 133 174 221 278 331 388
#     4  11  23  41  61  95 126 160 217 260 320 390
#     4  10  21  40  62  86 131 161 214 262 319 383
#     4  10  25  43  72  94 136 167 229 268 335 386
#     4   9  23  37  62  90 129 161 207 256 316 381
#     4  11  21  37  64  92 125 171 203 260 322 385
#     4   9  20  39  54  89 127 159 207 254 306 386
#     4  10  26  45  69 100 131 177 220 274 329 393
#
# _framework density 31.351261000000001
#
# number of rings (size 3 to 8) (size 9 to 14) (size 15 to 20)
#    1.500    0.500    1.250    0.750    5.250    3.000 
#    4.500    0.000    0.000    0.000    0.000    0.000 
#    0.000    0.000    0.000    0.000    0.000    0.000 
#
# Total GULP energy -44663.872137 kJ/mol
# GULP energy per Si atom -5582.984017 kJ/mol
# Density = 3.127990 g / cm^3
# Si number density = 31.351261 Si / 1000 Ang^3
#
#
#
# Elastic Constant Matrix: (Units=GPa)
#
#
# Indices 1 2 3 4 5 6 
#
# 1 281.1619 58.8533 52.4700 27.0689 28.6634 34.6151
# 2 58.8533 199.0118 41.7167 3.1387 23.4340 1.4397
# 3 52.4700 41.7167 189.5738 14.7003 36.1913 9.3017
# 4 27.0689 3.1387 14.7003 51.0067 4.0284 -4.0074
# 5 28.6634 23.4340 36.1913 4.0284 57.1124 -0.5132
# 6 34.6151 1.4397 9.3017 -4.0074 -0.5132 67.3512
#
#
#
# Elastic Compliance Matrix: (Units=1/GPa)
#
#
# Indices 1 2 3 4 5 6 
#
# 1 0.004512 -0.001018 -0.000462 -0.002274 -0.001415 -0.002380
# 2 -0.001018 0.005633 -0.000771 0.000564 -0.001347 0.000532
# 3 -0.000462 -0.000771 0.006359 -0.001330 -0.003395 -0.000730
# 4 -0.002274 0.000564 -0.001330 0.021344 0.000270 0.002612
# 5 -0.001415 -0.001347 -0.003395 0.000270 0.020917 0.001401
# 6 -0.002380 0.000532 -0.000730 0.002612 0.001401 0.016326
#
#
# Mechanical properties :
#
#
# Convention : Reuss Voigt Hill
#
# Bulk Modulus (GPa) = 83.30084 108.42529 95.86307
# Shear Modulus (GPa) = 59.81312 69.54122 64.67717
#
# Velocity S-wave (km/s) = 4.37262 4.71481 4.54694
# Velocity P-wave (km/s) = 7.21948 8.01863 7.62953
#
# Compressibility (1/GPa) = 0.01200468
#
# Stress axis : x y z
#
# Youngs Moduli (GPa) = 221.62922 177.51727 157.25022
#
# Poissons Ratio (x) = 0.18068 0.07258
# Poissons Ratio (y) = 0.22558 0.12117
# Poissons Ratio (z) = 0.10229 0.13679
#
# Static dielectric constant tensor:
#      x y z
#    x 2.438580 0.219890 -0.194940 
#    y 0.219890 2.374190 0.118750 
#    z -0.194940 0.118750 2.668770 
# 
# From -- ./inp_files/6882.got.cif
#   From: 2010.05.17/outbox.cif.g08.bks.cpg/sg1_4_cif.got.tgz:6882.got - 2010.05.17 20:27:59.
