data_PCOD9000155
_publ_section_title
;
Structure prediction by ZEFSAII (Michael W. Deem and Ramdas Pophale) SiO2 
 PCOD9000155
Probable space group: P 1
;
_chemical_formula_sum "Si O2"
_cell_formula_units_Z 8
_cell_length_a 5.527463
_cell_length_b 4.964748
_cell_length_c 13.476474
_cell_angle_alpha 92.337795
_cell_angle_beta 127.996565
_cell_angle_gamma 90.554193
_cell_volume 290.914939
_symmetry_space_group_name_H-M "P 1"
_symmetry_group_IT_number 1
_symmetry_cell_setting 'triclinic'
loop_
_space_group_symop_operation_xyz
x,y,z
loop_
_atom_site_type_symbol
_atom_site_label
_atom_site_fract_x
_atom_site_fract_y
_atom_site_fract_z
Si Si1 0.379500 0.419280 0.493320
Si Si2 0.511045 0.117043 0.340848
Si Si3 0.784737 0.975235 0.595734
Si Si4 0.753063 0.606209 0.301538
Si Si5 0.283314 0.668759 0.806543
Si Si6 0.849133 0.577690 0.856626
Si Si7 0.729262 0.884724 0.093278
Si Si8 0.129335 0.112266 0.028069
O O1 0.283238 0.246413 0.364996
O O2 0.618978 0.674933 0.539969
O O3 0.544012 0.176753 0.587882
O O4 0.069575 0.569158 0.439672
O O5 0.571163 0.327205 0.272076
O O6 0.800985 0.107553 0.492642
O O7 0.535727 0.822509 0.298277
O O8 0.111145 0.925628 0.725790
O O9 0.814876 0.702985 0.206031
O O10 0.483040 0.541292 0.769006
O O11 0.015930 0.508928 0.795950
O O12 0.537173 0.724088 0.957081
O O13 0.934644 0.892384 0.906461
O O14 0.013621 0.403546 0.977987
O O15 0.011672 0.033293 0.108434
O O16 0.470184 0.075754 0.072486
#
# Coordination Sequence:
#
# PCOD9000155 Si02
#       8
#     1   1   1   1   1   1   1   1
#     4  10  23  44  64 101 129 178 230 284 338 397
#     4  10  23  44  63 100 130 178 230 284 335 400
#     4  10  22  44  70  95 137 176 226 291 337 407
#     4  12  24  42  73  98 135 183 228 284 349 407
#     4  10  23  45  68 105 136 180 226 277 351 411
#     4  10  22  40  65  90 138 174 221 269 324 411
#     4  10  25  43  70 102 140 179 223 283 344 421
#     4  10  22  42  61  93 135 178 220 264 332 402
#
# _framework density 27.49945
#
# number of rings (size 3 to 8) (size 9 to 14) (size 15 to 20)
#    0.750    1.000    1.250    1.500    1.750   10.000 
#    2.250    0.000    0.000    0.000    0.000    0.000 
#    0.000    0.000    0.000    0.000    0.000    0.000 
#
# Total GULP energy -44665.608357 kJ/mol
# GULP energy per Si atom -5583.201045 kJ/mol
# Density = 2.743686 g / cm^3
# Si number density = 27.499450 Si / 1000 Ang^3
#
#
#
# Elastic Constant Matrix: (Units=GPa)
#
#
# Indices 1 2 3 4 5 6 
#
# 1 198.3072 38.4225 32.8388 -27.8026 14.3759 -20.4782
# 2 38.4225 134.8056 27.4415 -16.6857 9.4159 -13.5710
# 3 32.8388 27.4415 78.9753 -45.5572 10.7881 -16.4943
# 4 -27.8026 -16.6857 -45.5572 58.7028 -1.8657 6.3790
# 5 14.3759 9.4159 10.7881 -1.8657 29.2225 -17.6988
# 6 -20.4782 -13.5710 -16.4943 6.3790 -17.6988 37.1041
#
#
#
# Elastic Compliance Matrix: (Units=1/GPa)
#
#
# Indices 1 2 3 4 5 6 
#
# 1 0.005859 -0.001087 -0.000434 0.001901 -0.001192 0.001748
# 2 -0.001087 0.008323 -0.002024 0.000128 -0.000660 0.001208
# 3 -0.000434 -0.002024 0.026044 0.018716 -0.004337 0.005311
# 4 0.001901 0.000128 0.018716 0.032173 -0.004892 0.001552
# 5 -0.001192 -0.000660 -0.004337 -0.004892 0.049367 0.021562
# 6 0.001748 0.001208 0.005311 0.001552 0.021562 0.040737
#
#
# Mechanical properties :
#
#
# Convention : Reuss Voigt Hill
#
# Bulk Modulus (GPa) = 30.17765 67.72151 48.94958
# Shear Modulus (GPa) = 27.67972 45.89825 36.78898
#
# Velocity S-wave (km/s) = 3.17607 4.08985 3.66157
# Velocity P-wave (km/s) = 4.94445 6.85437 5.97620
#
# Compressibility (1/GPa) = 0.03313710
#
# Stress axis : x y z
#
# Youngs Moduli (GPa) = 170.69064 120.14250 38.39657
#
# Poissons Ratio (x) = 0.13059 0.01665
# Poissons Ratio (y) = 0.18554 0.07770
# Poissons Ratio (z) = 0.07404 0.24313
#
# Static dielectric constant tensor:
#      x y z
#    x 2.218160 0.014500 0.014950 
#    y 0.014500 2.101860 0.120170 
#    z 0.014950 0.120170 2.284300 
# 
# From -- ./inp_files/6898.got.cif
#   From: 2010.05.17/outbox.cif.g08.bks.cpg/sg1_4_cif.got.tgz:6898.got - 2010.05.17 20:27:59.
