data_PCOD9000033
_publ_section_title
;
Structure prediction by ZEFSAII (Michael W. Deem and Ramdas Pophale) SiO2 
 PCOD9000033
Probable space group: P 1
;
_chemical_formula_sum "Si O2"
_cell_formula_units_Z 8
_cell_length_a 10.406340
_cell_length_b 8.624313
_cell_length_c 7.212509
_cell_angle_alpha 126.718020
_cell_angle_beta 42.883319
_cell_angle_gamma 118.731579
_cell_volume 352.016765
_symmetry_space_group_name_H-M "P 1"
_symmetry_group_IT_number 1
_symmetry_cell_setting 'triclinic'
loop_
_space_group_symop_operation_xyz
x,y,z
loop_
_atom_site_type_symbol
_atom_site_label
_atom_site_fract_x
_atom_site_fract_y
_atom_site_fract_z
Si Si1 0.006220 0.965620 0.189210
Si Si2 0.568562 0.261907 0.352708
Si Si3 0.186681 0.435121 0.831047
Si Si4 0.312284 0.730856 0.608997
Si Si5 0.088516 0.681709 0.443493
Si Si6 0.694168 0.654094 0.323562
Si Si7 0.792345 0.921791 0.739664
Si Si8 0.874625 0.301303 0.320805
O O1 0.894865 0.753585 0.117199
O O2 0.926139 0.027018 0.514950
O O3 0.940423 0.114170 0.216424
O O4 0.222858 0.919259 0.925137
O O5 0.347414 0.292138 0.604970
O O6 0.654628 0.426667 0.234876
O O7 0.657987 0.300224 0.490001
O O8 0.639076 0.055916 0.075437
O O9 0.226215 0.534327 0.663296
O O10 0.192452 0.618292 0.099395
O O11 0.985981 0.329971 0.026085
O O12 0.241778 0.730085 0.472741
O O13 0.533431 0.731738 0.418969
O O14 0.954708 0.485567 0.486382
O O15 0.940435 0.838808 0.665680
O O16 0.688411 0.745036 0.603434
#
# Coordination Sequence:
#
# PCOD9000033 Si02
#       8
#     1   1   1   1   1   1   1   1
#     4  10  21  41  63  96 139 169 222 274 317 405
#     4  11  20  42  71  91 134 183 210 281 336 379
#     4   9  22  43  63  99 138 164 227 275 318 404
#     4  11  20  42  71  91 134 183 210 281 336 379
#     4  10  21  44  68  98 132 177 223 266 344 383
#     4   9  22  43  63  99 138 164 227 275 318 404
#     4  10  21  44  68  98 132 177 223 266 344 383
#     4  10  21  41  63  96 139 169 222 274 317 405
#
# _framework density 22.726192000000001
#
# number of rings (size 3 to 8) (size 9 to 14) (size 15 to 20)
#    1.500    0.500    2.500    1.500    0.000    3.000 
#   13.500    2.500    0.000    0.000    0.000    0.000 
#    0.000    0.000    0.000    0.000    0.000    0.000 
#
# Total GULP energy -44606.106265 kJ/mol
# GULP energy per Si atom -5575.763283 kJ/mol
# Density = 2.267447 g / cm^3
# Si number density = 22.726192 Si / 1000 Ang^3
#
#
#
# Elastic Constant Matrix: (Units=GPa)
#
#
# Indices 1 2 3 4 5 6 
#
# 1 119.3460 -3.7037 39.9805 11.8380 -27.0625 -16.3090
# 2 -3.7037 33.1449 -2.0820 5.5071 -1.9393 -9.4305
# 3 39.9805 -2.0820 98.5045 24.5466 -25.6200 -5.3960
# 4 11.8380 5.5071 24.5466 20.4795 -5.6832 -8.4262
# 5 -27.0625 -1.9393 -25.6200 -5.6832 46.8467 7.8722
# 6 -16.3090 -9.4305 -5.3960 -8.4262 7.8722 18.7855
#
#
#
# Elastic Compliance Matrix: (Units=1/GPa)
#
#
# Indices 1 2 3 4 5 6 
#
# 1 0.011768 0.003981 -0.003688 0.001832 0.003395 0.010555
# 2 0.003981 0.037460 0.002151 -0.006672 0.000942 0.019492
# 3 -0.003688 0.002151 0.018741 -0.023081 0.007099 -0.010066
# 4 0.001832 -0.006672 -0.023081 0.089600 -0.006793 0.034648
# 5 0.003395 0.000942 0.007099 -0.006793 0.027969 -0.009308
# 6 0.010555 0.019492 -0.010066 0.034648 -0.009308 0.088732
#
#
# Mechanical properties :
#
#
# Convention : Reuss Voigt Hill
#
# Bulk Modulus (GPa) = 13.72526 35.48722 24.60624
# Shear Modulus (GPa) = 17.02609 31.67571 24.35090
#
# Velocity S-wave (km/s) = 2.74009 3.73741 3.27691
# Velocity P-wave (km/s) = 4.00791 5.85434 5.01680
#
# Compressibility (1/GPa) = 0.07285835
#
# Stress axis : x y z
#
# Youngs Moduli (GPa) = 84.97324 26.69507 53.35971
#
# Poissons Ratio (x) = -0.10627 0.19677
# Poissons Ratio (y) = -0.33827 -0.11480
# Poissons Ratio (z) = 0.31335 -0.05743
#
# Static dielectric constant tensor:
#      x y z
#    x 1.841210 0.017670 0.047140 
#    y 0.017670 1.874030 -0.013060 
#    z 0.047140 -0.013060 1.851640 
# 
# From -- ./inp_files/5408.got.cif
#   From: 2010.05.17/outbox.cif.g08.bks.cpg/sg1_3_cif.got.tgz:5408.got - 2010.05.17 20:27:59.
