data_PCOD9000404
_publ_section_title
;
Structure prediction by ZEFSAII (Michael W. Deem and Ramdas Pophale) SiO2 
 PCOD9000404
Probable space group: P 1
;
_chemical_formula_sum "Si O2"
_cell_formula_units_Z 8
_cell_length_a 13.564330
_cell_length_b 5.009026
_cell_length_c 4.836106
_cell_angle_alpha 63.813838
_cell_angle_beta 86.131495
_cell_angle_gamma 81.114808
_cell_volume 291.322005
_symmetry_space_group_name_H-M "P 1"
_symmetry_group_IT_number 1
_symmetry_cell_setting 'triclinic'
loop_
_space_group_symop_operation_xyz
x,y,z
loop_
_atom_site_type_symbol
_atom_site_label
_atom_site_fract_x
_atom_site_fract_y
_atom_site_fract_z
Si Si1 0.395020 0.422600 0.319500
Si Si2 0.588613 0.267876 0.654336
Si Si3 0.177961 0.805879 0.991539
Si Si4 0.284839 0.308184 0.963573
Si Si5 0.504479 0.924822 0.296924
Si Si6 0.092295 0.461117 0.631424
Si Si7 0.869280 0.466696 0.678806
Si Si8 0.796304 0.149191 0.352881
O O1 0.507824 0.168334 0.487738
O O2 0.228790 0.022296 0.118323
O O3 0.337680 0.365457 0.638579
O O4 0.392782 0.164036 0.194200
O O5 0.691867 0.224957 0.496074
O O6 0.555438 0.615379 0.586049
O O7 0.581773 0.071854 0.017414
O O8 0.100581 0.662505 0.270103
O O9 0.290159 0.573549 0.077267
O O10 0.131460 0.116110 0.699337
O O11 0.168721 0.556938 0.810112
O O12 0.453986 0.702956 0.179691
O O13 0.981098 0.484283 0.750800
O O14 0.874538 0.246600 0.516394
O O15 0.819679 0.797174 0.449299
O O16 0.805790 0.338983 0.989587
#
# Coordination Sequence:
#
# PCOD9000404 Si02
#       8
#     1   1   1   1   1   1   1   1
#     4  10  24  42  66  96 132 174 220 272 336 402
#     4  10  26  42  69  95 137 171 225 279 336 406
#     4  10  24  39  67  92 136 170 221 270 339 393
#     4  10  24  42  66  96 132 174 220 272 336 402
#     4  10  24  39  67  92 136 170 221 270 339 393
#     4  10  26  42  69  95 137 171 225 279 336 406
#     4  12  28  46  75 105 141 185 236 289 354 415
#     4  12  28  46  75 105 141 185 236 289 354 415
#
# _framework density 27.461023000000001
#
# number of rings (size 3 to 8) (size 9 to 14) (size 15 to 20)
#    1.500    0.000    0.000    3.000   10.500    2.000 
#    0.000    0.000    0.000    0.000    0.000    0.000 
#    0.000    0.000    0.000    0.000    0.000    0.000 
#
# Total GULP energy -44775.663813 kJ/mol
# GULP energy per Si atom -5596.957977 kJ/mol
# Density = 2.739852 g / cm^3
# Si number density = 27.461023 Si / 1000 Ang^3
#
#
#
# Elastic Constant Matrix: (Units=GPa)
#
#
# Indices 1 2 3 4 5 6 
#
# 1 114.6334 19.9820 35.0474 0.6378 -11.2549 -2.7278
# 2 19.9820 212.4419 52.1738 -23.6202 -25.7412 24.7491
# 3 35.0474 52.1738 166.3711 5.5501 -25.9727 30.3339
# 4 0.6378 -23.6202 5.5501 56.6888 9.5036 -2.9245
# 5 -11.2549 -25.7412 -25.9727 9.5036 53.6189 5.3584
# 6 -2.7278 24.7491 30.3339 -2.9245 5.3584 40.0413
#
#
#
# Elastic Compliance Matrix: (Units=1/GPa)
#
#
# Indices 1 2 3 4 5 6 
#
# 1 0.009626 -0.000628 -0.002265 -0.000070 0.000364 0.002706
# 2 -0.000628 0.005831 -0.000838 0.001982 0.002227 -0.003166
# 3 -0.002265 -0.000838 0.008827 -0.002311 0.004517 -0.007097
# 4 -0.000070 0.001982 -0.002311 0.019470 -0.003880 0.002462
# 5 0.000364 0.002227 0.004517 -0.003880 0.023491 -0.008200
# 6 0.002706 -0.003166 -0.007097 0.002462 -0.008200 0.033768
#
#
# Mechanical properties :
#
#
# Convention : Reuss Voigt Hill
#
# Bulk Modulus (GPa) = 59.44622 78.65029 69.04826
# Shear Modulus (GPa) = 43.82821 55.81936 49.82379
#
# Velocity S-wave (km/s) = 3.99935 4.51341 4.26413
# Velocity P-wave (km/s) = 6.55903 7.47423 7.03153
#
# Compressibility (1/GPa) = 0.01682193
#
# Stress axis : x y z
#
# Youngs Moduli (GPa) = 103.88572 171.49993 113.29370
#
# Poissons Ratio (x) = 0.10771 0.25663
# Poissons Ratio (y) = 0.06524 0.09489
# Poissons Ratio (z) = 0.23532 0.14365
#
# Static dielectric constant tensor:
#      x y z
#    x 2.271700 -0.057970 0.199480 
#    y -0.057970 2.206370 -0.031650 
#    z 0.199480 -0.031650 1.974600 
# 
# From -- ./inp_files/530.got.cif
#   From: 2010.05.17/outbox.cif.g08.bks.cpg/sg1_1_cif.got.tgz:530.got - 2010.05.17 20:27:59.
