data_PCOD9000288
_publ_section_title
;
Structure prediction by ZEFSAII (Michael W. Deem and Ramdas Pophale) SiO2 
 PCOD9000288
Probable space group: P 1
;
_chemical_formula_sum "Si O2"
_cell_formula_units_Z 8
_cell_length_a 8.797357
_cell_length_b 8.395697
_cell_length_c 8.804449
_cell_angle_alpha 106.377862
_cell_angle_beta 128.430489
_cell_angle_gamma 106.285496
_cell_volume 388.666295
_symmetry_space_group_name_H-M "P 1"
_symmetry_group_IT_number 1
_symmetry_cell_setting 'triclinic'
loop_
_space_group_symop_operation_xyz
x,y,z
loop_
_atom_site_type_symbol
_atom_site_label
_atom_site_fract_x
_atom_site_fract_y
_atom_site_fract_z
Si Si1 0.378080 0.777640 0.922040
Si Si2 0.721098 0.399898 0.630388
Si Si3 0.956714 0.301253 0.501517
Si Si4 0.361948 0.040134 0.518531
Si Si5 0.579212 0.539237 0.298523
Si Si6 0.883722 0.897211 0.338927
Si Si7 0.248947 0.680574 0.157596
Si Si8 0.540397 0.181521 0.995420
O O1 0.185137 0.539291 0.694256
O O2 0.641143 0.829252 0.081489
O O3 0.340005 0.793055 0.080490
O O4 0.355737 0.940426 0.868246
O O5 0.798606 0.287162 0.539899
O O6 0.470699 0.222029 0.509872
O O7 0.685381 0.529801 0.522161
O O8 0.954445 0.540794 0.924870
O O9 0.797339 0.249318 0.238481
O O10 0.009668 0.137921 0.523433
O O11 0.370524 0.858530 0.408635
O O12 0.520250 0.165929 0.799008
O O13 0.081576 0.914008 0.360824
O O14 0.781099 0.739897 0.375248
O O15 0.355668 0.549304 0.191930
O O16 0.502890 0.338297 0.097214
#
# Coordination Sequence:
#
# PCOD9000288 Si02
#       8
#     1   1   1   1   1   1   1   1
#     4   9  20  45  71  92 126 180 226 261 313 406
#     4  10  23  44  66  92 134 176 215 268 328 389
#     4   9  20  45  71  92 126 180 226 261 313 406
#     4  12  26  40  60 104 140 160 210 286 334 372
#     4  10  22  48  70  92 126 184 228 254 318 412
#     4  10  23  38  69  99 129 166 222 271 324 380
#     4  10  23  44  66  92 134 176 215 268 328 389
#     4  10  23  38  69  99 129 166 222 271 324 380
#
# _framework density 20.583210999999999
#
# number of rings (size 3 to 8) (size 9 to 14) (size 15 to 20)
#    0.000    2.000    0.000    3.000   12.250    0.000 
#   11.250    0.000    0.000    0.000    0.000    0.000 
#    0.000    0.000    0.000    0.000    0.000    0.000 
#
# Total GULP energy -44615.539859 kJ/mol
# GULP energy per Si atom -5576.942482 kJ/mol
# Density = 2.053636 g / cm^3
# Si number density = 20.583211 Si / 1000 Ang^3
#
#
#
# Elastic Constant Matrix: (Units=GPa)
#
#
# Indices 1 2 3 4 5 6 
#
# 1 73.3147 52.7439 40.6568 -1.8213 1.3321 -0.5105
# 2 52.7439 153.5864 40.4823 14.8451 -0.6222 -13.7423
# 3 40.6568 40.4823 105.8565 17.0909 -2.0321 -1.3600
# 4 -1.8213 14.8451 17.0909 30.4447 2.0121 0.7120
# 5 1.3321 -0.6222 -2.0321 2.0121 25.5704 11.1505
# 6 -0.5105 -13.7423 -1.3600 0.7120 11.1505 26.6372
#
#
#
# Elastic Compliance Matrix: (Units=1/GPa)
#
#
# Indices 1 2 3 4 5 6 
#
# 1 0.023390 -0.007191 -0.007830 0.009465 -0.001289 -0.003375
# 2 -0.007191 0.010053 -0.000187 -0.005262 -0.001517 0.005815
# 3 -0.007830 -0.000187 0.013911 -0.008331 0.002282 -0.000269
# 4 0.009465 -0.005262 -0.008331 0.040939 -0.003348 -0.002652
# 5 -0.001289 -0.001517 0.002282 -0.003348 0.048743 -0.021005
# 6 -0.003375 0.005815 -0.000269 -0.002652 -0.021005 0.049327
#
#
# Mechanical properties :
#
#
# Convention : Reuss Voigt Hill
#
# Bulk Modulus (GPa) = 59.03984 66.72483 62.88234
# Shear Modulus (GPa) = 22.47961 29.78876 26.13418
#
# Velocity S-wave (km/s) = 3.30833 3.80838 3.56713
# Velocity P-wave (km/s) = 6.58325 7.19902 6.89801
#
# Compressibility (1/GPa) = 0.01693772
#
# Stress axis : x y z
#
# Youngs Moduli (GPa) = 42.75306 99.47710 71.88522
#
# Poissons Ratio (x) = 0.71532 0.56285
# Poissons Ratio (y) = 0.30743 0.01347
# Poissons Ratio (z) = 0.33475 0.01864
#
# Static dielectric constant tensor:
#      x y z
#    x 1.723290 -0.013130 0.018790 
#    y -0.013130 1.769920 0.013640 
#    z 0.018790 0.013640 1.777750 
# 
# From -- ./inp_files/4185.got.cif
#   From: 2010.05.17/outbox.cif.g08.bks.cpg/sg1_3_cif.got.tgz:4185.got - 2010.05.17 20:27:59.
