data_PCOD9000845
_publ_section_title
;
Structure prediction by ZEFSAII (Michael W. Deem and Ramdas Pophale) SiO2 
 PCOD9000845
Probable space group: P 1
;
_chemical_formula_sum "Si O2"
_cell_formula_units_Z 8
_cell_length_a 7.037348
_cell_length_b 7.994309
_cell_length_c 10.851975
_cell_angle_alpha 76.439105
_cell_angle_beta 137.576130
_cell_angle_gamma 122.405810
_cell_volume 333.520938
_symmetry_space_group_name_H-M "P 1"
_symmetry_group_IT_number 1
_symmetry_cell_setting 'triclinic'
loop_
_space_group_symop_operation_xyz
x,y,z
loop_
_atom_site_type_symbol
_atom_site_label
_atom_site_fract_x
_atom_site_fract_y
_atom_site_fract_z
Si Si1 0.559050 0.549870 0.785040
Si Si2 0.308806 0.839486 0.032226
Si Si3 0.563617 0.096533 0.489982
Si Si4 0.213341 0.177376 0.862288
Si Si5 0.848893 0.517049 0.692530
Si Si6 0.109802 0.661536 0.414183
Si Si7 0.438663 0.631285 0.327876
Si Si8 0.350931 0.306689 0.169135
O O1 0.446149 0.395744 0.869713
O O2 0.583656 0.442548 0.691642
O O3 0.301382 0.614275 0.618062
O O4 0.942839 0.745639 0.940221
O O5 0.208120 0.675302 0.900925
O O6 0.396097 0.054376 0.983273
O O7 0.520516 0.810453 0.240040
O O8 0.759464 0.314775 0.615481
O O9 0.422893 0.146364 0.294295
O O10 0.862734 0.054350 0.637688
O O11 0.252459 0.902460 0.442824
O O12 0.137682 0.208318 0.961366
O O13 0.759759 0.642356 0.536390
O O14 0.227142 0.630318 0.342020
O O15 0.715677 0.501641 0.268296
O O16 0.235359 0.412452 0.193329
#
# Coordination Sequence:
#
# PCOD9000845 Si02
#       8
#     1   1   1   1   1   1   1   1
#     4   9  20  39  59  90 122 163 199 252 309 365
#     4  10  20  39  62  89 125 163 199 258 312 357
#     4  11  21  42  63  91 125 162 212 255 306 375
#     4  12  21  37  66  92 120 165 211 246 314 372
#     4   8  20  39  59  88 122 161 197 258 306 355
#     4  11  21  44  65  88 132 164 201 262 314 360
#     4  10  20  41  62  85 129 162 199 257 306 361
#     4  11  25  39  64  97 123 164 210 258 305 373
#
# _framework density 23.986499999999999
#
# number of rings (size 3 to 8) (size 9 to 14) (size 15 to 20)
#    0.750    1.000    2.500    2.250    0.000    0.000 
#    6.750    5.000    0.000    0.000    0.000    0.000 
#    0.000    0.000    0.000    0.000    0.000    0.000 
#
# Total GULP energy -44685.826252 kJ/mol
# GULP energy per Si atom -5585.728281 kJ/mol
# Density = 2.393191 g / cm^3
# Si number density = 23.986500 Si / 1000 Ang^3
#
#
#
# Elastic Constant Matrix: (Units=GPa)
#
#
# Indices 1 2 3 4 5 6 
#
# 1 48.3682 26.4538 15.5921 -3.2324 -7.5609 -5.2647
# 2 26.4538 152.2637 48.8140 -31.1106 -9.2321 6.7978
# 3 15.5921 48.8140 115.4303 -41.3926 -14.0106 4.2581
# 4 -3.2324 -31.1106 -41.3926 48.4462 3.8261 -2.8620
# 5 -7.5609 -9.2321 -14.0106 3.8261 34.6210 4.8705
# 6 -5.2647 6.7978 4.2581 -2.8620 4.8705 31.5531
#
#
#
# Elastic Compliance Matrix: (Units=1/GPa)
#
#
# Indices 1 2 3 4 5 6 
#
# 1 0.024477 -0.004113 -0.002489 -0.003097 0.002941 0.004571
# 2 -0.004113 0.008702 -0.001623 0.003752 0.000646 -0.002102
# 3 -0.002489 -0.001623 0.013876 0.010259 0.003728 -0.001583
# 4 -0.003097 0.003752 0.010259 0.031531 0.000991 -0.000003
# 5 0.002941 0.000646 0.003728 0.000991 0.031797 -0.004970
# 6 0.004571 -0.002102 -0.001583 -0.000003 -0.004970 0.033889
#
#
# Mechanical properties :
#
#
# Convention : Reuss Voigt Hill
#
# Bulk Modulus (GPa) = 32.67572 55.30910 43.99241
# Shear Modulus (GPa) = 29.25290 37.93756 33.59523
#
# Velocity S-wave (km/s) = 3.49600 3.98127 3.74650
# Velocity P-wave (km/s) = 5.47249 6.65151 6.09060
#
# Compressibility (1/GPa) = 0.03060377
#
# Stress axis : x y z
#
# Youngs Moduli (GPa) = 40.85466 114.91518 72.06935
#
# Poissons Ratio (x) = 0.47266 0.17940
# Poissons Ratio (y) = 0.16804 0.11697
# Poissons Ratio (z) = 0.10170 0.18651
#
# Static dielectric constant tensor:
#      x y z
#    x 1.976610 -0.072220 -0.007360 
#    y -0.072220 1.917790 -0.021210 
#    z -0.007360 -0.021210 1.929580 
# 
# From -- ./inp_files/5335.got.cif
#   From: 2010.05.17/outbox.cif.g08.bks.cpg/sg1_3_cif.got.tgz:5335.got - 2010.05.17 20:27:59.
