data_PCOD9000654
_publ_section_title
;
Structure prediction by ZEFSAII (Michael W. Deem and Ramdas Pophale) SiO2 
 PCOD9000654
Probable space group: P 1
;
_chemical_formula_sum "Si O2"
_cell_formula_units_Z 6
_cell_length_a 5.090703
_cell_length_b 5.090719
_cell_length_c 9.592683
_cell_angle_alpha 109.950418
_cell_angle_beta 109.950531
_cell_angle_gamma 93.262919
_cell_volume 215.386827
_symmetry_space_group_name_H-M "P 1"
_symmetry_group_IT_number 1
_symmetry_cell_setting 'triclinic'
loop_
_space_group_symop_operation_xyz
x,y,z
loop_
_atom_site_type_symbol
_atom_site_label
_atom_site_fract_x
_atom_site_fract_y
_atom_site_fract_z
Si Si1 0.527760 0.603780 0.048510
Si Si2 0.991375 0.597751 0.775667
Si Si3 0.998703 0.320880 0.446443
Si Si4 0.458702 0.534725 0.346623
Si Si5 0.464735 0.071113 0.619468
Si Si6 0.741610 0.063780 0.948693
O O1 0.451821 0.610661 0.197566
O O2 0.236237 0.495164 0.890712
O O3 0.753500 0.395634 0.035384
O O4 0.660449 0.894006 0.045843
O O5 0.057609 0.562997 0.620167
O O6 0.687384 0.375104 0.697568
O O7 0.974571 0.907266 0.890882
O O8 0.168478 0.402035 0.349291
O O9 0.155219 0.087923 0.504257
O O10 0.666850 0.308987 0.359751
O O11 0.567315 0.826252 0.504419
O O12 0.499497 0.004872 0.774967
#
# Coordination Sequence:
#
# PCOD9000654 Si02
#       6
#     1   1   1   1   1   1
#     4  12  31  50  80 119 168 207 268 336 411 471
#     4  12  25  48  84 121 155 215 275 325 395 482
#     4  12  26  50  78 118 157 216 265 331 392 485
#     4  12  31  50  80 119 168 207 268 336 411 471
#     4  12  25  48  84 121 155 215 275 325 395 482
#     4  12  26  50  78 118 157 216 265 331 392 485
#
# _framework density 27.856857999999999
#
# number of rings (size 3 to 8) (size 9 to 14) (size 15 to 20)
#    0.000    0.000    6.667    1.000    9.333    2.667 
#    0.000    0.000    0.000    0.000    0.000    0.000 
#    0.000    0.000    0.000    0.000    0.000    0.000 
#
# Total GULP energy -33617.113729 kJ/mol
# GULP energy per Si atom -5602.852288 kJ/mol
# Density = 2.779345 g / cm^3
# Si number density = 27.856858 Si / 1000 Ang^3
#
#
#
# Elastic Constant Matrix: (Units=GPa)
#
#
# Indices 1 2 3 4 5 6 
#
# 1 148.6089 53.7949 32.7448 0.2831 -13.4411 -38.7265
# 2 53.7949 148.6056 32.7428 -13.4419 0.2848 -38.7244
# 3 32.7448 32.7428 179.6886 -27.1336 -27.1333 -30.0141
# 4 0.2831 -13.4419 -27.1336 48.4935 -4.3761 0.7530
# 5 -13.4411 0.2848 -27.1333 -4.3761 48.4928 0.7524
# 6 -38.7265 -38.7244 -30.0141 0.7530 0.7524 53.0888
#
#
#
# Elastic Compliance Matrix: (Units=1/GPa)
#
#
# Indices 1 2 3 4 5 6 
#
# 1 0.008990 -0.001969 -0.000191 -0.000578 0.002267 0.004990
# 2 -0.001969 0.008990 -0.000191 0.002267 -0.000578 0.004990
# 3 -0.000191 -0.000191 0.007681 0.004600 0.004600 0.003933
# 4 -0.000578 0.002267 0.004600 0.024182 0.004529 0.003425
# 5 0.002267 -0.000578 0.004600 0.004529 0.024183 0.003426
# 6 0.004990 0.004990 0.003933 0.003425 0.003426 0.028243
#
#
# Mechanical properties :
#
#
# Convention : Reuss Voigt Hill
#
# Bulk Modulus (GPa) = 47.70863 79.49645 63.60254
# Shear Modulus (GPa) = 43.87573 53.85639 48.86606
#
# Velocity S-wave (km/s) = 3.97299 4.40173 4.19284
# Velocity P-wave (km/s) = 6.18140 7.37788 6.80598
#
# Compressibility (1/GPa) = 0.02096057
#
# Stress axis : x y z
#
# Youngs Moduli (GPa) = 111.23024 111.22982 130.19065
#
# Poissons Ratio (x) = 0.21897 0.02487
# Poissons Ratio (y) = 0.21897 0.02486
# Poissons Ratio (z) = 0.02125 0.02124
#
# Static dielectric constant tensor:
#      x y z
#    x 2.197230 0.076570 -0.009980 
#    y 0.076570 2.197230 -0.009970 
#    z -0.009980 -0.009970 2.156000 
# 
# From -- ./inp_files/755.got.cif
#   From: 2010.05.17/outbox.cif.g08.bks.cpg/sg1_1_cif.got.tgz:755.got - 2010.05.17 20:27:59.
