data_PCOD9000696
_publ_section_title
;
Structure prediction by ZEFSAII (Michael W. Deem and Ramdas Pophale) SiO2 
 PCOD9000696
Probable space group: P 1
;
_chemical_formula_sum "Si O2"
_cell_formula_units_Z 8
_cell_length_a 13.995925
_cell_length_b 5.357452
_cell_length_c 5.323864
_cell_angle_alpha 83.683227
_cell_angle_beta 124.562344
_cell_angle_gamma 92.353538
_cell_volume 326.635099
_symmetry_space_group_name_H-M "P 1"
_symmetry_group_IT_number 1
_symmetry_cell_setting 'triclinic'
loop_
_space_group_symop_operation_xyz
x,y,z
loop_
_atom_site_type_symbol
_atom_site_label
_atom_site_fract_x
_atom_site_fract_y
_atom_site_fract_z
Si Si1 0.698430 0.454900 0.990600
Si Si2 0.323216 0.760855 0.911988
Si Si3 0.248386 0.171444 0.415944
Si Si4 0.425503 0.531178 0.569436
Si Si5 0.827262 0.944594 0.278775
Si Si6 0.039198 0.077831 0.830059
Si Si7 0.103167 0.486601 0.500748
Si Si8 0.886199 0.356587 0.946185
O O1 0.561379 0.472436 0.779610
O O2 0.756390 0.455285 0.795346
O O3 0.750967 0.702125 0.166312
O O4 0.746502 0.190341 0.212065
O O5 0.309002 0.040653 0.757012
O O6 0.385747 0.619646 0.781122
O O7 0.190526 0.665518 0.751425
O O8 0.390154 0.727028 0.275772
O O9 0.352529 0.287876 0.406051
O O10 0.170198 0.410283 0.355547
O O11 0.149531 0.996990 0.171305
O O12 0.942068 0.886864 0.622205
O O13 0.879566 0.076418 0.092935
O O14 0.096179 0.226868 0.671914
O O15 0.955358 0.293999 0.807019
O O16 0.969976 0.531516 0.219361
#
# Coordination Sequence:
#
# PCOD9000696 Si02
#       8
#     1   1   1   1   1   1   1   1
#     4  10  23  47  67  98 147 185 245 295 360 432
#     4  11  25  43  71 104 137 193 238 298 367 430
#     4  10  23  42  68 104 142 183 236 305 367 433
#     4  11  26  46  69 102 142 189 247 296 358 434
#     4   9  22  44  65 102 137 185 237 296 361 429
#     4  10  18  42  70 101 142 181 236 303 367 434
#     4   9  19  40  62 100 138 170 236 291 361 428
#     4   8  20  38  64  99 135 180 231 292 361 424
#
# _framework density 24.492166000000001
#
# number of rings (size 3 to 8) (size 9 to 14) (size 15 to 20)
#    0.750    1.500    1.250    0.000    3.500    4.000 
#   11.250    0.000    0.000    0.000    0.000    0.000 
#    0.000    0.000    0.000    0.000    0.000    0.000 
#
# Total GULP energy -44583.991552 kJ/mol
# GULP energy per Si atom -5572.998944 kJ/mol
# Density = 2.443642 g / cm^3
# Si number density = 24.492166 Si / 1000 Ang^3
#
#
#
# Elastic Constant Matrix: (Units=GPa)
#
#
# Indices 1 2 3 4 5 6 
#
# 1 136.1006 34.4726 50.9163 9.9768 39.6288 -2.3473
# 2 34.4726 119.0612 37.2311 -2.4224 13.4071 0.9459
# 3 50.9163 37.2311 101.9601 -2.4700 19.2847 14.7466
# 4 9.9768 -2.4224 -2.4700 30.1960 1.4593 -3.5846
# 5 39.6288 13.4071 19.2847 1.4593 38.3420 7.3255
# 6 -2.3473 0.9459 14.7466 -3.5846 7.3255 17.9982
#
#
#
# Elastic Compliance Matrix: (Units=1/GPa)
#
#
# Indices 1 2 3 4 5 6 
#
# 1 0.014134 -0.000878 -0.005957 -0.003205 -0.013396 0.011584
# 2 -0.000878 0.009844 -0.003262 0.001229 -0.001493 0.002893
# 3 -0.005957 -0.003262 0.015640 0.001222 0.002062 -0.014016
# 4 -0.003205 0.001229 0.001222 0.035039 -0.000125 0.005545
# 5 -0.013396 -0.001493 0.002062 -0.000125 0.043441 -0.021064
# 6 0.011584 0.002893 -0.014016 0.005545 -0.021064 0.078081
#
#
# Mechanical properties :
#
#
# Convention : Reuss Voigt Hill
#
# Bulk Modulus (GPa) = 51.48406 66.92910 59.20658
# Shear Modulus (GPa) = 22.43694 32.94071 27.68883
#
# Velocity S-wave (km/s) = 3.02998 3.67133 3.36596
# Velocity P-wave (km/s) = 5.77124 6.73481 6.27156
#
# Compressibility (1/GPa) = 0.01942349
#
# Stress axis : x y z
#
# Youngs Moduli (GPa) = 70.75292 101.58922 63.93778
#
# Poissons Ratio (x) = 0.08923 0.38085
# Poissons Ratio (y) = 0.06214 0.20857
# Poissons Ratio (z) = 0.42145 0.33139
#
# Static dielectric constant tensor:
#      x y z
#    x 1.971560 -0.041480 -0.076490 
#    y -0.041480 2.002170 0.054470 
#    z -0.076490 0.054470 1.991530 
# 
# From -- ./inp_files/442.got.cif
#   From: 2010.05.17/outbox.cif.g08.bks.cpg/sg1_1_cif.got.tgz:442.got - 2010.05.17 20:27:59.
