data_PCOD9000255
_publ_section_title
;
Structure prediction by ZEFSAII (Michael W. Deem and Ramdas Pophale) SiO2 
 PCOD9000255
Probable space group: P 1
;
_chemical_formula_sum "Si O2"
_cell_formula_units_Z 8
_cell_length_a 13.224067
_cell_length_b 5.331376
_cell_length_c 4.616574
_cell_angle_alpha 85.235813
_cell_angle_beta 97.733188
_cell_angle_gamma 104.777718
_cell_volume 311.448048
_symmetry_space_group_name_H-M "P 1"
_symmetry_group_IT_number 1
_symmetry_cell_setting 'triclinic'
loop_
_space_group_symop_operation_xyz
x,y,z
loop_
_atom_site_type_symbol
_atom_site_label
_atom_site_fract_x
_atom_site_fract_y
_atom_site_fract_z
Si Si1 0.226520 0.190770 0.400850
Si Si2 0.408768 0.946424 0.603850
Si Si3 0.556353 0.025463 0.153021
Si Si4 0.874670 0.358854 0.096947
Si Si5 0.050593 0.715102 0.456291
Si Si6 0.227270 0.519203 0.867182
Si Si7 0.837270 0.790592 0.417650
Si Si8 0.707337 0.055299 0.689810
O O1 0.220953 0.244972 0.734602
O O2 0.333531 0.103436 0.407369
O O3 0.123236 0.968871 0.311171
O O4 0.228952 0.456175 0.209736
O O5 0.475250 0.858294 0.376412
O O6 0.332348 0.713113 0.770312
O O7 0.481533 0.109819 0.873456
O O8 0.745135 0.814660 0.593627
O O9 0.638470 0.167203 0.417299
O O10 0.815376 0.559418 0.200861
O O11 0.813489 0.276883 0.781074
O O12 0.860773 0.071239 0.245954
O O13 0.993249 0.506646 0.214497
O O14 0.127655 0.611104 0.705194
O O15 0.952002 0.777642 0.586092
O O16 0.638038 0.955744 0.958585
#
# Coordination Sequence:
#
# PCOD9000255 Si02
#       8
#     1   1   1   1   1   1   1   1
#     4  11  23  45  73 110 152 200 256 324 393 480
#     4  10  22  44  76 110 148 198 256 332 404 468
#     4  10  22  44  78 106 152 198 264 332 388 474
#     4  10  23  48  74 112 160 217 256 326 379 470
#     4   9  24  47  70 118 154 211 260 313 388 472
#     4  11  23  45  73 110 152 200 256 324 393 480
#     4  10  23  48  74 112 160 217 256 326 379 470
#     4  11  22  47  74 110 154 209 264 321 394 460
#
# _framework density 25.686468000000001
#
# number of rings (size 3 to 8) (size 9 to 14) (size 15 to 20)
#    0.750    1.000    1.250    2.250    0.000    4.000 
#   13.500    6.250    5.500    0.000    0.000    0.000 
#    0.000    0.000    0.000    0.000    0.000    0.000 
#
# Total GULP energy -44600.876771 kJ/mol
# GULP energy per Si atom -5575.109596 kJ/mol
# Density = 2.562800 g / cm^3
# Si number density = 25.686468 Si / 1000 Ang^3
#
#
#
# Elastic Constant Matrix: (Units=GPa)
#
#
# Indices 1 2 3 4 5 6 
#
# 1 131.5216 24.0747 52.1829 -1.0994 4.1138 13.8864
# 2 24.0747 86.0394 27.3357 4.0524 8.3165 -7.9787
# 3 52.1829 27.3357 135.1741 5.0547 -2.0166 18.1915
# 4 -1.0994 4.0524 5.0547 35.0122 2.3681 -6.4713
# 5 4.1138 8.3165 -2.0166 2.3681 40.6213 13.6680
# 6 13.8864 -7.9787 18.1915 -6.4713 13.6680 17.4110
#
#
#
# Elastic Compliance Matrix: (Units=1/GPa)
#
#
# Indices 1 2 3 4 5 6 
#
# 1 0.009931 -0.003662 -0.001447 -0.001414 0.003605 -0.011443
# 2 -0.003662 0.019638 -0.007760 0.006318 -0.016216 0.035106
# 3 -0.001447 -0.007760 0.014064 -0.007633 0.013027 -0.030161
# 4 -0.001414 0.006318 -0.007633 0.037248 -0.016846 0.039067
# 5 0.003605 -0.016216 0.013027 -0.016846 0.053482 -0.072163
# 6 -0.011443 0.035106 -0.030161 0.039067 -0.072163 0.185332
#
#
# Mechanical properties :
#
#
# Convention : Reuss Voigt Hill
#
# Bulk Modulus (GPa) = 55.87950 62.21354 59.04652
# Shear Modulus (GPa) = 14.22882 35.21835 24.72359
#
# Velocity S-wave (km/s) = 2.35615 3.70683 3.10581
# Velocity P-wave (km/s) = 5.40404 6.52639 5.99155
#
# Compressibility (1/GPa) = 0.01789565
#
# Stress axis : x y z
#
# Youngs Moduli (GPa) = 100.69201 50.92130 71.10143
#
# Poissons Ratio (x) = 0.18649 0.10285
# Poissons Ratio (y) = 0.36877 0.55176
# Poissons Ratio (z) = 0.14566 0.39516
#
# Static dielectric constant tensor:
#      x y z
#    x 2.069630 0.012940 -0.003270 
#    y 0.012940 1.983130 -0.010610 
#    z -0.003270 -0.010610 2.055570 
# 
# From -- ./inp_files/2549.got.cif
#   From: 2010.05.17/outbox.cif.g08.bks.cpg/sg1_2_cif.got.tgz:2549.got - 2010.05.17 20:27:59.
