data_PCOD9000907
_publ_section_title
;
Structure prediction by ZEFSAII (Michael W. Deem and Ramdas Pophale) SiO2 
 PCOD9000907
Probable space group: P 1
;
_chemical_formula_sum "Si O2"
_cell_formula_units_Z 8
_cell_length_a 8.381034
_cell_length_b 8.213955
_cell_length_c 8.157106
_cell_angle_alpha 59.233946
_cell_angle_beta 73.743341
_cell_angle_gamma 110.880151
_cell_volume 368.598441
_symmetry_space_group_name_H-M "P 1"
_symmetry_group_IT_number 1
_symmetry_cell_setting 'triclinic'
loop_
_space_group_symop_operation_xyz
x,y,z
loop_
_atom_site_type_symbol
_atom_site_label
_atom_site_fract_x
_atom_site_fract_y
_atom_site_fract_z
Si Si1 0.907840 0.513150 0.972130
Si Si2 0.801287 0.798183 0.049203
Si Si3 0.678104 0.018377 0.423794
Si Si4 0.892027 0.208635 0.613157
Si Si5 0.358723 0.549202 0.291374
Si Si6 0.048264 0.033275 0.168953
Si Si7 0.102315 0.671456 0.477252
Si Si8 0.293624 0.570262 0.923887
O O1 0.017101 0.575584 0.732523
O O2 0.088905 0.557847 0.016215
O O3 0.848834 0.683801 0.949813
O O4 0.715250 0.235210 0.197043
O O5 0.563955 0.590083 0.281070
O O6 0.987650 0.922106 0.062424
O O7 0.788629 0.005851 0.883697
O O8 0.772359 0.116443 0.526737
O O9 0.827516 0.963593 0.330962
O O10 0.449503 0.782959 0.646438
O O11 0.130585 0.292100 0.490843
O O12 0.923807 0.447467 0.532844
O O13 0.305273 0.696831 0.341942
O O14 0.390481 0.605736 0.058048
O O15 0.120938 0.904555 0.318083
O O16 0.209824 0.317410 0.997957
#
# Coordination Sequence:
#
# PCOD9000907 Si02
#       8
#     1   1   1   1   1   1   1   1
#     4  11  24  43  68 100 137 172 226 271 330 395
#     4  12  24  41  71 100 132 178 217 275 333 394
#     4  11  22  42  70  98 135 176 220 274 333 393
#     4  10  20  42  68  95 137 168 216 276 328 392
#     4  10  23  43  69  96 131 174 220 269 337 383
#     4  11  23  43  65 100 137 171 226 272 329 393
#     4  10  23  45  66  97 138 176 212 282 326 390
#     4  11  23  45  69  98 133 179 217 281 330 390
#
# _framework density 21.703835000000002
#
# number of rings (size 3 to 8) (size 9 to 14) (size 15 to 20)
#    0.750    0.500    3.750    3.750    1.750    1.000 
#    2.250    0.000    0.000    0.000    0.000    0.000 
#    0.000    0.000    0.000    0.000    0.000    0.000 
#
# Total GULP energy -44615.687669 kJ/mol
# GULP energy per Si atom -5576.960959 kJ/mol
# Density = 2.165444 g / cm^3
# Si number density = 21.703835 Si / 1000 Ang^3
#
#
#
# Elastic Constant Matrix: (Units=GPa)
#
#
# Indices 1 2 3 4 5 6 
#
# 1 26.2502 25.2805 22.2203 -14.1746 0.1540 -0.5519
# 2 25.2805 92.1141 43.8023 0.0989 -9.2398 -6.4209
# 3 22.2203 43.8023 112.6243 -14.0725 -9.8855 6.6202
# 4 -14.1746 0.0989 -14.0725 35.7001 7.3214 0.4009
# 5 0.1540 -9.2398 -9.8855 7.3214 27.5615 1.2303
# 6 -0.5519 -6.4209 6.6202 0.4009 1.2303 34.5138
#
#
#
# Elastic Compliance Matrix: (Units=1/GPa)
#
#
# Indices 1 2 3 4 5 6 
#
# 1 0.082724 -0.022485 -0.004774 0.034924 -0.018915 -0.001676
# 2 -0.022485 0.020339 -0.004543 -0.012557 0.008465 0.004140
# 3 -0.004774 -0.004543 0.012313 0.002516 0.002403 -0.003398
# 4 0.034924 -0.012557 0.002516 0.046141 -0.015659 -0.002238
# 5 -0.018915 0.008465 0.002403 -0.015659 0.044274 -0.000585
# 6 -0.001676 0.004140 -0.003398 -0.002238 -0.000585 0.030416
#
#
# Mechanical properties :
#
#
# Convention : Reuss Voigt Hill
#
# Bulk Modulus (GPa) = 19.31581 45.95499 32.63540
# Shear Modulus (GPa) = 15.76947 28.86744 22.31846
#
# Velocity S-wave (km/s) = 2.69843 3.65096 3.21022
# Velocity P-wave (km/s) = 4.31599 6.24438 5.36750
#
# Compressibility (1/GPa) = 0.05177106
#
# Stress axis : x y z
#
# Youngs Moduli (GPa) = 12.08838 49.16728 81.21419
#
# Poissons Ratio (x) = 1.10552 0.38773
# Poissons Ratio (y) = 0.27181 0.36899
# Poissons Ratio (z) = 0.05771 0.22339
#
# Static dielectric constant tensor:
#      x y z
#    x 1.764530 0.046350 0.007060 
#    y 0.046350 1.798520 0.007320 
#    z 0.007060 0.007320 1.815250 
# 
# From -- ./inp_files/4135.got.cif
#   From: 2010.05.17/outbox.cif.g08.bks.cpg/sg1_3_cif.got.tgz:4135.got - 2010.05.17 20:27:59.
