data_PCOD9000978
_publ_section_title
;
Structure prediction by ZEFSAII (Michael W. Deem and Ramdas Pophale) SiO2 
 PCOD9000978
Probable space group: P 1
;
_chemical_formula_sum "Si O2"
_cell_formula_units_Z 8
_cell_length_a 9.505596
_cell_length_b 9.702576
_cell_length_c 5.045268
_cell_angle_alpha 128.906933
_cell_angle_beta 114.538429
_cell_angle_gamma 57.732207
_cell_volume 303.903209
_symmetry_space_group_name_H-M "P 1"
_symmetry_group_IT_number 1
_symmetry_cell_setting 'triclinic'
loop_
_space_group_symop_operation_xyz
x,y,z
loop_
_atom_site_type_symbol
_atom_site_label
_atom_site_fract_x
_atom_site_fract_y
_atom_site_fract_z
Si Si1 0.423830 0.872470 0.434320
Si Si2 0.801381 0.471818 0.839360
Si Si3 0.520774 0.059427 0.231627
Si Si4 0.069201 0.124038 0.366120
Si Si5 0.795847 0.065007 0.788470
Si Si6 0.526308 0.466239 0.282518
Si Si7 0.898325 0.658776 0.636669
Si Si8 0.252954 0.407208 0.704868
O O1 0.478130 0.927406 0.259515
O O2 0.506892 0.653343 0.321835
O O3 0.222519 0.940276 0.368811
O O4 0.476795 0.995804 0.840561
O O5 0.612788 0.491321 0.653035
O O6 0.844023 0.603838 0.811468
O O7 0.925661 0.252883 0.610465
O O8 0.845360 0.535444 0.230425
O O9 0.709367 0.039924 0.417954
O O10 0.396494 0.278363 0.460524
O O11 0.161077 0.265623 0.535493
O O12 0.974927 0.078050 0.988390
O O13 0.815264 0.877902 0.749153
O O14 0.661078 0.265623 0.035495
O O15 0.347229 0.453195 0.082598
O O16 0.099635 0.590970 0.702181
#
# Coordination Sequence:
#
# PCOD9000978 Si02
#       8
#     1   1   1   1   1   1   1   1
#     4  11  21  41  63  89 120 157 196 245 297 352
#     4  10  22  40  63  90 120 154 197 246 297 352
#     4  10  22  40  63  90 120 154 197 246 297 352
#     4   9  20  40  62  89 121 157 198 245 295 352
#     4  10  21  39  61  90 121 158 200 244 295 352
#     4  10  21  39  61  90 121 158 200 244 295 352
#     4  11  21  41  63  89 120 157 196 245 297 352
#     4   9  20  40  62  89 121 157 198 245 295 352
#
# _framework density 26.324173999999999
#
# number of rings (size 3 to 8) (size 9 to 14) (size 15 to 20)
#    0.000    2.000    0.000    3.000    0.000    0.000 
#    0.000   52.500    0.000    0.000    0.000    0.000 
#    0.000    0.000    0.000    0.000    0.000    0.000 
#
# Total GULP energy -44817.274235 kJ/mol
# GULP energy per Si atom -5602.159279 kJ/mol
# Density = 2.626426 g / cm^3
# Si number density = 26.324174 Si / 1000 Ang^3
#
#
#
# Elastic Constant Matrix: (Units=GPa)
#
#
# Indices 1 2 3 4 5 6 
#
# 1 87.7814 53.2536 63.5144 -18.5763 31.6623 -17.0574
# 2 53.2536 184.2621 42.0385 1.1547 6.7388 -31.6957
# 3 63.5144 42.0385 156.6722 -31.5362 25.0075 -26.7739
# 4 -18.5763 1.1547 -31.5362 48.7328 -9.8140 15.3085
# 5 31.6623 6.7388 25.0075 -9.8140 48.2099 -19.2704
# 6 -17.0574 -31.6957 -26.7739 15.3085 -19.2704 54.3470
#
#
#
# Elastic Compliance Matrix: (Units=1/GPa)
#
#
# Indices 1 2 3 4 5 6 
#
# 1 0.023918 -0.005894 -0.006014 0.004247 -0.012742 -0.004607
# 2 -0.005894 0.007922 -0.000208 -0.003320 0.004236 0.005105
# 3 -0.006014 -0.000208 0.009871 0.003552 0.000375 0.001987
# 4 0.004247 -0.003320 0.003552 0.026350 -0.001529 -0.006818
# 5 -0.012742 0.004236 0.000375 -0.001529 0.032214 0.010509
# 6 -0.004607 0.005105 0.001987 -0.006818 0.010509 0.026557
#
#
# Mechanical properties :
#
#
# Convention : Reuss Voigt Hill
#
# Bulk Modulus (GPa) = 57.20874 82.92543 70.06709
# Shear Modulus (GPa) = 31.86959 48.25188 40.06073
#
# Velocity S-wave (km/s) = 3.48323 4.28598 3.90529
# Velocity P-wave (km/s) = 6.16090 7.48752 6.85637
#
# Compressibility (1/GPa) = 0.01747985
#
# Stress axis : x y z
#
# Youngs Moduli (GPa) = 41.80947 126.23242 101.30602
#
# Poissons Ratio (x) = 0.74398 0.60921
# Poissons Ratio (y) = 0.24641 0.02110
# Poissons Ratio (z) = 0.25142 0.02630
#
# Static dielectric constant tensor:
#      x y z
#    x 2.106710 -0.013340 0.005160 
#    y -0.013340 2.105820 0.020740 
#    z 0.005160 0.020740 2.000470 
# 
# From -- ./inp_files/2429.got.cif
#   From: 2010.05.17/outbox.cif.g08.bks.cpg/sg1_2_cif.got.tgz:2429.got - 2010.05.17 20:27:59.
