data_PCOD9000766
_publ_section_title
;
Structure prediction by ZEFSAII (Michael W. Deem and Ramdas Pophale) SiO2 
 PCOD9000766
Probable space group: P 1
;
_chemical_formula_sum "Si O2"
_cell_formula_units_Z 8
_cell_length_a 7.514891
_cell_length_b 8.037102
_cell_length_c 9.362224
_cell_angle_alpha 48.439591
_cell_angle_beta 69.220431
_cell_angle_gamma 95.766912
_cell_volume 347.022569
_symmetry_space_group_name_H-M "P 1"
_symmetry_group_IT_number 1
_symmetry_cell_setting 'triclinic'
loop_
_space_group_symop_operation_xyz
x,y,z
loop_
_atom_site_type_symbol
_atom_site_label
_atom_site_fract_x
_atom_site_fract_y
_atom_site_fract_z
Si Si1 0.168760 0.597960 0.858440
Si Si2 0.876302 0.023655 0.315915
Si Si3 0.683752 0.005431 0.961535
Si Si4 0.981688 0.762343 0.071998
Si Si5 0.420468 0.789619 0.404296
Si Si6 0.589926 0.969621 0.676036
Si Si7 0.856015 0.523916 0.534921
Si Si8 0.408229 0.282318 0.658600
O O1 0.019805 0.668686 0.961710
O O2 0.240554 0.736856 0.605713
O O3 0.395529 0.712199 0.815640
O O4 0.052791 0.295162 0.053446
O O5 0.651903 0.924596 0.346418
O O6 0.805993 0.044882 0.484131
O O7 0.938994 0.800492 0.417298
O O8 0.616427 0.944996 0.850311
O O9 0.786799 0.829805 0.081722
O O10 0.867279 0.300781 0.742863
O O11 0.483783 0.957890 0.148226
O O12 0.193155 0.025844 0.899225
O O13 0.947588 0.572219 0.320012
O O14 0.363494 0.513994 0.515237
O O15 0.514469 0.186125 0.559580
O O16 0.594502 0.396939 0.660870
#
# Coordination Sequence:
#
# PCOD9000766 Si02
#       8
#     1   1   1   1   1   1   1   1
#     4  10  21  39  69  89 125 169 204 246 321 366
#     4  10  19  40  65  90 125 166 204 253 309 366
#     4  11  22  42  66  93 123 162 213 255 308 360
#     4  11  21  41  67  92 121 167 206 259 302 369
#     4  10  21  38  64  94 123 165 203 256 309 369
#     4   9  21  39  62  93 126 162 207 255 307 369
#     4  10  21  41  65  90 126 166 204 256 308 367
#     4   9  18  38  64  87 121 165 201 246 310 362
#
# _framework density 23.053253999999999
#
# number of rings (size 3 to 8) (size 9 to 14) (size 15 to 20)
#    0.000    2.000    2.500    2.250    0.000    0.000 
#   11.250    0.000   16.500    0.000    0.000    0.000 
#    0.000    0.000    0.000    0.000    0.000    0.000 
#
# Total GULP energy -44633.846503 kJ/mol
# GULP energy per Si atom -5579.230813 kJ/mol
# Density = 2.300078 g / cm^3
# Si number density = 23.053254 Si / 1000 Ang^3
#
#
#
# Elastic Constant Matrix: (Units=GPa)
#
#
# Indices 1 2 3 4 5 6 
#
# 1 32.9654 13.7776 17.7388 2.3634 -12.3819 7.4693
# 2 13.7776 128.3049 73.3102 4.5017 -9.2983 -6.6458
# 3 17.7388 73.3102 178.8512 19.6945 -9.7176 -8.7569
# 4 2.3634 4.5017 19.6945 59.0976 2.6382 -12.7602
# 5 -12.3819 -9.2983 -9.7176 2.6382 25.0166 -2.0035
# 6 7.4693 -6.6458 -8.7569 -12.7602 -2.0035 31.7337
#
#
#
# Elastic Compliance Matrix: (Units=1/GPa)
#
#
# Indices 1 2 3 4 5 6 
#
# 1 0.042555 -0.002311 -0.002372 -0.004081 0.018783 -0.011610
# 2 -0.002311 0.010503 -0.004017 0.001035 0.001261 0.002131
# 3 -0.002372 -0.004017 0.007781 -0.001982 0.000653 0.001108
# 4 -0.004081 0.001035 -0.001982 0.019624 -0.003811 0.008281
# 5 0.018783 0.001261 0.000653 -0.003811 0.050207 -0.002339
# 6 -0.011610 0.002131 0.001108 0.008281 -0.002339 0.038179
#
#
# Mechanical properties :
#
#
# Convention : Reuss Voigt Hill
#
# Bulk Modulus (GPa) = 23.02097 61.08608 42.05352
# Shear Modulus (GPa) = 24.90921 38.85591 31.88256
#
# Velocity S-wave (km/s) = 3.29067 4.10992 3.72290
# Velocity P-wave (km/s) = 4.94426 7.00552 6.06312
#
# Compressibility (1/GPa) = 0.04343866
#
# Stress axis : x y z
#
# Youngs Moduli (GPa) = 23.49886 95.21344 128.51805
#
# Poissons Ratio (x) = 0.22008 0.30482
# Poissons Ratio (y) = 0.05432 0.51624
# Poissons Ratio (z) = 0.05574 0.38246
#
# Static dielectric constant tensor:
#      x y z
#    x 1.933620 -0.007650 -0.001780 
#    y -0.007650 1.898630 -0.003590 
#    z -0.001780 -0.003590 1.913800 
# 
# From -- ./inp_files/4060.got.cif
#   From: 2010.05.17/outbox.cif.g08.bks.cpg/sg1_3_cif.got.tgz:4060.got - 2010.05.17 20:27:59.
