data_PCOD9000149
_publ_section_title
;
Structure prediction by ZEFSAII (Michael W. Deem and Ramdas Pophale) SiO2 
 PCOD9000149
Probable space group: P 1
;
_chemical_formula_sum "Si O2"
_cell_formula_units_Z 8
_cell_length_a 5.506935
_cell_length_b 5.506921
_cell_length_c 12.900822
_cell_angle_alpha 95.489003
_cell_angle_beta 125.331753
_cell_angle_gamma 97.510133
_cell_volume 309.263866
_symmetry_space_group_name_H-M "P 1"
_symmetry_group_IT_number 1
_symmetry_cell_setting 'triclinic'
loop_
_space_group_symop_operation_xyz
x,y,z
loop_
_atom_site_type_symbol
_atom_site_label
_atom_site_fract_x
_atom_site_fract_y
_atom_site_fract_z
Si Si1 0.674900 0.690600 0.303660
Si Si2 0.579315 0.006290 0.558412
Si Si3 0.327588 0.101336 0.724616
Si Si4 0.655600 0.503864 0.513294
Si Si5 0.086372 0.842573 0.224622
Si Si6 0.254661 0.610828 0.803658
Si Si7 0.277573 0.381898 0.013296
Si Si8 0.825121 0.260501 0.058417
O O1 0.765410 0.563327 0.424811
O O2 0.442770 0.858315 0.290273
O O3 0.471439 0.491952 0.166729
O O4 0.946327 0.834965 0.304990
O O5 0.472906 0.067310 0.648344
O O6 0.486318 0.217434 0.472630
O O7 0.949440 0.043040 0.630934
O O8 0.465271 0.709219 0.500555
O O9 0.408988 0.392085 0.790268
O O10 0.400350 0.880926 0.804986
O O11 0.919080 0.544295 0.666728
O O12 0.934390 0.558106 0.130937
O O13 0.976077 0.064165 0.148351
O O14 0.248545 0.580184 0.924809
O O15 0.950481 0.253281 0.972634
O O16 0.470193 0.204309 0.000559
#
# Coordination Sequence:
#
# PCOD9000149 Si02
#       8
#     1   1   1   1   1   1   1   1
#     4  10  23  42  65  94 127 166 209 258 312 372
#     4  10  22  40  62  90 124 162 205 254 308 366
#     4  10  22  40  62  90 124 162 205 254 308 366
#     4  10  23  42  65  94 127 166 209 258 312 372
#     4  10  22  40  62  90 124 162 205 254 308 366
#     4  10  23  42  65  94 127 166 209 258 312 372
#     4  10  23  42  65  94 127 166 209 258 312 372
#     4  10  22  40  62  90 124 162 205 254 308 366
#
# _framework density 25.867875999999999
#
# number of rings (size 3 to 8) (size 9 to 14) (size 15 to 20)
#    0.000    2.000    0.000    1.500    0.000   16.000 
#    0.000    2.500    0.000    0.000    0.000    0.000 
#    0.000    0.000    0.000    0.000    0.000    0.000 
#
# Total GULP energy -44704.394555 kJ/mol
# GULP energy per Si atom -5588.049319 kJ/mol
# Density = 2.580900 g / cm^3
# Si number density = 25.867876 Si / 1000 Ang^3
#
#
#
# Elastic Constant Matrix: (Units=GPa)
#
#
# Indices 1 2 3 4 5 6 
#
# 1 209.9576 60.9890 48.3906 -19.9920 -31.2865 -7.8858
# 2 60.9890 220.1959 51.7523 -26.7619 -22.3869 -7.3813
# 3 48.3906 51.7523 106.7432 -25.1444 -30.4566 1.9535
# 4 -19.9920 -26.7619 -25.1444 61.3760 3.0093 -0.7844
# 5 -31.2865 -22.3869 -30.4566 3.0093 61.4290 -1.8409
# 6 -7.8858 -7.3813 1.9535 -0.7844 -1.8409 35.6953
#
#
#
# Elastic Compliance Matrix: (Units=1/GPa)
#
#
# Indices 1 2 3 4 5 6 
#
# 1 0.005773 -0.000923 -0.001470 0.000800 0.001874 0.001279
# 2 -0.000923 0.005474 -0.001762 0.001348 0.000618 0.001086
# 3 -0.001470 -0.001762 0.013245 0.003923 0.004952 -0.001072
# 4 0.000800 0.001348 0.003923 0.018663 0.001952 0.000752
# 5 0.001874 0.000618 0.004952 0.001952 0.019859 0.001338
# 6 0.001279 0.001086 -0.001072 0.000752 0.001338 0.028666
#
#
# Mechanical properties :
#
#
# Convention : Reuss Voigt Hill
#
# Bulk Modulus (GPa) = 61.78886 95.46227 78.62556
# Shear Modulus (GPa) = 47.44565 56.75103 52.09834
#
# Velocity S-wave (km/s) = 4.28735 4.68897 4.49265
# Velocity P-wave (km/s) = 6.96036 8.14243 7.57449
#
# Compressibility (1/GPa) = 0.01618415
#
# Stress axis : x y z
#
# Youngs Moduli (GPa) = 173.21133 182.67687 75.49804
#
# Poissons Ratio (x) = 0.16859 0.11097
# Poissons Ratio (y) = 0.15985 0.13300
# Poissons Ratio (z) = 0.25459 0.32181
#
# Static dielectric constant tensor:
#      x y z
#    x 2.082160 0.069300 0.086770 
#    y 0.069300 2.067150 0.070660 
#    z 0.086770 0.070660 2.183330 
# 
# From -- ./inp_files/414.got.cif
#   From: 2010.05.17/outbox.cif.g08.bks.cpg/sg1_1_cif.got.tgz:414.got - 2010.05.17 20:27:59.
