data_PCOD9000797
_publ_section_title
;
Structure prediction by ZEFSAII (Michael W. Deem and Ramdas Pophale) SiO2 
 PCOD9000797
Probable space group: P 1
;
_chemical_formula_sum "Si O2"
_cell_formula_units_Z 8
_cell_length_a 4.939420
_cell_length_b 21.936483
_cell_length_c 9.387535
_cell_angle_alpha 152.832822
_cell_angle_beta 103.278803
_cell_angle_gamma 75.003884
_cell_volume 448.611824
_symmetry_space_group_name_H-M "P 1"
_symmetry_group_IT_number 1
_symmetry_cell_setting 'triclinic'
loop_
_space_group_symop_operation_xyz
x,y,z
loop_
_atom_site_type_symbol
_atom_site_label
_atom_site_fract_x
_atom_site_fract_y
_atom_site_fract_z
Si Si1 0.157160 0.282220 0.384660
Si Si2 0.689681 0.123701 0.970378
Si Si3 0.549978 0.825588 0.378195
Si Si4 0.767757 0.313825 0.150624
Si Si5 0.082488 0.667079 0.963939
Si Si6 0.471956 0.635471 0.197973
Si Si7 0.149839 0.443791 0.279500
Si Si8 0.089879 0.505499 0.069085
O O1 0.944615 0.359386 0.402318
O O2 0.195510 0.374839 0.715597
O O3 0.442612 0.225469 0.223266
O O4 0.984301 0.157036 0.140490
O O5 0.619844 0.974641 0.674276
O O6 0.712817 0.167612 0.898609
O O7 0.255333 0.792270 0.208133
O O8 0.526892 0.781684 0.449991
O O9 0.797011 0.723808 0.125268
O O10 0.472503 0.399751 0.266583
O O11 0.964924 0.328959 0.071339
O O12 0.295042 0.589924 0.946315
O O13 0.044208 0.574453 0.632990
O O14 0.274823 0.620329 0.277257
O O15 0.767224 0.549548 0.082002
O O16 0.119842 0.474642 0.174282
#
# Coordination Sequence:
#
# PCOD9000797 Si02
#       8
#     1   1   1   1   1   1   1   1
#     4  10  20  34  58  78 110 134 179 220 263 306
#     4  10  20  34  59  82 100 135 188 226 251 298
#     4  10  20  34  59  82 100 135 188 226 251 298
#     4  10  20  35  56  78 109 138 177 218 263 310
#     4  10  20  34  58  78 110 134 179 220 263 306
#     4  10  20  35  56  78 109 138 177 218 263 310
#     4  12  22  34  53  84 114 138 168 215 274 323
#     4  12  22  34  53  84 114 138 168 215 274 323
#
# _framework density 17.832787
#
# number of rings (size 3 to 8) (size 9 to 14) (size 15 to 20)
#    1.500    0.000    2.500    4.500    0.000    0.000 
#    0.000    0.000    0.000    9.000    0.000    0.000 
#    0.000    0.000    0.000    0.000    0.000    0.000 
#
# Total GULP energy -44536.468881 kJ/mol
# GULP energy per Si atom -5567.058610 kJ/mol
# Density = 1.779220 g / cm^3
# Si number density = 17.832787 Si / 1000 Ang^3
#
#
#
# Elastic Constant Matrix: (Units=GPa)
#
#
# Indices 1 2 3 4 5 6 
#
# 1 111.5450 32.3408 9.0323 1.1650 0.3098 23.9524
# 2 32.3408 114.8359 49.0379 -2.6554 -1.9519 36.8564
# 3 9.0323 49.0379 39.8963 3.4133 4.7061 19.4602
# 4 1.1650 -2.6554 3.4133 15.6767 11.8501 1.6711
# 5 0.3098 -1.9519 4.7061 11.8501 23.3989 10.4932
# 6 23.9524 36.8564 19.4602 1.6711 10.4932 31.3769
#
#
#
# Elastic Compliance Matrix: (Units=1/GPa)
#
#
# Indices 1 2 3 4 5 6 
#
# 1 0.011718 -0.001295 0.004751 -0.006708 0.007846 -0.012637
# 2 -0.001295 0.025859 -0.023504 -0.000517 0.016225 -0.020208
# 3 0.004751 -0.023504 0.060333 -0.015626 -0.000696 -0.012372
# 4 -0.006708 -0.000517 -0.015626 0.118059 -0.071405 0.033011
# 5 0.007846 0.016225 -0.000696 -0.071405 0.105435 -0.056074
# 6 -0.012637 -0.020208 -0.012372 0.033011 -0.056074 0.089922
#
#
# Mechanical properties :
#
#
# Convention : Reuss Voigt Hill
#
# Bulk Modulus (GPa) = 17.29686 49.67771 33.48729
# Shear Modulus (GPa) = 10.62266 25.81491 18.21879
#
# Velocity S-wave (km/s) = 2.44331 3.80887 3.19979
# Velocity P-wave (km/s) = 4.20478 6.87469 5.69831
#
# Compressibility (1/GPa) = 0.05781395
#
# Stress axis : x y z
#
# Youngs Moduli (GPa) = 85.34193 38.67109 16.57481
#
# Poissons Ratio (x) = 0.05006 -0.07875
# Poissons Ratio (y) = 0.11048 0.38958
# Poissons Ratio (z) = -0.40546 0.90893
#
# Static dielectric constant tensor:
#      x y z
#    x 1.654260 0.031000 0.042270 
#    y 0.031000 1.630040 0.044140 
#    z 0.042270 0.044140 1.620520 
# 
# From -- ./inp_files/3328.got.cif
#   From: 2010.05.17/outbox.cif.g08.bks.cpg/sg1_2_cif.got.tgz:3328.got - 2010.05.17 20:27:59.
