data_PCOD9000527
_publ_section_title
;
Structure prediction by ZEFSAII (Michael W. Deem and Ramdas Pophale) SiO2 
 PCOD9000527
Probable space group: P 1
;
_chemical_formula_sum "Si O2"
_cell_formula_units_Z 8
_cell_length_a 5.059804
_cell_length_b 11.609435
_cell_length_c 14.479111
_cell_angle_alpha 146.628263
_cell_angle_beta 125.056949
_cell_angle_gamma 67.248798
_cell_volume 374.721494
_symmetry_space_group_name_H-M "P 1"
_symmetry_group_IT_number 1
_symmetry_cell_setting 'triclinic'
loop_
_space_group_symop_operation_xyz
x,y,z
loop_
_atom_site_type_symbol
_atom_site_label
_atom_site_fract_x
_atom_site_fract_y
_atom_site_fract_z
Si Si1 0.919580 0.649260 0.196990
Si Si2 0.770290 0.698607 0.886077
Si Si3 0.407007 0.262257 0.614855
Si Si4 0.806669 0.419632 0.548693
Si Si5 0.208161 0.588927 0.577929
Si Si6 0.182795 0.882271 0.596037
Si Si7 0.317333 0.846484 0.229102
Si Si8 0.741784 0.167614 0.798119
O O1 0.559018 0.700831 0.141935
O O2 0.035506 0.764710 0.394088
O O3 0.156420 0.746291 0.225552
O O4 0.904210 0.396062 0.026455
O O5 0.953639 0.610722 0.778406
O O6 0.619430 0.490794 0.779378
O O7 0.455225 0.752122 0.805516
O O8 0.027292 0.854344 0.103651
O O9 0.022918 0.248797 0.504130
O O10 0.472638 0.217493 0.703817
O O11 0.514053 0.080560 0.452396
O O12 0.891986 0.492650 0.510319
O O13 0.420485 0.404466 0.478737
O O14 0.162177 0.707145 0.554756
O O15 0.551946 0.003997 0.725842
O O16 0.987347 0.056944 0.713455
#
# Coordination Sequence:
#
# PCOD9000527 Si02
#       8
#     1   1   1   1   1   1   1   1
#     4  12  25  41  60  99 128 168 204 262 318 377
#     4   9  22  40  62  91 124 165 196 270 304 372
#     4  11  21  38  62  97 125 160 205 253 330 366
#     4   9  20  37  65  86 121 166 204 257 311 360
#     4   9  21  40  65  86 119 178 205 250 315 361
#     4  12  24  45  65  92 130 172 215 252 311 387
#     4  12  24  36  64  95 132 156 211 256 321 388
#     4  12  25  39  67  94 131 167 206 266 318 373
#
# _framework density 21.349188999999999
#
# number of rings (size 3 to 8) (size 9 to 14) (size 15 to 20)
#    0.750    0.500    3.750    2.250    5.250    0.000 
#    0.000    3.750    0.000    0.000    0.000    0.000 
#    0.000    0.000    0.000    0.000    0.000    0.000 
#
# Total GULP energy -44625.647446 kJ/mol
# GULP energy per Si atom -5578.205931 kJ/mol
# Density = 2.130060 g / cm^3
# Si number density = 21.349189 Si / 1000 Ang^3
#
#
#
# Elastic Constant Matrix: (Units=GPa)
#
#
# Indices 1 2 3 4 5 6 
#
# 1 99.7760 1.5148 14.7330 9.7222 -13.6832 16.6548
# 2 1.5148 50.2141 -9.0700 -3.5650 -3.1795 13.3407
# 3 14.7330 -9.0700 80.2968 2.6508 -13.9663 -7.0251
# 4 9.7222 -3.5650 2.6508 15.3525 -6.5641 -3.5303
# 5 -13.6832 -3.1795 -13.9663 -6.5641 23.2108 2.7110
# 6 16.6548 13.3407 -7.0251 -3.5303 2.7110 32.0723
#
#
#
# Elastic Compliance Matrix: (Units=1/GPa)
#
#
# Indices 1 2 3 4 5 6 
#
# 1 0.013361 0.001609 -0.001794 -0.007342 0.006029 -0.009318
# 2 0.001609 0.024070 0.002852 0.005417 0.008704 -0.010363
# 3 -0.001794 0.002852 0.014771 0.003681 0.008955 0.002629
# 4 -0.007342 0.005417 0.003681 0.081389 0.020526 0.009590
# 5 0.006029 0.008704 0.008955 0.020526 0.059911 -0.007595
# 6 -0.009318 -0.010363 0.002629 0.009590 -0.007595 0.042602
#
#
# Mechanical properties :
#
#
# Convention : Reuss Voigt Hill
#
# Bulk Modulus (GPa) = 17.38024 27.18252 22.28138
# Shear Modulus (GPa) = 20.00416 29.00104 24.50260
#
# Velocity S-wave (km/s) = 3.06436 3.68967 3.39146
# Velocity P-wave (km/s) = 4.54742 5.55981 5.07890
#
# Compressibility (1/GPa) = 0.05753660
#
# Stress axis : x y z
#
# Youngs Moduli (GPa) = 74.84715 41.54529 67.69939
#
# Poissons Ratio (x) = -0.06685 0.12144
# Poissons Ratio (y) = -0.12043 -0.19309
# Poissons Ratio (z) = 0.13426 -0.11849
#
# Static dielectric constant tensor:
#      x y z
#    x 1.792010 -0.019600 0.006570 
#    y -0.019600 1.779610 -0.000660 
#    z 0.006570 -0.000660 1.777130 
# 
# From -- ./inp_files/2315.got.cif
#   From: 2010.05.17/outbox.cif.g08.bks.cpg/sg1_2_cif.got.tgz:2315.got - 2010.05.17 20:27:59.
