data_PCOD9000964
_publ_section_title
;
Structure prediction by ZEFSAII (Michael W. Deem and Ramdas Pophale) SiO2 
 PCOD9000964
Probable space group: P 1
;
_chemical_formula_sum "Si O2"
_cell_formula_units_Z 8
_cell_length_a 12.285259
_cell_length_b 12.330843
_cell_length_c 4.982801
_cell_angle_alpha 114.897272
_cell_angle_beta 50.898124
_cell_angle_gamma 145.643595
_cell_volume 321.896111
_symmetry_space_group_name_H-M "P 1"
_symmetry_group_IT_number 1
_symmetry_cell_setting 'triclinic'
loop_
_space_group_symop_operation_xyz
x,y,z
loop_
_atom_site_type_symbol
_atom_site_label
_atom_site_fract_x
_atom_site_fract_y
_atom_site_fract_z
Si Si1 0.074990 0.208700 0.698380
Si Si2 0.583923 0.349268 0.776360
Si Si3 0.902855 0.219003 0.512249
Si Si4 0.502518 0.028288 0.594290
Si Si5 0.291191 0.139479 0.536437
Si Si6 0.435017 0.782627 0.020341
Si Si7 0.103987 0.755762 0.322558
Si Si8 0.350425 0.584384 0.430341
O O1 0.097926 0.092745 0.656186
O O2 0.317609 0.429980 0.440775
O O3 0.909294 0.111215 0.595549
O O4 0.007201 0.247037 0.095253
O O5 0.380225 0.253923 0.795814
O O6 0.828848 0.573411 0.568884
O O7 0.596566 0.217471 0.543604
O O8 0.500202 0.288995 0.151062
O O9 0.076830 0.424685 0.616215
O O10 0.656039 0.102948 0.697287
O O11 0.538016 0.952733 0.238422
O O12 0.238429 0.851187 0.926356
O O13 0.201907 0.943759 0.499998
O O14 0.190536 0.689737 0.250535
O O15 0.453558 0.679570 0.079579
O O16 0.465177 0.746850 0.640017
#
# Coordination Sequence:
#
# PCOD9000964 Si02
#       8
#     1   1   1   1   1   1   1   1
#     4  10  22  43  70  96 139 189 231 284 340 412
#     4  11  26  42  73 101 138 187 229 289 356 408
#     4  10  22  40  69 100 135 187 224 278 357 409
#     4  11  25  42  70 110 146 177 231 286 366 422
#     4  11  25  48  70 101 138 185 243 280 343 415
#     4  12  21  37  63 101 141 168 225 280 345 415
#     4  11  26  44  71 104 141 181 227 297 350 414
#     4  10  21  38  64  97 134 184 216 278 345 405
#
# _framework density 24.852736
#
# number of rings (size 3 to 8) (size 9 to 14) (size 15 to 20)
#    0.750    0.500    3.750    1.500    3.500    2.000 
#    0.000    3.750    0.000    0.000    0.000    0.000 
#    0.000    0.000    0.000    0.000    0.000    0.000 
#
# Total GULP energy -44607.011153 kJ/mol
# GULP energy per Si atom -5575.876394 kJ/mol
# Density = 2.479617 g / cm^3
# Si number density = 24.852736 Si / 1000 Ang^3
#
#
#
# Elastic Constant Matrix: (Units=GPa)
#
#
# Indices 1 2 3 4 5 6 
#
# 1 116.9666 16.2063 22.4762 7.8254 33.7781 8.4571
# 2 16.2063 104.9538 39.4025 -4.7096 13.7120 12.5823
# 3 22.4762 39.4025 74.7495 -2.3165 30.0402 4.9343
# 4 7.8254 -4.7096 -2.3165 35.2828 2.5478 5.8126
# 5 33.7781 13.7120 30.0402 2.5478 37.1406 5.5781
# 6 8.4571 12.5823 4.9343 5.8126 5.5781 42.5551
#
#
#
# Elastic Compliance Matrix: (Units=1/GPa)
#
#
# Indices 1 2 3 4 5 6 
#
# 1 0.011850 -0.000913 0.001504 -0.001738 -0.011459 -0.000520
# 2 -0.000913 0.012437 -0.006885 0.001785 0.002169 -0.003226
# 3 0.001504 -0.006885 0.023945 0.001459 -0.018471 0.001182
# 4 -0.001738 0.001785 0.001459 0.029877 -0.001675 -0.004213
# 5 -0.011459 0.002169 -0.018471 -0.001675 0.052022 -0.002813
# 6 -0.000520 -0.003226 0.001182 -0.004213 -0.002813 0.025363
#
#
# Mechanical properties :
#
#
# Convention : Reuss Voigt Hill
#
# Bulk Modulus (GPa) = 28.05514 50.31552 39.18533
# Shear Modulus (GPa) = 27.78319 37.56805 32.67562
#
# Velocity S-wave (km/s) = 3.34715 3.89218 3.62991
# Velocity P-wave (km/s) = 5.12357 6.36303 5.77664
#
# Compressibility (1/GPa) = 0.03564410
#
# Stress axis : x y z
#
# Youngs Moduli (GPa) = 84.38764 80.40395 41.76175
#
# Poissons Ratio (x) = 0.07340 -0.06280
# Poissons Ratio (y) = 0.07704 0.28753
# Poissons Ratio (z) = -0.12689 0.55358
#
# Static dielectric constant tensor:
#      x y z
#    x 2.067100 -0.063740 0.033850 
#    y -0.063740 2.081400 -0.150880 
#    z 0.033850 -0.150880 2.035220 
# 
# From -- ./inp_files/1731.got.cif
#   From: 2010.05.17/outbox.cif.g08.bks.cpg/sg1_1_cif.got.tgz:1731.got - 2010.05.17 20:27:59.
