data_PCOD9000954
_publ_section_title
;
Structure prediction by ZEFSAII (Michael W. Deem and Ramdas Pophale) SiO2 
 PCOD9000954
Probable space group: P 1
;
_chemical_formula_sum "Si O2"
_cell_formula_units_Z 8
_cell_length_a 7.091200
_cell_length_b 7.638592
_cell_length_c 11.822148
_cell_angle_alpha 87.858891
_cell_angle_beta 136.223701
_cell_angle_gamma 112.516979
_cell_volume 379.527041
_symmetry_space_group_name_H-M "P 1"
_symmetry_group_IT_number 1
_symmetry_cell_setting 'triclinic'
loop_
_space_group_symop_operation_xyz
x,y,z
loop_
_atom_site_type_symbol
_atom_site_label
_atom_site_fract_x
_atom_site_fract_y
_atom_site_fract_z
Si Si1 0.898530 0.066080 0.991200
Si Si2 0.491193 0.402963 0.348047
Si Si3 0.645213 0.905764 0.644940
Si Si4 0.305144 0.448002 0.495079
Si Si5 0.979711 0.344303 0.709067
Si Si6 0.931083 0.648312 0.357812
Si Si7 0.712178 0.642071 0.009233
Si Si8 0.740615 0.382338 0.843862
O O1 0.720280 0.195569 0.911074
O O2 0.834810 0.971587 0.841356
O O3 0.772041 0.868540 0.018898
O O4 0.268512 0.220406 0.171949
O O5 0.245169 0.369471 0.343234
O O6 0.759344 0.393697 0.536589
O O7 0.674007 0.604729 0.343827
O O8 0.587642 0.686186 0.592399
O O9 0.281017 0.852821 0.510610
O O10 0.829546 0.100789 0.640981
O O11 0.430048 0.349614 0.641901
O O12 0.021040 0.472319 0.418042
O O13 0.956312 0.399137 0.829025
O O14 0.343977 0.478398 0.832886
O O15 0.811561 0.625030 0.179037
O O16 0.869276 0.575436 0.979360
#
# Coordination Sequence:
#
# PCOD9000954 Si02
#       8
#     1   1   1   1   1   1   1   1
#     4  11  22  38  67  96 122 169 206 254 314 372
#     4  11  21  39  63  91 128 161 209 255 310 369
#     4   9  19  41  60  92 123 159 207 250 314 356
#     4   9  20  40  66  89 127 162 206 257 314 367
#     4  10  22  40  64  93 125 165 209 260 306 375
#     4  10  21  37  65  89 125 167 200 257 309 369
#     4  12  22  42  64  92 133 162 208 258 311 367
#     4  10  21  41  63  90 125 163 205 259 306 365
#
# _framework density 21.078866999999999
#
# number of rings (size 3 to 8) (size 9 to 14) (size 15 to 20)
#    0.750    1.000    1.250    4.500    0.000    0.000 
#    9.000    1.250    5.500    0.000    0.000    0.000 
#    0.000    0.000    0.000    0.000    0.000    0.000 
#
# Total GULP energy -44535.136234 kJ/mol
# GULP energy per Si atom -5566.892029 kJ/mol
# Density = 2.103089 g / cm^3
# Si number density = 21.078867 Si / 1000 Ang^3
#
#
#
# Elastic Constant Matrix: (Units=GPa)
#
#
# Indices 1 2 3 4 5 6 
#
# 1 42.4189 11.0919 10.7580 -7.0810 -2.4850 1.8060
# 2 11.0919 109.9030 25.6812 -9.3089 13.5887 -1.0616
# 3 10.7580 25.6812 98.9146 2.2769 -9.6200 4.3379
# 4 -7.0810 -9.3089 2.2769 37.2132 7.5356 6.9039
# 5 -2.4850 13.5887 -9.6200 7.5356 23.8683 5.6929
# 6 1.8060 -1.0616 4.3379 6.9039 5.6929 23.1046
#
#
#
# Elastic Compliance Matrix: (Units=1/GPa)
#
#
# Indices 1 2 3 4 5 6 
#
# 1 0.025702 -0.002085 -0.001955 0.004680 0.002492 -0.003750
# 2 -0.002085 0.012044 -0.004186 0.004550 -0.010871 0.002821
# 3 -0.001955 -0.004186 0.012538 -0.003366 0.009165 -0.003646
# 4 0.004680 0.004550 -0.003366 0.032764 -0.012305 -0.006283
# 5 0.002492 -0.010871 0.009165 -0.012305 0.059096 -0.013299
# 6 -0.003750 0.002821 -0.003646 -0.006283 -0.013299 0.049543
#
#
# Mechanical properties :
#
#
# Convention : Reuss Voigt Hill
#
# Bulk Modulus (GPa) = 29.55746 38.47762 34.01754
# Shear Modulus (GPa) = 22.78765 30.41759 26.60262
#
# Velocity S-wave (km/s) = 3.29152 3.80285 3.55639
# Velocity P-wave (km/s) = 5.33838 6.12993 5.74779
#
# Compressibility (1/GPa) = 0.03383240
#
# Stress axis : x y z
#
# Youngs Moduli (GPa) = 38.90702 83.02716 79.75819
#
# Poissons Ratio (x) = 0.17312 0.15592
# Poissons Ratio (y) = 0.08113 0.33387
# Poissons Ratio (z) = 0.07606 0.34755
#
# Static dielectric constant tensor:
#      x y z
#    x 1.799050 -0.011240 -0.009480 
#    y -0.011240 1.802920 -0.025850 
#    z -0.009480 -0.025850 1.727870 
# 
# From -- ./inp_files/6368.got.cif
#   From: 2010.05.17/outbox.cif.g08.bks.cpg/sg1_4_cif.got.tgz:6368.got - 2010.05.17 20:27:59.
