data_PCOD9000246
_publ_section_title
;
Structure prediction by ZEFSAII (Michael W. Deem and Ramdas Pophale) SiO2 
 PCOD9000246
Probable space group: P 1
;
_chemical_formula_sum "Si O2"
_cell_formula_units_Z 8
_cell_length_a 10.674693
_cell_length_b 14.190613
_cell_length_c 7.410299
_cell_angle_alpha 37.873161
_cell_angle_beta 41.709346
_cell_angle_gamma 29.275987
_cell_volume 330.651356
_symmetry_space_group_name_H-M "P 1"
_symmetry_group_IT_number 1
_symmetry_cell_setting 'triclinic'
loop_
_space_group_symop_operation_xyz
x,y,z
loop_
_atom_site_type_symbol
_atom_site_label
_atom_site_fract_x
_atom_site_fract_y
_atom_site_fract_z
Si Si1 0.727460 0.565630 0.317150
Si Si2 0.483961 0.452464 0.553511
Si Si3 0.136814 0.275877 0.758135
Si Si4 0.305421 0.265880 0.198256
Si Si5 0.008811 0.998265 0.785666
Si Si6 0.457381 0.969436 0.204233
Si Si7 0.211270 0.555632 0.315573
Si Si8 0.763363 0.267647 0.997844
O O1 0.541755 0.598524 0.314629
O O2 0.674225 0.755015 0.184712
O O3 0.692422 0.458823 0.671008
O O4 0.029871 0.391138 0.205162
O O5 0.294199 0.543665 0.450251
O O6 0.354854 0.419127 0.899085
O O7 0.769505 0.207628 0.610935
O O8 0.273393 0.213546 0.509220
O O9 0.029828 0.508518 0.556316
O O10 0.942783 0.241715 0.998425
O O11 0.320321 0.140108 0.933458
O O12 0.515154 0.054532 0.174664
O O13 0.262007 0.954284 0.524642
O O14 0.092482 0.774057 0.022668
O O15 0.918354 0.077923 0.971840
O O16 0.497248 0.351759 0.234599
#
# Coordination Sequence:
#
# PCOD9000246 Si02
#       8
#     1   1   1   1   1   1   1   1
#     4  10  23  43  67  96 135 183 223 282 348 403
#     4  11  24  46  70 102 145 178 233 293 337 422
#     4  11  24  43  70 101 137 179 236 282 340 422
#     4  11  24  48  65  97 146 175 227 295 337 408
#     4  11  24  46  72 101 140 186 231 286 352 409
#     4  12  22  45  69 101 136 183 227 282 355 402
#     4  12  25  45  70 105 140 186 230 285 354 407
#     4  10  22  44  67  97 141 178 227 291 335 411
#
# _framework density 24.194666000000002
#
# number of rings (size 3 to 8) (size 9 to 14) (size 15 to 20)
#    0.000    1.000    6.250    2.250    1.750    2.000 
#    4.500    0.000    0.000    0.000    0.000    0.000 
#    0.000    0.000    0.000    0.000    0.000    0.000 
#
# Total GULP energy -44661.576719 kJ/mol
# GULP energy per Si atom -5582.697090 kJ/mol
# Density = 2.413960 g / cm^3
# Si number density = 24.194666 Si / 1000 Ang^3
#
#
#
# Elastic Constant Matrix: (Units=GPa)
#
#
# Indices 1 2 3 4 5 6 
#
# 1 95.7038 21.9470 18.0713 2.6279 -3.7688 20.6857
# 2 21.9470 89.2306 24.6196 -5.7203 -9.0456 15.3487
# 3 18.0713 24.6196 61.3591 2.1575 -10.6609 5.5401
# 4 2.6279 -5.7203 2.1575 42.9898 7.8157 -10.5466
# 5 -3.7688 -9.0456 -10.6609 7.8157 36.8892 2.9939
# 6 20.6857 15.3487 5.5401 -10.5466 2.9939 29.7308
#
#
#
# Elastic Compliance Matrix: (Units=1/GPa)
#
#
# Indices 1 2 3 4 5 6 
#
# 1 0.013415 -0.001024 -0.002156 -0.003656 0.002075 -0.009909
# 2 -0.001024 0.013925 -0.004338 0.000254 0.002475 -0.005827
# 3 -0.002156 -0.004338 0.019789 -0.002721 0.005127 -0.001429
# 4 -0.003656 0.000254 -0.002721 0.028567 -0.008277 0.013887
# 5 0.002075 0.002475 0.005127 -0.008277 0.031961 -0.009832
# 6 -0.009909 -0.005827 -0.001429 0.013887 -0.009832 0.049721
#
#
# Mechanical properties :
#
#
# Convention : Reuss Voigt Hill
#
# Bulk Modulus (GPa) = 31.16074 41.72994 36.44534
# Shear Modulus (GPa) = 27.30564 34.03234 30.66899
#
# Velocity S-wave (km/s) = 3.36308 3.75454 3.56419
# Velocity P-wave (km/s) = 5.29033 6.00670 5.65986
#
# Compressibility (1/GPa) = 0.03209166
#
# Stress axis : x y z
#
# Youngs Moduli (GPa) = 74.54465 71.81115 50.53337
#
# Poissons Ratio (x) = 0.07354 0.10896
# Poissons Ratio (y) = 0.07634 0.21924
# Poissons Ratio (z) = 0.16073 0.31155
#
# Static dielectric constant tensor:
#      x y z
#    x 2.093850 0.032150 -0.086540 
#    y 0.032150 1.984240 -0.026200 
#    z -0.086540 -0.026200 1.913620 
# 
# From -- ./inp_files/4416.got.cif
#   From: 2010.05.17/outbox.cif.g08.bks.cpg/sg1_3_cif.got.tgz:4416.got - 2010.05.17 20:27:59.
