data_PCOD9000734
_publ_section_title
;
Structure prediction by ZEFSAII (Michael W. Deem and Ramdas Pophale) SiO2 
 PCOD9000734
Probable space group: P 1
;
_chemical_formula_sum "Si O2"
_cell_formula_units_Z 8
_cell_length_a 7.185311
_cell_length_b 7.663019
_cell_length_c 9.173676
_cell_angle_alpha 111.288436
_cell_angle_beta 61.410224
_cell_angle_gamma 72.593781
_cell_volume 337.238774
_symmetry_space_group_name_H-M "P 1"
_symmetry_group_IT_number 1
_symmetry_cell_setting 'triclinic'
loop_
_space_group_symop_operation_xyz
x,y,z
loop_
_atom_site_type_symbol
_atom_site_label
_atom_site_fract_x
_atom_site_fract_y
_atom_site_fract_z
Si Si1 0.598250 0.797800 0.745450
Si Si2 0.838539 0.482292 0.820062
Si Si3 0.373476 0.779650 0.554673
Si Si4 0.849058 0.043159 0.670205
Si Si5 0.968433 0.983819 0.261846
Si Si6 0.413448 0.168051 0.520684
Si Si7 0.130300 0.507835 0.971900
Si Si8 0.918288 0.400711 0.285979
O O1 0.640375 0.690835 0.855128
O O2 0.361631 0.839375 0.749065
O O3 0.840547 0.588483 0.496825
O O4 0.636021 0.999020 0.779619
O O5 0.775622 0.295912 0.810267
O O6 0.135233 0.326894 0.595023
O O7 0.889190 0.568204 0.976301
O O8 0.102247 0.857891 0.614685
O O9 0.624276 0.519068 0.367125
O O10 0.437471 0.944076 0.501575
O O11 0.930967 0.995709 0.454642
O O12 0.040307 0.152904 0.232606
O O13 0.683978 0.088859 0.329886
O O14 0.135043 0.721851 0.072579
O O15 0.369589 0.323803 0.725884
O O16 0.088104 0.411218 0.103418
#
# Coordination Sequence:
#
# PCOD9000734 Si02
#       8
#     1   1   1   1   1   1   1   1
#     4  10  19  37  65  91 124 173 209 260 322 385
#     4   9  22  37  63  92 128 163 215 259 320 379
#     4   9  19  37  64  90 122 167 214 253 317 376
#     4  11  19  36  68  90 122 176 209 255 328 376
#     4  12  20  41  69  92 131 177 209 261 330 383
#     4   9  20  40  66  87 133 165 204 266 324 366
#     4  10  22  42  63  97 134 163 212 281 310 378
#     4  10  21  38  66  91 130 166 214 263 317 381
#
# _framework density 23.722062999999999
#
# number of rings (size 3 to 8) (size 9 to 14) (size 15 to 20)
#    1.500    0.500    5.000    0.000    1.750    1.000 
#    2.250    1.250    8.250    0.000    0.000    0.000 
#    0.000    0.000    0.000    0.000    0.000    0.000 
#
# Total GULP energy -44653.978634 kJ/mol
# GULP energy per Si atom -5581.747329 kJ/mol
# Density = 2.366807 g / cm^3
# Si number density = 23.722063 Si / 1000 Ang^3
#
#
#
# Elastic Constant Matrix: (Units=GPa)
#
#
# Indices 1 2 3 4 5 6 
#
# 1 92.3423 54.1463 21.2396 1.2724 8.9329 -10.7904
# 2 54.1463 129.5369 23.4551 -4.5946 11.1655 -10.5476
# 3 21.2396 23.4551 53.1683 8.2707 7.6000 1.8731
# 4 1.2724 -4.5946 8.2707 27.1263 -1.2890 1.3036
# 5 8.9329 11.1655 7.6000 -1.2890 27.7163 1.9820
# 6 -10.7904 -10.5476 1.8731 1.3036 1.9820 30.7611
#
#
#
# Elastic Compliance Matrix: (Units=1/GPa)
#
#
# Indices 1 2 3 4 5 6 
#
# 1 0.015459 -0.005343 -0.003513 -0.000855 -0.002191 0.003982
# 2 -0.005343 0.010910 -0.002916 0.002799 -0.001890 0.002047
# 3 -0.003513 -0.002916 0.023379 -0.007511 -0.004234 -0.003065
# 4 -0.000855 0.002799 -0.007511 0.039854 0.003116 -0.000772
# 5 -0.002191 -0.001890 -0.004234 0.003116 0.039126 -0.003812
# 6 0.003982 0.002047 -0.003065 -0.000772 -0.003812 0.035072
#
#
# Mechanical properties :
#
#
# Convention : Reuss Voigt Hill
#
# Bulk Modulus (GPa) = 38.16017 52.52548 45.34283
# Shear Modulus (GPa) = 25.49979 28.86785 27.18382
#
# Velocity S-wave (km/s) = 3.28218 3.49222 3.38883
# Velocity P-wave (km/s) = 5.52132 6.20088 5.87094
#
# Compressibility (1/GPa) = 0.02620533
#
# Stress axis : x y z
#
# Youngs Moduli (GPa) = 64.68592 91.65815 42.77262
#
# Poissons Ratio (x) = 0.48974 0.15024
# Poissons Ratio (y) = 0.34563 0.12472
# Poissons Ratio (z) = 0.22722 0.26727
#
# Static dielectric constant tensor:
#      x y z
#    x 1.964220 -0.033880 -0.024300 
#    y -0.033880 1.864440 0.004450 
#    z -0.024300 0.004450 1.900360 
# 
# From -- ./inp_files/3457.got.cif
#   From: 2010.05.17/outbox.cif.g08.bks.cpg/sg1_2_cif.got.tgz:3457.got - 2010.05.17 20:27:59.
