data_PCOD9000767
_publ_section_title
;
Structure prediction by ZEFSAII (Michael W. Deem and Ramdas Pophale) SiO2 
 PCOD9000767
Probable space group: P 1
;
_chemical_formula_sum "Si O2"
_cell_formula_units_Z 8
_cell_length_a 7.498327
_cell_length_b 9.366386
_cell_length_c 8.840914
_cell_angle_alpha 44.434825
_cell_angle_beta 94.403199
_cell_angle_gamma 70.330155
_cell_volume 358.865057
_symmetry_space_group_name_H-M "P 1"
_symmetry_group_IT_number 1
_symmetry_cell_setting 'triclinic'
loop_
_space_group_symop_operation_xyz
x,y,z
loop_
_atom_site_type_symbol
_atom_site_label
_atom_site_fract_x
_atom_site_fract_y
_atom_site_fract_z
Si Si1 0.851260 0.839420 0.856250
Si Si2 0.576101 0.254423 0.717701
Si Si3 0.437109 0.366418 0.113875
Si Si4 0.225857 0.331360 0.410086
Si Si5 0.663510 0.946793 0.247266
Si Si6 0.400928 0.759192 0.488337
Si Si7 0.044761 0.727164 0.617303
Si Si8 0.446680 0.813019 0.796934
O O1 0.645749 0.819071 0.860925
O O2 0.932109 0.824756 0.701192
O O3 0.766065 0.105349 0.720081
O O4 0.027346 0.600969 0.145687
O O5 0.353075 0.338616 0.555640
O O6 0.530338 0.497162 0.610956
O O7 0.647432 0.044535 0.006472
O O8 0.374584 0.255312 0.326736
O O9 0.646806 0.151555 0.205578
O O10 0.260985 0.477521 0.882831
O O11 0.439923 0.585934 0.025991
O O12 0.229645 0.082329 0.613382
O O13 0.464184 0.922775 0.280596
O O14 0.888042 0.710936 0.502600
O O15 0.154268 0.845110 0.441306
O O16 0.484097 0.745363 0.673522
#
# Coordination Sequence:
#
# PCOD9000767 Si02
#       8
#     1   1   1   1   1   1   1   1
#     4  10  22  43  72  96 134 179 218 273 337 396
#     4  11  25  42  64 100 145 168 212 283 338 388
#     4  10  21  40  67  97 129 172 224 278 313 393
#     4  10  22  42  65  92 138 172 221 270 326 401
#     4  12  22  43  68  96 140 173 215 281 329 391
#     4  11  23  44  70 101 133 172 226 280 325 391
#     4  10  22  42  71  98 124 178 232 262 328 396
#     4  10  19  40  67 100 123 170 226 273 322 382
#
# _framework density 22.292503
#
# number of rings (size 3 to 8) (size 9 to 14) (size 15 to 20)
#    0.000    1.500    5.000    0.750    1.750    4.000 
#    2.250    3.750    2.750    0.000    0.000    0.000 
#    0.000    0.000    0.000    0.000    0.000    0.000 
#
# Total GULP energy -44555.130553 kJ/mol
# GULP energy per Si atom -5569.391319 kJ/mol
# Density = 2.224176 g / cm^3
# Si number density = 22.292503 Si / 1000 Ang^3
#
#
#
# Elastic Constant Matrix: (Units=GPa)
#
#
# Indices 1 2 3 4 5 6 
#
# 1 80.5185 18.3055 30.3605 -5.4138 -1.8649 -2.5396
# 2 18.3055 107.3416 31.8781 -25.5539 10.8692 11.1413
# 3 30.3605 31.8781 97.6397 0.4191 17.6422 9.5305
# 4 -5.4138 -25.5539 0.4191 34.8753 6.7320 1.2928
# 5 -1.8649 10.8692 17.6422 6.7320 35.8796 0.4689
# 6 -2.5396 11.1413 9.5305 1.2928 0.4689 26.6978
#
#
#
# Elastic Compliance Matrix: (Units=1/GPa)
#
#
# Indices 1 2 3 4 5 6 
#
# 1 0.014986 -0.001759 -0.005146 0.000231 0.003748 0.003919
# 2 -0.001759 0.014221 -0.002667 0.011382 -0.005150 -0.005611
# 3 -0.005146 -0.002667 0.014240 -0.001586 -0.006108 -0.004276
# 4 0.000231 0.011382 -0.001586 0.039204 -0.009935 -0.005885
# 5 0.003748 -0.005150 -0.006108 -0.009935 0.034434 0.004563
# 6 0.003919 -0.005611 -0.004276 -0.005885 0.004563 0.041902
#
#
# Mechanical properties :
#
#
# Convention : Reuss Voigt Hill
#
# Bulk Modulus (GPa) = 41.14525 49.62087 45.38306
# Shear Modulus (GPa) = 26.84826 33.15424 30.00125
#
# Velocity S-wave (km/s) = 3.47416 3.86066 3.67249
# Velocity P-wave (km/s) = 5.88133 6.49463 6.19557
#
# Compressibility (1/GPa) = 0.02430414
#
# Stress axis : x y z
#
# Youngs Moduli (GPa) = 66.73016 70.31692 70.22232
#
# Poissons Ratio (x) = 0.12366 0.36138
# Poissons Ratio (y) = 0.11735 0.18727
# Poissons Ratio (z) = 0.34341 0.18752
#
# Static dielectric constant tensor:
#      x y z
#    x 1.899640 -0.005420 -0.000840 
#    y -0.005420 1.830450 -0.038550 
#    z -0.000840 -0.038550 1.843900 
# 
# From -- ./inp_files/4082.got.cif
#   From: 2010.05.17/outbox.cif.g08.bks.cpg/sg1_3_cif.got.tgz:4082.got - 2010.05.17 20:27:59.
