data_PCOD9000944
_publ_section_title
;
Structure prediction by ZEFSAII (Michael W. Deem and Ramdas Pophale) SiO2 
 PCOD9000944
Probable space group: P 1
;
_chemical_formula_sum "Si O2"
_cell_formula_units_Z 8
_cell_length_a 12.452765
_cell_length_b 5.083431
_cell_length_c 5.178149
_cell_angle_alpha 94.590657
_cell_angle_beta 78.372492
_cell_angle_gamma 85.107055
_cell_volume 318.302894
_symmetry_space_group_name_H-M "P 1"
_symmetry_group_IT_number 1
_symmetry_cell_setting 'triclinic'
loop_
_space_group_symop_operation_xyz
x,y,z
loop_
_atom_site_type_symbol
_atom_site_label
_atom_site_fract_x
_atom_site_fract_y
_atom_site_fract_z
Si Si1 0.500000 0.230140 0.621800
Si Si2 0.930873 0.682818 0.404290
Si Si3 0.144694 0.661753 0.026137
Si Si4 0.606137 0.699469 0.777659
Si Si5 0.254212 0.129626 0.785927
Si Si6 0.673209 0.423361 0.228214
Si Si7 0.868958 0.984453 0.961436
Si Si8 0.044042 0.303424 0.667944
O O1 0.504923 0.515062 0.779977
O O2 0.378294 0.149073 0.646041
O O3 0.563762 0.275391 0.327905
O O4 0.570581 0.996675 0.728324
O O5 0.866092 0.841855 0.676483
O O6 0.872677 0.771554 0.173089
O O7 0.964950 0.384116 0.470744
O O8 0.056254 0.758427 0.293570
O O9 0.227530 0.865628 0.918875
O O10 0.214067 0.377741 0.012293
O O11 0.068252 0.579312 0.816878
O O12 0.688932 0.553582 0.511648
O O13 0.649467 0.645144 0.038759
O O14 0.168203 0.164727 0.590136
O O15 0.769823 0.208918 0.078197
O O16 0.977190 0.142093 0.890044
#
# Coordination Sequence:
#
# PCOD9000944 Si02
#       8
#     1   1   1   1   1   1   1   1
#     4  10  24  45  76 101 143 181 237 283 354 409
#     4  12  23  44  66 103 138 189 224 286 342 416
#     4  10  22  43  68  99 146 175 232 276 344 409
#     4  10  24  46  72 101 140 179 236 289 343 411
#     4  10  20  47  69 108 137 189 223 293 339 421
#     4  10  26  46  69 108 137 186 232 294 345 411
#     4  12  25  44  72 101 144 182 236 282 350 415
#     4  10  24  41  68 103 145 177 232 277 349 408
#
# _framework density 25.133292999999998
#
# number of rings (size 3 to 8) (size 9 to 14) (size 15 to 20)
#    1.500    0.000    2.500    1.500    5.250    2.000 
#    4.500    0.000    0.000    0.000    0.000    0.000 
#    0.000    0.000    0.000    0.000    0.000    0.000 
#
# Total GULP energy -44696.008597 kJ/mol
# GULP energy per Si atom -5587.001075 kJ/mol
# Density = 2.507609 g / cm^3
# Si number density = 25.133293 Si / 1000 Ang^3
#
#
#
# Elastic Constant Matrix: (Units=GPa)
#
#
# Indices 1 2 3 4 5 6 
#
# 1 100.0751 21.1459 55.6226 -2.0146 -21.7580 4.8748
# 2 21.1459 110.3580 38.6495 -24.2475 -0.9407 5.9532
# 3 55.6226 38.6495 146.3931 -23.5317 5.5829 -4.9676
# 4 -2.0146 -24.2475 -23.5317 41.7604 -0.9036 -1.7134
# 5 -21.7580 -0.9407 5.5829 -0.9036 40.4411 -5.4663
# 6 4.8748 5.9532 -4.9676 -1.7134 -5.4663 44.2643
#
#
#
# Elastic Compliance Matrix: (Units=1/GPa)
#
#
# Indices 1 2 3 4 5 6 
#
# 1 0.016012 -0.001372 -0.006708 -0.003659 0.009247 -0.001331
# 2 -0.001372 0.011146 -0.001578 0.005453 -0.000322 -0.001354
# 3 -0.006708 -0.001578 0.010814 0.004822 -0.004793 0.001759
# 4 -0.003659 0.005453 0.004822 0.029664 -0.001689 0.001150
# 5 0.009247 -0.000322 -0.004793 -0.001689 0.030617 0.002203
# 6 -0.001331 -0.001354 0.001759 0.001150 0.002203 0.023434
#
#
# Mechanical properties :
#
#
# Convention : Reuss Voigt Hill
#
# Bulk Modulus (GPa) = 53.60324 65.29583 59.44953
# Shear Modulus (GPa) = 33.96256 41.38703 37.67480
#
# Velocity S-wave (km/s) = 3.67999 4.06236 3.87589
# Velocity P-wave (km/s) = 6.27936 6.93108 6.61325
#
# Compressibility (1/GPa) = 0.01865559
#
# Stress axis : x y z
#
# Youngs Moduli (GPa) = 62.45208 89.72170 92.47504
#
# Poissons Ratio (x) = 0.12312 0.62028
# Poissons Ratio (y) = 0.08570 0.14595
# Poissons Ratio (z) = 0.41890 0.14160
#
# Static dielectric constant tensor:
#      x y z
#    x 2.068980 0.026130 0.040600 
#    y 0.026130 1.986690 0.017470 
#    z 0.040600 0.017470 1.969790 
# 
# From -- ./inp_files/2551.got.cif
#   From: 2010.05.17/outbox.cif.g08.bks.cpg/sg1_2_cif.got.tgz:2551.got - 2010.05.17 20:27:59.
