data_PCOD9000844
_publ_section_title
;
Structure prediction by ZEFSAII (Michael W. Deem and Ramdas Pophale) SiO2 
 PCOD9000844
Probable space group: P 1
;
_chemical_formula_sum "Si O2"
_cell_formula_units_Z 8
_cell_length_a 7.907513
_cell_length_b 7.533983
_cell_length_c 12.378265
_cell_angle_alpha 44.976372
_cell_angle_beta 146.605325
_cell_angle_gamma 126.641915
_cell_volume 286.850627
_symmetry_space_group_name_H-M "P 1"
_symmetry_group_IT_number 1
_symmetry_cell_setting 'triclinic'
loop_
_space_group_symop_operation_xyz
x,y,z
loop_
_atom_site_type_symbol
_atom_site_label
_atom_site_fract_x
_atom_site_fract_y
_atom_site_fract_z
Si Si1 0.948850 0.027860 0.529970
Si Si2 0.082086 0.323631 0.255536
Si Si3 0.499429 0.624764 0.850885
Si Si4 0.920885 0.372896 0.923659
Si Si5 0.611907 0.867898 0.608996
Si Si6 0.612360 0.697589 0.350345
Si Si7 0.115693 0.129048 0.915869
Si Si8 0.469297 0.772853 0.011099
O O1 0.006293 0.205299 0.382322
O O2 0.655573 0.038539 0.449627
O O3 0.895735 0.761187 0.552492
O O4 0.258731 0.017000 0.771877
O O5 0.425587 0.440075 0.382778
O O6 0.836411 0.546447 0.024356
O O7 0.985512 0.207275 0.137006
O O8 0.388134 0.814960 0.615587
O O9 0.289493 0.376072 0.855842
O O10 0.576987 0.720437 0.970995
O O11 0.653852 0.582098 0.705476
O O12 0.943913 0.204299 0.902404
O O13 0.214353 0.560142 0.995008
O O14 0.878384 0.011922 0.756094
O O15 0.679690 0.742063 0.240805
O O16 0.376242 0.920310 0.155727
#
# Coordination Sequence:
#
# PCOD9000844 Si02
#       8
#     1   1   1   1   1   1   1   1
#     4  11  22  40  62  90 125 165 201 260 304 360
#     4  10  20  39  61  93 124 156 214 252 301 373
#     4  10  20  39  66  93 120 168 205 251 311 376
#     4   8  18  36  63  85 121 159 202 246 300 373
#     4  10  21  42  58  92 130 154 208 258 297 375
#     4  11  21  41  65  86 125 168 199 253 314 361
#     4  11  18  37  68  87 117 170 199 246 318 352
#     4   9  20  42  61  88 130 154 208 258 299 372
#
# _framework density 27.88908
#
# number of rings (size 3 to 8) (size 9 to 14) (size 15 to 20)
#    0.000    2.000    6.250    0.000    0.000    2.000 
#    2.250    6.250    0.000    0.000    0.000    0.000 
#    0.000    0.000    0.000    0.000    0.000    0.000 
#
# Total GULP energy -44621.375763 kJ/mol
# GULP energy per Si atom -5577.671970 kJ/mol
# Density = 2.782560 g / cm^3
# Si number density = 27.889080 Si / 1000 Ang^3
#
#
#
# Elastic Constant Matrix: (Units=GPa)
#
#
# Indices 1 2 3 4 5 6 
#
# 1 143.1250 30.1385 39.1987 -7.1108 -61.1246 -2.1069
# 2 30.1385 100.6201 25.1710 -0.6110 -19.1476 27.7119
# 3 39.1987 25.1710 127.2346 -2.2062 -43.4399 9.4339
# 4 -7.1108 -0.6110 -2.2062 46.1827 3.0120 -14.5559
# 5 -61.1246 -19.1476 -43.4399 3.0120 71.3660 -10.8910
# 6 -2.1069 27.7119 9.4339 -14.5559 -10.8910 58.6837
#
#
#
# Elastic Compliance Matrix: (Units=1/GPa)
#
#
# Indices 1 2 3 4 5 6 
#
# 1 0.012118 -0.002870 0.000035 0.002521 0.010180 0.004299
# 2 -0.002870 0.012834 -0.001487 -0.002392 -0.000837 -0.006673
# 3 0.000035 -0.001487 0.010115 0.000151 0.005811 0.000193
# 4 0.002521 -0.002392 0.000151 0.024280 0.001735 0.007540
# 5 0.010180 -0.000837 0.005811 0.001735 0.026768 0.005225
# 6 0.004299 -0.006673 0.000193 0.007540 0.005225 0.023155
#
#
# Mechanical properties :
#
#
# Convention : Reuss Voigt Hill
#
# Bulk Modulus (GPa) = 37.84687 62.22176 50.03432
# Shear Modulus (GPa) = 39.45656 53.67792 46.56724
#
# Velocity S-wave (km/s) = 3.76542 4.39189 4.09067
# Velocity P-wave (km/s) = 5.70127 6.93377 6.34750
#
# Compressibility (1/GPa) = 0.02642226
#
# Stress axis : x y z
#
# Youngs Moduli (GPa) = 82.52474 77.91776 98.86058
#
# Poissons Ratio (x) = 0.22361 -0.00346
# Poissons Ratio (y) = 0.23683 0.14705
# Poissons Ratio (z) = -0.00289 0.11590
#
# Static dielectric constant tensor:
#      x y z
#    x 2.293550 -0.018790 0.003080 
#    y -0.018790 2.156670 -0.064740 
#    z 0.003080 -0.064740 2.255950 
# 
# From -- ./inp_files/4812.got.cif
#   From: 2010.05.17/outbox.cif.g08.bks.cpg/sg1_3_cif.got.tgz:4812.got - 2010.05.17 20:27:59.
