data_PCOD9000995
_publ_section_title
;
Structure prediction by ZEFSAII (Michael W. Deem and Ramdas Pophale) SiO2 
 PCOD9000995
Probable space group: P -1
;
_chemical_formula_sum "Si O2"
_cell_formula_units_Z 16
_cell_length_a 12.740256
_cell_length_b 10.592428
_cell_length_c 5.303767
_cell_angle_alpha 92.261861
_cell_angle_beta 95.168651
_cell_angle_gamma 76.972777
_cell_volume 694.352749
_symmetry_space_group_name_H-M "P -1"
_symmetry_group_IT_number 2
_symmetry_cell_setting 'triclinic'
loop_
_space_group_symop_operation_xyz
x,y,z
-x,-y,-z
loop_
_atom_site_type_symbol
_atom_site_label
_atom_site_fract_x
_atom_site_fract_y
_atom_site_fract_z
Si Si1 0.778061 0.153980 0.312354
Si Si2 0.075171 0.669396 0.614790
Si Si3 0.421709 0.159282 0.220522
Si Si4 0.096103 0.445240 0.206861
Si Si5 0.649727 0.953906 0.296358
Si Si6 0.555274 0.616448 0.442873
Si Si7 0.732518 0.515339 0.063143
Si Si8 0.660894 0.284304 0.797838
O O1 0.895022 0.190495 0.368652
O O2 0.713420 0.236584 0.537003
O O3 0.757259 0.010748 0.324630
O O4 0.721865 0.200128 0.034601
O O5 0.104547 0.572987 0.376040
O O6 0.164211 0.592195 0.822666
O O7 0.953252 0.658034 0.653006
O O8 0.363756 0.110499 0.444709
O O9 0.427691 0.304501 0.300152
O O10 0.544876 0.073472 0.247200
O O11 0.363421 0.135384 0.949680
O O12 0.207300 0.394664 0.081431
O O13 0.000000 0.500000 0.000000
O O14 0.500000 0.500000 0.500000
O O15 0.660457 0.571839 0.290135
O O16 0.465278 0.713150 0.260155
O O17 0.670249 0.429563 0.876015
#
# Coordination Sequence:
#
# PCOD9000995 Si02
#       8
#     2   2   2   2   2   2   2   2
#     4  11  20  36  60  83 110 152 197 246 284 329
#     4   9  18  33  53  80 113 142 187 236 289 350
#     4  10  23  38  56  80 109 154 199 242 284 327
#     4   9  17  33  52  77 113 145 181 233 291 348
#     4  10  21  39  59  77 109 150 202 252 279 317
#     4  12  25  39  55  84 123 163 195 229 283 355
#     4  10  21  33  51  77 116 159 184 225 284 349
#     4  11  22  35  51  84 119 155 197 227 275 343
#
# _framework density 23.043040000000001
#
# number of rings (size 3 to 8) (size 9 to 14) (size 15 to 20)
#    0.000    1.750    2.500    2.625    3.500    1.000 
#    0.000    0.000    0.000    0.000    0.000    1.750 
#    0.000    0.000    0.000    0.000    0.000    0.000 
#
# Total GULP energy -89388.407558 kJ/mol
# GULP energy per Si atom -5586.775472 kJ/mol
# Density = 2.299059 g / cm^3
# Si number density = 23.043040 Si / 1000 Ang^3
#
#
#
# Elastic Constant Matrix: (Units=GPa)
#
#
# Indices 1 2 3 4 5 6 
#
# 1 95.4537 29.0911 45.4286 15.9074 -11.7529 37.1231
# 2 29.0911 64.4923 17.5535 22.8629 -2.0719 30.6977
# 3 45.4286 17.5535 121.0351 26.3963 -0.1193 14.4386
# 4 15.9074 22.8629 26.3963 36.0421 4.0371 8.7074
# 5 -11.7529 -2.0719 -0.1193 4.0371 48.1917 3.0556
# 6 37.1231 30.6977 14.4386 8.7074 3.0556 38.8009
#
#
#
# Elastic Compliance Matrix: (Units=1/GPa)
#
#
# Indices 1 2 3 4 5 6 
#
# 1 0.021649 0.003060 -0.005342 -0.003306 0.007004 -0.020956
# 2 0.003060 0.031997 0.000882 -0.016778 0.005128 -0.025210
# 3 -0.005342 0.000882 0.011436 -0.006919 -0.000769 0.001770
# 4 -0.003306 -0.016778 -0.006919 0.043202 -0.005783 0.009772
# 5 0.007004 0.005128 -0.000769 -0.005783 0.023862 -0.011053
# 6 -0.020956 -0.025210 0.001770 0.009772 -0.011053 0.063786
#
#
# Mechanical properties :
#
#
# Convention : Reuss Voigt Hill
#
# Bulk Modulus (GPa) = 16.05537 51.68084 33.86810
# Shear Modulus (GPa) = 22.77976 37.20081 29.99028
#
# Velocity S-wave (km/s) = 3.14757 4.02233 3.61153
# Velocity P-wave (km/s) = 4.49358 6.63693 5.66750
#
# Compressibility (1/GPa) = 0.06228447
#
# Stress axis : x y z
#
# Youngs Moduli (GPa) = 46.19093 31.25245 87.44257
#
# Poissons Ratio (x) = -0.09564 0.46710
# Poissons Ratio (y) = -0.14136 -0.07715
# Poissons Ratio (z) = 0.24674 -0.02758
#
# Static dielectric constant tensor:
#      x y z
#    x 1.922260 0.052980 -0.004550 
#    y 0.052980 1.933320 -0.074520 
#    z -0.004550 -0.074520 1.908630 
# 
# From -- ./inp_files/71263.got.cif
#   From: 2010.05.17/outbox.cif.g08.bks.cpg/sg2_36_cif.got.tgz:71263.got - 2010.06.03 11:33:40.
