data_PCOD9000963
_publ_section_title
;
Structure prediction by ZEFSAII (Michael W. Deem and Ramdas Pophale) SiO2 
 PCOD9000963
Probable space group: P 1
;
_chemical_formula_sum "Si O2"
_cell_formula_units_Z 8
_cell_length_a 9.511409
_cell_length_b 7.829313
_cell_length_c 7.202354
_cell_angle_alpha 60.571486
_cell_angle_beta 49.784432
_cell_angle_gamma 62.254120
_cell_volume 347.734524
_symmetry_space_group_name_H-M "P 1"
_symmetry_group_IT_number 1
_symmetry_cell_setting 'triclinic'
loop_
_space_group_symop_operation_xyz
x,y,z
loop_
_atom_site_type_symbol
_atom_site_label
_atom_site_fract_x
_atom_site_fract_y
_atom_site_fract_z
Si Si1 0.416950 0.575710 0.949340
Si Si2 0.156349 0.271792 0.296209
Si Si3 0.767637 0.286765 0.704101
Si Si4 0.897376 0.269073 0.212180
Si Si5 0.547785 0.612959 0.227322
Si Si6 0.048968 0.851482 0.164169
Si Si7 0.793560 0.878885 0.056190
Si Si8 0.153329 0.806263 0.522366
O O1 0.600933 0.481593 0.723748
O O2 0.312724 0.388880 0.157491
O O3 0.497636 0.640199 0.038838
O O4 0.245478 0.758649 0.942188
O O5 0.972033 0.327930 0.555864
O O6 0.062725 0.350609 0.133171
O O7 0.207335 0.028132 0.368360
O O8 0.805873 0.188321 0.518137
O O9 0.726844 0.119710 0.966630
O O10 0.720942 0.420921 0.195994
O O11 0.999777 0.092106 0.088438
O O12 0.341448 0.632852 0.484574
O O13 0.634041 0.782315 0.160155
O O14 0.081694 0.781532 0.386287
O O15 0.870614 0.805752 0.232590
O O16 0.980275 0.817531 0.801567
#
# Coordination Sequence:
#
# PCOD9000963 Si02
#       8
#     1   1   1   1   1   1   1   1
#     4  11  21  36  64  90 119 158 209 243 299 366
#     4   8  18  38  62  79 126 157 188 259 299 341
#     4   9  21  39  64  86 120 158 205 242 306 357
#     4   9  20  42  58  87 129 153 199 259 298 352
#     4  11  23  36  61  93 123 156 207 249 297 365
#     4  10  21  38  63  89 122 161 197 253 301 355
#     4  11  21  40  66  87 123 165 196 248 312 354
#     4   9  21  41  60  91 124 154 203 255 298 358
#
# _framework density 23.006055
#
# number of rings (size 3 to 8) (size 9 to 14) (size 15 to 20)
#    0.750    1.500    1.250    2.250    1.750    2.000 
#    0.000    0.000   19.250    0.000    0.000    0.000 
#    0.000    0.000    0.000    0.000    0.000    0.000 
#
# Total GULP energy -44581.805734 kJ/mol
# GULP energy per Si atom -5572.725717 kJ/mol
# Density = 2.295369 g / cm^3
# Si number density = 23.006055 Si / 1000 Ang^3
#
#
#
# Elastic Constant Matrix: (Units=GPa)
#
#
# Indices 1 2 3 4 5 6 
#
# 1 145.8104 25.1769 20.8757 -6.7645 -13.7009 -2.8503
# 2 25.1769 105.7540 23.4244 27.2327 -8.4667 -18.9058
# 3 20.8757 23.4244 37.7953 8.5797 -14.8895 -0.6944
# 4 -6.7645 27.2327 8.5797 33.3936 -5.5264 -8.6033
# 5 -13.7009 -8.4667 -14.8895 -5.5264 24.5760 2.5381
# 6 -2.8503 -18.9058 -0.6944 -8.6033 2.5381 43.5438
#
#
#
# Elastic Compliance Matrix: (Units=1/GPa)
#
#
# Indices 1 2 3 4 5 6 
#
# 1 0.008192 -0.002224 -0.003054 0.004833 0.003006 0.000302
# 2 -0.002224 0.014549 -0.006584 -0.010008 -0.002907 0.004259
# 3 -0.003054 -0.006584 0.041035 -0.003498 0.020548 -0.004293
# 4 0.004833 -0.010008 -0.003498 0.041999 0.006174 0.003854
# 5 0.003006 -0.002907 0.020548 0.006174 0.055486 -0.002752
# 6 0.000302 0.004259 -0.004293 0.003854 -0.002752 0.025687
#
#
# Mechanical properties :
#
#
# Convention : Reuss Voigt Hill
#
# Bulk Modulus (GPa) = 24.96624 47.59039 36.27831
# Shear Modulus (GPa) = 22.31901 34.96153 28.64027
#
# Velocity S-wave (km/s) = 3.11808 3.90252 3.53214
# Velocity P-wave (km/s) = 4.88250 6.40602 5.69544
#
# Compressibility (1/GPa) = 0.04005409
#
# Stress axis : x y z
#
# Youngs Moduli (GPa) = 122.07073 68.73136 24.36915
#
# Poissons Ratio (x) = 0.15284 0.07441
# Poissons Ratio (y) = 0.27145 0.16045
# Poissons Ratio (z) = 0.37276 0.45253
#
# Static dielectric constant tensor:
#      x y z
#    x 1.882120 -0.019880 0.030630 
#    y -0.019880 1.921880 -0.004360 
#    z 0.030630 -0.004360 1.887720 
# 
# From -- ./inp_files/3848.got.cif
#   From: 2010.05.17/outbox.cif.g08.bks.cpg/sg1_2_cif.got.tgz:3848.got - 2010.05.17 20:27:59.
