data_PCOD9000802
_publ_section_title
;
Structure prediction by ZEFSAII (Michael W. Deem and Ramdas Pophale) SiO2 
 PCOD9000802
Probable space group: P 1
;
_chemical_formula_sum "Si O2"
_cell_formula_units_Z 8
_cell_length_a 6.350036
_cell_length_b 7.974320
_cell_length_c 8.949349
_cell_angle_alpha 48.675702
_cell_angle_beta 98.162822
_cell_angle_gamma 83.382387
_cell_volume 323.287489
_symmetry_space_group_name_H-M "P 1"
_symmetry_group_IT_number 1
_symmetry_cell_setting 'triclinic'
loop_
_space_group_symop_operation_xyz
x,y,z
loop_
_atom_site_type_symbol
_atom_site_label
_atom_site_fract_x
_atom_site_fract_y
_atom_site_fract_z
Si Si1 0.444350 0.421800 0.939500
Si Si2 0.066406 0.468089 0.677109
Si Si3 0.778228 0.882818 0.608639
Si Si4 0.022350 0.982663 0.079016
Si Si5 0.732350 0.683204 0.282471
Si Si6 0.400283 0.929105 0.346251
Si Si7 0.112284 0.667702 0.003277
Si Si8 0.822284 0.368244 0.206732
O O1 0.322541 0.455627 0.747222
O O2 0.294314 0.612360 0.925587
O O3 0.696170 0.409461 0.010157
O O4 0.422316 0.175454 0.142875
O O5 0.022164 0.231166 0.869806
O O6 0.922317 0.675454 0.642873
O O7 0.963259 0.522432 0.471164
O O8 0.822471 0.119741 0.415943
O O9 0.522093 0.895280 0.538527
O O10 0.881375 0.828473 0.814585
O O11 0.155427 0.798760 0.076826
O O12 0.148464 0.941444 0.275593
O O13 0.790754 0.922399 0.107184
O O14 0.550319 0.738547 0.360161
O O15 0.689206 0.552147 0.208921
O O16 0.053880 0.428508 0.178565
#
# Coordination Sequence:
#
# PCOD9000802 Si02
#       8
#     1   1   1   1   1   1   1   1
#     4   9  19  34  53  77 104 135 171 212 253 301
#     4   9  19  34  53  77 104 135 171 212 253 301
#     4   9  19  34  53  77 104 135 171 212 253 301
#     4  10  20  35  55  77 104 137 170 210 258 304
#     4  10  20  35  55  77 104 137 170 210 258 304
#     4   9  19  34  53  77 104 135 171 212 253 301
#     4  10  20  35  55  77 104 137 170 210 258 304
#     4  10  20  35  55  77 104 137 170 210 258 304
#
# _framework density 24.745774999999998
#
# number of rings (size 3 to 8) (size 9 to 14) (size 15 to 20)
#    0.000    2.500    0.000    1.500    0.000   10.000 
#    0.000    7.500    0.000   27.000    0.000    0.000 
#    0.000    0.000    0.000    0.000    0.000    0.000 
#
# Total GULP energy -44707.769596 kJ/mol
# GULP energy per Si atom -5588.471199 kJ/mol
# Density = 2.468945 g / cm^3
# Si number density = 24.745775 Si / 1000 Ang^3
#
#
#
# Elastic Constant Matrix: (Units=GPa)
#
#
# Indices 1 2 3 4 5 6 
#
# 1 45.9811 29.6110 9.0254 -8.8437 -10.2104 -1.2801
# 2 29.6110 120.6037 43.2978 -8.3335 3.4873 20.7442
# 3 9.0254 43.2978 101.4675 13.0066 9.9581 18.0352
# 4 -8.8437 -8.3335 13.0066 45.8941 11.9321 -2.2230
# 5 -10.2104 3.4873 9.9581 11.9321 33.9875 6.9265
# 6 -1.2801 20.7442 18.0352 -2.2230 6.9265 32.9340
#
#
#
# Elastic Compliance Matrix: (Units=1/GPa)
#
#
# Indices 1 2 3 4 5 6 
#
# 1 0.029421 -0.007644 -0.001441 0.002875 0.007962 0.005267
# 2 -0.007644 0.012721 -0.003823 0.002196 -0.002106 -0.005625
# 3 -0.001441 -0.003823 0.013208 -0.004619 -0.001286 -0.004922
# 4 0.002875 0.002196 -0.004619 0.026430 -0.008261 0.004780
# 5 0.007962 -0.002106 -0.001286 -0.008261 0.036509 -0.005896
# 6 0.005267 -0.005625 -0.004922 0.004780 -0.005896 0.038370
#
#
# Mechanical properties :
#
#
# Convention : Reuss Voigt Hill
#
# Bulk Modulus (GPa) = 33.85977 47.99121 40.92549
# Shear Modulus (GPa) = 25.99821 34.97101 30.48461
#
# Velocity S-wave (km/s) = 3.24483 3.76335 3.51367
# Velocity P-wave (km/s) = 5.26795 6.19028 5.74765
#
# Compressibility (1/GPa) = 0.02953357
#
# Stress axis : x y z
#
# Youngs Moduli (GPa) = 33.98935 78.61013 75.71000
#
# Poissons Ratio (x) = 0.60086 0.10913
# Poissons Ratio (y) = 0.25980 0.28947
# Poissons Ratio (z) = 0.04899 0.30055
#
# Static dielectric constant tensor:
#      x y z
#    x 2.016340 0.061980 0.055510 
#    y 0.061980 1.950640 -0.007790 
#    z 0.055510 -0.007790 1.988940 
# 
# From -- ./inp_files/3577.got.cif
#   From: 2010.05.17/outbox.cif.g08.bks.cpg/sg1_2_cif.got.tgz:3577.got - 2010.05.17 20:27:59.
