data_PCOD9000245
_publ_section_title
;
Structure prediction by ZEFSAII (Michael W. Deem and Ramdas Pophale) SiO2 
 PCOD9000245
Probable space group: P 1
;
_chemical_formula_sum "Si O2"
_cell_formula_units_Z 8
_cell_length_a 7.689520
_cell_length_b 11.207991
_cell_length_c 8.132508
_cell_angle_alpha 101.404936
_cell_angle_beta 56.556270
_cell_angle_gamma 140.565936
_cell_volume 335.386249
_symmetry_space_group_name_H-M "P 1"
_symmetry_group_IT_number 1
_symmetry_cell_setting 'triclinic'
loop_
_space_group_symop_operation_xyz
x,y,z
loop_
_atom_site_type_symbol
_atom_site_label
_atom_site_fract_x
_atom_site_fract_y
_atom_site_fract_z
Si Si1 0.807850 0.860860 0.432480
Si Si2 0.138742 0.766654 0.181391
Si Si3 0.710522 0.885228 0.113156
Si Si4 0.785545 0.231686 0.918885
Si Si5 0.462091 0.178053 0.384422
Si Si6 0.367044 0.333906 0.726369
Si Si7 0.094887 0.616719 0.848564
Si Si8 0.918878 0.754783 0.758516
O O1 0.714984 0.861691 0.298375
O O2 0.488346 0.746724 0.687035
O O3 0.868535 0.744088 0.367404
O O4 0.173511 0.089363 0.375946
O O5 0.372398 0.804078 0.203656
O O6 0.977545 0.600687 0.086298
O O7 0.435828 0.990892 0.992928
O O8 0.726298 0.765800 0.972761
O O9 0.074045 0.126240 0.935609
O O10 0.118619 0.303332 0.737271
O O11 0.845668 0.390700 0.848981
O O12 0.746649 0.243488 0.139276
O O13 0.558538 0.325394 0.508004
O O14 0.221396 0.966432 0.552973
O O15 0.631992 0.541999 0.747934
O O16 0.098737 0.737662 0.771409
#
# Coordination Sequence:
#
# PCOD9000245 Si02
#       8
#     1   1   1   1   1   1   1   1
#     4  11  23  42  70 100 130 176 220 270 334 393
#     4  10  23  46  70  91 140 174 217 281 324 391
#     4  10  22  45  72 100 133 175 220 277 337 383
#     4  10  23  41  66  95 125 177 218 271 328 387
#     4  10  24  44  68  92 133 176 222 269 335 384
#     4  10  22  44  67  94 135 173 222 273 323 396
#     4  12  25  41  67 101 136 174 224 267 335 393
#     4  11  24  43  68 101 134 179 219 274 328 401
#
# _framework density 23.853095
#
# number of rings (size 3 to 8) (size 9 to 14) (size 15 to 20)
#    0.000    1.500    1.250    3.750    8.750    3.000 
#    2.250    1.250    0.000    0.000    0.000    0.000 
#    0.000    0.000    0.000    0.000    0.000    0.000 
#
# Total GULP energy -44755.723496 kJ/mol
# GULP energy per Si atom -5594.465437 kJ/mol
# Density = 2.379880 g / cm^3
# Si number density = 23.853095 Si / 1000 Ang^3
#
#
#
# Elastic Constant Matrix: (Units=GPa)
#
#
# Indices 1 2 3 4 5 6 
#
# 1 108.5675 17.0861 21.1532 7.4195 -2.3408 -16.5474
# 2 17.0861 121.9121 12.1289 22.6956 -4.4379 -10.8891
# 3 21.1532 12.1289 84.9725 6.6705 -9.7486 -9.0940
# 4 7.4195 22.6956 6.6705 36.7049 -0.5291 -5.9437
# 5 -2.3408 -4.4379 -9.7486 -0.5291 43.8327 3.7691
# 6 -16.5474 -10.8891 -9.0940 -5.9437 3.7691 31.4027
#
#
#
# Elastic Compliance Matrix: (Units=1/GPa)
#
#
# Indices 1 2 3 4 5 6 
#
# 1 0.010452 -0.000769 -0.002000 -0.000534 -0.000367 0.004605
# 2 -0.000769 0.009530 -0.000500 -0.005368 0.000605 0.001666
# 3 -0.002000 -0.000500 0.012940 -0.001282 0.002535 0.001973
# 4 -0.000534 -0.005368 -0.001282 0.031466 -0.000781 0.003535
# 5 -0.000367 0.000605 0.002535 -0.000781 0.023602 -0.002230
# 6 0.004605 0.001666 0.001973 0.003535 -0.002230 0.036357
#
#
# Mechanical properties :
#
#
# Convention : Reuss Voigt Hill
#
# Bulk Modulus (GPa) = 37.89828 46.24315 42.07072
# Shear Modulus (GPa) = 35.79647 40.06033 37.92840
#
# Velocity S-wave (km/s) = 3.87810 4.10257 3.99191
# Velocity P-wave (km/s) = 5.99796 6.47072 6.23882
#
# Compressibility (1/GPa) = 0.02638642
#
# Stress axis : x y z
#
# Youngs Moduli (GPa) = 95.67690 104.92898 77.27749
#
# Poissons Ratio (x) = 0.08065 0.15452
# Poissons Ratio (y) = 0.07354 0.03863
# Poissons Ratio (z) = 0.19131 0.05245
#
# Static dielectric constant tensor:
#      x y z
#    x 1.882760 -0.017280 0.012900 
#    y -0.017280 1.931020 -0.030830 
#    z 0.012900 -0.030830 1.918110 
# 
# From -- ./inp_files/4854.got.cif
#   From: 2010.05.17/outbox.cif.g08.bks.cpg/sg1_3_cif.got.tgz:4854.got - 2010.05.17 20:27:59.
