data_PCOD9000590
_publ_section_title
;
Structure prediction by ZEFSAII (Michael W. Deem and Ramdas Pophale) SiO2 
 PCOD9000590
Probable space group: P 1
;
_chemical_formula_sum "Si O2"
_cell_formula_units_Z 8
_cell_length_a 10.081156
_cell_length_b 9.730637
_cell_length_c 4.775802
_cell_angle_alpha 59.981805
_cell_angle_beta 71.435955
_cell_angle_gamma 47.740416
_cell_volume 300.102748
_symmetry_space_group_name_H-M "P 1"
_symmetry_group_IT_number 1
_symmetry_cell_setting 'triclinic'
loop_
_space_group_symop_operation_xyz
x,y,z
loop_
_atom_site_type_symbol
_atom_site_label
_atom_site_fract_x
_atom_site_fract_y
_atom_site_fract_z
Si Si1 0.922730 0.637080 0.724180
Si Si2 0.882382 0.184739 0.709758
Si Si3 0.388660 0.830585 0.054188
Si Si4 0.147525 0.272664 0.534038
Si Si5 0.524270 0.416286 0.355417
Si Si6 0.422914 0.287817 0.030075
Si Si7 0.668755 0.818832 0.219723
Si Si8 0.025482 0.922442 0.389616
O O1 0.061579 0.414160 0.722551
O O2 0.240163 0.336934 0.209551
O O3 0.845227 0.689824 0.036665
O O4 0.991664 0.766078 0.490258
O O5 0.889745 0.128583 0.084983
O O6 0.988341 0.971765 0.691470
O O7 0.994142 0.267263 0.517117
O O8 0.311793 0.037304 0.735454
O O9 0.213207 0.872893 0.257459
O O10 0.388814 0.439739 0.656058
O O11 0.476164 0.620771 0.049483
O O12 0.528672 0.790577 0.230286
O O13 0.695561 0.320094 0.538445
O O14 0.515028 0.298613 0.229815
O O15 0.561524 0.061085 0.040973
O O16 0.740759 0.739694 0.561675
#
# Coordination Sequence:
#
# PCOD9000590 Si02
#       8
#     1   1   1   1   1   1   1   1
#     4  12  26  46  73 107 144 190 240 295 358 428
#     4  11  24  45  71 102 142 186 236 296 360 424
#     4  11  27  47  71 106 148 191 239 296 360 428
#     4  11  27  49  74 108 149 193 240 297 361 430
#     4  12  26  46  75 108 143 189 243 298 359 428
#     4  12  26  48  77 109 143 189 244 301 358 428
#     4  12  26  47  74 106 143 188 241 298 357 427
#     4  11  24  44  69 102 142 186 235 295 359 425
#
# _framework density 26.657537999999999
#
# number of rings (size 3 to 8) (size 9 to 14) (size 15 to 20)
#    0.000    0.500    0.000    8.250    0.000   15.000 
#    0.000    0.000    0.000    0.000    0.000    0.000 
#    0.000    0.000    0.000    0.000    0.000    0.000 
#
# Total GULP energy -44870.084430 kJ/mol
# GULP energy per Si atom -5608.760554 kJ/mol
# Density = 2.659686 g / cm^3
# Si number density = 26.657538 Si / 1000 Ang^3
#
#
#
# Elastic Constant Matrix: (Units=GPa)
#
#
# Indices 1 2 3 4 5 6 
#
# 1 201.8703 56.1884 35.6813 5.3340 7.6983 17.2685
# 2 56.1884 127.8979 30.2813 5.5661 2.3665 25.2798
# 3 35.6813 30.2813 92.3163 14.4228 -12.4508 8.8440
# 4 5.3340 5.5661 14.4228 34.6351 1.8626 3.2485
# 5 7.6983 2.3665 -12.4508 1.8626 23.8225 -0.6122
# 6 17.2685 25.2798 8.8440 3.2485 -0.6122 42.2113
#
#
#
# Elastic Compliance Matrix: (Units=1/GPa)
#
#
# Indices 1 2 3 4 5 6 
#
# 1 0.006040 -0.001941 -0.002075 0.000492 -0.002907 -0.000954
# 2 -0.001941 0.010229 -0.002414 0.000213 -0.001792 -0.004869
# 3 -0.002075 -0.002414 0.014563 -0.005823 0.008972 -0.000179
# 4 0.000492 0.000213 -0.005823 0.031648 -0.005740 -0.001628
# 5 -0.002907 -0.001792 0.008972 -0.005740 0.048272 0.001524
# 6 -0.000954 -0.004869 -0.000179 -0.001628 0.001524 0.027181
#
#
# Mechanical properties :
#
#
# Convention : Reuss Voigt Hill
#
# Bulk Modulus (GPa) = 55.64203 74.04294 64.84249
# Shear Modulus (GPa) = 31.89076 40.12936 36.01006
#
# Velocity S-wave (km/s) = 3.46253 3.88411 3.67936
# Velocity P-wave (km/s) = 6.07484 6.92467 6.51363
#
# Compressibility (1/GPa) = 0.01797203
#
# Stress axis : x y z
#
# Youngs Moduli (GPa) = 165.55485 97.75851 68.66686
#
# Poissons Ratio (x) = 0.18979 0.14251
# Poissons Ratio (y) = 0.32141 0.16573
# Poissons Ratio (z) = 0.34358 0.23595
#
# Static dielectric constant tensor:
#      x y z
#    x 2.046020 -0.079170 0.005880 
#    y -0.079170 2.083660 -0.061760 
#    z 0.005880 -0.061760 2.029340 
# 
# From -- ./inp_files/2677.got.cif
#   From: 2010.05.17/outbox.cif.g08.bks.cpg/sg1_2_cif.got.tgz:2677.got - 2010.05.17 20:27:59.
