data_PCOD9000600
_publ_section_title
;
Structure prediction by ZEFSAII (Michael W. Deem and Ramdas Pophale) SiO2 
 PCOD9000600
Probable space group: P 1
;
_chemical_formula_sum "Si O2"
_cell_formula_units_Z 8
_cell_length_a 5.119918
_cell_length_b 15.634776
_cell_length_c 5.120109
_cell_angle_alpha 57.196535
_cell_angle_beta 79.330914
_cell_angle_gamma 98.841320
_cell_volume 322.141093
_symmetry_space_group_name_H-M "P 1"
_symmetry_group_IT_number 1
_symmetry_cell_setting 'triclinic'
loop_
_space_group_symop_operation_xyz
x,y,z
loop_
_atom_site_type_symbol
_atom_site_label
_atom_site_fract_x
_atom_site_fract_y
_atom_site_fract_z
Si Si1 0.701110 0.478020 0.563970
Si Si2 0.677245 0.978022 0.040109
Si Si3 0.377518 0.012035 0.550581
Si Si4 0.911090 0.658139 0.879694
Si Si5 0.769563 0.299600 0.528756
Si Si6 0.890894 0.799591 0.150276
Si Si7 0.156603 0.512038 0.829673
Si Si8 0.181576 0.158145 0.650069
O O1 0.695861 0.357766 0.701974
O O2 0.444823 0.490205 0.756388
O O3 0.995577 0.530955 0.567398
O O4 0.690337 0.543943 0.191571
O O5 0.472611 0.990210 0.284177
O O6 0.659462 0.857753 0.165767
O O7 0.620879 0.030911 0.692743
O O8 0.983709 0.043974 0.984924
O O9 0.261558 0.113292 0.432361
O O10 0.156282 0.902633 0.872558
O O11 0.894708 0.725853 0.517375
O O12 0.173623 0.613275 0.844498
O O13 0.877259 0.729783 0.010488
O O14 0.476236 0.225778 0.598901
O O15 0.979340 0.229868 0.612078
O O16 0.944019 0.402621 0.160258
#
# Coordination Sequence:
#
# PCOD9000600 Si02
#       8
#     1   1   1   1   1   1   1   1
#     4  11  25  47  74 110 150 193 247 305 366 444
#     4  11  25  47  74 110 150 193 247 305 366 444
#     4  11  25  47  74 110 150 193 247 305 366 444
#     4  11  24  46  72 112 146 198 244 305 368 440
#     4  11  24  46  72 112 144 200 242 307 366 442
#     4  11  24  46  72 112 144 200 242 307 366 442
#     4  11  25  47  74 110 150 193 247 305 366 444
#     4  11  24  46  72 112 146 198 244 305 368 440
#
# _framework density 24.833839999999999
#
# number of rings (size 3 to 8) (size 9 to 14) (size 15 to 20)
#    0.000    1.000    2.500    3.000    0.000   12.000 
#    9.000    0.000    0.000    0.000    0.000    0.000 
#    0.000    0.000    0.000    0.000    0.000    0.000 
#
# Total GULP energy -44664.436265 kJ/mol
# GULP energy per Si atom -5583.054533 kJ/mol
# Density = 2.477732 g / cm^3
# Si number density = 24.833840 Si / 1000 Ang^3
#
#
#
# Elastic Constant Matrix: (Units=GPa)
#
#
# Indices 1 2 3 4 5 6 
#
# 1 120.9298 78.5472 24.6526 17.0476 -10.1928 -28.9032
# 2 78.5472 273.6328 54.0817 32.2998 2.4764 -50.2438
# 3 24.6526 54.0817 90.7720 17.2726 6.8547 -8.7066
# 4 17.0476 32.2998 17.2726 50.9978 1.2461 -8.7844
# 5 -10.1928 2.4764 6.8547 1.2461 29.2373 0.0962
# 6 -28.9032 -50.2438 -8.7066 -8.7844 0.0962 48.6480
#
#
#
# Elastic Compliance Matrix: (Units=1/GPa)
#
#
# Indices 1 2 3 4 5 6 
#
# 1 0.011536 -0.002125 -0.001556 -0.001386 0.004612 0.004121
# 2 -0.002125 0.005549 -0.002035 -0.001435 -0.000685 0.003846
# 3 -0.001556 -0.002035 0.013334 -0.002821 -0.003372 -0.001143
# 4 -0.001386 -0.001435 -0.002821 0.022158 -0.000648 0.001191
# 5 0.004612 -0.000685 -0.003372 -0.000648 0.036683 0.001239
# 6 0.004121 0.003846 -0.001143 0.001191 0.001239 0.026984
#
#
# Mechanical properties :
#
#
# Convention : Reuss Voigt Hill
#
# Bulk Modulus (GPa) = 52.67142 88.87748 70.77445
# Shear Modulus (GPa) = 37.31224 47.64684 42.47954
#
# Velocity S-wave (km/s) = 3.88038 4.38496 4.14037
# Velocity P-wave (km/s) = 6.42900 7.84243 7.17063
#
# Compressibility (1/GPa) = 0.01898563
#
# Stress axis : x y z
#
# Youngs Moduli (GPa) = 86.68509 180.22546 74.99902
#
# Poissons Ratio (x) = 0.38305 0.11670
# Poissons Ratio (y) = 0.18424 0.15261
# Poissons Ratio (z) = 0.13488 0.36673
#
# Static dielectric constant tensor:
#      x y z
#    x 2.038240 -0.008750 0.018960 
#    y -0.008750 2.020920 0.029200 
#    z 0.018960 0.029200 1.994690 
# 
# From -- ./inp_files/611.got.cif
#   From: 2010.05.17/outbox.cif.g08.bks.cpg/sg1_1_cif.got.tgz:611.got - 2010.05.17 20:27:59.
