data_PCOD9000047
_publ_section_title
;
Structure prediction by ZEFSAII (Michael W. Deem and Ramdas Pophale) SiO2 
 PCOD9000047
Probable space group: P 1
;
_chemical_formula_sum "Si O2"
_cell_formula_units_Z 8
_cell_length_a 7.845351
_cell_length_b 7.880447
_cell_length_c 8.920374
_cell_angle_alpha 83.300578
_cell_angle_beta 110.670019
_cell_angle_gamma 48.857570
_cell_volume 337.601919
_symmetry_space_group_name_H-M "P 1"
_symmetry_group_IT_number 1
_symmetry_cell_setting 'triclinic'
loop_
_space_group_symop_operation_xyz
x,y,z
loop_
_atom_site_type_symbol
_atom_site_label
_atom_site_fract_x
_atom_site_fract_y
_atom_site_fract_z
Si Si1 0.176500 0.519030 0.112070
Si Si2 0.853231 0.997888 0.776347
Si Si3 0.742812 0.610855 0.125697
Si Si4 0.562093 0.751599 0.383612
Si Si5 0.373155 0.547042 0.448831
Si Si6 0.026632 0.690910 0.590341
Si Si7 0.312254 0.222052 0.924125
Si Si8 0.965119 0.234482 0.002956
O O1 0.307174 0.569712 0.251727
O O2 0.037702 0.485533 0.187842
O O3 0.389427 0.287725 0.083484
O O4 0.923278 0.777658 0.912099
O O5 0.564625 0.256428 0.590312
O O6 0.034113 0.836278 0.700383
O O7 0.915172 0.102801 0.903403
O O8 0.717451 0.585334 0.295050
O O9 0.729455 0.461915 0.021798
O O10 0.517525 0.919490 0.996043
O O11 0.530723 0.616151 0.501920
O O12 0.734628 0.795217 0.486165
O O13 0.248550 0.011625 0.208219
O O14 0.107428 0.714717 0.454481
O O15 0.241345 0.393464 0.746176
O O16 0.034161 0.333868 0.894206
#
# Coordination Sequence:
#
# PCOD9000047 Si02
#       8
#     1   1   1   1   1   1   1   1
#     4  10  21  43  66  99 141 179 227 285 347 411
#     4  11  25  44  69 107 143 176 236 291 339 420
#     4  10  21  41  72  97 133 190 227 278 352 405
#     4  11  24  43  69 105 142 181 232 287 341 417
#     4  12  25  42  71 105 141 183 232 282 350 416
#     4  11  25  45  72 106 137 182 231 290 352 403
#     4   9  21  41  70  97 139 182 230 285 345 409
#     4  10  22  43  69 104 140 185 233 280 348 417
#
# _framework density 23.696549000000001
#
# number of rings (size 3 to 8) (size 9 to 14) (size 15 to 20)
#    0.000    1.500    2.500    1.500    5.250    3.000 
#    2.250    2.500    0.000    0.000    0.000    0.000 
#    0.000    0.000    0.000    0.000    0.000    0.000 
#
# Total GULP energy -44643.275200 kJ/mol
# GULP energy per Si atom -5580.409400 kJ/mol
# Density = 2.364261 g / cm^3
# Si number density = 23.696549 Si / 1000 Ang^3
#
#
#
# Elastic Constant Matrix: (Units=GPa)
#
#
# Indices 1 2 3 4 5 6 
#
# 1 68.9288 38.5268 16.5325 8.2682 -8.3414 4.2410
# 2 38.5268 149.2762 40.9623 17.8890 1.8501 19.8903
# 3 16.5325 40.9623 81.7488 0.7184 1.9231 -4.1741
# 4 8.2682 17.8890 0.7184 32.6808 0.9148 5.0822
# 5 -8.3414 1.8501 1.9231 0.9148 30.9705 2.9179
# 6 4.2410 19.8903 -4.1741 5.0822 2.9179 23.3905
#
#
#
# Elastic Compliance Matrix: (Units=1/GPa)
#
#
# Indices 1 2 3 4 5 6 
#
# 1 0.018085 -0.003870 -0.001844 -0.002498 0.005332 -0.000440
# 2 -0.003870 0.010568 -0.004899 -0.003384 -0.000481 -0.008364
# 3 -0.001844 -0.004899 0.015452 0.001755 -0.001885 0.007111
# 4 -0.002498 -0.003384 0.001755 0.033625 -0.001242 -0.003507
# 5 0.005332 -0.000481 -0.001885 -0.001242 0.034370 -0.004911
# 6 -0.000440 -0.008364 0.007111 -0.003507 -0.004911 0.052588
#
#
# Mechanical properties :
#
#
# Convention : Reuss Voigt Hill
#
# Bulk Modulus (GPa) = 43.70710 54.66631 49.18671
# Shear Modulus (GPa) = 25.83449 31.00384 28.41916
#
# Velocity S-wave (km/s) = 3.30543 3.62106 3.46684
# Velocity P-wave (km/s) = 5.74912 6.37198 6.06855
#
# Compressibility (1/GPa) = 0.02287958
#
# Stress axis : x y z
#
# Youngs Moduli (GPa) = 55.29502 94.62680 64.71541
#
# Poissons Ratio (x) = 0.36616 0.11936
# Poissons Ratio (y) = 0.21397 0.31702
# Poissons Ratio (z) = 0.10199 0.46355
#
# Static dielectric constant tensor:
#      x y z
#    x 1.949870 0.025550 0.019070 
#    y 0.025550 1.977190 0.024560 
#    z 0.019070 0.024560 1.923210 
# 
# From -- ./inp_files/4469.got.cif
#   From: 2010.05.17/outbox.cif.g08.bks.cpg/sg1_3_cif.got.tgz:4469.got - 2010.05.17 20:27:59.
