data_PCOD9000847
_publ_section_title
;
Structure prediction by ZEFSAII (Michael W. Deem and Ramdas Pophale) SiO2 
 PCOD9000847
Probable space group: P 1
;
_chemical_formula_sum "Si O2"
_cell_formula_units_Z 8
_cell_length_a 11.113786
_cell_length_b 6.228996
_cell_length_c 14.414036
_cell_angle_alpha 42.412373
_cell_angle_beta 29.329837
_cell_angle_gamma 51.463671
_cell_volume 329.020935
_symmetry_space_group_name_H-M "P 1"
_symmetry_group_IT_number 1
_symmetry_cell_setting 'triclinic'
loop_
_space_group_symop_operation_xyz
x,y,z
loop_
_atom_site_type_symbol
_atom_site_label
_atom_site_fract_x
_atom_site_fract_y
_atom_site_fract_z
Si Si1 0.161300 0.632470 0.036960
Si Si2 0.267459 0.907597 0.410318
Si Si3 0.157508 0.611912 0.255595
Si Si4 0.565574 0.087987 0.337049
Si Si5 0.675527 0.383672 0.491771
Si Si6 0.671735 0.363115 0.710406
Si Si7 0.239390 0.231129 0.686971
Si Si8 0.593644 0.764456 0.060396
O O1 0.195719 0.748783 0.083327
O O2 0.940155 0.358081 0.274013
O O3 0.416517 0.497793 0.873683
O O4 0.090160 0.920016 0.925500
O O5 0.122321 0.566629 0.636139
O O6 0.457813 0.853625 0.217277
O O7 0.141791 0.228738 0.369293
O O8 0.416519 0.997793 0.373681
O O9 0.379946 0.700417 0.146859
O O10 0.892880 0.637504 0.473353
O O11 0.375217 0.141960 0.530092
O O12 0.710713 0.428956 0.111229
O O13 0.691242 0.766847 0.378075
O O14 0.637316 0.246802 0.664039
O O15 0.453090 0.295167 0.600506
O O16 0.742874 0.075570 0.821867
#
# Coordination Sequence:
#
# PCOD9000847 Si02
#       8
#     1   1   1   1   1   1   1   1
#     4  11  22  39  61  88 120 155 193 240 289 347
#     4   9  19  39  62  86 118 150 198 244 282 349
#     4  10  22  40  60  89 119 150 198 239 286 353
#     4   9  19  39  62  86 118 150 198 244 282 349
#     4  10  22  40  60  89 119 150 198 239 286 353
#     4  11  22  39  61  88 120 155 193 240 289 347
#     4  10  20  39  63  85 119 156 189 244 294 336
#     4  10  20  39  63  85 119 156 189 244 294 336
#
# _framework density 24.314561999999999
#
# number of rings (size 3 to 8) (size 9 to 14) (size 15 to 20)
#    0.000    2.000    2.500    0.750    0.000    2.000 
#    4.500   11.250    0.000    0.000    0.000    0.000 
#    0.000    0.000    0.000    0.000    0.000    0.000 
#
# Total GULP energy -44676.486461 kJ/mol
# GULP energy per Si atom -5584.560808 kJ/mol
# Density = 2.425922 g / cm^3
# Si number density = 24.314562 Si / 1000 Ang^3
#
#
#
# Elastic Constant Matrix: (Units=GPa)
#
#
# Indices 1 2 3 4 5 6 
#
# 1 68.5921 6.8196 2.3872 -7.4560 31.7240 12.7270
# 2 6.8196 86.7804 25.8316 -10.3975 16.8594 -1.2226
# 3 2.3872 25.8316 107.9183 -5.1206 36.6297 4.4165
# 4 -7.4560 -10.3975 -5.1206 32.1294 -8.7317 8.3242
# 5 31.7240 16.8594 36.6297 -8.7317 52.0320 0.1966
# 6 12.7270 -1.2226 4.4165 8.3242 0.1966 34.3098
#
#
#
# Elastic Compliance Matrix: (Units=1/GPa)
#
#
# Indices 1 2 3 4 5 6 
#
# 1 0.026322 0.000199 0.006908 0.004838 -0.020120 -0.011704
# 2 0.000199 0.012991 -0.002195 0.003327 -0.002226 -0.000123
# 3 0.006908 -0.002195 0.014457 0.000707 -0.013542 -0.004596
# 4 0.004838 0.003327 0.000707 0.036653 0.001666 -0.010669
# 5 -0.020120 -0.002226 -0.013542 0.001666 0.041988 0.008482
# 6 -0.011704 -0.000123 -0.004596 -0.010669 0.008482 0.036615
#
#
# Mechanical properties :
#
#
# Convention : Reuss Voigt Hill
#
# Bulk Modulus (GPa) = 15.72533 37.04084 26.38309
# Shear Modulus (GPa) = 27.71620 38.91108 33.31364
#
# Velocity S-wave (km/s) = 3.37991 4.00474 3.70552
# Velocity P-wave (km/s) = 4.65974 6.05401 5.40205
#
# Compressibility (1/GPa) = 0.06359168
#
# Stress axis : x y z
#
# Youngs Moduli (GPa) = 37.99143 76.97889 69.17115
#
# Poissons Ratio (x) = -0.01531 -0.47781
# Poissons Ratio (y) = -0.00756 0.15186
# Poissons Ratio (z) = -0.26243 0.16900
#
# Static dielectric constant tensor:
#      x y z
#    x 1.883960 -0.063730 -0.011100 
#    y -0.063730 2.018250 0.020880 
#    z -0.011100 0.020880 2.050710 
# 
# From -- ./inp_files/2459.got.cif
#   From: 2010.05.17/outbox.cif.g08.bks.cpg/sg1_2_cif.got.tgz:2459.got - 2010.05.17 20:27:59.
