data_PCOD9000998
_publ_section_title
;
Structure prediction by ZEFSAII (Michael W. Deem and Ramdas Pophale) SiO2 
 PCOD9000998
Probable space group: P -1
;
_chemical_formula_sum "Si O2"
_cell_formula_units_Z 14
_cell_length_a 11.981514
_cell_length_b 6.512865
_cell_length_c 15.192115
_cell_angle_alpha 128.293789
_cell_angle_beta 132.583259
_cell_angle_gamma 79.111592
_cell_volume 628.254004
_symmetry_space_group_name_H-M "P -1"
_symmetry_group_IT_number 2
_symmetry_cell_setting 'triclinic'
loop_
_space_group_symop_operation_xyz
x,y,z
-x,-y,-z
loop_
_atom_site_type_symbol
_atom_site_label
_atom_site_fract_x
_atom_site_fract_y
_atom_site_fract_z
Si Si1 0.631542 0.685096 0.022724
Si Si2 0.110591 0.224226 0.689208
Si Si3 0.134533 0.019162 0.344823
Si Si4 0.448175 0.546320 0.728708
Si Si5 0.361519 0.939527 0.148064
Si Si6 0.357708 0.823193 0.310062
Si Si7 0.878730 0.162702 0.152494
O O1 0.714894 0.789452 0.191217
O O2 0.753118 0.928292 0.088086
O O3 0.462207 0.624078 0.860986
O O4 0.637075 0.372952 0.944472
O O5 0.125389 0.533113 0.749213
O O6 0.999511 0.148564 0.698494
O O7 0.000000 0.000000 0.500000
O O8 0.283279 0.279035 0.541671
O O9 0.053680 0.156391 0.266456
O O10 0.194948 0.801058 0.268423
O O11 0.598524 0.444629 0.761199
O O12 0.490328 0.821729 0.763084
O O13 0.369469 0.991068 0.269830
O O14 0.193247 0.916553 0.005060
O O15 0.500000 0.000000 0.500000
#
# Coordination Sequence:
#
# PCOD9000998 Si02
#       7
#     2   2   2   2   2   2   2
#     4   8  17  35  55  77 104 136 176 214 254 311
#     4  10  21  38  58  76 100 137 176 219 270 311
#     4  10  21  33  51  83 109 133 178 221 253 304
#     4   9  18  34  55  78 111 143 168 209 257 307
#     4   9  17  33  54  74 104 147 174 201 259 311
#     4   9  19  32  49  78 114 142 172 209 249 308
#     4   9  19  35  55  76 102 137 175 217 260 307
#
# _framework density 22.283978999999999
#
# number of rings (size 3 to 8) (size 9 to 14) (size 15 to 20)
#    0.000    2.857    0.000    0.000    0.000    9.714 
#    0.000   25.000    0.000    8.571    0.000    0.000 
#    0.000    0.000    0.000    0.000    0.000    0.000 
#
# Total GULP energy -77965.813969 kJ/mol
# GULP energy per Si atom -5568.986712 kJ/mol
# Density = 2.223326 g / cm^3
# Si number density = 22.283979 Si / 1000 Ang^3
#
#
#
# Elastic Constant Matrix: (Units=GPa)
#
#
# Indices 1 2 3 4 5 6 
#
# 1 80.7581 43.8288 21.3643 -9.8032 3.8564 0.8674
# 2 43.8288 135.6001 51.3978 0.7286 -0.2066 14.1544
# 3 21.3643 51.3978 121.0149 -12.5907 -1.8573 2.6586
# 4 -9.8032 0.7286 -12.5907 43.9908 7.2813 1.3155
# 5 3.8564 -0.2066 -1.8573 7.2813 18.7085 -6.8775
# 6 0.8674 14.1544 2.6586 1.3155 -6.8775 29.8390
#
#
#
# Elastic Compliance Matrix: (Units=1/GPa)
#
#
# Indices 1 2 3 4 5 6 
#
# 1 0.016016 -0.005182 -0.000263 0.004356 -0.004818 0.000714
# 2 -0.005182 0.011026 -0.003908 -0.002318 0.000003 -0.004629
# 3 -0.000263 -0.003908 0.010253 0.002876 0.000231 0.000874
# 4 0.004356 -0.002318 0.002876 0.026687 -0.012230 -0.003279
# 5 -0.004818 0.000003 0.000231 -0.012230 0.064974 0.015633
# 6 0.000714 -0.004629 0.000874 -0.003279 0.015633 0.039358
#
#
# Mechanical properties :
#
#
# Convention : Reuss Voigt Hill
#
# Bulk Modulus (GPa) = 53.79322 63.39498 58.59410
# Shear Modulus (GPa) = 25.87769 33.22647 29.55208
#
# Velocity S-wave (km/s) = 3.41144 3.86560 3.64560
# Velocity P-wave (km/s) = 6.30154 6.95947 6.63866
#
# Compressibility (1/GPa) = 0.01858970
#
# Stress axis : x y z
#
# Youngs Moduli (GPa) = 62.43827 90.69099 97.53089
#
# Poissons Ratio (x) = 0.46998 0.02564
# Poissons Ratio (y) = 0.32357 0.38112
# Poissons Ratio (z) = 0.01642 0.35440
#
# Static dielectric constant tensor:
#      x y z
#    x 1.896390 -0.028280 -0.008800 
#    y -0.028280 1.798570 -0.037100 
#    z -0.008800 -0.037100 1.887470 
# 
# From -- ./inp_files/128440.got.cif
#   From: 2010.05.17/outbox.cif.g08.bks.cpg/sg2_65_cif.got.tgz:128440.got - 2010.06.03 11:33:40.
