data_PCOD9000791
_publ_section_title
;
Structure prediction by ZEFSAII (Michael W. Deem and Ramdas Pophale) SiO2 
 PCOD9000791
Probable space group: P 1
;
_chemical_formula_sum "Si O2"
_cell_formula_units_Z 6
_cell_length_a 11.888489
_cell_length_b 5.266809
_cell_length_c 10.862458
_cell_angle_alpha 105.767544
_cell_angle_beta 26.418274
_cell_angle_gamma 91.670312
_cell_volume 252.160862
_symmetry_space_group_name_H-M "P 1"
_symmetry_group_IT_number 1
_symmetry_cell_setting 'triclinic'
loop_
_space_group_symop_operation_xyz
x,y,z
loop_
_atom_site_type_symbol
_atom_site_label
_atom_site_fract_x
_atom_site_fract_y
_atom_site_fract_z
Si Si1 0.138500 0.645850 0.547390
Si Si2 0.469108 0.984022 0.210393
Si Si3 0.706974 0.591001 0.400259
Si Si4 0.245388 0.483529 0.691599
Si Si5 0.820917 0.428712 0.537372
Si Si6 0.490283 0.090538 0.874396
O O1 0.268363 0.832091 0.378448
O O2 0.137715 0.693844 0.702318
O O3 0.355762 0.283438 0.276233
O O4 0.811629 0.750357 0.842456
O O5 0.402616 0.147118 0.432501
O O6 0.473094 0.538544 0.551004
O O7 0.820902 0.380581 0.383245
O O8 0.555910 0.927357 0.653165
O O9 0.973982 0.536062 0.046139
O O10 0.603488 0.791092 0.808683
O O11 0.691315 0.242140 0.706005
O O12 0.147744 0.324456 0.242349
#
# Coordination Sequence:
#
# PCOD9000791 Si02
#       6
#     1   1   1   1   1   1
#     4  10  20  31  39  48  57  66  75  84  93 102
#     4  10  20  31  39  48  57  66  75  84  93 102
#     4  10  20  28  38  46  56  64  74  82  92 100
#     4  10  20  28  38  46  56  64  74  82  92 100
#     4  10  20  31  39  48  57  66  75  84  93 102
#     4  10  20  31  39  48  57  66  75  84  93 102
#
# _framework density 23.794335
#
# number of rings (size 3 to 8) (size 9 to 14) (size 15 to 20)
#    2.000    0.000    0.000    6.000    0.000    8.000 
#    0.000    0.000    0.000    0.000    0.000    0.000 
#    0.000    0.000    0.000    0.000    0.000    0.000 
#
# Total GULP energy -33561.913600 kJ/mol
# GULP energy per Si atom -5593.652267 kJ/mol
# Density = 2.374018 g / cm^3
# Si number density = 23.794335 Si / 1000 Ang^3
#
#
#
# Elastic Constant Matrix: (Units=GPa)
#
#
# Indices 1 2 3 4 5 6 
#
# 1 98.7838 -17.1181 20.1452 -12.0165 -4.6938 -13.2755
# 2 -17.1181 108.5185 32.0644 -16.1580 -6.4684 -0.1209
# 3 20.1452 32.0644 140.0241 -4.0366 -18.0360 3.8980
# 4 -12.0165 -16.1580 -4.0366 56.8602 3.2327 1.3699
# 5 -4.6938 -6.4684 -18.0360 3.2327 45.7413 -0.0387
# 6 -13.2755 -0.1209 3.8980 1.3699 -0.0387 36.9260
#
#
#
# Elastic Compliance Matrix: (Units=1/GPa)
#
#
# Indices 1 2 3 4 5 6 
#
# 1 0.012185 0.003150 -0.002443 0.003158 0.000513 0.004532
# 2 0.003150 0.011122 -0.002868 0.003561 0.000514 0.001340
# 3 -0.002443 -0.002868 0.008531 -0.000841 0.002765 -0.001754
# 4 0.003158 0.003561 -0.000841 0.019243 -0.000863 0.000521
# 5 0.000513 0.000514 0.002765 -0.000863 0.023139 -0.000050
# 6 0.004532 0.001340 -0.001754 0.000521 -0.000050 0.028881
#
#
# Mechanical properties :
#
#
# Convention : Reuss Voigt Hill
#
# Bulk Modulus (GPa) = 36.34530 46.38994 41.36762
# Shear Modulus (GPa) = 42.88336 48.72114 45.80225
#
# Velocity S-wave (km/s) = 4.24990 4.52994 4.39215
# Velocity P-wave (km/s) = 6.27615 6.84829 6.56845
#
# Compressibility (1/GPa) = 0.02751388
#
# Stress axis : x y z
#
# Youngs Moduli (GPa) = 82.06867 89.91339 117.22261
#
# Poissons Ratio (x) = -0.28322 0.28642
# Poissons Ratio (y) = -0.25851 0.33624
# Poissons Ratio (z) = 0.20053 0.25791
#
# Static dielectric constant tensor:
#      x y z
#    x 1.942150 -0.005830 0.148690 
#    y -0.005830 1.858260 0.053590 
#    z 0.148690 0.053590 1.882520 
# 
# From -- ./inp_files/2813.got.cif
#   From: 2010.05.17/outbox.cif.g08.bks.cpg/sg1_2_cif.got.tgz:2813.got - 2010.05.17 20:27:59.
