data_PCOD9000174
_publ_section_title
;
Structure prediction by ZEFSAII (Michael W. Deem and Ramdas Pophale) SiO2 
 PCOD9000174
Probable space group: P 1
;
_chemical_formula_sum "Si O2"
_cell_formula_units_Z 8
_cell_length_a 15.031735
_cell_length_b 14.500498
_cell_length_c 11.176878
_cell_angle_alpha 148.131185
_cell_angle_beta 152.146604
_cell_angle_gamma 20.077097
_cell_volume 388.026815
_symmetry_space_group_name_H-M "P 1"
_symmetry_group_IT_number 1
_symmetry_cell_setting 'triclinic'
loop_
_space_group_symop_operation_xyz
x,y,z
loop_
_atom_site_type_symbol
_atom_site_label
_atom_site_fract_x
_atom_site_fract_y
_atom_site_fract_z
Si Si1 0.018460 0.567770 0.600610
Si Si2 0.432927 0.468998 0.805853
Si Si3 0.570444 0.743895 0.603908
Si Si4 0.717509 0.665546 0.961558
Si Si5 0.530082 0.722615 0.050809
Si Si6 0.888262 0.200831 0.264087
Si Si7 0.389126 0.166889 0.264190
Si Si8 0.630676 0.033467 0.850168
O O1 0.161591 0.599351 0.709790
O O2 0.291012 0.298149 0.701067
O O3 0.833318 0.554630 0.294329
O O4 0.800553 0.820933 0.708880
O O5 0.488324 0.271103 0.563010
O O6 0.372309 0.684579 0.895649
O O7 0.707843 0.303443 0.039647
O O8 0.583803 0.712202 0.726988
O O9 0.789130 0.454264 0.481688
O O10 0.652577 0.884464 0.821306
O O11 0.238365 0.942694 0.382164
O O12 0.601421 0.628373 0.893329
O O13 0.068710 0.413839 0.098661
O O14 0.612953 0.930550 0.173153
O O15 0.370139 0.022086 0.179013
O O16 0.775162 0.123218 0.130167
#
# Coordination Sequence:
#
# PCOD9000174 Si02
#       8
#     1   1   1   1   1   1   1   1
#     4  11  22  40  65  99 135 153 216 265 314 399
#     4  11  21  43  68 100 128 164 204 273 331 369
#     4  12  24  47  64  91 134 172 213 259 312 376
#     4  10  24  45  63  90 133 170 215 259 299 385
#     4  10  22  41  64  96 126 173 200 262 326 364
#     4  11  25  40  67  99 125 165 216 264 314 386
#     4  10  22  44  60  97 130 160 216 262 304 385
#     4  11  24  42  65  96 127 173 204 266 326 362
#
# _framework density 20.617131000000001
#
# number of rings (size 3 to 8) (size 9 to 14) (size 15 to 20)
#    0.750    0.500    1.250    6.000    0.000    1.000 
#   15.750    0.000    0.000    0.000    0.000    0.000 
#    0.000    0.000    0.000    0.000    0.000    0.000 
#
# Total GULP energy -44698.697637 kJ/mol
# GULP energy per Si atom -5587.337205 kJ/mol
# Density = 2.057021 g / cm^3
# Si number density = 20.617131 Si / 1000 Ang^3
#
#
#
# Elastic Constant Matrix: (Units=GPa)
#
#
# Indices 1 2 3 4 5 6 
#
# 1 53.0567 -9.8491 16.9721 1.7657 23.5584 9.7313
# 2 -9.8491 76.8359 1.1537 11.6322 6.0920 -9.1819
# 3 16.9721 1.1537 49.4676 9.2904 10.3758 11.7783
# 4 1.7657 11.6322 9.2904 23.2188 2.3913 3.2387
# 5 23.5584 6.0920 10.3758 2.3913 26.6232 9.4844
# 6 9.7313 -9.1819 11.7783 3.2387 9.4844 15.2353
#
#
#
# Elastic Compliance Matrix: (Units=1/GPa)
#
#
# Indices 1 2 3 4 5 6 
#
# 1 0.036731 0.009146 -0.007454 -0.002191 -0.035103 0.010131
# 2 0.009146 0.019986 -0.003034 -0.010706 -0.018476 0.022327
# 3 -0.007454 -0.003034 0.027974 -0.006765 0.004038 -0.019770
# 4 -0.002191 -0.010706 -0.006765 0.052715 0.007991 -0.016004
# 5 -0.035103 -0.018476 0.004038 0.007991 0.087708 -0.048135
# 6 0.010131 0.022327 -0.019770 -0.016004 -0.048135 0.121273
#
#
# Mechanical properties :
#
#
# Convention : Reuss Voigt Hill
#
# Bulk Modulus (GPa) = 12.19397 21.76819 16.98108
# Shear Modulus (GPa) = 13.28349 24.42100 18.85225
#
# Velocity S-wave (km/s) = 2.54105 3.44539 3.02718
# Velocity P-wave (km/s) = 3.81268 5.13895 4.52468
#
# Compressibility (1/GPa) = 0.08200778
#
# Stress axis : x y z
#
# Youngs Moduli (GPa) = 27.22478 50.03418 35.74733
#
# Poissons Ratio (x) = -0.45760 0.26645
# Poissons Ratio (y) = -0.24899 0.10846
# Poissons Ratio (z) = 0.20292 0.15181
#
# Static dielectric constant tensor:
#      x y z
#    x 1.747990 0.010470 0.015880 
#    y 0.010470 1.730230 0.013620 
#    z 0.015880 0.013620 1.708400 
# 
# From -- ./inp_files/6855.got.cif
#   From: 2010.05.17/outbox.cif.g08.bks.cpg/sg1_4_cif.got.tgz:6855.got - 2010.05.17 20:27:59.
