data_PCOD9000076
_publ_section_title
;
Structure prediction by ZEFSAII (Michael W. Deem and Ramdas Pophale) SiO2 
 PCOD9000076
Probable space group: P 1
;
_chemical_formula_sum "Si O2"
_cell_formula_units_Z 8
_cell_length_a 11.648075
_cell_length_b 5.147488
_cell_length_c 10.699945
_cell_angle_alpha 72.322419
_cell_angle_beta 149.071151
_cell_angle_gamma 117.026036
_cell_volume 288.489002
_symmetry_space_group_name_H-M "P 1"
_symmetry_group_IT_number 1
_symmetry_cell_setting 'triclinic'
loop_
_space_group_symop_operation_xyz
x,y,z
loop_
_atom_site_type_symbol
_atom_site_label
_atom_site_fract_x
_atom_site_fract_y
_atom_site_fract_z
Si Si1 0.434880 0.381670 0.252730
Si Si2 0.000073 0.418078 0.251427
Si Si3 0.833993 0.912054 0.655626
Si Si4 0.093188 0.563321 0.055017
Si Si5 0.940723 0.158186 0.480587
Si Si6 0.435372 0.181211 0.000141
Si Si7 0.683874 0.750672 0.982681
Si Si8 0.566460 0.025648 0.612112
O O1 0.705438 0.641262 0.479892
O O2 0.426402 0.237709 0.131372
O O3 0.409054 0.192682 0.384765
O O4 0.246579 0.530351 0.086152
O O5 0.051271 0.427481 0.446135
O O6 0.175281 0.551072 0.276866
O O7 0.815071 0.584002 0.044371
O O8 0.880906 0.059136 0.175070
O O9 0.030174 0.846000 0.928190
O O10 0.928538 0.196557 0.613535
O O11 0.628555 0.892505 0.563706
O O12 0.834278 0.285341 0.851574
O O13 0.645087 0.052438 0.190372
O O14 0.159858 0.031368 0.707394
O O15 0.548500 0.507463 0.994643
O O16 0.516243 0.849149 0.719897
#
# Coordination Sequence:
#
# PCOD9000076 Si02
#       8
#     1   1   1   1   1   1   1   1
#     4  11  24  40  67 104 137 185 241 300 362 430
#     4  10  22  47  71 106 141 192 240 298 361 432
#     4  11  22  40  68 100 137 184 238 296 361 431
#     4  10  23  41  67 100 139 185 238 298 362 430
#     4  11  25  46  73 103 142 190 242 298 362 432
#     4  11  25  47  71 104 142 190 242 299 361 432
#     4  10  22  46  74 102 146 187 242 297 362 432
#     4  10  21  43  65  97 140 181 237 294 361 431
#
# _framework density 27.730692000000001
#
# number of rings (size 3 to 8) (size 9 to 14) (size 15 to 20)
#    0.000    1.500    2.500    1.500    3.500    2.000 
#   13.500    0.000    0.000    0.000    0.000    0.000 
#    0.000    0.000    0.000    0.000    0.000    0.000 
#
# Total GULP energy -44622.577344 kJ/mol
# GULP energy per Si atom -5577.822168 kJ/mol
# Density = 2.766758 g / cm^3
# Si number density = 27.730692 Si / 1000 Ang^3
#
#
#
# Elastic Constant Matrix: (Units=GPa)
#
#
# Indices 1 2 3 4 5 6 
#
# 1 182.1698 44.4794 28.5899 -10.2165 -1.7815 42.4026
# 2 44.4794 88.6029 9.1949 -10.7169 -7.6459 13.6865
# 3 28.5899 9.1949 139.5514 -14.4031 1.7000 9.0092
# 4 -10.2165 -10.7169 -14.4031 35.6505 8.9618 -5.5165
# 5 -1.7815 -7.6459 1.7000 8.9618 54.7504 -14.3752
# 6 42.4026 13.6865 9.0092 -5.5165 -14.3752 55.4690
#
#
#
# Elastic Compliance Matrix: (Units=1/GPa)
#
#
# Indices 1 2 3 4 5 6 
#
# 1 0.007612 -0.002985 -0.000951 0.000485 -0.001610 -0.005297
# 2 -0.002985 0.013285 0.000036 0.002789 0.001191 -0.000416
# 3 -0.000951 0.000036 0.007709 0.003002 -0.000878 -0.000463
# 4 0.000485 0.002789 0.003002 0.031489 -0.004749 0.000354
# 5 -0.001610 0.001191 -0.000878 -0.004749 0.020755 0.005986
# 6 -0.005297 -0.000416 -0.000463 0.000354 0.005986 0.023841
#
#
# Mechanical properties :
#
#
# Convention : Reuss Voigt Hill
#
# Bulk Modulus (GPa) = 48.06077 63.87249 55.96663
# Shear Modulus (GPa) = 41.86717 51.04465 46.45591
#
# Velocity S-wave (km/s) = 3.88980 4.29502 4.09743
# Velocity P-wave (km/s) = 6.12723 6.90503 6.52773
#
# Compressibility (1/GPa) = 0.02080699
#
# Stress axis : x y z
#
# Youngs Moduli (GPa) = 131.37660 75.27133 129.72373
#
# Poissons Ratio (x) = 0.22465 0.12339
# Poissons Ratio (y) = 0.39209 -0.00471
# Poissons Ratio (z) = 0.12496 -0.00273
#
# Static dielectric constant tensor:
#      x y z
#    x 2.101860 0.017860 -0.011880 
#    y 0.017860 2.243350 0.133000 
#    z -0.011880 0.133000 2.327030 
# 
# From -- ./inp_files/338.got.cif
#   From: 2010.05.17/outbox.cif.g08.bks.cpg/sg1_1_cif.got.tgz:338.got - 2010.05.17 20:27:59.
