data_PCOD9000480
_publ_section_title
;
Structure prediction by ZEFSAII (Michael W. Deem and Ramdas Pophale) SiO2 
 PCOD9000480
Probable space group: P 1
;
_chemical_formula_sum "Si O2"
_cell_formula_units_Z 8
_cell_length_a 12.116084
_cell_length_b 5.308049
_cell_length_c 4.774643
_cell_angle_alpha 86.703297
_cell_angle_beta 84.651660
_cell_angle_gamma 73.052896
_cell_volume 292.308540
_symmetry_space_group_name_H-M "P 1"
_symmetry_group_IT_number 1
_symmetry_cell_setting 'triclinic'
loop_
_space_group_symop_operation_xyz
x,y,z
loop_
_atom_site_type_symbol
_atom_site_label
_atom_site_fract_x
_atom_site_fract_y
_atom_site_fract_z
Si Si1 0.858010 0.608810 0.417380
Si Si2 0.565168 0.191037 0.953793
Si Si3 0.638484 0.645893 0.840372
Si Si4 0.309273 0.420520 0.986863
Si Si5 0.980204 0.719062 0.898908
Si Si6 0.431601 0.985873 0.597627
Si Si7 0.251218 0.791250 0.447322
Si Si8 0.042032 0.170365 0.173706
O O1 0.946249 0.706584 0.588190
O O2 0.740326 0.649199 0.605931
O O3 0.864367 0.738986 0.108184
O O4 0.922312 0.302384 0.358878
O O5 0.612227 0.886366 0.050257
O O6 0.440246 0.339793 0.094083
O O7 0.526946 0.145068 0.640040
O O8 0.654601 0.354767 0.968201
O O9 0.514551 0.708753 0.708374
O O10 0.326206 0.160636 0.807477
O O11 0.241209 0.551584 0.268445
O O12 0.273134 0.659354 0.756021
O O13 0.059421 0.427121 0.991778
O O14 0.025993 0.956360 0.970614
O O15 0.362287 0.902839 0.367235
O O16 0.142036 0.030379 0.372591
#
# Coordination Sequence:
#
# PCOD9000480 Si02
#       8
#     1   1   1   1   1   1   1   1
#     4  10  25  46  69  95 135 170 219 276 322 388
#     4   8  18  40  59  97 127 167 212 261 318 390
#     4   9  18  38  67  93 128 169 213 262 329 379
#     4   9  23  38  61  91 132 168 211 261 316 384
#     4  10  26  44  65  97 131 172 221 271 321 383
#     4   8  20  40  61  97 127 169 211 262 321 390
#     4  12  22  41  65  93 132 173 210 267 322 386
#     4  10  28  41  71  97 132 172 225 264 329 386
#
# _framework density 27.368345000000001
#
# number of rings (size 3 to 8) (size 9 to 14) (size 15 to 20)
#    2.250    0.000    1.250    0.000    7.000    2.000 
#    2.250    3.750    0.000    0.000    0.000    0.000 
#    0.000    0.000    0.000    0.000    0.000    0.000 
#
# Total GULP energy -44588.174927 kJ/mol
# GULP energy per Si atom -5573.521866 kJ/mol
# Density = 2.730605 g / cm^3
# Si number density = 27.368345 Si / 1000 Ang^3
#
#
#
# Elastic Constant Matrix: (Units=GPa)
#
#
# Indices 1 2 3 4 5 6 
#
# 1 78.4133 51.4740 10.6224 8.7950 6.3195 -6.7719
# 2 51.4740 154.1660 34.4778 28.0943 14.8653 19.1977
# 3 10.6224 34.4778 94.1500 -2.5915 15.0956 -3.2352
# 4 8.7950 28.0943 -2.5915 36.5635 -1.9403 2.6431
# 5 6.3195 14.8653 15.0956 -1.9403 31.6744 -2.5117
# 6 -6.7719 19.1977 -3.2352 2.6431 -2.5117 49.2019
#
#
#
# Elastic Compliance Matrix: (Units=1/GPa)
#
#
# Indices 1 2 3 4 5 6 
#
# 1 0.017434 -0.006696 0.000713 0.000627 -0.000240 0.005013
# 2 -0.006696 0.011901 -0.003438 -0.007562 -0.003515 -0.005564
# 3 0.000713 -0.003438 0.012623 0.003005 -0.004210 0.001893
# 4 0.000627 -0.007562 0.003005 0.033323 0.004164 0.001657
# 5 -0.000240 -0.003515 -0.004210 0.004164 0.035742 0.002663
# 6 0.005013 -0.005564 0.001893 0.001657 0.002663 0.023357
#
#
# Mechanical properties :
#
#
# Convention : Reuss Voigt Hill
#
# Bulk Modulus (GPa) = 43.26150 57.76419 50.51285
# Shear Modulus (GPa) = 31.07002 38.83162 34.95082
#
# Velocity S-wave (km/s) = 3.37301 3.77085 3.57746
# Velocity P-wave (km/s) = 5.56875 6.33333 5.96331
#
# Compressibility (1/GPa) = 0.02311524
#
# Stress axis : x y z
#
# Youngs Moduli (GPa) = 57.36031 84.02681 79.22113
#
# Poissons Ratio (x) = 0.56261 -0.05648
# Poissons Ratio (y) = 0.38406 0.27240
# Poissons Ratio (z) = -0.04090 0.28892
#
# Static dielectric constant tensor:
#      x y z
#    x 2.195480 0.033620 -0.107590 
#    y 0.033620 2.159300 -0.074850 
#    z -0.107590 -0.074850 2.119850 
# 
# From -- ./inp_files/648.got.cif
#   From: 2010.05.17/outbox.cif.g08.bks.cpg/sg1_1_cif.got.tgz:648.got - 2010.05.17 20:27:59.
