data_PCOD9000640
_publ_section_title
;
Structure prediction by ZEFSAII (Michael W. Deem and Ramdas Pophale) SiO2 
 PCOD9000640
Probable space group: P 1
;
_chemical_formula_sum "Si O2"
_cell_formula_units_Z 8
_cell_length_a 10.328621
_cell_length_b 8.722477
_cell_length_c 8.722480
_cell_angle_alpha 148.459715
_cell_angle_beta 112.813718
_cell_angle_gamma 59.169983
_cell_volume 350.863109
_symmetry_space_group_name_H-M "P 1"
_symmetry_group_IT_number 1
_symmetry_cell_setting 'triclinic'
loop_
_space_group_symop_operation_xyz
x,y,z
loop_
_atom_site_type_symbol
_atom_site_label
_atom_site_fract_x
_atom_site_fract_y
_atom_site_fract_z
Si Si1 0.381950 0.659400 0.523060
Si Si2 0.042354 0.737795 0.093562
Si Si3 0.430618 0.031474 0.411623
Si Si4 0.100533 0.189629 0.284975
Si Si5 0.372439 0.281066 0.921636
Si Si6 0.558687 0.516355 0.785982
Si Si7 0.914285 0.240222 0.706510
Si Si8 0.091022 0.800565 0.672821
O O1 0.491383 0.663490 0.716067
O O2 0.236487 0.595606 0.463565
O O3 0.315530 0.019667 0.742194
O O4 0.449116 0.418274 0.206651
O O5 0.009330 0.011837 0.184788
O O6 0.224540 0.583493 0.062841
O O7 0.958225 0.915790 0.357259
O O8 0.987699 0.446145 0.816182
O O9 0.248431 0.182933 0.439503
O O10 0.463641 0.089678 0.652642
O O11 0.514746 0.211045 0.505491
O O12 0.485274 0.699439 0.065319
O O13 0.023856 0.551323 0.498862
O O14 0.157441 0.953282 0.966670
O O15 0.736486 0.429689 0.797647
O O16 0.981589 0.103004 0.786342
#
# Coordination Sequence:
#
# PCOD9000640 Si02
#       8
#     1   1   1   1   1   1   1   1
#     4  12  22  42  68 105 134 171 235 282 334 398
#     4  12  23  43  67 103 138 174 229 282 348 399
#     4  12  23  43  67 103 138 174 229 282 348 399
#     4  12  23  40  71 104 133 172 227 298 335 387
#     4  12  23  40  71 104 133 172 227 298 335 387
#     4  12  26  44  68  99 141 186 223 274 344 421
#     4  12  26  44  68  99 141 186 223 274 344 421
#     4  12  22  42  68 105 134 171 235 282 334 398
#
# _framework density 22.800913000000001
#
# number of rings (size 3 to 8) (size 9 to 14) (size 15 to 20)
#    0.000    0.000    5.000    7.500    0.000    0.000 
#    0.000    5.000    0.000    3.000    0.000    0.000 
#    0.000    0.000    0.000    0.000    0.000    0.000 
#
# Total GULP energy -44650.843945 kJ/mol
# GULP energy per Si atom -5581.355493 kJ/mol
# Density = 2.274902 g / cm^3
# Si number density = 22.800913 Si / 1000 Ang^3
#
#
#
# Elastic Constant Matrix: (Units=GPa)
#
#
# Indices 1 2 3 4 5 6 
#
# 1 67.8333 44.9347 -0.3290 9.2617 3.3215 -1.9029
# 2 44.9347 101.1433 32.2451 1.9886 6.3080 9.4526
# 3 -0.3290 32.2451 117.1096 -18.9998 -2.0751 4.4470
# 4 9.2617 1.9886 -18.9998 40.5542 24.3728 9.8325
# 5 3.3215 6.3080 -2.0751 24.3728 34.7007 12.8871
# 6 -1.9029 9.4526 4.4470 9.8325 12.8871 28.1782
#
#
#
# Elastic Compliance Matrix: (Units=1/GPa)
#
#
# Indices 1 2 3 4 5 6 
#
# 1 0.023502 -0.011689 0.001959 -0.006917 0.002437 0.006498
# 2 -0.011689 0.017010 -0.004146 0.002321 -0.001664 -0.005890
# 3 0.001959 -0.004146 0.010826 0.007130 -0.003375 -0.001130
# 4 -0.006917 0.002321 0.007130 0.050458 -0.032951 -0.004908
# 5 0.002437 -0.001664 -0.003375 -0.032951 0.056728 -0.013191
# 6 0.006498 -0.005890 -0.001130 -0.004908 -0.013191 0.045827
#
#
# Mechanical properties :
#
#
# Convention : Reuss Voigt Hill
#
# Bulk Modulus (GPa) = 42.39729 48.86532 45.63130
# Shear Modulus (GPa) = 20.83639 34.63564 27.73602
#
# Velocity S-wave (km/s) = 3.02626 3.90172 3.49154
# Velocity P-wave (km/s) = 5.55391 6.46342 6.02585
#
# Compressibility (1/GPa) = 0.02358641
#
# Stress axis : x y z
#
# Youngs Moduli (GPa) = 42.54978 58.78810 92.37115
#
# Poissons Ratio (x) = 0.68717 -0.18093
# Poissons Ratio (y) = 0.49736 0.38294
# Poissons Ratio (z) = -0.08334 0.24371
#
# Static dielectric constant tensor:
#      x y z
#    x 1.804120 0.086510 -0.006460 
#    y 0.086510 1.979870 -0.045920 
#    z -0.006460 -0.045920 1.843400 
# 
# From -- ./inp_files/4927.got.cif
#   From: 2010.05.17/outbox.cif.g08.bks.cpg/sg1_3_cif.got.tgz:4927.got - 2010.05.17 20:27:59.
