data_PCOD9000030
_publ_section_title
;
Structure prediction by ZEFSAII (Michael W. Deem and Ramdas Pophale) SiO2 
 PCOD9000030
Probable space group: P 1
;
_chemical_formula_sum "Si O2"
_cell_formula_units_Z 8
_cell_length_a 9.904505
_cell_length_b 4.983776
_cell_length_c 13.485508
_cell_angle_alpha 67.500618
_cell_angle_beta 149.308491
_cell_angle_gamma 108.417173
_cell_volume 313.784227
_symmetry_space_group_name_H-M "P 1"
_symmetry_group_IT_number 1
_symmetry_cell_setting 'triclinic'
loop_
_space_group_symop_operation_xyz
x,y,z
loop_
_atom_site_type_symbol
_atom_site_label
_atom_site_fract_x
_atom_site_fract_y
_atom_site_fract_z
Si Si1 0.765520 0.287020 0.352500
Si Si2 0.710339 0.516112 0.073886
Si Si3 0.300122 0.011891 0.190922
Si Si4 0.469830 0.287109 0.644189
Si Si5 0.813058 0.743551 0.572319
Si Si6 0.851137 0.128418 0.735585
Si Si7 0.930439 0.126325 0.112957
Si Si8 0.240209 0.681353 0.603642
O O1 0.686882 0.318412 0.183628
O O2 0.492459 0.269841 0.243083
O O3 0.915318 0.990501 0.527367
O O4 0.955564 0.548562 0.458588
O O5 0.932564 0.371789 0.162534
O O6 0.801422 0.836441 0.115117
O O7 0.448187 0.552937 0.835124
O O8 0.502184 0.738699 0.349747
O O9 0.190838 0.052865 0.225911
O O10 0.061913 0.000319 0.965186
O O11 0.596793 0.241159 0.622761
O O12 0.334049 0.568865 0.568794
O O13 0.274521 0.023529 0.575701
O O14 0.724122 0.236625 0.883150
O O15 0.816947 0.891113 0.662772
O O16 0.945946 0.427925 0.703499
#
# Coordination Sequence:
#
# PCOD9000030 Si02
#       8
#     1   1   1   1   1   1   1   1
#     4  10  25  44  63 103 130 178 217 271 328 403
#     4  10  22  41  67  91 129 177 213 271 333 380
#     4   9  24  46  67 103 133 172 224 280 325 402
#     4   9  20  38  68  93 126 172 218 270 327 388
#     4  10  26  40  65 101 130 176 221 265 332 397
#     4  11  22  46  68  97 133 177 218 279 335 377
#     4   9  20  42  66  95 126 170 223 270 326 388
#     4  10  21  41  62  95 131 166 220 270 322 401
#
# _framework density 25.495224
#
# number of rings (size 3 to 8) (size 9 to 14) (size 15 to 20)
#    0.750    1.500    0.000    0.750    1.750   11.000 
#    4.500    0.000    0.000    0.000    0.000    0.000 
#    0.000    0.000    0.000    0.000    0.000    0.000 
#
# Total GULP energy -44762.095807 kJ/mol
# GULP energy per Si atom -5595.261976 kJ/mol
# Density = 2.543720 g / cm^3
# Si number density = 25.495224 Si / 1000 Ang^3
#
#
#
# Elastic Constant Matrix: (Units=GPa)
#
#
# Indices 1 2 3 4 5 6 
#
# 1 82.9371 28.0843 22.5909 7.3328 -10.6951 14.5250
# 2 28.0843 58.6897 10.9101 8.4809 -19.7565 -15.5598
# 3 22.5909 10.9101 114.6813 -2.6394 -26.3015 -0.5933
# 4 7.3328 8.4809 -2.6394 25.5716 11.8198 -1.8399
# 5 -10.6951 -19.7565 -26.3015 11.8198 30.7945 2.1421
# 6 14.5250 -15.5598 -0.5933 -1.8399 2.1421 43.8624
#
#
#
# Elastic Compliance Matrix: (Units=1/GPa)
#
#
# Indices 1 2 3 4 5 6 
#
# 1 0.018425 -0.011590 -0.003194 -0.001325 -0.002548 -0.010187
# 2 -0.011590 0.041799 0.006271 -0.025835 0.036960 0.015862
# 3 -0.003194 0.006271 0.012258 -0.007096 0.015941 0.002372
# 4 -0.001325 -0.025835 -0.007096 0.070068 -0.049749 -0.003453
# 5 -0.002548 0.036960 0.015941 -0.049749 0.087468 0.007812
# 6 -0.010187 0.015862 0.002372 -0.003453 0.007812 0.031305
#
#
# Mechanical properties :
#
#
# Convention : Reuss Voigt Hill
#
# Bulk Modulus (GPa) = 18.03293 42.16431 30.09862
# Shear Modulus (GPa) = 16.84443 33.02723 24.93583
#
# Velocity S-wave (km/s) = 2.57318 3.60311 3.13079
# Velocity P-wave (km/s) = 3.98958 5.82099 4.99002
#
# Compressibility (1/GPa) = 0.05545410
#
# Stress axis : x y z
#
# Youngs Moduli (GPa) = 54.27515 23.92388 81.58236
#
# Poissons Ratio (x) = 0.27727 0.26061
# Poissons Ratio (y) = 0.62904 -0.51156
# Poissons Ratio (z) = 0.17338 -0.15002
#
# Static dielectric constant tensor:
#      x y z
#    x 2.070630 0.024500 0.001340 
#    y 0.024500 1.954240 -0.019040 
#    z 0.001340 -0.019040 2.007370 
# 
# From -- ./inp_files/7213.got.cif
#   From: 2010.05.17/outbox.cif.g08.bks.cpg/sg1_4_cif.got.tgz:7213.got - 2010.05.17 20:27:59.
