data_PCOD9000402
_publ_section_title
;
Structure prediction by ZEFSAII (Michael W. Deem and Ramdas Pophale) SiO2 
 PCOD9000402
Probable space group: P 1
;
_chemical_formula_sum "Si O2"
_cell_formula_units_Z 8
_cell_length_a 10.669055
_cell_length_b 10.076433
_cell_length_c 5.437945
_cell_angle_alpha 86.979112
_cell_angle_beta 81.016795
_cell_angle_gamma 32.180788
_cell_volume 304.012511
_symmetry_space_group_name_H-M "P 1"
_symmetry_group_IT_number 1
_symmetry_cell_setting 'triclinic'
loop_
_space_group_symop_operation_xyz
x,y,z
loop_
_atom_site_type_symbol
_atom_site_label
_atom_site_fract_x
_atom_site_fract_y
_atom_site_fract_z
Si Si1 0.199410 0.243840 0.479510
Si Si2 0.531096 0.697626 0.436289
Si Si3 0.831977 0.290941 0.760545
Si Si4 0.955765 0.394706 0.022011
Si Si5 0.672085 0.988820 0.335944
Si Si6 0.167121 0.785937 0.483778
Si Si7 0.836487 0.872070 0.802727
Si Si8 0.502366 0.367951 0.082831
O O1 0.403350 0.173725 0.399917
O O2 0.084131 0.324486 0.239271
O O3 0.341657 0.980400 0.514345
O O4 0.044573 0.399800 0.760226
O O5 0.717572 0.512133 0.619423
O O6 0.676904 0.623240 0.163434
O O7 0.404183 0.666005 0.462528
O O8 0.966552 0.077906 0.544277
O O9 0.999254 0.202538 0.933110
O O10 0.628559 0.385946 0.942981
O O11 0.803515 0.831764 0.557703
O O12 0.643047 0.173974 0.289835
O O13 0.821619 0.809215 0.069720
O O14 0.063690 0.768979 0.710488
O O15 0.237583 0.640862 0.231928
O O16 0.583817 0.183576 0.878157
#
# Coordination Sequence:
#
# PCOD9000402 Si02
#       8
#     1   1   1   1   1   1   1   1
#     4  12  28  48  75  98 149 194 238 291 357 405
#     4  12  26  43  73 108 146 190 228 298 358 428
#     4  11  24  44  68 112 148 178 242 294 355 435
#     4  12  25  47  70 109 140 189 243 291 343 437
#     4  10  23  51  68  99 145 183 242 297 335 423
#     4  11  22  42  71 108 141 187 219 298 370 410
#     4   9  23  44  70 104 138 178 238 292 344 429
#     4   9  23  41  71 102 139 185 226 295 354 415
#
# _framework density 26.314703999999999
#
# number of rings (size 3 to 8) (size 9 to 14) (size 15 to 20)
#    0.750    0.500    3.750    0.750    5.250    3.000 
#    4.500    0.000    0.000    0.000    0.000    0.000 
#    0.000    0.000    0.000    0.000    0.000    0.000 
#
# Total GULP energy -44651.837960 kJ/mol
# GULP energy per Si atom -5581.479745 kJ/mol
# Density = 2.625481 g / cm^3
# Si number density = 26.314704 Si / 1000 Ang^3
#
#
#
# Elastic Constant Matrix: (Units=GPa)
#
#
# Indices 1 2 3 4 5 6 
#
# 1 87.4367 22.6108 75.8621 -5.5313 -16.3199 -20.6060
# 2 22.6108 87.4961 79.0006 6.5666 1.7590 10.6372
# 3 75.8621 79.0006 262.6756 12.6405 -18.3703 -11.5619
# 4 -5.5313 6.5666 12.6405 52.0623 -7.0854 -2.8209
# 5 -16.3199 1.7590 -18.3703 -7.0854 53.3863 5.5140
# 6 -20.6060 10.6372 -11.5619 -2.8209 5.5140 32.2833
#
#
#
# Elastic Compliance Matrix: (Units=1/GPa)
#
#
# Indices 1 2 3 4 5 6 
#
# 1 0.019737 -0.003245 -0.004140 0.004716 0.004113 0.011894
# 2 -0.003245 0.018212 -0.005038 -0.002299 -0.002636 -0.009627
# 3 -0.004140 -0.005038 0.006692 -0.001242 0.000920 0.001149
# 4 0.004716 -0.002299 -0.001242 0.021012 0.003406 0.004577
# 5 0.004113 -0.002636 0.000920 0.003406 0.020785 0.000571
# 6 0.011894 -0.009627 0.001149 0.004577 0.000571 0.042453
#
#
# Mechanical properties :
#
#
# Convention : Reuss Voigt Hill
#
# Bulk Modulus (GPa) = 50.51485 88.06173 69.28829
# Shear Modulus (GPa) = 31.18460 44.88870 38.03665
#
# Velocity S-wave (km/s) = 3.44621 4.13466 3.80604
# Velocity P-wave (km/s) = 5.92227 7.50543 6.76035
#
# Compressibility (1/GPa) = 0.01979616
#
# Stress axis : x y z
#
# Youngs Moduli (GPa) = 50.66637 54.90861 149.42463
#
# Poissons Ratio (x) = 0.17818 0.61861
# Poissons Ratio (y) = 0.16442 0.75274
# Poissons Ratio (z) = 0.20975 0.27661
#
# Static dielectric constant tensor:
#      x y z
#    x 2.121670 0.010430 0.015440 
#    y 0.010430 2.058320 0.023500 
#    z 0.015440 0.023500 2.127870 
# 
# From -- ./inp_files/2377.got.cif
#   From: 2010.05.17/outbox.cif.g08.bks.cpg/sg1_2_cif.got.tgz:2377.got - 2010.05.17 20:27:59.
