data_PCOD9000442
_publ_section_title
;
Structure prediction by ZEFSAII (Michael W. Deem and Ramdas Pophale) SiO2 
 PCOD9000442
Probable space group: P 1
;
_chemical_formula_sum "Si O2"
_cell_formula_units_Z 8
_cell_length_a 11.554159
_cell_length_b 7.363640
_cell_length_c 9.531270
_cell_angle_alpha 127.769501
_cell_angle_beta 141.360303
_cell_angle_gamma 38.349940
_cell_volume 314.177341
_symmetry_space_group_name_H-M "P 1"
_symmetry_group_IT_number 1
_symmetry_cell_setting 'triclinic'
loop_
_space_group_symop_operation_xyz
x,y,z
loop_
_atom_site_type_symbol
_atom_site_label
_atom_site_fract_x
_atom_site_fract_y
_atom_site_fract_z
Si Si1 0.690850 0.257660 0.420620
Si Si2 0.216899 0.673202 0.270491
Si Si3 0.816968 0.257447 0.035913
Si Si4 0.050474 0.400079 0.816261
Si Si5 0.314694 0.400586 0.640378
Si Si6 0.875069 0.673598 0.186065
Si Si7 0.424083 0.917223 0.728247
Si Si8 0.939148 0.887325 0.728383
O O1 0.420710 0.537382 0.278746
O O2 0.866897 0.335789 0.630418
O O3 0.778280 0.004665 0.273218
O O4 0.716102 0.099594 0.516818
O O5 0.345085 0.717727 0.534464
O O6 0.130892 0.479519 0.067950
O O7 0.982442 0.004188 0.183136
O O8 0.562694 0.335889 0.826154
O O9 0.949707 0.099637 0.939795
O O10 0.807470 0.537147 0.177832
O O11 0.935463 0.676771 0.732527
O O12 0.280249 0.125189 0.823330
O O13 0.154722 0.480316 0.388704
O O14 0.153243 0.677142 0.724242
O O15 0.359612 0.125683 0.633140
O O16 0.702577 0.717975 0.922108
#
# Coordination Sequence:
#
# PCOD9000442 Si02
#       8
#     1   1   1   1   1   1   1   1
#     4  11  24  47  73 106 152 194 248 311 372 441
#     4  11  24  45  73 112 149 188 254 310 356 467
#     4  11  24  47  73 106 152 194 248 311 372 441
#     4  10  24  47  72 105 151 195 243 310 377 431
#     4  10  24  47  72 105 151 195 243 310 377 431
#     4  11  24  45  73 112 149 188 254 310 356 467
#     4  11  23  46  72 108 150 188 244 304 376 440
#     4   9  23  46  70 104 144 192 248 308 358 444
#
# _framework density 25.463324
#
# number of rings (size 3 to 8) (size 9 to 14) (size 15 to 20)
#    0.000    1.500    2.500    0.750    7.000    1.000 
#    4.500    5.000    0.000    0.000    0.000    0.000 
#    0.000    0.000    0.000    0.000    0.000    0.000 
#
# Total GULP energy -44711.600555 kJ/mol
# GULP energy per Si atom -5588.950069 kJ/mol
# Density = 2.540537 g / cm^3
# Si number density = 25.463324 Si / 1000 Ang^3
#
#
#
# Elastic Constant Matrix: (Units=GPa)
#
#
# Indices 1 2 3 4 5 6 
#
# 1 84.5602 50.5142 68.8335 -0.3658 25.4797 -1.2931
# 2 50.5142 144.3074 66.6264 -2.1626 17.0856 0.2502
# 3 68.8335 66.6264 211.5078 -2.1617 36.9743 -0.5300
# 4 -0.3658 -2.1626 -2.1617 53.6255 -0.2781 14.2949
# 5 25.4797 17.0856 36.9743 -0.2781 56.3180 -1.3070
# 6 -1.2931 0.2502 -0.5300 14.2949 -1.3070 12.0847
#
#
#
# Elastic Compliance Matrix: (Units=1/GPa)
#
#
# Indices 1 2 3 4 5 6 
#
# 1 0.019128 -0.004287 -0.004068 -0.000904 -0.004628 0.002525
# 2 -0.004287 0.009119 -0.001496 0.000680 0.000124 -0.001504
# 3 -0.004068 -0.001496 0.006921 0.000396 -0.002267 -0.000815
# 4 -0.000904 0.000680 0.000396 0.027350 -0.000677 -0.032519
# 5 -0.004628 0.000124 -0.002267 -0.000677 0.021356 0.002514
# 6 0.002525 -0.001504 -0.000815 -0.032519 0.002514 0.121754
#
#
# Mechanical properties :
#
#
# Convention : Reuss Voigt Hill
#
# Bulk Modulus (GPa) = 64.65908 90.25815 77.45861
# Shear Modulus (GPa) = 21.69328 41.36573 31.52950
#
# Velocity S-wave (km/s) = 2.92197 4.03491 3.52267
# Velocity P-wave (km/s) = 6.06894 7.56509 6.85794
#
# Compressibility (1/GPa) = 0.01546573
#
# Stress axis : x y z
#
# Youngs Moduli (GPa) = 52.27938 109.65941 144.47956
#
# Poissons Ratio (x) = 0.47014 0.58780
# Poissons Ratio (y) = 0.22414 0.21611
# Poissons Ratio (z) = 0.21269 0.16402
#
# Static dielectric constant tensor:
#      x y z
#    x 2.106010 0.000990 -0.084030 
#    y 0.000990 2.036750 0.004410 
#    z -0.084030 0.004410 1.969130 
# 
# From -- ./inp_files/1328.got.cif
#   From: 2010.05.17/outbox.cif.g08.bks.cpg/sg1_1_cif.got.tgz:1328.got - 2010.05.17 20:27:59.
