data_PCOD9000332
_publ_section_title
;
Structure prediction by ZEFSAII (Michael W. Deem and Ramdas Pophale) SiO2 
 PCOD9000332
Probable space group: P 1
;
_chemical_formula_sum "Si O2"
_cell_formula_units_Z 8
_cell_length_a 9.366348
_cell_length_b 7.448852
_cell_length_c 8.130236
_cell_angle_alpha 124.354326
_cell_angle_beta 130.568878
_cell_angle_gamma 49.234670
_cell_volume 316.589108
_symmetry_space_group_name_H-M "P 1"
_symmetry_group_IT_number 1
_symmetry_cell_setting 'triclinic'
loop_
_space_group_symop_operation_xyz
x,y,z
loop_
_atom_site_type_symbol
_atom_site_label
_atom_site_fract_x
_atom_site_fract_y
_atom_site_fract_z
Si Si1 0.631870 0.464350 0.895340
Si Si2 0.951432 0.500856 0.367709
Si Si3 0.345269 0.291435 0.751903
Si Si4 0.440042 0.773140 0.448596
Si Si5 0.798685 0.286358 0.423368
Si Si6 0.306737 0.932856 0.055018
Si Si7 0.881654 0.017613 0.647942
Si Si8 0.340308 0.367728 0.144317
O O1 0.546427 0.339111 0.902680
O O2 0.685991 0.271940 0.688831
O O3 0.847851 0.474942 0.108737
O O4 0.452422 0.742388 0.925236
O O5 0.909173 0.317603 0.361105
O O6 0.194177 0.421088 0.549457
O O7 0.836185 0.787805 0.475730
O O8 0.401436 0.010879 0.639445
O O9 0.239710 0.395926 0.902418
O O10 0.680456 0.566384 0.545104
O O11 0.302775 0.631705 0.317846
O O12 0.398289 0.838589 0.256547
O O13 0.948059 0.088068 0.560662
O O14 0.594364 0.236455 0.230368
O O15 0.292250 0.193900 0.135603
O O16 0.075683 0.948605 0.880364
#
# Coordination Sequence:
#
# PCOD9000332 Si02
#       8
#     1   1   1   1   1   1   1   1
#     4  12  25  45  71 105 140 183 234 290 344 417
#     4  12  23  48  70 103 148 180 236 292 345 420
#     4  12  23  43  77 103 138 193 232 283 360 413
#     4  10  23  44  68 100 139 186 228 287 351 402
#     4  10  23  44  66  98 141 182 222 291 346 399
#     4  12  23  49  71 102 147 184 236 288 346 424
#     4  12  27  44  72 106 141 188 232 287 356 412
#     4  10  23  43  69  99 146 180 230 296 340 411
#
# _framework density 25.269348999999998
#
# number of rings (size 3 to 8) (size 9 to 14) (size 15 to 20)
#    0.750    0.000    5.000    3.000    3.500    0.000 
#    0.000    3.750    0.000    0.000    0.000    0.000 
#    0.000    0.000    0.000    0.000    0.000    0.000 
#
# Total GULP energy -44680.337920 kJ/mol
# GULP energy per Si atom -5585.042240 kJ/mol
# Density = 2.521183 g / cm^3
# Si number density = 25.269349 Si / 1000 Ang^3
#
#
#
# Elastic Constant Matrix: (Units=GPa)
#
#
# Indices 1 2 3 4 5 6 
#
# 1 57.1068 26.3818 13.4635 5.2690 9.8444 17.2445
# 2 26.3818 99.6402 38.5768 11.3691 1.6677 25.0081
# 3 13.4635 38.5768 86.8006 13.8608 16.3095 6.1539
# 4 5.2690 11.3691 13.8608 43.7327 8.9011 5.4612
# 5 9.8444 1.6677 16.3095 8.9011 30.4146 1.9369
# 6 17.2445 25.0081 6.1539 5.4612 1.9369 47.9533
#
#
#
# Elastic Compliance Matrix: (Units=1/GPa)
#
#
# Indices 1 2 3 4 5 6 
#
# 1 0.022368 -0.004552 0.000150 0.000524 -0.006875 -0.005471
# 2 -0.004552 0.015159 -0.006284 -0.001708 0.004860 -0.005464
# 3 0.000150 -0.006284 0.015958 -0.002078 -0.007763 0.001726
# 4 0.000524 -0.001708 -0.002078 0.025394 -0.006287 -0.001669
# 5 -0.006875 0.004860 -0.007763 -0.006287 0.040841 0.000001
# 6 -0.005471 -0.005464 0.001726 -0.001669 0.000001 0.025639
#
#
# Mechanical properties :
#
#
# Convention : Reuss Voigt Hill
#
# Bulk Modulus (GPa) = 31.14050 44.48798 37.81424
# Shear Modulus (GPa) = 28.17924 35.42849 31.80386
#
# Velocity S-wave (km/s) = 3.34302 3.74844 3.55152
# Velocity P-wave (km/s) = 5.22027 6.03143 5.64045
#
# Compressibility (1/GPa) = 0.03211252
#
# Stress axis : x y z
#
# Youngs Moduli (GPa) = 44.70768 65.96650 62.66273
#
# Poissons Ratio (x) = 0.30026 -0.00938
# Poissons Ratio (y) = 0.20350 0.39379
# Poissons Ratio (z) = -0.00669 0.41455
#
# Static dielectric constant tensor:
#      x y z
#    x 2.007300 -0.034950 -0.030230 
#    y -0.034950 1.966230 -0.031510 
#    z -0.030230 -0.031510 2.048420 
# 
# From -- ./inp_files/5435.got.cif
#   From: 2010.05.17/outbox.cif.g08.bks.cpg/sg1_3_cif.got.tgz:5435.got - 2010.05.17 20:27:59.
