data_PCOD9000098
_publ_section_title
;
Structure prediction by ZEFSAII (Michael W. Deem and Ramdas Pophale) SiO2 
 PCOD9000098
Probable space group: P 1
;
_chemical_formula_sum "Si O2"
_cell_formula_units_Z 8
_cell_length_a 13.567055
_cell_length_b 7.245800
_cell_length_c 5.156580
_cell_angle_alpha 126.539164
_cell_angle_beta 90.599851
_cell_angle_gamma 114.756550
_cell_volume 345.609002
_symmetry_space_group_name_H-M "P 1"
_symmetry_group_IT_number 1
_symmetry_cell_setting 'triclinic'
loop_
_space_group_symop_operation_xyz
x,y,z
loop_
_atom_site_type_symbol
_atom_site_label
_atom_site_fract_x
_atom_site_fract_y
_atom_site_fract_z
Si Si1 0.511600 0.389680 0.149260
Si Si2 0.871959 0.080519 0.837795
Si Si3 0.943914 0.756351 0.900593
Si Si4 0.643664 0.883341 0.879365
Si Si5 0.314233 0.873715 0.542948
Si Si6 0.437237 0.919408 0.084251
Si Si7 0.047535 0.669408 0.307103
Si Si8 0.728059 0.589456 0.021405
O O1 0.568453 0.699934 0.478756
O O2 0.478494 0.231063 0.288776
O O3 0.614133 0.370292 0.993619
O O4 0.392961 0.204432 0.837568
O O5 0.926154 0.994424 0.998142
O O6 0.767773 0.115569 0.967807
O O7 0.809925 0.826170 0.427283
O O8 0.973433 0.357042 0.954437
O O9 0.992391 0.682788 0.590141
O O10 0.028505 0.827630 0.207377
O O11 0.814993 0.530503 0.817508
O O12 0.680443 0.713358 0.915901
O O13 0.556136 0.928073 0.076175
O O14 0.180646 0.769100 0.434948
O O15 0.363328 0.802398 0.238412
O O16 0.352640 0.779112 0.718287
#
# Coordination Sequence:
#
# PCOD9000098 Si02
#       8
#     1   1   1   1   1   1   1   1
#     4   9  22  41  66  93 135 166 213 274 319 397
#     4  10  25  44  65 107 136 167 229 276 324 419
#     4  11  25  45  70 100 133 181 221 274 341 389
#     4  10  22  39  67  99 132 170 212 273 343 389
#     4  10  24  46  63  97 130 173 228 266 313 407
#     4  10  23  43  66  94 131 171 218 270 331 383
#     4  12  26  46  71  94 138 184 221 276 334 383
#     4  10  21  44  64 102 137 160 224 273 331 409
#
# _framework density 23.147545999999998
#
# number of rings (size 3 to 8) (size 9 to 14) (size 15 to 20)
#    0.750    1.000    1.250    1.500    8.750    1.000 
#    2.250    0.000    0.000    0.000    0.000    0.000 
#    0.000    0.000    0.000    0.000    0.000    0.000 
#
# Total GULP energy -44643.371239 kJ/mol
# GULP energy per Si atom -5580.421405 kJ/mol
# Density = 2.309486 g / cm^3
# Si number density = 23.147546 Si / 1000 Ang^3
#
#
#
# Elastic Constant Matrix: (Units=GPa)
#
#
# Indices 1 2 3 4 5 6 
#
# 1 148.0128 40.2801 56.0882 4.8888 26.2166 28.0380
# 2 40.2801 54.7809 39.8351 -15.0005 11.8859 12.3068
# 3 56.0882 39.8351 90.3153 -24.7197 12.7828 22.0307
# 4 4.8888 -15.0005 -24.7197 35.7853 5.8546 8.2367
# 5 26.2166 11.8859 12.7828 5.8546 37.5726 -8.1453
# 6 28.0380 12.3068 22.0307 8.2367 -8.1453 34.4131
#
#
#
# Elastic Compliance Matrix: (Units=1/GPa)
#
#
# Indices 1 2 3 4 5 6 
#
# 1 0.011834 -0.003874 -0.004292 -0.003770 -0.006306 -0.006098
# 2 -0.003874 0.034475 -0.000817 0.020799 -0.014884 -0.017150
# 3 -0.004292 -0.000817 0.033696 0.033870 -0.020134 -0.030655
# 4 -0.003770 0.020799 0.033870 0.079613 -0.039692 -0.054499
# 5 -0.006306 -0.014884 -0.020134 -0.039692 0.058902 0.046792
# 6 -0.006098 -0.017150 -0.030655 -0.054499 0.046792 0.083905
#
#
# Mechanical properties :
#
#
# Convention : Reuss Voigt Hill
#
# Bulk Modulus (GPa) = 16.11926 62.83507 39.47716
# Shear Modulus (GPa) = 14.65979 32.01457 23.33718
#
# Velocity S-wave (km/s) = 2.51931 3.72299 3.17865
# Velocity P-wave (km/s) = 3.92956 6.75909 5.52841
#
# Compressibility (1/GPa) = 0.06203760
#
# Stress axis : x y z
#
# Youngs Moduli (GPa) = 84.50540 29.00659 29.67746
#
# Poissons Ratio (x) = 0.11238 0.12738
# Poissons Ratio (y) = 0.32741 0.02424
# Poissons Ratio (z) = 0.36270 0.02369
#
# Static dielectric constant tensor:
#      x y z
#    x 1.855710 -0.014250 -0.038160 
#    y -0.014250 1.907730 0.000310 
#    z -0.038160 0.000310 1.944290 
# 
# From -- ./inp_files/1978.got.cif
#   From: 2010.05.17/outbox.cif.g08.bks.cpg/sg1_1_cif.got.tgz:1978.got - 2010.05.17 20:27:59.
