data_PCOD9000057
_publ_section_title
;
Structure prediction by ZEFSAII (Michael W. Deem and Ramdas Pophale) SiO2 
 PCOD9000057
Probable space group: P 1
;
_chemical_formula_sum "Si O2"
_cell_formula_units_Z 8
_cell_length_a 5.032707
_cell_length_b 7.090654
_cell_length_c 10.843082
_cell_angle_alpha 51.579721
_cell_angle_beta 86.080604
_cell_angle_gamma 81.077757
_cell_volume 299.290543
_symmetry_space_group_name_H-M "P 1"
_symmetry_group_IT_number 1
_symmetry_cell_setting 'triclinic'
loop_
_space_group_symop_operation_xyz
x,y,z
loop_
_atom_site_type_symbol
_atom_site_label
_atom_site_fract_x
_atom_site_fract_y
_atom_site_fract_z
Si Si1 0.947290 0.172920 0.515090
Si Si2 0.345871 0.131016 0.300708
Si Si3 0.736332 0.686074 0.699403
Si Si4 0.853289 0.150232 0.150782
Si Si5 0.187594 0.760095 0.820844
Si Si6 0.865589 0.186338 0.862661
Si Si7 0.620214 0.692284 0.337992
Si Si8 0.423822 0.876942 0.003910
O O1 0.738680 0.410999 0.449817
O O2 0.805112 0.951448 0.552862
O O3 0.186730 0.204171 0.400724
O O4 0.081916 0.051605 0.686016
O O5 0.620905 0.234920 0.223104
O O6 0.431565 0.837025 0.391669
O O7 0.132446 0.209809 0.166635
O O8 0.429216 0.706490 0.738645
O O9 0.938063 0.640651 0.829796
O O10 0.818326 0.457818 0.700854
O O11 0.864253 0.855353 0.266319
O O12 0.738205 0.223697 0.990508
O O13 0.309593 0.714467 0.969328
O O14 0.687159 0.985813 0.902050
O O15 0.172273 0.092715 0.927042
O O16 0.482806 0.754229 0.183569
#
# Coordination Sequence:
#
# PCOD9000057 Si02
#       8
#     1   1   1   1   1   1   1   1
#     4  10  25  46  68 102 144 185 230 282 358 421
#     4  10  21  42  66 100 133 180 228 284 348 414
#     4  10  24  43  65  98 141 184 229 281 347 426
#     4   9  20  40  64 100 132 172 229 290 345 393
#     4  10  24  45  60 105 139 179 235 274 359 417
#     4  11  20  43  70  99 139 177 234 291 346 418
#     4   9  22  44  71 101 134 178 234 297 339 418
#     4  11  22  43  72 103 132 181 235 293 352 405
#
# _framework density 26.729880000000001
#
# number of rings (size 3 to 8) (size 9 to 14) (size 15 to 20)
#    1.500    0.500    1.250    1.500    1.750    2.000 
#    6.750    2.500    0.000    0.000    0.000    0.000 
#    0.000    0.000    0.000    0.000    0.000    0.000 
#
# Total GULP energy -44693.689486 kJ/mol
# GULP energy per Si atom -5586.711186 kJ/mol
# Density = 2.666904 g / cm^3
# Si number density = 26.729880 Si / 1000 Ang^3
#
#
#
# Elastic Constant Matrix: (Units=GPa)
#
#
# Indices 1 2 3 4 5 6 
#
# 1 120.1263 33.5647 11.1890 -5.3594 12.7258 -8.4048
# 2 33.5647 119.9140 39.7811 -24.8445 10.7164 -9.5995
# 3 11.1890 39.7811 63.2712 -6.7766 31.0011 -3.9665
# 4 -5.3594 -24.8445 -6.7766 59.1423 -4.1402 5.9896
# 5 12.7258 10.7164 31.0011 -4.1402 37.1097 -1.5816
# 6 -8.4048 -9.5995 -3.9665 5.9896 -1.5816 49.3588
#
#
#
# Elastic Compliance Matrix: (Units=1/GPa)
#
#
# Indices 1 2 3 4 5 6 
#
# 1 0.009485 -0.003102 0.002446 -0.000588 -0.004417 0.001138
# 2 -0.003102 0.013006 -0.010234 0.004370 0.006381 0.000853
# 3 0.002446 -0.010234 0.035025 -0.002040 -0.027344 0.000612
# 4 -0.000588 0.004370 -0.002040 0.018807 0.002674 -0.001611
# 5 -0.004417 0.006381 -0.027344 0.002674 0.049742 -0.000439
# 6 0.001138 0.000853 0.000612 -0.001611 -0.000439 0.020850
#
#
# Mechanical properties :
#
#
# Convention : Reuss Voigt Hill
#
# Bulk Modulus (GPa) = 27.98386 52.48681 40.23534
# Shear Modulus (GPa) = 27.68431 43.70727 35.69579
#
# Velocity S-wave (km/s) = 3.22173 4.04808 3.65831
# Velocity P-wave (km/s) = 4.93267 6.44422 5.73843
#
# Compressibility (1/GPa) = 0.03573488
#
# Stress axis : x y z
#
# Youngs Moduli (GPa) = 105.43102 76.88651 28.55123
#
# Poissons Ratio (x) = 0.23852 -0.06983
# Poissons Ratio (y) = 0.32707 0.29219
# Poissons Ratio (z) = -0.25785 0.78686
#
# Static dielectric constant tensor:
#      x y z
#    x 1.997590 -0.019400 -0.021780 
#    y -0.019400 2.183300 -0.001790 
#    z -0.021780 -0.001790 2.231100 
# 
# From -- ./inp_files/5948.got.cif
#   From: 2010.05.17/outbox.cif.g08.bks.cpg/sg1_3_cif.got.tgz:5948.got - 2010.05.17 20:27:59.
