data_PCOD9000658
_publ_section_title
;
Structure prediction by ZEFSAII (Michael W. Deem and Ramdas Pophale) SiO2 
 PCOD9000658
Probable space group: P 1
;
_chemical_formula_sum "Si O2"
_cell_formula_units_Z 8
_cell_length_a 13.860523
_cell_length_b 5.619629
_cell_length_c 5.013963
_cell_angle_alpha 78.876954
_cell_angle_beta 59.609396
_cell_angle_gamma 86.301147
_cell_volume 330.299860
_symmetry_space_group_name_H-M "P 1"
_symmetry_group_IT_number 1
_symmetry_cell_setting 'triclinic'
loop_
_space_group_symop_operation_xyz
x,y,z
loop_
_atom_site_type_symbol
_atom_site_label
_atom_site_fract_x
_atom_site_fract_y
_atom_site_fract_z
Si Si1 0.067200 0.066470 0.549270
Si Si2 0.199986 0.573262 0.398094
Si Si3 0.921648 0.150127 0.223753
Si Si4 0.529258 0.340298 0.473422
Si Si5 0.483796 0.062100 0.086635
Si Si6 0.344451 0.685793 0.653064
Si Si7 0.758557 0.531022 0.321303
Si Si8 0.720548 0.825115 0.812342
O O1 0.138725 0.313258 0.475505
O O2 0.015710 0.126273 0.320764
O O3 0.125552 0.806706 0.516939
O O4 0.969479 0.042808 0.910984
O O5 0.278880 0.531412 0.551264
O O6 0.271935 0.666234 0.022814
O O7 0.878825 0.416228 0.161028
O O8 0.810656 0.019632 0.530246
O O9 0.465022 0.581695 0.572294
O O10 0.656765 0.359095 0.387412
O O11 0.518257 0.279172 0.192764
O O12 0.465438 0.143046 0.793172
O O13 0.376152 0.933870 0.400940
O O14 0.593568 0.902945 0.958239
O O15 0.735304 0.598458 0.643532
O O16 0.749117 0.759026 0.088889
#
# Coordination Sequence:
#
# PCOD9000658 Si02
#       8
#     1   1   1   1   1   1   1   1
#     4  12  30  54  79 110 149 200 270 326 374 440
#     4  12  30  54  79 110 149 200 270 326 374 440
#     4  12  28  48  79 106 149 204 240 318 390 440
#     4  12  26  44  72 110 156 194 243 297 377 471
#     4  12  26  44  72 110 156 194 243 297 377 471
#     4  12  28  48  79 106 149 204 240 318 390 440
#     4  12  26  44  72 110 156 194 243 297 377 471
#     4  12  26  44  72 110 156 194 243 297 377 471
#
# _framework density 24.220417000000001
#
# number of rings (size 3 to 8) (size 9 to 14) (size 15 to 20)
#    0.000    0.000    2.500    6.000   14.000    0.000 
#    0.000    0.000    0.000    0.000    0.000    0.000 
#    0.000    0.000    0.000    0.000    0.000    0.000 
#
# Total GULP energy -44795.749924 kJ/mol
# GULP energy per Si atom -5599.468741 kJ/mol
# Density = 2.416529 g / cm^3
# Si number density = 24.220417 Si / 1000 Ang^3
#
#
#
# Elastic Constant Matrix: (Units=GPa)
#
#
# Indices 1 2 3 4 5 6 
#
# 1 67.0352 7.7743 -3.0362 6.5115 12.5354 -5.3944
# 2 7.7743 80.8160 19.2906 9.2173 -15.6425 -6.3558
# 3 -3.0362 19.2906 134.4052 2.4281 2.1753 -7.9354
# 4 6.5115 9.2173 2.4281 42.5502 1.7727 2.0887
# 5 12.5354 -15.6425 2.1753 1.7727 32.8507 -2.3494
# 6 -5.3944 -6.3558 -7.9354 2.0887 -2.3494 39.0896
#
#
#
# Elastic Compliance Matrix: (Units=1/GPa)
#
#
# Indices 1 2 3 4 5 6 
#
# 1 0.017102 -0.003090 0.001089 -0.001766 -0.007852 0.001701
# 2 -0.003090 0.015517 -0.002246 -0.003254 0.009061 0.002359
# 3 0.001089 -0.002246 0.007896 -0.000114 -0.001910 0.001279
# 4 -0.001766 -0.003254 -0.000114 0.024692 -0.002362 -0.002257
# 5 -0.007852 0.009061 -0.001910 -0.002362 0.038179 0.002423
# 6 0.001701 0.002359 0.001279 -0.002257 0.002423 0.026727
#
#
# Mechanical properties :
#
#
# Convention : Reuss Voigt Hill
#
# Bulk Modulus (GPa) = 31.22757 36.70153 33.96455
# Shear Modulus (GPa) = 33.49421 40.11330 36.80376
#
# Velocity S-wave (km/s) = 3.72276 4.07403 3.90235
# Velocity P-wave (km/s) = 5.60354 6.10871 5.86157
#
# Compressibility (1/GPa) = 0.03202298
#
# Stress axis : x y z
#
# Youngs Moduli (GPa) = 58.47253 64.44343 126.65298
#
# Poissons Ratio (x) = 0.19912 -0.13796
# Poissons Ratio (y) = 0.18067 0.28440
# Poissons Ratio (z) = -0.06369 0.14471
#
# Static dielectric constant tensor:
#      x y z
#    x 1.870270 0.017740 -0.026930 
#    y 0.017740 2.009270 -0.071310 
#    z -0.026930 -0.071310 1.886290 
# 
# From -- ./inp_files/2607.got.cif
#   From: 2010.05.17/outbox.cif.g08.bks.cpg/sg1_2_cif.got.tgz:2607.got - 2010.05.17 20:27:59.
