data_PCOD9000186
_publ_section_title
;
Structure prediction by ZEFSAII (Michael W. Deem and Ramdas Pophale) SiO2 
 PCOD9000186
Probable space group: P 1
;
_chemical_formula_sum "Si O2"
_cell_formula_units_Z 8
_cell_length_a 7.815267
_cell_length_b 7.788196
_cell_length_c 9.571695
_cell_angle_alpha 68.857608
_cell_angle_beta 128.808634
_cell_angle_gamma 102.214686
_cell_volume 423.343104
_symmetry_space_group_name_H-M "P 1"
_symmetry_group_IT_number 1
_symmetry_cell_setting 'triclinic'
loop_
_space_group_symop_operation_xyz
x,y,z
loop_
_atom_site_type_symbol
_atom_site_label
_atom_site_fract_x
_atom_site_fract_y
_atom_site_fract_z
Si Si1 0.697690 0.282760 0.944030
Si Si2 0.697424 0.782451 0.444006
Si Si3 0.207127 0.237301 0.221032
Si Si4 0.357965 0.336318 0.970920
Si Si5 0.207014 0.737387 0.721049
Si Si6 0.441859 0.467577 0.501392
Si Si7 0.357315 0.836100 0.470449
Si Si8 0.442220 0.967803 0.001500
O O1 0.562123 0.382217 0.722576
O O2 0.600245 0.356697 0.020754
O O3 0.955319 0.301714 0.056639
O O4 0.626290 0.069525 0.973559
O O5 0.625812 0.569269 0.473288
O O6 0.599731 0.856340 0.520560
O O7 0.562280 0.882091 0.222622
O O8 0.955054 0.801378 0.556889
O O9 0.341604 0.306744 0.135647
O O10 0.311478 0.321985 0.388559
O O11 0.222171 0.016571 0.303922
O O12 0.290675 0.142232 0.923120
O O13 0.222548 0.516693 0.804415
O O14 0.340828 0.806725 0.635057
O O15 0.311677 0.822452 0.888386
O O16 0.290090 0.641965 0.422741
#
# Coordination Sequence:
#
# PCOD9000186 Si02
#       8
#     1   1   1   1   1   1   1   1
#     4  10  22  44  58  92 124 148 210 246 280 376
#     4  10  22  44  58  92 124 148 210 246 280 376
#     4  12  22  42  66  82 126 166 182 256 312 322
#     4  10  22  42  60  92 122 150 210 244 282 376
#     4  12  22  42  66  82 126 166 182 256 312 322
#     4  10  22  44  58  92 124 148 210 246 280 376
#     4  10  22  42  60  92 122 150 210 244 282 376
#     4  10  22  44  58  92 124 148 210 246 280 376
#
# _framework density 18.897202
#
# number of rings (size 3 to 8) (size 9 to 14) (size 15 to 20)
#    1.500    0.000    2.500    3.000    0.000    0.000 
#   13.500    0.000    0.000    0.000    0.000    0.000 
#    0.000    0.000    0.000    0.000    0.000    0.000 
#
# Total GULP energy -44534.462697 kJ/mol
# GULP energy per Si atom -5566.807837 kJ/mol
# Density = 1.885419 g / cm^3
# Si number density = 18.897202 Si / 1000 Ang^3
#
#
#
# Elastic Constant Matrix: (Units=GPa)
#
#
# Indices 1 2 3 4 5 6 
#
# 1 77.5144 58.5757 65.3191 2.1816 -0.7559 -15.3092
# 2 58.5757 63.9756 60.9529 -7.1823 -2.2138 -6.0669
# 3 65.3191 60.9529 123.4768 -13.3562 -9.1306 -2.8470
# 4 2.1816 -7.1823 -13.3562 32.3989 10.7026 -4.9574
# 5 -0.7559 -2.2138 -9.1306 10.7026 26.0941 -3.6145
# 6 -15.3092 -6.0669 -2.8470 -4.9574 -3.6145 24.9796
#
#
#
# Elastic Compliance Matrix: (Units=1/GPa)
#
#
# Indices 1 2 3 4 5 6 
#
# 1 0.061479 -0.045208 -0.011185 -0.016617 0.003992 0.022704
# 2 -0.045208 0.063785 -0.006661 0.014672 -0.005756 -0.010895
# 3 -0.011185 -0.006661 0.017925 0.005027 0.002621 -0.005053
# 4 -0.016617 0.014672 0.005027 0.042217 -0.014766 0.000194
# 5 0.003992 -0.005756 0.002621 -0.014766 0.045619 0.005018
# 6 0.022704 -0.010895 -0.005053 0.000194 0.005018 0.051489
#
#
# Mechanical properties :
#
#
# Convention : Reuss Voigt Hill
#
# Bulk Modulus (GPa) = 58.54692 70.51802 64.53247
# Shear Modulus (GPa) = 12.06812 22.03580 17.05196
#
# Velocity S-wave (km/s) = 2.52983 3.41851 3.00718
# Velocity P-wave (km/s) = 6.29146 7.27868 6.80300
#
# Compressibility (1/GPa) = 0.01708032
#
# Stress axis : x y z
#
# Youngs Moduli (GPa) = 16.26572 15.67776 55.78905
#
# Poissons Ratio (x) = 0.70876 0.62398
# Poissons Ratio (y) = 0.73534 0.37163
# Poissons Ratio (z) = 0.18193 0.10443
#
# Static dielectric constant tensor:
#      x y z
#    x 1.675620 -0.000180 -0.016170 
#    y -0.000180 1.677900 -0.015070 
#    z -0.016170 -0.015070 1.637110 
# 
# From -- ./inp_files/3838.got.cif
#   From: 2010.05.17/outbox.cif.g08.bks.cpg/sg1_2_cif.got.tgz:3838.got - 2010.05.17 20:27:59.
