data_PCOD9000011
_publ_section_title
;
Structure prediction by ZEFSAII (Michael W. Deem and Ramdas Pophale) SiO2 
 PCOD9000011
Probable space group: P 1
;
_chemical_formula_sum "Si O2"
_cell_formula_units_Z 8
_cell_length_a 7.546371
_cell_length_b 6.566971
_cell_length_c 9.903798
_cell_angle_alpha 131.743223
_cell_angle_beta 58.618366
_cell_angle_gamma 98.682635
_cell_volume 297.508186
_symmetry_space_group_name_H-M "P 1"
_symmetry_group_IT_number 1
_symmetry_cell_setting 'triclinic'
loop_
_space_group_symop_operation_xyz
x,y,z
loop_
_atom_site_type_symbol
_atom_site_label
_atom_site_fract_x
_atom_site_fract_y
_atom_site_fract_z
Si Si1 0.358550 0.977590 0.372450
Si Si2 0.648931 0.043075 0.058683
Si Si3 0.984529 0.367722 0.156307
Si Si4 0.803289 0.676774 0.605596
Si Si5 0.692012 0.114407 0.489868
Si Si6 0.412001 0.458867 0.963432
Si Si7 0.133924 0.840572 0.046358
Si Si8 0.023861 0.512022 0.708175
O O1 0.395918 0.640011 0.186173
O O2 0.452996 0.135534 0.282898
O O3 0.495114 0.017165 0.464335
O O4 0.105808 0.174001 0.555067
O O5 0.808380 0.239872 0.100931
O O6 0.649939 0.965781 0.865500
O O7 0.780661 0.724896 0.930508
O O8 0.195742 0.362711 0.985976
O O9 0.867321 0.653522 0.413900
O O10 0.098836 0.147456 0.132295
O O11 0.703260 0.413660 0.549711
O O12 0.012463 0.591509 0.588707
O O13 0.619669 0.225431 0.718641
O O14 0.915181 0.889274 0.245766
O O15 0.342960 0.728790 0.006136
O O16 0.156990 0.635674 0.817430
#
# Coordination Sequence:
#
# PCOD9000011 Si02
#       8
#     1   1   1   1   1   1   1   1
#     4  12  19  34  63  95 116 160 208 245 296 373
#     4   9  19  36  62  83 121 163 195 244 305 356
#     4  10  21  40  63  90 122 160 203 249 305 359
#     4   9  17  38  61  81 124 162 187 248 308 351
#     4  11  20  37  63  90 124 159 204 250 301 363
#     4  12  25  37  66  96 119 160 209 248 305 359
#     4  10  21  44  64  84 129 166 192 254 311 357
#     4   9  18  34  62  91 111 160 206 234 303 360
#
# _framework density 26.890017
#
# number of rings (size 3 to 8) (size 9 to 14) (size 15 to 20)
#    0.750    1.000    6.250    1.500    0.000    1.000 
#    0.000    5.000    2.750    0.000    0.000    0.000 
#    0.000    0.000    0.000    0.000    0.000    0.000 
#
# Total GULP energy -44589.026989 kJ/mol
# GULP energy per Si atom -5573.628374 kJ/mol
# Density = 2.682881 g / cm^3
# Si number density = 26.890017 Si / 1000 Ang^3
#
#
#
# Elastic Constant Matrix: (Units=GPa)
#
#
# Indices 1 2 3 4 5 6 
#
# 1 78.4949 7.0136 44.6197 10.6470 8.9329 21.2297
# 2 7.0136 42.2252 35.1658 1.5847 0.7308 12.3564
# 3 44.6197 35.1658 167.5283 19.8469 8.9172 17.1302
# 4 10.6470 1.5847 19.8469 37.2337 -0.8458 -0.0315
# 5 8.9329 0.7308 8.9172 -0.8458 64.9466 9.5220
# 6 21.2297 12.3564 17.1302 -0.0315 9.5220 33.8921
#
#
#
# Elastic Compliance Matrix: (Units=1/GPa)
#
#
# Indices 1 2 3 4 5 6 
#
# 1 0.018044 0.003587 -0.004096 -0.003149 -0.000475 -0.010410
# 2 0.003587 0.031833 -0.006760 0.001252 0.001692 -0.010910
# 3 -0.004096 -0.006760 0.008825 -0.003261 -0.000728 0.000771
# 4 -0.003149 0.001252 -0.003261 0.029464 0.000816 0.002962
# 5 -0.000475 0.001692 -0.000728 0.000816 0.016215 -0.004507
# 6 -0.010410 -0.010910 0.000771 0.002962 -0.004507 0.040882
#
#
# Mechanical properties :
#
#
# Convention : Reuss Voigt Hill
#
# Bulk Modulus (GPa) = 22.64330 51.31631 36.97980
# Shear Modulus (GPa) = 28.64939 40.64443 34.64691
#
# Velocity S-wave (km/s) = 3.26763 3.89203 3.59342
# Velocity P-wave (km/s) = 4.76188 6.27076 5.56767
#
# Compressibility (1/GPa) = 0.04416318
#
# Stress axis : x y z
#
# Youngs Moduli (GPa) = 55.42001 31.41389 113.30988
#
# Poissons Ratio (x) = -0.11267 0.46413
# Poissons Ratio (y) = -0.19877 0.76600
# Poissons Ratio (z) = 0.22700 0.21237
#
# Static dielectric constant tensor:
#      x y z
#    x 2.103580 -0.001310 -0.027700 
#    y -0.001310 2.156570 -0.009960 
#    z -0.027700 -0.009960 2.171380 
# 
# From -- ./inp_files/4626.got.cif
#   From: 2010.05.17/outbox.cif.g08.bks.cpg/sg1_3_cif.got.tgz:4626.got - 2010.05.17 20:27:59.
