data_PCOD9000312
_publ_section_title
;
Structure prediction by ZEFSAII (Michael W. Deem and Ramdas Pophale) SiO2 
 PCOD9000312
Probable space group: P 1
;
_chemical_formula_sum "Si O2"
_cell_formula_units_Z 8
_cell_length_a 7.306104
_cell_length_b 7.106112
_cell_length_c 11.065576
_cell_angle_alpha 123.375293
_cell_angle_beta 43.181247
_cell_angle_gamma 119.048189
_cell_volume 324.702313
_symmetry_space_group_name_H-M "P 1"
_symmetry_group_IT_number 1
_symmetry_cell_setting 'triclinic'
loop_
_space_group_symop_operation_xyz
x,y,z
loop_
_atom_site_type_symbol
_atom_site_label
_atom_site_fract_x
_atom_site_fract_y
_atom_site_fract_z
Si Si1 0.702050 0.132870 0.959180
Si Si2 0.811763 0.523322 0.864585
Si Si3 0.138923 0.981003 0.258186
Si Si4 0.470983 0.366006 0.741567
Si Si5 0.455019 0.848228 0.290564
Si Si6 0.942538 0.494716 0.139385
Si Si7 0.193621 0.861721 0.673135
Si Si8 0.847459 0.280194 0.350737
O O1 0.803972 0.281566 0.847430
O O2 0.914169 0.965420 0.826670
O O3 0.704650 0.318993 0.132921
O O4 0.402647 0.997627 0.050890
O O5 0.663407 0.470914 0.791198
O O6 0.104928 0.667075 0.745895
O O7 0.620925 0.664206 0.086022
O O8 0.923733 0.758718 0.251649
O O9 0.253935 0.937645 0.320189
O O10 0.011655 0.201563 0.357327
O O11 0.623346 0.417983 0.560868
O O12 0.398764 0.089345 0.690998
O O13 0.192991 0.463618 0.922754
O O14 0.293302 0.776599 0.466712
O O15 0.683216 0.057454 0.289901
O O16 0.012410 0.412610 0.210461
#
# Coordination Sequence:
#
# PCOD9000312 Si02
#       8
#     1   1   1   1   1   1   1   1
#     4  11  24  42  70 100 132 177 223 270 333 394
#     4  12  23  43  68  98 133 176 220 269 337 391
#     4  12  24  42  70  99 129 177 221 269 331 392
#     4  10  23  42  65  96 131 172 218 273 325 387
#     4  11  23  47  68  97 140 173 221 277 325 397
#     4  11  22  46  67  95 138 175 217 277 328 391
#     4  10  24  45  64  95 139 173 216 281 325 388
#     4  11  25  45  68  98 138 173 220 276 330 390
#
# _framework density 24.637951999999999
#
# number of rings (size 3 to 8) (size 9 to 14) (size 15 to 20)
#    0.000    1.000    3.750    2.250    3.500    1.000 
#    0.000    6.250    0.000    0.000    0.000    0.000 
#    0.000    0.000    0.000    0.000    0.000    0.000 
#
# Total GULP energy -44761.438583 kJ/mol
# GULP energy per Si atom -5595.179823 kJ/mol
# Density = 2.458187 g / cm^3
# Si number density = 24.637952 Si / 1000 Ang^3
#
#
#
# Elastic Constant Matrix: (Units=GPa)
#
#
# Indices 1 2 3 4 5 6 
#
# 1 60.3086 17.5118 3.2631 0.2508 4.3208 -9.3776
# 2 17.5118 89.5778 27.5470 -11.0516 12.8617 -1.2190
# 3 3.2631 27.5470 108.8841 -6.4080 3.4257 -5.0704
# 4 0.2508 -11.0516 -6.4080 28.6385 5.5110 2.9405
# 5 4.3208 12.8617 3.4257 5.5110 24.3860 -0.4977
# 6 -9.3776 -1.2190 -5.0704 2.9405 -0.4977 37.0262
#
#
#
# Elastic Compliance Matrix: (Units=1/GPa)
#
#
# Indices 1 2 3 4 5 6 
#
# 1 0.018469 -0.003826 0.000553 -0.001846 -0.000818 0.004763
# 2 -0.003826 0.014868 -0.003055 0.006847 -0.008314 -0.001553
# 3 0.000553 -0.003055 0.010061 0.000947 -0.000087 0.001341
# 4 -0.001846 0.006847 0.000947 0.040585 -0.012660 -0.003506
# 5 -0.000818 -0.008314 -0.000087 -0.012660 0.048434 0.001164
# 6 0.004763 -0.001553 0.001341 -0.003506 0.001164 0.028641
#
#
# Mechanical properties :
#
#
# Convention : Reuss Voigt Hill
#
# Bulk Modulus (GPa) = 32.52721 39.49047 36.00884
# Shear Modulus (GPa) = 27.17961 32.04002 29.60982
#
# Velocity S-wave (km/s) = 3.32499 3.61006 3.47046
# Velocity P-wave (km/s) = 5.28881 5.78272 5.54127
#
# Compressibility (1/GPa) = 0.03074349
#
# Stress axis : x y z
#
# Youngs Moduli (GPa) = 54.14354 67.25757 99.39166
#
# Poissons Ratio (x) = 0.25735 -0.05501
# Poissons Ratio (y) = 0.20717 0.30361
# Poissons Ratio (z) = -0.02997 0.20545
#
# Static dielectric constant tensor:
#      x y z
#    x 1.949440 0.005840 0.007940 
#    y 0.005840 1.980220 -0.007060 
#    z 0.007940 -0.007060 1.931510 
# 
# From -- ./inp_files/6473.got.cif
#   From: 2010.05.17/outbox.cif.g08.bks.cpg/sg1_4_cif.got.tgz:6473.got - 2010.05.17 20:27:59.
