data_PCOD9000378
_publ_section_title
;
Structure prediction by ZEFSAII (Michael W. Deem and Ramdas Pophale) SiO2 
 PCOD9000378
Probable space group: P 1
;
_chemical_formula_sum "Si O2"
_cell_formula_units_Z 8
_cell_length_a 7.334525
_cell_length_b 7.512247
_cell_length_c 7.331458
_cell_angle_alpha 70.156113
_cell_angle_beta 56.659576
_cell_angle_gamma 83.304741
_cell_volume 316.171388
_symmetry_space_group_name_H-M "P 1"
_symmetry_group_IT_number 1
_symmetry_cell_setting 'triclinic'
loop_
_space_group_symop_operation_xyz
x,y,z
loop_
_atom_site_type_symbol
_atom_site_label
_atom_site_fract_x
_atom_site_fract_y
_atom_site_fract_z
Si Si1 0.531610 0.052230 0.984780
Si Si2 0.181839 0.608257 0.774867
Si Si3 0.022331 0.011452 0.804383
Si Si4 0.569239 0.393464 0.591121
Si Si5 0.044891 0.371828 0.262874
Si Si6 0.476377 0.188495 0.370847
Si Si7 0.896561 0.002568 0.289457
Si Si8 0.183066 0.683540 0.328029
O O1 0.473907 0.195945 0.806938
O O2 0.512028 0.170655 0.142374
O O3 0.784913 0.009044 0.842460
O O4 0.379981 0.854224 0.150806
O O5 0.117882 0.808724 0.808773
O O6 0.432908 0.560578 0.675380
O O7 0.146992 0.604991 0.578827
O O8 0.045383 0.456516 0.028679
O O9 0.548018 0.370814 0.391653
O O10 0.218893 0.513589 0.226682
O O11 0.825033 0.406977 0.481497
O O12 0.978674 0.055209 0.022884
O O13 0.023329 0.148076 0.311207
O O14 0.639212 0.036422 0.415885
O O15 0.219460 0.147650 0.566856
O O16 0.971735 0.796217 0.356167
#
# Coordination Sequence:
#
# PCOD9000378 Si02
#       8
#     1   1   1   1   1   1   1   1
#     4  11  26  47  77 110 141 203 250 292 377 441
#     4  12  27  44  72 112 147 190 246 303 367 433
#     4  11  23  45  80 103 147 193 245 303 365 437
#     4  11  28  47  75 109 149 195 246 305 370 437
#     4  11  27  50  72 109 152 191 246 308 362 442
#     4  10  23  46  78 100 143 195 245 300 359 436
#     4  10  24  49  77 106 148 197 248 303 371 435
#     4  12  26  46  77 111 149 194 246 304 371 441
#
# _framework density 25.302733
#
# number of rings (size 3 to 8) (size 9 to 14) (size 15 to 20)
#    0.000    1.000    2.500    2.250    7.000    7.000 
#    2.250    0.000    2.750    0.000    0.000    0.000 
#    0.000    0.000    0.000    0.000    0.000    0.000 
#
# Total GULP energy -44763.651791 kJ/mol
# GULP energy per Si atom -5595.456474 kJ/mol
# Density = 2.524514 g / cm^3
# Si number density = 25.302733 Si / 1000 Ang^3
#
#
#
# Elastic Constant Matrix: (Units=GPa)
#
#
# Indices 1 2 3 4 5 6 
#
# 1 99.6689 32.5557 29.9420 6.2321 8.0284 13.1262
# 2 32.5557 149.3859 21.1310 18.1454 -8.2538 18.6705
# 3 29.9420 21.1310 103.6940 12.0005 14.0321 4.7306
# 4 6.2321 18.1454 12.0005 42.6470 -8.9824 -10.5629
# 5 8.0284 -8.2538 14.0321 -8.9824 41.3242 9.4373
# 6 13.1262 18.6705 4.7306 -10.5629 9.4373 54.7572
#
#
#
# Elastic Compliance Matrix: (Units=1/GPa)
#
#
# Indices 1 2 3 4 5 6 
#
# 1 0.011896 -0.001959 -0.002623 -0.000966 -0.001595 -0.001869
# 2 -0.001959 0.008183 -0.000895 -0.003259 0.002359 -0.003279
# 3 -0.002623 -0.000895 0.011563 -0.003397 -0.004340 0.000028
# 4 -0.000966 -0.003259 -0.003397 0.028628 0.005494 0.006212
# 5 -0.001595 0.002359 -0.004340 0.005494 0.028540 -0.003906
# 6 -0.001869 -0.003279 0.000028 0.006212 -0.003906 0.021697
#
#
# Mechanical properties :
#
#
# Convention : Reuss Voigt Hill
#
# Bulk Modulus (GPa) = 48.33385 57.77847 53.05616
# Shear Modulus (GPa) = 38.95407 45.68702 42.32055
#
# Velocity S-wave (km/s) = 3.92793 4.25386 4.09414
# Velocity P-wave (km/s) = 6.30200 6.85650 6.58509
#
# Compressibility (1/GPa) = 0.02068943
#
# Stress axis : x y z
#
# Youngs Moduli (GPa) = 84.06221 122.19715 86.48561
#
# Poissons Ratio (x) = 0.23935 0.22685
# Poissons Ratio (y) = 0.16466 0.07737
# Poissons Ratio (z) = 0.22050 0.10931
#
# Static dielectric constant tensor:
#      x y z
#    x 2.049010 -0.061450 0.002900 
#    y -0.061450 1.974620 -0.008810 
#    z 0.002900 -0.008810 1.991610 
# 
# From -- ./inp_files/6551.got.cif
#   From: 2010.05.17/outbox.cif.g08.bks.cpg/sg1_4_cif.got.tgz:6551.got - 2010.05.17 20:27:59.
