data_PCOD9000187
_publ_section_title
;
Structure prediction by ZEFSAII (Michael W. Deem and Ramdas Pophale) SiO2 
 PCOD9000187
Probable space group: P 1
;
_chemical_formula_sum "Si O2"
_cell_formula_units_Z 8
_cell_length_a 4.852277
_cell_length_b 7.107688
_cell_length_c 11.080767
_cell_angle_alpha 82.313352
_cell_angle_beta 64.029563
_cell_angle_gamma 72.214792
_cell_volume 327.148646
_symmetry_space_group_name_H-M "P 1"
_symmetry_group_IT_number 1
_symmetry_cell_setting 'triclinic'
loop_
_space_group_symop_operation_xyz
x,y,z
loop_
_atom_site_type_symbol
_atom_site_label
_atom_site_fract_x
_atom_site_fract_y
_atom_site_fract_z
Si Si1 0.688730 0.955880 0.904040
Si Si2 0.783689 0.074593 0.287603
Si Si3 0.283096 0.881040 0.404038
Si Si4 0.487782 0.514475 0.555764
Si Si5 0.179210 0.266366 0.514677
Si Si6 0.571340 0.570553 0.014677
Si Si7 0.180593 0.322446 0.055764
Si Si8 0.421008 0.762328 0.787603
O O1 0.538264 0.802195 0.020825
O O2 0.639464 0.898778 0.778930
O O3 0.060199 0.893006 0.867459
O O4 0.497348 0.176823 0.949905
O O5 0.582580 0.938143 0.278929
O O6 0.499048 0.255173 0.377941
O O7 0.984788 0.943913 0.367458
O O8 0.006090 0.174030 0.162542
O O9 0.199990 0.034724 0.520824
O O10 0.382750 0.660096 0.449903
O O11 0.252668 0.371640 0.612405
O O12 0.448728 0.662892 0.662542
O O13 0.852832 0.385227 0.505860
O O14 0.524974 0.581746 0.877940
O O15 0.302427 0.465281 0.112405
O O16 0.915352 0.451692 0.005859
#
# Coordination Sequence:
#
# PCOD9000187 Si02
#       8
#     1   1   1   1   1   1   1   1
#     4  10  22  44  56  94 127 149 214 251 281 381
#     4  10  22  44  59  93 127 150 213 251 283 383
#     4  10  22  44  56  94 127 149 214 251 281 381
#     4  12  22  42  67  84 127 170 185 258 319 328
#     4  10  22  42  60  93 123 153 214 248 285 382
#     4  10  22  42  60  93 123 153 214 248 285 382
#     4  12  22  42  67  84 127 170 185 258 319 328
#     4  10  22  44  59  93 127 150 213 251 283 383
#
# _framework density 24.453717000000001
#
# number of rings (size 3 to 8) (size 9 to 14) (size 15 to 20)
#    1.500    0.000    2.500    3.000    0.000    0.000 
#   13.500    0.000    0.000    0.000    0.000    0.000 
#    0.000    0.000    0.000    0.000    0.000    0.000 
#
# Total GULP energy -44629.605340 kJ/mol
# GULP energy per Si atom -5578.700667 kJ/mol
# Density = 2.439806 g / cm^3
# Si number density = 24.453717 Si / 1000 Ang^3
#
#
#
# Elastic Constant Matrix: (Units=GPa)
#
#
# Indices 1 2 3 4 5 6 
#
# 1 157.0524 60.0318 19.3359 -6.7392 10.5466 -37.5326
# 2 60.0318 147.4341 18.0749 -12.0188 5.4777 -24.9768
# 3 19.3359 18.0749 22.7705 -3.8393 6.2595 -3.8325
# 4 -6.7392 -12.0188 -3.8393 17.0786 -4.5451 3.9884
# 5 10.5466 5.4777 6.2595 -4.5451 31.2052 -3.7466
# 6 -37.5326 -24.9768 -3.8325 3.9884 -3.7466 41.5398
#
#
#
# Elastic Compliance Matrix: (Units=1/GPa)
#
#
# Indices 1 2 3 4 5 6 
#
# 1 0.009456 -0.002103 -0.005041 -0.000763 -0.001112 0.006787
# 2 -0.002103 0.008947 -0.004425 0.004080 0.000954 0.002765
# 3 -0.005041 -0.004425 0.054295 0.005790 -0.007985 -0.003482
# 4 -0.000763 0.004080 0.005790 0.065182 0.007480 -0.003286
# 5 -0.001112 0.000954 -0.007985 0.007480 0.035099 0.001280
# 6 0.006787 0.002765 -0.003482 -0.003286 0.001280 0.031978
#
#
# Mechanical properties :
#
#
# Convention : Reuss Voigt Hill
#
# Bulk Modulus (GPa) = 20.17770 58.01579 39.09675
# Shear Modulus (GPa) = 20.44032 33.28569 26.86300
#
# Velocity S-wave (km/s) = 2.89429 3.69341 3.31800
# Velocity P-wave (km/s) = 4.40891 6.47801 5.54090
#
# Compressibility (1/GPa) = 0.04955965
#
# Stress axis : x y z
#
# Youngs Moduli (GPa) = 105.75630 111.76636 18.41804
#
# Poissons Ratio (x) = 0.23508 0.09284
# Poissons Ratio (y) = 0.22244 0.08150
# Poissons Ratio (z) = 0.53307 0.49457
#
# Static dielectric constant tensor:
#      x y z
#    x 1.941330 0.078050 -0.017370 
#    y 0.078050 1.943210 0.017580 
#    z -0.017370 0.017580 2.048680 
# 
# From -- ./inp_files/5965.got.cif
#   From: 2010.05.17/outbox.cif.g08.bks.cpg/sg1_3_cif.got.tgz:5965.got - 2010.05.17 20:27:59.
