data_PCOD9000994
_publ_section_title
;
Structure prediction by ZEFSAII (Michael W. Deem and Ramdas Pophale) SiO2 
 PCOD9000994
Probable space group: P -1
;
_chemical_formula_sum "Si O2"
_cell_formula_units_Z 16
_cell_length_a 13.619498
_cell_length_b 12.530802
_cell_length_c 7.559961
_cell_angle_alpha 84.232219
_cell_angle_beta 47.128647
_cell_angle_gamma 69.613536
_cell_volume 868.670720
_symmetry_space_group_name_H-M "P -1"
_symmetry_group_IT_number 2
_symmetry_cell_setting 'triclinic'
loop_
_space_group_symop_operation_xyz
x,y,z
-x,-y,-z
loop_
_atom_site_type_symbol
_atom_site_label
_atom_site_fract_x
_atom_site_fract_y
_atom_site_fract_z
Si Si1 0.821879 0.239513 0.263272
Si Si2 0.882297 0.128336 0.584844
Si Si3 0.993928 0.376190 0.004966
Si Si4 0.367437 0.931176 0.938412
Si Si5 0.985262 0.785745 0.292385
Si Si6 0.734032 0.819545 0.137233
Si Si7 0.564128 0.178700 0.519584
Si Si8 0.666111 0.931456 0.593288
O O1 0.878245 0.163541 0.381109
O O2 0.658319 0.254613 0.425037
O O3 0.844739 0.360127 0.233780
O O4 0.928517 0.177387 0.977424
O O5 0.925224 0.216101 0.641711
O O6 0.730122 0.123031 0.830048
O O7 0.000000 0.000000 0.500000
O O8 0.022921 0.328317 0.773831
O O9 0.112264 0.283395 0.003878
O O10 0.000000 0.500000 0.000000
O O11 0.400150 0.871872 0.714679
O O12 0.523547 0.912095 0.835181
O O13 0.284475 0.070258 0.982252
O O14 0.819745 0.872536 0.509242
O O15 0.608640 0.772406 0.253252
O O16 0.695538 0.877163 0.369177
O O17 0.625110 0.067123 0.591502
#
# Coordination Sequence:
#
# PCOD9000994 Si02
#       8
#     2   2   2   2   2   2   2   2
#     4  10  21  33  51  75 106 132 177 211 255 305
#     4  12  22  30  50  81 111 143 166 199 257 318
#     4   9  18  36  57  73  96 133 180 224 262 293
#     4   9  16  30  48  75 107 139 169 199 248 317
#     4   9  20  36  51  73 109 135 176 213 253 298
#     4   8  15  27  50  77  98 132 177 207 246 310
#     4   9  15  29  49  72 103 138 163 206 259 298
#     4   8  15  27  52  70 100 147 167 196 256 301
#
# _framework density 18.418949000000001
#
# number of rings (size 3 to 8) (size 9 to 14) (size 15 to 20)
#    0.750    2.000    1.250    3.000    1.750    1.000 
#    0.000    8.125    0.000    0.000    0.000    8.750 
#    0.000    0.000    0.000    0.000    0.000    0.000 
#
# Total GULP energy -89085.223067 kJ/mol
# GULP energy per Si atom -5567.826442 kJ/mol
# Density = 1.837703 g / cm^3
# Si number density = 18.418949 Si / 1000 Ang^3
#
#
#
# Elastic Constant Matrix: (Units=GPa)
#
#
# Indices 1 2 3 4 5 6 
#
# 1 98.9562 18.4754 34.5067 -7.5006 -16.8349 20.7961
# 2 18.4754 47.1726 8.9332 -10.1778 -14.2278 21.2838
# 3 34.5067 8.9332 47.4253 -9.2808 -11.9334 7.7562
# 4 -7.5006 -10.1778 -9.2808 14.0848 9.5397 -4.8026
# 5 -16.8349 -14.2278 -11.9334 9.5397 43.2161 -11.5936
# 6 20.7961 21.2838 7.7562 -4.8026 -11.5936 21.6892
#
#
#
# Elastic Compliance Matrix: (Units=1/GPa)
#
#
# Indices 1 2 3 4 5 6 
#
# 1 0.016104 0.001337 -0.010011 -0.002149 0.000889 -0.013173
# 2 0.001337 0.041939 0.001105 0.018436 0.000196 -0.038645
# 3 -0.010011 0.001105 0.031414 0.015268 0.002271 0.001876
# 4 -0.002149 0.018436 0.015268 0.100788 -0.014684 -0.007022
# 5 0.000889 0.000196 0.002271 -0.014684 0.030409 0.011146
# 6 -0.013173 -0.038645 0.001876 -0.007022 0.011146 0.100391
#
#
# Mechanical properties :
#
#
# Convention : Reuss Voigt Hill
#
# Bulk Modulus (GPa) = 13.45568 35.26498 24.36033
# Shear Modulus (GPa) = 13.85206 24.57393 19.21299
#
# Velocity S-wave (km/s) = 2.74534 3.65659 3.23323
# Velocity P-wave (km/s) = 4.16778 6.08400 5.21467
#
# Compressibility (1/GPa) = 0.07431804
#
# Stress axis : x y z
#
# Youngs Moduli (GPa) = 62.09789 23.84411 31.83253
#
# Poissons Ratio (x) = -0.03187 0.31868
# Poissons Ratio (y) = -0.08301 -0.03517
# Poissons Ratio (z) = 0.62168 -0.02635
#
# Static dielectric constant tensor:
#      x y z
#    x 1.691390 0.025620 -0.006530 
#    y 0.025620 1.602020 -0.007230 
#    z -0.006530 -0.007230 1.674990 
# 
# From -- ./inp_files/305065.got.cif
#   From: 2010.05.17/outbox.cif.g08.bks.cpg/sg2_153_cif.got.tgz:305065.got - 2010.06.03 11:33:40.
