data_PCOD9000087
_publ_section_title
;
Structure prediction by ZEFSAII (Michael W. Deem and Ramdas Pophale) SiO2 
 PCOD9000087
Probable space group: P 1
;
_chemical_formula_sum "Si O2"
_cell_formula_units_Z 8
_cell_length_a 6.874804
_cell_length_b 5.046582
_cell_length_c 9.919095
_cell_angle_alpha 116.190263
_cell_angle_beta 97.076142
_cell_angle_gamma 82.214622
_cell_volume 305.179051
_symmetry_space_group_name_H-M "P 1"
_symmetry_group_IT_number 1
_symmetry_cell_setting 'triclinic'
loop_
_space_group_symop_operation_xyz
x,y,z
loop_
_atom_site_type_symbol
_atom_site_label
_atom_site_fract_x
_atom_site_fract_y
_atom_site_fract_z
Si Si1 0.225480 0.233460 0.089190
Si Si2 0.213392 0.302270 0.798613
Si Si3 0.565608 0.581957 0.255546
Si Si4 0.009261 0.904859 0.543689
Si Si5 0.816885 0.480767 0.730054
Si Si6 0.091873 0.243689 0.364861
Si Si7 0.557973 0.251661 0.438708
Si Si8 0.556474 0.676637 0.977787
O O1 0.333527 0.531565 0.199808
O O2 0.087653 0.172914 0.189644
O O3 0.402795 0.968145 0.039914
O O4 0.143875 0.271864 0.940643
O O5 0.212268 0.996499 0.648614
O O6 0.050882 0.523927 0.754484
O O7 0.422805 0.425165 0.855417
O O8 0.627157 0.328896 0.311107
O O9 0.642321 0.580505 0.109445
O O10 0.599237 0.900996 0.389198
O O11 0.012909 0.025878 0.418362
O O12 0.858325 0.117701 0.669618
O O13 0.987959 0.565889 0.458674
O O14 0.658532 0.470559 0.595828
O O15 0.725762 0.685318 0.885651
O O16 0.321588 0.284069 0.423928
#
# Coordination Sequence:
#
# PCOD9000087 Si02
#       8
#     1   1   1   1   1   1   1   1
#     4  10  22  41  73 101 133 185 231 284 346 410
#     4   9  24  44  65 106 136 184 231 278 351 413
#     4  10  21  43  69 104 131 177 238 278 345 404
#     4  10  25  44  63 103 136 177 230 280 339 405
#     4  10  26  45  65 109 139 184 230 284 345 420
#     4  11  21  43  73  96 134 180 233 282 340 402
#     4  11  22  43  72 101 136 178 233 288 338 409
#     4  11  21  47  72  98 141 183 228 288 346 411
#
# _framework density 26.214119
#
# number of rings (size 3 to 8) (size 9 to 14) (size 15 to 20)
#    0.750    1.000    2.500    2.250    5.250    1.000 
#   13.500    0.000    0.000    0.000    0.000    0.000 
#    0.000    0.000    0.000    0.000    0.000    0.000 
#
# Total GULP energy -44687.886473 kJ/mol
# GULP energy per Si atom -5585.985809 kJ/mol
# Density = 2.615445 g / cm^3
# Si number density = 26.214119 Si / 1000 Ang^3
#
#
#
# Elastic Constant Matrix: (Units=GPa)
#
#
# Indices 1 2 3 4 5 6 
#
# 1 64.8504 16.5266 18.1628 1.2543 -1.2904 2.2373
# 2 16.5266 93.5877 31.0194 -11.2549 0.3406 8.6874
# 3 18.1628 31.0194 92.0269 -18.9582 -7.8925 7.9584
# 4 1.2543 -11.2549 -18.9582 47.9774 -4.5257 -2.9900
# 5 -1.2904 0.3406 -7.8925 -4.5257 42.2201 -0.4835
# 6 2.2373 8.6874 7.9584 -2.9900 -0.4835 31.5992
#
#
#
# Elastic Compliance Matrix: (Units=1/GPa)
#
#
# Indices 1 2 3 4 5 6 
#
# 1 0.016882 -0.002230 -0.003054 -0.002199 -0.000273 -0.000025
# 2 -0.002230 0.012587 -0.003354 0.001478 -0.000665 -0.002328
# 3 -0.003054 -0.003354 0.014061 0.005023 0.003079 -0.001881
# 4 -0.002199 0.001478 0.005023 0.023601 0.003398 0.000770
# 5 -0.000273 -0.000665 0.003079 0.003398 0.024624 0.000125
# 6 -0.000025 -0.002328 -0.001881 0.000770 0.000125 0.032837
#
#
# Mechanical properties :
#
#
# Convention : Reuss Voigt Hill
#
# Bulk Modulus (GPa) = 38.09000 42.43140 40.26070
# Shear Modulus (GPa) = 33.19661 36.67641 34.93651
#
# Velocity S-wave (km/s) = 3.56246 3.74452 3.65463
# Velocity P-wave (km/s) = 5.61101 5.90905 5.76196
#
# Compressibility (1/GPa) = 0.02625361
#
# Stress axis : x y z
#
# Youngs Moduli (GPa) = 59.23539 79.44831 71.11842
#
# Poissons Ratio (x) = 0.17716 0.21723
# Poissons Ratio (y) = 0.13209 0.23851
# Poissons Ratio (z) = 0.18093 0.26645
#
# Static dielectric constant tensor:
#      x y z
#    x 2.149320 -0.037840 0.031020 
#    y -0.037840 2.092450 -0.037010 
#    z 0.031020 -0.037010 2.053950 
# 
# From -- ./inp_files/6258.got.cif
#   From: 2010.05.17/outbox.cif.g08.bks.cpg/sg1_4_cif.got.tgz:6258.got - 2010.05.17 20:27:59.
