data_PCOD9000503
_publ_section_title
;
Structure prediction by ZEFSAII (Michael W. Deem and Ramdas Pophale) SiO2 
 PCOD9000503
Probable space group: P 1
;
_chemical_formula_sum "Si O2"
_cell_formula_units_Z 6
_cell_length_a 5.090107
_cell_length_b 5.333134
_cell_length_c 9.960975
_cell_angle_alpha 122.371274
_cell_angle_beta 95.981590
_cell_angle_gamma 89.999979
_cell_volume 226.636259
_symmetry_space_group_name_H-M "P 1"
_symmetry_group_IT_number 1
_symmetry_cell_setting 'triclinic'
loop_
_space_group_symop_operation_xyz
x,y,z
loop_
_atom_site_type_symbol
_atom_site_label
_atom_site_fract_x
_atom_site_fract_y
_atom_site_fract_z
Si Si1 0.971640 0.405920 0.465490
Si Si2 0.236608 0.346675 0.723936
Si Si3 0.736608 0.826032 0.223935
Si Si4 0.471639 0.249896 0.965490
Si Si5 0.775237 0.708600 0.777415
Si Si6 0.275237 0.571068 0.277416
O O1 0.831345 0.665069 0.608873
O O2 0.086071 0.227206 0.547972
O O3 0.203157 0.516439 0.411040
O O4 0.785307 0.175254 0.303689
O O5 0.285302 0.156962 0.803691
O O6 0.520014 0.486615 0.731155
O O7 0.038853 0.598221 0.827962
O O8 0.538849 0.782545 0.327962
O O9 0.020011 0.700527 0.231157
O O10 0.586073 0.593572 0.047971
O O11 0.703152 0.030474 0.911038
O O12 0.331345 0.277516 0.108875
#
# Coordination Sequence:
#
# PCOD9000503 Si02
#       6
#     1   1   1   1   1   1
#     4  10  26  50  76 108 150 198 248 312 372 446
#     4  10  26  43  78 108 148 194 252 303 378 441
#     4  10  26  43  78 108 148 194 252 303 378 441
#     4  10  26  50  76 108 150 198 248 312 372 446
#     4  10  26  43  78 108 148 194 252 303 378 441
#     4  10  26  43  78 108 148 194 252 303 378 441
#
# _framework density 26.474136000000001
#
# number of rings (size 3 to 8) (size 9 to 14) (size 15 to 20)
#    2.000    0.000    0.000    0.000    9.333    5.333 
#    0.000    0.000    0.000    0.000    0.000    0.000 
#    0.000    0.000    0.000    0.000    0.000    0.000 
#
# Total GULP energy -33541.205460 kJ/mol
# GULP energy per Si atom -5590.200910 kJ/mol
# Density = 2.641388 g / cm^3
# Si number density = 26.474136 Si / 1000 Ang^3
#
#
#
# Elastic Constant Matrix: (Units=GPa)
#
#
# Indices 1 2 3 4 5 6 
#
# 1 147.3940 22.5421 40.0160 -5.8348 -32.1190 6.2295
# 2 22.5421 32.3262 22.0555 -6.3770 -11.0868 5.3036
# 3 40.0160 22.0555 135.8365 -4.4810 -27.0268 5.6820
# 4 -5.8348 -6.3770 -4.4810 44.4919 3.2184 9.5959
# 5 -32.1190 -11.0868 -27.0268 3.2184 55.1234 -3.7044
# 6 6.2295 5.3036 5.6820 9.5959 -3.7044 42.4528
#
#
#
# Elastic Compliance Matrix: (Units=1/GPa)
#
#
# Indices 1 2 3 4 5 6 
#
# 1 0.008481 -0.003791 -0.001147 0.000274 0.003576 -0.000367
# 2 -0.003791 0.039411 -0.004311 0.005535 0.002960 -0.004783
# 3 -0.001147 -0.004311 0.008976 -0.000018 0.002851 -0.000242
# 4 0.000274 0.005535 -0.000018 0.024721 -0.000608 -0.006370
# 5 0.003576 0.002960 0.002851 -0.000608 0.022308 0.000808
# 6 -0.000367 -0.004783 -0.000242 -0.006370 0.000808 0.025750
#
#
# Mechanical properties :
#
#
# Convention : Reuss Voigt Hill
#
# Bulk Modulus (GPa) = 26.06116 53.86485 39.96300
# Shear Modulus (GPa) = 31.06841 43.80984 37.43912
#
# Velocity S-wave (km/s) = 3.42941 4.07236 3.76463
# Velocity P-wave (km/s) = 5.05436 6.51939 5.83305
#
# Compressibility (1/GPa) = 0.03837128
#
# Stress axis : x y z
#
# Youngs Moduli (GPa) = 117.90472 25.37361 111.40458
#
# Poissons Ratio (x) = 0.09619 0.12779
# Poissons Ratio (y) = 0.44696 0.48024
# Poissons Ratio (z) = 0.13524 0.10938
#
# Static dielectric constant tensor:
#      x y z
#    x 1.980320 -0.004620 -0.029210 
#    y -0.004620 2.069530 -0.000730 
#    z -0.029210 -0.000730 2.051500 
# 
# From -- ./inp_files/169.got.cif
#   From: 2010.05.17/outbox.cif.g08.bks.cpg/sg1_1_cif.got.tgz:169.got - 2010.05.17 20:27:59.
