data_PCOD9000044
_publ_section_title
;
Structure prediction by ZEFSAII (Michael W. Deem and Ramdas Pophale) SiO2 
 PCOD9000044
Probable space group: P 1
;
_chemical_formula_sum "Si O2"
_cell_formula_units_Z 8
_cell_length_a 11.597852
_cell_length_b 6.676634
_cell_length_c 8.042761
_cell_angle_alpha 109.653760
_cell_angle_beta 40.536762
_cell_angle_gamma 97.047693
_cell_volume 372.094689
_symmetry_space_group_name_H-M "P 1"
_symmetry_group_IT_number 1
_symmetry_cell_setting 'triclinic'
loop_
_space_group_symop_operation_xyz
x,y,z
loop_
_atom_site_type_symbol
_atom_site_label
_atom_site_fract_x
_atom_site_fract_y
_atom_site_fract_z
Si Si1 0.282070 0.935830 0.846060
Si Si2 0.441614 0.561510 0.999907
Si Si3 0.864638 0.551858 0.799098
Si Si4 0.105231 0.416387 0.184347
Si Si5 0.622533 0.210394 0.963608
Si Si6 0.013551 0.613519 0.994203
Si Si7 0.500223 0.925896 0.268555
Si Si8 0.644449 0.783822 0.616795
O O1 0.381274 0.968627 0.574458
O O2 0.447778 0.862426 0.770831
O O3 0.156009 0.765308 0.907959
O O4 0.157516 0.163242 0.101624
O O5 0.280033 0.518384 0.053398
O O6 0.404780 0.789377 0.203985
O O7 0.490025 0.369596 0.027818
O O8 0.615202 0.578943 0.701419
O O9 0.777855 0.341563 0.863771
O O10 0.958532 0.535309 0.511694
O O11 0.008064 0.549856 0.789852
O O12 0.696079 0.762841 0.044210
O O13 0.053351 0.441355 0.054116
O O14 0.685144 0.978029 0.740026
O O15 0.528987 0.147305 0.214898
O O16 0.804817 0.729922 0.294587
#
# Coordination Sequence:
#
# PCOD9000044 Si02
#       8
#     1   1   1   1   1   1   1   1
#     4  12  25  44  69 104 136 180 232 282 341 408
#     4  10  21  41  69  97 136 182 226 279 344 408
#     4  11  25  45  68 102 142 182 229 283 346 411
#     4  12  25  43  68 108 139 178 233 286 341 410
#     4  10  21  42  69  98 132 186 225 279 344 404
#     4  12  26  45  71 103 144 180 228 288 345 410
#     4  10  23  43  69 100 135 185 228 280 348 407
#     4  11  22  45  71  98 140 181 225 285 345 406
#
# _framework density 21.499904999999998
#
# number of rings (size 3 to 8) (size 9 to 14) (size 15 to 20)
#    0.000    1.000    3.750    3.750    0.000    5.000 
#    2.250    0.000    0.000    0.000    0.000    0.000 
#    0.000    0.000    0.000    0.000    0.000    0.000 
#
# Total GULP energy -44705.229895 kJ/mol
# GULP energy per Si atom -5588.153737 kJ/mol
# Density = 2.145097 g / cm^3
# Si number density = 21.499905 Si / 1000 Ang^3
#
#
#
# Elastic Constant Matrix: (Units=GPa)
#
#
# Indices 1 2 3 4 5 6 
#
# 1 129.3539 28.6272 1.1811 0.8369 -12.9730 -5.3812
# 2 28.6272 105.6602 18.8006 -25.1973 -12.1540 -6.4323
# 3 1.1811 18.8006 73.1164 -10.8721 -0.8596 -12.6603
# 4 0.8369 -25.1973 -10.8721 27.8821 -6.4326 1.5319
# 5 -12.9730 -12.1540 -0.8596 -6.4326 27.4602 -7.5741
# 6 -5.3812 -6.4323 -12.6603 1.5319 -7.5741 30.2006
#
#
#
# Elastic Compliance Matrix: (Units=1/GPa)
#
#
# Indices 1 2 3 4 5 6 
#
# 1 0.008673 -0.002268 0.000670 -0.001385 0.003416 0.002270
# 2 -0.002268 0.015561 -0.000655 0.016123 0.010822 0.004532
# 3 0.000670 -0.000655 0.016085 0.006181 0.004024 0.007419
# 4 -0.001385 0.016123 0.006181 0.057615 0.022517 0.008503
# 5 0.003416 0.010822 0.004024 0.022517 0.052829 0.016708
# 6 0.002270 0.004532 0.007419 0.008503 0.016708 0.041351
#
#
# Mechanical properties :
#
#
# Convention : Reuss Voigt Hill
#
# Bulk Modulus (GPa) = 27.92286 45.03868 36.48077
# Shear Modulus (GPa) = 23.97416 34.41002 29.19209
#
# Velocity S-wave (km/s) = 3.34291 4.00493 3.68880
# Velocity P-wave (km/s) = 5.28353 6.50997 5.92855
#
# Compressibility (1/GPa) = 0.03581295
#
# Stress axis : x y z
#
# Youngs Moduli (GPa) = 115.30598 64.26268 62.16792
#
# Poissons Ratio (x) = 0.14576 -0.04168
# Poissons Ratio (y) = 0.26154 0.04074
# Poissons Ratio (z) = -0.07730 0.04211
#
# Static dielectric constant tensor:
#      x y z
#    x 1.812670 -0.039570 0.014270 
#    y -0.039570 1.772500 0.002270 
#    z 0.014270 0.002270 1.791590 
# 
# From -- ./inp_files/2182.got.cif
#   From: 2010.05.17/outbox.cif.g08.bks.cpg/sg1_2_cif.got.tgz:2182.got - 2010.05.17 20:27:59.
