data_PCOD9000648
_publ_section_title
;
Structure prediction by ZEFSAII (Michael W. Deem and Ramdas Pophale) SiO2 
 PCOD9000648
Probable space group: P 1
;
_chemical_formula_sum "Si O2"
_cell_formula_units_Z 8
_cell_length_a 11.389276
_cell_length_b 5.196053
_cell_length_c 5.196063
_cell_angle_alpha 90.309322
_cell_angle_beta 108.312936
_cell_angle_gamma 98.022371
_cell_volume 288.671986
_symmetry_space_group_name_H-M "P 1"
_symmetry_group_IT_number 1
_symmetry_cell_setting 'triclinic'
loop_
_space_group_symop_operation_xyz
x,y,z
loop_
_atom_site_type_symbol
_atom_site_label
_atom_site_fract_x
_atom_site_fract_y
_atom_site_fract_z
Si Si1 0.560900 0.669780 0.821250
Si Si2 0.925187 0.154133 0.701277
Si Si3 0.428882 0.949150 0.371674
Si Si4 0.676254 0.308498 0.497136
Si Si5 0.127215 0.567804 0.645584
Si Si6 0.809842 0.714623 0.224607
Si Si7 0.057239 0.836577 0.112646
Si Si8 0.358885 0.412103 0.032958
O O1 0.608112 0.515047 0.609810
O O2 0.461360 0.862749 0.681439
O O3 0.688505 0.817708 0.026354
O O4 0.484507 0.451980 0.949491
O O5 0.877923 0.895468 0.499316
O O6 0.797600 0.231721 0.721627
O O7 0.001590 0.358725 0.559828
O O8 0.024756 0.113863 0.993735
O O9 0.570011 0.064518 0.380959
O O10 0.351348 0.171843 0.224050
O O11 0.373670 0.679907 0.202299
O O12 0.743051 0.445393 0.294705
O O13 0.134774 0.766433 0.412871
O O14 0.112415 0.722386 0.898569
O O15 0.243049 0.411797 0.761121
O O16 0.916118 0.704760 0.086959
#
# Coordination Sequence:
#
# PCOD9000648 Si02
#       8
#     1   1   1   1   1   1   1   1
#     4  12  26  49  81 118 167 215 270 342 417 492
#     4  12  26  49  81 118 167 215 270 342 417 492
#     4  12  27  54  76 120 159 214 272 339 412 485
#     4  12  24  48  78 120 164 213 268 342 416 497
#     4  12  31  53  81 115 163 217 281 336 408 490
#     4  12  24  48  78 120 164 213 268 342 416 497
#     4  12  27  54  76 120 159 214 272 339 412 485
#     4  12  31  53  81 115 163 217 281 336 408 490
#
# _framework density 27.713114999999998
#
# number of rings (size 3 to 8) (size 9 to 14) (size 15 to 20)
#    0.000    0.000    5.000    3.750    7.000    2.000 
#    4.500    1.250    0.000    0.000    0.000    0.000 
#    0.000    0.000    0.000    0.000    0.000    0.000 
#
# Total GULP energy -44823.182573 kJ/mol
# GULP energy per Si atom -5602.897822 kJ/mol
# Density = 2.765004 g / cm^3
# Si number density = 27.713115 Si / 1000 Ang^3
#
#
#
# Elastic Constant Matrix: (Units=GPa)
#
#
# Indices 1 2 3 4 5 6 
#
# 1 91.6778 2.0896 31.6116 -6.3336 20.5715 -16.8534
# 2 2.0896 132.4960 44.3042 -24.4123 6.2263 -0.7609
# 3 31.6116 44.3042 146.3712 -35.9556 9.1544 -18.4759
# 4 -6.3336 -24.4123 -35.9556 53.2134 -3.4169 6.0125
# 5 20.5715 6.2263 9.1544 -3.4169 64.5016 -12.0620
# 6 -16.8534 -0.7609 -18.4759 6.0125 -12.0620 40.3463
#
#
#
# Elastic Compliance Matrix: (Units=1/GPa)
#
#
# Indices 1 2 3 4 5 6 
#
# 1 0.013091 0.000733 -0.002512 -0.000398 -0.003272 0.003413
# 2 0.000733 0.008822 -0.002270 0.002684 -0.000849 -0.001221
# 3 -0.002512 -0.002270 0.009565 0.004846 0.000423 0.002693
# 4 -0.000398 0.002684 0.004846 0.023412 0.000171 -0.001335
# 5 -0.003272 -0.000849 0.000423 0.000171 0.017319 0.003963
# 6 0.003413 -0.001221 0.002693 -0.001335 0.003963 0.028805
#
#
# Mechanical properties :
#
#
# Convention : Reuss Voigt Hill
#
# Bulk Modulus (GPa) = 42.76857 58.50621 50.63739
# Shear Modulus (GPa) = 42.76919 51.11491 46.94205
#
# Velocity S-wave (km/s) = 3.93273 4.29934 4.12011
# Velocity P-wave (km/s) = 6.00732 6.76779 6.39886
#
# Compressibility (1/GPa) = 0.02338165
#
# Stress axis : x y z
#
# Youngs Moduli (GPa) = 76.38651 113.34711 104.54414
#
# Poissons Ratio (x) = -0.08313 0.26258
# Poissons Ratio (y) = -0.05602 0.23737
# Poissons Ratio (z) = 0.19185 0.25735
#
# Static dielectric constant tensor:
#      x y z
#    x 2.112330 -0.087700 0.065910 
#    y -0.087700 2.197900 -0.061820 
#    z 0.065910 -0.061820 2.275590 
# 
# From -- ./inp_files/1990.got.cif
#   From: 2010.05.17/outbox.cif.g08.bks.cpg/sg1_1_cif.got.tgz:1990.got - 2010.05.17 20:27:59.
