data_PCOD9000611
_publ_section_title
;
Structure prediction by ZEFSAII (Michael W. Deem and Ramdas Pophale) SiO2 
 PCOD9000611
Probable space group: P 1
;
_chemical_formula_sum "Si O2"
_cell_formula_units_Z 8
_cell_length_a 8.436066
_cell_length_b 11.535741
_cell_length_c 5.096666
_cell_angle_alpha 78.371617
_cell_angle_beta 95.848273
_cell_angle_gamma 41.043064
_cell_volume 293.081464
_symmetry_space_group_name_H-M "P 1"
_symmetry_group_IT_number 1
_symmetry_cell_setting 'triclinic'
loop_
_space_group_symop_operation_xyz
x,y,z
loop_
_atom_site_type_symbol
_atom_site_label
_atom_site_fract_x
_atom_site_fract_y
_atom_site_fract_z
Si Si1 0.524240 0.178400 0.221090
Si Si2 0.649313 0.508896 0.751483
Si Si3 0.095845 0.620836 0.940718
Si Si4 0.183092 0.265523 0.727525
Si Si5 0.916220 0.123730 0.126648
Si Si6 0.389446 0.993021 0.491959
Si Si7 0.311096 0.746578 0.058548
Si Si8 0.861080 0.661191 0.360967
O O1 0.329580 0.397094 0.178040
O O2 0.475470 0.080515 0.395249
O O3 0.803634 0.076890 0.287919
O O4 0.415602 0.208897 0.900824
O O5 0.487934 0.615669 0.405702
O O6 0.950906 0.374783 0.845083
O O7 0.499927 0.666916 0.884612
O O8 0.681261 0.350539 0.899756
O O9 0.172318 0.708522 0.962877
O O10 0.858617 0.727255 0.051023
O O11 0.031424 0.632427 0.621173
O O12 0.309699 0.070010 0.742748
O O13 0.002414 0.452691 0.424841
O O14 0.120298 0.085638 0.329410
O O15 0.081886 0.972181 0.985973
O O16 0.599672 0.801728 0.428591
#
# Coordination Sequence:
#
# PCOD9000611 Si02
#       8
#     1   1   1   1   1   1   1   1
#     4  11  25  49  77 108 154 201 254 314 391 452
#     4  12  27  50  78 110 159 204 259 320 386 460
#     4  11  24  49  75 113 150 204 252 322 385 457
#     4  11  26  47  74 107 153 205 248 318 387 450
#     4  12  28  50  79 118 156 206 261 322 390 468
#     4  12  26  49  77 113 150 204 256 318 386 462
#     4  12  28  49  78 116 157 205 260 323 390 463
#     4  11  26  45  78 107 153 199 258 313 387 458
#
# _framework density 27.296164000000001
#
# number of rings (size 3 to 8) (size 9 to 14) (size 15 to 20)
#    0.000    0.500    3.750    3.000    5.250    5.000 
#    0.000    0.000    0.000    0.000    0.000    0.000 
#    0.000    0.000    0.000    0.000    0.000    0.000 
#
# Total GULP energy -44734.724182 kJ/mol
# GULP energy per Si atom -5591.840523 kJ/mol
# Density = 2.723404 g / cm^3
# Si number density = 27.296164 Si / 1000 Ang^3
#
#
#
# Elastic Constant Matrix: (Units=GPa)
#
#
# Indices 1 2 3 4 5 6 
#
# 1 139.7408 11.3690 -10.0939 3.5848 -9.7392 -5.2347
# 2 11.3690 162.1329 15.6097 20.8403 -2.0482 -15.0261
# 3 -10.0939 15.6097 48.4793 19.2985 -1.0586 0.6086
# 4 3.5848 20.8403 19.2985 38.3941 1.5618 -6.0778
# 5 -9.7392 -2.0482 -1.0586 1.5618 33.7690 5.8307
# 6 -5.2347 -15.0261 0.6086 -6.0778 5.8307 46.7975
#
#
#
# Elastic Compliance Matrix: (Units=1/GPa)
#
#
# Indices 1 2 3 4 5 6 
#
# 1 0.007587 -0.000504 0.002490 -0.001757 0.002293 0.000141
# 2 -0.000504 0.006844 -0.001228 -0.002769 0.000050 0.001791
# 3 0.002490 -0.001228 0.027078 -0.013687 0.002568 -0.002565
# 4 -0.001757 -0.002769 -0.013687 0.035385 -0.003451 0.004118
# 5 0.002293 0.000050 0.002568 -0.003451 0.031225 -0.004100
# 6 0.000141 0.001791 -0.002565 0.004118 -0.004100 0.023038
#
#
# Mechanical properties :
#
#
# Convention : Reuss Voigt Hill
#
# Bulk Modulus (GPa) = 23.24188 42.68028 32.96108
# Shear Modulus (GPa) = 34.72639 46.02332 40.37485
#
# Velocity S-wave (km/s) = 3.57067 4.11064 3.85013
# Velocity P-wave (km/s) = 5.05300 6.18059 5.64502
#
# Compressibility (1/GPa) = 0.04302579
#
# Stress axis : x y z
#
# Youngs Moduli (GPa) = 131.80295 146.11562 36.93042
#
# Poissons Ratio (x) = 0.07362 -0.09195
# Poissons Ratio (y) = 0.06641 0.04533
# Poissons Ratio (z) = -0.32817 0.17936
#
# Static dielectric constant tensor:
#      x y z
#    x 2.120170 -0.034700 -0.073450 
#    y -0.034700 2.143660 -0.019200 
#    z -0.073450 -0.019200 2.247220 
# 
# From -- ./inp_files/1661.got.cif
#   From: 2010.05.17/outbox.cif.g08.bks.cpg/sg1_1_cif.got.tgz:1661.got - 2010.05.17 20:27:59.
