data_PCOD9000910
_publ_section_title
;
Structure prediction by ZEFSAII (Michael W. Deem and Ramdas Pophale) SiO2 
 PCOD9000910
Probable space group: P 1
;
_chemical_formula_sum "Si O2"
_cell_formula_units_Z 8
_cell_length_a 8.944291
_cell_length_b 13.786331
_cell_length_c 12.305535
_cell_angle_alpha 149.228492
_cell_angle_beta 141.789337
_cell_angle_gamma 29.073195
_cell_volume 373.521247
_symmetry_space_group_name_H-M "P 1"
_symmetry_group_IT_number 1
_symmetry_cell_setting 'triclinic'
loop_
_space_group_symop_operation_xyz
x,y,z
loop_
_atom_site_type_symbol
_atom_site_label
_atom_site_fract_x
_atom_site_fract_y
_atom_site_fract_z
Si Si1 0.206340 0.645890 0.095840
Si Si2 0.702881 0.861964 0.496240
Si Si3 0.352723 0.917265 0.567680
Si Si4 0.342277 0.455501 0.556231
Si Si5 0.941349 0.791375 0.853158
Si Si6 0.844535 0.151772 0.980067
Si Si7 0.519416 0.958711 0.240544
Si Si8 0.877134 0.471085 0.848840
O O1 0.185729 0.801756 0.334446
O O2 0.573914 0.435653 0.089804
O O3 0.063523 0.781875 0.031587
O O4 0.044413 0.522688 0.905989
O O5 0.470399 0.922037 0.518784
O O6 0.026367 0.587680 0.432583
O O7 0.537827 0.935657 0.358376
O O8 0.809831 0.024640 0.738246
O O9 0.672271 0.763579 0.670893
O O10 0.124673 0.186796 0.746414
O O11 0.530215 0.170696 0.411228
O O12 0.566990 0.502288 0.676996
O O13 0.209498 0.594304 0.731460
O O14 0.790974 0.049103 0.958033
O O15 0.186314 0.060736 0.101788
O O16 0.768023 0.682493 0.075950
#
# Coordination Sequence:
#
# PCOD9000910 Si02
#       8
#     1   1   1   1   1   1   1   1
#     4  12  23  43  72  91 131 182 204 268 337 367
#     4  10  21  45  69  96 126 172 226 264 308 390
#     4  10  23  44  66  98 132 165 226 268 306 399
#     4  10  23  44  66  98 132 165 226 268 306 399
#     4  10  21  45  69  96 126 172 226 264 308 390
#     4  10  20  42  70  98 128 162 232 266 300 400
#     4  12  23  43  72  91 131 182 204 268 337 367
#     4  12  24  46  60 100 146 156 212 282 318 380
#
# _framework density 21.417791000000001
#
# number of rings (size 3 to 8) (size 9 to 14) (size 15 to 20)
#    0.000    1.500    5.000    3.750    0.000    0.000 
#   13.500    0.000    0.000    0.000    0.000    0.000 
#    0.000    0.000    0.000    0.000    0.000    0.000 
#
# Total GULP energy -44614.018085 kJ/mol
# GULP energy per Si atom -5576.752261 kJ/mol
# Density = 2.136904 g / cm^3
# Si number density = 21.417791 Si / 1000 Ang^3
#
#
#
# Elastic Constant Matrix: (Units=GPa)
#
#
# Indices 1 2 3 4 5 6 
#
# 1 25.2112 11.3975 11.7987 -3.3978 22.4660 -18.7451
# 2 11.3975 78.6865 40.7577 16.8997 -10.4860 -16.7192
# 3 11.7987 40.7577 85.0136 4.5108 11.1125 0.8320
# 4 -3.3978 16.8997 4.5108 30.5676 -1.2118 5.6080
# 5 22.4660 -10.4860 11.1125 -1.2118 27.2934 -3.1098
# 6 -18.7451 -16.7192 0.8320 5.6080 -3.1098 30.2864
#
#
#
# Elastic Compliance Matrix: (Units=1/GPa)
#
#
# Indices 1 2 3 4 5 6 
#
# 1 -0.220512 0.064226 -0.024602 -0.034869 0.206370 -0.072703
# 2 0.064226 0.017870 -0.012679 -0.011161 -0.035825 0.048352
# 3 -0.024602 -0.012679 0.020582 0.005709 0.004589 -0.023377
# 4 -0.034869 -0.011161 0.005709 0.041099 0.020104 -0.033445
# 5 0.206370 -0.035825 0.004589 0.020104 -0.137719 0.089962
# 6 -0.072703 0.048352 -0.023377 -0.033445 0.089962 0.030784
#
#
# Mechanical properties :
#
#
# Convention : Reuss Voigt Hill
#
# Bulk Modulus (GPa) = -7.80216 35.20215 13.69999
# Shear Modulus (GPa) = -14.51339 25.95997 5.72329
#
# Velocity S-wave (km/s) = -2.60596 3.48526 1.63646
# Velocity P-wave (km/s) = 3.56447 5.71557 3.15929
#
# Compressibility (1/GPa) = -0.12816963
#
# Stress axis : x y z
#
# Youngs Moduli (GPa) = -4.53490 55.96000 48.58634
#
# Poissons Ratio (x) = -3.59408 1.19530
# Poissons Ratio (y) = 0.29126 0.61603
# Poissons Ratio (z) = -0.11157 0.70952
#
# Static dielectric constant tensor:
#      x y z
#    x 1.804870 -0.035180 0.061940 
#    y -0.035180 1.770630 0.021950 
#    z 0.061940 0.021950 1.819400 
# 
# From -- ./inp_files/6626.got.cif
#   From: 2010.05.17/outbox.cif.g08.bks.cpg/sg1_4_cif.got.tgz:6626.got - 2010.05.17 20:27:59.
