data_PCOD9000821
_publ_section_title
;
Structure prediction by ZEFSAII (Michael W. Deem and Ramdas Pophale) SiO2 
 PCOD9000821
Probable space group: P 1
;
_chemical_formula_sum "Si O2"
_cell_formula_units_Z 8
_cell_length_a 8.033958
_cell_length_b 7.741467
_cell_length_c 11.830406
_cell_angle_alpha 76.006430
_cell_angle_beta 117.046959
_cell_angle_gamma 143.173056
_cell_volume 382.373711
_symmetry_space_group_name_H-M "P 1"
_symmetry_group_IT_number 1
_symmetry_cell_setting 'triclinic'
loop_
_space_group_symop_operation_xyz
x,y,z
loop_
_atom_site_type_symbol
_atom_site_label
_atom_site_fract_x
_atom_site_fract_y
_atom_site_fract_z
Si Si1 0.245910 0.736160 0.594270
Si Si2 0.699351 0.809805 0.629736
Si Si3 0.356799 0.484526 0.784167
Si Si4 0.665607 0.944421 0.207618
Si Si5 0.712328 0.670458 0.084612
Si Si6 0.511399 0.183600 0.440127
Si Si7 0.357229 0.456980 0.367863
Si Si8 0.398405 0.088077 0.175726
O O1 0.427163 0.752217 0.555977
O O2 0.333207 0.684189 0.739133
O O3 0.880265 0.463950 0.517823
O O4 0.375732 0.021445 0.545574
O O5 0.612585 0.634096 0.743319
O O6 0.623226 0.655857 0.514932
O O7 0.030305 0.154323 0.693622
O O8 0.457001 0.495474 0.934818
O O9 0.716011 0.857490 0.127121
O O10 0.454813 0.666122 0.268413
O O11 0.504264 0.013673 0.133872
O O12 0.001826 0.226917 0.325994
O O13 0.042524 0.880643 0.094699
O O14 0.617208 0.427254 0.169725
O O15 0.362375 0.260422 0.356772
O O16 0.438306 0.032290 0.322369
#
# Coordination Sequence:
#
# PCOD9000821 Si02
#       8
#     1   1   1   1   1   1   1   1
#     4  10  20  37  60  90 118 173 209 257 330 374
#     4  10  20  40  61  91 119 178 214 255 334 374
#     4  10  22  41  67  87 129 183 212 267 323 385
#     4  12  24  44  66 100 134 174 215 277 339 384
#     4  12  24  47  67  98 135 174 234 257 325 407
#     4  12  20  37  61  98 135 155 219 270 328 396
#     4  12  23  39  63  99 139 165 217 277 334 398
#     4  12  25  41  69 101 131 178 214 278 335 388
#
# _framework density 20.921941
#
# number of rings (size 3 to 8) (size 9 to 14) (size 15 to 20)
#    0.750    0.000    3.750    5.250    0.000    0.000 
#    0.000    3.750    2.750    0.000    0.000    0.000 
#    0.000    0.000    0.000    0.000    0.000    0.000 
#
# Total GULP energy -44558.880655 kJ/mol
# GULP energy per Si atom -5569.860082 kJ/mol
# Density = 2.087432 g / cm^3
# Si number density = 20.921941 Si / 1000 Ang^3
#
#
#
# Elastic Constant Matrix: (Units=GPa)
#
#
# Indices 1 2 3 4 5 6 
#
# 1 92.1084 15.2579 27.4865 13.1810 7.2863 -5.6330
# 2 15.2579 98.9056 16.1972 7.4720 7.0673 14.2028
# 3 27.4865 16.1972 43.1193 -2.5837 0.4330 -0.8679
# 4 13.1810 7.4720 -2.5837 26.5566 0.7022 3.1401
# 5 7.2863 7.0673 0.4330 0.7022 20.1259 8.2212
# 6 -5.6330 14.2028 -0.8679 3.1401 8.2212 18.3347
#
#
#
# Elastic Compliance Matrix: (Units=1/GPa)
#
#
# Indices 1 2 3 4 5 6 
#
# 1 0.017351 -0.001090 -0.010937 -0.010523 -0.010215 0.012040
# 2 -0.001090 0.012585 -0.004371 -0.002248 0.000237 -0.010012
# 3 -0.010937 -0.004371 0.032294 0.009965 0.005526 -0.002630
# 4 -0.010523 -0.002248 0.009965 0.045736 0.007841 -0.012369
# 5 -0.010215 0.000237 0.005526 0.007841 0.066976 -0.034435
# 6 0.012040 -0.010012 -0.002630 -0.012369 -0.034435 0.083431
#
#
# Mechanical properties :
#
#
# Convention : Reuss Voigt Hill
#
# Bulk Modulus (GPa) = 33.97384 39.11294 36.54339
# Shear Modulus (GPa) = 16.61239 24.68287 20.64763
#
# Velocity S-wave (km/s) = 2.82089 3.43849 3.14489
# Velocity P-wave (km/s) = 5.18493 5.87363 5.53999
#
# Compressibility (1/GPa) = 0.02943441
#
# Stress axis : x y z
#
# Youngs Moduli (GPa) = 57.63283 79.45805 30.96548
#
# Poissons Ratio (x) = 0.08658 0.33867
# Poissons Ratio (y) = 0.06280 0.13536
# Poissons Ratio (z) = 0.63032 0.34735
#
# Static dielectric constant tensor:
#      x y z
#    x 1.823280 -0.078570 -0.013580 
#    y -0.078570 1.831070 -0.012470 
#    z -0.013580 -0.012470 1.719060 
# 
# From -- ./inp_files/4838.got.cif
#   From: 2010.05.17/outbox.cif.g08.bks.cpg/sg1_3_cif.got.tgz:4838.got - 2010.05.17 20:27:59.
