data_PCOD9000012
_publ_section_title
;
Structure prediction by ZEFSAII (Michael W. Deem and Ramdas Pophale) SiO2 
 PCOD9000012
Probable space group: P 1
;
_chemical_formula_sum "Si O2"
_cell_formula_units_Z 8
_cell_length_a 9.646214
_cell_length_b 6.964732
_cell_length_c 7.793866
_cell_angle_alpha 59.812440
_cell_angle_beta 130.633397
_cell_angle_gamma 93.125139
_cell_volume 312.335979
_symmetry_space_group_name_H-M "P 1"
_symmetry_group_IT_number 1
_symmetry_cell_setting 'triclinic'
loop_
_space_group_symop_operation_xyz
x,y,z
loop_
_atom_site_type_symbol
_atom_site_label
_atom_site_fract_x
_atom_site_fract_y
_atom_site_fract_z
Si Si1 0.334340 0.553170 0.405520
Si Si2 0.708984 0.047145 0.908582
Si Si3 0.730813 0.534453 0.193397
Si Si4 0.258219 0.063328 0.221753
Si Si5 0.776826 0.814444 0.383064
Si Si6 0.305736 0.931070 0.957469
Si Si7 0.065354 0.271208 0.320561
Si Si8 0.678120 0.099368 0.496725
O O1 0.538847 0.312655 0.687556
O O2 0.318946 0.671763 0.150586
O O3 0.164409 0.463130 0.346162
O O4 0.321260 0.771764 0.420574
O O5 0.636670 0.823458 0.941157
O O6 0.797002 0.058774 0.789714
O O7 0.839527 0.965715 0.223416
O O8 0.839386 0.559868 0.449019
O O9 0.630715 0.356001 0.250567
O O10 0.854733 0.407003 0.183102
O O11 0.103676 0.209184 0.178734
O O12 0.464443 0.100960 0.376720
O O13 0.197561 0.103213 0.954297
O O14 0.810501 0.880465 0.572202
O O15 0.532071 0.912421 0.147657
O O16 0.194755 0.035460 0.646409
#
# Coordination Sequence:
#
# PCOD9000012 Si02
#       8
#     1   1   1   1   1   1   1   1
#     4  10  21  40  64  91 124 155 222 256 290 379
#     4  10  21  42  60  95 125 166 208 257 308 362
#     4  10  26  39  63  97 131 165 201 250 329 380
#     4   9  23  39  68  99 109 171 219 248 321 350
#     4   9  20  41  59  96 119 161 215 246 313 356
#     4   9  20  41  63  94 115 162 218 253 301 356
#     4  12  21  46  60  93 138 159 199 267 315 371
#     4  11  20  42  65  89 129 159 214 261 297 376
#
# _framework density 25.613443
#
# number of rings (size 3 to 8) (size 9 to 14) (size 15 to 20)
#    1.500    0.500    2.500    0.750    0.000    3.000 
#    6.750    0.000    0.000    0.000    0.000    0.000 
#    0.000    0.000    0.000    0.000    0.000    0.000 
#
# Total GULP energy -44604.942700 kJ/mol
# GULP energy per Si atom -5575.617837 kJ/mol
# Density = 2.555515 g / cm^3
# Si number density = 25.613443 Si / 1000 Ang^3
#
#
#
# Elastic Constant Matrix: (Units=GPa)
#
#
# Indices 1 2 3 4 5 6 
#
# 1 122.2371 61.0771 37.4373 8.4954 -34.0272 -24.3825
# 2 61.0771 156.8518 22.0712 -4.8647 -5.6875 -20.6760
# 3 37.4373 22.0712 71.7671 -6.6335 -16.0970 2.6132
# 4 8.4954 -4.8647 -6.6335 46.9563 -8.0501 -16.3738
# 5 -34.0272 -5.6875 -16.0970 -8.0501 33.9610 -2.8723
# 6 -24.3825 -20.6760 2.6132 -16.3738 -2.8723 52.7756
#
#
#
# Elastic Compliance Matrix: (Units=1/GPa)
#
#
# Indices 1 2 3 4 5 6 
#
# 1 0.017754 -0.004648 -0.004466 0.001110 0.015817 0.007808
# 2 -0.004648 0.008432 -0.000771 0.001605 -0.003101 0.001524
# 3 -0.004466 -0.000771 0.017891 0.003340 0.004501 -0.001970
# 4 0.001110 0.001605 0.003340 0.026926 0.010182 0.009884
# 5 0.015817 -0.003101 0.004501 0.010182 0.050316 0.011767
# 6 0.007808 0.001524 -0.001970 0.009884 0.011767 0.026957
#
#
# Mechanical properties :
#
#
# Convention : Reuss Voigt Hill
#
# Bulk Modulus (GPa) = 41.14084 65.78077 53.46081
# Shear Modulus (GPa) = 28.38499 42.08995 35.23747
#
# Velocity S-wave (km/s) = 3.33259 4.05813 3.71312
# Velocity P-wave (km/s) = 5.55925 6.90621 6.26901
#
# Compressibility (1/GPa) = 0.02430675
#
# Stress axis : x y z
#
# Youngs Moduli (GPa) = 56.32440 118.59641 55.89396
#
# Poissons Ratio (x) = 0.55121 0.24963
# Poissons Ratio (y) = 0.26178 0.04311
# Poissons Ratio (z) = 0.25156 0.09147
#
# Static dielectric constant tensor:
#      x y z
#    x 2.035740 0.024200 0.025370 
#    y 0.024200 2.062900 0.061050 
#    z 0.025370 0.061050 2.066060 
# 
# From -- ./inp_files/3520.got.cif
#   From: 2010.05.17/outbox.cif.g08.bks.cpg/sg1_2_cif.got.tgz:3520.got - 2010.05.17 20:27:59.
