data_PCOD9000513
_publ_section_title
;
Structure prediction by ZEFSAII (Michael W. Deem and Ramdas Pophale) SiO2 
 PCOD9000513
Probable space group: P 1
;
_chemical_formula_sum "Si O2"
_cell_formula_units_Z 6
_cell_length_a 6.241056
_cell_length_b 11.507038
_cell_length_c 4.666625
_cell_angle_alpha 80.433796
_cell_angle_beta 98.218446
_cell_angle_gamma 50.461236
_cell_volume 240.843687
_symmetry_space_group_name_H-M "P 1"
_symmetry_group_IT_number 1
_symmetry_cell_setting 'triclinic'
loop_
_space_group_symop_operation_xyz
x,y,z
loop_
_atom_site_type_symbol
_atom_site_label
_atom_site_fract_x
_atom_site_fract_y
_atom_site_fract_z
Si Si1 0.860420 0.806180 0.340310
Si Si2 0.871313 0.971235 0.746854
Si Si3 0.942916 0.429969 0.754694
Si Si4 0.534212 0.732167 0.932307
Si Si5 0.350607 0.318317 0.345705
Si Si6 0.436975 0.517245 0.909409
O O1 0.728482 0.920022 0.545262
O O2 0.397664 0.424182 0.150788
O O3 0.160350 0.644665 0.599915
O O4 0.675195 0.776396 0.147662
O O5 0.909650 0.896149 0.092123
O O6 0.196537 0.888607 0.731052
O O7 0.644392 0.160727 0.604970
O O8 0.216599 0.294726 0.065413
O O9 0.091708 0.406764 0.494455
O O10 0.761166 0.611548 0.770585
O O11 0.486273 0.614708 0.078622
O O12 0.710724 0.412687 0.786614
#
# Coordination Sequence:
#
# PCOD9000513 Si02
#       6
#     1   1   1   1   1   1
#     4  11  25  49  77 111 150 209 256 315 379 469
#     4  11  27  48  78 110 158 202 251 320 395 452
#     4  10  27  45  78 116 150 201 257 315 387 455
#     4   9  25  49  79 108 148 207 261 306 384 459
#     4  12  26  49  78 117 155 199 255 325 390 452
#     4   9  26  48  82 112 153 200 262 321 377 457
#
# _framework density 24.912424000000001
#
# number of rings (size 3 to 8) (size 9 to 14) (size 15 to 20)
#    1.000    0.667    0.000    1.000    9.333    5.333 
#    0.000    3.333    0.000    0.000    0.000    0.000 
#    0.000    0.000    0.000    0.000    0.000    0.000 
#
# Total GULP energy -33497.452933 kJ/mol
# GULP energy per Si atom -5582.908822 kJ/mol
# Density = 2.485572 g / cm^3
# Si number density = 24.912424 Si / 1000 Ang^3
#
#
#
# Elastic Constant Matrix: (Units=GPa)
#
#
# Indices 1 2 3 4 5 6 
#
# 1 160.2590 69.0840 85.7798 -27.1966 -7.4766 -11.7851
# 2 69.0840 101.5223 59.9222 -36.2643 -3.4037 -18.1666
# 3 85.7798 59.9222 165.6854 -19.1148 -21.5276 -0.0477
# 4 -27.1966 -36.2643 -19.1148 46.7010 3.0651 6.9494
# 5 -7.4766 -3.4037 -21.5276 3.0651 60.8193 7.9233
# 6 -11.7851 -18.1666 -0.0477 6.9494 7.9233 31.0957
#
#
#
# Elastic Compliance Matrix: (Units=1/GPa)
#
#
# Indices 1 2 3 4 5 6 
#
# 1 0.010322 -0.004201 -0.003773 0.001037 -0.000531 0.001355
# 2 -0.004201 0.020535 -0.004362 0.010590 -0.002577 0.008687
# 3 -0.003773 -0.004362 0.009888 -0.001079 0.003446 -0.004600
# 4 0.001037 0.010590 -0.001079 0.029845 -0.001193 0.000212
# 5 -0.000531 -0.002577 0.003446 -0.001193 0.018307 -0.006099
# 6 0.001355 0.008687 -0.004600 0.000212 -0.006099 0.039247
#
#
# Mechanical properties :
#
#
# Convention : Reuss Voigt Hill
#
# Bulk Modulus (GPa) = 62.22183 95.22653 78.72418
# Shear Modulus (GPa) = 31.61069 41.90190 36.75630
#
# Velocity S-wave (km/s) = 3.56599 4.10563 3.84529
# Velocity P-wave (km/s) = 6.47962 7.79631 7.16826
#
# Compressibility (1/GPa) = 0.01607153
#
# Stress axis : x y z
#
# Youngs Moduli (GPa) = 96.88494 48.69853 101.12772
#
# Poissons Ratio (x) = 0.20460 0.38157
# Poissons Ratio (y) = 0.40705 0.44111
# Poissons Ratio (z) = 0.36556 0.21242
#
# Static dielectric constant tensor:
#      x y z
#    x 2.046840 0.036440 0.017130 
#    y 0.036440 2.009570 0.043050 
#    z 0.017130 0.043050 2.004150 
# 
# From -- ./inp_files/200.got.cif
#   From: 2010.05.17/outbox.cif.g08.bks.cpg/sg1_1_cif.got.tgz:200.got - 2010.05.17 20:27:59.
