data_PCOD9000726
_publ_section_title
;
Structure prediction by ZEFSAII (Michael W. Deem and Ramdas Pophale) SiO2 
 PCOD9000726
Probable space group: P 1
;
_chemical_formula_sum "Si O2"
_cell_formula_units_Z 8
_cell_length_a 11.540245
_cell_length_b 14.825062
_cell_length_c 5.431573
_cell_angle_alpha 68.507768
_cell_angle_beta 61.922748
_cell_angle_gamma 30.755209
_cell_volume 417.775691
_symmetry_space_group_name_H-M "P 1"
_symmetry_group_IT_number 1
_symmetry_cell_setting 'triclinic'
loop_
_space_group_symop_operation_xyz
x,y,z
loop_
_atom_site_type_symbol
_atom_site_label
_atom_site_fract_x
_atom_site_fract_y
_atom_site_fract_z
Si Si1 0.071050 0.151720 0.832070
Si Si2 0.749183 0.615097 0.690559
Si Si3 0.297827 0.212289 0.544726
Si Si4 0.281843 0.799527 0.973468
Si Si5 0.578879 0.822285 0.153676
Si Si6 0.997059 0.153009 0.404772
Si Si7 0.032204 0.909278 0.613356
Si Si8 0.576929 0.052895 0.925018
O O1 0.273131 0.109816 0.671893
O O2 0.924074 0.250132 0.629942
O O3 0.176661 0.976307 0.901871
O O4 0.924074 0.250132 0.131328
O O5 0.565028 0.639061 0.850750
O O6 0.688650 0.709417 0.908703
O O7 0.025162 0.415842 0.613835
O O8 0.688650 0.709416 0.404841
O O9 0.429889 0.163399 0.710411
O O10 0.429895 0.163395 0.212700
O O11 0.186133 0.809712 0.809787
O O12 0.186132 0.809713 0.308197
O O13 0.621027 0.910628 0.023187
O O14 0.291132 0.978296 0.285412
O O15 0.926588 0.084435 0.543815
O O16 0.820432 0.963046 0.771360
#
# Coordination Sequence:
#
# PCOD9000726 Si02
#       8
#     1   1   1   1   1   1   1   1
#     4  10  16  32  55  82 105 140 187 238 255 325
#     4  12  22  35  61  88 115 148 183 246 286 330
#     4  12  23  36  55  90 123 141 187 235 293 332
#     4  10  17  35  57  84 107 143 195 229 282 321
#     4  12  19  38  61  86 109 149 200 232 275 330
#     4  10  16  32  59  79 106 130 194 232 266 309
#     4  10  20  32  58  84 108 142 190 242 262 327
#     4  12  23  38  58  87 115 151 192 230 277 342
#
# _framework density 19.149031999999998
#
# number of rings (size 3 to 8) (size 9 to 14) (size 15 to 20)
#    0.000    1.000    7.500    2.250    0.000    0.000 
#    0.000    0.000    0.000   18.000    0.000    0.000 
#    0.000    0.000    0.000    0.000    0.000    0.000 
#
# Total GULP energy -44661.037227 kJ/mol
# GULP energy per Si atom -5582.629653 kJ/mol
# Density = 1.910545 g / cm^3
# Si number density = 19.149032 Si / 1000 Ang^3
#
#
#
# Elastic Constant Matrix: (Units=GPa)
#
#
# Indices 1 2 3 4 5 6 
#
# 1 139.6923 50.3156 97.0363 -1.0948 -2.8030 -23.3140
# 2 50.3156 77.8972 55.8425 7.1557 4.2077 -15.7774
# 3 97.0363 55.8425 189.5326 2.7921 32.7391 -21.2544
# 4 -1.0948 7.1557 2.7921 17.0781 -8.0615 1.5037
# 5 -2.8030 4.2077 32.7391 -8.0615 52.4742 -6.7319
# 6 -23.3140 -15.7774 -21.2544 1.5037 -6.7319 18.8205
#
#
#
# Elastic Compliance Matrix: (Units=1/GPa)
#
#
# Indices 1 2 3 4 5 6 
#
# 1 0.015307 -0.003832 -0.007020 0.006529 0.007803 0.010090
# 2 -0.003832 0.020048 -0.002670 -0.009212 -0.000322 0.009665
# 3 -0.007020 -0.002670 0.010976 -0.004753 -0.007864 -0.000972
# 4 0.006529 -0.009212 -0.004753 0.070811 0.014216 -0.005574
# 5 0.007803 -0.000322 -0.007864 0.014216 0.027785 0.009317
# 6 0.010090 0.009665 -0.000972 -0.005574 0.009317 0.076416
#
#
# Mechanical properties :
#
#
# Convention : Reuss Voigt Hill
#
# Bulk Modulus (GPa) = 51.84760 90.39009 71.11885
# Shear Modulus (GPa) = 19.62194 31.26976 25.44585
#
# Velocity S-wave (km/s) = 3.20456 4.04538 3.64927
# Velocity P-wave (km/s) = 6.38959 8.31421 7.41461
#
# Compressibility (1/GPa) = 0.01928729
#
# Stress axis : x y z
#
# Youngs Moduli (GPa) = 65.32838 49.88112 91.10514
#
# Poissons Ratio (x) = 0.19115 0.63959
# Poissons Ratio (y) = 0.25035 0.24321
# Poissons Ratio (z) = 0.45862 0.13316
#
# Static dielectric constant tensor:
#      x y z
#    x 1.661480 0.010090 0.052900 
#    y 0.010090 1.659330 -0.019320 
#    z 0.052900 -0.019320 1.715890 
# 
# From -- ./inp_files/1137.got.cif
#   From: 2010.05.17/outbox.cif.g08.bks.cpg/sg1_1_cif.got.tgz:1137.got - 2010.05.17 20:27:59.
