data_PCOD9000700
_publ_section_title
;
Structure prediction by ZEFSAII (Michael W. Deem and Ramdas Pophale) SiO2 
 PCOD9000700
Probable space group: P 1
;
_chemical_formula_sum "Si O2"
_cell_formula_units_Z 8
_cell_length_a 5.055600
_cell_length_b 8.776215
_cell_length_c 9.788577
_cell_angle_alpha 120.325540
_cell_angle_beta 71.261764
_cell_angle_gamma 101.008726
_cell_volume 354.793295
_symmetry_space_group_name_H-M "P 1"
_symmetry_group_IT_number 1
_symmetry_cell_setting 'triclinic'
loop_
_space_group_symop_operation_xyz
x,y,z
loop_
_atom_site_type_symbol
_atom_site_label
_atom_site_fract_x
_atom_site_fract_y
_atom_site_fract_z
Si Si1 0.442990 0.482880 0.921090
Si Si2 0.170337 0.788272 0.525732
Si Si3 0.820355 0.647684 0.741333
Si Si4 0.611837 0.935255 0.715801
Si Si5 0.485459 0.164534 0.083039
Si Si6 0.022584 0.365940 0.139733
Si Si7 0.103602 0.822417 0.041413
Si Si8 0.689259 0.664959 0.221836
O O1 0.663078 0.476515 0.756371
O O2 0.283754 0.659374 0.987126
O O3 0.190628 0.356554 0.961798
O O4 0.626686 0.531023 0.045792
O O5 0.351076 0.918647 0.653407
O O6 0.396098 0.722664 0.353919
O O7 0.052114 0.633113 0.577809
O O8 0.901691 0.896287 0.573650
O O9 0.608106 0.771906 0.750972
O O10 0.957278 0.766034 0.895778
O O11 0.596094 0.107561 0.888581
O O12 0.769065 0.224310 0.137375
O O13 0.267400 0.320866 0.182504
O O14 0.299492 0.996577 0.085982
O O15 0.874621 0.554507 0.247217
O O16 0.861381 0.826239 0.197319
#
# Coordination Sequence:
#
# PCOD9000700 Si02
#       8
#     1   1   1   1   1   1   1   1
#     4  10  19  38  55  92 116 149 200 241 280 335
#     4  10  20  35  59  88 116 150 191 248 281 343
#     4   9  17  33  60  88 112 140 194 249 280 328
#     4  10  20  34  59  91 110 147 195 244 283 332
#     4  12  20  39  57  92 113 154 190 246 289 347
#     4  11  24  34  58  84 129 148 189 236 298 348
#     4  10  19  33  63  87 115 145 204 246 278 331
#     4  10  23  38  57  94 117 155 191 240 293 342
#
# _framework density 22.548342000000002
#
# number of rings (size 3 to 8) (size 9 to 14) (size 15 to 20)
#    0.750    1.000    3.750    1.500    5.250    0.000 
#    0.000    0.000    0.000    4.500    3.250    0.000 
#    0.000    0.000    0.000    0.000    0.000    0.000 
#
# Total GULP energy -44554.127013 kJ/mol
# GULP energy per Si atom -5569.265877 kJ/mol
# Density = 2.249702 g / cm^3
# Si number density = 22.548342 Si / 1000 Ang^3
#
#
#
# Elastic Constant Matrix: (Units=GPa)
#
#
# Indices 1 2 3 4 5 6 
#
# 1 91.1465 23.4364 6.5395 -10.3295 -23.8368 14.1732
# 2 23.4364 67.2416 18.2053 -17.3821 -17.1565 21.6292
# 3 6.5395 18.2053 84.4780 -17.0704 -36.6153 8.4915
# 4 -10.3295 -17.3821 -17.0704 30.0028 10.3628 -13.6788
# 5 -23.8368 -17.1565 -36.6153 10.3628 39.5672 -8.5694
# 6 14.1732 21.6292 8.4915 -13.6788 -8.5694 39.8389
#
#
#
# Elastic Compliance Matrix: (Units=1/GPa)
#
#
# Indices 1 2 3 4 5 6 
#
# 1 0.014748 -0.002511 0.004891 0.001560 0.011499 -0.001917
# 2 -0.002511 0.020837 -0.000734 0.006180 0.003631 -0.007360
# 3 0.004891 -0.000734 0.022308 0.006891 0.021669 0.000931
# 4 0.001560 0.006180 0.006891 0.046080 0.000199 0.010485
# 5 0.011499 0.003631 0.021669 0.000199 0.053992 0.001002
# 6 -0.001917 -0.007360 0.000931 0.010485 0.001002 0.033396
#
#
# Mechanical properties :
#
#
# Convention : Reuss Voigt Hill
#
# Bulk Modulus (GPa) = 16.34354 37.69205 27.01779
# Shear Modulus (GPa) = 23.98508 34.86079 29.42294
#
# Velocity S-wave (km/s) = 3.26501 3.93625 3.61623
# Velocity P-wave (km/s) = 4.63440 6.11646 5.42627
#
# Compressibility (1/GPa) = 0.06118626
#
# Stress axis : x y z
#
# Youngs Moduli (GPa) = 67.80555 47.99158 44.82768
#
# Poissons Ratio (x) = 0.12049 -0.21926
# Poissons Ratio (y) = 0.17024 0.03289
# Poissons Ratio (z) = -0.33165 0.03521
#
# Static dielectric constant tensor:
#      x y z
#    x 1.893170 0.026370 -0.006870 
#    y 0.026370 1.890180 -0.046510 
#    z -0.006870 -0.046510 1.902270 
# 
# From -- ./inp_files/1369.got.cif
#   From: 2010.05.17/outbox.cif.g08.bks.cpg/sg1_1_cif.got.tgz:1369.got - 2010.05.17 20:27:59.
