data_PCOD9000657
_publ_section_title
;
Structure prediction by ZEFSAII (Michael W. Deem and Ramdas Pophale) SiO2 
 PCOD9000657
Probable space group: P 1
;
_chemical_formula_sum "Si O2"
_cell_formula_units_Z 8
_cell_length_a 7.202845
_cell_length_b 7.921738
_cell_length_c 8.100153
_cell_angle_alpha 102.008362
_cell_angle_beta 71.238478
_cell_angle_gamma 53.227298
_cell_volume 297.663238
_symmetry_space_group_name_H-M "P 1"
_symmetry_group_IT_number 1
_symmetry_cell_setting 'triclinic'
loop_
_space_group_symop_operation_xyz
x,y,z
loop_
_atom_site_type_symbol
_atom_site_label
_atom_site_fract_x
_atom_site_fract_y
_atom_site_fract_z
Si Si1 0.386800 0.533120 0.486140
Si Si2 0.383752 0.559074 0.105455
Si Si3 0.905500 0.072366 0.731522
Si Si4 0.928271 0.230468 0.401314
Si Si5 0.128416 0.148956 0.990691
Si Si6 0.677992 0.716459 0.909174
Si Si7 0.835806 0.711383 0.204917
Si Si8 0.282743 0.216761 0.498888
O O1 0.439611 0.527917 0.277608
O O2 0.605457 0.495111 0.532766
O O3 0.429743 0.307744 0.471330
O O4 0.066038 0.792888 0.656884
O O5 0.501977 0.664187 0.022610
O O6 0.576649 0.293111 0.906919
O O7 0.063912 0.703670 0.199618
O O8 0.958422 0.099455 0.532461
O O9 0.045587 0.111450 0.835224
O O10 0.163340 0.227886 0.359705
O O11 0.991948 0.126442 0.177626
O O12 0.980846 0.430595 0.106963
O O13 0.464612 0.934047 0.882405
O O14 0.755739 0.792337 0.053307
O O15 0.978768 0.447876 0.714412
O O16 0.530494 0.928786 0.424817
#
# Coordination Sequence:
#
# PCOD9000657 Si02
#       8
#     1   1   1   1   1   1   1   1
#     4  12  30  50  81 120 164 214 270 336 412 476
#     4  12  28  52  81 120 162 218 268 333 409 489
#     4  12  28  51  81 119 161 212 274 331 400 490
#     4  12  25  53  80 116 165 213 261 342 405 478
#     4  12  26  53  87 117 162 219 270 334 416 476
#     4  12  27  53  80 120 164 214 271 334 411 480
#     4  12  29  50  81 120 167 208 273 336 405 488
#     4  12  29  50  81 120 163 212 269 340 404 479
#
# _framework density 26.876007000000001
#
# number of rings (size 3 to 8) (size 9 to 14) (size 15 to 20)
#    0.000    0.000    5.000    2.250    8.750    0.000 
#    4.500    0.000    0.000    0.000    0.000    0.000 
#    0.000    0.000    0.000    0.000    0.000    0.000 
#
# Total GULP energy -44770.637812 kJ/mol
# GULP energy per Si atom -5596.329726 kJ/mol
# Density = 2.681484 g / cm^3
# Si number density = 26.876007 Si / 1000 Ang^3
#
#
#
# Elastic Constant Matrix: (Units=GPa)
#
#
# Indices 1 2 3 4 5 6 
#
# 1 151.1851 52.0869 42.2232 1.5416 -6.3142 -41.6844
# 2 52.0869 131.3389 70.2833 15.6904 -0.6479 -23.4206
# 3 42.2232 70.2833 118.5782 0.6599 -9.2518 -20.7697
# 4 1.5416 15.6904 0.6599 46.7274 -10.4705 0.5913
# 5 -6.3142 -0.6479 -9.2518 -10.4705 41.9594 11.0232
# 6 -41.6844 -23.4206 -20.7697 0.5913 11.0232 52.1808
#
#
#
# Elastic Compliance Matrix: (Units=1/GPa)
#
#
# Indices 1 2 3 4 5 6 
#
# 1 0.009297 -0.002055 -0.001045 0.000224 -0.000430 0.006177
# 2 -0.002055 0.013104 -0.006877 -0.005045 -0.003485 0.002296
# 3 -0.001045 -0.006877 0.013226 0.002866 0.003201 0.000634
# 4 0.000224 -0.005045 0.002866 0.024765 0.007506 -0.002811
# 5 -0.000430 -0.003485 0.003201 0.007506 0.028038 -0.006642
# 6 0.006177 0.002296 0.000634 -0.002811 -0.006642 0.026816
#
#
# Mechanical properties :
#
#
# Convention : Reuss Voigt Hill
#
# Bulk Modulus (GPa) = 63.80401 81.14322 72.47361
# Shear Modulus (GPa) = 35.60621 43.94076 39.77348
#
# Velocity S-wave (km/s) = 3.64377 4.04783 3.85110
# Velocity P-wave (km/s) = 6.44162 7.21830 6.84099
#
# Compressibility (1/GPa) = 0.01567300
#
# Stress axis : x y z
#
# Youngs Moduli (GPa) = 107.55916 76.31345 75.60652
#
# Poissons Ratio (x) = 0.15683 0.07903
# Poissons Ratio (y) = 0.22104 0.51993
# Poissons Ratio (z) = 0.11244 0.52479
#
# Static dielectric constant tensor:
#      x y z
#    x 2.074890 0.027560 -0.023040 
#    y 0.027560 2.114450 0.047990 
#    z -0.023040 0.047990 2.204400 
# 
# From -- ./inp_files/4342.got.cif
#   From: 2010.05.17/outbox.cif.g08.bks.cpg/sg1_3_cif.got.tgz:4342.got - 2010.05.17 20:27:59.
