data_PCOD9000055
_publ_section_title
;
Structure prediction by ZEFSAII (Michael W. Deem and Ramdas Pophale) SiO2 
 PCOD9000055
Probable space group: P 1
;
_chemical_formula_sum "Si O2"
_cell_formula_units_Z 8
_cell_length_a 14.068142
_cell_length_b 5.663340
_cell_length_c 7.416507
_cell_angle_alpha 123.206937
_cell_angle_beta 137.316392
_cell_angle_gamma 56.397433
_cell_volume 323.110109
_symmetry_space_group_name_H-M "P 1"
_symmetry_group_IT_number 1
_symmetry_cell_setting 'triclinic'
loop_
_space_group_symop_operation_xyz
x,y,z
loop_
_atom_site_type_symbol
_atom_site_label
_atom_site_fract_x
_atom_site_fract_y
_atom_site_fract_z
Si Si1 0.174910 0.641840 0.808250
Si Si2 0.364844 0.198132 0.301733
Si Si3 0.580585 0.566741 0.882417
Si Si4 0.060345 0.106670 0.538720
Si Si5 0.454191 0.198703 0.011429
Si Si6 0.605914 0.645577 0.382531
Si Si7 0.138434 0.735495 0.173912
Si Si8 0.822171 0.022754 0.934838
O O1 0.073493 0.432817 0.648620
O O2 0.105605 0.914138 0.699146
O O3 0.318612 0.432391 0.828325
O O4 0.212739 0.766377 0.103644
O O5 0.386728 0.173648 0.103520
O O6 0.199302 0.396463 0.176303
O O7 0.456647 0.871782 0.335658
O O8 0.457688 0.399758 0.605076
O O9 0.611799 0.610618 0.157248
O O10 0.720953 0.348373 0.893595
O O11 0.517493 0.898902 0.869605
O O12 0.901108 0.067048 0.250973
O O13 0.168283 0.924312 0.459726
O O14 0.589887 0.334062 0.293038
O O15 0.728281 0.789319 0.688395
O O16 0.966939 0.879929 0.963300
#
# Coordination Sequence:
#
# PCOD9000055 Si02
#       8
#     1   1   1   1   1   1   1   1
#     4  11  24  45  76 107 138 184 238 300 357 413
#     4   9  20  41  64  96 131 176 229 295 349 410
#     4  10  21  42  65  94 134 182 227 279 349 420
#     4  10  25  46  69 106 141 186 237 285 360 424
#     4  10  23  39  69  99 135 176 234 293 347 416
#     4  10  22  41  64  98 135 181 227 287 349 418
#     4   9  22  43  71 103 141 178 234 300 343 422
#     4   9  23  45  64  99 143 185 232 285 352 423
#
# _framework density 24.759361999999999
#
# number of rings (size 3 to 8) (size 9 to 14) (size 15 to 20)
#    0.750    1.500    0.000    0.750    8.750    3.000 
#   11.250    0.000    0.000    0.000    0.000    0.000 
#    0.000    0.000    0.000    0.000    0.000    0.000 
#
# Total GULP energy -44547.763768 kJ/mol
# GULP energy per Si atom -5568.470471 kJ/mol
# Density = 2.470301 g / cm^3
# Si number density = 24.759362 Si / 1000 Ang^3
#
#
#
# Elastic Constant Matrix: (Units=GPa)
#
#
# Indices 1 2 3 4 5 6 
#
# 1 69.6038 46.5428 32.0640 1.3471 4.6352 -19.4395
# 2 46.5428 130.7842 56.0433 26.6694 5.0977 -26.8153
# 3 32.0640 56.0433 123.1872 15.2998 5.0454 13.4668
# 4 1.3471 26.6694 15.2998 43.4060 2.2795 1.8794
# 5 4.6352 5.0977 5.0454 2.2795 37.4577 -5.6721
# 6 -19.4395 -26.8153 13.4668 1.8794 -5.6721 51.9664
#
#
#
# Elastic Compliance Matrix: (Units=1/GPa)
#
#
# Indices 1 2 3 4 5 6 
#
# 1 0.021652 -0.005322 -0.004357 0.003897 -0.000656 0.006270
# 2 -0.005322 0.014786 -0.005262 -0.007433 0.000924 0.007373
# 3 -0.004357 -0.005262 0.012643 -0.000668 -0.001584 -0.007771
# 4 0.003897 -0.007433 -0.000668 0.027950 -0.001595 -0.003389
# 5 -0.000656 0.000924 -0.001584 -0.001595 0.027523 0.003704
# 6 0.006270 0.007373 -0.007771 -0.003389 0.003704 0.027934
#
#
# Mechanical properties :
#
#
# Convention : Reuss Voigt Hill
#
# Bulk Modulus (GPa) = 52.08591 65.87506 58.98048
# Shear Modulus (GPa) = 29.62579 39.16105 34.39342
#
# Velocity S-wave (km/s) = 3.46287 3.98133 3.73112
# Velocity P-wave (km/s) = 6.08861 6.91365 6.51420
#
# Compressibility (1/GPa) = 0.01919905
#
# Stress axis : x y z
#
# Youngs Moduli (GPa) = 46.18452 67.62965 79.09302
#
# Poissons Ratio (x) = 0.35991 0.34463
# Poissons Ratio (y) = 0.24578 0.41623
# Poissons Ratio (z) = 0.20124 0.35590
#
# Static dielectric constant tensor:
#      x y z
#    x 1.984070 0.059000 0.062850 
#    y 0.059000 2.076580 0.008220 
#    z 0.062850 0.008220 2.073950 
# 
# From -- ./inp_files/5825.got.cif
#   From: 2010.05.17/outbox.cif.g08.bks.cpg/sg1_3_cif.got.tgz:5825.got - 2010.05.17 20:27:59.
