data_PCOD9000065
_publ_section_title
;
Structure prediction by ZEFSAII (Michael W. Deem and Ramdas Pophale) SiO2 
 PCOD9000065
Probable space group: P 1
;
_chemical_formula_sum "Si O2"
_cell_formula_units_Z 8
_cell_length_a 8.266827
_cell_length_b 7.448284
_cell_length_c 7.740559
_cell_angle_alpha 71.563943
_cell_angle_beta 92.593320
_cell_angle_gamma 47.638400
_cell_volume 310.583773
_symmetry_space_group_name_H-M "P 1"
_symmetry_group_IT_number 1
_symmetry_cell_setting 'triclinic'
loop_
_space_group_symop_operation_xyz
x,y,z
loop_
_atom_site_type_symbol
_atom_site_label
_atom_site_fract_x
_atom_site_fract_y
_atom_site_fract_z
Si Si1 0.102170 0.782690 0.254530
Si Si2 0.516174 0.589978 0.181751
Si Si3 0.375359 0.279626 0.871052
Si Si4 0.950634 0.287349 0.504578
Si Si5 0.436207 0.235544 0.265029
Si Si6 0.743274 0.290737 0.823354
Si Si7 0.446670 0.869991 0.762504
Si Si8 0.901649 0.724336 0.565598
O O1 0.336393 0.714208 0.294839
O O2 0.512697 0.355067 0.808238
O O3 0.995082 0.814653 0.420517
O O4 0.929426 0.033697 0.038060
O O5 0.772897 0.442306 0.289255
O O6 0.191859 0.506989 0.256404
O O7 0.389078 0.807374 0.957451
O O8 0.093380 0.553012 0.777702
O O9 0.451276 0.073816 0.784687
O O10 0.433669 0.143992 0.104554
O O11 0.847447 0.221538 0.656464
O O12 0.932015 0.504062 0.531646
O O13 0.228895 0.026209 0.574173
O O14 0.620612 0.987701 0.481358
O O15 0.536731 0.358186 0.189117
O O16 0.672254 0.563027 0.799212
#
# Coordination Sequence:
#
# PCOD9000065 Si02
#       8
#     1   1   1   1   1   1   1   1
#     4  10  22  42  68  97 130 174 224 260 335 394
#     4  10  21  42  68  92 137 170 214 276 325 384
#     4  11  24  43  70  97 136 173 219 273 330 390
#     4  11  25  43  65  99 135 169 225 272 326 392
#     4  10  22  42  68  96 133 174 218 269 329 389
#     4  12  23  46  68  97 135 177 217 271 332 390
#     4  11  24  46  66 101 134 171 223 274 325 392
#     4  11  23  42  65  99 132 172 222 271 326 391
#
# _framework density 25.757946
#
# number of rings (size 3 to 8) (size 9 to 14) (size 15 to 20)
#    0.750    0.500    3.750    1.500    1.750    2.000 
#    6.750    0.000    0.000    0.000    0.000    0.000 
#    0.000    0.000    0.000    0.000    0.000    0.000 
#
# Total GULP energy -44701.506683 kJ/mol
# GULP energy per Si atom -5587.688335 kJ/mol
# Density = 2.569932 g / cm^3
# Si number density = 25.757946 Si / 1000 Ang^3
#
#
#
# Elastic Constant Matrix: (Units=GPa)
#
#
# Indices 1 2 3 4 5 6 
#
# 1 55.5494 8.5860 16.6632 0.1212 17.9718 -3.9095
# 2 8.5860 104.7720 30.6360 -13.1299 5.5340 -12.8494
# 3 16.6632 30.6360 92.6501 -22.2589 20.1409 -13.6560
# 4 0.1212 -13.1299 -22.2589 44.5586 -8.3817 -3.3987
# 5 17.9718 5.5340 20.1409 -8.3817 38.2880 -2.6164
# 6 -3.9095 -12.8494 -13.6560 -3.3987 -2.6164 34.8718
#
#
#
# Elastic Compliance Matrix: (Units=1/GPa)
#
#
# Indices 1 2 3 4 5 6 
#
# 1 0.021998 -0.001020 -0.002288 -0.003315 -0.009691 0.000144
# 2 -0.001020 0.011040 -0.002642 0.002373 0.001012 0.003226
# 3 -0.002288 -0.002642 0.015431 0.006398 -0.004915 0.005068
# 4 -0.003315 0.002373 0.006398 0.027616 0.004304 0.006023
# 5 -0.009691 0.001012 -0.004915 0.004304 0.034071 0.000338
# 6 0.000144 0.003226 0.005068 0.006023 0.000338 0.032478
#
#
# Mechanical properties :
#
#
# Convention : Reuss Voigt Hill
#
# Bulk Modulus (GPa) = 27.34396 40.52688 33.93542
# Shear Modulus (GPa) = 29.98992 36.68277 33.33635
#
# Velocity S-wave (km/s) = 3.41588 3.77786 3.60142
# Velocity P-wave (km/s) = 5.11825 5.89895 5.52241
#
# Compressibility (1/GPa) = 0.03657115
#
# Stress axis : x y z
#
# Youngs Moduli (GPa) = 45.45771 90.57885 64.80587
#
# Poissons Ratio (x) = 0.09236 0.14826
# Poissons Ratio (y) = 0.04635 0.17119
# Poissons Ratio (z) = 0.10400 0.23928
#
# Static dielectric constant tensor:
#      x y z
#    x 2.089240 -0.062500 -0.001920 
#    y -0.062500 2.062780 -0.010600 
#    z -0.001920 -0.010600 2.008250 
# 
# From -- ./inp_files/4153.got.cif
#   From: 2010.05.17/outbox.cif.g08.bks.cpg/sg1_3_cif.got.tgz:4153.got - 2010.05.17 20:27:59.
