data_PCOD9000416
_publ_section_title
;
Structure prediction by ZEFSAII (Michael W. Deem and Ramdas Pophale) SiO2 
 PCOD9000416
Probable space group: P 1
;
_chemical_formula_sum "Si O2"
_cell_formula_units_Z 6
_cell_length_a 4.894888
_cell_length_b 10.846899
_cell_length_c 5.159504
_cell_angle_alpha 56.381846
_cell_angle_beta 90.290408
_cell_angle_gamma 80.665365
_cell_volume 223.596687
_symmetry_space_group_name_H-M "P 1"
_symmetry_group_IT_number 1
_symmetry_cell_setting 'triclinic'
loop_
_space_group_symop_operation_xyz
x,y,z
loop_
_atom_site_type_symbol
_atom_site_label
_atom_site_fract_x
_atom_site_fract_y
_atom_site_fract_z
Si Si1 0.450290 0.973310 0.447150
Si Si2 0.904936 0.753055 0.864571
Si Si3 0.237355 0.784564 0.331987
Si Si4 0.550214 0.215337 0.531315
Si Si5 0.046174 0.229916 0.890023
Si Si6 0.239920 0.482542 0.911459
O O1 0.451638 0.894431 0.253226
O O2 0.573791 0.813954 0.785518
O O3 0.621857 0.078605 0.487106
O O4 0.174407 0.102752 0.248144
O O5 0.027513 0.824851 0.530212
O O6 0.025631 0.577422 0.008431
O O7 0.051504 0.801458 0.059779
O O8 0.352583 0.607308 0.593116
O O9 0.261232 0.207621 0.678256
O O10 0.759977 0.216686 0.768612
O O11 0.486483 0.369786 0.187317
O O12 0.072263 0.386457 0.842918
#
# Coordination Sequence:
#
# PCOD9000416 Si02
#       6
#     1   1   1   1   1   1
#     4  11  26  40  74 103 148 188 246 299 370 432
#     4  10  24  43  70 107 140 188 239 303 364 429
#     4  10  24  43  70 107 140 188 239 303 364 429
#     4  11  26  46  73 103 149 194 245 299 366 438
#     4  11  26  46  73 103 149 194 245 299 366 438
#     4   9  24  44  72 103 142 190 246 299 366 434
#
# _framework density 26.834023999999999
#
# number of rings (size 3 to 8) (size 9 to 14) (size 15 to 20)
#    1.000    0.667    0.000    2.000    9.333    9.333 
#    0.000    0.000    0.000    0.000    0.000    0.000 
#    0.000    0.000    0.000    0.000    0.000    0.000 
#
# Total GULP energy -33466.668352 kJ/mol
# GULP energy per Si atom -5577.778059 kJ/mol
# Density = 2.677295 g / cm^3
# Si number density = 26.834024 Si / 1000 Ang^3
#
#
#
# Elastic Constant Matrix: (Units=GPa)
#
#
# Indices 1 2 3 4 5 6 
#
# 1 22.8392 22.8576 17.7069 10.3159 -5.1550 -17.2236
# 2 22.8576 218.9793 82.9012 14.7270 28.3713 34.1553
# 3 17.7069 82.9012 145.9143 20.0700 43.6689 7.6323
# 4 10.3159 14.7270 20.0700 69.4680 4.4144 0.1935
# 5 -5.1550 28.3713 43.6689 4.4144 39.7486 11.1305
# 6 -17.2236 34.1553 7.6323 0.1935 11.1305 32.5282
#
#
#
# Elastic Compliance Matrix: (Units=1/GPa)
#
#
# Indices 1 2 3 4 5 6 
#
# 1 0.344521 -0.067862 -0.030039 -0.032747 0.062702 0.239467
# 2 -0.067862 0.020356 0.001966 0.006045 -0.011033 -0.054029
# 3 -0.030039 0.001966 0.015498 0.000759 -0.018092 -0.015421
# 4 -0.032747 0.006045 0.000759 0.018149 -0.005196 -0.022195
# 5 0.062702 -0.011033 -0.018092 -0.005196 0.052955 0.030941
# 6 0.239467 -0.054029 -0.015421 -0.022195 0.030941 0.207434
#
#
# Mechanical properties :
#
#
# Convention : Reuss Voigt Hill
#
# Bulk Modulus (GPa) = 5.30488 70.51825 37.91156
# Shear Modulus (GPa) = 5.47275 45.96675 25.71975
#
# Velocity S-wave (km/s) = 1.42965 4.14333 3.09928
# Velocity P-wave (km/s) = 2.16943 7.01613 5.19290
#
# Compressibility (1/GPa) = 0.18850577
#
# Stress axis : x y z
#
# Youngs Moduli (GPa) = 2.90258 49.12603 64.52346
#
# Poissons Ratio (x) = 3.33379 1.93822
# Poissons Ratio (y) = 0.19698 -0.12688
# Poissons Ratio (z) = 0.08719 -0.09661
#
# Static dielectric constant tensor:
#      x y z
#    x 2.430230 -0.031790 -0.067540 
#    y -0.031790 2.061200 -0.033080 
#    z -0.067540 -0.033080 2.092890 
# 
# From -- ./inp_files/247.got.cif
#   From: 2010.05.17/outbox.cif.g08.bks.cpg/sg1_1_cif.got.tgz:247.got - 2010.05.17 20:27:59.
