data_PCOD9000988
_publ_section_title
;
Structure prediction by ZEFSAII (Michael W. Deem and Ramdas Pophale) SiO2 
 PCOD9000988
Probable space group: P -1
;
_chemical_formula_sum "Si O2"
_cell_formula_units_Z 16
_cell_length_a 5.614942
_cell_length_b 11.327510
_cell_length_c 13.148968
_cell_angle_alpha 80.292384
_cell_angle_beta 103.374646
_cell_angle_gamma 111.777968
_cell_volume 752.385377
_symmetry_space_group_name_H-M "P -1"
_symmetry_group_IT_number 2
_symmetry_cell_setting 'triclinic'
loop_
_space_group_symop_operation_xyz
x,y,z
-x,-y,-z
loop_
_atom_site_type_symbol
_atom_site_label
_atom_site_fract_x
_atom_site_fract_y
_atom_site_fract_z
Si Si1 0.907081 0.350022 0.534992
Si Si2 0.533662 0.964192 0.210015
Si Si3 0.546265 0.229318 0.142961
Si Si4 0.764152 0.900397 0.057638
Si Si5 0.851324 0.719847 0.758440
Si Si6 0.992886 0.997104 0.621355
Si Si7 0.629429 0.636144 0.547163
Si Si8 0.946454 0.201251 0.738051
O O1 0.595264 0.299539 0.490555
O O2 0.974889 0.326379 0.660363
O O3 0.000000 0.500000 0.500000
O O4 0.093748 0.297994 0.491927
O O5 0.667738 0.989197 0.109671
O O6 0.291847 0.836116 0.202338
O O7 0.462103 0.088433 0.205193
O O8 0.710968 0.947617 0.319478
O O9 0.358883 0.293007 0.171224
O O10 0.862304 0.283231 0.181171
O O11 0.443148 0.195744 0.023108
O O12 0.837188 0.816615 0.164658
O O13 0.000000 0.000000 0.000000
O O14 0.898228 0.855367 0.683466
O O15 0.706804 0.619143 0.672253
O O16 0.876279 0.091587 0.657609
O O17 0.000000 0.000000 0.500000
O O18 0.500000 0.500000 0.500000
#
# Coordination Sequence:
#
# PCOD9000988 Si02
#       8
#     2   2   2   2   2   2   2   2
#     4  10  23  41  63  89 118 153 206 262 307 355
#     4  10  21  34  51  81 123 172 208 241 292 371
#     4  11  21  37  53  84 125 163 203 247 300 352
#     4  11  21  36  56  81 125 176 211 249 295 364
#     4  11  22  36  56  88 121 159 201 248 301 374
#     4  10  21  33  48  79 127 164 196 239 304 366
#     4  10  22  43  65  88 116 157 204 256 315 370
#     4  11  22  35  57  86 120 166 211 245 302 364
#
# _framework density 21.265699000000001
#
# number of rings (size 3 to 8) (size 9 to 14) (size 15 to 20)
#    0.000    1.500    2.500    3.375    7.000    1.500 
#    0.000    0.000    0.000    0.000    0.000   21.000 
#    0.000    0.000    0.000    0.000    0.000    0.000 
#
# Total GULP energy -89067.627842 kJ/mol
# GULP energy per Si atom -5566.726740 kJ/mol
# Density = 2.121730 g / cm^3
# Si number density = 21.265699 Si / 1000 Ang^3
#
#
#
# Elastic Constant Matrix: (Units=GPa)
#
#
# Indices 1 2 3 4 5 6 
#
# 1 150.3941 9.5565 69.4103 11.6662 0.7415 -2.7409
# 2 9.5565 36.1885 16.3646 5.2150 9.0499 -0.9800
# 3 69.4103 16.3646 149.2557 23.9904 22.3395 -1.3241
# 4 11.6662 5.2150 23.9904 38.8904 1.7309 2.0594
# 5 0.7415 9.0499 22.3395 1.7309 25.0884 3.6323
# 6 -2.7409 -0.9800 -1.3241 2.0594 3.6323 4.4356
#
#
#
# Elastic Compliance Matrix: (Units=1/GPa)
#
#
# Indices 1 2 3 4 5 6 
#
# 1 0.008843 -0.001339 -0.004641 0.000189 0.004318 0.000159
# 2 -0.001339 0.032771 0.000107 -0.004494 -0.014524 0.020425
# 3 -0.004641 0.000107 0.011693 -0.006003 -0.011794 0.013092
# 4 0.000189 -0.004494 -0.006003 0.030853 0.008274 -0.023768
# 5 0.004318 -0.014524 -0.011794 0.008274 0.063584 -0.059972
# 6 0.000159 0.020425 0.013092 -0.023768 -0.059972 0.294116
#
#
# Mechanical properties :
#
#
# Convention : Reuss Voigt Hill
#
# Bulk Modulus (GPa) = 24.06106 58.50012 41.28059
# Shear Modulus (GPa) = 10.69611 29.71668 20.20639
#
# Velocity S-wave (km/s) = 2.24514 3.74224 3.08585
# Velocity P-wave (km/s) = 4.24970 6.80010 5.67015
#
# Compressibility (1/GPa) = 0.04156093
#
# Stress axis : x y z
#
# Youngs Moduli (GPa) = 113.08252 30.51462 85.52317
#
# Poissons Ratio (x) = 0.04087 0.39690
# Poissons Ratio (y) = 0.15146 -0.00917
# Poissons Ratio (z) = 0.52480 -0.00327
#
# Static dielectric constant tensor:
#      x y z
#    x 1.923710 -0.026220 0.010730 
#    y -0.026220 1.816920 0.026240 
#    z 0.010730 0.026240 1.788100 
# 
# From -- ./inp_files/66453.got.cif
#   From: 2010.05.17/outbox.cif.g08.bks.cpg/sg2_34_cif.got.tgz:66453.got - 2010.06.03 11:33:40.
