data_PCOD9000224
_publ_section_title
;
Structure prediction by ZEFSAII (Michael W. Deem and Ramdas Pophale) SiO2 
 PCOD9000224
Probable space group: P 1
;
_chemical_formula_sum "Si O2"
_cell_formula_units_Z 8
_cell_length_a 9.940826
_cell_length_b 8.925493
_cell_length_c 6.963850
_cell_angle_alpha 131.350248
_cell_angle_beta 98.706625
_cell_angle_gamma 111.838577
_cell_volume 353.776433
_symmetry_space_group_name_H-M "P 1"
_symmetry_group_IT_number 1
_symmetry_cell_setting 'triclinic'
loop_
_space_group_symop_operation_xyz
x,y,z
loop_
_atom_site_type_symbol
_atom_site_label
_atom_site_fract_x
_atom_site_fract_y
_atom_site_fract_z
Si Si1 0.101840 0.592990 0.480430
Si Si2 0.928748 0.834625 0.018962
Si Si3 0.063908 0.552222 0.900475
Si Si4 0.446385 0.844503 0.152281
Si Si5 0.792908 0.576229 0.355177
Si Si6 0.277870 0.382325 0.422214
Si Si7 0.795422 0.968008 0.426740
Si Si8 0.443493 0.162493 0.094241
O O1 0.059366 0.527820 0.644444
O O2 0.180921 0.453129 0.324799
O O3 0.931013 0.530254 0.297662
O O4 0.259935 0.898843 0.759470
O O5 0.840913 0.687550 0.677110
O O6 0.968863 0.674128 0.014749
O O7 0.811293 0.883569 0.147389
O O8 0.120591 0.106646 0.247173
O O9 0.272883 0.744680 0.150626
O O10 0.958703 0.271647 0.729770
O O11 0.380936 0.604429 0.793923
O O12 0.614933 0.922718 0.367374
O O13 0.494187 0.072469 0.213097
O O14 0.805755 0.789236 0.416897
O O15 0.596497 0.306481 0.093172
O O16 0.404643 0.350077 0.312827
#
# Coordination Sequence:
#
# PCOD9000224 Si02
#       8
#     1   1   1   1   1   1   1   1
#     4   9  19  38  62  88 118 160 201 248 297 352
#     4  11  20  43  65  86 121 163 204 245 303 358
#     4   9  19  39  62  89 119 160 204 248 298 353
#     4  10  20  35  63  90 119 160 201 247 299 355
#     4  11  24  40  62  92 125 161 197 250 303 357
#     4  10  17  37  68  87 110 164 203 241 305 347
#     4  12  24  40  61  93 127 157 199 252 300 358
#     4  10  19  38  61  87 121 157 205 247 295 360
#
# _framework density 22.613151999999999
#
# number of rings (size 3 to 8) (size 9 to 14) (size 15 to 20)
#    0.000    2.000    6.250    2.250    0.000    1.000 
#    2.250    0.000    0.000    0.000    0.000    0.000 
#    0.000    0.000    0.000    0.000    0.000    0.000 
#
# Total GULP energy -44719.767430 kJ/mol
# GULP energy per Si atom -5589.970929 kJ/mol
# Density = 2.256168 g / cm^3
# Si number density = 22.613152 Si / 1000 Ang^3
#
#
#
# Elastic Constant Matrix: (Units=GPa)
#
#
# Indices 1 2 3 4 5 6 
#
# 1 104.3132 26.1180 26.4363 10.4413 17.7341 -31.2446
# 2 26.1180 85.2864 32.0035 25.2752 18.2842 -5.1276
# 3 26.4363 32.0035 38.8373 18.3252 -0.8345 8.0876
# 4 10.4413 25.2752 18.3252 38.8689 5.9258 -8.7277
# 5 17.7341 18.2842 -0.8345 5.9258 38.0449 8.8880
# 6 -31.2446 -5.1276 8.0876 -8.7277 8.8880 7.4401
#
#
#
# Elastic Compliance Matrix: (Units=1/GPa)
#
#
# Indices 1 2 3 4 5 6 
#
# 1 0.002677 -0.004638 0.009173 -0.007024 0.006450 -0.017868
# 2 -0.004638 0.017982 -0.005103 -0.009776 -0.002819 -0.009636
# 3 0.009173 -0.005103 0.014906 0.003056 -0.009990 0.034321
# 4 -0.007024 -0.009776 0.003056 0.027923 0.007322 -0.015548
# 5 0.006450 -0.002819 -0.009990 0.007322 0.017831 0.023294
# 6 -0.017868 -0.009636 0.034321 -0.015548 0.023294 -0.030645
#
#
# Mechanical properties :
#
#
# Convention : Reuss Voigt Hill
#
# Bulk Modulus (GPa) = 29.04449 44.17250 36.60849
# Shear Modulus (GPa) = 79.00595 26.46270 52.73433
#
# Velocity S-wave (km/s) = 5.91725 3.42458 4.83434
# Velocity P-wave (km/s) = 7.71733 5.93409 6.88370
#
# Compressibility (1/GPa) = 0.03442994
#
# Stress axis : x y z
#
# Youngs Moduli (GPa) = 373.49560 55.61028 67.08858
#
# Poissons Ratio (x) = 0.25790 -0.61539
# Poissons Ratio (y) = 1.73213 0.34234
# Poissons Ratio (z) = -3.42598 0.28377
#
# Static dielectric constant tensor:
#      x y z
#    x 1.865150 0.018970 0.011050 
#    y 0.018970 1.843380 -0.023200 
#    z 0.011050 -0.023200 1.843130 
# 
# From -- ./inp_files/4422.got.cif
#   From: 2010.05.17/outbox.cif.g08.bks.cpg/sg1_3_cif.got.tgz:4422.got - 2010.05.17 20:27:59.
