data_PCOD9000620
_publ_section_title
;
Structure prediction by ZEFSAII (Michael W. Deem and Ramdas Pophale) SiO2 
 PCOD9000620
Probable space group: P 1
;
_chemical_formula_sum "Si O2"
_cell_formula_units_Z 8
_cell_length_a 11.623807
_cell_length_b 5.006317
_cell_length_c 9.185038
_cell_angle_alpha 97.602877
_cell_angle_beta 36.292433
_cell_angle_gamma 108.147810
_cell_volume 293.860975
_symmetry_space_group_name_H-M "P 1"
_symmetry_group_IT_number 1
_symmetry_cell_setting 'triclinic'
loop_
_space_group_symop_operation_xyz
x,y,z
loop_
_atom_site_type_symbol
_atom_site_label
_atom_site_fract_x
_atom_site_fract_y
_atom_site_fract_z
Si Si1 0.939750 0.393600 0.845940
Si Si2 0.703823 0.369864 0.804427
Si Si3 0.968232 0.796413 0.362932
Si Si4 0.594426 0.051668 0.314089
Si Si5 0.441431 0.392171 0.329625
Si Si6 0.107376 0.065467 0.799512
Si Si7 0.203712 0.361585 0.038513
Si Si8 0.609928 0.896462 0.614918
O O1 0.877378 0.335943 0.734928
O O2 0.170131 0.316346 0.611111
O O3 0.032619 0.723670 0.827313
O O4 0.680710 0.356615 0.149626
O O5 0.816623 0.689911 0.647897
O O6 0.496992 0.334322 0.103872
O O7 0.648709 0.137690 0.715969
O O8 0.814770 0.813092 0.392133
O O9 0.057091 0.545247 0.229080
O O10 0.150412 0.103004 0.189933
O O11 0.515691 0.731556 0.304739
O O12 0.572948 0.022462 0.508566
O O13 0.367482 0.120247 0.507319
O O14 0.154033 0.216664 0.921180
O O15 0.869170 0.113158 0.018375
O O16 0.428757 0.603411 0.821163
#
# Coordination Sequence:
#
# PCOD9000620 Si02
#       8
#     1   1   1   1   1   1   1   1
#     4  11  26  47  78 107 158 202 258 322 393 464
#     4  11  29  52  75 115 158 216 254 318 410 469
#     4  12  29  52  77 120 164 208 260 326 402 474
#     4  11  25  47  77 111 146 208 254 323 384 470
#     4  11  26  49  77 108 159 195 266 313 396 470
#     4  12  25  48  77 116 152 199 270 329 382 468
#     4  12  29  50  85 122 154 207 274 331 396 467
#     4  12  29  53  84 117 165 207 266 332 401 466
#
# _framework density 27.223755000000001
#
# number of rings (size 3 to 8) (size 9 to 14) (size 15 to 20)
#    0.000    0.500    2.500    3.750   12.250    2.000 
#    2.250    0.000    0.000    0.000    0.000    0.000 
#    0.000    0.000    0.000    0.000    0.000    0.000 
#
# Total GULP energy -44774.862718 kJ/mol
# GULP energy per Si atom -5596.857840 kJ/mol
# Density = 2.716179 g / cm^3
# Si number density = 27.223755 Si / 1000 Ang^3
#
#
#
# Elastic Constant Matrix: (Units=GPa)
#
#
# Indices 1 2 3 4 5 6 
#
# 1 154.3028 84.0806 63.1519 -17.6091 -17.8092 2.1566
# 2 84.0806 191.3386 86.3211 -2.0714 7.3108 -11.5385
# 3 63.1519 86.3211 237.5817 -42.2021 -30.7191 12.1130
# 4 -17.6091 -2.0714 -42.2021 73.7772 -3.0844 -23.7326
# 5 -17.8092 7.3108 -30.7191 -3.0844 58.1610 4.4106
# 6 2.1566 -11.5385 12.1130 -23.7326 4.4106 60.9106
#
#
#
# Elastic Compliance Matrix: (Units=1/GPa)
#
#
# Indices 1 2 3 4 5 6 
#
# 1 0.009507 -0.004268 -0.000128 0.002036 0.003532 -0.000582
# 2 -0.004268 0.008740 -0.003063 -0.002089 -0.004279 0.001912
# 3 -0.000128 -0.003063 0.006550 0.003545 0.004053 -0.000790
# 4 0.002036 -0.002089 0.003545 0.017942 0.003287 0.005580
# 5 0.003532 -0.004279 0.004053 0.003287 0.021280 -0.002002
# 6 -0.000582 0.001912 -0.000790 0.005580 -0.002002 0.019276
#
#
# Mechanical properties :
#
#
# Convention : Reuss Voigt Hill
#
# Bulk Modulus (GPa) = 101.22577 116.70336 108.96456
# Shear Modulus (GPa) = 49.25813 61.88105 55.56959
#
# Velocity S-wave (km/s) = 4.25830 4.77283 4.52288
# Velocity P-wave (km/s) = 7.83843 8.56355 8.20900
#
# Compressibility (1/GPa) = 0.00987891
#
# Stress axis : x y z
#
# Youngs Moduli (GPa) = 105.18566 114.42126 152.66757
#
# Poissons Ratio (x) = 0.48832 0.01960
# Poissons Ratio (y) = 0.44891 0.46759
# Poissons Ratio (z) = 0.01351 0.35045
#
# Static dielectric constant tensor:
#      x y z
#    x 2.203620 -0.124580 -0.233570 
#    y -0.124580 2.073540 0.093090 
#    z -0.233570 0.093090 2.405190 
# 
# From -- ./inp_files/6771.got.cif
#   From: 2010.05.17/outbox.cif.g08.bks.cpg/sg1_4_cif.got.tgz:6771.got - 2010.05.17 20:27:59.
