data_PCOD9000040
_publ_section_title
;
Structure prediction by ZEFSAII (Michael W. Deem and Ramdas Pophale) SiO2 
 PCOD9000040
Probable space group: P 1
;
_chemical_formula_sum "Si O2"
_cell_formula_units_Z 8
_cell_length_a 7.361308
_cell_length_b 5.257802
_cell_length_c 11.653802
_cell_angle_alpha 83.633968
_cell_angle_beta 134.620791
_cell_angle_gamma 113.791214
_cell_volume 283.275640
_symmetry_space_group_name_H-M "P 1"
_symmetry_group_IT_number 1
_symmetry_cell_setting 'triclinic'
loop_
_space_group_symop_operation_xyz
x,y,z
loop_
_atom_site_type_symbol
_atom_site_label
_atom_site_fract_x
_atom_site_fract_y
_atom_site_fract_z
Si Si1 0.630470 0.051180 0.275940
Si Si2 0.674987 0.278022 0.870226
Si Si3 0.866325 0.814823 0.224390
Si Si4 0.063874 0.618508 0.549313
Si Si5 0.035408 0.931457 0.046436
Si Si6 0.312307 0.416609 0.859268
Si Si7 0.596175 0.653001 0.462742
Si Si8 0.629598 0.138295 0.609755
O O1 0.831814 0.275948 0.448294
O O2 0.350888 0.088080 0.125442
O O3 0.825862 0.070943 0.253951
O O4 0.500380 0.735457 0.295919
O O5 0.459234 0.228026 0.882231
O O6 0.517192 0.133947 0.688875
O O7 0.888070 0.138121 0.984429
O O8 0.856609 0.625458 0.919145
O O9 0.003947 0.710291 0.392392
O O10 0.541107 0.614533 0.044852
O O11 0.044639 0.850594 0.187304
O O12 0.928900 0.757509 0.572211
O O13 0.310228 0.593007 0.733171
O O14 0.982534 0.284497 0.762614
O O15 0.508369 0.331545 0.480492
O O16 0.553355 0.832208 0.536305
#
# Coordination Sequence:
#
# PCOD9000040 Si02
#       8
#     1   1   1   1   1   1   1   1
#     4  11  23  45  72 103 145 183 236 293 348 425
#     4  11  26  44  66 108 134 189 239 284 351 423
#     4  10  25  45  72 106 139 195 228 287 365 406
#     4  10  23  46  73 110 137 187 239 286 356 419
#     4  11  27  44  69 101 145 182 241 287 348 425
#     4  10  23  46  72 100 145 178 236 295 336 425
#     4  10  21  41  66 100 136 178 233 278 351 410
#     4  11  22  41  68 100 137 184 226 288 353 407
#
# _framework density 28.241043000000001
#
# number of rings (size 3 to 8) (size 9 to 14) (size 15 to 20)
#    0.000    1.500    2.500    1.500    8.750    6.000 
#    2.250    0.000    0.000    0.000    0.000    0.000 
#    0.000    0.000    0.000    0.000    0.000    0.000 
#
# Total GULP energy -44744.958120 kJ/mol
# GULP energy per Si atom -5593.119765 kJ/mol
# Density = 2.817677 g / cm^3
# Si number density = 28.241043 Si / 1000 Ang^3
#
#
#
# Elastic Constant Matrix: (Units=GPa)
#
#
# Indices 1 2 3 4 5 6 
#
# 1 125.4336 18.4777 21.1394 -1.3393 4.2003 -39.3801
# 2 18.4777 118.9461 37.3057 -7.8351 2.3939 -40.5923
# 3 21.1394 37.3057 143.2909 5.6590 11.2061 -12.1542
# 4 -1.3393 -7.8351 5.6590 54.2306 -0.1650 -9.7300
# 5 4.2003 2.3939 11.2061 -0.1650 68.0723 1.7478
# 6 -39.3801 -40.5923 -12.1542 -9.7300 1.7478 50.0627
#
#
#
# Elastic Compliance Matrix: (Units=1/GPa)
#
#
# Indices 1 2 3 4 5 6 
#
# 1 0.011507 0.002854 -0.001506 0.002932 -0.000853 0.011600
# 2 0.002854 0.013952 -0.003037 0.004875 -0.000509 0.013785
# 3 -0.001506 -0.003037 0.007971 -0.001670 -0.001065 -0.001999
# 4 0.002932 0.004875 -0.001670 0.021181 -0.000282 0.009980
# 5 -0.000853 -0.000509 -0.001065 -0.000282 0.014985 -0.001920
# 6 0.011600 0.013785 -0.001999 0.009980 -0.001920 0.041799
#
#
# Mechanical properties :
#
#
# Convention : Reuss Voigt Hill
#
# Bulk Modulus (GPa) = 33.27477 60.16848 46.72163
# Shear Modulus (GPa) = 40.06715 55.18962 47.62838
#
# Velocity S-wave (km/s) = 3.77072 4.42547 4.11115
# Velocity P-wave (km/s) = 5.54669 6.88946 6.25422
#
# Compressibility (1/GPa) = 0.03005280
#
# Stress axis : x y z
#
# Youngs Moduli (GPa) = 86.90078 71.67314 125.45010
#
# Poissons Ratio (x) = -0.20452 0.18890
# Poissons Ratio (y) = -0.24798 0.38097
# Poissons Ratio (z) = 0.13085 0.21766
#
# Static dielectric constant tensor:
#      x y z
#    x 2.202470 0.141100 0.032820 
#    y 0.141100 2.322310 -0.055210 
#    z 0.032820 -0.055210 2.170260 
# 
# From -- ./inp_files/1574.got.cif
#   From: 2010.05.17/outbox.cif.g08.bks.cpg/sg1_1_cif.got.tgz:1574.got - 2010.05.17 20:27:59.
