data_PCOD9000025
_publ_section_title
;
Structure prediction by ZEFSAII (Michael W. Deem and Ramdas Pophale) SiO2 
 PCOD9000025
Probable space group: P 1
;
_chemical_formula_sum "Si O2"
_cell_formula_units_Z 8
_cell_length_a 13.900532
_cell_length_b 4.931917
_cell_length_c 13.693368
_cell_angle_alpha 96.407242
_cell_angle_beta 22.688612
_cell_angle_gamma 99.029003
_cell_volume 356.256255
_symmetry_space_group_name_H-M "P 1"
_symmetry_group_IT_number 1
_symmetry_cell_setting 'triclinic'
loop_
_space_group_symop_operation_xyz
x,y,z
loop_
_atom_site_type_symbol
_atom_site_label
_atom_site_fract_x
_atom_site_fract_y
_atom_site_fract_z
Si Si1 0.394990 0.673010 0.907960
Si Si2 0.401497 0.999867 0.400252
Si Si3 0.717267 0.634266 0.421786
Si Si4 0.206493 0.218509 0.418558
Si Si5 0.849739 0.844940 0.852026
Si Si6 0.171677 0.126853 0.028034
Si Si7 0.422817 0.688586 0.110398
Si Si8 0.493044 0.088169 0.542475
O O1 0.605906 0.594212 0.633313
O O2 0.162697 0.427579 0.093977
O O3 0.455641 0.671795 0.964300
O O4 0.353588 0.976139 0.922729
O O5 0.373791 0.253821 0.362708
O O6 0.420381 0.078243 0.497871
O O7 0.129864 0.805607 0.626243
O O8 0.656877 0.892257 0.120887
O O9 0.724534 0.334391 0.356162
O O10 0.535034 0.785755 0.527854
O O11 0.944495 0.880639 0.224829
O O12 0.217993 0.456847 0.339970
O O13 0.322585 0.971229 0.245816
O O14 0.934118 0.112731 0.714839
O O15 0.676042 0.654159 0.931667
O O16 0.283323 0.167552 0.816445
#
# Coordination Sequence:
#
# PCOD9000025 Si02
#       8
#     1   1   1   1   1   1   1   1
#     4  10  22  37  63  91 125 160 215 255 323 378
#     4   9  21  44  65  98 133 173 212 271 322 386
#     4  10  22  40  61  91 127 160 212 265 314 387
#     4   9  23  39  62  90 131 167 214 266 310 388
#     4   9  22  44  63  97 135 165 222 266 318 389
#     4  10  21  41  59  92 126 160 210 265 315 381
#     4  11  21  42  63  94 128 176 212 268 325 381
#     4  10  22  39  62  93 121 167 211 256 323 382
#
# _framework density 22.455746000000001
#
# number of rings (size 3 to 8) (size 9 to 14) (size 15 to 20)
#    0.750    1.500    0.000    1.500    1.750    6.000 
#    0.000    0.000    0.000    0.000    0.000    0.000 
#    0.000    0.000    0.000    0.000    0.000    0.000 
#
# Total GULP energy -44548.449301 kJ/mol
# GULP energy per Si atom -5568.556163 kJ/mol
# Density = 2.240464 g / cm^3
# Si number density = 22.455746 Si / 1000 Ang^3
#
#
#
# Elastic Constant Matrix: (Units=GPa)
#
#
# Indices 1 2 3 4 5 6 
#
# 1 136.7071 44.2634 45.9664 8.2997 46.4966 23.3607
# 2 44.2634 105.8857 26.7896 -5.5868 12.5932 -4.4062
# 3 45.9664 26.7896 109.2890 -5.4136 3.6195 13.2276
# 4 8.2997 -5.5868 -5.4136 27.9069 -1.3776 -3.2253
# 5 46.4966 12.5932 3.6195 -1.3776 37.3447 -1.1254
# 6 23.3607 -4.4062 13.2276 -3.2253 -1.1254 25.3757
#
#
#
# Elastic Compliance Matrix: (Units=1/GPa)
#
#
# Indices 1 2 3 4 5 6 
#
# 1 0.031939 -0.009383 -0.006996 -0.018213 -0.037541 -0.031365
# 2 -0.009383 0.013546 -0.000812 0.007197 0.007840 0.012675
# 3 -0.006996 -0.000812 0.012151 0.004778 0.008011 0.000929
# 4 -0.018213 0.007197 0.004778 0.047317 0.022210 0.022524
# 5 -0.037541 0.007840 0.008011 0.022210 0.072056 0.037764
# 6 -0.031365 0.012675 0.000929 0.022524 0.037764 0.074537
#
#
# Mechanical properties :
#
#
# Convention : Reuss Voigt Hill
#
# Bulk Modulus (GPa) = 43.00096 65.10228 54.05162
# Shear Modulus (GPa) = 17.02542 33.78295 25.40418
#
# Velocity S-wave (km/s) = 2.75649 3.88290 3.36713
# Velocity P-wave (km/s) = 5.41495 7.01119 6.26413
#
# Compressibility (1/GPa) = 0.02325529
#
# Stress axis : x y z
#
# Youngs Moduli (GPa) = 31.30956 73.81998 82.30112
#
# Poissons Ratio (x) = 0.69263 0.57579
# Poissons Ratio (y) = 0.29377 0.06679
# Poissons Ratio (z) = 0.21905 0.05991
#
# Static dielectric constant tensor:
#      x y z
#    x 1.828500 -0.006740 -0.107990 
#    y -0.006740 1.902240 -0.019000 
#    z -0.107990 -0.019000 1.918370 
# 
# From -- ./inp_files/541.got.cif
#   From: 2010.05.17/outbox.cif.g08.bks.cpg/sg1_1_cif.got.tgz:541.got - 2010.05.17 20:27:59.
