data_PCOD9000300
_publ_section_title
;
Structure prediction by ZEFSAII (Michael W. Deem and Ramdas Pophale) SiO2 
 PCOD9000300
Probable space group: P 1
;
_chemical_formula_sum "Si O2"
_cell_formula_units_Z 8
_cell_length_a 5.184718
_cell_length_b 15.644149
_cell_length_c 6.105357
_cell_angle_alpha 60.587338
_cell_angle_beta 101.193285
_cell_angle_gamma 124.731911
_cell_volume 351.970718
_symmetry_space_group_name_H-M "P 1"
_symmetry_group_IT_number 1
_symmetry_cell_setting 'triclinic'
loop_
_space_group_symop_operation_xyz
x,y,z
loop_
_atom_site_type_symbol
_atom_site_label
_atom_site_fract_x
_atom_site_fract_y
_atom_site_fract_z
Si Si1 0.269280 0.901200 0.069270
Si Si2 0.372058 0.236823 0.292467
Si Si3 0.149467 0.334967 0.756734
Si Si4 0.099007 0.699088 0.023382
Si Si5 0.210068 0.028297 0.263797
Si Si6 0.887524 0.104790 0.762247
Si Si7 0.772552 0.433795 0.450730
Si Si8 0.752782 0.819481 0.768539
O O1 0.935535 0.874187 0.961514
O O2 0.353149 0.965669 0.233874
O O3 0.228116 0.777665 0.170884
O O4 0.532731 0.993270 0.826358
O O5 0.436661 0.148586 0.284899
O O6 0.652742 0.341633 0.346443
O O7 0.087950 0.151577 0.517437
O O8 0.252132 0.297197 0.035422
O O9 0.461525 0.403235 0.569798
O O10 0.899289 0.212727 0.745634
O O11 0.992463 0.408371 0.665402
O O12 0.385970 0.754703 0.830816
O O13 0.845149 0.725019 0.858444
O O14 0.957370 0.565346 0.224801
O O15 0.927124 0.924940 0.492143
O O16 0.068590 0.071340 0.003193
#
# Coordination Sequence:
#
# PCOD9000300 Si02
#       8
#     1   1   1   1   1   1   1   1
#     4  10  23  39  68  97 136 178 214 281 333 399
#     4  10  24  45  68 104 138 179 227 284 341 410
#     4  10  25  42  73 100 134 181 229 280 344 399
#     4  10  23  46  69  93 137 182 222 283 331 393
#     4  11  22  40  67 104 138 172 225 272 350 404
#     4  10  23  41  65  99 142 172 220 282 340 406
#     4  11  24  49  69  99 138 181 231 284 333 402
#     4  10  24  42  69  98 133 179 224 276 336 401
#
# _framework density 22.72916
#
# number of rings (size 3 to 8) (size 9 to 14) (size 15 to 20)
#    0.750    1.000    0.000    3.000    8.750    3.000 
#    4.500    0.000    0.000    0.000    0.000    0.000 
#    0.000    0.000    0.000    0.000    0.000    0.000 
#
# Total GULP energy -44711.972068 kJ/mol
# GULP energy per Si atom -5588.996509 kJ/mol
# Density = 2.267743 g / cm^3
# Si number density = 22.729160 Si / 1000 Ang^3
#
#
#
# Elastic Constant Matrix: (Units=GPa)
#
#
# Indices 1 2 3 4 5 6 
#
# 1 86.4517 45.9380 17.6768 -11.6940 2.6563 -12.7412
# 2 45.9380 108.3363 66.7462 -28.6126 -9.2806 -12.7575
# 3 17.6768 66.7462 99.3769 -23.0089 0.7808 -6.3336
# 4 -11.6940 -28.6126 -23.0089 34.2344 -0.1366 3.8120
# 5 2.6563 -9.2806 0.7808 -0.1366 30.7912 -4.8998
# 6 -12.7412 -12.7575 -6.3336 3.8120 -4.8998 21.2526
#
#
#
# Elastic Compliance Matrix: (Units=1/GPa)
#
#
# Indices 1 2 3 4 5 6 
#
# 1 0.016293 -0.008615 0.003215 -0.000021 -0.003321 0.004793
# 2 -0.008615 0.024415 -0.012606 0.008312 0.009482 0.006429
# 3 0.003215 -0.012606 0.018639 0.003269 -0.004819 -0.001782
# 4 -0.000021 0.008312 0.003269 0.038396 0.002539 -0.000351
# 5 -0.003321 0.009482 -0.004819 0.002539 0.037415 0.010435
# 6 0.004793 0.006429 -0.001782 -0.000351 0.010435 0.055723
#
#
# Mechanical properties :
#
#
# Convention : Reuss Voigt Hill
#
# Bulk Modulus (GPa) = 42.85578 61.65409 52.25494
# Shear Modulus (GPa) = 21.30636 28.17591 24.74113
#
# Velocity S-wave (km/s) = 3.06502 3.52467 3.30285
# Velocity P-wave (km/s) = 5.60551 6.61429 6.13068
#
# Compressibility (1/GPa) = 0.02333407
#
# Stress axis : x y z
#
# Youngs Moduli (GPa) = 61.37517 40.95872 53.65216
#
# Poissons Ratio (x) = 0.35287 -0.17249
# Poissons Ratio (y) = 0.52876 0.67633
# Poissons Ratio (z) = -0.19731 0.51632
#
# Static dielectric constant tensor:
#      x y z
#    x 1.852610 -0.021090 0.013860 
#    y -0.021090 1.861120 0.053150 
#    z 0.013860 0.053150 1.833700 
# 
# From -- ./inp_files/715.got.cif
#   From: 2010.05.17/outbox.cif.g08.bks.cpg/sg1_1_cif.got.tgz:715.got - 2010.05.17 20:27:59.
