data_PCOD9000610
_publ_section_title
;
Structure prediction by ZEFSAII (Michael W. Deem and Ramdas Pophale) SiO2 
 PCOD9000610
Probable space group: P 1
;
_chemical_formula_sum "Si O2"
_cell_formula_units_Z 8
_cell_length_a 11.018165
_cell_length_b 5.452326
_cell_length_c 7.741792
_cell_angle_alpha 83.314246
_cell_angle_beta 122.290074
_cell_angle_gamma 64.754973
_cell_volume 317.529326
_symmetry_space_group_name_H-M "P 1"
_symmetry_group_IT_number 1
_symmetry_cell_setting 'triclinic'
loop_
_space_group_symop_operation_xyz
x,y,z
loop_
_atom_site_type_symbol
_atom_site_label
_atom_site_fract_x
_atom_site_fract_y
_atom_site_fract_z
Si Si1 0.864950 0.077230 0.480550
Si Si2 0.759481 0.577030 0.904946
Si Si3 0.164977 0.177577 0.318305
Si Si4 0.606071 0.132930 0.508737
Si Si5 0.700912 0.750134 0.209160
Si Si6 0.188454 0.472278 0.653212
Si Si7 0.457046 0.502008 0.704410
Si Si8 0.355929 0.106447 0.108071
O O1 0.772025 0.143832 0.591999
O O2 0.830084 0.386059 0.362441
O O3 0.770898 0.928040 0.337603
O O4 0.063532 0.806484 0.609752
O O5 0.711601 0.802094 0.010781
O O6 0.966525 0.313605 0.094861
O O7 0.635088 0.473481 0.868957
O O8 0.691031 0.785283 0.663958
O O9 0.146670 0.409575 0.434911
O O10 0.272894 0.110371 0.227142
O O11 0.289634 0.852315 0.531343
O O12 0.490487 0.343048 0.560818
O O13 0.458960 0.250378 0.238830
O O14 0.521644 0.822647 0.154221
O O15 0.388052 0.374710 0.798965
O O16 0.201776 0.265838 0.836548
#
# Coordination Sequence:
#
# PCOD9000610 Si02
#       8
#     1   1   1   1   1   1   1   1
#     4  11  26  48  74 111 151 199 259 319 381 465
#     4  12  26  46  77 110 153 203 257 321 391 455
#     4  12  25  51  74 110 148 195 260 321 384 466
#     4  11  25  47  73 109 154 201 258 314 391 459
#     4  11  25  47  76 111 152 200 256 316 391 455
#     4  12  26  49  74 110 152 202 259 319 389 462
#     4  12  25  47  74 112 151 201 258 319 389 460
#     4  11  24  49  74 107 153 201 255 319 384 462
#
# _framework density 25.194524000000001
#
# number of rings (size 3 to 8) (size 9 to 14) (size 15 to 20)
#    0.000    0.500    3.750    3.750    7.000    1.000 
#    4.500    0.000    0.000    0.000    0.000    0.000 
#    0.000    0.000    0.000    0.000    0.000    0.000 
#
# Total GULP energy -44628.930122 kJ/mol
# GULP energy per Si atom -5578.616265 kJ/mol
# Density = 2.513718 g / cm^3
# Si number density = 25.194524 Si / 1000 Ang^3
#
#
#
# Elastic Constant Matrix: (Units=GPa)
#
#
# Indices 1 2 3 4 5 6 
#
# 1 127.8996 -8.9737 28.2944 0.5233 7.1925 -19.9026
# 2 -8.9737 61.8148 17.1959 -18.6723 4.1711 -11.7775
# 3 28.2944 17.1959 92.2950 3.0340 12.8288 -8.7846
# 4 0.5233 -18.6723 3.0340 31.4450 -10.6686 5.7124
# 5 7.1925 4.1711 12.8288 -10.6686 46.9815 1.4613
# 6 -19.9026 -11.7775 -8.7846 5.7124 1.4613 48.1388
#
#
#
# Elastic Compliance Matrix: (Units=1/GPa)
#
#
# Indices 1 2 3 4 5 6 
#
# 1 0.009401 0.003387 -0.003059 0.001155 -0.000768 0.004043
# 2 0.003387 0.023229 -0.005713 0.014212 0.002073 0.004291
# 3 -0.003059 -0.005713 0.013691 -0.006213 -0.004196 0.000701
# 4 0.001155 0.014212 -0.006213 0.044913 0.010545 -0.002829
# 5 -0.000768 0.002073 -0.004196 0.010545 0.024839 -0.002581
# 6 0.004043 0.004291 0.000701 -0.002829 -0.002581 0.024037
#
#
# Mechanical properties :
#
#
# Convention : Reuss Voigt Hill
#
# Bulk Modulus (GPa) = 28.12957 39.44918 33.78937
# Shear Modulus (GPa) = 30.72563 41.67926 36.20244
#
# Velocity S-wave (km/s) = 3.49597 4.07172 3.79478
# Velocity P-wave (km/s) = 5.24261 6.14793 5.71323
#
# Compressibility (1/GPa) = 0.03554979
#
# Stress axis : x y z
#
# Youngs Moduli (GPa) = 106.37533 43.04941 73.03944
#
# Poissons Ratio (x) = -0.14580 0.22345
# Poissons Ratio (y) = -0.36026 0.41728
# Poissons Ratio (z) = 0.32543 0.24594
#
# Static dielectric constant tensor:
#      x y z
#    x 2.088830 -0.018940 -0.057340 
#    y -0.018940 2.118810 0.056210 
#    z -0.057340 0.056210 2.064560 
# 
# From -- ./inp_files/1757.got.cif
#   From: 2010.05.17/outbox.cif.g08.bks.cpg/sg1_1_cif.got.tgz:1757.got - 2010.05.17 20:27:59.
