data_PCOD9000397
_publ_section_title
;
Structure prediction by ZEFSAII (Michael W. Deem and Ramdas Pophale) SiO2 
 PCOD9000397
Probable space group: P 1
;
_chemical_formula_sum "Si O2"
_cell_formula_units_Z 8
_cell_length_a 5.937475
_cell_length_b 5.133850
_cell_length_c 12.145175
_cell_angle_alpha 110.348547
_cell_angle_beta 103.138307
_cell_angle_gamma 89.813276
_cell_volume 336.855328
_symmetry_space_group_name_H-M "P 1"
_symmetry_group_IT_number 1
_symmetry_cell_setting 'triclinic'
loop_
_space_group_symop_operation_xyz
x,y,z
loop_
_atom_site_type_symbol
_atom_site_label
_atom_site_fract_x
_atom_site_fract_y
_atom_site_fract_z
Si Si1 0.397130 0.661330 0.409070
Si Si2 0.334456 0.867677 0.858581
Si Si3 0.637944 0.855401 0.688060
Si Si4 0.050386 0.286407 0.005572
Si Si5 0.185297 0.056923 0.286528
Si Si6 0.780567 0.799535 0.047451
Si Si7 0.488678 0.643323 0.185840
Si Si8 0.918357 0.445462 0.801039
O O1 0.538764 0.752484 0.545869
O O2 0.238508 0.377925 0.365218
O O3 0.567077 0.620961 0.317282
O O4 0.234422 0.891488 0.379524
O O5 0.434540 0.926120 0.757677
O O6 0.162022 0.586307 0.807137
O O7 0.200456 0.136051 0.911435
O O8 0.524113 0.830030 0.967220
O O9 0.746034 0.614744 0.735290
O O10 0.819562 0.126340 0.735092
O O11 0.909713 0.510665 0.948088
O O12 0.239270 0.459516 0.123913
O O13 0.903293 0.032300 0.003580
O O14 0.390837 0.951164 0.213895
O O15 0.944226 0.962792 0.188385
O O16 0.662923 0.575594 0.100719
#
# Coordination Sequence:
#
# PCOD9000397 Si02
#       8
#     1   1   1   1   1   1   1   1
#     4  10  23  50  70 103 150 190 249 308 352 451
#     4  12  28  46  79 112 156 195 249 309 383 448
#     4  12  28  49  77 103 156 206 245 312 375 425
#     4  11  24  44  71 111 150 185 250 309 365 462
#     4   9  23  45  69 106 145 180 249 303 357 456
#     4  11  23  46  75 113 145 197 232 315 396 429
#     4   9  23  40  73 103 147 185 238 306 371 437
#     4  12  26  48  70 113 147 194 260 300 361 462
#
# _framework density 23.749068999999999
#
# number of rings (size 3 to 8) (size 9 to 14) (size 15 to 20)
#    0.750    0.500    3.750    0.750    5.250    2.000 
#    4.500    0.000    0.000    0.000    0.000    0.000 
#    0.000    0.000    0.000    0.000    0.000    0.000 
#
# Total GULP energy -44588.476618 kJ/mol
# GULP energy per Si atom -5573.559577 kJ/mol
# Density = 2.369501 g / cm^3
# Si number density = 23.749069 Si / 1000 Ang^3
#
#
#
# Elastic Constant Matrix: (Units=GPa)
#
#
# Indices 1 2 3 4 5 6 
#
# 1 58.8257 24.8482 38.0603 3.4946 7.3107 4.0113
# 2 24.8482 153.7791 62.2899 3.1079 5.7699 -20.5644
# 3 38.0603 62.2899 212.0364 -9.0186 18.3264 -1.5440
# 4 3.4946 3.1079 -9.0186 37.7558 5.3284 8.5053
# 5 7.3107 5.7699 18.3264 5.3284 22.5751 -1.1834
# 6 4.0113 -20.5644 -1.5440 8.5053 -1.1834 31.0147
#
#
#
# Elastic Compliance Matrix: (Units=1/GPa)
#
#
# Indices 1 2 3 4 5 6 
#
# 1 0.020702 -0.002723 -0.002641 -0.000741 -0.003928 -0.004561
# 2 -0.002723 0.008793 -0.002294 -0.002785 0.001515 0.006890
# 3 -0.002641 -0.002294 0.006371 0.003015 -0.004540 -0.001862
# 4 -0.000741 -0.002785 0.003015 0.031201 -0.009412 -0.010517
# 5 -0.003928 0.001515 -0.004540 -0.009412 0.051394 0.005828
# 6 -0.004561 0.006890 -0.001862 -0.010517 0.005828 0.040415
#
#
# Mechanical properties :
#
#
# Convention : Reuss Voigt Hill
#
# Bulk Modulus (GPa) = 48.66120 75.00421 61.83270
# Shear Modulus (GPa) = 27.61818 38.23197 32.92508
#
# Velocity S-wave (km/s) = 3.41386 4.01662 3.72744
# Velocity P-wave (km/s) = 6.00612 7.29119 6.67963
#
# Compressibility (1/GPa) = 0.02055025
#
# Stress axis : x y z
#
# Youngs Moduli (GPa) = 48.30551 113.73239 156.95856
#
# Poissons Ratio (x) = 0.30966 0.41457
# Poissons Ratio (y) = 0.13152 0.35999
# Poissons Ratio (z) = 0.12759 0.26085
#
# Static dielectric constant tensor:
#      x y z
#    x 2.028410 -0.084300 -0.049100 
#    y -0.084300 1.979240 -0.042330 
#    z -0.049100 -0.042330 1.893830 
# 
# From -- ./inp_files/6906.got.cif
#   From: 2010.05.17/outbox.cif.g08.bks.cpg/sg1_4_cif.got.tgz:6906.got - 2010.05.17 20:27:59.
