data_PCOD9000872
_publ_section_title
;
Structure prediction by ZEFSAII (Michael W. Deem and Ramdas Pophale) SiO2 
 PCOD9000872
Probable space group: P 1
;
_chemical_formula_sum "Si O2"
_cell_formula_units_Z 8
_cell_length_a 7.731656
_cell_length_b 9.974381
_cell_length_c 11.949926
_cell_angle_alpha 146.323188
_cell_angle_beta 138.684957
_cell_angle_gamma 54.000363
_cell_volume 335.617564
_symmetry_space_group_name_H-M "P 1"
_symmetry_group_IT_number 1
_symmetry_cell_setting 'triclinic'
loop_
_space_group_symop_operation_xyz
x,y,z
loop_
_atom_site_type_symbol
_atom_site_label
_atom_site_fract_x
_atom_site_fract_y
_atom_site_fract_z
Si Si1 0.507980 0.926030 0.429190
Si Si2 0.782345 0.468425 0.226825
Si Si3 0.112191 0.637842 0.730948
Si Si4 0.311079 0.572723 0.440655
Si Si5 0.586815 0.794554 0.929265
Si Si6 0.670669 0.278339 0.553238
Si Si7 0.677868 0.935322 0.747356
Si Si8 0.034475 0.138920 0.457126
O O1 0.566110 0.656626 0.237576
O O2 0.723205 0.992383 0.677464
O O3 0.535529 0.105876 0.462822
O O4 0.249398 0.969112 0.403554
O O5 0.949933 0.531910 0.467235
O O6 0.002286 0.506007 0.260681
O O7 0.652282 0.192616 0.969675
O O8 0.938710 0.822092 0.836538
O O9 0.393515 0.762668 0.918194
O O10 0.139286 0.408180 0.660855
O O11 0.397732 0.776666 0.718410
O O12 0.467162 0.348404 0.404876
O O13 0.449870 0.710483 0.498109
O O14 0.737130 0.549696 0.824877
O O15 0.779802 0.033780 0.191133
O O16 0.916944 0.157259 0.537117
#
# Coordination Sequence:
#
# PCOD9000872 Si02
#       8
#     1   1   1   1   1   1   1   1
#     4  11  26  44  60 101 138 167 215 266 316 403
#     4  10  23  42  66  92 138 169 209 269 325 380
#     4  10  20  40  66  98 127 158 228 272 301 391
#     4   9  20  44  65  96 120 165 226 263 306 385
#     4   9  21  38  66  98 122 163 215 269 318 367
#     4  10  23  43  65  96 131 162 224 270 306 385
#     4  11  23  41  67  94 131 177 209 263 334 374
#     4  12  22  42  69  91 133 171 210 266 330 369
#
# _framework density 23.836655
#
# number of rings (size 3 to 8) (size 9 to 14) (size 15 to 20)
#    0.750    1.000    2.500    0.750    3.500    2.000 
#    2.250    0.000    0.000    0.000    0.000    0.000 
#    0.000    0.000    0.000    0.000    0.000    0.000 
#
# Total GULP energy -44624.047448 kJ/mol
# GULP energy per Si atom -5578.005931 kJ/mol
# Density = 2.378240 g / cm^3
# Si number density = 23.836655 Si / 1000 Ang^3
#
#
#
# Elastic Constant Matrix: (Units=GPa)
#
#
# Indices 1 2 3 4 5 6 
#
# 1 135.3512 65.4338 6.5977 19.9385 9.9056 -16.4052
# 2 65.4338 107.0628 34.2035 29.1585 5.1625 -8.7634
# 3 6.5977 34.2035 46.2917 24.1258 -0.4927 -0.1933
# 4 19.9385 29.1585 24.1258 23.0228 -2.8673 -8.7943
# 5 9.9056 5.1625 -0.4927 -2.8673 24.8723 3.3691
# 6 -16.4052 -8.7634 -0.1933 -8.7943 3.3691 45.6284
#
#
#
# Elastic Compliance Matrix: (Units=1/GPa)
#
#
# Indices 1 2 3 4 5 6 
#
# 1 0.012760 -0.007247 0.010027 -0.012546 -0.004986 0.001188
# 2 -0.007247 0.019129 -0.007616 -0.010578 -0.002342 -0.000830
# 3 0.010027 -0.007616 0.060991 -0.067759 -0.007648 -0.010094
# 4 -0.012546 -0.010578 -0.067759 0.149017 0.020266 0.020395
# 5 -0.004986 -0.002342 -0.007648 0.020266 0.045092 -0.001698
# 6 0.001188 -0.000830 -0.010094 0.020395 -0.001698 0.026198
#
#
# Mechanical properties :
#
#
# Convention : Reuss Voigt Hill
#
# Bulk Modulus (GPa) = 12.01839 55.68618 33.85228
# Shear Modulus (GPa) = 14.26147 30.86941 22.56544
#
# Velocity S-wave (km/s) = 2.44867 3.60257 3.08014
# Velocity P-wave (km/s) = 3.61214 6.38098 5.18481
#
# Compressibility (1/GPa) = 0.08320582
#
# Stress axis : x y z
#
# Youngs Moduli (GPa) = 78.36919 52.27768 16.39596
#
# Poissons Ratio (x) = 0.37887 -0.16440
# Poissons Ratio (y) = 0.56796 0.12487
# Poissons Ratio (z) = -0.78578 0.39816
#
# Static dielectric constant tensor:
#      x y z
#    x 2.013350 -0.023790 -0.024340 
#    y -0.023790 1.975270 -0.065260 
#    z -0.024340 -0.065260 1.898090 
# 
# From -- ./inp_files/7154.got.cif
#   From: 2010.05.17/outbox.cif.g08.bks.cpg/sg1_4_cif.got.tgz:7154.got - 2010.05.17 20:27:59.
