data_PCOD9000371
_publ_section_title
;
Structure prediction by ZEFSAII (Michael W. Deem and Ramdas Pophale) SiO2 
 PCOD9000371
Probable space group: P 1
;
_chemical_formula_sum "Si O2"
_cell_formula_units_Z 8
_cell_length_a 5.080925
_cell_length_b 6.690075
_cell_length_c 9.489252
_cell_angle_alpha 104.646371
_cell_angle_beta 75.700159
_cell_angle_gamma 79.531827
_cell_volume 291.972069
_symmetry_space_group_name_H-M "P 1"
_symmetry_group_IT_number 1
_symmetry_cell_setting 'triclinic'
loop_
_space_group_symop_operation_xyz
x,y,z
loop_
_atom_site_type_symbol
_atom_site_label
_atom_site_fract_x
_atom_site_fract_y
_atom_site_fract_z
Si Si1 0.186900 0.952630 0.585250
Si Si2 0.073134 0.508003 0.308341
Si Si3 0.921837 0.607848 0.061239
Si Si4 0.551450 0.079629 0.778677
Si Si5 0.563705 0.506679 0.553155
Si Si6 0.650685 0.278781 0.088262
Si Si7 0.491343 0.662752 0.878578
Si Si8 0.414772 0.127338 0.327083
O O1 0.305430 0.108174 0.701288
O O2 0.306909 0.710575 0.582451
O O3 0.852901 0.020189 0.651579
O O4 0.312715 0.970702 0.417038
O O5 0.838399 0.571144 0.471302
O O6 0.407715 0.476973 0.223646
O O7 0.143565 0.250280 0.291525
O O8 0.929476 0.674289 0.234033
O O9 0.669759 0.650798 0.993423
O O10 0.178777 0.658912 0.957590
O O11 0.933172 0.357071 0.057058
O O12 0.515009 0.873404 0.832892
O O13 0.564286 0.236356 0.934911
O O14 0.592641 0.482247 0.712857
O O15 0.501542 0.303086 0.448143
O O16 0.649754 0.087301 0.164115
#
# Coordination Sequence:
#
# PCOD9000371 Si02
#       8
#     1   1   1   1   1   1   1   1
#     4  11  28  46  75 108 145 199 241 300 374 425
#     4  10  23  46  70 107 146 186 248 295 359 438
#     4  12  23  46  70 105 135 194 244 284 366 426
#     4  11  27  48  67 109 151 184 248 307 353 448
#     4  11  25  46  73 108 151 184 252 302 355 453
#     4  10  25  44  71 106 144 185 247 290 360 438
#     4  11  26  43  72 105 141 191 238 301 368 418
#     4  10  25  45  72 108 143 199 232 305 369 426
#
# _framework density 27.399878999999999
#
# number of rings (size 3 to 8) (size 9 to 14) (size 15 to 20)
#    0.750    0.500    2.500    1.500   12.250    1.000 
#    0.000    1.250    0.000    0.000    0.000    0.000 
#    0.000    0.000    0.000    0.000    0.000    0.000 
#
# Total GULP energy -44619.496530 kJ/mol
# GULP energy per Si atom -5577.437066 kJ/mol
# Density = 2.733752 g / cm^3
# Si number density = 27.399879 Si / 1000 Ang^3
#
#
#
# Elastic Constant Matrix: (Units=GPa)
#
#
# Indices 1 2 3 4 5 6 
#
# 1 132.9509 24.7247 27.2251 -8.0159 -28.5863 23.7719
# 2 24.7247 72.0340 23.6973 -1.4005 -4.4946 15.2836
# 3 27.2251 23.6973 145.9781 -33.6466 -17.8398 15.0391
# 4 -8.0159 -1.4005 -33.6466 56.4470 -0.7049 7.7090
# 5 -28.5863 -4.4946 -17.8398 -0.7049 50.6883 -8.6896
# 6 23.7719 15.2836 15.0391 7.7090 -8.6896 32.6341
#
#
#
# Elastic Compliance Matrix: (Units=1/GPa)
#
#
# Indices 1 2 3 4 5 6 
#
# 1 0.010004 -0.001921 0.000127 0.002294 0.004558 -0.005774
# 2 -0.001921 0.016281 -0.001924 -0.000264 -0.001284 -0.005619
# 3 0.000127 -0.001924 0.009297 0.006124 0.002530 -0.004249
# 4 0.002294 -0.000264 0.006124 0.022972 0.002165 -0.009220
# 5 0.004558 -0.001284 0.002530 0.002165 0.023421 0.001840
# 6 -0.005774 -0.005619 -0.004249 -0.009220 0.001840 0.042106
#
#
# Mechanical properties :
#
#
# Convention : Reuss Voigt Hill
#
# Bulk Modulus (GPa) = 35.52866 55.80637 45.66751
# Shear Modulus (GPa) = 35.48622 46.30827 40.89724
#
# Velocity S-wave (km/s) = 3.60269 4.11553 3.86762
# Velocity P-wave (km/s) = 5.50460 6.55706 6.05375
#
# Compressibility (1/GPa) = 0.02814629
#
# Stress axis : x y z
#
# Youngs Moduli (GPa) = 99.96366 61.41942 107.55612
#
# Poissons Ratio (x) = 0.11800 -0.01364
# Poissons Ratio (y) = 0.19206 0.20690
# Poissons Ratio (z) = -0.01268 0.11815
#
# Static dielectric constant tensor:
#      x y z
#    x 2.345200 0.025830 0.236040 
#    y 0.025830 2.347330 0.137900 
#    z 0.236040 0.137900 2.527410 
# 
# From -- ./inp_files/2981.got.cif
#   From: 2010.05.17/outbox.cif.g08.bks.cpg/sg1_2_cif.got.tgz:2981.got - 2010.05.17 20:27:59.
