data_PCOD9000166
_publ_section_title
;
Structure prediction by ZEFSAII (Michael W. Deem and Ramdas Pophale) SiO2 
 PCOD9000166
Probable space group: P 1
;
_chemical_formula_sum "Si O2"
_cell_formula_units_Z 8
_cell_length_a 11.621811
_cell_length_b 7.955020
_cell_length_c 4.902524
_cell_angle_alpha 110.242604
_cell_angle_beta 103.699581
_cell_angle_gamma 46.804442
_cell_volume 310.018323
_symmetry_space_group_name_H-M "P 1"
_symmetry_group_IT_number 1
_symmetry_cell_setting 'triclinic'
loop_
_space_group_symop_operation_xyz
x,y,z
loop_
_atom_site_type_symbol
_atom_site_label
_atom_site_fract_x
_atom_site_fract_y
_atom_site_fract_z
Si Si1 0.304280 0.350150 0.397640
Si Si2 0.509398 0.200640 0.945946
Si Si3 0.943984 0.711534 0.406425
Si Si4 0.760698 0.691000 0.673418
Si Si5 0.509398 0.683959 0.400890
Si Si6 0.943984 0.303893 0.940412
Si Si7 0.304280 0.944686 0.949196
Si Si8 0.713789 0.237909 0.673418
O O1 0.371671 0.285430 0.702916
O O2 0.304621 0.147077 0.173418
O O3 0.123395 0.592349 0.421848
O O4 0.418893 0.341059 0.250300
O O5 0.611832 0.231149 0.833572
O O6 0.631254 0.915946 0.922779
O O7 0.880590 0.728223 0.681888
O O8 0.928239 0.523459 0.173418
O O9 0.823906 0.989792 0.425077
O O10 0.631254 0.724942 0.424057
O O11 0.880590 0.413993 0.664949
O O12 0.611832 0.448584 0.513265
O O13 0.418893 0.724550 0.096536
O O14 0.371671 0.874623 0.643920
O O15 0.123395 0.064256 0.924988
O O16 0.823906 0.265793 0.921759
#
# Coordination Sequence:
#
# PCOD9000166 Si02
#       8
#     1   1   1   1   1   1   1   1
#     4  11  23  44  75 110 145 198 243 309 369 443
#     4  11  24  44  73 107 151 188 251 299 369 439
#     4  10  25  45  78 105 149 194 245 306 377 434
#     4  10  22  40  72 110 144 188 248 300 366 444
#     4  11  24  44  73 107 151 188 251 299 369 439
#     4  10  25  45  78 105 149 194 245 306 377 434
#     4  11  23  44  75 110 145 198 243 309 369 443
#     4  10  26  50  72 114 146 198 248 306 364 450
#
# _framework density 25.804929000000001
#
# number of rings (size 3 to 8) (size 9 to 14) (size 15 to 20)
#    0.000    1.500    2.500    0.000   14.000    2.000 
#    4.500    0.000    0.000    0.000    0.000    0.000 
#    0.000    0.000    0.000    0.000    0.000    0.000 
#
# Total GULP energy -44673.808015 kJ/mol
# GULP energy per Si atom -5584.226002 kJ/mol
# Density = 2.574620 g / cm^3
# Si number density = 25.804929 Si / 1000 Ang^3
#
#
#
# Elastic Constant Matrix: (Units=GPa)
#
#
# Indices 1 2 3 4 5 6 
#
# 1 128.3866 52.7456 20.9103 -6.8944 2.7209 -23.8460
# 2 52.7456 143.1765 22.7888 0.7398 -3.1434 -23.7981
# 3 20.9103 22.7888 97.5701 -3.3452 -3.3948 -9.8737
# 4 -6.8944 0.7398 -3.3452 41.2682 4.8574 0.8101
# 5 2.7209 -3.1434 -3.3948 4.8574 43.3283 -1.1459
# 6 -23.8460 -23.7981 -9.8737 0.8101 -1.1459 40.0217
#
#
#
# Elastic Compliance Matrix: (Units=1/GPa)
#
#
# Indices 1 2 3 4 5 6 
#
# 1 0.009985 -0.002893 -0.001046 0.001677 -0.001003 0.003908
# 2 -0.002893 0.008795 -0.001101 -0.000903 0.000921 0.003279
# 3 -0.001046 -0.001101 0.010924 0.000607 0.000811 0.001428
# 4 0.001677 -0.000903 0.000607 0.024920 -0.002916 0.000024
# 5 -0.001003 0.000921 0.000811 -0.002916 0.023623 0.000886
# 6 0.003908 0.003279 0.001428 0.000024 0.000886 0.029642
#
#
# Mechanical properties :
#
#
# Convention : Reuss Voigt Hill
#
# Bulk Modulus (GPa) = 50.95921 62.44694 56.70308
# Shear Modulus (GPa) = 40.15666 43.10288 41.62977
#
# Velocity S-wave (km/s) = 3.94910 4.09141 4.02088
# Velocity P-wave (km/s) = 6.37060 6.82434 6.60137
#
# Compressibility (1/GPa) = 0.01962354
#
# Stress axis : x y z
#
# Youngs Moduli (GPa) = 100.14877 113.69557 91.54159
#
# Poissons Ratio (x) = 0.32893 0.09577
# Poissons Ratio (y) = 0.28973 0.10082
# Poissons Ratio (z) = 0.10477 0.12522
#
# Static dielectric constant tensor:
#      x y z
#    x 2.095960 0.117530 -0.008660 
#    y 0.117530 2.060130 0.002410 
#    z -0.008660 0.002410 2.161020 
# 
# From -- ./inp_files/2235.got.cif
#   From: 2010.05.17/outbox.cif.g08.bks.cpg/sg1_2_cif.got.tgz:2235.got - 2010.05.17 20:27:59.
