data_PCOD9000056
_publ_section_title
;
Structure prediction by ZEFSAII (Michael W. Deem and Ramdas Pophale) SiO2 
 PCOD9000056
Probable space group: P 1
;
_chemical_formula_sum "Si O2"
_cell_formula_units_Z 8
_cell_length_a 13.187502
_cell_length_b 9.375537
_cell_length_c 6.896042
_cell_angle_alpha 122.139004
_cell_angle_beta 69.059135
_cell_angle_gamma 148.199142
_cell_volume 371.785981
_symmetry_space_group_name_H-M "P 1"
_symmetry_group_IT_number 1
_symmetry_cell_setting 'triclinic'
loop_
_space_group_symop_operation_xyz
x,y,z
loop_
_atom_site_type_symbol
_atom_site_label
_atom_site_fract_x
_atom_site_fract_y
_atom_site_fract_z
Si Si1 0.641230 0.622730 0.734510
Si Si2 0.191714 0.094544 0.729489
Si Si3 0.895843 0.188221 0.732466
Si Si4 0.625046 0.092381 0.348511
Si Si5 0.856117 0.626473 0.329802
Si Si6 0.871180 0.533164 0.832931
Si Si7 0.831593 0.018963 0.237502
Si Si8 0.192885 0.493659 0.078535
O O1 0.411553 0.314269 0.707229
O O2 0.721295 0.585449 0.507340
O O3 0.407143 0.837034 0.233599
O O4 0.756222 0.773697 0.970409
O O5 0.204261 0.305816 0.934550
O O6 0.058718 0.826763 0.785967
O O7 0.072803 0.930046 0.489652
O O8 0.894227 0.374639 0.788411
O O9 0.093351 0.414570 0.885395
O O10 0.875442 0.046825 0.451929
O O11 0.714614 0.893047 0.779228
O O12 0.774964 0.342752 0.258925
O O13 0.669802 0.958008 0.281828
O O14 0.685791 0.280930 0.631276
O O15 0.848436 0.617944 0.098962
O O16 0.035519 0.345363 0.240096
#
# Coordination Sequence:
#
# PCOD9000056 Si02
#       8
#     1   1   1   1   1   1   1   1
#     4  11  23  41  70  99 135 176 220 278 335 390
#     4  11  24  43  69  99 135 178 219 279 334 390
#     4  10  23  43  70 100 132 177 223 278 326 400
#     4  10  23  43  69  97 137 178 216 277 336 397
#     4  11  23  42  66 101 139 170 220 280 334 390
#     4  10  25  45  69  98 139 178 219 275 338 394
#     4  10  21  42  65  99 135 170 224 274 327 394
#     4  11  22  41  72  99 130 177 225 273 334 393
#
# _framework density 21.517758000000001
#
# number of rings (size 3 to 8) (size 9 to 14) (size 15 to 20)
#    0.000    1.500    3.750    1.500    1.750    6.000 
#    2.250    2.500    0.000    0.000    0.000    0.000 
#    0.000    0.000    0.000    0.000    0.000    0.000 
#
# Total GULP energy -44700.481464 kJ/mol
# GULP energy per Si atom -5587.560183 kJ/mol
# Density = 2.146878 g / cm^3
# Si number density = 21.517758 Si / 1000 Ang^3
#
#
#
# Elastic Constant Matrix: (Units=GPa)
#
#
# Indices 1 2 3 4 5 6 
#
# 1 75.7058 41.1885 41.4443 0.8202 13.4722 -2.7560
# 2 41.1885 133.0741 68.3528 22.1526 20.2213 27.3715
# 3 41.4443 68.3528 193.8024 2.0413 27.5093 11.0794
# 4 0.8202 22.1526 2.0413 20.1816 -2.8519 -0.4045
# 5 13.4722 20.2213 27.5093 -2.8519 39.1788 4.2859
# 6 -2.7560 27.3715 11.0794 -0.4045 4.2859 44.1641
#
#
#
# Elastic Compliance Matrix: (Units=1/GPa)
#
#
# Indices 1 2 3 4 5 6 
#
# 1 0.018372 -0.007012 -0.001637 0.006996 -0.001710 0.006133
# 2 -0.007012 0.017279 -0.003166 -0.019210 -0.004579 -0.010084
# 3 -0.001637 -0.003166 0.006938 0.002489 -0.002536 0.000388
# 4 0.006996 -0.019210 0.002489 0.071704 0.009730 0.011430
# 5 -0.001710 -0.004579 -0.002536 0.009730 0.030915 0.000457
# 6 0.006133 -0.010084 0.000388 0.011430 0.000457 0.029238
#
#
# Mechanical properties :
#
#
# Convention : Reuss Voigt Hill
#
# Bulk Modulus (GPa) = 52.74471 78.28370 65.51421
# Shear Modulus (GPa) = 24.46240 37.47804 30.97022
#
# Velocity S-wave (km/s) = 3.37537 4.17793 3.79791
# Velocity P-wave (km/s) = 6.30526 7.72874 7.05300
#
# Compressibility (1/GPa) = 0.01895925
#
# Stress axis : x y z
#
# Youngs Moduli (GPa) = 54.43076 57.87454 144.13055
#
# Poissons Ratio (x) = 0.40579 0.23600
# Poissons Ratio (y) = 0.38165 0.45630
# Poissons Ratio (z) = 0.08912 0.18322
#
# Static dielectric constant tensor:
#      x y z
#    x 1.844790 -0.041590 -0.044840 
#    y -0.041590 1.743230 0.024370 
#    z -0.044840 0.024370 1.815590 
# 
# From -- ./inp_files/2770.got.cif
#   From: 2010.05.17/outbox.cif.g08.bks.cpg/sg1_2_cif.got.tgz:2770.got - 2010.05.17 20:27:59.
