data_PCOD9000911
_publ_section_title
;
Structure prediction by ZEFSAII (Michael W. Deem and Ramdas Pophale) SiO2 
 PCOD9000911
Probable space group: P 1
;
_chemical_formula_sum "Si O2"
_cell_formula_units_Z 8
_cell_length_a 5.361500
_cell_length_b 13.107927
_cell_length_c 10.135378
_cell_angle_alpha 30.856900
_cell_angle_beta 117.282431
_cell_angle_gamma 116.501251
_cell_volume 322.513732
_symmetry_space_group_name_H-M "P 1"
_symmetry_group_IT_number 1
_symmetry_cell_setting 'triclinic'
loop_
_space_group_symop_operation_xyz
x,y,z
loop_
_atom_site_type_symbol
_atom_site_label
_atom_site_fract_x
_atom_site_fract_y
_atom_site_fract_z
Si Si1 0.501350 0.623260 0.050550
Si Si2 0.155264 0.295455 0.478606
Si Si3 0.118396 0.112222 0.164969
Si Si4 0.605034 0.335024 0.182455
Si Si5 0.097296 0.580338 0.365168
Si Si6 0.617130 0.334441 0.886899
Si Si7 0.468991 0.923181 0.914758
Si Si8 0.908050 0.734116 0.399643
O O1 0.231454 0.483635 0.192359
O O2 0.557970 0.546729 0.003535
O O3 0.764635 0.561998 0.269323
O O4 0.473104 0.842262 0.855916
O O5 0.827618 0.231609 0.439957
O O6 0.197277 0.387509 0.531887
O O7 0.363230 0.135575 0.672968
O O8 0.315501 0.206626 0.988062
O O9 0.820495 0.200012 0.007645
O O10 0.308665 0.196613 0.241832
O O11 0.061852 0.874251 0.393530
O O12 0.722825 0.363519 0.031797
O O13 0.112933 0.623859 0.476337
O O14 0.240782 0.771229 0.108226
O O15 0.678255 0.557622 0.592727
O O16 0.758904 0.886641 0.099601
#
# Coordination Sequence:
#
# PCOD9000911 Si02
#       8
#     1   1   1   1   1   1   1   1
#     4   9  19  41  63  95 137 180 232 289 355 420
#     4  10  20  42  70  98 140 181 231 299 360 423
#     4  10  25  45  72 107 140 196 241 290 361 422
#     4   9  21  43  70  97 142 186 239 293 361 420
#     4   9  22  39  62  98 136 182 230 287 358 422
#     4  10  25  46  71 106 142 195 238 299 355 416
#     4  10  23  39  67 106 136 181 236 291 364 429
#     4  11  25  45  69 103 147 185 245 288 362 438
#
# _framework density 24.805147000000002
#
# number of rings (size 3 to 8) (size 9 to 14) (size 15 to 20)
#    0.750    1.500    0.000    0.750    3.500    8.000 
#    0.000   16.250    0.000    0.000    0.000    0.000 
#    0.000    0.000    0.000    0.000    0.000    0.000 
#
# Total GULP energy -44663.729602 kJ/mol
# GULP energy per Si atom -5582.966200 kJ/mol
# Density = 2.474869 g / cm^3
# Si number density = 24.805147 Si / 1000 Ang^3
#
#
#
# Elastic Constant Matrix: (Units=GPa)
#
#
# Indices 1 2 3 4 5 6 
#
# 1 130.3974 26.7442 31.3669 -27.2112 5.1805 -20.0874
# 2 26.7442 105.0704 28.1915 -39.8585 4.1061 -17.3277
# 3 31.3669 28.1915 92.4394 -32.2134 9.9603 -14.9996
# 4 -27.2112 -39.8585 -32.2134 37.3258 -10.6349 7.6907
# 5 5.1805 4.1061 9.9603 -10.6349 35.8688 -11.7165
# 6 -20.0874 -17.3277 -14.9996 7.6907 -11.7165 41.7422
#
#
#
# Elastic Compliance Matrix: (Units=1/GPa)
#
#
# Indices 1 2 3 4 5 6 
#
# 1 0.009710 0.001175 -0.000557 0.007630 0.002247 0.004185
# 2 0.001175 0.017873 0.002324 0.022300 0.005824 0.006346
# 3 -0.000557 0.002324 0.016265 0.015642 0.001245 0.004009
# 4 0.007630 0.022300 0.015642 0.072384 0.016697 0.009900
# 5 0.002247 0.005824 0.001245 0.016697 0.034985 0.010690
# 6 0.004185 0.006346 0.004009 0.009900 0.010690 0.031222
#
#
# Mechanical properties :
#
#
# Convention : Reuss Voigt Hill
#
# Bulk Modulus (GPa) = 20.10791 55.61249 37.86020
# Shear Modulus (GPa) = 25.88899 39.09435 32.49167
#
# Velocity S-wave (km/s) = 3.23413 3.97427 3.62315
# Velocity P-wave (km/s) = 4.69788 6.59759 5.72705
#
# Compressibility (1/GPa) = 0.04973168
#
# Stress axis : x y z
#
# Youngs Moduli (GPa) = 102.99083 55.94938 61.48026
#
# Poissons Ratio (x) = -0.06574 0.03425
# Poissons Ratio (y) = -0.12101 -0.14286
# Poissons Ratio (z) = 0.05737 -0.13001
#
# Static dielectric constant tensor:
#      x y z
#    x 1.960530 0.031380 0.049440 
#    y 0.031380 1.988260 0.040980 
#    z 0.049440 0.040980 1.979030 
# 
# From -- ./inp_files/1924.got.cif
#   From: 2010.05.17/outbox.cif.g08.bks.cpg/sg1_1_cif.got.tgz:1924.got - 2010.05.17 20:27:59.
