data_PCOD9000530
_publ_section_title
;
Structure prediction by ZEFSAII (Michael W. Deem and Ramdas Pophale) SiO2 
 PCOD9000530
Probable space group: P 1
;
_chemical_formula_sum "Si O2"
_cell_formula_units_Z 8
_cell_length_a 6.287915
_cell_length_b 16.169119
_cell_length_c 5.147374
_cell_angle_alpha 73.160858
_cell_angle_beta 101.946423
_cell_angle_gamma 133.904083
_cell_volume 360.880905
_symmetry_space_group_name_H-M "P 1"
_symmetry_group_IT_number 1
_symmetry_cell_setting 'triclinic'
loop_
_space_group_symop_operation_xyz
x,y,z
loop_
_atom_site_type_symbol
_atom_site_label
_atom_site_fract_x
_atom_site_fract_y
_atom_site_fract_z
Si Si1 0.096750 0.487700 0.105990
Si Si2 0.795489 0.979519 0.728905
Si Si3 0.582748 0.755376 0.023608
Si Si4 0.890170 0.869562 0.495432
Si Si5 0.344807 0.096977 0.110157
Si Si6 0.131265 0.385467 0.684108
Si Si7 0.416212 0.310737 0.139848
Si Si8 0.869056 0.189587 0.451823
O O1 0.289489 0.625570 0.002376
O O2 0.247052 0.471695 0.388748
O O3 0.762987 0.413280 0.182439
O O4 0.079485 0.432713 0.876838
O O5 0.766086 0.072491 0.654728
O O6 0.770405 0.934961 0.472288
O O7 0.125717 0.042782 0.857880
O O8 0.564335 0.855343 0.928228
O O9 0.711848 0.770447 0.323560
O O10 0.826139 0.806404 0.810658
O O11 0.200009 0.981293 0.353788
O O12 0.339354 0.193518 0.129569
O O13 0.686217 0.163549 0.170258
O O14 0.852507 0.262234 0.588850
O O15 0.330330 0.361007 0.863905
O O16 0.205282 0.269227 0.370456
#
# Coordination Sequence:
#
# PCOD9000530 Si02
#       8
#     1   1   1   1   1   1   1   1
#     4  12  27  45  72  93 142 180 230 266 340 392
#     4   9  21  41  67  96 134 169 215 280 331 389
#     4   9  20  44  67  94 126 185 217 277 322 396
#     4   9  19  39  70  92 127 175 221 265 344 371
#     4  11  21  39  67  99 138 175 211 278 345 396
#     4  12  26  43  66 105 130 184 222 276 329 406
#     4  12  24  42  66 102 140 179 217 280 334 404
#     4  12  24  41  69 105 139 167 229 270 347 404
#
# _framework density 22.16798
#
# number of rings (size 3 to 8) (size 9 to 14) (size 15 to 20)
#    0.750    0.500    5.000    0.750    1.750    3.000 
#    0.000    3.750    5.500    0.000    0.000    0.000 
#    0.000    0.000    0.000    0.000    0.000    0.000 
#
# Total GULP energy -44538.739313 kJ/mol
# GULP energy per Si atom -5567.342414 kJ/mol
# Density = 2.211752 g / cm^3
# Si number density = 22.167980 Si / 1000 Ang^3
#
#
#
# Elastic Constant Matrix: (Units=GPa)
#
#
# Indices 1 2 3 4 5 6 
#
# 1 52.7670 43.5229 22.8308 8.8067 8.4097 2.7158
# 2 43.5229 169.3111 46.0784 7.8842 -0.5580 -1.3214
# 3 22.8308 46.0784 114.3323 11.7568 -3.9196 -7.8200
# 4 8.8067 7.8842 11.7568 27.7564 -9.4535 1.4668
# 5 8.4097 -0.5580 -3.9196 -9.4535 29.9831 -0.9909
# 6 2.7158 -1.3214 -7.8200 1.4668 -0.9909 18.1369
#
#
#
# Elastic Compliance Matrix: (Units=1/GPa)
#
#
# Indices 1 2 3 4 5 6 
#
# 1 0.029461 -0.006342 -0.003127 -0.010041 -0.012157 -0.006074
# 2 -0.006342 0.008029 -0.001978 0.001243 0.002084 0.000695
# 3 -0.003127 -0.001978 0.010874 -0.002804 0.001553 0.005324
# 4 -0.010041 0.001243 -0.002804 0.045922 0.016872 -0.002407
# 5 -0.012157 0.002084 0.001553 0.016872 0.042442 0.003596
# 6 -0.006074 0.000695 0.005324 -0.002407 0.003596 0.058783
#
#
# Mechanical properties :
#
#
# Convention : Reuss Voigt Hill
#
# Bulk Modulus (GPa) = 39.26186 62.36382 50.81284
# Shear Modulus (GPa) = 22.03648 30.10716 26.07182
#
# Velocity S-wave (km/s) = 3.15631 3.68929 3.43316
# Velocity P-wave (km/s) = 5.57069 6.80744 6.21988
#
# Compressibility (1/GPa) = 0.02547001
#
# Stress axis : x y z
#
# Youngs Moduli (GPa) = 33.94308 124.54158 91.96356
#
# Poissons Ratio (x) = 0.78987 0.28754
# Poissons Ratio (y) = 0.21527 0.18194
# Poissons Ratio (z) = 0.10613 0.24639
#
# Static dielectric constant tensor:
#      x y z
#    x 1.824710 0.016790 -0.006480 
#    y 0.016790 1.838800 -0.021470 
#    z -0.006480 -0.021470 1.905700 
# 
# From -- ./inp_files/657.got.cif
#   From: 2010.05.17/outbox.cif.g08.bks.cpg/sg1_1_cif.got.tgz:657.got - 2010.05.17 20:27:59.
