data_PCOD9000029
_publ_section_title
;
Structure prediction by ZEFSAII (Michael W. Deem and Ramdas Pophale) SiO2 
 PCOD9000029
Probable space group: P 1
;
_chemical_formula_sum "Si O2"
_cell_formula_units_Z 8
_cell_length_a 12.437626
_cell_length_b 6.513957
_cell_length_c 8.089678
_cell_angle_alpha 65.789405
_cell_angle_beta 143.790680
_cell_angle_gamma 123.362293
_cell_volume 322.620757
_symmetry_space_group_name_H-M "P 1"
_symmetry_group_IT_number 1
_symmetry_cell_setting 'triclinic'
loop_
_space_group_symop_operation_xyz
x,y,z
loop_
_atom_site_type_symbol
_atom_site_label
_atom_site_fract_x
_atom_site_fract_y
_atom_site_fract_z
Si Si1 0.264240 0.830080 0.583370
Si Si2 0.713572 0.121029 0.081453
Si Si3 0.419201 0.760586 0.288832
Si Si4 0.100582 0.905829 0.010431
Si Si5 0.938848 0.800439 0.394217
Si Si6 0.296872 0.429391 0.920277
Si Si7 0.659695 0.301092 0.315182
Si Si8 0.736343 0.614737 0.846197
O O1 0.193812 0.919458 0.303807
O O2 0.171319 0.912424 0.598827
O O3 0.382333 0.634171 0.104341
O O4 0.498148 0.919656 0.832345
O O5 0.682743 0.207122 0.194940
O O6 0.187376 0.537718 0.618327
O O7 0.750755 0.353615 0.934745
O O8 0.214441 0.767323 0.096599
O O9 0.515978 0.605908 0.564509
O O10 0.582014 0.047064 0.407080
O O11 0.866989 0.773015 0.803565
O O12 0.158475 0.172705 0.916441
O O13 0.858334 0.555669 0.489342
O O14 0.830563 0.722664 0.105680
O O15 0.870242 0.001698 0.312502
O O16 0.480717 0.389341 0.081271
#
# Coordination Sequence:
#
# PCOD9000029 Si02
#       8
#     1   1   1   1   1   1   1   1
#     4  11  22  43  69  92 128 172 207 269 318 374
#     4  11  21  42  64  93 128 165 216 258 317 382
#     4  11  22  42  64  93 130 169 207 266 320 376
#     4  10  25  43  62  99 130 165 217 260 319 384
#     4  10  22  41  63  98 124 166 216 258 320 381
#     4  11  23  44  65  96 132 167 214 265 321 377
#     4  10  21  41  62  92 131 161 214 261 313 382
#     4  10  24  40  65  93 127 171 207 267 316 378
#
# _framework density 24.796916
#
# number of rings (size 3 to 8) (size 9 to 14) (size 15 to 20)
#    0.000    1.500    2.500    1.500    3.500    4.000 
#    9.000    0.000    0.000    0.000    0.000    0.000 
#    0.000    0.000    0.000    0.000    0.000    0.000 
#
# Total GULP energy -44744.761364 kJ/mol
# GULP energy per Si atom -5593.095170 kJ/mol
# Density = 2.474048 g / cm^3
# Si number density = 24.796916 Si / 1000 Ang^3
#
#
#
# Elastic Constant Matrix: (Units=GPa)
#
#
# Indices 1 2 3 4 5 6 
#
# 1 130.0057 45.5579 13.3253 2.8845 20.4554 -8.2465
# 2 45.5579 131.7312 28.5649 -11.8935 10.8436 1.5869
# 3 13.3253 28.5649 74.6509 -9.7445 2.8104 -2.7949
# 4 2.8845 -11.8935 -9.7445 23.9235 -2.6291 3.6347
# 5 20.4554 10.8436 2.8104 -2.6291 26.5636 -7.4375
# 6 -8.2465 1.5869 -2.7949 3.6347 -7.4375 40.3349
#
#
#
# Elastic Compliance Matrix: (Units=1/GPa)
#
#
# Indices 1 2 3 4 5 6 
#
# 1 0.010061 -0.003152 -0.000824 -0.004018 -0.006406 0.001305
# 2 -0.003152 0.009776 -0.002635 0.004297 -0.001379 -0.001853
# 3 -0.000824 -0.002635 0.015195 0.004961 0.000786 0.000686
# 4 -0.004018 0.004297 0.004961 0.047548 0.004366 -0.004126
# 5 -0.006406 -0.001379 0.000786 0.004366 0.045387 0.006775
# 6 0.001305 -0.001853 0.000686 -0.004126 0.006775 0.026801
#
#
# Mechanical properties :
#
#
# Convention : Reuss Voigt Hill
#
# Bulk Modulus (GPa) = 45.85082 56.80933 51.33008
# Shear Modulus (GPa) = 28.52915 34.76038 31.64476
#
# Velocity S-wave (km/s) = 3.39560 3.74813 3.57621
# Velocity P-wave (km/s) = 5.82273 6.45685 6.14797
#
# Compressibility (1/GPa) = 0.02180986
#
# Stress axis : x y z
#
# Youngs Moduli (GPa) = 99.39572 102.28747 65.81251
#
# Poissons Ratio (x) = 0.32240 0.05425
# Poissons Ratio (y) = 0.31328 0.17341
# Poissons Ratio (z) = 0.08193 0.26951
#
# Static dielectric constant tensor:
#      x y z
#    x 1.932790 0.026340 -0.022040 
#    y 0.026340 2.020560 0.017140 
#    z -0.022040 0.017140 1.973020 
# 
# From -- ./inp_files/4146.got.cif
#   From: 2010.05.17/outbox.cif.g08.bks.cpg/sg1_3_cif.got.tgz:4146.got - 2010.05.17 20:27:59.
