data_PCOD9000578
_publ_section_title
;
Structure prediction by ZEFSAII (Michael W. Deem and Ramdas Pophale) SiO2 
 PCOD9000578
Probable space group: P 1
;
_chemical_formula_sum "Si O2"
_cell_formula_units_Z 8
_cell_length_a 9.129979
_cell_length_b 8.865948
_cell_length_c 8.821623
_cell_angle_alpha 142.726771
_cell_angle_beta 63.943715
_cell_angle_gamma 126.353080
_cell_volume 347.519549
_symmetry_space_group_name_H-M "P 1"
_symmetry_group_IT_number 1
_symmetry_cell_setting 'triclinic'
loop_
_space_group_symop_operation_xyz
x,y,z
loop_
_atom_site_type_symbol
_atom_site_label
_atom_site_fract_x
_atom_site_fract_y
_atom_site_fract_z
Si Si1 0.670530 0.755510 0.041600
Si Si2 0.392277 0.847332 0.793511
Si Si3 0.508175 0.430184 0.581298
Si Si4 0.365989 0.598011 0.281652
Si Si5 0.093851 0.024050 0.105686
Si Si6 0.122730 0.060215 0.451215
Si Si7 0.699351 0.207563 0.150720
Si Si8 0.076024 0.465745 0.048214
O O1 0.568378 0.690251 0.196564
O O2 0.643787 0.987606 0.138755
O O3 0.560890 0.483107 0.773054
O O4 0.885718 0.850305 0.012297
O O5 0.433069 0.624622 0.689920
O O6 0.386951 0.792923 0.573077
O O7 0.201057 0.837322 0.919113
O O8 0.561635 0.122063 0.002220
O O9 0.336623 0.135254 0.406083
O O10 0.685454 0.468579 0.439964
O O11 0.238804 0.285141 0.151982
O O12 0.246531 0.599653 0.192437
O O13 0.074160 0.133483 0.367489
O O14 0.030419 0.724557 0.236092
O O15 0.103494 0.266062 0.750050
O O16 0.896504 0.258181 0.052660
#
# Coordination Sequence:
#
# PCOD9000578 Si02
#       8
#     1   1   1   1   1   1   1   1
#     4  11  27  46  75 110 152 198 259 315 390 454
#     4  11  25  45  75 106 158 201 254 319 386 452
#     4  11  23  48  74 101 153 207 252 309 391 454
#     4  12  26  45  74 115 152 202 254 324 382 454
#     4  12  27  47  75 112 157 199 255 326 383 454
#     4  12  26  51  75 109 155 209 251 313 386 461
#     4  11  25  47  75 109 149 208 249 322 379 468
#     4  12  29  47  81 114 154 204 262 310 389 463
#
# _framework density 23.020291
#
# number of rings (size 3 to 8) (size 9 to 14) (size 15 to 20)
#    0.000    0.500    5.000    1.500    8.750    2.000 
#    0.000    0.000    0.000    0.000    0.000    0.000 
#    0.000    0.000    0.000    0.000    0.000    0.000 
#
# Total GULP energy -44610.922310 kJ/mol
# GULP energy per Si atom -5576.365289 kJ/mol
# Density = 2.296790 g / cm^3
# Si number density = 23.020291 Si / 1000 Ang^3
#
#
#
# Elastic Constant Matrix: (Units=GPa)
#
#
# Indices 1 2 3 4 5 6 
#
# 1 98.9087 14.1400 23.6397 -10.8648 -5.2237 15.9536
# 2 14.1400 104.3358 27.4730 -14.3522 -7.7568 6.1375
# 3 23.6397 27.4730 108.0993 -30.1660 1.9671 -6.2790
# 4 -10.8648 -14.3522 -30.1660 34.0523 3.5109 -6.0423
# 5 -5.2237 -7.7568 1.9671 3.5109 35.1562 -4.1548
# 6 15.9536 6.1375 -6.2790 -6.0423 -4.1548 31.8971
#
#
#
# Elastic Compliance Matrix: (Units=1/GPa)
#
#
# Indices 1 2 3 4 5 6 
#
# 1 0.011939 -0.000412 -0.002962 -0.000235 0.001119 -0.006374
# 2 -0.000412 0.010743 -0.002245 0.001899 0.002047 -0.001676
# 3 -0.002962 -0.002245 0.014307 0.012205 -0.002156 0.006761
# 4 -0.000235 0.001899 0.012205 0.043006 -0.003429 0.009855
# 5 0.001119 0.002047 -0.002156 -0.003429 0.029744 0.001847
# 6 -0.006374 -0.001676 0.006761 0.009855 0.001847 0.038299
#
#
# Mechanical properties :
#
#
# Convention : Reuss Voigt Hill
#
# Bulk Modulus (GPa) = 38.83437 49.09435 43.96436
# Shear Modulus (GPa) = 29.78668 36.62719 33.20693
#
# Velocity S-wave (km/s) = 3.60103 3.99317 3.80216
# Velocity P-wave (km/s) = 5.84775 6.52942 6.19796
#
# Compressibility (1/GPa) = 0.02575039
#
# Stress axis : x y z
#
# Youngs Moduli (GPa) = 83.76206 93.07971 69.89664
#
# Poissons Ratio (x) = 0.03837 0.20705
# Poissons Ratio (y) = 0.03453 0.15691
# Poissons Ratio (z) = 0.24812 0.20895
#
# Static dielectric constant tensor:
#      x y z
#    x 1.831300 -0.031700 -0.018330 
#    y -0.031700 1.970390 0.053740 
#    z -0.018330 0.053740 1.941010 
# 
# From -- ./inp_files/1287.got.cif
#   From: 2010.05.17/outbox.cif.g08.bks.cpg/sg1_1_cif.got.tgz:1287.got - 2010.05.17 20:27:59.
