data_PCOD9000233
_publ_section_title
;
Structure prediction by ZEFSAII (Michael W. Deem and Ramdas Pophale) SiO2 
 PCOD9000233
Probable space group: P 1
;
_chemical_formula_sum "Si O2"
_cell_formula_units_Z 8
_cell_length_a 8.331370
_cell_length_b 7.481343
_cell_length_c 7.840415
_cell_angle_alpha 125.081548
_cell_angle_beta 84.334649
_cell_angle_gamma 124.023586
_cell_volume 313.045602
_symmetry_space_group_name_H-M "P 1"
_symmetry_group_IT_number 1
_symmetry_cell_setting 'triclinic'
loop_
_space_group_symop_operation_xyz
x,y,z
loop_
_atom_site_type_symbol
_atom_site_label
_atom_site_fract_x
_atom_site_fract_y
_atom_site_fract_z
Si Si1 0.955540 0.280760 0.429050
Si Si2 0.005284 0.126428 0.786748
Si Si3 0.357888 0.874380 0.816599
Si Si4 0.426417 0.496451 0.781389
Si Si5 0.761563 0.364756 0.889007
Si Si6 0.653168 0.693797 0.236360
Si Si7 0.246641 0.234443 0.165756
Si Si8 0.741632 0.495295 0.575273
O O1 0.795187 0.315452 0.375111
O O2 0.146792 0.602154 0.617434
O O3 0.076583 0.178346 0.280026
O O4 0.798970 0.021215 0.427735
O O5 0.899176 0.273431 0.872831
O O6 0.184482 0.262018 0.702065
O O7 0.854500 0.793895 0.639919
O O8 0.140624 0.217434 0.992054
O O9 0.461108 0.760487 0.839632
O O10 0.519731 0.097905 0.783615
O O11 0.298492 0.022860 0.029394
O O12 0.514515 0.386820 0.584797
O O13 0.546992 0.608285 0.010938
O O14 0.813431 0.497069 0.765924
O O15 0.777178 0.571775 0.139680
O O16 0.469436 0.534561 0.303623
#
# Coordination Sequence:
#
# PCOD9000233 Si02
#       8
#     1   1   1   1   1   1   1   1
#     4  12  25  40  71 100 138 177 221 288 334 394
#     4  11  21  42  73  99 127 187 222 274 338 398
#     4  11  23  44  73  98 138 183 222 281 336 403
#     4  10  22  43  71  99 132 180 228 271 340 403
#     4  10  22  43  75  95 137 182 226 274 340 404
#     4   9  23  43  66  97 137 177 222 284 334 396
#     4  10  23  44  65  97 139 177 227 273 340 403
#     4  11  23  41  66 101 138 171 228 275 334 399
#
# _framework density 25.555382999999999
#
# number of rings (size 3 to 8) (size 9 to 14) (size 15 to 20)
#    0.000    1.500    2.500    3.000    3.500    0.000 
#    2.250    2.500    0.000    0.000    0.000    0.000 
#    0.000    0.000    0.000    0.000    0.000    0.000 
#
# Total GULP energy -44708.178409 kJ/mol
# GULP energy per Si atom -5588.522301 kJ/mol
# Density = 2.549722 g / cm^3
# Si number density = 25.555383 Si / 1000 Ang^3
#
#
#
# Elastic Constant Matrix: (Units=GPa)
#
#
# Indices 1 2 3 4 5 6 
#
# 1 143.4494 28.2743 38.9930 5.4100 -49.3799 13.9777
# 2 28.2743 112.4854 17.6382 18.6200 -9.7030 14.3222
# 3 38.9930 17.6382 67.4002 18.7207 -7.4396 10.2260
# 4 5.4100 18.6200 18.7207 45.0039 -2.1926 2.9217
# 5 -49.3799 -9.7030 -7.4396 -2.1926 48.4929 2.5904
# 6 13.9777 14.3222 10.2260 2.9217 2.5904 56.9553
#
#
#
# Elastic Compliance Matrix: (Units=1/GPa)
#
#
# Indices 1 2 3 4 5 6 
#
# 1 0.013507 -0.001372 -0.006317 0.002358 0.012752 -0.002536
# 2 -0.001372 0.010222 -0.000496 -0.003705 0.000510 -0.001978
# 3 -0.006317 -0.000496 0.020572 -0.007676 -0.003645 -0.001459
# 4 0.002358 -0.003705 -0.007676 0.026726 0.001675 0.000284
# 5 0.012752 0.000510 -0.003645 0.001675 0.033450 -0.004211
# 6 -0.002536 -0.001978 -0.001459 0.000284 -0.004211 0.019116
#
#
# Mechanical properties :
#
#
# Convention : Reuss Voigt Hill
#
# Bulk Modulus (GPa) = 35.80326 54.79397 45.29862
# Shear Modulus (GPa) = 33.49546 45.98573 39.74060
#
# Velocity S-wave (km/s) = 3.62429 4.24660 3.94773
# Velocity P-wave (km/s) = 5.61733 6.74779 6.20834
#
# Compressibility (1/GPa) = 0.02793042
#
# Stress axis : x y z
#
# Youngs Moduli (GPa) = 74.03775 97.83080 48.60878
#
# Poissons Ratio (x) = 0.13420 0.30709
# Poissons Ratio (y) = 0.10156 0.02411
# Poissons Ratio (z) = 0.46773 0.04852
#
# Static dielectric constant tensor:
#      x y z
#    x 2.067450 -0.013780 0.016420 
#    y -0.013780 2.056890 -0.096410 
#    z 0.016420 -0.096410 2.079280 
# 
# From -- ./inp_files/4801.got.cif
#   From: 2010.05.17/outbox.cif.g08.bks.cpg/sg1_3_cif.got.tgz:4801.got - 2010.05.17 20:27:59.
