data_PCOD9000788
_publ_section_title
;
Structure prediction by ZEFSAII (Michael W. Deem and Ramdas Pophale) SiO2 
 PCOD9000788
Probable space group: P 1
;
_chemical_formula_sum "Si O2"
_cell_formula_units_Z 8
_cell_length_a 9.625536
_cell_length_b 8.351905
_cell_length_c 9.309439
_cell_angle_alpha 131.979220
_cell_angle_beta 37.528403
_cell_angle_gamma 119.299125
_cell_volume 337.507201
_symmetry_space_group_name_H-M "P 1"
_symmetry_group_IT_number 1
_symmetry_cell_setting 'triclinic'
loop_
_space_group_symop_operation_xyz
x,y,z
loop_
_atom_site_type_symbol
_atom_site_label
_atom_site_fract_x
_atom_site_fract_y
_atom_site_fract_z
Si Si1 0.586730 0.423880 0.081240
Si Si2 0.552217 0.995485 0.024306
Si Si3 0.265715 0.842672 0.687196
Si Si4 0.014181 0.399532 0.919367
Si Si5 0.338819 0.654050 0.817947
Si Si6 0.629128 0.161281 0.611999
Si Si7 0.819804 0.791486 0.451556
Si Si8 0.822294 0.072917 0.100218
O O1 0.492578 0.218725 0.119450
O O2 0.840311 0.433797 0.950540
O O3 0.603959 0.001549 0.152261
O O4 0.599721 0.361561 0.865101
O O5 0.240718 0.797114 0.848429
O O6 0.381228 0.819964 0.015950
O O7 0.796512 0.908063 0.692985
O O8 0.013377 0.875341 0.850018
O O9 0.391799 0.063167 0.707083
O O10 0.429344 0.644460 0.369122
O O11 0.032614 0.631460 0.129890
O O12 0.934019 0.230059 0.992037
O O13 0.281584 0.402788 0.677012
O O14 0.615683 0.634676 0.530862
O O15 0.761278 0.184937 0.369698
O O16 0.760840 0.972180 0.488309
#
# Coordination Sequence:
#
# PCOD9000788 Si02
#       8
#     1   1   1   1   1   1   1   1
#     4  10  19  43  76  94 128 182 228 259 331 402
#     4   8  19  43  67  92 131 174 216 273 322 396
#     4  11  22  44  69 101 133 171 227 281 320 393
#     4  11  20  40  71  97 129 180 219 272 327 399
#     4   9  19  40  72  92 130 172 230 260 322 400
#     4  10  21  45  66  96 138 175 215 279 326 394
#     4   8  17  40  66  88 125 172 224 260 310 399
#     4  11  25  41  65 102 140 166 221 280 340 377
#
# _framework density 23.703196999999999
#
# number of rings (size 3 to 8) (size 9 to 14) (size 15 to 20)
#    0.750    1.500    3.750    0.750    0.000    1.000 
#    9.000    1.250    2.750    0.000    0.000    0.000 
#    0.000    0.000    0.000    0.000    0.000    0.000 
#
# Total GULP energy -44577.544133 kJ/mol
# GULP energy per Si atom -5572.193017 kJ/mol
# Density = 2.364925 g / cm^3
# Si number density = 23.703197 Si / 1000 Ang^3
#
#
#
# Elastic Constant Matrix: (Units=GPa)
#
#
# Indices 1 2 3 4 5 6 
#
# 1 150.4894 59.6451 63.1917 9.1429 21.7011 14.8360
# 2 59.6451 61.2863 28.8126 -11.7365 3.3131 23.2353
# 3 63.1917 28.8126 122.4103 7.5854 25.2267 2.5306
# 4 9.1429 -11.7365 7.5854 34.1154 -0.5662 -4.2779
# 5 21.7011 3.3131 25.2267 -0.5662 33.8971 -1.2547
# 6 14.8360 23.2353 2.5306 -4.2779 -1.2547 40.9847
#
#
#
# Elastic Compliance Matrix: (Units=1/GPa)
#
#
# Indices 1 2 3 4 5 6 
#
# 1 0.015159 -0.016061 -0.002200 -0.008878 -0.006549 0.002627
# 2 -0.016061 0.043275 -0.004584 0.018327 0.009169 -0.016243
# 3 -0.002200 -0.004584 0.012016 -0.003517 -0.007068 0.002070
# 4 -0.008878 0.018327 -0.003517 0.038555 0.007053 -0.002719
# 5 -0.006549 0.009169 -0.007068 0.007053 0.038158 -0.000487
# 6 0.002627 -0.016243 0.002070 -0.002719 -0.000487 0.032231
#
#
# Mechanical properties :
#
#
# Convention : Reuss Voigt Hill
#
# Bulk Modulus (GPa) = 40.38787 70.83164 55.60976
# Shear Modulus (GPa) = 21.42830 33.96854 27.69842
#
# Velocity S-wave (km/s) = 3.00996 3.78971 3.42212
# Velocity P-wave (km/s) = 5.39961 7.00691 6.25510
#
# Compressibility (1/GPa) = 0.02475991
#
# Stress axis : x y z
#
# Youngs Moduli (GPa) = 65.96680 23.10791 83.22553
#
# Poissons Ratio (x) = 0.37114 0.18306
# Poissons Ratio (y) = 1.05950 0.38153
# Poissons Ratio (z) = 0.14510 0.10593
#
# Static dielectric constant tensor:
#      x y z
#    x 1.899300 0.055070 -0.055710 
#    y 0.055070 1.939980 -0.013160 
#    z -0.055710 -0.013160 2.055160 
# 
# From -- ./inp_files/3688.got.cif
#   From: 2010.05.17/outbox.cif.g08.bks.cpg/sg1_2_cif.got.tgz:3688.got - 2010.05.17 20:27:59.
