data_PCOD9000885
_publ_section_title
;
Structure prediction by ZEFSAII (Michael W. Deem and Ramdas Pophale) SiO2 
 PCOD9000885
Probable space group: P 1
;
_chemical_formula_sum "Si O2"
_cell_formula_units_Z 8
_cell_length_a 11.580628
_cell_length_b 6.877295
_cell_length_c 4.861082
_cell_angle_alpha 99.054195
_cell_angle_beta 91.076476
_cell_angle_gamma 69.297937
_cell_volume 357.358051
_symmetry_space_group_name_H-M "P 1"
_symmetry_group_IT_number 1
_symmetry_cell_setting 'triclinic'
loop_
_space_group_symop_operation_xyz
x,y,z
loop_
_atom_site_type_symbol
_atom_site_label
_atom_site_fract_x
_atom_site_fract_y
_atom_site_fract_z
Si Si1 0.113290 0.737530 0.364530
Si Si2 0.870015 0.916340 0.707667
Si Si3 0.706069 0.992795 0.205022
Si Si4 0.299370 0.130837 0.001407
Si Si5 0.531164 0.754377 0.922208
Si Si6 0.080823 0.009314 0.888949
Si Si7 0.333215 0.355959 0.534054
Si Si8 0.561444 0.470101 0.376690
O O1 0.143247 0.915344 0.581924
O O2 0.217607 0.525360 0.413473
O O3 0.983794 0.751799 0.506514
O O4 0.100785 0.820945 0.071092
O O5 0.753152 0.968844 0.515111
O O6 0.935472 0.088803 0.823319
O O7 0.823027 0.875253 0.989957
O O8 0.605897 0.894824 0.081362
O O9 0.656264 0.245839 0.225619
O O10 0.311097 0.306895 0.833744
O O11 0.157468 0.148790 0.019751
O O12 0.349433 0.150940 0.308986
O O13 0.396043 0.907556 0.853249
O O14 0.516040 0.610917 0.137739
O O15 0.601625 0.605723 0.638183
O O16 0.451885 0.418283 0.510671
#
# Coordination Sequence:
#
# PCOD9000885 Si02
#       8
#     1   1   1   1   1   1   1   1
#     4  10  20  41  65  95 125 183 222 265 350 393
#     4  10  22  42  72  90 138 188 222 282 336 402
#     4  12  24  46  70 102 138 180 244 268 340 416
#     4  12  24  40  66 105 142 171 228 286 341 414
#     4  12  26  45  70 103 139 184 226 287 349 402
#     4  10  20  41  65  95 125 183 222 265 350 393
#     4  12  24  40  66 105 142 171 228 286 341 414
#     4  12  26  45  70 103 139 184 226 287 349 402
#
# _framework density 22.386510999999999
#
# number of rings (size 3 to 8) (size 9 to 14) (size 15 to 20)
#    0.750    0.000    2.500    6.000    1.750    0.000 
#    0.000    7.500    0.000    0.000    0.000    0.000 
#    0.000    0.000    0.000    0.000    0.000    0.000 
#
# Total GULP energy -44575.395670 kJ/mol
# GULP energy per Si atom -5571.924459 kJ/mol
# Density = 2.233556 g / cm^3
# Si number density = 22.386511 Si / 1000 Ang^3
#
#
#
# Elastic Constant Matrix: (Units=GPa)
#
#
# Indices 1 2 3 4 5 6 
#
# 1 88.3168 -9.8030 7.3634 7.3795 12.3475 9.4607
# 2 -9.8030 16.3436 8.3909 1.2115 7.8682 0.8933
# 3 7.3634 8.3909 117.4574 -11.8171 11.4944 6.5338
# 4 7.3795 1.2115 -11.8171 33.4897 7.7788 4.4099
# 5 12.3475 7.8682 11.4944 7.7788 37.2303 3.5036
# 6 9.4607 0.8933 6.5338 4.4099 3.5036 20.9499
#
#
#
# Elastic Compliance Matrix: (Units=1/GPa)
#
#
# Indices 1 2 3 4 5 6 
#
# 1 0.014406 0.012623 -0.001092 -0.001878 -0.006220 -0.005268
# 2 0.012623 0.080680 -0.004732 -0.002457 -0.018887 -0.003989
# 3 -0.001092 -0.004732 0.009805 0.004819 -0.002392 -0.002977
# 4 -0.001878 -0.002457 0.004819 0.034552 -0.006938 -0.006663
# 5 -0.006220 -0.018887 -0.002392 -0.006938 0.035107 -0.000051
# 6 -0.005268 -0.003989 -0.002977 -0.006663 -0.000051 0.052621
#
#
# Mechanical properties :
#
#
# Convention : Reuss Voigt Hill
#
# Bulk Modulus (GPa) = 8.43962 26.00226 17.22094
# Shear Modulus (GPa) = 19.75745 32.74507 26.25126
#
# Velocity S-wave (km/s) = 2.97402 3.82869 3.42809
# Velocity P-wave (km/s) = 3.94603 5.58440 4.83512
#
# Compressibility (1/GPa) = 0.11848882
#
# Stress axis : x y z
#
# Youngs Moduli (GPa) = 69.41590 12.39466 101.99176
#
# Poissons Ratio (x) = -0.15646 0.11138
# Poissons Ratio (y) = -0.87625 0.48262
# Poissons Ratio (z) = 0.07581 0.05865
#
# Static dielectric constant tensor:
#      x y z
#    x 1.882390 -0.014700 0.012760 
#    y -0.014700 1.868040 0.076990 
#    z 0.012760 0.076990 1.817350 
# 
# From -- ./inp_files/1986.got.cif
#   From: 2010.05.17/outbox.cif.g08.bks.cpg/sg1_1_cif.got.tgz:1986.got - 2010.05.17 20:27:59.
