data_PCOD9000023
_publ_section_title
;
Structure prediction by ZEFSAII (Michael W. Deem and Ramdas Pophale) SiO2 
 PCOD9000023
Probable space group: P 1
;
_chemical_formula_sum "Si O2"
_cell_formula_units_Z 8
_cell_length_a 8.250692
_cell_length_b 12.031864
_cell_length_c 7.385261
_cell_angle_alpha 57.120472
_cell_angle_beta 125.214402
_cell_angle_gamma 143.009386
_cell_volume 355.309775
_symmetry_space_group_name_H-M "P 1"
_symmetry_group_IT_number 1
_symmetry_cell_setting 'triclinic'
loop_
_space_group_symop_operation_xyz
x,y,z
loop_
_atom_site_type_symbol
_atom_site_label
_atom_site_fract_x
_atom_site_fract_y
_atom_site_fract_z
Si Si1 0.236600 0.628060 0.587830
Si Si2 0.178876 0.736007 0.082185
Si Si3 0.928022 0.129388 0.574412
Si Si4 0.650088 0.279136 0.622970
Si Si5 0.913632 0.350693 0.112926
Si Si6 0.458076 0.468875 0.450744
Si Si7 0.479532 0.925747 0.762635
Si Si8 0.784982 0.778097 0.676585
O O1 0.254849 0.732024 0.680319
O O2 0.500917 0.655996 0.721153
O O3 0.256880 0.319495 0.616071
O O4 0.942209 0.415292 0.581499
O O5 0.265373 0.735406 0.337456
O O6 0.960914 0.518848 0.071994
O O7 0.439090 0.862583 0.998746
O O8 0.015192 0.795165 0.903401
O O9 0.794628 0.189101 0.323316
O O10 0.770064 0.036464 0.744903
O O11 0.897385 0.980826 0.569969
O O12 0.556921 0.387049 0.478662
O O13 0.443448 0.067697 0.606317
O O14 0.737446 0.276015 0.884274
O O15 0.234335 0.447619 0.208324
O O16 0.690893 0.668962 0.521216
#
# Coordination Sequence:
#
# PCOD9000023 Si02
#       8
#     1   1   1   1   1   1   1   1
#     4  11  25  45  64 102 137 171 220 283 322 398
#     4  12  23  44  72  97 133 180 221 269 339 387
#     4   9  23  44  62  99 135 168 220 274 325 386
#     4  12  23  43  68  99 138 174 222 271 335 397
#     4  10  22  41  68  99 129 177 216 269 332 386
#     4  10  21  40  69  96 135 169 222 272 328 386
#     4  11  24  42  69  96 135 178 217 271 332 394
#     4  11  21  41  70  94 134 173 218 275 327 388
#
# _framework density 22.515564000000001
#
# number of rings (size 3 to 8) (size 9 to 14) (size 15 to 20)
#    0.750    0.500    3.750    2.250    3.500    1.000 
#    0.000    2.500    0.000    0.000    0.000    0.000 
#    0.000    0.000    0.000    0.000    0.000    0.000 
#
# Total GULP energy -44655.594478 kJ/mol
# GULP energy per Si atom -5581.949310 kJ/mol
# Density = 2.246432 g / cm^3
# Si number density = 22.515564 Si / 1000 Ang^3
#
#
#
# Elastic Constant Matrix: (Units=GPa)
#
#
# Indices 1 2 3 4 5 6 
#
# 1 58.2128 2.2210 9.0477 -3.7965 12.7847 -5.4766
# 2 2.2210 92.1792 -0.6875 -23.2100 7.2595 -21.9933
# 3 9.0477 -0.6875 55.1342 -2.9490 7.4028 -2.8670
# 4 -3.7965 -23.2100 -2.9490 33.1760 -0.7208 1.7176
# 5 12.7847 7.2595 7.4028 -0.7208 27.0254 -8.7831
# 6 -5.4766 -21.9933 -2.8670 1.7176 -8.7831 44.4556
#
#
#
# Elastic Compliance Matrix: (Units=1/GPa)
#
#
# Indices 1 2 3 4 5 6 
#
# 1 0.019590 0.001096 -0.001847 0.002603 -0.008653 0.001026
# 2 0.001096 0.015330 0.001265 0.010552 -0.002456 0.006908
# 3 -0.001847 0.001265 0.019209 0.002250 -0.004450 0.000671
# 4 0.002603 0.010552 0.002250 0.037775 -0.002459 0.003741
# 5 -0.008653 -0.002456 -0.004450 -0.002459 0.044994 0.006416
# 6 0.001026 0.006908 0.000671 0.003741 0.006416 0.027205
#
#
# Mechanical properties :
#
#
# Convention : Reuss Voigt Hill
#
# Bulk Modulus (GPa) = 18.13000 25.18764 21.65882
# Shear Modulus (GPa) = 27.55419 33.92773 30.74096
#
# Velocity S-wave (km/s) = 3.50206 3.88604 3.69903
# Velocity P-wave (km/s) = 4.94189 5.59876 5.28055
#
# Compressibility (1/GPa) = 0.05515719
#
# Stress axis : x y z
#
# Youngs Moduli (GPa) = 51.04571 65.23219 52.05878
#
# Poissons Ratio (x) = -0.07150 0.09614
# Poissons Ratio (y) = -0.05595 -0.06584
# Poissons Ratio (z) = 0.09427 -0.08250
#
# Static dielectric constant tensor:
#      x y z
#    x 1.869320 0.005700 -0.006720 
#    y 0.005700 1.865080 -0.016690 
#    z -0.006720 -0.016690 1.786580 
# 
# From -- ./inp_files/4817.got.cif
#   From: 2010.05.17/outbox.cif.g08.bks.cpg/sg1_3_cif.got.tgz:4817.got - 2010.05.17 20:27:59.
