data_PCOD9000497
_publ_section_title
;
Structure prediction by ZEFSAII (Michael W. Deem and Ramdas Pophale) SiO2 
 PCOD9000497
Probable space group: P 1
;
_chemical_formula_sum "Si O2"
_cell_formula_units_Z 6
_cell_length_a 7.172337
_cell_length_b 4.949464
_cell_length_c 8.627302
_cell_angle_alpha 88.260963
_cell_angle_beta 126.155483
_cell_angle_gamma 112.630615
_cell_volume 220.151602
_symmetry_space_group_name_H-M "P 1"
_symmetry_group_IT_number 1
_symmetry_cell_setting 'triclinic'
loop_
_space_group_symop_operation_xyz
x,y,z
loop_
_atom_site_type_symbol
_atom_site_label
_atom_site_fract_x
_atom_site_fract_y
_atom_site_fract_z
Si Si1 0.896800 0.503800 0.076850
Si Si2 0.622002 0.945418 0.131976
Si Si3 0.338411 0.574718 0.467217
Si Si4 0.310147 0.424890 0.799065
Si Si5 0.622453 0.436553 0.356176
Si Si6 0.924345 0.793607 0.763756
O O1 0.137780 0.691885 0.306627
O O2 0.833394 0.162574 0.108251
O O3 0.604172 0.461640 0.944456
O O4 0.976494 0.647510 0.944922
O O5 0.684885 0.717080 0.268043
O O6 0.587610 0.156895 0.240898
O O7 0.369600 0.736454 0.911122
O O8 0.235848 0.407656 0.582824
O O9 0.380360 0.398173 0.343777
O O10 0.642367 0.802543 0.645749
O O11 0.125283 0.129861 0.808533
O O12 0.851866 0.551900 0.591592
#
# Coordination Sequence:
#
# PCOD9000497 Si02
#       6
#     1   1   1   1   1   1
#     4  11  24  50  84 120 163 215 281 332 417 488
#     4  12  25  51  83 122 166 219 271 343 418 493
#     4   9  24  51  80 118 164 213 281 333 414 489
#     4  11  24  52  84 122 162 218 278 345 409 494
#     4  10  25  51  80 122 164 220 268 339 415 495
#     4   9  24  51  83 122 159 219 275 340 409 493
#
# _framework density 27.253945000000002
#
# number of rings (size 3 to 8) (size 9 to 14) (size 15 to 20)
#    1.000    0.667    1.667    1.000    2.333    1.333 
#   15.000    0.000    3.667    0.000    0.000    0.000 
#    0.000    0.000    0.000    0.000    0.000    0.000 
#
# Total GULP energy -33563.419233 kJ/mol
# GULP energy per Si atom -5593.903205 kJ/mol
# Density = 2.719191 g / cm^3
# Si number density = 27.253945 Si / 1000 Ang^3
#
#
#
# Elastic Constant Matrix: (Units=GPa)
#
#
# Indices 1 2 3 4 5 6 
#
# 1 142.6247 89.8794 71.1201 3.5700 -7.4301 31.7165
# 2 89.8794 199.9703 82.3046 -13.8039 -30.2535 27.1444
# 3 71.1201 82.3046 223.8548 -47.2783 -11.6550 18.5388
# 4 3.5700 -13.8039 -47.2783 47.5887 8.1872 -8.1107
# 5 -7.4301 -30.2535 -11.6550 8.1872 47.6439 -3.5742
# 6 31.7165 27.1444 18.5388 -8.1107 -3.5742 56.5215
#
#
#
# Elastic Compliance Matrix: (Units=1/GPa)
#
#
# Indices 1 2 3 4 5 6 
#
# 1 0.012490 -0.004097 -0.003411 -0.006208 -0.000786 -0.004863
# 2 -0.004097 0.008143 -0.001297 0.000538 0.004058 -0.000852
# 3 -0.003411 -0.001297 0.007515 0.007666 -0.000750 0.001125
# 4 -0.006208 0.000538 0.007666 0.030714 -0.003663 0.004887
# 5 -0.000786 0.004058 -0.000750 -0.003663 0.023868 -0.000278
# 6 -0.004863 -0.000852 0.001125 0.004887 -0.000278 0.021145
#
#
# Mechanical properties :
#
#
# Convention : Reuss Voigt Hill
#
# Bulk Modulus (GPa) = 94.90085 117.00645 105.95365
# Shear Modulus (GPa) = 40.00080 51.89388 45.94734
#
# Velocity S-wave (km/s) = 3.83522 4.36832 4.11042
# Velocity P-wave (km/s) = 7.38298 8.27454 7.84145
#
# Compressibility (1/GPa) = 0.01053731
#
# Stress axis : x y z
#
# Youngs Moduli (GPa) = 80.06283 122.80767 133.07605
#
# Poissons Ratio (x) = 0.50319 0.45393
# Poissons Ratio (y) = 0.32805 0.17256
# Poissons Ratio (z) = 0.27310 0.15924
#
# Static dielectric constant tensor:
#      x y z
#    x 2.335140 -0.061580 0.107580 
#    y -0.061580 2.092520 0.020320 
#    z 0.107580 0.020320 2.143710 
# 
# From -- ./inp_files/3388.got.cif
#   From: 2010.05.17/outbox.cif.g08.bks.cpg/sg1_2_cif.got.tgz:3388.got - 2010.05.17 20:27:59.
