data_PCOD9000046
_publ_section_title
;
Structure prediction by ZEFSAII (Michael W. Deem and Ramdas Pophale) SiO2 
 PCOD9000046
Probable space group: P 1
;
_chemical_formula_sum "Si O2"
_cell_formula_units_Z 8
_cell_length_a 5.168809
_cell_length_b 10.734994
_cell_length_c 9.607662
_cell_angle_alpha 47.869131
_cell_angle_beta 108.029401
_cell_angle_gamma 130.052867
_cell_volume 295.534441
_symmetry_space_group_name_H-M "P 1"
_symmetry_group_IT_number 1
_symmetry_cell_setting 'triclinic'
loop_
_space_group_symop_operation_xyz
x,y,z
loop_
_atom_site_type_symbol
_atom_site_label
_atom_site_fract_x
_atom_site_fract_y
_atom_site_fract_z
Si Si1 0.903430 0.307760 0.198340
Si Si2 0.166955 0.313808 0.966332
Si Si3 0.440150 0.978347 0.587227
Si Si4 0.330203 0.687561 0.551308
Si Si5 0.885024 0.844913 0.293795
Si Si6 0.512962 0.448560 0.385376
Si Si7 0.852201 0.609147 0.058560
Si Si8 0.092893 0.041541 0.726311
O O1 0.064983 0.555315 0.048502
O O2 0.870644 0.250419 0.075875
O O3 0.173831 0.307301 0.335714
O O4 0.554202 0.140027 0.353896
O O5 0.510703 0.477549 0.998660
O O6 0.193618 0.447177 0.739164
O O7 0.083935 0.086430 0.094120
O O8 0.352531 0.774188 0.645036
O O9 0.167922 0.964907 0.651313
O O10 0.773897 0.048259 0.678304
O O11 0.692116 0.809933 0.435547
O O12 0.096495 0.747622 0.401039
O O13 0.567032 0.657468 0.287991
O O14 0.792210 0.501508 0.279323
O O15 0.433708 0.285001 0.615092
O O16 0.002283 0.845134 0.947160
#
# Coordination Sequence:
#
# PCOD9000046 Si02
#       8
#     1   1   1   1   1   1   1   1
#     4  10  21  41  72  97 132 172 228 287 342 388
#     4  11  25  44  71 106 133 177 232 290 339 403
#     4  11  20  41  66 101 130 166 216 289 335 386
#     4  12  26  44  72 101 139 181 229 279 347 403
#     4  12  29  47  68  99 146 187 223 276 341 417
#     4  10  26  45  62  99 136 184 218 273 339 409
#     4  11  22  41  72 100 127 175 227 289 336 394
#     4  11  23  39  69  97 135 162 223 279 335 392
#
# _framework density 27.069604000000002
#
# number of rings (size 3 to 8) (size 9 to 14) (size 15 to 20)
#    0.000    1.000    3.750    2.250    7.000    1.000 
#    2.250    0.000    0.000    0.000    0.000    0.000 
#    0.000    0.000    0.000    0.000    0.000    0.000 
#
# Total GULP energy -44593.755802 kJ/mol
# GULP energy per Si atom -5574.219475 kJ/mol
# Density = 2.700799 g / cm^3
# Si number density = 27.069604 Si / 1000 Ang^3
#
#
#
# Elastic Constant Matrix: (Units=GPa)
#
#
# Indices 1 2 3 4 5 6 
#
# 1 93.9552 10.3940 28.3271 0.2234 11.2406 -4.5667
# 2 10.3940 69.2198 25.1398 -27.2157 9.7083 -15.7851
# 3 28.3271 25.1398 177.1449 -55.1725 25.5002 -0.7465
# 4 0.2234 -27.2157 -55.1725 39.6564 -12.3567 11.0031
# 5 11.2406 9.7083 25.5002 -12.3567 42.4061 -3.1473
# 6 -4.5667 -15.7851 -0.7465 11.0031 -3.1473 31.7480
#
#
#
# Elastic Compliance Matrix: (Units=1/GPa)
#
#
# Indices 1 2 3 4 5 6 
#
# 1 0.012809 -0.003142 -0.004315 -0.010028 -0.002752 0.003382
# 2 -0.003142 0.021920 0.003103 0.018061 -0.000476 0.004213
# 3 -0.004315 0.003103 0.012608 0.020944 -0.001505 -0.006189
# 4 -0.010028 0.018061 0.020944 0.073353 0.006057 -0.016792
# 5 -0.002752 -0.000476 -0.001505 0.006057 0.027084 -0.000082
# 6 0.003382 0.004213 -0.006189 -0.016792 -0.000082 0.039745
#
#
# Mechanical properties :
#
#
# Convention : Reuss Voigt Hill
#
# Bulk Modulus (GPa) = 25.88647 52.00463 38.94555
# Shear Modulus (GPa) = 23.91146 41.19270 32.55208
#
# Velocity S-wave (km/s) = 2.97532 3.90517 3.47152
# Velocity P-wave (km/s) = 4.62461 6.29182 5.52150
#
# Compressibility (1/GPa) = 0.03863022
#
# Stress axis : x y z
#
# Youngs Moduli (GPa) = 78.06747 45.61977 79.31263
#
# Poissons Ratio (x) = 0.14333 0.34225
# Poissons Ratio (y) = 0.24527 -0.24611
# Poissons Ratio (z) = 0.33688 -0.14156
#
# Static dielectric constant tensor:
#      x y z
#    x 2.204980 0.118430 -0.001760 
#    y 0.118430 2.358200 -0.052340 
#    z -0.001760 -0.052340 2.326430 
# 
# From -- ./inp_files/1501.got.cif
#   From: 2010.05.17/outbox.cif.g08.bks.cpg/sg1_1_cif.got.tgz:1501.got - 2010.05.17 20:27:59.
