data_PCOD9000467
_publ_section_title
;
Structure prediction by ZEFSAII (Michael W. Deem and Ramdas Pophale) SiO2 
 PCOD9000467
Probable space group: P 1
;
_chemical_formula_sum "Si O2"
_cell_formula_units_Z 8
_cell_length_a 8.104048
_cell_length_b 11.962294
_cell_length_c 5.044820
_cell_angle_alpha 103.079094
_cell_angle_beta 89.211676
_cell_angle_gamma 55.951891
_cell_volume 388.683956
_symmetry_space_group_name_H-M "P 1"
_symmetry_group_IT_number 1
_symmetry_cell_setting 'triclinic'
loop_
_space_group_symop_operation_xyz
x,y,z
loop_
_atom_site_type_symbol
_atom_site_label
_atom_site_fract_x
_atom_site_fract_y
_atom_site_fract_z
Si Si1 0.520600 0.734040 0.270230
Si Si2 0.776023 0.577678 0.678303
Si Si3 0.369649 0.409578 0.157516
Si Si4 0.909560 0.767635 0.678355
Si Si5 0.650675 0.925614 0.273730
Si Si6 0.666999 0.388084 0.499620
Si Si7 0.497815 0.238500 0.556397
Si Si8 0.276588 0.644798 0.959856
O O1 0.586710 0.676335 0.534565
O O2 0.504831 0.876889 0.316185
O O3 0.704694 0.625356 0.007326
O O4 0.335146 0.733484 0.170689
O O5 0.919060 0.625150 0.621810
O O6 0.830322 0.422851 0.540548
O O7 0.572736 0.404055 0.218829
O O8 0.344487 0.353992 0.404543
O O9 0.411982 0.296459 0.878247
O O10 0.220272 0.563377 0.119038
O O11 0.835698 0.837742 0.431446
O O12 0.113461 0.732110 0.784223
O O13 0.734655 0.875714 0.949005
O O14 0.552262 0.088027 0.408396
O O15 0.691243 0.248247 0.527361
O O16 0.476780 0.514757 0.739956
#
# Coordination Sequence:
#
# PCOD9000467 Si02
#       8
#     1   1   1   1   1   1   1   1
#     4   9  17  29  49  65  95 123 159 192 224 278
#     4   9  16  31  44  73  92 120 156 194 237 272
#     4   9  17  28  51  73  86 122 159 209 219 269
#     4  10  22  29  50  72 106 122 147 195 250 287
#     4  10  20  34  46  73  97 131 157 191 229 286
#     4   8  17  29  53  70  91 119 161 200 225 271
#     4   9  17  30  49  70  91 122 169 194 221 265
#     4  10  18  32  50  78  96 121 154 197 251 282
#
# _framework density 20.582276
#
# number of rings (size 3 to 8) (size 9 to 14) (size 15 to 20)
#    0.750    2.000    1.250    0.750    1.750    0.000 
#    0.000    0.000    0.000    4.500    0.000    0.000 
#    0.000    0.000    0.000    0.000    0.000    0.000 
#
# Total GULP energy -44536.979541 kJ/mol
# GULP energy per Si atom -5567.122443 kJ/mol
# Density = 2.053543 g / cm^3
# Si number density = 20.582276 Si / 1000 Ang^3
#
#
#
# Elastic Constant Matrix: (Units=GPa)
#
#
# Indices 1 2 3 4 5 6 
#
# 1 38.5129 26.3977 12.7703 9.5849 17.0442 10.5291
# 2 26.3977 94.6871 29.1162 24.4062 14.3898 25.6916
# 3 12.7703 29.1162 107.8523 1.9110 9.6229 6.1686
# 4 9.5849 24.4062 1.9110 36.2748 10.6858 12.9173
# 5 17.0442 14.3898 9.6229 10.6858 31.3275 2.9901
# 6 10.5291 25.6916 6.1686 12.9173 2.9901 24.3693
#
#
#
# Elastic Compliance Matrix: (Units=1/GPa)
#
#
# Indices 1 2 3 4 5 6 
#
# 1 0.041097 -0.006207 -0.000958 0.002557 -0.019134 -0.009978
# 2 -0.006207 0.018373 -0.003321 -0.005778 -0.000862 -0.012679
# 3 -0.000958 -0.003321 0.010404 0.002449 -0.002007 0.000229
# 4 0.002557 -0.005778 0.002449 0.039419 -0.011492 -0.015118
# 5 -0.019134 -0.000862 -0.002007 -0.011492 0.046299 0.010094
# 6 -0.009978 -0.012679 0.000229 -0.015118 0.010094 0.065431
#
#
# Mechanical properties :
#
#
# Convention : Reuss Voigt Hill
#
# Bulk Modulus (GPa) = 20.44841 41.95785 31.20313
# Shear Modulus (GPa) = 19.35775 29.91219 24.63497
#
# Velocity S-wave (km/s) = 3.07009 3.81635 3.46338
# Velocity P-wave (km/s) = 4.74593 6.31261 5.58448
#
# Compressibility (1/GPa) = 0.04890355
#
# Stress axis : x y z
#
# Youngs Moduli (GPa) = 24.33297 54.42736 96.11350
#
# Poissons Ratio (x) = 0.33781 0.09207
# Poissons Ratio (y) = 0.15102 0.31917
# Poissons Ratio (z) = 0.02331 0.18074
#
# Static dielectric constant tensor:
#      x y z
#    x 1.874680 0.042440 -0.008680 
#    y 0.042440 1.724470 -0.006700 
#    z -0.008680 -0.006700 1.756940 
# 
# From -- ./inp_files/1083.got.cif
#   From: 2010.05.17/outbox.cif.g08.bks.cpg/sg1_1_cif.got.tgz:1083.got - 2010.05.17 20:27:59.
