data_PCOD9000032
_publ_section_title
;
Structure prediction by ZEFSAII (Michael W. Deem and Ramdas Pophale) SiO2 
 PCOD9000032
Probable space group: P 1
;
_chemical_formula_sum "Si O2"
_cell_formula_units_Z 8
_cell_length_a 9.330510
_cell_length_b 6.695214
_cell_length_c 6.989330
_cell_angle_alpha 88.713449
_cell_angle_beta 55.995704
_cell_angle_gamma 99.556324
_cell_volume 353.366693
_symmetry_space_group_name_H-M "P 1"
_symmetry_group_IT_number 1
_symmetry_cell_setting 'triclinic'
loop_
_space_group_symop_operation_xyz
x,y,z
loop_
_atom_site_type_symbol
_atom_site_label
_atom_site_fract_x
_atom_site_fract_y
_atom_site_fract_z
Si Si1 0.116380 0.989370 0.870820
Si Si2 0.760925 0.825803 0.357980
Si Si3 0.242338 0.592455 0.796908
Si Si4 0.551519 0.040660 0.223256
Si Si5 0.958550 0.505708 0.322375
Si Si6 0.163641 0.779581 0.487405
Si Si7 0.462234 0.309694 0.614503
Si Si8 0.714984 0.130266 0.696853
O O1 0.239893 0.829827 0.840998
O O2 0.059922 0.909478 0.699687
O O3 0.253059 0.201564 0.757902
O O4 0.949210 0.957777 0.131879
O O5 0.623920 0.880224 0.305725
O O6 0.799157 0.598957 0.350400
O O7 0.725365 0.922147 0.584836
O O8 0.883563 0.303329 0.502950
O O9 0.191636 0.595054 0.610576
O O10 0.431202 0.534757 0.677524
O O11 0.089477 0.478609 0.055307
O O12 0.354681 0.927305 0.305660
O O13 0.540570 0.234103 0.363043
O O14 0.677772 0.104538 0.948139
O O15 0.061786 0.681478 0.381829
O O16 0.554423 0.216470 0.719612
#
# Coordination Sequence:
#
# PCOD9000032 Si02
#       8
#     1   1   1   1   1   1   1   1
#     4   8  19  40  63  90 120 165 207 255 308 369
#     4  10  23  43  67  88 129 170 206 259 316 368
#     4   9  21  40  66  89 124 163 210 260 308 365
#     4  10  24  44  63  94 131 167 206 258 319 373
#     4  11  24  42  66  98 123 164 216 258 313 374
#     4   9  22  41  65  94 123 164 213 256 308 375
#     4  10  21  41  63  91 126 168 206 258 312 369
#     4  11  26  39  63  98 132 161 210 260 316 373
#
# _framework density 22.63937
#
# number of rings (size 3 to 8) (size 9 to 14) (size 15 to 20)
#    0.750    1.500    0.000    0.750    7.000    4.000 
#    4.500    0.000    0.000    0.000    0.000    0.000 
#    0.000    0.000    0.000    0.000    0.000    0.000 
#
# Total GULP energy -44637.178305 kJ/mol
# GULP energy per Si atom -5579.647288 kJ/mol
# Density = 2.258784 g / cm^3
# Si number density = 22.639370 Si / 1000 Ang^3
#
#
#
# Elastic Constant Matrix: (Units=GPa)
#
#
# Indices 1 2 3 4 5 6 
#
# 1 59.2712 15.6223 14.6517 12.5471 0.5218 -5.9933
# 2 15.6223 74.9582 54.4857 13.0985 -4.3388 -4.1875
# 3 14.6517 54.4857 129.1300 -2.8209 -17.9912 -11.9124
# 4 12.5471 13.0985 -2.8209 35.6816 2.5900 -16.0915
# 5 0.5218 -4.3388 -17.9912 2.5900 27.8163 4.5026
# 6 -5.9933 -4.1875 -11.9124 -16.0915 4.5026 32.9618
#
#
#
# Elastic Compliance Matrix: (Units=1/GPa)
#
#
# Indices 1 2 3 4 5 6 
#
# 1 0.019061 -0.001656 -0.001788 -0.006292 -0.001137 -0.000307
# 2 -0.001656 0.022907 -0.010492 -0.011609 -0.001014 -0.006712
# 3 -0.001788 -0.010492 0.013939 0.008151 0.005586 0.006596
# 4 -0.006292 -0.011609 0.008151 0.046028 -0.004496 0.023412
# 5 -0.001137 -0.001014 0.005586 -0.004496 0.040830 -0.006089
# 6 -0.000307 -0.006712 0.006596 0.023412 -0.006089 0.044074
#
#
# Mechanical properties :
#
#
# Convention : Reuss Voigt Hill
#
# Bulk Modulus (GPa) = 35.67009 48.09765 41.88387
# Shear Modulus (GPa) = 22.31574 31.19861 26.75718
#
# Velocity S-wave (km/s) = 3.14300 3.71626 3.44159
# Velocity P-wave (km/s) = 5.38157 6.30122 5.85946
#
# Compressibility (1/GPa) = 0.02803470
#
# Stress axis : x y z
#
# Youngs Moduli (GPa) = 52.46299 43.65441 71.74260
#
# Poissons Ratio (x) = 0.07231 0.12828
# Poissons Ratio (y) = 0.08690 0.75270
# Poissons Ratio (z) = 0.09381 0.45801
#
# Static dielectric constant tensor:
#      x y z
#    x 1.886000 0.015870 -0.036110 
#    y 0.015870 1.925400 -0.041560 
#    z -0.036110 -0.041560 1.797520 
# 
# From -- ./inp_files/1142.got.cif
#   From: 2010.05.17/outbox.cif.g08.bks.cpg/sg1_1_cif.got.tgz:1142.got - 2010.05.17 20:27:59.
