data_PCOD9000884
_publ_section_title
;
Structure prediction by ZEFSAII (Michael W. Deem and Ramdas Pophale) SiO2 
 PCOD9000884
Probable space group: P 1
;
_chemical_formula_sum "Si O2"
_cell_formula_units_Z 8
_cell_length_a 10.237493
_cell_length_b 7.447295
_cell_length_c 8.478170
_cell_angle_alpha 67.478055
_cell_angle_beta 135.406054
_cell_angle_gamma 133.921286
_cell_volume 318.919848
_symmetry_space_group_name_H-M "P 1"
_symmetry_group_IT_number 1
_symmetry_cell_setting 'triclinic'
loop_
_space_group_symop_operation_xyz
x,y,z
loop_
_atom_site_type_symbol
_atom_site_label
_atom_site_fract_x
_atom_site_fract_y
_atom_site_fract_z
Si Si1 0.129220 0.265430 0.606660
Si Si2 0.617884 0.801701 0.719215
Si Si3 0.474419 0.068519 0.675722
Si Si4 0.190874 0.577668 0.825959
Si Si5 0.937841 0.403840 0.165845
Si Si6 0.433518 0.719870 0.275631
Si Si7 0.067283 0.902319 0.182367
Si Si8 0.187532 0.897191 0.925434
O O1 0.390130 0.525674 0.684242
O O2 0.066452 0.337554 0.689244
O O3 0.933995 0.203657 0.330574
O O4 0.169472 0.069060 0.740934
O O5 0.562394 0.990528 0.634334
O O6 0.629338 0.774625 0.549133
O O7 0.847958 0.904327 0.989754
O O8 0.336238 0.825426 0.755675
O O9 0.287820 0.093222 0.427297
O O10 0.703615 0.294136 0.896979
O O11 0.045496 0.627081 0.799687
O O12 0.370842 0.583022 0.099960
O O13 0.982172 0.622628 0.240777
O O14 0.181315 0.545643 0.220160
O O15 0.444001 0.954904 0.153409
O O16 0.125079 0.921833 0.039309
#
# Coordination Sequence:
#
# PCOD9000884 Si02
#       8
#     1   1   1   1   1   1   1   1
#     4  10  20  41  65  95 124 167 213 256 321 375
#     4  10  21  41  66  87 127 167 208 262 312 377
#     4  11  21  41  63  91 125 165 210 261 313 372
#     4   9  19  38  65  87 134 158 203 272 305 372
#     4  10  21  40  65  86 128 166 204 262 312 371
#     4   8  18  42  61  87 130 161 203 265 308 371
#     4  11  22  44  62  91 129 165 211 260 313 381
#     4   9  20  39  65  90 129 163 208 260 316 375
#
# _framework density 25.084675000000001
#
# number of rings (size 3 to 8) (size 9 to 14) (size 15 to 20)
#    0.750    1.500    5.000    0.000    1.750    3.000 
#    4.500    3.750    0.000    0.000    0.000    0.000 
#    0.000    0.000    0.000    0.000    0.000    0.000 
#
# Total GULP energy -44611.739951 kJ/mol
# GULP energy per Si atom -5576.467494 kJ/mol
# Density = 2.502758 g / cm^3
# Si number density = 25.084675 Si / 1000 Ang^3
#
#
#
# Elastic Constant Matrix: (Units=GPa)
#
#
# Indices 1 2 3 4 5 6 
#
# 1 46.3112 12.0740 36.1174 1.6274 -8.2219 -0.4098
# 2 12.0740 68.3576 37.7306 -8.3884 0.6016 -7.5984
# 3 36.1174 37.7306 231.6079 -8.2835 2.7991 4.8299
# 4 1.6274 -8.3884 -8.2835 43.6599 2.4437 1.8247
# 5 -8.2219 0.6016 2.7991 2.4437 42.6656 4.1421
# 6 -0.4098 -7.5984 4.8299 1.8247 4.1421 19.1187
#
#
#
# Elastic Compliance Matrix: (Units=1/GPa)
#
#
# Indices 1 2 3 4 5 6 
#
# 1 0.026396 -0.003017 -0.003771 -0.002565 0.005586 -0.000646
# 2 -0.003017 0.017732 -0.002458 0.002820 -0.001577 0.007676
# 3 -0.003771 -0.002458 0.005395 0.000837 -0.000869 -0.002312
# 4 -0.002565 0.002820 0.000837 0.023847 -0.001856 -0.001019
# 5 0.005586 -0.001577 -0.000869 -0.001856 0.025242 -0.005579
# 6 -0.000646 0.007676 -0.002312 -0.001019 -0.005579 0.057232
#
#
# Mechanical properties :
#
#
# Convention : Reuss Voigt Hill
#
# Bulk Modulus (GPa) = 32.22535 57.56895 44.89715
# Shear Modulus (GPa) = 27.07398 38.44584 32.75991
#
# Velocity S-wave (km/s) = 3.28884 3.91914 3.61775
# Velocity P-wave (km/s) = 5.22460 6.59388 5.94877
#
# Compressibility (1/GPa) = 0.03103147
#
# Stress axis : x y z
#
# Youngs Moduli (GPa) = 37.88399 56.39533 185.36430
#
# Poissons Ratio (x) = 0.17014 0.69893
# Poissons Ratio (y) = 0.11429 0.45569
# Poissons Ratio (z) = 0.14285 0.13864
#
# Static dielectric constant tensor:
#      x y z
#    x 2.055860 0.046290 -0.020050 
#    y 0.046290 2.030560 0.005790 
#    z -0.020050 0.005790 2.012040 
# 
# From -- ./inp_files/5375.got.cif
#   From: 2010.05.17/outbox.cif.g08.bks.cpg/sg1_3_cif.got.tgz:5375.got - 2010.05.17 20:27:59.
