data_PCOD9000243
_publ_section_title
;
Structure prediction by ZEFSAII (Michael W. Deem and Ramdas Pophale) SiO2 
 PCOD9000243
Probable space group: P 1
;
_chemical_formula_sum "Si O2"
_cell_formula_units_Z 8
_cell_length_a 5.671338
_cell_length_b 12.199905
_cell_length_c 9.629512
_cell_angle_alpha 33.672586
_cell_angle_beta 89.637330
_cell_angle_gamma 99.182865
_cell_volume 352.693209
_symmetry_space_group_name_H-M "P 1"
_symmetry_group_IT_number 1
_symmetry_cell_setting 'triclinic'
loop_
_space_group_symop_operation_xyz
x,y,z
loop_
_atom_site_type_symbol
_atom_site_label
_atom_site_fract_x
_atom_site_fract_y
_atom_site_fract_z
Si Si1 0.904630 0.724800 0.006110
Si Si2 0.941867 0.048768 0.024809
Si Si3 0.908043 0.708803 0.570174
Si Si4 0.456328 0.063121 0.877340
Si Si5 0.272128 0.679695 0.811484
Si Si6 0.847205 0.462033 0.547780
Si Si7 0.588024 0.449429 0.092724
Si Si8 0.630904 0.020394 0.622130
O O1 0.955016 0.625649 0.253115
O O2 0.649563 0.566057 0.116964
O O3 0.086172 0.700729 0.910206
O O4 0.857932 0.948310 0.759379
O O5 0.182046 0.003936 0.003198
O O6 0.993792 0.295874 0.755384
O O7 0.666988 0.966743 0.041487
O O8 0.910255 0.940848 0.288857
O O9 0.173859 0.716349 0.623481
O O10 0.838025 0.583426 0.560193
O O11 0.727245 0.585157 0.819930
O O12 0.457721 0.017259 0.761453
O O13 0.588061 0.304924 0.660341
O O14 0.311070 0.453561 0.060179
O O15 0.510553 0.863193 0.665107
O O16 0.668203 0.245488 0.322117
#
# Coordination Sequence:
#
# PCOD9000243 Si02
#       8
#     1   1   1   1   1   1   1   1
#     4  10  22  44  66 102 131 177 235 286 353 404
#     4  10  25  45  69 105 142 180 230 291 346 417
#     4  11  25  44  65  99 138 188 226 282 349 419
#     4  10  24  44  71 104 138 178 232 289 352 398
#     4  10  26  39  68  97 139 184 230 286 344 420
#     4  10  24  41  70 100 136 182 230 292 344 414
#     4  10  23  44  65  96 138 180 231 285 346 418
#     4  11  23  41  70  99 138 179 234 291 348 410
#
# _framework density 22.682604999999999
#
# number of rings (size 3 to 8) (size 9 to 14) (size 15 to 20)
#    0.750    1.000    1.250    0.750    7.000    8.000 
#    0.000    0.000    0.000    0.000    0.000    0.000 
#    0.000    0.000    0.000    0.000    0.000    0.000 
#
# Total GULP energy -44543.758554 kJ/mol
# GULP energy per Si atom -5567.969819 kJ/mol
# Density = 2.263098 g / cm^3
# Si number density = 22.682605 Si / 1000 Ang^3
#
#
#
# Elastic Constant Matrix: (Units=GPa)
#
#
# Indices 1 2 3 4 5 6 
#
# 1 87.9005 8.5063 54.9016 -5.9806 22.1067 -23.8437
# 2 8.5063 83.4116 40.0347 5.1994 15.7683 -1.7276
# 3 54.9016 40.0347 174.8550 6.5369 41.2088 -22.6901
# 4 -5.9806 5.1994 6.5369 35.7584 -4.8140 1.6677
# 5 22.1067 15.7683 41.2088 -4.8140 35.8403 2.8281
# 6 -23.8437 -1.7276 -22.6901 1.6677 2.8281 33.7972
#
#
#
# Elastic Compliance Matrix: (Units=1/GPa)
#
#
# Indices 1 2 3 4 5 6 
#
# 1 0.018748 0.001266 -0.002094 0.001323 -0.010537 0.012701
# 2 0.001266 0.013998 -0.002414 -0.002005 -0.004469 0.000460
# 3 -0.002094 -0.002414 0.010400 -0.003628 -0.010599 0.006447
# 4 0.001323 -0.002005 -0.003628 0.030483 0.008634 -0.003831
# 5 -0.010537 -0.004469 -0.010599 0.008634 0.051252 -0.019493
# 6 0.012701 0.000460 0.006447 -0.003831 -0.019493 0.044721
#
#
# Mechanical properties :
#
#
# Convention : Reuss Voigt Hill
#
# Bulk Modulus (GPa) = 27.27816 61.45026 44.36421
# Shear Modulus (GPa) = 26.55250 37.26081 31.90665
#
# Velocity S-wave (km/s) = 3.42513 4.05743 3.75461
# Velocity P-wave (km/s) = 5.26252 7.00717 6.19656
#
# Compressibility (1/GPa) = 0.03665937
#
# Stress axis : x y z
#
# Youngs Moduli (GPa) = 53.34043 71.43958 96.15759
#
# Poissons Ratio (x) = -0.09043 0.20137
# Poissons Ratio (y) = -0.06752 0.23217
# Poissons Ratio (z) = 0.11170 0.17249
#
# Static dielectric constant tensor:
#      x y z
#    x 2.047990 0.033580 -0.001590 
#    y 0.033580 1.853880 -0.061000 
#    z -0.001590 -0.061000 1.860570 
# 
# From -- ./inp_files/3206.got.cif
#   From: 2010.05.17/outbox.cif.g08.bks.cpg/sg1_2_cif.got.tgz:3206.got - 2010.05.17 20:27:59.
