data_PCOD9000687
_publ_section_title
;
Structure prediction by ZEFSAII (Michael W. Deem and Ramdas Pophale) SiO2 
 PCOD9000687
Probable space group: P 1
;
_chemical_formula_sum "Si O2"
_cell_formula_units_Z 6
_cell_length_a 11.152155
_cell_length_b 9.197995
_cell_length_c 7.853740
_cell_angle_alpha 148.172048
_cell_angle_beta 138.643622
_cell_angle_gamma 44.121992
_cell_volume 273.201716
_symmetry_space_group_name_H-M "P 1"
_symmetry_group_IT_number 1
_symmetry_cell_setting 'triclinic'
loop_
_space_group_symop_operation_xyz
x,y,z
loop_
_atom_site_type_symbol
_atom_site_label
_atom_site_fract_x
_atom_site_fract_y
_atom_site_fract_z
Si Si1 0.214080 0.683570 0.163990
Si Si2 0.339146 0.112674 0.535172
Si Si3 0.360125 0.389527 0.468758
Si Si4 0.130412 0.976001 0.693361
Si Si5 0.732547 0.262680 0.553657
Si Si6 0.607117 0.778982 0.735649
O O1 0.215433 0.882347 0.199041
O O2 0.079002 0.846641 0.327901
O O3 0.242294 0.367392 0.812630
O O4 0.264076 0.197292 0.049206
O O5 0.355298 0.243187 0.500224
O O6 0.544896 0.945806 0.657985
O O7 0.571335 0.393966 0.647092
O O8 0.410172 0.694163 0.475469
O O9 0.233128 0.704645 0.639653
O O10 0.935870 0.148506 0.733719
O O11 0.746437 0.481900 0.632917
O O12 0.660744 0.002688 0.140243
#
# Coordination Sequence:
#
# PCOD9000687 Si02
#       6
#     1   1   1   1   1   1
#     4  10  18  39  60  88 112 155 205 230 295 347
#     4  10  20  35  67  84 117 166 185 242 315 338
#     4  12  22  42  61  87 130 152 191 254 298 354
#     4  12  24  38  66  90 116 161 203 241 295 354
#     4  12  22  39  65  89 116 158 205 243 289 355
#     4  10  18  39  61  86 115 154 205 236 290 348
#
# _framework density 21.961794999999999
#
# number of rings (size 3 to 8) (size 9 to 14) (size 15 to 20)
#    1.000    0.000    5.000    3.000    0.000    0.000 
#    0.000    5.000    3.667    0.000    0.000    0.000 
#    0.000    0.000    0.000    0.000    0.000    0.000 
#
# Total GULP energy -33402.386523 kJ/mol
# GULP energy per Si atom -5567.064420 kJ/mol
# Density = 2.191181 g / cm^3
# Si number density = 21.961795 Si / 1000 Ang^3
#
#
#
# Elastic Constant Matrix: (Units=GPa)
#
#
# Indices 1 2 3 4 5 6 
#
# 1 86.6314 66.9546 -2.0231 -0.1742 -1.0615 -0.7211
# 2 66.9546 131.6456 15.0151 35.2859 4.2866 -7.2598
# 3 -2.0231 15.0151 84.9729 26.4308 -1.4806 -9.2910
# 4 -0.1742 35.2859 26.4308 34.5189 1.6779 0.4992
# 5 -1.0615 4.2866 -1.4806 1.6779 22.9349 -2.6238
# 6 -0.7211 -7.2598 -9.2910 0.4992 -2.6238 38.1314
#
#
#
# Elastic Compliance Matrix: (Units=1/GPa)
#
#
# Indices 1 2 3 4 5 6 
#
# 1 0.026568 -0.019487 -0.003349 0.022555 0.002531 -0.004145
# 2 -0.019487 0.025308 0.004894 -0.029680 -0.002474 0.005861
# 3 -0.003349 0.004894 0.017153 -0.018329 0.001999 0.005425
# 4 0.022555 -0.029680 -0.018329 0.073672 -0.001210 -0.010738
# 5 0.002531 -0.002474 0.001999 -0.001210 0.044760 0.003160
# 6 -0.004145 0.005861 0.005425 -0.010738 0.003160 0.028942
#
#
# Mechanical properties :
#
#
# Convention : Reuss Voigt Hill
#
# Bulk Modulus (GPa) = 30.17032 51.46036 40.81534
# Shear Modulus (GPa) = 18.98718 34.00392 26.49555
#
# Velocity S-wave (km/s) = 2.94352 3.93914 3.47715
# Velocity P-wave (km/s) = 5.03189 6.64618 5.89456
#
# Compressibility (1/GPa) = 0.03314516
#
# Stress axis : x y z
#
# Youngs Moduli (GPa) = 37.63993 39.51309 58.29787
#
# Poissons Ratio (x) = 0.76998 0.19523
# Poissons Ratio (y) = 0.73348 -0.28529
# Poissons Ratio (z) = 0.12605 -0.19337
#
# Static dielectric constant tensor:
#      x y z
#    x 1.893010 -0.012650 -0.027300 
#    y -0.012650 1.851090 0.024700 
#    z -0.027300 0.024700 1.812370 
# 
# From -- ./inp_files/3084.got.cif
#   From: 2010.05.17/outbox.cif.g08.bks.cpg/sg1_2_cif.got.tgz:3084.got - 2010.05.17 20:27:59.
