data_PCOD9000198
_publ_section_title
;
Structure prediction by ZEFSAII (Michael W. Deem and Ramdas Pophale) SiO2 
 PCOD9000198
Probable space group: P 1
;
_chemical_formula_sum "Si O2"
_cell_formula_units_Z 6
_cell_length_a 6.971109
_cell_length_b 7.818883
_cell_length_c 6.931143
_cell_angle_alpha 112.965999
_cell_angle_beta 61.778091
_cell_angle_gamma 67.815568
_cell_volume 221.005625
_symmetry_space_group_name_H-M "P 1"
_symmetry_group_IT_number 1
_symmetry_cell_setting 'triclinic'
loop_
_space_group_symop_operation_xyz
x,y,z
loop_
_atom_site_type_symbol
_atom_site_label
_atom_site_fract_x
_atom_site_fract_y
_atom_site_fract_z
Si Si1 0.944990 0.523670 0.534570
Si Si2 0.282195 0.282982 0.887261
Si Si3 0.339723 0.931090 0.418357
Si Si4 0.944698 0.758887 0.982656
Si Si5 0.851229 0.181862 0.469958
Si Si6 0.454931 0.671526 0.614738
O O1 0.055512 0.616998 0.662090
O O2 0.869266 0.386952 0.638682
O O3 0.636693 0.734932 0.654416
O O4 0.189122 0.326829 0.172410
O O5 0.620741 0.158914 0.641633
O O6 0.076933 0.562538 0.007447
O O7 0.203433 0.142744 0.746314
O O8 0.462945 0.695365 0.394279
O O9 0.593636 0.922449 0.213274
O O10 0.158489 0.948538 0.337763
O O11 0.114767 0.856307 0.950637
O O12 0.656055 0.377034 0.461362
#
# Coordination Sequence:
#
# PCOD9000198 Si02
#       6
#     1   1   1   1   1   1
#     4  10  22  42  68  90 130 170 210 264 322 374
#     4  11  23  45  66  96 133 171 214 270 322 383
#     4  12  24  42  70  96 128 174 218 262 326 386
#     4  11  23  45  66  96 133 171 214 270 322 383
#     4   9  23  44  64  98 130 170 214 270 319 384
#     4   9  23  44  64  98 130 170 214 270 319 384
#
# _framework density 27.148624999999999
#
# number of rings (size 3 to 8) (size 9 to 14) (size 15 to 20)
#    1.000    0.667    3.333    0.000    0.000    9.333 
#    0.000    0.000    0.000    0.000    0.000    0.000 
#    0.000    0.000    0.000    0.000    0.000    0.000 
#
# Total GULP energy -33419.124097 kJ/mol
# GULP energy per Si atom -5569.854016 kJ/mol
# Density = 2.708683 g / cm^3
# Si number density = 27.148625 Si / 1000 Ang^3
#
#
#
# Elastic Constant Matrix: (Units=GPa)
#
#
# Indices 1 2 3 4 5 6 
#
# 1 -897.1733 420.4942-1522.5104 -257.1674 70.1427 -169.6611
# 2 420.4942 -6.2865 576.0637 69.3342 -29.7256 27.6900
# 3 -1522.5104 576.0637-2215.2710 -366.1926 105.8250 -222.4059
# 4 -257.1674 69.3342 -366.1926 -17.9350 19.7457 -37.2472
# 5 70.1427 -29.7256 105.8250 19.7457 47.6226 5.0404
# 6 -169.6611 27.6900 -222.4059 -37.2472 5.0404 29.0754
#
#
#
# Elastic Compliance Matrix: (Units=1/GPa)
#
#
# Indices 1 2 3 4 5 6 
#
# 1 0.007064 -0.000705 -0.005290 0.000477 0.000504 0.001955
# 2 -0.000705 0.009209 0.001466 0.005531 0.000676 0.005295
# 3 -0.005290 0.001466 0.004490 -0.003733 0.000572 -0.002796
# 4 0.000477 0.005531 -0.003733 0.026967 -0.000517 0.003597
# 5 0.000504 0.000676 0.000572 -0.000517 0.019340 0.002657
# 6 0.001955 0.005295 -0.002796 0.003597 0.002657 0.023521
#
#
# Mechanical properties :
#
#
# Convention : Reuss Voigt Hill
#
# Bulk Modulus (GPa) = 85.42756 -463.40396 -188.98820
# Shear Modulus (GPa) = 48.28522 -161.09928 -56.40703
#
# Velocity S-wave (km/s) = 4.22186 -7.71159 -4.56314
# Velocity P-wave (km/s) = 7.43643 15.82256 9.87555
#
# Compressibility (1/GPa) = 0.01170582
#
# Stress axis : x y z
#
# Youngs Moduli (GPa) = 141.55578 108.58743 222.69701
#
# Poissons Ratio (x) = 0.07657 1.17800
# Poissons Ratio (y) = 0.09982 -0.32644
# Poissons Ratio (z) = 0.74879 -0.15917
#
# Static dielectric constant tensor:
#      x y z
#    x 3.565380 -1.792930 1.731920 
#    y -1.792930 4.334650 -2.005490 
#    z 1.731920 -2.005490 4.432000 
# 
# From -- ./inp_files/880.got.cif
#   From: 2010.05.17/outbox.cif.g08.bks.cpg/sg1_1_cif.got.tgz:880.got - 2010.05.17 20:27:59.
