data_PCOD9000953
_publ_section_title
;
Structure prediction by ZEFSAII (Michael W. Deem and Ramdas Pophale) SiO2 
 PCOD9000953
Probable space group: P 1
;
_chemical_formula_sum "Si O2"
_cell_formula_units_Z 8
_cell_length_a 12.645859
_cell_length_b 7.417302
_cell_length_c 8.531935
_cell_angle_alpha 92.254914
_cell_angle_beta 135.466606
_cell_angle_gamma 52.715573
_cell_volume 317.428625
_symmetry_space_group_name_H-M "P 1"
_symmetry_group_IT_number 1
_symmetry_cell_setting 'triclinic'
loop_
_space_group_symop_operation_xyz
x,y,z
loop_
_atom_site_type_symbol
_atom_site_label
_atom_site_fract_x
_atom_site_fract_y
_atom_site_fract_z
Si Si1 0.560810 0.328140 0.399540
Si Si2 0.859704 0.655506 0.686785
Si Si3 0.475123 0.989499 0.755083
Si Si4 0.437718 0.444980 0.630856
Si Si5 0.075962 0.977196 0.788285
Si Si6 0.945394 0.994146 0.331245
Si Si7 0.982799 0.538665 0.455472
Si Si8 0.344551 0.006449 0.298040
O O1 0.503725 0.430287 0.522993
O O2 0.710259 0.991822 0.543165
O O3 0.281937 0.608140 0.022644
O O4 0.777876 0.239280 0.541891
O O5 0.916792 0.553357 0.563335
O O6 0.642635 0.744370 0.544426
O O7 0.138575 0.375505 0.063680
O O8 0.474900 0.191141 0.684167
O O9 0.367057 0.963051 0.506616
O O10 0.277765 0.198411 0.700545
O O11 0.770351 0.661475 0.116146
O O12 0.650166 0.322170 0.970182
O O13 0.142752 0.785235 0.385782
O O14 0.053462 0.020591 0.579713
O O15 0.210256 0.991823 0.043162
O O16 0.945616 0.792504 0.402160
#
# Coordination Sequence:
#
# PCOD9000953 Si02
#       8
#     1   1   1   1   1   1   1   1
#     4  12  24  42  68  98 125 166 226 262 304 377
#     4  12  24  42  68  98 125 166 226 262 304 377
#     4  10  21  38  62  93 127 163 206 261 323 366
#     4  10  21  37  64  95 121 160 216 269 301 366
#     4  12  26  44  64  95 136 171 204 262 332 382
#     4  10  21  38  62  93 127 163 206 261 323 366
#     4  10  21  37  64  95 121 160 216 269 301 366
#     4  12  26  44  64  95 136 171 204 262 332 382
#
# _framework density 25.202517
#
# number of rings (size 3 to 8) (size 9 to 14) (size 15 to 20)
#    0.000    1.000    2.500    4.500    7.000    0.000 
#    0.000    7.500    0.000    0.000    0.000    0.000 
#    0.000    0.000    0.000    0.000    0.000    0.000 
#
# Total GULP energy -44842.459618 kJ/mol
# GULP energy per Si atom -5605.307452 kJ/mol
# Density = 2.514515 g / cm^3
# Si number density = 25.202517 Si / 1000 Ang^3
#
#
#
# Elastic Constant Matrix: (Units=GPa)
#
#
# Indices 1 2 3 4 5 6 
#
# 1 55.9804 14.4659 5.3087 -7.5177 -3.6319 -32.7548
# 2 14.4659 79.5923 15.5831 6.4315 -3.5868 -11.4247
# 3 5.3087 15.5831 123.6308 1.5552 -8.5535 -11.5307
# 4 -7.5177 6.4315 1.5552 53.7052 -12.3417 1.2848
# 5 -3.6319 -3.5868 -8.5535 -12.3417 30.2667 -4.1430
# 6 -32.7548 -11.4247 -11.5307 1.2848 -4.1430 48.0414
#
#
#
# Elastic Compliance Matrix: (Units=1/GPa)
#
#
# Indices 1 2 3 4 5 6 
#
# 1 0.033791 -0.003223 0.001753 0.006840 0.010159 0.023387
# 2 -0.003223 0.013721 -0.001487 -0.002049 0.000089 0.000771
# 3 0.001753 -0.001487 0.008715 0.000849 0.003280 0.003194
# 4 0.006840 -0.002049 0.000849 0.022092 0.010468 0.004692
# 5 0.010159 0.000089 0.003280 0.010468 0.040969 0.010988
# 6 0.023387 0.000771 0.003194 0.004692 0.010988 0.038533
#
#
# Mechanical properties :
#
#
# Convention : Reuss Voigt Hill
#
# Bulk Modulus (GPa) = 19.87520 36.65764 28.26642
# Shear Modulus (GPa) = 27.69991 41.32572 34.51282
#
# Velocity S-wave (km/s) = 3.31885 4.05377 3.70458
# Velocity P-wave (km/s) = 4.75286 6.04049 5.43495
#
# Compressibility (1/GPa) = 0.05031395
#
# Stress axis : x y z
#
# Youngs Moduli (GPa) = 29.59327 72.87954 114.74605
#
# Poissons Ratio (x) = 0.23488 -0.20118
# Poissons Ratio (y) = 0.09537 0.17066
# Poissons Ratio (z) = -0.05188 0.10839
#
# Static dielectric constant tensor:
#      x y z
#    x 2.030920 0.162440 -0.010940 
#    y 0.162440 2.068570 0.013520 
#    z -0.010940 0.013520 1.905260 
# 
# From -- ./inp_files/1174.got.cif
#   From: 2010.05.17/outbox.cif.g08.bks.cpg/sg1_1_cif.got.tgz:1174.got - 2010.05.17 20:27:59.
