data_PCOD9000014
_publ_section_title
;
Structure prediction by ZEFSAII (Michael W. Deem and Ramdas Pophale) SiO2 
 PCOD9000014
Probable space group: P 1
;
_chemical_formula_sum "Si O2"
_cell_formula_units_Z 8
_cell_length_a 16.504187
_cell_length_b 9.773323
_cell_length_c 9.486255
_cell_angle_alpha 44.044730
_cell_angle_beta 145.995768
_cell_angle_gamma 149.198224
_cell_volume 438.075657
_symmetry_space_group_name_H-M "P 1"
_symmetry_group_IT_number 1
_symmetry_cell_setting 'triclinic'
loop_
_space_group_symop_operation_xyz
x,y,z
loop_
_atom_site_type_symbol
_atom_site_label
_atom_site_fract_x
_atom_site_fract_y
_atom_site_fract_z
Si Si1 0.654590 0.018500 0.660080
Si Si2 0.541857 0.216590 0.113864
Si Si3 0.011367 0.159234 0.903210
Si Si4 0.371048 0.460203 0.778028
Si Si5 0.293712 0.771205 0.850159
Si Si6 0.602772 0.921193 0.968335
Si Si7 0.975381 0.682229 0.281441
Si Si8 0.964092 0.254510 0.448962
O O1 0.605350 0.153537 0.389249
O O2 0.845962 0.084225 0.828328
O O3 0.471110 0.698254 0.632695
O O4 0.675820 0.088641 0.804474
O O5 0.745696 0.477924 0.144382
O O6 0.403909 0.270645 0.917022
O O7 0.423888 0.971455 0.016453
O O8 0.939335 0.143285 0.652537
O O9 0.203180 0.472037 0.969176
O O10 0.039939 0.953570 0.116942
O O11 0.152793 0.327187 0.597189
O O12 0.502608 0.629318 0.981536
O O13 0.110446 0.741688 0.564947
O O14 0.432965 0.884571 0.829939
O O15 0.776384 0.049501 0.232872
O O16 0.996061 0.518000 0.324707
#
# Coordination Sequence:
#
# PCOD9000014 Si02
#       8
#     1   1   1   1   1   1   1   1
#     4  10  21  40  64  91 134 164 207 265 317 373
#     4  12  23  42  69  94 131 172 213 262 321 382
#     4  11  21  42  68  96 127 172 212 265 320 383
#     4  10  24  41  63  96 134 162 211 270 316 373
#     4  11  23  42  68  94 129 170 218 261 317 383
#     4  10  21  44  62  92 136 165 205 275 313 369
#     4  11  21  41  68  94 127 166 219 263 309 384
#     4  11  22  44  66  91 134 167 215 265 315 383
#
# _framework density 18.261686999999998
#
# number of rings (size 3 to 8) (size 9 to 14) (size 15 to 20)
#    0.750    0.500    7.500    0.000    0.000    6.000 
#    4.500    0.000    0.000    0.000    0.000    0.000 
#    0.000    0.000    0.000    0.000    0.000    0.000 
#
# Total GULP energy -44602.494412 kJ/mol
# GULP energy per Si atom -5575.311802 kJ/mol
# Density = 1.822012 g / cm^3
# Si number density = 18.261687 Si / 1000 Ang^3
#
#
#
# Elastic Constant Matrix: (Units=GPa)
#
#
# Indices 1 2 3 4 5 6 
#
# 1 95.6643 30.4174 33.6976 2.0326 17.1999 2.8492
# 2 30.4174 93.8210 49.6475 8.4133 -7.2972 -6.3322
# 3 33.6976 49.6475 88.7292 -18.7664 11.5747 0.6164
# 4 2.0326 8.4133 -18.7664 35.4209 2.6643 4.0217
# 5 17.1999 -7.2972 11.5747 2.6643 30.9669 7.4334
# 6 2.8492 -6.3322 0.6164 4.0217 7.4334 22.3675
#
#
#
# Elastic Compliance Matrix: (Units=1/GPa)
#
#
# Indices 1 2 3 4 5 6 
#
# 1 0.013867 -0.003961 -0.002114 -0.000370 -0.007771 -0.000181
# 2 -0.003961 0.024176 -0.017436 -0.016519 0.014391 0.006017
# 3 -0.002114 -0.017436 0.028086 0.020714 -0.014143 -0.004465
# 4 -0.000370 -0.016519 0.020714 0.045157 -0.013168 -0.008943
# 5 -0.007771 0.014391 -0.014143 -0.013168 0.048403 -0.008265
# 6 -0.000181 0.006017 -0.004465 -0.008943 -0.008265 0.050912
#
#
# Mechanical properties :
#
#
# Convention : Reuss Voigt Hill
#
# Bulk Modulus (GPa) = 52.33238 56.19329 54.26284
# Shear Modulus (GPa) = 18.93999 28.71453 23.82726
#
# Velocity S-wave (km/s) = 3.22396 3.96964 3.61608
# Velocity P-wave (km/s) = 6.52516 7.20060 6.87119
#
# Compressibility (1/GPa) = 0.01910863
#
# Stress axis : x y z
#
# Youngs Moduli (GPa) = 72.11118 41.36325 35.60479
#
# Poissons Ratio (x) = 0.16383 0.07526
# Poissons Ratio (y) = 0.28562 0.62081
# Poissons Ratio (z) = 0.15242 0.72121
#
# Static dielectric constant tensor:
#      x y z
#    x 1.636190 0.007960 0.001730 
#    y 0.007960 1.629410 -0.001990 
#    z 0.001730 -0.001990 1.606600 
# 
# From -- ./inp_files/6809.got.cif
#   From: 2010.05.17/outbox.cif.g08.bks.cpg/sg1_4_cif.got.tgz:6809.got - 2010.05.17 20:27:59.
