data_PCOD9000636
_publ_section_title
;
Structure prediction by ZEFSAII (Michael W. Deem and Ramdas Pophale) SiO2 
 PCOD9000636
Probable space group: P 1
;
_chemical_formula_sum "Si O2"
_cell_formula_units_Z 8
_cell_length_a 13.448857
_cell_length_b 5.056283
_cell_length_c 5.328554
_cell_angle_alpha 80.819814
_cell_angle_beta 88.514533
_cell_angle_gamma 111.673152
_cell_volume 330.994600
_symmetry_space_group_name_H-M "P 1"
_symmetry_group_IT_number 1
_symmetry_cell_setting 'triclinic'
loop_
_space_group_symop_operation_xyz
x,y,z
loop_
_atom_site_type_symbol
_atom_site_label
_atom_site_fract_x
_atom_site_fract_y
_atom_site_fract_z
Si Si1 0.653470 0.873780 0.791510
Si Si2 0.078075 0.424414 0.022796
Si Si3 0.934627 0.751772 0.147091
Si Si4 0.261113 0.231782 0.071121
Si Si5 0.453389 0.958083 0.533684
Si Si6 0.221839 0.862768 0.631745
Si Si7 0.485796 0.549036 0.210578
Si Si8 0.793860 0.543350 0.686509
O O1 0.548209 0.914124 0.684990
O O2 0.704298 0.685180 0.659394
O O3 0.740468 0.196276 0.764383
O O4 0.604745 0.687573 0.071274
O O5 0.224675 0.080147 0.827400
O O6 0.021714 0.604915 0.145350
O O7 0.114994 0.581530 0.727268
O O8 0.996510 0.095756 0.077695
O O9 0.866880 0.646226 0.420349
O O10 0.860546 0.656981 0.919648
O O11 0.232018 0.008785 0.339692
O O12 0.389755 0.388195 0.047382
O O13 0.191808 0.424937 0.111047
O O14 0.332520 0.809461 0.663119
O O15 0.457709 0.805690 0.293461
O O16 0.476756 0.295913 0.445158
#
# Coordination Sequence:
#
# PCOD9000636 Si02
#       8
#     1   1   1   1   1   1   1   1
#     4  12  27  48  82 102 152 196 251 300 388 434
#     4  12  27  52  82 106 154 196 253 300 390 434
#     4  12  30  52  77 110 145 194 256 324 368 434
#     4  11  28  47  76 116 156 197 245 298 368 455
#     4  11  27  45  74 113 154 195 244 297 367 454
#     4  11  28  47  76 116 156 197 245 298 368 455
#     4  11  27  45  74 113 154 195 244 297 367 454
#     4  12  30  52  77 110 145 194 256 324 368 434
#
# _framework density 24.169577
#
# number of rings (size 3 to 8) (size 9 to 14) (size 15 to 20)
#    0.000    0.500    1.250    3.750   22.750    2.000 
#    0.000    0.000    0.000    0.000    0.000    0.000 
#    0.000    0.000    0.000    0.000    0.000    0.000 
#
# Total GULP energy -44819.830001 kJ/mol
# GULP energy per Si atom -5602.478750 kJ/mol
# Density = 2.411457 g / cm^3
# Si number density = 24.169577 Si / 1000 Ang^3
#
#
#
# Elastic Constant Matrix: (Units=GPa)
#
#
# Indices 1 2 3 4 5 6 
#
# 1 138.1225 23.6114 50.0025 -8.1880 -30.7280 -15.6601
# 2 23.6114 121.0087 51.7685 -21.6215 -29.7472 13.0434
# 3 50.0025 51.7685 125.8782 -12.3945 -31.5285 15.2212
# 4 -8.1880 -21.6215 -12.3945 41.6967 12.5240 -6.0715
# 5 -30.7280 -29.7472 -31.5285 12.5240 60.6920 -6.4604
# 6 -15.6601 13.0434 15.2212 -6.0715 -6.4604 45.3516
#
#
#
# Elastic Compliance Matrix: (Units=1/GPa)
#
#
# Indices 1 2 3 4 5 6 
#
# 1 0.009993 0.000041 -0.003659 0.000575 0.003620 0.005260
# 2 0.000041 0.011212 -0.003402 0.003788 0.002844 -0.001156
# 3 -0.003659 -0.003402 0.011816 -0.000221 0.002242 -0.003961
# 4 0.000575 0.003788 -0.000221 0.027347 -0.003358 0.002366
# 5 0.003620 0.002844 0.002242 -0.003358 0.021810 0.002337
# 6 0.005260 -0.001156 -0.003961 0.002366 0.002337 0.026178
#
#
# Mechanical properties :
#
#
# Convention : Reuss Voigt Hill
#
# Bulk Modulus (GPa) = 52.68601 70.64158 61.66380
# Shear Modulus (GPa) = 38.84295 46.85651 42.84973
#
# Velocity S-wave (km/s) = 4.01322 4.40779 4.21512
# Velocity P-wave (km/s) = 6.58182 7.42939 7.01841
#
# Compressibility (1/GPa) = 0.01898037
#
# Stress axis : x y z
#
# Youngs Moduli (GPa) = 100.06597 89.19054 84.63330
#
# Poissons Ratio (x) = -0.00368 0.30970
# Poissons Ratio (y) = -0.00412 0.28794
# Poissons Ratio (z) = 0.36617 0.30345
#
# Static dielectric constant tensor:
#      x y z
#    x 1.917400 0.019090 0.040260 
#    y 0.019090 1.918100 0.005090 
#    z 0.040260 0.005090 1.976940 
# 
# From -- ./inp_files/2595.got.cif
#   From: 2010.05.17/outbox.cif.g08.bks.cpg/sg1_2_cif.got.tgz:2595.got - 2010.05.17 20:27:59.
