data_PCOD9000623
_publ_section_title
;
Structure prediction by ZEFSAII (Michael W. Deem and Ramdas Pophale) SiO2 
 PCOD9000623
Probable space group: P 1
;
_chemical_formula_sum "Si O2"
_cell_formula_units_Z 8
_cell_length_a 6.920955
_cell_length_b 12.678794
_cell_length_c 6.878572
_cell_angle_alpha 132.100112
_cell_angle_beta 61.004855
_cell_angle_gamma 138.294336
_cell_volume 297.803140
_symmetry_space_group_name_H-M "P 1"
_symmetry_group_IT_number 1
_symmetry_cell_setting 'triclinic'
loop_
_space_group_symop_operation_xyz
x,y,z
loop_
_atom_site_type_symbol
_atom_site_label
_atom_site_fract_x
_atom_site_fract_y
_atom_site_fract_z
Si Si1 0.965890 0.333460 0.473320
Si Si2 0.935183 0.921995 0.712019
Si Si3 0.032106 0.847111 0.173396
Si Si4 0.281228 0.541732 0.234819
Si Si5 0.370672 0.711819 0.968372
Si Si6 0.445648 0.320344 0.853991
Si Si7 0.909156 0.633980 0.594457
Si Si8 0.289240 0.239066 0.407090
O O1 0.700630 0.319618 0.662608
O O2 0.998307 0.344480 0.236809
O O3 0.237094 0.533995 0.676824
O O4 0.027360 0.208621 0.387820
O O5 0.680399 0.867324 0.908577
O O6 0.877172 0.879769 0.455414
O O7 0.981176 0.782060 0.588099
O O8 0.227762 0.135028 0.856521
O O9 0.237998 0.048986 0.213824
O O10 0.207137 0.793344 0.125160
O O11 0.863483 0.697678 0.897363
O O12 0.193268 0.656681 0.513149
O O13 0.328953 0.623304 0.093349
O O14 0.499936 0.501715 0.132168
O O15 0.617107 0.425536 0.418317
O O16 0.278597 0.287513 0.695722
#
# Coordination Sequence:
#
# PCOD9000623 Si02
#       8
#     1   1   1   1   1   1   1   1
#     4  12  26  51  79 119 158 217 270 322 414 476
#     4  11  27  49  74 117 167 206 270 338 393 482
#     4  11  27  51  78 122 161 211 269 336 400 481
#     4  12  26  46  84 112 160 215 263 330 398 484
#     4  12  25  48  78 115 162 211 266 333 399 476
#     4  11  26  50  78 121 162 211 267 333 407 477
#     4  12  24  52  78 118 162 216 265 331 405 473
#     4  11  25  53  83 114 164 209 274 329 404 481
#
# _framework density 26.863385999999998
#
# number of rings (size 3 to 8) (size 9 to 14) (size 15 to 20)
#    0.000    0.500    6.250    0.000    3.500    4.000 
#    4.500    0.000    0.000    0.000    0.000    0.000 
#    0.000    0.000    0.000    0.000    0.000    0.000 
#
# Total GULP energy -44599.119484 kJ/mol
# GULP energy per Si atom -5574.889935 kJ/mol
# Density = 2.680224 g / cm^3
# Si number density = 26.863386 Si / 1000 Ang^3
#
#
#
# Elastic Constant Matrix: (Units=GPa)
#
#
# Indices 1 2 3 4 5 6 
#
# 1 98.4632 54.3342 58.2353 1.6691 -15.3658 -20.4228
# 2 54.3342 166.2509 49.3825 2.6929 -11.9219 -10.7192
# 3 58.2353 49.3825 128.1596 -6.9472 -15.9407 4.5893
# 4 1.6691 2.6929 -6.9472 60.6478 -4.1956 1.9461
# 5 -15.3658 -11.9219 -15.9407 -4.1956 45.7557 7.5687
# 6 -20.4228 -10.7192 4.5893 1.9461 7.5687 53.6125
#
#
#
# Elastic Compliance Matrix: (Units=1/GPa)
#
#
# Indices 1 2 3 4 5 6 
#
# 1 0.017563 -0.003151 -0.006879 -0.001236 0.001494 0.006483
# 2 -0.003151 0.007536 -0.001473 -0.000410 0.000287 0.000407
# 3 -0.006879 -0.001473 0.012057 0.001942 0.002405 -0.004357
# 4 -0.001236 -0.000410 0.001942 0.016952 0.001976 -0.001613
# 5 0.001494 0.000287 0.002405 0.001976 0.023953 -0.003032
# 6 0.006483 0.000407 -0.004357 -0.001613 -0.003032 0.022063
#
#
# Mechanical properties :
#
#
# Convention : Reuss Voigt Hill
#
# Bulk Modulus (GPa) = 70.68043 79.64197 75.16120
# Shear Modulus (GPa) = 39.10969 47.39796 43.25382
#
# Velocity S-wave (km/s) = 3.81973 4.20504 4.01701
# Velocity P-wave (km/s) = 6.76919 7.29986 7.03953
#
# Compressibility (1/GPa) = 0.01414819
#
# Stress axis : x y z
#
# Youngs Moduli (GPa) = 56.93925 132.69928 82.94107
#
# Poissons Ratio (x) = 0.41816 0.57059
# Poissons Ratio (y) = 0.17943 0.12216
# Poissons Ratio (z) = 0.39171 0.19545
#
# Static dielectric constant tensor:
#      x y z
#    x 2.236990 0.039580 0.013480 
#    y 0.039580 2.215940 -0.056810 
#    z 0.013480 -0.056810 2.173390 
# 
# From -- ./inp_files/4863.got.cif
#   From: 2010.05.17/outbox.cif.g08.bks.cpg/sg1_3_cif.got.tgz:4863.got - 2010.05.17 20:27:59.
