data_PCOD9000496
_publ_section_title
;
Structure prediction by ZEFSAII (Michael W. Deem and Ramdas Pophale) SiO2 
 PCOD9000496
Probable space group: P 1
;
_chemical_formula_sum "Si O2"
_cell_formula_units_Z 8
_cell_length_a 8.222253
_cell_length_b 7.843964
_cell_length_c 5.228163
_cell_angle_alpha 109.101980
_cell_angle_beta 82.267757
_cell_angle_gamma 105.262605
_cell_volume 306.952592
_symmetry_space_group_name_H-M "P 1"
_symmetry_group_IT_number 1
_symmetry_cell_setting 'triclinic'
loop_
_space_group_symop_operation_xyz
x,y,z
loop_
_atom_site_type_symbol
_atom_site_label
_atom_site_fract_x
_atom_site_fract_y
_atom_site_fract_z
Si Si1 0.826420 0.417050 0.605950
Si Si2 0.629401 0.284669 0.064147
Si Si3 0.726545 0.897417 0.735880
Si Si4 0.132691 0.319894 0.738178
Si Si5 0.267010 0.082568 0.951362
Si Si6 0.361379 0.693212 0.632497
Si Si7 0.087630 0.596983 0.270682
Si Si8 0.944681 0.893052 0.186770
O O1 0.705844 0.337137 0.353987
O O2 0.962494 0.299761 0.602074
O O3 0.959989 0.589005 0.531616
O O4 0.714929 0.423745 0.886354
O O5 0.426908 0.241042 0.084073
O O6 0.669930 0.090024 0.876378
O O7 0.561796 0.733904 0.633590
O O8 0.847319 0.912078 0.475477
O O9 0.817234 0.871082 0.967021
O O10 0.269697 0.499064 0.689560
O O11 0.209371 0.148690 0.721555
O O12 0.076082 0.395923 0.057846
O O13 0.107495 0.051961 0.154771
O O14 0.315862 0.883971 0.831300
O O15 0.278497 0.675008 0.359030
O O16 0.023067 0.716229 0.131441
#
# Coordination Sequence:
#
# PCOD9000496 Si02
#       8
#     1   1   1   1   1   1   1   1
#     4  11  24  46  72 104 149 190 239 299 366 423
#     4  11  25  47  71 110 148 187 243 310 354 435
#     4  11  27  44  77 106 147 190 243 305 364 429
#     4  11  24  49  77 108 147 198 237 304 362 437
#     4  11  26  48  77 107 148 197 246 296 371 433
#     4  10  25  50  72 110 151 189 246 303 363 434
#     4  11  25  46  76 105 155 190 240 306 362 432
#     4  12  26  46  74 108 143 197 242 293 368 433
#
# _framework density 26.062657999999999
#
# number of rings (size 3 to 8) (size 9 to 14) (size 15 to 20)
#    0.000    1.000    2.500    2.250    5.250    6.000 
#    6.750    0.000    0.000    0.000    0.000    0.000 
#    0.000    0.000    0.000    0.000    0.000    0.000 
#
# Total GULP energy -44809.475672 kJ/mol
# GULP energy per Si atom -5601.184459 kJ/mol
# Density = 2.600334 g / cm^3
# Si number density = 26.062658 Si / 1000 Ang^3
#
#
#
# Elastic Constant Matrix: (Units=GPa)
#
#
# Indices 1 2 3 4 5 6 
#
# 1 156.8041 67.6166 60.5688 -26.0271 40.1010 29.4730
# 2 67.6166 119.5818 28.9015 -42.0776 -3.5033 14.1887
# 3 60.5688 28.9015 140.9958 -22.4575 36.1086 9.3808
# 4 -26.0271 -42.0776 -22.4575 35.4275 -8.3338 -4.0777
# 5 40.1010 -3.5033 36.1086 -8.3338 43.8605 18.2376
# 6 29.4730 14.1887 9.3808 -4.0777 18.2376 37.3165
#
#
#
# Elastic Compliance Matrix: (Units=1/GPa)
#
#
# Indices 1 2 3 4 5 6 
#
# 1 0.013477 -0.009242 -0.001471 -0.005044 -0.012258 -0.001321
# 2 -0.009242 0.024299 -0.001617 0.024760 0.020005 -0.008604
# 3 -0.001471 -0.001617 0.010262 0.001949 -0.008305 0.003469
# 4 -0.005044 0.024760 0.001949 0.058805 0.020016 -0.009277
# 5 -0.012258 0.020005 -0.008305 0.020016 0.054726 -0.020396
# 6 -0.001321 -0.008604 0.003469 -0.009277 -0.020396 0.039195
#
#
# Mechanical properties :
#
#
# Convention : Reuss Voigt Hill
#
# Bulk Modulus (GPa) = 42.77858 81.28395 62.03126
# Shear Modulus (GPa) = 21.43930 40.67388 31.05659
#
# Velocity S-wave (km/s) = 2.87122 3.95475 3.45572
# Velocity P-wave (km/s) = 5.23844 7.21866 6.30675
#
# Compressibility (1/GPa) = 0.02337619
#
# Stress axis : x y z
#
# Youngs Moduli (GPa) = 74.20128 41.15464 97.44236
#
# Poissons Ratio (x) = 0.38036 0.14336
# Poissons Ratio (y) = 0.68578 0.15761
# Poissons Ratio (z) = 0.10917 0.06657
#
# Static dielectric constant tensor:
#      x y z
#    x 2.043910 -0.011540 -0.039650 
#    y -0.011540 2.111910 0.042190 
#    z -0.039650 0.042190 2.074310 
# 
# From -- ./inp_files/1212.got.cif
#   From: 2010.05.17/outbox.cif.g08.bks.cpg/sg1_1_cif.got.tgz:1212.got - 2010.05.17 20:27:59.
