data_PCOD9000485
_publ_section_title
;
Structure prediction by ZEFSAII (Michael W. Deem and Ramdas Pophale) SiO2 
 PCOD9000485
Probable space group: P 1
;
_chemical_formula_sum "Si O2"
_cell_formula_units_Z 8
_cell_length_a 13.629538
_cell_length_b 10.253966
_cell_length_c 5.081165
_cell_angle_alpha 121.864443
_cell_angle_beta 111.190415
_cell_angle_gamma 32.720230
_cell_volume 320.674073
_symmetry_space_group_name_H-M "P 1"
_symmetry_group_IT_number 1
_symmetry_cell_setting 'triclinic'
loop_
_space_group_symop_operation_xyz
x,y,z
loop_
_atom_site_type_symbol
_atom_site_label
_atom_site_fract_x
_atom_site_fract_y
_atom_site_fract_z
Si Si1 0.320490 0.574200 0.942200
Si Si2 0.966449 0.822717 0.079549
Si Si3 0.407104 0.641081 0.636526
Si Si4 0.448421 0.897024 0.681677
Si Si5 0.795260 0.159308 0.770043
Si Si6 0.769985 0.536271 0.234024
Si Si7 0.429355 0.139929 0.308986
Si Si8 0.107069 0.351000 0.489950
O O1 0.262548 0.752385 0.829996
O O2 0.431179 0.302852 0.616004
O O3 0.398878 0.573621 0.268884
O O4 0.146141 0.699338 0.033283
O O5 0.923856 0.911735 0.432791
O O6 0.998234 0.604997 0.833076
O O7 0.817450 0.067789 0.987967
O O8 0.412426 0.817015 0.789593
O O9 0.592322 0.379220 0.693603
O O10 0.652225 0.629086 0.479011
O O11 0.275223 0.071747 0.512841
O O12 0.437796 0.090687 0.954733
O O13 0.825121 0.305808 0.926729
O O14 0.951970 0.420426 0.316114
O O15 0.609516 0.828907 0.248413
O O16 0.229349 0.306250 0.360709
#
# Coordination Sequence:
#
# PCOD9000485 Si02
#       8
#     1   1   1   1   1   1   1   1
#     4  11  27  46  75 108 143 196 240 294 372 426
#     4  11  27  49  71 110 147 188 243 302 356 444
#     4  12  26  47  74 106 146 194 239 299 366 427
#     4  11  25  49  73 105 149 190 249 303 355 442
#     4  12  26  47  72 107 150 187 243 299 360 440
#     4  11  25  48  72 108 143 197 241 301 369 425
#     4  10  25  46  73 104 148 187 249 301 356 443
#     4  10  27  46  74 106 146 193 244 301 368 429
#
# _framework density 24.94745
#
# number of rings (size 3 to 8) (size 9 to 14) (size 15 to 20)
#    0.000    1.000    1.250    3.000   15.750    2.000 
#    2.250    0.000    0.000    0.000    0.000    0.000 
#    0.000    0.000    0.000    0.000    0.000    0.000 
#
# Total GULP energy -44716.287154 kJ/mol
# GULP energy per Si atom -5589.535894 kJ/mol
# Density = 2.489067 g / cm^3
# Si number density = 24.947450 Si / 1000 Ang^3
#
#
#
# Elastic Constant Matrix: (Units=GPa)
#
#
# Indices 1 2 3 4 5 6 
#
# 1 87.0017 30.6508 25.3363 -11.9403 27.6459 -8.4400
# 2 30.6508 97.2176 35.5383 -9.7731 9.1354 -12.3759
# 3 25.3363 35.5383 140.7658 -5.7699 38.3696 -11.5962
# 4 -11.9403 -9.7731 -5.7699 34.9667 1.7919 -0.1222
# 5 27.6459 9.1354 38.3696 1.7919 30.0998 -12.8565
# 6 -8.4400 -12.3759 -11.5962 -0.1222 -12.8565 36.2672
#
#
#
# Elastic Compliance Matrix: (Units=1/GPa)
#
#
# Indices 1 2 3 4 5 6 
#
# 1 0.020999 -0.005722 0.004673 0.007658 -0.025997 -0.004762
# 2 -0.005722 0.013562 -0.004347 0.000687 0.008785 0.005023
# 3 0.004673 -0.004347 0.013038 0.003617 -0.021437 -0.003814
# 4 0.007658 0.000687 0.003617 0.032745 -0.014613 -0.001897
# 5 -0.025997 0.008785 -0.021437 -0.014613 0.092363 0.022787
# 6 -0.004762 0.005023 -0.003814 -0.001897 0.022787 0.035031
#
#
# Mechanical properties :
#
#
# Convention : Reuss Voigt Hill
#
# Bulk Modulus (GPa) = 27.16902 56.44844 41.80873
# Shear Modulus (GPa) = 21.66393 35.83071 28.74732
#
# Velocity S-wave (km/s) = 2.95003 3.79390 3.39826
# Velocity P-wave (km/s) = 4.74528 6.47052 5.67386
#
# Compressibility (1/GPa) = 0.03680663
#
# Stress axis : x y z
#
# Youngs Moduli (GPa) = 47.62126 73.73435 76.70150
#
# Poissons Ratio (x) = 0.42192 -0.35841
# Poissons Ratio (y) = 0.27250 0.33340
# Poissons Ratio (z) = -0.22253 0.32050
#
# Static dielectric constant tensor:
#      x y z
#    x 1.992960 0.006130 -0.070260 
#    y 0.006130 1.999600 -0.017620 
#    z -0.070260 -0.017620 2.058200 
# 
# From -- ./inp_files/2808.got.cif
#   From: 2010.05.17/outbox.cif.g08.bks.cpg/sg1_2_cif.got.tgz:2808.got - 2010.05.17 20:27:59.
