data_PCOD9000882
_publ_section_title
;
Structure prediction by ZEFSAII (Michael W. Deem and Ramdas Pophale) SiO2 
 PCOD9000882
Probable space group: P 1
;
_chemical_formula_sum "Si O2"
_cell_formula_units_Z 8
_cell_length_a 12.876522
_cell_length_b 5.127407
_cell_length_c 11.840995
_cell_angle_alpha 107.991828
_cell_angle_beta 147.055776
_cell_angle_gamma 67.342569
_cell_volume 392.176895
_symmetry_space_group_name_H-M "P 1"
_symmetry_group_IT_number 1
_symmetry_cell_setting 'triclinic'
loop_
_space_group_symop_operation_xyz
x,y,z
loop_
_atom_site_type_symbol
_atom_site_label
_atom_site_fract_x
_atom_site_fract_y
_atom_site_fract_z
Si Si1 0.019370 0.764500 0.050220
Si Si2 0.534578 0.762183 0.905357
Si Si3 0.363061 0.790870 0.534531
Si Si4 0.714748 0.420108 0.678097
Si Si5 0.715986 0.794228 0.517774
Si Si6 0.155086 0.618281 0.909693
Si Si7 0.651351 0.124307 0.877553
Si Si8 0.399731 0.975790 0.056819
O O1 0.178939 0.760939 0.291443
O O2 0.834482 0.021123 0.947841
O O3 0.121965 0.765565 0.022727
O O4 0.916206 0.500345 0.911334
O O5 0.671169 0.914923 0.975842
O O6 0.628463 0.431038 0.947594
O O7 0.344097 0.795519 0.653153
O O8 0.480104 0.894766 0.994265
O O9 0.547517 0.534378 0.633381
O O10 0.453425 0.064280 0.631446
O O11 0.646061 0.617548 0.530713
O O12 0.734554 0.098239 0.621323
O O13 0.936293 0.611840 0.668861
O O14 0.572253 0.867533 0.290918
O O15 0.240077 0.805696 0.924667
O O16 0.298823 0.309276 0.014030
#
# Coordination Sequence:
#
# PCOD9000882 Si02
#       8
#     1   1   1   1   1   1   1   1
#     4  10  20  41  64  96 121 155 200 264 315 359
#     4  10  23  44  60  87 127 165 207 247 295 374
#     4   9  21  38  62  93 118 166 195 253 315 357
#     4  10  22  37  64  93 130 149 208 257 310 381
#     4  11  23  42  63  94 124 169 200 262 317 357
#     4  11  25  40  65  99 122 161 215 258 307 383
#     4   9  22  41  58  91 124 155 206 253 296 370
#     4  12  24  45  64  89 132 170 207 254 309 369
#
# _framework density 20.398955999999998
#
# number of rings (size 3 to 8) (size 9 to 14) (size 15 to 20)
#    0.750    1.000    0.000    4.500    5.250    1.000 
#   13.500    0.000    0.000    0.000    0.000    0.000 
#    0.000    0.000    0.000    0.000    0.000    0.000 
#
# Total GULP energy -44635.141788 kJ/mol
# GULP energy per Si atom -5579.392724 kJ/mol
# Density = 2.035253 g / cm^3
# Si number density = 20.398956 Si / 1000 Ang^3
#
#
#
# Elastic Constant Matrix: (Units=GPa)
#
#
# Indices 1 2 3 4 5 6 
#
# 1 99.7140 41.9015 31.5723 1.5729 -20.7748 -13.9808
# 2 41.9015 119.7471 21.5863 -12.1146 -15.5783 -4.4659
# 3 31.5723 21.5863 93.2084 -2.8073 -7.3130 -17.0661
# 4 1.5729 -12.1146 -2.8073 11.3243 0.4369 -2.8632
# 5 -20.7748 -15.5783 -7.3130 0.4369 25.4883 2.0344
# 6 -13.9808 -4.4659 -17.0661 -2.8632 2.0344 34.1026
#
#
#
# Elastic Compliance Matrix: (Units=1/GPa)
#
#
# Indices 1 2 3 4 5 6 
#
# 1 0.015129 -0.004180 -0.003132 -0.006934 0.008759 0.002983
# 2 -0.004180 0.011666 -0.000561 0.012900 0.003307 0.000419
# 3 -0.003132 -0.000561 0.013098 0.004472 0.000342 0.005552
# 4 -0.006934 0.012900 0.004472 0.106668 0.000890 0.009987
# 5 0.008759 0.003307 0.000342 0.000890 0.048367 0.001385
# 6 0.002983 0.000419 0.005552 0.009987 0.001385 0.034135
#
#
# Mechanical properties :
#
#
# Convention : Reuss Voigt Hill
#
# Bulk Modulus (GPa) = 41.41449 55.86551 48.64000
# Shear Modulus (GPa) = 19.77393 28.69034 24.23214
#
# Velocity S-wave (km/s) = 3.11683 3.75435 3.45035
# Velocity P-wave (km/s) = 5.77055 6.79996 6.30629
#
# Compressibility (1/GPa) = 0.02414614
#
# Stress axis : x y z
#
# Youngs Moduli (GPa) = 66.09639 85.72133 76.34971
#
# Poissons Ratio (x) = 0.35833 0.23914
# Poissons Ratio (y) = 0.27629 0.04283
# Poissons Ratio (z) = 0.20702 0.04809
#
# Static dielectric constant tensor:
#      x y z
#    x 1.725920 0.037600 -0.011910 
#    y 0.037600 1.738830 -0.020260 
#    z -0.011910 -0.020260 1.764480 
# 
# From -- ./inp_files/6787.got.cif
#   From: 2010.05.17/outbox.cif.g08.bks.cpg/sg1_4_cif.got.tgz:6787.got - 2010.05.17 20:27:59.
