data_PCOD9000709
_publ_section_title
;
Structure prediction by ZEFSAII (Michael W. Deem and Ramdas Pophale) SiO2 
 PCOD9000709
Probable space group: P 1
;
_chemical_formula_sum "Si O2"
_cell_formula_units_Z 8
_cell_length_a 16.702172
_cell_length_b 5.156242
_cell_length_c 7.246108
_cell_angle_alpha 60.525423
_cell_angle_beta 146.086564
_cell_angle_gamma 106.475316
_cell_volume 292.948398
_symmetry_space_group_name_H-M "P 1"
_symmetry_group_IT_number 1
_symmetry_cell_setting 'triclinic'
loop_
_space_group_symop_operation_xyz
x,y,z
loop_
_atom_site_type_symbol
_atom_site_label
_atom_site_fract_x
_atom_site_fract_y
_atom_site_fract_z
Si Si1 0.858760 0.657030 0.682360
Si Si2 0.607823 0.422851 0.339496
Si Si3 0.109394 0.861302 0.009081
Si Si4 0.080554 0.975291 0.347143
Si Si5 0.550945 0.560519 0.592340
Si Si6 0.820299 0.776454 0.998313
Si Si7 0.318865 0.286765 0.736672
Si Si8 0.359387 0.148543 0.247536
O O1 0.704957 0.596268 0.343944
O O2 0.819683 0.783990 0.769598
O O3 0.943142 0.844395 0.645721
O O4 0.974234 0.322341 0.049899
O O5 0.545486 0.613896 0.338100
O O6 0.717926 0.111147 0.739022
O O7 0.485730 0.315352 0.024163
O O8 0.220119 0.522515 0.322317
O O9 0.084068 0.916280 0.158386
O O10 0.211084 0.076462 0.065039
O O11 0.243658 0.002931 0.699197
O O12 0.994226 0.760950 0.368282
O O13 0.727528 0.537321 0.971204
O O14 0.465282 0.288345 0.533638
O O15 0.462085 0.846297 0.446746
O O16 0.299366 0.381208 0.882399
#
# Coordination Sequence:
#
# PCOD9000709 Si02
#       8
#     1   1   1   1   1   1   1   1
#     4   8  17  32  56  82 116 156 198 238 295 347
#     4   9  17  32  60  89 115 152 203 240 291 356
#     4  10  22  38  57  87 121 159 194 248 293 357
#     4   9  19  33  57  89 118 154 200 242 296 350
#     4  10  19  35  57  91 114 157 197 240 290 351
#     4   9  15  33  56  88 115 153 200 242 288 355
#     4  10  21  36  59  93 116 156 196 250 294 352
#     4  11  24  37  62  89 123 157 198 242 297 354
#
# _framework density 27.308564000000001
#
# number of rings (size 3 to 8) (size 9 to 14) (size 15 to 20)
#    0.000    2.500    2.500    0.000    7.000    0.000 
#    0.000    0.000    2.750    0.000   26.000    0.000 
#    0.000    0.000    0.000    0.000    0.000    0.000 
#
# Total GULP energy -44569.682824 kJ/mol
# GULP energy per Si atom -5571.210353 kJ/mol
# Density = 2.724641 g / cm^3
# Si number density = 27.308564 Si / 1000 Ang^3
#
#
#
# Elastic Constant Matrix: (Units=GPa)
#
#
# Indices 1 2 3 4 5 6 
#
# 1 130.9160 57.5395 36.0859 25.1369 36.4143 13.7800
# 2 57.5395 167.4044 63.1445 44.9938 46.7916 19.9400
# 3 36.0859 63.1445 89.5855 22.5984 45.4871 32.2294
# 4 25.1369 44.9938 22.5984 59.9498 23.6673 39.4382
# 5 36.4143 46.7916 45.4871 23.6673 50.8554 23.0227
# 6 13.7800 19.9400 32.2294 39.4382 23.0227 62.6720
#
#
#
# Elastic Compliance Matrix: (Units=1/GPa)
#
#
# Indices 1 2 3 4 5 6 
#
# 1 0.010089 -0.001507 -0.000401 -0.001919 -0.005324 0.001631
# 2 -0.001507 0.010954 -0.005863 -0.008338 -0.002625 0.006072
# 3 -0.000401 -0.005863 0.025233 0.008127 -0.016030 -0.010248
# 4 -0.001919 -0.008338 0.008127 0.037962 -0.005488 -0.022977
# 5 -0.005324 -0.002625 -0.016030 -0.005488 0.043876 -0.002415
# 6 0.001631 0.006072 -0.010248 -0.022977 -0.002415 0.034282
#
#
# Mechanical properties :
#
#
# Convention : Reuss Voigt Hill
#
# Bulk Modulus (GPa) = 32.53658 77.93842 55.23750
# Shear Modulus (GPa) = 26.56995 50.10449 38.33722
#
# Velocity S-wave (km/s) = 3.12260 4.28805 3.75087
# Velocity P-wave (km/s) = 4.99411 7.28823 6.24738
#
# Compressibility (1/GPa) = 0.03073464
#
# Stress axis : x y z
#
# Youngs Moduli (GPa) = 99.11745 91.28873 39.63111
#
# Poissons Ratio (x) = 0.13754 0.01591
# Poissons Ratio (y) = 0.14933 0.23235
# Poissons Ratio (z) = 0.03978 0.53520
#
# Static dielectric constant tensor:
#      x y z
#    x 2.123040 0.067140 0.009840 
#    y 0.067140 2.301160 0.057380 
#    z 0.009840 0.057380 2.267450 
# 
# From -- ./inp_files/980.got.cif
#   From: 2010.05.17/outbox.cif.g08.bks.cpg/sg1_1_cif.got.tgz:980.got - 2010.05.17 20:27:59.
