data_PCOD9000408
_publ_section_title
;
Structure prediction by ZEFSAII (Michael W. Deem and Ramdas Pophale) SiO2 
 PCOD9000408
Probable space group: P 1
;
_chemical_formula_sum "Si O2"
_cell_formula_units_Z 8
_cell_length_a 8.648513
_cell_length_b 9.045531
_cell_length_c 4.932760
_cell_angle_alpha 85.642930
_cell_angle_beta 102.229025
_cell_angle_gamma 118.776391
_cell_volume 330.408823
_symmetry_space_group_name_H-M "P 1"
_symmetry_group_IT_number 1
_symmetry_cell_setting 'triclinic'
loop_
_space_group_symop_operation_xyz
x,y,z
loop_
_atom_site_type_symbol
_atom_site_label
_atom_site_fract_x
_atom_site_fract_y
_atom_site_fract_z
Si Si1 0.454520 0.006650 0.889840
Si Si2 0.445774 0.800529 0.388231
Si Si3 0.907266 0.539547 0.521686
Si Si4 0.221634 0.242650 0.403948
Si Si5 0.690030 0.654456 0.752705
Si Si6 0.474470 0.339918 0.982710
Si Si7 0.059489 0.898835 0.677068
Si Si8 0.071615 0.477167 0.115798
O O1 0.447122 0.927141 0.604326
O O2 0.245015 0.948078 0.891548
O O3 0.540200 0.207808 0.920011
O O4 0.527175 0.917991 0.138558
O O5 0.559224 0.713839 0.558838
O O6 0.252553 0.647397 0.246460
O O7 0.731022 0.527203 0.599763
O O8 0.020627 0.740470 0.496607
O O9 0.910525 0.456458 0.255433
O O10 0.014949 0.490267 0.789213
O O11 0.371799 0.266533 0.235665
O O12 0.114211 0.327321 0.215896
O O13 0.091068 0.054594 0.482285
O O14 0.328291 0.330328 0.706226
O O15 0.885540 0.820001 0.817783
O O16 0.609580 0.540743 0.004201
#
# Coordination Sequence:
#
# PCOD9000408 Si02
#       8
#     1   1   1   1   1   1   1   1
#     4  11  23  41  68  90 127 175 217 258 307 403
#     4  12  21  40  65  96 126 167 221 259 319 378
#     4  10  24  41  66  91 133 172 215 258 328 386
#     4  11  24  41  70  96 129 171 222 265 311 396
#     4  10  24  45  63 101 133 171 207 280 331 375
#     4  11  24  43  65 100 131 168 216 268 331 374
#     4   9  21  47  62  96 127 179 208 263 325 385
#     4  12  21  42  67  98 124 175 222 261 310 399
#
# _framework density 24.212426000000001
#
# number of rings (size 3 to 8) (size 9 to 14) (size 15 to 20)
#    0.750    0.500    3.750    2.250    1.750    2.000 
#    4.500    0.000    0.000    0.000    0.000    0.000 
#    0.000    0.000    0.000    0.000    0.000    0.000 
#
# Total GULP energy -44710.199715 kJ/mol
# GULP energy per Si atom -5588.774964 kJ/mol
# Density = 2.415732 g / cm^3
# Si number density = 24.212426 Si / 1000 Ang^3
#
#
#
# Elastic Constant Matrix: (Units=GPa)
#
#
# Indices 1 2 3 4 5 6 
#
# 1 57.4560 37.1861 6.8651 -0.9894 18.9585 0.0444
# 2 37.1861 159.7834 42.8693 -44.7348 8.8579 -1.7149
# 3 6.8651 42.8693 101.3429 -17.8448 9.6126 14.2098
# 4 -0.9894 -44.7348 -17.8448 32.4879 -3.0221 8.3730
# 5 18.9585 8.8579 9.6126 -3.0221 32.8526 -10.6932
# 6 0.0444 -1.7149 14.2098 8.3730 -10.6932 35.9017
#
#
#
# Elastic Compliance Matrix: (Units=1/GPa)
#
#
# Indices 1 2 3 4 5 6 
#
# 1 0.028841 -0.009758 0.002168 -0.012013 -0.016924 -0.003599
# 2 -0.009758 0.014145 -0.002091 0.018831 0.003571 -0.001812
# 3 0.002168 -0.002091 0.013679 0.006391 -0.007068 -0.009112
# 4 -0.012013 0.018831 0.006391 0.064134 0.000544 -0.016410
# 5 -0.016924 0.003571 -0.007068 0.000544 0.046832 0.016811
# 6 -0.003599 -0.001812 -0.009112 -0.016410 0.016811 0.040213
#
#
# Mechanical properties :
#
#
# Convention : Reuss Voigt Hill
#
# Bulk Modulus (GPa) = 26.80727 54.71370 40.76049
# Shear Modulus (GPa) = 20.86469 35.69258 28.27863
#
# Velocity S-wave (km/s) = 2.93872 3.84362 3.42122
# Velocity P-wave (km/s) = 4.75505 6.50725 5.69889
#
# Compressibility (1/GPa) = 0.03730331
#
# Stress axis : x y z
#
# Youngs Moduli (GPa) = 34.67296 70.69573 73.10685
#
# Poissons Ratio (x) = 0.68983 -0.15853
# Poissons Ratio (y) = 0.33833 0.15290
# Poissons Ratio (z) = -0.07519 0.14785
#
# Static dielectric constant tensor:
#      x y z
#    x 1.974560 0.046950 -0.020500 
#    y 0.046950 1.957940 0.024760 
#    z -0.020500 0.024760 1.908470 
# 
# From -- ./inp_files/1155.got.cif
#   From: 2010.05.17/outbox.cif.g08.bks.cpg/sg1_1_cif.got.tgz:1155.got - 2010.05.17 20:27:59.
