data_PCOD9000122
_publ_section_title
;
Structure prediction by ZEFSAII (Michael W. Deem and Ramdas Pophale) SiO2 
 PCOD9000122
Probable space group: P 1
;
_chemical_formula_sum "Si O2"
_cell_formula_units_Z 6
_cell_length_a 5.092664
_cell_length_b 7.523460
_cell_length_c 8.449879
_cell_angle_alpha 54.147114
_cell_angle_beta 116.719643
_cell_angle_gamma 101.195429
_cell_volume 233.315351
_symmetry_space_group_name_H-M "P 1"
_symmetry_group_IT_number 1
_symmetry_cell_setting 'triclinic'
loop_
_space_group_symop_operation_xyz
x,y,z
loop_
_atom_site_type_symbol
_atom_site_label
_atom_site_fract_x
_atom_site_fract_y
_atom_site_fract_z
Si Si1 0.804570 0.110820 0.430070
Si Si2 0.350666 0.731335 0.201316
Si Si3 0.813602 0.457375 0.666408
Si Si4 0.919428 0.446258 0.039678
Si Si5 0.310126 0.186800 0.776765
Si Si6 0.188576 0.971884 0.341663
O O1 0.050136 0.152496 0.601378
O O2 0.513326 0.018585 0.462706
O O3 0.972078 0.935458 0.445305
O O4 0.736066 0.335446 0.187978
O O5 0.648658 0.591913 0.408165
O O6 0.199822 0.802948 0.290725
O O7 0.143099 0.592854 0.111013
O O8 0.397639 0.960609 0.010282
O O9 0.790311 0.558046 0.786269
O O10 0.145999 0.373707 0.748559
O O11 0.596995 0.261319 0.730502
O O12 0.069316 0.217264 0.126476
#
# Coordination Sequence:
#
# PCOD9000122 Si02
#       6
#     1   1   1   1   1   1
#     4  10  21  46  73 101 150 185 231 311 350 414
#     4  12  26  49  78 110 139 206 237 291 382 423
#     4  12  27  50  73 109 152 186 245 307 351 437
#     4  10  24  49  71 109 142 192 242 297 356 438
#     4  12  25  50  75 108 152 187 243 309 352 435
#     4  10  23  46  70 107 147 180 246 299 347 437
#
# _framework density 25.716266000000001
#
# number of rings (size 3 to 8) (size 9 to 14) (size 15 to 20)
#    1.000    0.000    3.333    3.000    2.333    2.667 
#    6.000    0.000    0.000    0.000    0.000    0.000 
#    0.000    0.000    0.000    0.000    0.000    0.000 
#
# Total GULP energy -33554.206409 kJ/mol
# GULP energy per Si atom -5592.367735 kJ/mol
# Density = 2.565773 g / cm^3
# Si number density = 25.716266 Si / 1000 Ang^3
#
#
#
# Elastic Constant Matrix: (Units=GPa)
#
#
# Indices 1 2 3 4 5 6 
#
# 1 92.0609 5.0582 12.7234 -12.7173 -4.4455 22.9217
# 2 5.0582 93.2343 33.1502 22.6271 5.5125 12.3828
# 3 12.7234 33.1502 143.5481 -4.1068 -5.8612 19.7826
# 4 -12.7173 22.6271 -4.1068 60.4087 2.7283 5.6947
# 5 -4.4455 5.5125 -5.8612 2.7283 24.4720 4.4536
# 6 22.9217 12.3828 19.7826 5.6947 4.4536 38.1810
#
#
#
# Elastic Compliance Matrix: (Units=1/GPa)
#
#
# Indices 1 2 3 4 5 6 
#
# 1 0.013943 -0.000924 0.000564 0.004023 0.004147 -0.009447
# 2 -0.000924 0.013498 -0.003174 -0.005225 -0.003199 -0.001026
# 3 0.000564 -0.003174 0.008457 0.002144 0.003406 -0.004408
# 4 0.004023 -0.005225 0.002144 0.019919 0.001098 -0.004931
# 5 0.004147 -0.003199 0.003406 0.001098 0.044592 -0.008582
# 6 -0.009447 -0.001026 -0.004408 -0.004931 -0.008582 0.036216
#
#
# Mechanical properties :
#
#
# Convention : Reuss Voigt Hill
#
# Bulk Modulus (GPa) = 34.68546 47.85633 41.27089
# Shear Modulus (GPa) = 32.61517 43.13977 37.87747
#
# Velocity S-wave (km/s) = 3.56514 4.10021 3.84200
# Velocity P-wave (km/s) = 5.51942 6.40823 5.98036
#
# Compressibility (1/GPa) = 0.02883053
#
# Stress axis : x y z
#
# Youngs Moduli (GPa) = 71.71876 74.08641 118.24233
#
# Poissons Ratio (x) = 0.06844 -0.06666
# Poissons Ratio (y) = 0.06625 0.37529
# Poissons Ratio (z) = -0.04043 0.23514
#
# Static dielectric constant tensor:
#      x y z
#    x 1.993400 -0.049040 -0.012670 
#    y -0.049040 2.067020 -0.067180 
#    z -0.012670 -0.067180 2.116050 
# 
# From -- ./inp_files/964.got.cif
#   From: 2010.05.17/outbox.cif.g08.bks.cpg/sg1_1_cif.got.tgz:964.got - 2010.05.17 20:27:59.
