data_PCOD9000890
_publ_section_title
;
Structure prediction by ZEFSAII (Michael W. Deem and Ramdas Pophale) SiO2 
 PCOD9000890
Probable space group: P 1
;
_chemical_formula_sum "Si O2"
_cell_formula_units_Z 8
_cell_length_a 8.788194
_cell_length_b 7.126045
_cell_length_c 7.743221
_cell_angle_alpha 79.241721
_cell_angle_beta 70.769070
_cell_angle_gamma 125.997899
_cell_volume 321.270195
_symmetry_space_group_name_H-M "P 1"
_symmetry_group_IT_number 1
_symmetry_cell_setting 'triclinic'
loop_
_space_group_symop_operation_xyz
x,y,z
loop_
_atom_site_type_symbol
_atom_site_label
_atom_site_fract_x
_atom_site_fract_y
_atom_site_fract_z
Si Si1 0.609060 0.388350 0.815180
Si Si2 0.302420 0.651597 0.672344
Si Si3 0.963895 0.409624 0.549156
Si Si4 0.106336 0.504579 0.106470
Si Si5 0.419682 0.450087 0.183504
Si Si6 0.125287 0.078978 0.914700
Si Si7 0.731530 0.918131 0.262110
Si Si8 0.991216 0.977057 0.611451
O O1 0.739284 0.304355 0.737564
O O2 0.364850 0.192318 0.854123
O O3 0.797118 0.700797 0.633805
O O4 0.555165 0.413153 0.024183
O O5 0.190179 0.350717 0.793545
O O6 0.558007 0.815794 0.499330
O O7 0.171257 0.629350 0.561874
O O8 0.245213 0.710912 0.861613
O O9 0.028667 0.534590 0.310631
O O10 0.936362 0.157404 0.594498
O O11 0.271860 0.470037 0.115439
O O12 0.875625 0.233038 0.154260
O O13 0.570768 0.713289 0.201704
O O14 0.241338 0.181993 0.406233
O O15 0.012880 0.916112 0.808090
O O16 0.937705 0.936079 0.160892
#
# Coordination Sequence:
#
# PCOD9000890 Si02
#       8
#     1   1   1   1   1   1   1   1
#     4  12  24  44  67 101 145 170 226 292 328 410
#     4  10  20  41  68  96 133 176 228 271 336 400
#     4  10  24  46  69 106 137 174 235 276 342 409
#     4  10  22  41  67 102 132 182 224 276 343 399
#     4  11  21  38  69 101 135 181 232 271 341 410
#     4  10  21  37  65 100 127 179 225 265 344 397
#     4  11  19  37  68 100 130 176 231 274 327 414
#     4  10  23  44  69  94 135 190 217 279 343 389
#
# _framework density 24.901157999999999
#
# number of rings (size 3 to 8) (size 9 to 14) (size 15 to 20)
#    0.000    1.500    7.500    0.000    3.500    0.000 
#    4.500    6.250    0.000    0.000    0.000    0.000 
#    0.000    0.000    0.000    0.000    0.000    0.000 
#
# Total GULP energy -44647.679738 kJ/mol
# GULP energy per Si atom -5580.959967 kJ/mol
# Density = 2.484448 g / cm^3
# Si number density = 24.901158 Si / 1000 Ang^3
#
#
#
# Elastic Constant Matrix: (Units=GPa)
#
#
# Indices 1 2 3 4 5 6 
#
# 1 68.4072 45.5554 53.3925 2.7522 -29.8261 15.1057
# 2 45.5554 128.1846 62.1374 -1.4837 -4.4878 25.1434
# 3 53.3925 62.1374 197.3005 16.8584 -39.9693 16.3960
# 4 2.7522 -1.4837 16.8584 36.9791 6.1881 -9.0135
# 5 -29.8261 -4.4878 -39.9693 6.1881 30.2562 -6.5897
# 6 15.1057 25.1434 16.3960 -9.0135 -6.5897 37.1996
#
#
#
# Elastic Compliance Matrix: (Units=1/GPa)
#
#
# Indices 1 2 3 4 5 6 
#
# 1 0.045325 -0.015939 0.004797 -0.015830 0.050896 -0.004566
# 2 -0.015939 0.016458 -0.005905 0.007400 -0.023550 -0.004428
# 3 0.004797 -0.005905 0.010347 -0.008810 0.019045 -0.001278
# 4 -0.015830 0.007400 -0.008810 0.040218 -0.032339 0.009325
# 5 0.050896 -0.023550 0.019045 -0.032339 0.111226 -0.001277
# 6 -0.004566 -0.004428 -0.001278 0.009325 -0.001277 0.034325
#
#
# Mechanical properties :
#
#
# Convention : Reuss Voigt Hill
#
# Bulk Modulus (GPa) = 26.29113 79.56255 52.92684
# Shear Modulus (GPa) = 16.41107 36.40746 26.40927
#
# Velocity S-wave (km/s) = 2.56998 3.82786 3.26016
# Velocity P-wave (km/s) = 4.40312 7.18035 5.95588
#
# Compressibility (1/GPa) = 0.03803564
#
# Stress axis : x y z
#
# Youngs Moduli (GPa) = 22.06276 60.76122 96.64529
#
# Poissons Ratio (x) = 0.96848 -0.46358
# Poissons Ratio (y) = 0.35166 0.57069
# Poissons Ratio (z) = -0.10583 0.35879
#
# Static dielectric constant tensor:
#      x y z
#    x 2.025660 -0.005560 0.018590 
#    y -0.005560 2.016440 0.044990 
#    z 0.018590 0.044990 2.033850 
# 
# From -- ./inp_files/4243.got.cif
#   From: 2010.05.17/outbox.cif.g08.bks.cpg/sg1_3_cif.got.tgz:4243.got - 2010.05.17 20:27:59.
