data_PCOD9000934
_publ_section_title
;
Structure prediction by ZEFSAII (Michael W. Deem and Ramdas Pophale) SiO2 
 PCOD9000934
Probable space group: P 1
;
_chemical_formula_sum "Si O2"
_cell_formula_units_Z 8
_cell_length_a 5.295292
_cell_length_b 10.541490
_cell_length_c 8.865946
_cell_angle_alpha 118.824784
_cell_angle_beta 114.724016
_cell_angle_gamma 106.619724
_cell_volume 311.220032
_symmetry_space_group_name_H-M "P 1"
_symmetry_group_IT_number 1
_symmetry_cell_setting 'triclinic'
loop_
_space_group_symop_operation_xyz
x,y,z
loop_
_atom_site_type_symbol
_atom_site_label
_atom_site_fract_x
_atom_site_fract_y
_atom_site_fract_z
Si Si1 0.120390 0.574590 0.863770
Si Si2 0.490977 0.197368 0.510312
Si Si3 0.226389 0.810845 0.297074
Si Si4 0.438326 0.442032 0.445385
Si Si5 0.815324 0.603754 0.334091
Si Si6 0.437221 0.725652 0.744323
Si Si7 0.558120 0.235584 0.899265
Si Si8 0.864117 0.016471 0.797884
O O1 0.449847 0.705827 0.913284
O O2 0.919563 0.355624 0.693630
O O3 0.819191 0.567505 0.695424
O O4 0.155721 0.656570 0.080208
O O5 0.321436 0.250219 0.372921
O O6 0.434748 0.221917 0.686831
O O7 0.347042 0.991234 0.341392
O O8 0.562087 0.878773 0.522808
O O9 0.905391 0.736221 0.291361
O O10 0.503848 0.495597 0.317313
O O11 0.256855 0.518094 0.523362
O O12 0.149766 0.739705 0.605067
O O13 0.769889 0.439345 0.135099
O O14 0.791891 0.886783 0.844896
O O15 0.777218 0.155119 0.902812
O O16 0.231354 0.117613 0.863894
#
# Coordination Sequence:
#
# PCOD9000934 Si02
#       8
#     1   1   1   1   1   1   1   1
#     4   9  20  42  63  95 131 174 217 280 334 397
#     4   9  21  40  66  96 135 168 223 279 329 402
#     4  10  20  44  68  98 124 182 222 280 333 399
#     4   9  21  39  60  95 133 175 213 278 332 398
#     4  10  21  40  69  90 135 176 225 272 341 398
#     4  10  22  41  64  95 133 184 220 277 336 407
#     4  11  23  45  64 104 133 179 222 287 332 396
#     4  10  26  41  70  97 142 168 234 279 331 403
#
# _framework density 25.705283999999999
#
# number of rings (size 3 to 8) (size 9 to 14) (size 15 to 20)
#    0.750    1.500    1.250    0.000    8.750    3.000 
#    4.500    0.000    0.000    0.000    0.000    0.000 
#    0.000    0.000    0.000    0.000    0.000    0.000 
#
# Total GULP energy -44610.023370 kJ/mol
# GULP energy per Si atom -5576.252921 kJ/mol
# Density = 2.564678 g / cm^3
# Si number density = 25.705284 Si / 1000 Ang^3
#
#
#
# Elastic Constant Matrix: (Units=GPa)
#
#
# Indices 1 2 3 4 5 6 
#
# 1 71.8582 52.9501 13.7815 -5.4994 -8.5873 23.3691
# 2 52.9501 206.8786 27.7059 4.0092 3.0968 35.3050
# 3 13.7815 27.7059 81.5086 6.3591 0.5727 4.4142
# 4 -5.4994 4.0092 6.3591 31.9614 -1.7152 -10.1425
# 5 -8.5873 3.0968 0.5727 -1.7152 24.8555 -0.5607
# 6 23.3691 35.3050 4.4142 -10.1425 -0.5607 43.8372
#
#
#
# Elastic Compliance Matrix: (Units=1/GPa)
#
#
# Indices 1 2 3 4 5 6 
#
# 1 0.020601 -0.004004 -0.002016 0.002693 0.007695 -0.006833
# 2 -0.004004 0.006761 -0.001189 -0.002650 -0.002468 -0.003835
# 3 -0.002016 -0.001189 0.013245 -0.002884 -0.001052 0.000018
# 4 0.002693 -0.002650 -0.002884 0.035833 0.004010 0.009331
# 5 0.007695 -0.002468 -0.001052 0.004010 0.043487 -0.000525
# 6 -0.006833 -0.003835 0.000018 0.009331 -0.000525 0.031693
#
#
# Mechanical properties :
#
#
# Convention : Reuss Voigt Hill
#
# Bulk Modulus (GPa) = 38.18568 61.01339 49.59954
# Shear Modulus (GPa) = 28.60904 37.85134 33.23019
#
# Velocity S-wave (km/s) = 3.33973 3.84150 3.59937
# Velocity P-wave (km/s) = 5.45520 6.59268 6.05072
#
# Compressibility (1/GPa) = 0.02618783
#
# Stress axis : x y z
#
# Youngs Moduli (GPa) = 48.54069 147.91512 75.49913
#
# Poissons Ratio (x) = 0.59226 0.15223
# Poissons Ratio (y) = 0.19436 0.08979
# Poissons Ratio (z) = 0.09787 0.17591
#
# Static dielectric constant tensor:
#      x y z
#    x 2.182160 -0.033810 0.035290 
#    y -0.033810 2.063090 0.017340 
#    z 0.035290 0.017340 2.024960 
# 
# From -- ./inp_files/3229.got.cif
#   From: 2010.05.17/outbox.cif.g08.bks.cpg/sg1_2_cif.got.tgz:3229.got - 2010.05.17 20:27:59.
