data_PCOD9000434
_publ_section_title
;
Structure prediction by ZEFSAII (Michael W. Deem and Ramdas Pophale) SiO2 
 PCOD9000434
Probable space group: P 1
;
_chemical_formula_sum "Si O2"
_cell_formula_units_Z 8
_cell_length_a 5.045389
_cell_length_b 7.646050
_cell_length_c 9.094372
_cell_angle_alpha 107.782876
_cell_angle_beta 80.524549
_cell_angle_gamma 70.406566
_cell_volume 300.461443
_symmetry_space_group_name_H-M "P 1"
_symmetry_group_IT_number 1
_symmetry_cell_setting 'triclinic'
loop_
_space_group_symop_operation_xyz
x,y,z
loop_
_atom_site_type_symbol
_atom_site_label
_atom_site_fract_x
_atom_site_fract_y
_atom_site_fract_z
Si Si1 0.383880 0.829400 0.122230
Si Si2 0.832537 0.074994 0.828336
Si Si3 0.621135 0.872465 0.578932
Si Si4 0.118460 0.474565 0.392823
Si Si5 0.705864 0.006260 0.312611
Si Si6 0.703234 0.420665 0.170968
Si Si7 0.841788 0.288198 0.600509
Si Si8 0.345934 0.697936 0.778261
O O1 0.579774 0.624899 0.138995
O O2 0.490183 0.004163 0.200618
O O3 0.435939 0.787290 0.935304
O O4 0.041066 0.876237 0.195182
O O5 0.010197 0.852530 0.823788
O O6 0.582449 0.043908 0.745810
O O7 0.974577 0.152640 0.698572
O O8 0.778638 0.235556 0.003401
O O9 0.482084 0.732798 0.624014
O O10 0.964023 0.716125 0.490475
O O11 0.545064 0.931300 0.434868
O O12 0.961390 0.420341 0.253629
O O13 0.050196 0.380408 0.524823
O O14 0.450835 0.416428 0.301234
O O15 0.767714 0.166993 0.447393
O O16 0.523409 0.460250 0.722964
#
# Coordination Sequence:
#
# PCOD9000434 Si02
#       8
#     1   1   1   1   1   1   1   1
#     4  12  25  50  75 115 153 203 253 314 380 456
#     4  11  27  49  75 110 157 202 251 314 382 458
#     4  10  24  46  72 108 152 196 250 318 372 444
#     4  11  26  47  79 109 153 199 257 315 378 448
#     4  11  26  47  79 109 153 199 257 315 378 448
#     4  12  25  50  75 115 153 203 253 314 380 456
#     4  10  26  52  76 118 144 204 256 316 384 454
#     4  11  27  49  75 110 157 202 251 314 382 458
#
# _framework density 26.625712
#
# number of rings (size 3 to 8) (size 9 to 14) (size 15 to 20)
#    0.000    1.000    3.750    0.000   12.250    1.000 
#    4.500    0.000    0.000    0.000    0.000    0.000 
#    0.000    0.000    0.000    0.000    0.000    0.000 
#
# Total GULP energy -44711.759819 kJ/mol
# GULP energy per Si atom -5588.969977 kJ/mol
# Density = 2.656511 g / cm^3
# Si number density = 26.625712 Si / 1000 Ang^3
#
#
#
# Elastic Constant Matrix: (Units=GPa)
#
#
# Indices 1 2 3 4 5 6 
#
# 1 115.0935 10.2602 43.0152 -1.8905 13.4067 -17.5341
# 2 10.2602 71.9473 28.0572 -7.4709 0.9220 -12.5048
# 3 43.0152 28.0572 149.3715 14.0037 26.4492 -7.9315
# 4 -1.8905 -7.4709 14.0037 52.3496 6.5044 -0.2980
# 5 13.4067 0.9220 26.4492 6.5044 51.9668 -4.6030
# 6 -17.5341 -12.5048 -7.9315 -0.2980 -4.6030 31.2647
#
#
#
# Elastic Compliance Matrix: (Units=1/GPa)
#
#
# Indices 1 2 3 4 5 6 
#
# 1 0.010660 0.000695 -0.002869 0.001407 -0.001001 0.005395
# 2 0.000695 0.016604 -0.003544 0.003193 0.001496 0.006382
# 3 -0.002869 -0.003544 0.008991 -0.002579 -0.003565 -0.001295
# 4 0.001407 0.003193 -0.002579 0.020499 -0.001551 0.001379
# 5 -0.001001 0.001496 -0.003565 -0.001551 0.021688 0.002311
# 6 0.005395 0.006382 -0.001295 0.001379 0.002311 0.037588
#
#
# Mechanical properties :
#
#
# Convention : Reuss Voigt Hill
#
# Bulk Modulus (GPa) = 40.29152 55.45305 47.87229
# Shear Modulus (GPa) = 36.83546 44.12154 40.47850
#
# Velocity S-wave (km/s) = 3.72352 4.07517 3.90331
# Velocity P-wave (km/s) = 5.80099 6.55856 6.19138
#
# Compressibility (1/GPa) = 0.02481912
#
# Stress axis : x y z
#
# Youngs Moduli (GPa) = 93.80569 60.22735 111.22483
#
# Poissons Ratio (x) = -0.04186 0.31907
# Poissons Ratio (y) = -0.06519 0.39420
# Poissons Ratio (z) = 0.26910 0.21346
#
# Static dielectric constant tensor:
#      x y z
#    x 2.132240 -0.049920 -0.051360 
#    y -0.049920 2.410990 0.045240 
#    z -0.051360 0.045240 1.998370 
# 
# From -- ./inp_files/3746.got.cif
#   From: 2010.05.17/outbox.cif.g08.bks.cpg/sg1_2_cif.got.tgz:3746.got - 2010.05.17 20:27:59.
