data_PCOD9000439
_publ_section_title
;
Structure prediction by ZEFSAII (Michael W. Deem and Ramdas Pophale) SiO2 
 PCOD9000439
Probable space group: P 1
;
_chemical_formula_sum "Si O2"
_cell_formula_units_Z 8
_cell_length_a 9.116250
_cell_length_b 11.396597
_cell_length_c 5.088091
_cell_angle_alpha 96.942408
_cell_angle_beta 88.898322
_cell_angle_gamma 39.402918
_cell_volume 327.730112
_symmetry_space_group_name_H-M "P 1"
_symmetry_group_IT_number 1
_symmetry_cell_setting 'triclinic'
loop_
_space_group_symop_operation_xyz
x,y,z
loop_
_atom_site_type_symbol
_atom_site_label
_atom_site_fract_x
_atom_site_fract_y
_atom_site_fract_z
Si Si1 0.235780 0.142080 0.375000
Si Si2 0.645195 0.799954 0.577621
Si Si3 0.519881 0.654922 0.879976
Si Si4 0.579846 0.244766 0.167222
Si Si5 0.062435 0.801860 0.088983
Si Si6 0.380504 0.180114 0.855829
Si Si7 0.122509 0.598778 0.531631
Si Si8 0.731722 0.405490 0.291018
O O1 0.201503 0.248074 0.659295
O O2 0.998471 0.228565 0.327903
O O3 0.450526 0.920157 0.385864
O O4 0.306293 0.176574 0.137528
O O5 0.921951 0.627316 0.474806
O O6 0.606578 0.959970 0.712375
O O7 0.560583 0.758835 0.783187
O O8 0.259710 0.776897 0.009166
O O9 0.590551 0.528073 0.592916
O O10 0.682684 0.530911 0.096656
O O11 0.377567 0.380436 0.428712
O O12 0.660180 0.327183 0.145014
O O13 0.452962 0.266914 0.928169
O O14 0.805044 0.022994 0.163759
O O15 0.082970 0.687103 0.835430
O O16 0.109574 0.709229 0.339694
#
# Coordination Sequence:
#
# PCOD9000439 Si02
#       8
#     1   1   1   1   1   1   1   1
#     4  10  24  48  72 115 152 209 262 315 406 474
#     4  10  27  49  82 110 162 205 268 329 401 466
#     4  12  27  48  74 119 165 205 261 338 392 477
#     4  12  27  50  87 114 162 208 267 333 403 471
#     4  12  26  51  76 116 165 207 264 328 402 477
#     4  10  24  46  78 114 150 209 264 317 407 457
#     4  12  27  52  78 119 161 204 276 318 405 481
#     4  12  28  48  75 121 159 209 266 324 406 475
#
# _framework density 24.410330999999999
#
# number of rings (size 3 to 8) (size 9 to 14) (size 15 to 20)
#    0.750    0.000    3.750    1.500    5.250    5.000 
#    0.000    0.000    0.000    0.000    0.000    0.000 
#    0.000    0.000    0.000    0.000    0.000    0.000 
#
# Total GULP energy -44751.262209 kJ/mol
# GULP energy per Si atom -5593.907776 kJ/mol
# Density = 2.435477 g / cm^3
# Si number density = 24.410331 Si / 1000 Ang^3
#
#
#
# Elastic Constant Matrix: (Units=GPa)
#
#
# Indices 1 2 3 4 5 6 
#
# 1 133.5895 46.5559 19.8106 -12.5684 -5.9633 -19.8737
# 2 46.5559 125.8957 61.9067 9.6022 -20.5313 -7.4499
# 3 19.8106 61.9067 116.4012 -23.7742 -9.4821 4.6917
# 4 -12.5684 9.6022 -23.7742 43.2918 5.5891 -2.5779
# 5 -5.9633 -20.5313 -9.4821 5.5891 33.7718 15.2242
# 6 -19.8737 -7.4499 4.6917 -2.5779 15.2242 30.3303
#
#
#
# Elastic Compliance Matrix: (Units=1/GPa)
#
#
# Indices 1 2 3 4 5 6 
#
# 1 0.011085 -0.006062 0.001848 0.006989 -0.006601 0.009396
# 2 -0.006062 0.017480 -0.009765 -0.012718 0.011090 -0.004815
# 3 0.001848 -0.009765 0.015682 0.011555 -0.002499 -0.001377
# 4 0.006989 -0.012718 0.011555 0.036632 -0.013661 0.009639
# 5 -0.006601 0.011090 -0.002499 -0.013661 0.048877 -0.026909
# 6 0.009396 -0.004815 -0.001377 0.009639 -0.026909 0.052483
#
#
# Mechanical properties :
#
#
# Convention : Reuss Voigt Hill
#
# Bulk Modulus (GPa) = 61.38719 70.27029 65.82874
# Shear Modulus (GPa) = 23.18832 37.98631 30.58731
#
# Velocity S-wave (km/s) = 3.08545 3.94910 3.54368
# Velocity P-wave (km/s) = 6.15597 7.04581 6.61587
#
# Compressibility (1/GPa) = 0.01629004
#
# Stress axis : x y z
#
# Youngs Moduli (GPa) = 90.21483 57.20801 63.76824
#
# Poissons Ratio (x) = 0.34677 -0.11786
# Poissons Ratio (y) = 0.54684 0.62270
# Poissons Ratio (z) = -0.16675 0.55864
#
# Static dielectric constant tensor:
#      x y z
#    x 1.977760 0.010670 0.019680 
#    y 0.010670 2.000520 0.044860 
#    z 0.019680 0.044860 1.924740 
# 
# From -- ./inp_files/1728.got.cif
#   From: 2010.05.17/outbox.cif.g08.bks.cpg/sg1_1_cif.got.tgz:1728.got - 2010.05.17 20:27:59.
