data_PCOD9000559
_publ_section_title
;
Structure prediction by ZEFSAII (Michael W. Deem and Ramdas Pophale) SiO2 
 PCOD9000559
Probable space group: P 1
;
_chemical_formula_sum "Si O2"
_cell_formula_units_Z 8
_cell_length_a 4.880475
_cell_length_b 15.057209
_cell_length_c 6.112055
_cell_angle_alpha 133.556490
_cell_angle_beta 85.868972
_cell_angle_gamma 101.177698
_cell_volume 318.125680
_symmetry_space_group_name_H-M "P 1"
_symmetry_group_IT_number 1
_symmetry_cell_setting 'triclinic'
loop_
_space_group_symop_operation_xyz
x,y,z
loop_
_atom_site_type_symbol
_atom_site_label
_atom_site_fract_x
_atom_site_fract_y
_atom_site_fract_z
Si Si1 0.978790 0.224920 0.608770
Si Si2 0.157523 0.981379 0.274763
Si Si3 0.255912 0.378105 0.493007
Si Si4 0.550310 0.934866 0.792199
Si Si5 0.158921 0.471871 0.217580
Si Si6 0.678131 0.549724 0.087779
Si Si7 0.004363 0.810872 0.369125
Si Si8 0.510679 0.162208 0.895078
O O1 0.726316 0.206696 0.762309
O O2 0.032576 0.086171 0.327859
O O3 0.204294 0.332491 0.904684
O O4 0.992554 0.298346 0.505229
O O5 0.265034 0.068311 0.625468
O O6 0.981430 0.862351 0.210449
O O7 0.400242 0.943659 0.048579
O O8 0.489378 0.465086 0.773980
O O9 0.140630 0.460291 0.457491
O O10 0.407755 0.273899 0.207198
O O11 0.322799 0.846544 0.497675
O O12 0.827745 0.879214 0.664543
O O13 0.613527 0.071961 0.911967
O O14 0.428882 0.573662 0.303443
O O15 0.887968 0.493155 0.138105
O O16 0.868655 0.666794 0.158934
#
# Coordination Sequence:
#
# PCOD9000559 Si02
#       8
#     1   1   1   1   1   1   1   1
#     4  11  23  40  69 109 154 185 242 304 379 456
#     4  11  24  42  71 112 145 191 243 309 378 451
#     4  11  25  47  75 113 150 204 238 316 391 437
#     4  11  25  43  74 106 145 197 242 309 380 433
#     4  11  25  46  73 111 150 197 250 310 369 450
#     4  11  27  51  75 108 152 201 260 307 365 452
#     4  11  26  50  72 104 148 198 254 310 361 447
#     4  11  23  41  69 109 156 185 243 307 379 458
#
# _framework density 25.147292
#
# number of rings (size 3 to 8) (size 9 to 14) (size 15 to 20)
#    0.000    1.000    3.750    1.500    3.500    6.000 
#    0.000    7.500    0.000    0.000    0.000    0.000 
#    0.000    0.000    0.000    0.000    0.000    0.000 
#
# Total GULP energy -44733.757666 kJ/mol
# GULP energy per Si atom -5591.719708 kJ/mol
# Density = 2.509006 g / cm^3
# Si number density = 25.147292 Si / 1000 Ang^3
#
#
#
# Elastic Constant Matrix: (Units=GPa)
#
#
# Indices 1 2 3 4 5 6 
#
# 1 86.0317 57.1086 15.8894 -7.9275 8.4662 10.5483
# 2 57.1086 195.4599 42.4879 -20.1748 17.1412 18.8157
# 3 15.8894 42.4879 69.2832 -16.7433 -4.1949 1.9969
# 4 -7.9275 -20.1748 -16.7433 27.8749 9.2334 -1.2052
# 5 8.4662 17.1412 -4.1949 9.2334 46.0552 -5.6005
# 6 10.5483 18.8157 1.9969 -1.2052 -5.6005 46.4939
#
#
#
# Elastic Compliance Matrix: (Units=1/GPa)
#
#
# Indices 1 2 3 4 5 6 
#
# 1 0.014766 -0.003576 -0.000849 0.001691 -0.002052 -0.002070
# 2 -0.003576 0.007810 -0.003196 0.003803 -0.003613 -0.002549
# 3 -0.000849 -0.003196 0.018624 0.008170 0.001536 0.001083
# 4 0.001691 0.003803 0.008170 0.047488 -0.010787 -0.002342
# 5 -0.002052 -0.003613 0.001536 -0.010787 0.026315 0.004752
# 6 -0.002070 -0.002549 0.001083 -0.002342 0.004752 0.023474
#
#
# Mechanical properties :
#
#
# Convention : Reuss Voigt Hill
#
# Bulk Modulus (GPa) = 38.52332 64.63852 51.58092
# Shear Modulus (GPa) = 30.79332 39.77073 35.28203
#
# Velocity S-wave (km/s) = 3.50311 3.98114 3.74975
# Velocity P-wave (km/s) = 5.63158 6.84780 6.26925
#
# Compressibility (1/GPa) = 0.02595830
#
# Stress axis : x y z
#
# Youngs Moduli (GPa) = 67.72481 128.03508 53.69284
#
# Poissons Ratio (x) = 0.45783 0.04560
# Poissons Ratio (y) = 0.24217 0.17160
# Poissons Ratio (z) = 0.05752 0.40919
#
# Static dielectric constant tensor:
#      x y z
#    x 2.021120 -0.022180 0.034110 
#    y -0.022180 2.101200 -0.025990 
#    z 0.034110 -0.025990 2.023790 
# 
# From -- ./inp_files/706.got.cif
#   From: 2010.05.17/outbox.cif.g08.bks.cpg/sg1_1_cif.got.tgz:706.got - 2010.05.17 20:27:59.
