data_PCOD9000803
_publ_section_title
;
Structure prediction by ZEFSAII (Michael W. Deem and Ramdas Pophale) SiO2 
 PCOD9000803
Probable space group: P 1
;
_chemical_formula_sum "Si O2"
_cell_formula_units_Z 6
_cell_length_a 7.361341
_cell_length_b 5.472537
_cell_length_c 7.069694
_cell_angle_alpha 88.276011
_cell_angle_beta 59.953446
_cell_angle_gamma 107.928475
_cell_volume 228.617694
_symmetry_space_group_name_H-M "P 1"
_symmetry_group_IT_number 1
_symmetry_cell_setting 'triclinic'
loop_
_space_group_symop_operation_xyz
x,y,z
loop_
_atom_site_type_symbol
_atom_site_label
_atom_site_fract_x
_atom_site_fract_y
_atom_site_fract_z
Si Si1 0.547780 0.361720 0.733110
Si Si2 0.148033 0.220389 0.432378
Si Si3 0.230530 0.754170 0.482373
Si Si4 0.605667 0.222571 0.323515
Si Si5 0.437295 0.807812 0.952454
Si Si6 0.083791 0.331129 0.026788
O O1 0.677763 0.406628 0.466751
O O2 0.103044 0.444045 0.571752
O O3 0.570700 0.616908 0.836639
O O4 0.276687 0.258471 0.825485
O O5 0.422299 0.300969 0.303838
O O6 0.083138 0.230338 0.247675
O O7 0.073353 0.924610 0.554744
O O8 0.568076 0.110082 0.828024
O O9 0.348782 0.786373 0.212666
O O10 0.453314 0.924926 0.481729
O O11 0.827213 0.231996 0.102027
O O12 0.200314 0.649901 0.967634
#
# Coordination Sequence:
#
# PCOD9000803 Si02
#       6
#     1   1   1   1   1   1
#     4  10  20  35  57  86 112 141 189 232 269 330
#     4   9  19  36  53  83 114 143 181 230 274 329
#     4   9  17  35  58  76 115 148 175 231 279 318
#     4  10  22  35  63  86 107 148 192 227 275 329
#     4   9  18  38  58  76 118 151 172 232 285 318
#     4   9  20  39  61  77 116 151 183 222 288 324
#
# _framework density 26.244688
#
# number of rings (size 3 to 8) (size 9 to 14) (size 15 to 20)
#    2.000    0.667    1.667    0.000    2.333    1.333 
#    0.000    3.333    7.333    0.000    0.000    0.000 
#    0.000    0.000    0.000    0.000    0.000    0.000 
#
# Total GULP energy -33438.332962 kJ/mol
# GULP energy per Si atom -5573.055494 kJ/mol
# Density = 2.618495 g / cm^3
# Si number density = 26.244688 Si / 1000 Ang^3
#
#
#
# Elastic Constant Matrix: (Units=GPa)
#
#
# Indices 1 2 3 4 5 6 
#
# 1 80.8306 39.8685 26.9558 -19.8894 -8.1444 -13.2868
# 2 39.8685 155.3399 27.4531 15.8346 -5.4349 -48.0765
# 3 26.9558 27.4531 80.5846 -0.8815 -18.6739 1.6271
# 4 -19.8894 15.8346 -0.8815 32.6283 9.3836 -1.4943
# 5 -8.1444 -5.4349 -18.6739 9.3836 29.0816 -4.7754
# 6 -13.2868 -48.0765 1.6271 -1.4943 -4.7754 47.5693
#
#
#
# Elastic Compliance Matrix: (Units=1/GPa)
#
#
# Indices 1 2 3 4 5 6 
#
# 1 0.021171 -0.006414 -0.005758 0.017158 -0.004551 -0.000290
# 2 -0.006414 0.013437 -0.001550 -0.011474 0.005396 0.012023
# 3 -0.005758 -0.001550 0.017291 -0.005437 0.010481 -0.002885
# 4 0.017158 -0.011474 -0.005437 0.051562 -0.018595 -0.006865
# 5 -0.004551 0.005396 0.010481 -0.018595 0.048176 0.008076
# 6 -0.000290 0.012023 -0.002885 -0.006865 0.008076 0.033786
#
#
# Mechanical properties :
#
#
# Convention : Reuss Voigt Hill
#
# Bulk Modulus (GPa) = 40.89028 56.14556 48.51792
# Shear Modulus (GPa) = 22.62257 36.68768 29.65513
#
# Velocity S-wave (km/s) = 2.93915 3.74292 3.36512
# Velocity P-wave (km/s) = 5.20887 6.33394 5.79876
#
# Compressibility (1/GPa) = 0.02445569
#
# Stress axis : x y z
#
# Youngs Moduli (GPa) = 47.23445 74.42119 57.83385
#
# Poissons Ratio (x) = 0.47734 0.33299
# Poissons Ratio (y) = 0.30296 0.08964
# Poissons Ratio (z) = 0.27196 0.11535
#
# Static dielectric constant tensor:
#      x y z
#    x 2.090740 -0.016740 0.065910 
#    y -0.016740 2.174590 -0.021740 
#    z 0.065910 -0.021740 2.000360 
# 
# From -- ./inp_files/838.got.cif
#   From: 2010.05.17/outbox.cif.g08.bks.cpg/sg1_1_cif.got.tgz:838.got - 2010.05.17 20:27:59.
