data_PCOD9000139
_publ_section_title
;
Structure prediction by ZEFSAII (Michael W. Deem and Ramdas Pophale) SiO2 
 PCOD9000139
Probable space group: P 1
;
_chemical_formula_sum "Si O2"
_cell_formula_units_Z 8
_cell_length_a 13.151342
_cell_length_b 5.062904
_cell_length_c 10.522649
_cell_angle_alpha 89.346317
_cell_angle_beta 143.282209
_cell_angle_gamma 102.245034
_cell_volume 393.993319
_symmetry_space_group_name_H-M "P 1"
_symmetry_group_IT_number 1
_symmetry_cell_setting 'triclinic'
loop_
_space_group_symop_operation_xyz
x,y,z
loop_
_atom_site_type_symbol
_atom_site_label
_atom_site_fract_x
_atom_site_fract_y
_atom_site_fract_z
Si Si1 0.250000 0.559960 0.454670
Si Si2 0.624834 0.253281 0.179163
Si Si3 0.404073 0.135604 0.707782
Si Si4 0.447412 0.946173 0.237882
Si Si5 0.041089 0.715428 0.896423
Si Si6 0.556910 0.994550 0.619378
Si Si7 0.964721 0.167590 0.983823
Si Si8 0.758069 0.822439 0.421689
O O1 0.323225 0.383082 0.627118
O O2 0.403876 0.695348 0.500121
O O3 0.247030 0.838570 0.522051
O O4 0.078312 0.352228 0.212089
O O5 0.705039 0.585809 0.262309
O O6 0.482364 0.156486 0.153415
O O7 0.775850 0.117050 0.371461
O O8 0.521161 0.132233 0.947769
O O9 0.531453 0.177912 0.710759
O O10 0.508908 0.090362 0.434505
O O11 0.587468 0.784546 0.345494
O O12 0.239905 0.761233 0.043053
O O13 0.961843 0.401019 0.874391
O O14 0.916899 0.784332 0.664468
O O15 0.052219 0.946645 0.016387
O O16 0.759724 0.997296 0.817413
#
# Coordination Sequence:
#
# PCOD9000139 Si02
#       8
#     1   1   1   1   1   1   1   1
#     4  10  22  39  61  93 126 166 218 253 320 380
#     4  10  22  42  65  88 130 173 212 258 324 380
#     4  10  22  42  65  88 130 173 212 258 324 380
#     4  10  22  40  64  96 127 164 212 266 321 373
#     4  12  23  38  63  98 137 163 209 271 325 381
#     4  10  22  40  64  96 127 164 212 266 321 373
#     4  12  23  38  63  98 137 163 209 271 325 381
#     4  10  22  39  61  93 126 166 218 253 320 380
#
# _framework density 20.304912000000002
#
# number of rings (size 3 to 8) (size 9 to 14) (size 15 to 20)
#    1.500    0.000    2.500    3.750    3.500    1.000 
#    0.000    2.500    0.000    0.000    0.000    0.000 
#    0.000    0.000    0.000    0.000    0.000    0.000 
#
# Total GULP energy -44574.663971 kJ/mol
# GULP energy per Si atom -5571.832996 kJ/mol
# Density = 2.025870 g / cm^3
# Si number density = 20.304912 Si / 1000 Ang^3
#
#
#
# Elastic Constant Matrix: (Units=GPa)
#
#
# Indices 1 2 3 4 5 6 
#
# 1 36.2679 8.2711 25.8727 0.8272 -12.9891 -2.6651
# 2 8.2711 63.7458 -12.3688 -4.5207 -4.3896 -6.4978
# 3 25.8727 -12.3688 92.6942 -5.8896 -3.2256 -0.0970
# 4 0.8272 -4.5207 -5.8896 27.5689 1.9685 -12.8672
# 5 -12.9891 -4.3896 -3.2256 1.9685 41.8818 2.5500
# 6 -2.6651 -6.4978 -0.0970 -12.8672 2.5500 6.6569
#
#
#
# Elastic Compliance Matrix: (Units=1/GPa)
#
#
# Indices 1 2 3 4 5 6 
#
# 1 0.040821 -0.000684 -0.010031 0.017665 0.008151 0.046550
# 2 -0.000684 -0.005002 -0.004891 -0.073301 0.011546 -0.151333
# 3 -0.010031 -0.004891 0.011163 -0.028185 0.002461 -0.064048
# 4 0.017665 -0.073301 -0.028185 -0.224075 0.037350 -0.512309
# 5 0.008151 0.011546 0.002461 0.037350 0.021262 0.078618
# 6 0.046550 -0.151333 -0.064048 -0.512309 0.078618 -1.000152
#
#
# Mechanical properties :
#
#
# Convention : Reuss Voigt Hill
#
# Bulk Modulus (GPa) = 63.40010 26.25087 44.82549
# Shear Modulus (GPa) = -4.46622 26.61704 11.07541
#
# Velocity S-wave (km/s) = -1.48471 3.62452 2.33803
# Velocity P-wave (km/s) = 5.32472 5.52020 5.42334
#
# Compressibility (1/GPa) = 0.01577285
#
# Stress axis : x y z
#
# Youngs Moduli (GPa) = 24.49703 -199.92505 89.58112
#
# Poissons Ratio (x) = -0.13671 0.89854
# Poissons Ratio (y) = 0.01675 0.43810
# Poissons Ratio (z) = 0.24572 -0.97774
#
# Static dielectric constant tensor:
#      x y z
#    x 1.726270 0.001240 -0.001310 
#    y 0.001240 1.726870 0.003000 
#    z -0.001310 0.003000 1.721220 
# 
# From -- ./inp_files/2686.got.cif
#   From: 2010.05.17/outbox.cif.g08.bks.cpg/sg1_2_cif.got.tgz:2686.got - 2010.05.17 20:27:59.
