data_PCOD9000102
_publ_section_title
;
Structure prediction by ZEFSAII (Michael W. Deem and Ramdas Pophale) SiO2 
 PCOD9000102
Probable space group: P 1
;
_chemical_formula_sum "Si O2"
_cell_formula_units_Z 8
_cell_length_a 7.118929
_cell_length_b 8.539480
_cell_length_c 7.836544
_cell_angle_alpha 104.131549
_cell_angle_beta 101.517883
_cell_angle_gamma 121.628378
_cell_volume 361.055076
_symmetry_space_group_name_H-M "P 1"
_symmetry_group_IT_number 1
_symmetry_cell_setting 'triclinic'
loop_
_space_group_symop_operation_xyz
x,y,z
loop_
_atom_site_type_symbol
_atom_site_label
_atom_site_fract_x
_atom_site_fract_y
_atom_site_fract_z
Si Si1 0.823370 0.786530 0.902700
Si Si2 0.012812 0.629979 0.651884
Si Si3 0.930649 0.221623 0.647672
Si Si4 0.000143 0.163889 0.278553
Si Si5 0.438811 0.394103 0.946695
Si Si6 0.501831 0.386895 0.332516
Si Si7 0.607317 0.164532 0.075597
Si Si8 0.519939 0.887886 0.714090
O O1 0.666190 0.797346 0.732618
O O2 0.010209 0.763173 0.836860
O O3 0.628244 0.588749 0.922745
O O4 0.946780 0.983774 0.099052
O O5 0.988622 0.437818 0.673701
O O6 0.237654 0.742861 0.592886
O O7 0.768295 0.545618 0.486156
O O8 0.889355 0.106497 0.431471
O O9 0.167169 0.269670 0.797008
O O10 0.691928 0.082675 0.680205
O O11 0.285182 0.318921 0.397969
O O12 0.883896 0.261752 0.191765
O O13 0.448229 0.450835 0.162226
O O14 0.540198 0.263173 0.947287
O O15 0.497033 0.193145 0.229079
O O16 0.516752 0.951690 0.926536
#
# Coordination Sequence:
#
# PCOD9000102 Si02
#       8
#     1   1   1   1   1   1   1   1
#     4  11  24  44  70 104 139 176 233 289 333 411
#     4  12  25  47  70 101 140 182 232 280 342 407
#     4  12  24  46  73 100 139 188 225 279 349 408
#     4  11  23  46  69 102 139 178 231 284 342 409
#     4  10  21  44  69 104 133 185 224 279 346 405
#     4  10  23  42  71  98 136 180 228 276 341 410
#     4   9  21  44  68  97 138 184 218 282 350 395
#     4  11  25  43  70 100 142 179 229 285 339 405
#
# _framework density 22.157283
#
# number of rings (size 3 to 8) (size 9 to 14) (size 15 to 20)
#    0.750    0.500    2.500    3.750    1.750    1.000 
#    2.250    0.000    0.000    0.000    0.000    0.000 
#    0.000    0.000    0.000    0.000    0.000    0.000 
#
# Total GULP energy -44601.029438 kJ/mol
# GULP energy per Si atom -5575.128680 kJ/mol
# Density = 2.210685 g / cm^3
# Si number density = 22.157283 Si / 1000 Ang^3
#
#
#
# Elastic Constant Matrix: (Units=GPa)
#
#
# Indices 1 2 3 4 5 6 
#
# 1 169.5660 63.5324 51.8460 5.8081 11.1187 23.3875
# 2 63.5324 59.4437 11.1324 -3.1532 10.7077 10.9888
# 3 51.8460 11.1324 91.6832 4.3307 8.6065 -3.6141
# 4 5.8081 -3.1532 4.3307 20.9274 1.6614 -3.0668
# 5 11.1187 10.7077 8.6065 1.6614 44.2352 4.4899
# 6 23.3875 10.9888 -3.6141 -3.0668 4.4899 40.8522
#
#
#
# Elastic Compliance Matrix: (Units=1/GPa)
#
#
# Indices 1 2 3 4 5 6 
#
# 1 0.013330 -0.012692 -0.006113 -0.005259 0.001650 -0.005334
# 2 -0.012692 0.031031 0.003553 0.007949 -0.005354 0.000418
# 3 -0.006113 0.003553 0.014328 0.000068 -0.002529 0.004095
# 4 -0.005259 0.007949 0.000068 0.051414 -0.003062 0.005075
# 5 0.001650 -0.005354 -0.002529 -0.003062 0.024362 -0.002636
# 6 -0.005334 0.000418 0.004095 0.005075 -0.002636 0.028453
#
#
# Mechanical properties :
#
#
# Convention : Reuss Voigt Hill
#
# Bulk Modulus (GPa) = 35.48113 63.74604 49.61359
# Shear Modulus (GPa) = 24.65274 34.14843 29.40058
#
# Velocity S-wave (km/s) = 3.33922 3.93005 3.64662
# Velocity P-wave (km/s) = 5.56015 7.03036 6.33803
#
# Compressibility (1/GPa) = 0.02818400
#
# Stress axis : x y z
#
# Youngs Moduli (GPa) = 75.02123 32.22624 69.79105
#
# Poissons Ratio (x) = 0.40900 0.42666
# Poissons Ratio (y) = 0.95214 -0.24795
# Poissons Ratio (z) = 0.45864 -0.11449
#
# Static dielectric constant tensor:
#      x y z
#    x 1.831280 -0.014630 0.008780 
#    y -0.014630 1.816260 0.045710 
#    z 0.008780 0.045710 1.901430 
# 
# From -- ./inp_files/3070.got.cif
#   From: 2010.05.17/outbox.cif.g08.bks.cpg/sg1_2_cif.got.tgz:3070.got - 2010.05.17 20:27:59.
