data_PCOD9000341
_publ_section_title
;
Structure prediction by ZEFSAII (Michael W. Deem and Ramdas Pophale) SiO2 
 PCOD9000341
Probable space group: P 1
;
_chemical_formula_sum "Si O2"
_cell_formula_units_Z 8
_cell_length_a 4.997988
_cell_length_b 13.215063
_cell_length_c 10.748807
_cell_angle_alpha 31.607272
_cell_angle_beta 69.731682
_cell_angle_gamma 69.421218
_cell_volume 346.729430
_symmetry_space_group_name_H-M "P 1"
_symmetry_group_IT_number 1
_symmetry_cell_setting 'triclinic'
loop_
_space_group_symop_operation_xyz
x,y,z
loop_
_atom_site_type_symbol
_atom_site_label
_atom_site_fract_x
_atom_site_fract_y
_atom_site_fract_z
Si Si1 0.664290 0.432540 0.399640
Si Si2 0.973537 0.151219 0.457914
Si Si3 0.496265 0.657998 0.749469
Si Si4 0.118881 0.649237 0.194260
Si Si5 0.909466 0.304645 0.040238
Si Si6 0.250012 0.554986 0.539351
Si Si7 0.054794 0.852832 0.431453
Si Si8 0.481570 0.896802 0.739889
O O1 0.856801 0.256128 0.492857
O O2 0.381751 0.477549 0.314151
O O3 0.528375 0.434177 0.557956
O O4 0.856309 0.611370 0.189802
O O5 0.769921 0.981854 0.642627
O O6 0.951955 0.293165 0.194234
O O7 0.299522 0.064088 0.514606
O O8 0.599009 0.432634 0.940397
O O9 0.508139 0.712979 0.835232
O O10 0.201439 0.750951 0.638120
O O11 0.753318 0.772459 0.535856
O O12 0.057444 0.619161 0.381296
O O13 0.268555 0.840707 0.941551
O O14 0.116838 0.422460 0.800547
O O15 0.978065 0.081840 0.219110
O O16 0.276391 0.760123 0.387843
#
# Coordination Sequence:
#
# PCOD9000341 Si02
#       8
#     1   1   1   1   1   1   1   1
#     4  10  23  46  65 100 136 184 236 280 351 419
#     4  12  25  42  72 110 135 182 243 290 358 417
#     4  11  24  43  69 104 142 182 225 294 356 409
#     4  10  23  44  67  95 135 192 230 277 355 411
#     4  11  24  46  74 106 141 184 230 300 350 428
#     4   9  26  44  71  99 143 187 229 286 356 418
#     4  11  24  45  67 107 140 179 240 277 355 429
#     4  12  23  44  69 103 146 180 235 300 347 421
#
# _framework density 23.072744
#
# number of rings (size 3 to 8) (size 9 to 14) (size 15 to 20)
#    0.750    0.500    2.500    2.250    3.500    7.000 
#    0.000    0.000    0.000    0.000    0.000    0.000 
#    0.000    0.000    0.000    0.000    0.000    0.000 
#
# Total GULP energy -44587.891286 kJ/mol
# GULP energy per Si atom -5573.486411 kJ/mol
# Density = 2.302023 g / cm^3
# Si number density = 23.072744 Si / 1000 Ang^3
#
#
#
# Elastic Constant Matrix: (Units=GPa)
#
#
# Indices 1 2 3 4 5 6 
#
# 1 81.2688 20.1159 22.1863 -5.3903 -6.6878 1.9530
# 2 20.1159 168.8952 47.8072 -13.8763 2.0639 -2.9180
# 3 22.1863 47.8072 107.1347 -8.4432 0.6093 -7.6311
# 4 -5.3903 -13.8763 -8.4432 38.9812 -12.4239 3.5511
# 5 -6.6878 2.0639 0.6093 -12.4239 21.0680 -1.6268
# 6 1.9530 -2.9180 -7.6311 3.5511 -1.6268 26.6574
#
#
#
# Elastic Compliance Matrix: (Units=1/GPa)
#
#
# Indices 1 2 3 4 5 6 
#
# 1 0.013962 -0.000811 -0.002437 0.003323 0.006398 -0.001861
# 2 -0.000811 0.006957 -0.002808 0.001844 0.000213 -0.000216
# 3 -0.002437 -0.002808 0.011371 0.000816 -0.000114 0.003011
# 4 0.003323 0.001844 0.000816 0.033766 0.020527 -0.003054
# 5 0.006398 0.000213 -0.000114 0.020527 0.061626 0.000548
# 6 -0.001861 -0.000216 0.003011 -0.003054 0.000548 0.038928
#
#
# Mechanical properties :
#
#
# Convention : Reuss Voigt Hill
#
# Bulk Modulus (GPa) = 49.55377 59.72417 54.63897
# Shear Modulus (GPa) = 26.96167 35.15394 31.05780
#
# Velocity S-wave (km/s) = 3.42212 3.90758 3.67288
# Velocity P-wave (km/s) = 6.09412 6.80443 6.45905
#
# Compressibility (1/GPa) = 0.02018010
#
# Stress axis : x y z
#
# Youngs Moduli (GPa) = 71.62103 143.73257 87.94211
#
# Poissons Ratio (x) = 0.11650 0.21430
# Poissons Ratio (y) = 0.05805 0.24694
# Poissons Ratio (z) = 0.17453 0.40360
#
# Static dielectric constant tensor:
#      x y z
#    x 1.846940 -0.002390 -0.006340 
#    y -0.002390 1.930550 0.022270 
#    z -0.006340 0.022270 1.881190 
# 
# From -- ./inp_files/1989.got.cif
#   From: 2010.05.17/outbox.cif.g08.bks.cpg/sg1_1_cif.got.tgz:1989.got - 2010.05.17 20:27:59.
