data_PCOD9000666
_publ_section_title
;
Structure prediction by ZEFSAII (Michael W. Deem and Ramdas Pophale) SiO2 
 PCOD9000666
Probable space group: P 1
;
_chemical_formula_sum "Si O2"
_cell_formula_units_Z 6
_cell_length_a 9.642376
_cell_length_b 7.392019
_cell_length_c 4.746251
_cell_angle_alpha 69.848725
_cell_angle_beta 116.168941
_cell_angle_gamma 132.958564
_cell_volume 221.705496
_symmetry_space_group_name_H-M "P 1"
_symmetry_group_IT_number 1
_symmetry_cell_setting 'triclinic'
loop_
_space_group_symop_operation_xyz
x,y,z
loop_
_atom_site_type_symbol
_atom_site_label
_atom_site_fract_x
_atom_site_fract_y
_atom_site_fract_z
Si Si1 0.138220 0.707070 0.663790
Si Si2 0.744001 0.476549 0.087774
Si Si3 0.307048 0.616873 0.340328
Si Si4 0.914609 0.990725 0.863218
Si Si5 0.722312 0.039615 0.187083
Si Si6 0.308471 0.211979 0.871022
O O1 0.271213 0.731997 0.510320
O O2 0.923868 0.588758 0.407184
O O3 0.232601 0.968230 0.757763
O O4 0.142945 0.546173 0.997274
O O5 0.717694 0.261334 0.003526
O O6 0.807908 0.707911 0.833042
O O7 0.309795 0.405009 0.578834
O O8 0.885510 0.126438 0.525800
O O9 0.513782 0.818234 0.257884
O O10 0.145796 0.121635 0.015870
O O11 0.792010 0.965178 0.033186
O O12 0.530523 0.349650 0.101745
#
# Coordination Sequence:
#
# PCOD9000666 Si02
#       6
#     1   1   1   1   1   1
#     4  12  29  54  82 131 165 218 281 340 421 492
#     4  12  29  53  88 123 167 218 280 344 414 492
#     4  12  28  56  87 122 170 224 272 347 421 492
#     4  12  29  54  80 127 163 220 275 338 418 494
#     4  12  28  55  84 119 170 219 272 339 421 489
#     4  12  29  56  89 122 169 219 282 348 411 497
#
# _framework density 27.062930999999999
#
# number of rings (size 3 to 8) (size 9 to 14) (size 15 to 20)
#    0.000    0.000    3.333    4.000    0.000   14.667 
#    0.000    0.000    0.000    0.000    0.000    0.000 
#    0.000    0.000    0.000    0.000    0.000    0.000 
#
# Total GULP energy -33722.531269 kJ/mol
# GULP energy per Si atom -5620.421878 kJ/mol
# Density = 2.700134 g / cm^3
# Si number density = 27.062931 Si / 1000 Ang^3
#
#
#
# Elastic Constant Matrix: (Units=GPa)
#
#
# Indices 1 2 3 4 5 6 
#
# 1 236.9156 89.2680 51.3504 -2.1079 3.0475 8.6115
# 2 89.2680 155.6790 20.8567 -10.6996 14.0831 -8.0290
# 3 51.3504 20.8567 107.1510 0.5143 11.2377 -10.7778
# 4 -2.1079 -10.6996 0.5143 40.8626 7.6204 9.8149
# 5 3.0475 14.0831 11.2377 7.6204 58.2755 11.2014
# 6 8.6115 -8.0290 -10.7778 9.8149 11.2014 53.5206
#
#
#
# Elastic Compliance Matrix: (Units=1/GPa)
#
#
# Indices 1 2 3 4 5 6 
#
# 1 0.006162 -0.003450 -0.002671 -0.000278 0.001507 -0.002311
# 2 -0.003450 0.008849 0.000423 0.002127 -0.002731 0.002149
# 3 -0.002671 0.000423 0.011157 -0.000478 -0.002704 0.003394
# 4 -0.000278 0.002127 -0.000478 0.026551 -0.003120 -0.003949
# 5 0.001507 -0.002731 -0.002704 -0.003120 0.019578 -0.004722
# 6 -0.002311 0.002149 0.003394 -0.003949 -0.004722 0.021775
#
#
# Mechanical properties :
#
#
# Convention : Reuss Voigt Hill
#
# Bulk Modulus (GPa) = 67.68847 91.41066 79.54957
# Shear Modulus (GPa) = 45.29330 53.08311 49.18821
#
# Velocity S-wave (km/s) = 4.09544 4.43365 4.26790
# Velocity P-wave (km/s) = 6.88689 7.74985 7.33108
#
# Compressibility (1/GPa) = 0.01477356
#
# Stress axis : x y z
#
# Youngs Moduli (GPa) = 162.28737 113.00463 89.62725
#
# Poissons Ratio (x) = 0.38988 0.23936
# Poissons Ratio (y) = 0.55992 -0.03795
# Poissons Ratio (z) = 0.43341 -0.04784
#
# Static dielectric constant tensor:
#      x y z
#    x 2.099010 -0.000530 0.020830 
#    y -0.000530 2.104020 0.024960 
#    z 0.020830 0.024960 2.077330 
# 
# From -- ./inp_files/872.got.cif
#   From: 2010.05.17/outbox.cif.g08.bks.cpg/sg1_1_cif.got.tgz:872.got - 2010.05.17 20:27:59.
