data_PCOD9000922
_publ_section_title
;
Structure prediction by ZEFSAII (Michael W. Deem and Ramdas Pophale) SiO2 
 PCOD9000922
Probable space group: P 1
;
_chemical_formula_sum "Si O2"
_cell_formula_units_Z 8
_cell_length_a 5.549081
_cell_length_b 11.105110
_cell_length_c 12.280303
_cell_angle_alpha 140.711787
_cell_angle_beta 42.559314
_cell_angle_gamma 115.852667
_cell_volume 307.822584
_symmetry_space_group_name_H-M "P 1"
_symmetry_group_IT_number 1
_symmetry_cell_setting 'triclinic'
loop_
_space_group_symop_operation_xyz
x,y,z
loop_
_atom_site_type_symbol
_atom_site_label
_atom_site_fract_x
_atom_site_fract_y
_atom_site_fract_z
Si Si1 0.431710 0.887440 0.170350
Si Si2 0.563573 0.692173 0.335422
Si Si3 0.226033 0.929101 0.895227
Si Si4 0.029693 0.176702 0.337597
Si Si5 0.169585 0.198282 0.907391
Si Si6 0.405160 0.540185 0.047268
Si Si7 0.426050 0.504166 0.456384
Si Si8 0.305493 0.103491 0.582832
O O1 0.590179 0.653775 0.980676
O O2 0.152103 0.974107 0.227414
O O3 0.245845 0.992222 0.416942
O O4 0.788050 0.952932 0.066524
O O5 0.502222 0.594988 0.173438
O O6 0.318015 0.623641 0.460530
O O7 0.975181 0.629792 0.209638
O O8 0.473331 0.921527 0.486590
O O9 0.420449 0.688102 0.668178
O O10 0.253423 0.084364 0.088002
O O11 0.309277 0.009637 0.808270
O O12 0.175545 0.357111 0.453714
O O13 0.577771 0.226346 0.532713
O O14 0.488182 0.303917 0.853764
O O15 0.843420 0.350346 0.195632
O O16 0.997130 0.216206 0.853469
#
# Coordination Sequence:
#
# PCOD9000922 Si02
#       8
#     1   1   1   1   1   1   1   1
#     4  10  22  45  65 101 140 186 236 296 362 438
#     4  10  20  43  66  99 139 184 234 300 354 426
#     4  11  24  46  71  98 145 182 239 305 361 433
#     4  11  23  46  69 101 137 189 237 292 366 442
#     4  11  23  46  69 107 134 186 239 303 365 429
#     4  10  22  40  69 100 140 182 241 294 359 432
#     4  11  24  45  70 106 138 187 244 291 372 438
#     4  10  22  43  69  96 143 180 238 301 359 426
#
# _framework density 25.988996
#
# number of rings (size 3 to 8) (size 9 to 14) (size 15 to 20)
#    0.000    1.500    3.750    0.750    1.750    0.000 
#   24.750    0.000    0.000    0.000    0.000    0.000 
#    0.000    0.000    0.000    0.000    0.000    0.000 
#
# Total GULP energy -44560.867469 kJ/mol
# GULP energy per Si atom -5570.108434 kJ/mol
# Density = 2.592984 g / cm^3
# Si number density = 25.988996 Si / 1000 Ang^3
#
#
#
# Elastic Constant Matrix: (Units=GPa)
#
#
# Indices 1 2 3 4 5 6 
#
# 1 53.8018 10.2097 6.9453 -10.4216 13.4113 -12.5246
# 2 10.2097 163.8068 4.9089 10.9135 15.7465 -6.6379
# 3 6.9453 4.9089 98.0284 -12.5177 21.4881 -3.6944
# 4 -10.4216 10.9135 -12.5177 34.3452 -8.5600 8.4969
# 5 13.4113 15.7465 21.4881 -8.5600 30.1936 1.1039
# 6 -12.5246 -6.6379 -3.6944 8.4969 1.1039 33.5930
#
#
#
# Elastic Compliance Matrix: (Units=1/GPa)
#
#
# Indices 1 2 3 4 5 6 
#
# 1 0.023739 -0.000336 0.001416 0.003015 -0.010835 0.008534
# 2 -0.000336 0.006961 0.000340 -0.004037 -0.004958 0.002472
# 3 0.001416 0.000340 0.012417 0.002157 -0.009095 0.001714
# 4 0.003015 -0.004037 0.002157 0.036842 0.010008 -0.009084
# 5 -0.010835 -0.004958 -0.009095 0.010008 0.050200 -0.010200
# 6 0.008534 0.002472 0.001714 -0.009084 -0.010200 0.036260
#
#
# Mechanical properties :
#
#
# Convention : Reuss Voigt Hill
#
# Bulk Modulus (GPa) = 21.75882 39.97387 30.86634
# Shear Modulus (GPa) = 27.94896 39.19792 33.57344
#
# Velocity S-wave (km/s) = 3.28291 3.88783 3.59811
# Velocity P-wave (km/s) = 4.77080 5.96390 5.40040
#
# Compressibility (1/GPa) = 0.04595837
#
# Stress axis : x y z
#
# Youngs Moduli (GPa) = 42.12507 143.65251 80.53264
#
# Poissons Ratio (x) = 0.04820 -0.11407
# Poissons Ratio (y) = 0.01414 -0.02735
# Poissons Ratio (z) = -0.05967 -0.04879
#
# Static dielectric constant tensor:
#      x y z
#    x 2.123250 0.079640 0.103630 
#    y 0.079640 2.155030 0.156450 
#    z 0.103630 0.156450 2.486440 
# 
# From -- ./inp_files/1732.got.cif
#   From: 2010.05.17/outbox.cif.g08.bks.cpg/sg1_1_cif.got.tgz:1732.got - 2010.05.17 20:27:59.
