data_PCOD9000089
_publ_section_title
;
Structure prediction by ZEFSAII (Michael W. Deem and Ramdas Pophale) SiO2 
 PCOD9000089
Probable space group: P 1
;
_chemical_formula_sum "Si O2"
_cell_formula_units_Z 8
_cell_length_a 8.921817
_cell_length_b 11.961094
_cell_length_c 7.551199
_cell_angle_alpha 142.431844
_cell_angle_beta 47.662682
_cell_angle_gamma 142.620300
_cell_volume 296.193305
_symmetry_space_group_name_H-M "P 1"
_symmetry_group_IT_number 1
_symmetry_cell_setting 'triclinic'
loop_
_space_group_symop_operation_xyz
x,y,z
loop_
_atom_site_type_symbol
_atom_site_label
_atom_site_fract_x
_atom_site_fract_y
_atom_site_fract_z
Si Si1 0.564530 0.530920 0.012430
Si Si2 0.100025 0.655398 0.762181
Si Si3 0.902501 0.928068 0.992992
Si Si4 0.192535 0.771089 0.425070
Si Si5 0.445535 0.566751 0.548160
Si Si6 0.623584 0.036678 0.164838
Si Si7 0.217048 0.115872 0.309271
Si Si8 0.049697 0.305581 0.939298
O O1 0.559431 0.571977 0.275331
O O2 0.675569 0.750660 0.076773
O O3 0.285910 0.356312 0.936952
O O4 0.802603 0.516129 0.792756
O O5 0.219517 0.727504 0.558617
O O6 0.186944 0.526570 0.640121
O O7 0.211126 0.895487 0.080610
O O8 0.857465 0.105458 0.185359
O O9 0.972823 0.803906 0.646242
O O10 0.137707 0.061440 0.100929
O O11 0.410813 0.979525 0.398961
O O12 0.139384 0.547859 0.098169
O O13 0.573467 0.806515 0.839636
O O14 0.429993 0.382318 0.458291
O O15 0.773841 0.217195 0.119520
O O16 0.022877 0.124782 0.596200
#
# Coordination Sequence:
#
# PCOD9000089 Si02
#       8
#     1   1   1   1   1   1   1   1
#     4  10  21  43  71  96 144 174 229 287 338 411
#     4  10  24  47  71  99 137 187 229 286 348 406
#     4  10  22  45  68  97 140 177 229 289 336 413
#     4  10  22  45  66  97 139 178 228 279 344 409
#     4  12  22  45  68 103 142 182 229 291 340 410
#     4  12  24  41  72  99 141 179 228 286 342 409
#     4  10  23  43  68  99 138 177 231 282 339 408
#     4  12  22  45  70 100 141 182 221 288 351 400
#
# _framework density 27.009388000000001
#
# number of rings (size 3 to 8) (size 9 to 14) (size 15 to 20)
#    0.000    1.500    3.750    2.250    0.000    2.000 
#   20.250    2.500    0.000    0.000    0.000    0.000 
#    0.000    0.000    0.000    0.000    0.000    0.000 
#
# Total GULP energy -44599.258846 kJ/mol
# GULP energy per Si atom -5574.907356 kJ/mol
# Density = 2.694791 g / cm^3
# Si number density = 27.009388 Si / 1000 Ang^3
#
#
#
# Elastic Constant Matrix: (Units=GPa)
#
#
# Indices 1 2 3 4 5 6 
#
# 1 56.0719 13.8483 22.1793 -6.8999 -19.9405 3.8443
# 2 13.8483 166.6421 45.6425 -21.9018 -5.2505 10.4871
# 3 22.1793 45.6425 142.8561 -13.1360 -15.7141 -3.4894
# 4 -6.8999 -21.9018 -13.1360 58.2710 -4.1004 2.1736
# 5 -19.9405 -5.2505 -15.7141 -4.1004 35.5920 -3.5738
# 6 3.8443 10.4871 -3.4894 2.1736 -3.5738 31.5652
#
#
#
# Elastic Compliance Matrix: (Units=1/GPa)
#
#
# Indices 1 2 3 4 5 6 
#
# 1 0.023672 -0.000540 -0.001878 0.003123 0.012542 -0.001706
# 2 -0.000540 0.007063 -0.002054 0.002215 -0.000182 -0.002681
# 3 -0.001878 -0.002054 0.008385 0.001006 0.002671 0.002071
# 4 0.003123 0.002215 0.001006 0.018976 0.004526 -0.001799
# 5 0.012542 -0.000182 0.002671 0.004526 0.037069 0.002714
# 6 -0.001706 -0.002681 0.002071 -0.001799 0.002714 0.033439
#
#
# Mechanical properties :
#
#
# Convention : Reuss Voigt Hill
#
# Bulk Modulus (GPa) = 33.13976 58.76782 45.95379
# Shear Modulus (GPa) = 33.87407 44.01233 38.94320
#
# Velocity S-wave (km/s) = 3.54525 4.04111 3.80128
# Velocity P-wave (km/s) = 5.39025 6.60149 6.02638
#
# Compressibility (1/GPa) = 0.03017523
#
# Stress axis : x y z
#
# Youngs Moduli (GPa) = 42.24440 141.59249 119.26216
#
# Poissons Ratio (x) = 0.07645 0.22393
# Poissons Ratio (y) = 0.02281 0.24502
# Poissons Ratio (z) = 0.07932 0.29090
#
# Static dielectric constant tensor:
#      x y z
#    x 2.358670 -0.033840 0.041710 
#    y -0.033840 2.147710 0.013630 
#    z 0.041710 0.013630 2.186150 
# 
# From -- ./inp_files/4348.got.cif
#   From: 2010.05.17/outbox.cif.g08.bks.cpg/sg1_3_cif.got.tgz:4348.got - 2010.05.17 20:27:59.
