data_PCOD9000795
_publ_section_title
;
Structure prediction by ZEFSAII (Michael W. Deem and Ramdas Pophale) SiO2 
 PCOD9000795
Probable space group: P 1
;
_chemical_formula_sum "Si O2"
_cell_formula_units_Z 8
_cell_length_a 14.458343
_cell_length_b 11.165647
_cell_length_c 8.648152
_cell_angle_alpha 140.135676
_cell_angle_beta 53.263715
_cell_angle_gamma 151.035093
_cell_volume 421.069133
_symmetry_space_group_name_H-M "P 1"
_symmetry_group_IT_number 1
_symmetry_cell_setting 'triclinic'
loop_
_space_group_symop_operation_xyz
x,y,z
loop_
_atom_site_type_symbol
_atom_site_label
_atom_site_fract_x
_atom_site_fract_y
_atom_site_fract_z
Si Si1 0.539010 0.868280 0.764500
Si Si2 0.853880 0.563310 0.274974
Si Si3 0.784621 0.908327 0.719146
Si Si4 0.247872 0.834846 0.669560
Si Si5 0.921401 0.371580 0.289189
Si Si6 0.042309 0.874898 0.075366
Si Si7 0.109209 0.371592 0.601395
Si Si8 0.662152 0.179866 0.630180
O O1 0.585446 0.742144 0.689761
O O2 0.309490 0.609499 0.732370
O O3 0.606842 0.965803 0.613162
O O4 0.665158 0.199166 0.044115
O O5 0.792839 0.695994 0.504393
O O6 0.929600 0.549982 0.333623
O O7 0.012624 0.777380 0.188563
O O8 0.934986 0.171549 0.696307
O O9 0.860103 0.105084 0.994410
O O10 0.135022 0.571643 0.654913
O O11 0.126590 0.638065 0.440078
O O12 0.468420 0.047172 0.655537
O O13 0.214881 0.001037 0.931103
O O14 0.751192 0.193192 0.406766
O O15 0.071566 0.133677 0.307758
O O16 0.837573 0.544011 0.874339
#
# Coordination Sequence:
#
# PCOD9000795 Si02
#       8
#     1   1   1   1   1   1   1   1
#     4   9  19  36  56  79 102 132 179 220 255 304
#     4   9  19  36  55  77 107 137 173 214 257 310
#     4  10  20  36  56  76 106 141 168 217 264 296
#     4  10  20  36  56  76 106 141 168 217 264 296
#     4  10  20  34  52  78 110 140 172 206 256 318
#     4   9  19  36  56  79 102 132 179 220 255 304
#     4  10  20  34  58  82 100 132 180 218 256 308
#     4   9  19  36  55  77 107 137 173 214 257 310
#
# _framework density 18.999255000000002
#
# number of rings (size 3 to 8) (size 9 to 14) (size 15 to 20)
#    0.000    2.500    0.000    3.000    0.000    8.000 
#    0.000    7.500    0.000    0.000    0.000    0.000 
#    0.000    0.000    0.000    0.000    0.000    0.000 
#
# Total GULP energy -44626.927315 kJ/mol
# GULP energy per Si atom -5578.365914 kJ/mol
# Density = 1.895601 g / cm^3
# Si number density = 18.999255 Si / 1000 Ang^3
#
#
#
# Elastic Constant Matrix: (Units=GPa)
#
#
# Indices 1 2 3 4 5 6 
#
# 1 80.9931 14.3128 43.1490 -10.6527 15.7766 13.0244
# 2 14.3128 24.9432 14.5102 -6.9144 3.7552 10.1712
# 3 43.1490 14.5102 81.4149 -26.9234 0.9198 7.1804
# 4 -10.6527 -6.9144 -26.9234 22.0123 -1.2735 -0.0112
# 5 15.7766 3.7552 0.9198 -1.2735 26.9842 2.8610
# 6 13.0244 10.1712 7.1804 -0.0112 2.8610 16.5286
#
#
#
# Elastic Compliance Matrix: (Units=1/GPa)
#
#
# Indices 1 2 3 4 5 6 
#
# 1 0.022253 -0.001622 -0.012426 -0.005618 -0.011659 -0.009125
# 2 -0.001622 0.061273 -0.001471 0.016471 -0.003013 -0.035256
# 3 -0.012426 -0.001471 0.029133 0.029632 0.008232 -0.003364
# 4 -0.005618 0.016471 0.029632 0.084468 0.006044 -0.019571
# 5 -0.011659 -0.003013 0.008232 0.006044 0.044321 -0.000202
# 6 -0.009125 -0.035256 -0.003364 -0.019571 -0.000202 0.090870
#
#
# Mechanical properties :
#
#
# Convention : Reuss Voigt Hill
#
# Bulk Modulus (GPa) = 12.25146 36.81058 24.53102
# Shear Modulus (GPa) = 12.80206 20.79695 16.79951
#
# Velocity S-wave (km/s) = 2.59862 3.31209 2.97681
# Velocity P-wave (km/s) = 3.93270 5.83467 4.97542
#
# Compressibility (1/GPa) = 0.08162292
#
# Stress axis : x y z
#
# Youngs Moduli (GPa) = 44.93851 16.32033 34.32481
#
# Poissons Ratio (x) = 0.02647 0.42652
# Poissons Ratio (y) = 0.07287 0.05048
# Poissons Ratio (z) = 0.55840 0.02400
#
# Static dielectric constant tensor:
#      x y z
#    x 1.664290 0.000100 0.004320 
#    y 0.000100 1.654570 -0.010120 
#    z 0.004320 -0.010120 1.660180 
# 
# From -- ./inp_files/4628.got.cif
#   From: 2010.05.17/outbox.cif.g08.bks.cpg/sg1_3_cif.got.tgz:4628.got - 2010.05.17 20:27:59.
