data_PCOD9000271
_publ_section_title
;
Structure prediction by ZEFSAII (Michael W. Deem and Ramdas Pophale) SiO2 
 PCOD9000271
Probable space group: P 1
;
_chemical_formula_sum "Si O2"
_cell_formula_units_Z 8
_cell_length_a 6.877064
_cell_length_b 8.033352
_cell_length_c 9.061158
_cell_angle_alpha 51.557389
_cell_angle_beta 71.911478
_cell_angle_gamma 73.867838
_cell_volume 370.275388
_symmetry_space_group_name_H-M "P 1"
_symmetry_group_IT_number 1
_symmetry_cell_setting 'triclinic'
loop_
_space_group_symop_operation_xyz
x,y,z
loop_
_atom_site_type_symbol
_atom_site_label
_atom_site_fract_x
_atom_site_fract_y
_atom_site_fract_z
Si Si1 0.456120 0.392800 0.950070
Si Si2 0.096517 0.478817 0.510902
Si Si3 0.763234 0.168644 0.784613
Si Si4 0.519433 0.211658 0.524646
Si Si5 0.047407 0.556501 0.821809
Si Si6 0.979513 0.881031 0.121157
Si Si7 0.268186 0.843666 0.809751
Si Si8 0.760086 0.237838 0.173410
O O1 0.631421 0.354297 0.807605
O O2 0.239879 0.384430 0.924000
O O3 0.421325 0.625907 0.901400
O O4 0.539852 0.230980 0.147006
O O5 0.341309 0.410712 0.472441
O O6 0.056705 0.571482 0.635041
O O7 0.974864 0.268674 0.645503
O O8 0.007135 0.647139 0.315056
O O9 0.627168 0.139918 0.691879
O O10 0.806782 0.962648 0.994081
O O11 0.703263 0.242937 0.353450
O O12 0.391479 0.020363 0.612451
O O13 0.091281 0.769397 0.782819
O O14 0.850507 0.453011 0.981929
O O15 0.918514 0.045668 0.178189
O O16 0.181237 0.900576 0.962290
#
# Coordination Sequence:
#
# PCOD9000271 Si02
#       8
#     1   1   1   1   1   1   1   1
#     4   9  21  43  68  96 135 180 225 283 340 400
#     4  12  24  49  71 101 142 185 231 288 348 409
#     4  11  24  46  71 101 142 183 231 289 341 416
#     4  12  25  45  70 105 140 185 233 280 350 415
#     4  10  22  45  71  97 141 176 228 290 340 403
#     4  11  25  45  68 104 139 179 232 284 347 405
#     4  10  23  44  68 101 139 182 222 292 342 407
#     4  11  24  43  71 101 140 182 232 284 342 419
#
# _framework density 21.605542
#
# number of rings (size 3 to 8) (size 9 to 14) (size 15 to 20)
#    0.750    0.500    5.000    0.750    3.500    2.000 
#    4.500    0.000    0.000    0.000    0.000    0.000 
#    0.000    0.000    0.000    0.000    0.000    0.000 
#
# Total GULP energy -44565.394424 kJ/mol
# GULP energy per Si atom -5570.674303 kJ/mol
# Density = 2.155637 g / cm^3
# Si number density = 21.605542 Si / 1000 Ang^3
#
#
#
# Elastic Constant Matrix: (Units=GPa)
#
#
# Indices 1 2 3 4 5 6 
#
# 1 87.1891 25.1799 42.4458 2.8834 12.8613 -7.3736
# 2 25.1799 78.9727 49.4277 14.4057 -5.2178 -12.0140
# 3 42.4458 49.4277 129.6208 1.0706 7.2792 -4.2185
# 4 2.8834 14.4057 1.0706 29.0749 -11.5907 -3.7182
# 5 12.8613 -5.2178 7.2792 -11.5907 31.7951 -0.7313
# 6 -7.3736 -12.0140 -4.2185 -3.7182 -0.7313 35.4669
#
#
#
# Elastic Compliance Matrix: (Units=1/GPa)
#
#
# Indices 1 2 3 4 5 6 
#
# 1 0.015077 -0.002242 -0.003641 -0.002675 -0.006573 0.001526
# 2 -0.002242 0.019966 -0.006836 -0.007576 0.003096 0.004753
# 3 -0.003641 -0.006836 0.011522 0.002588 -0.001377 -0.001459
# 4 -0.002675 -0.007576 0.002588 0.044836 0.015642 0.002208
# 5 -0.006573 0.003096 -0.001377 0.015642 0.040682 0.001997
# 6 0.001526 0.004753 -0.001459 0.002208 0.001997 0.030222
#
#
# Mechanical properties :
#
#
# Convention : Reuss Voigt Hill
#
# Bulk Modulus (GPa) = 47.33460 58.87660 53.10560
# Shear Modulus (GPa) = 25.66950 31.18266 28.42608
#
# Velocity S-wave (km/s) = 3.45062 3.80316 3.63117
# Velocity P-wave (km/s) = 6.15076 6.82607 6.49719
#
# Compressibility (1/GPa) = 0.02112619
#
# Stress axis : x y z
#
# Youngs Moduli (GPa) = 66.32797 50.08617 86.78903
#
# Poissons Ratio (x) = 0.11231 0.31600
# Poissons Ratio (y) = 0.14873 0.59326
# Poissons Ratio (z) = 0.24150 0.34237
#
# Static dielectric constant tensor:
#      x y z
#    x 1.828640 -0.025900 0.028780 
#    y -0.025900 1.829210 0.014980 
#    z 0.028780 0.014980 1.773910 
# 
# From -- ./inp_files/3729.got.cif
#   From: 2010.05.17/outbox.cif.g08.bks.cpg/sg1_2_cif.got.tgz:3729.got - 2010.05.17 20:27:59.
