data_PCOD9000131
_publ_section_title
;
Structure prediction by ZEFSAII (Michael W. Deem and Ramdas Pophale) SiO2 
 PCOD9000131
Probable space group: P 1
;
_chemical_formula_sum "Si O2"
_cell_formula_units_Z 8
_cell_length_a 15.244644
_cell_length_b 10.830584
_cell_length_c 15.504917
_cell_angle_alpha 157.565473
_cell_angle_beta 160.936760
_cell_angle_gamma 25.892098
_cell_volume 312.072370
_symmetry_space_group_name_H-M "P 1"
_symmetry_group_IT_number 1
_symmetry_cell_setting 'triclinic'
loop_
_space_group_symop_operation_xyz
x,y,z
loop_
_atom_site_type_symbol
_atom_site_label
_atom_site_fract_x
_atom_site_fract_y
_atom_site_fract_z
Si Si1 0.147410 0.136570 0.715750
Si Si2 0.102227 0.138391 0.874683
Si Si3 0.364950 0.399961 0.620593
Si Si4 0.612055 0.461977 0.070645
Si Si5 0.525865 0.238819 0.476967
Si Si6 0.341695 0.708262 0.211607
Si Si7 0.733080 0.048285 0.157118
Si Si8 0.145823 0.101127 0.435573
O O1 0.880799 0.000533 0.356366
O O2 0.112040 0.488602 0.860863
O O3 0.439600 0.943687 0.823601
O O4 0.170109 0.195464 0.875693
O O5 0.148769 0.735344 0.659630
O O6 0.291604 0.253168 0.196908
O O7 0.794935 0.302469 0.720737
O O8 0.584064 0.389092 0.895093
O O9 0.282966 0.043886 0.320786
O O10 0.456012 0.424081 0.622460
O O11 0.595194 0.849103 0.315905
O O12 0.344080 0.360810 0.802078
O O13 0.893918 0.261474 0.242620
O O14 0.615726 0.436680 0.273297
O O15 0.352676 0.824181 0.395786
O O16 0.989409 0.949207 0.267243
#
# Coordination Sequence:
#
# PCOD9000131 Si02
#       8
#     1   1   1   1   1   1   1   1
#     4  10  23  45  62  88 133 166 206 267 311 366
#     4  11  25  47  62  93 134 167 216 263 310 379
#     4  10  23  42  68  97 126 167 214 260 324 373
#     4  10  22  38  62  98 136 158 204 270 316 376
#     4  11  23  41  67  93 126 176 208 260 317 383
#     4   9  23  38  65  95 123 159 206 268 310 371
#     4  10  22  39  63  92 123 169 206 256 316 377
#     4  11  21  38  61  96 131 162 202 262 322 373
#
# _framework density 25.635081
#
# number of rings (size 3 to 8) (size 9 to 14) (size 15 to 20)
#    0.750    1.000    0.000    4.500    5.250    4.000 
#    4.500    0.000    0.000    0.000    0.000    0.000 
#    0.000    0.000    0.000    0.000    0.000    0.000 
#
# Total GULP energy -44684.528119 kJ/mol
# GULP energy per Si atom -5585.566015 kJ/mol
# Density = 2.557673 g / cm^3
# Si number density = 25.635081 Si / 1000 Ang^3
#
#
#
# Elastic Constant Matrix: (Units=GPa)
#
#
# Indices 1 2 3 4 5 6 
#
# 1 157.4925 33.7999 34.2926 -7.3776 -4.2063 -16.9511
# 2 33.7999 88.3801 29.3473 -2.7305 -1.3632 -4.1629
# 3 34.2926 29.3473 115.9160 -22.0410 1.8279 -3.4348
# 4 -7.3776 -2.7305 -22.0410 29.8448 3.6388 6.3475
# 5 -4.2063 -1.3632 1.8279 3.6388 44.3068 3.4301
# 6 -16.9511 -4.1629 -3.4348 6.3475 3.4301 50.3248
#
#
#
# Elastic Compliance Matrix: (Units=1/GPa)
#
#
# Indices 1 2 3 4 5 6 
#
# 1 0.007414 -0.002197 -0.001595 -0.000076 0.000540 0.002179
# 2 -0.002197 0.013117 -0.002985 -0.001669 0.000430 0.000322
# 3 -0.001595 -0.002985 0.011388 0.008102 -0.001306 -0.000940
# 4 -0.000076 -0.001669 0.008102 0.040691 -0.003385 -0.004512
# 5 0.000540 0.000430 -0.001306 -0.003385 0.023045 -0.001016
# 6 0.002179 0.000322 -0.000940 -0.004512 -0.001016 0.021206
#
#
# Mechanical properties :
#
#
# Convention : Reuss Voigt Hill
#
# Bulk Modulus (GPa) = 54.45786 61.85200 58.15493
# Shear Modulus (GPa) = 36.62016 42.51855 39.56935
#
# Velocity S-wave (km/s) = 3.78367 4.07702 3.93308
# Velocity P-wave (km/s) = 6.35436 6.80757 6.58486
#
# Compressibility (1/GPa) = 0.01836282
#
# Stress axis : x y z
#
# Youngs Moduli (GPa) = 134.88329 76.23962 87.81117
#
# Poissons Ratio (x) = 0.16749 0.14010
# Poissons Ratio (y) = 0.29633 0.26216
# Poissons Ratio (z) = 0.21520 0.22761
#
# Static dielectric constant tensor:
#      x y z
#    x 2.064390 0.023680 -0.000110 
#    y 0.023680 2.080890 0.125160 
#    z -0.000110 0.125160 2.011770 
# 
# From -- ./inp_files/7321.got.cif
#   From: 2010.05.17/outbox.cif.g08.bks.cpg/sg1_4_cif.got.tgz:7321.got - 2010.05.17 20:27:59.
