data_PCOD9000127
_publ_section_title
;
Structure prediction by ZEFSAII (Michael W. Deem and Ramdas Pophale) SiO2 
 PCOD9000127
Probable space group: P 1
;
_chemical_formula_sum "Si O2"
_cell_formula_units_Z 6
_cell_length_a 8.271909
_cell_length_b 7.278773
_cell_length_c 7.278752
_cell_angle_alpha 36.867665
_cell_angle_beta 114.068559
_cell_angle_gamma 125.718436
_cell_volume 211.892547
_symmetry_space_group_name_H-M "P 1"
_symmetry_group_IT_number 1
_symmetry_cell_setting 'triclinic'
loop_
_space_group_symop_operation_xyz
x,y,z
loop_
_atom_site_type_symbol
_atom_site_label
_atom_site_fract_x
_atom_site_fract_y
_atom_site_fract_z
Si Si1 0.057590 0.060970 0.034920
Si Si2 0.184740 0.578503 0.345521
Si Si3 0.557580 0.880118 0.715758
Si Si4 0.767901 0.457457 0.076456
Si Si5 0.347264 0.309103 0.348741
Si Si6 0.930424 0.623185 0.644546
O O1 0.220574 0.909119 0.218374
O O2 0.122449 0.265174 0.707501
O O3 0.894603 0.714507 0.349760
O O4 0.992714 0.323501 0.895587
O O5 0.350574 0.572139 0.294300
O O6 0.989795 0.519126 0.182587
O O7 0.618350 0.079901 0.389054
O O8 0.496818 0.146066 0.576734
O O9 0.731852 0.763401 0.908061
O O10 0.383296 0.513543 0.006739
O O11 0.764588 0.508581 0.816731
O O12 0.125372 0.981063 0.508979
#
# Coordination Sequence:
#
# PCOD9000127 Si02
#       6
#     1   1   1   1   1   1
#     4  10  22  34  58  94 124 144 192 256 298 330
#     4  11  21  38  63  89 116 156 202 243 287 350
#     4  10  22  34  58  94 124 144 192 256 298 330
#     4  11  21  38  63  89 116 156 202 243 287 350
#     4  11  21  38  63  89 116 156 202 243 287 350
#     4  11  21  38  63  89 116 156 202 243 287 350
#
# _framework density 28.316241999999999
#
# number of rings (size 3 to 8) (size 9 to 14) (size 15 to 20)
#    0.000    1.333    0.000    8.000    0.000    0.000 
#    0.000    0.000    0.000  112.000    0.000    0.000 
#    0.000    0.000    0.000    0.000    0.000    0.000 
#
# Total GULP energy -33407.649888 kJ/mol
# GULP energy per Si atom -5567.941648 kJ/mol
# Density = 2.825179 g / cm^3
# Si number density = 28.316242 Si / 1000 Ang^3
#
#
#
# Elastic Constant Matrix: (Units=GPa)
#
#
# Indices 1 2 3 4 5 6 
#
# 1 145.7999 48.4153 109.8073 -2.6227 21.7521 -52.8703
# 2 48.4153 78.8424 51.4589 -5.3669 -0.9181 -31.9015
# 3 109.8073 51.4589 280.8997 -10.5302 6.3022 -19.2366
# 4 -2.6227 -5.3669 -10.5302 54.7996 -12.3528 3.1227
# 5 21.7521 -0.9181 6.3022 -12.3528 60.9466 3.1833
# 6 -52.8703 -31.9015 -19.2366 3.1227 3.1833 42.8866
#
#
#
# Elastic Compliance Matrix: (Units=1/GPa)
#
#
# Indices 1 2 3 4 5 6 
#
# 1 0.023344 0.001176 -0.007397 -0.003952 -0.009778 0.027349
# 2 0.001176 0.020066 -0.003080 0.000465 -0.000488 0.014996
# 3 -0.007397 -0.003080 0.006411 0.001698 0.002738 -0.008861
# 4 -0.003952 0.000465 0.001698 0.020013 0.005592 -0.005636
# 5 -0.009778 -0.000488 0.002738 0.005592 0.021430 -0.013188
# 6 0.027349 0.014996 -0.008861 -0.005636 -0.013188 0.065602
#
#
# Mechanical properties :
#
#
# Convention : Reuss Voigt Hill
#
# Bulk Modulus (GPa) = 32.03218 102.76723 67.39970
# Shear Modulus (GPa) = 26.89987 51.45059 39.17523
#
# Velocity S-wave (km/s) = 3.08552 4.26725 3.72356
# Velocity P-wave (km/s) = 4.90212 7.78786 6.50698
#
# Compressibility (1/GPa) = 0.03121861
#
# Stress axis : x y z
#
# Youngs Moduli (GPa) = 42.83729 49.83639 155.97791
#
# Poissons Ratio (x) = -0.05859 1.15373
# Poissons Ratio (y) = -0.05036 0.48044
# Poissons Ratio (z) = 0.31686 0.15350
#
# Static dielectric constant tensor:
#      x y z
#    x 2.292810 0.405650 -0.010620 
#    y 0.405650 3.208350 0.093880 
#    z -0.010620 0.093880 2.037170 
# 
# From -- ./inp_files/4015.got.cif
#   From: 2010.05.17/outbox.cif.g08.bks.cpg/sg1_3_cif.got.tgz:4015.got - 2010.05.17 20:27:59.
