data_PCOD9000379
_publ_section_title
;
Structure prediction by ZEFSAII (Michael W. Deem and Ramdas Pophale) SiO2 
 PCOD9000379
Probable space group: P 1
;
_chemical_formula_sum "Si O2"
_cell_formula_units_Z 8
_cell_length_a 7.844916
_cell_length_b 13.929264
_cell_length_c 11.379085
_cell_angle_alpha 30.322759
_cell_angle_beta 144.366290
_cell_angle_gamma 138.419740
_cell_volume 361.151462
_symmetry_space_group_name_H-M "P 1"
_symmetry_group_IT_number 1
_symmetry_cell_setting 'triclinic'
loop_
_space_group_symop_operation_xyz
x,y,z
loop_
_atom_site_type_symbol
_atom_site_label
_atom_site_fract_x
_atom_site_fract_y
_atom_site_fract_z
Si Si1 0.747180 0.751240 0.522180
Si Si2 0.794475 0.115960 0.860402
Si Si3 0.681419 0.438434 0.276601
Si Si4 0.275710 0.469590 0.431469
Si Si5 0.902028 0.392909 0.092923
Si Si6 0.445842 0.827227 0.786925
Si Si7 0.642954 0.154783 0.006856
Si Si8 0.455499 0.136747 0.278802
O O1 0.544626 0.639549 0.425391
O O2 0.090748 0.809308 0.619421
O O3 0.749615 0.584530 0.796723
O O4 0.620822 0.945472 0.273720
O O5 0.757029 0.308342 0.564966
O O6 0.693645 0.126694 0.927284
O O7 0.604032 0.943504 0.863146
O O8 0.138459 0.094952 0.084085
O O9 0.469204 0.300340 0.214682
O O10 0.985736 0.503292 0.305048
O O11 0.542765 0.621230 0.045148
O O12 0.368204 0.270595 0.740651
O O13 0.198402 0.446728 0.275499
O O14 0.701093 0.228323 0.228106
O O15 0.906553 0.299399 0.065959
O O16 0.531244 0.952639 0.585025
#
# Coordination Sequence:
#
# PCOD9000379 Si02
#       8
#     1   1   1   1   1   1   1   1
#     4  11  25  41  66 107 132 173 226 275 335 398
#     4  11  24  41  70 100 137 178 219 280 338 387
#     4  10  25  46  70  98 136 178 229 274 333 406
#     4  10  25  45  69 100 135 181 217 280 343 392
#     4  10  25  43  69  96 141 177 222 273 339 400
#     4  11  26  42  72 104 133 172 234 275 332 400
#     4  11  25  41  68  99 138 174 224 274 333 401
#     4  10  23  47  66 100 134 181 223 273 339 398
#
# _framework density 22.151371000000001
#
# number of rings (size 3 to 8) (size 9 to 14) (size 15 to 20)
#    0.000    1.500    1.250    1.500    8.750    8.000 
#    0.000    0.000    0.000    0.000    0.000    0.000 
#    0.000    0.000    0.000    0.000    0.000    0.000 
#
# Total GULP energy -44737.145755 kJ/mol
# GULP energy per Si atom -5592.143219 kJ/mol
# Density = 2.210095 g / cm^3
# Si number density = 22.151371 Si / 1000 Ang^3
#
#
#
# Elastic Constant Matrix: (Units=GPa)
#
#
# Indices 1 2 3 4 5 6 
#
# 1 56.5107 18.5748 19.1218 2.3737 -8.9455 -2.4565
# 2 18.5748 150.6793 87.0027 17.4155 -1.5683 -14.1478
# 3 19.1218 87.0027 124.8621 -4.5450 -5.4823 -27.4928
# 4 2.3737 17.4155 -4.5450 49.5633 1.3541 6.5475
# 5 -8.9455 -1.5683 -5.4823 1.3541 35.9746 -0.0829
# 6 -2.4565 -14.1478 -27.4928 6.5475 -0.0829 27.7572
#
#
#
# Elastic Compliance Matrix: (Units=1/GPa)
#
#
# Indices 1 2 3 4 5 6 
#
# 1 0.019515 -0.001020 -0.002302 -0.000795 0.004485 -0.000872
# 2 -0.001020 0.012395 -0.009046 -0.004902 -0.000911 -0.001579
# 3 -0.002302 -0.009046 0.017424 0.003302 0.001591 0.011670
# 4 -0.000795 -0.004902 0.003302 0.022882 -0.000780 -0.004699
# 5 0.004485 -0.000911 0.001591 -0.000780 0.029149 0.001780
# 6 -0.000872 -0.001579 0.011670 -0.004699 0.001780 0.047817
#
#
# Mechanical properties :
#
#
# Convention : Reuss Voigt Hill
#
# Bulk Modulus (GPa) = 40.65410 64.60564 52.62987
# Shear Modulus (GPa) = 27.45478 36.48255 31.96866
#
# Velocity S-wave (km/s) = 3.52435 4.06269 3.80306
# Velocity P-wave (km/s) = 5.91220 7.15794 6.56469
#
# Compressibility (1/GPa) = 0.02459776
#
# Stress axis : x y z
#
# Youngs Moduli (GPa) = 51.24152 80.67990 57.39075
#
# Poissons Ratio (x) = 0.08228 0.13211
# Poissons Ratio (y) = 0.05226 0.51919
# Poissons Ratio (z) = 0.11796 0.72987
#
# Static dielectric constant tensor:
#      x y z
#    x 1.829020 0.009450 -0.023140 
#    y 0.009450 1.805870 0.010660 
#    z -0.023140 0.010660 1.810250 
# 
# From -- ./inp_files/6623.got.cif
#   From: 2010.05.17/outbox.cif.g08.bks.cpg/sg1_4_cif.got.tgz:6623.got - 2010.05.17 20:27:59.
