data_PCOD9000925
_publ_section_title
;
Structure prediction by ZEFSAII (Michael W. Deem and Ramdas Pophale) SiO2 
 PCOD9000925
Probable space group: P 1
;
_chemical_formula_sum "Si O2"
_cell_formula_units_Z 8
_cell_length_a 5.733340
_cell_length_b 10.339984
_cell_length_c 11.038465
_cell_angle_alpha 26.525957
_cell_angle_beta 77.876779
_cell_angle_gamma 73.448185
_cell_volume 278.598570
_symmetry_space_group_name_H-M "P 1"
_symmetry_group_IT_number 1
_symmetry_cell_setting 'triclinic'
loop_
_space_group_symop_operation_xyz
x,y,z
loop_
_atom_site_type_symbol
_atom_site_label
_atom_site_fract_x
_atom_site_fract_y
_atom_site_fract_z
Si Si1 0.780070 0.890590 0.097800
Si Si2 0.010731 0.955141 0.783504
Si Si3 0.917485 0.601446 0.882998
Si Si4 0.159303 0.714801 0.347432
Si Si5 0.560742 0.489523 0.314285
Si Si6 0.444487 0.121993 0.444888
Si Si7 0.352616 0.773604 0.542729
Si Si8 0.788827 0.288823 0.947469
O O1 0.609525 0.803958 0.086380
O O2 0.909632 0.632122 0.393984
O O3 0.000416 0.924501 0.954325
O O4 0.628098 0.115511 0.024520
O O5 0.962729 0.654925 0.974742
O O6 0.793224 0.232396 0.537366
O O7 0.249545 0.027533 0.635933
O O8 0.837960 0.323796 0.056486
O O9 0.165172 0.640825 0.757467
O O10 0.698513 0.884020 0.638018
O O11 0.353217 0.491603 0.434476
O O12 0.256813 0.718344 0.468087
O O13 0.040752 0.079777 0.044492
O O14 0.482182 0.431942 0.235264
O O15 0.351593 0.087878 0.346744
O O16 0.638115 0.613820 0.659026
#
# Coordination Sequence:
#
# PCOD9000925 Si02
#       8
#     1   1   1   1   1   1   1   1
#     4  10  24  40  63 104 132 171 224 268 328 405
#     4  10  21  43  68  91 138 178 217 278 332 389
#     4   9  20  40  66  92 127 180 219 267 337 386
#     4  10  24  39  61 102 131 169 221 266 331 400
#     4  11  22  42  66  99 137 170 225 271 333 399
#     4   9  21  41  69  97 126 182 222 267 342 386
#     4  10  20  43  70  90 135 176 216 276 335 389
#     4   9  22  40  59 101 128 170 220 267 330 396
#
# _framework density 28.715147999999999
#
# number of rings (size 3 to 8) (size 9 to 14) (size 15 to 20)
#    0.750    1.500    0.000    1.500    1.750    6.000 
#    9.000    0.000    2.750    0.000    0.000    0.000 
#    0.000    0.000    0.000    0.000    0.000    0.000 
#
# Total GULP energy -44540.838537 kJ/mol
# GULP energy per Si atom -5567.604817 kJ/mol
# Density = 2.864979 g / cm^3
# Si number density = 28.715148 Si / 1000 Ang^3
#
#
#
# Elastic Constant Matrix: (Units=GPa)
#
#
# Indices 1 2 3 4 5 6 
#
# 1 83.9797 47.9793 41.3966 5.5436 5.8237 1.6765
# 2 47.9793 269.4184 40.6902 -25.6288 12.6737 55.9851
# 3 41.3966 40.6902 68.8794 -11.6508 21.7218 -4.2078
# 4 5.5436 -25.6288 -11.6508 44.2871 8.9567 0.9231
# 5 5.8237 12.6737 21.7218 8.9567 36.4508 -10.1735
# 6 1.6765 55.9851 -4.2078 0.9231 -10.1735 66.9571
#
#
#
# Elastic Compliance Matrix: (Units=1/GPa)
#
#
# Indices 1 2 3 4 5 6 
#
# 1 0.022069 -0.003839 -0.016349 -0.011664 0.011401 0.003523
# 2 -0.003839 0.006269 0.000737 0.005437 -0.004998 -0.005934
# 3 -0.016349 0.000737 0.033348 0.015695 -0.021833 -0.001645
# 4 -0.011664 0.005437 0.015695 0.035502 -0.020000 -0.006796
# 5 0.011401 -0.004998 -0.021833 -0.020000 0.048096 0.010105
# 6 0.003523 -0.005934 -0.001645 -0.006796 0.010105 0.021334
#
#
# Mechanical properties :
#
#
# Convention : Reuss Voigt Hill
#
# Bulk Modulus (GPa) = 43.88917 75.82330 59.85623
# Shear Modulus (GPa) = 23.46165 49.01974 36.24070
#
# Velocity S-wave (km/s) = 2.86151 4.13619 3.55642
# Velocity P-wave (km/s) = 5.12202 7.01951 6.14445
#
# Compressibility (1/GPa) = 0.02278466
#
# Stress axis : x y z
#
# Youngs Moduli (GPa) = 45.31308 159.50375 29.98689
#
# Poissons Ratio (x) = 0.61232 0.49024
# Poissons Ratio (y) = 0.17395 -0.02209
# Poissons Ratio (z) = 0.74080 -0.11751
#
# Static dielectric constant tensor:
#      x y z
#    x 2.555740 0.075030 -0.270570 
#    y 0.075030 2.451520 -0.054690 
#    z -0.270570 -0.054690 2.338640 
# 
# From -- ./inp_files/6003.got.cif
#   From: 2010.05.17/outbox.cif.g08.bks.cpg/sg1_4_cif.got.tgz:6003.got - 2010.05.17 20:27:59.
