data_PCOD9000520
_publ_section_title
;
Structure prediction by ZEFSAII (Michael W. Deem and Ramdas Pophale) SiO2 
 PCOD9000520
Probable space group: P 1
;
_chemical_formula_sum "Si O2"
_cell_formula_units_Z 8
_cell_length_a 14.400100
_cell_length_b 5.226353
_cell_length_c 11.869459
_cell_angle_alpha 100.514217
_cell_angle_beta 147.689008
_cell_angle_gamma 101.653668
_cell_volume 345.163295
_symmetry_space_group_name_H-M "P 1"
_symmetry_group_IT_number 1
_symmetry_cell_setting 'triclinic'
loop_
_space_group_symop_operation_xyz
x,y,z
loop_
_atom_site_type_symbol
_atom_site_label
_atom_site_fract_x
_atom_site_fract_y
_atom_site_fract_z
Si Si1 0.344900 0.691200 0.541960
Si Si2 0.141829 0.562239 0.558400
Si Si3 0.963844 0.194336 0.943999
Si Si4 0.563971 0.128757 0.475827
Si Si5 0.698575 0.630753 0.831805
Si Si6 0.597517 0.613585 0.383129
Si Si7 0.721894 0.464130 0.062066
Si Si8 0.429456 0.392422 0.941417
O O1 0.173936 0.498614 0.457685
O O2 0.545087 0.678399 0.747427
O O3 0.216422 0.511819 0.277695
O O4 0.484060 0.097235 0.738389
O O5 0.236689 0.419462 0.718449
O O6 0.878986 0.411797 0.285037
O O7 0.307108 0.983394 0.782963
O O8 0.842337 0.346021 0.801195
O O9 0.830316 0.919212 0.890299
O O10 0.876656 0.934945 0.727662
O O11 0.522937 0.254388 0.555553
O O12 0.518608 0.270692 0.336202
O O13 0.478813 0.750222 0.330556
O O14 0.853761 0.666461 0.095282
O O15 0.543736 0.557971 0.193108
O O16 0.633304 0.586771 0.070356
#
# Coordination Sequence:
#
# PCOD9000520 Si02
#       8
#     1   1   1   1   1   1   1   1
#     4  11  22  39  62 102 136 174 214 273 344 402
#     4  11  25  41  68  99 135 177 221 276 334 393
#     4   9  22  39  66  93 133 172 212 275 330 389
#     4   9  19  38  66  90 127 173 209 274 326 377
#     4  11  20  38  65  98 135 172 217 272 336 402
#     4   9  20  41  68  92 128 177 220 270 325 394
#     4  11  26  40  68 101 140 171 223 280 333 402
#     4  11  24  46  69  97 132 184 224 268 338 395
#
# _framework density 23.177437000000001
#
# number of rings (size 3 to 8) (size 9 to 14) (size 15 to 20)
#    0.750    1.000    1.250    3.000    3.500    2.000 
#    0.000    3.750    5.500    0.000    0.000    0.000 
#    0.000    0.000    0.000    0.000    0.000    0.000 
#
# Total GULP energy -44582.872404 kJ/mol
# GULP energy per Si atom -5572.859051 kJ/mol
# Density = 2.312468 g / cm^3
# Si number density = 23.177437 Si / 1000 Ang^3
#
#
#
# Elastic Constant Matrix: (Units=GPa)
#
#
# Indices 1 2 3 4 5 6 
#
# 1 94.1068 34.2687 44.0695 -12.0091 -40.4132 2.1297
# 2 34.2687 129.1253 30.0916 -18.1467 -15.8295 -3.5259
# 3 44.0695 30.0916 106.2626 -12.5176 -37.9824 9.7499
# 4 -12.0091 -18.1467 -12.5176 44.6877 2.7186 -6.9511
# 5 -40.4132 -15.8295 -37.9824 2.7186 41.9092 -3.3674
# 6 2.1297 -3.5259 9.7499 -6.9511 -3.3674 24.0887
#
#
#
# Elastic Compliance Matrix: (Units=1/GPa)
#
#
# Indices 1 2 3 4 5 6 
#
# 1 0.019703 -0.002369 -0.001230 0.003224 0.016918 0.001705
# 2 -0.002369 0.009255 -0.001630 0.003162 -0.000221 0.003105
# 3 -0.001230 -0.001630 0.015051 0.001896 0.011388 -0.004083
# 4 0.003224 0.003162 0.001896 0.025938 0.004948 0.007587
# 5 0.016918 -0.000221 0.011388 0.004948 0.050278 0.002319
# 6 0.001705 0.003105 -0.004083 0.007587 0.002319 0.045983
#
#
# Mechanical properties :
#
#
# Convention : Reuss Voigt Hill
#
# Bulk Modulus (GPa) = 29.80529 60.70605 45.25567
# Shear Modulus (GPa) = 26.61726 36.87478 31.74602
#
# Velocity S-wave (km/s) = 3.39250 3.99303 3.70495
# Velocity P-wave (km/s) = 5.31347 6.89259 6.15389
#
# Compressibility (1/GPa) = 0.03355109
#
# Stress axis : x y z
#
# Youngs Moduli (GPa) = 50.75399 108.05115 66.44230
#
# Poissons Ratio (x) = 0.25594 0.08172
# Poissons Ratio (y) = 0.12022 0.10831
# Poissons Ratio (z) = 0.06242 0.17613
#
# Static dielectric constant tensor:
#      x y z
#    x 1.865330 0.030560 0.046120 
#    y 0.030560 2.020670 0.035070 
#    z 0.046120 0.035070 1.893490 
# 
# From -- ./inp_files/384.got.cif
#   From: 2010.05.17/outbox.cif.g08.bks.cpg/sg1_1_cif.got.tgz:384.got - 2010.05.17 20:27:59.
