data_PCOD9000377
_publ_section_title
;
Structure prediction by ZEFSAII (Michael W. Deem and Ramdas Pophale) SiO2 
 PCOD9000377
Probable space group: P 1
;
_chemical_formula_sum "Si O2"
_cell_formula_units_Z 8
_cell_length_a 6.353879
_cell_length_b 11.720057
_cell_length_c 10.740847
_cell_angle_alpha 37.516702
_cell_angle_beta 45.600914
_cell_angle_gamma 46.416638
_cell_volume 330.991304
_symmetry_space_group_name_H-M "P 1"
_symmetry_group_IT_number 1
_symmetry_cell_setting 'triclinic'
loop_
_space_group_symop_operation_xyz
x,y,z
loop_
_atom_site_type_symbol
_atom_site_label
_atom_site_fract_x
_atom_site_fract_y
_atom_site_fract_z
Si Si1 0.848490 0.670240 0.420030
Si Si2 0.238055 0.814563 0.283335
Si Si3 0.785425 0.226500 0.372343
Si Si4 0.111543 0.505163 0.078555
Si Si5 0.848126 0.893319 0.991285
Si Si6 0.077481 0.244880 0.674317
Si Si7 0.200501 0.781102 0.615031
Si Si8 0.801320 0.227726 0.076404
O O1 0.789615 0.850560 0.194597
O O2 0.542588 0.720913 0.586819
O O3 0.174144 0.650389 0.366476
O O4 0.890934 0.462713 0.516043
O O5 0.521287 0.897362 0.060081
O O6 0.259363 0.744955 0.475886
O O7 0.920077 0.992503 0.247487
O O8 0.439355 0.213440 0.532564
O O9 0.856158 0.278438 0.154525
O O10 0.864323 0.387043 0.287980
O O11 0.008099 0.009549 0.508064
O O12 0.445125 0.341391 0.094222
O O13 0.083003 0.687281 0.025878
O O14 0.051619 0.628391 0.868075
O O15 0.968905 0.080300 0.787377
O O16 0.988038 0.255309 0.850556
#
# Coordination Sequence:
#
# PCOD9000377 Si02
#       8
#     1   1   1   1   1   1   1   1
#     4  11  22  46  72 106 140 190 246 293 357 437
#     4  10  23  46  74 105 143 188 244 300 355 435
#     4  11  28  48  73 112 146 190 250 300 358 438
#     4  12  26  48  74 107 150 189 242 302 365 435
#     4  11  27  46  70 108 151 186 240 305 362 432
#     4  12  26  48  75 105 147 193 241 300 365 425
#     4  10  25  42  72 108 143 185 238 305 365 419
#     4  11  25  48  76 105 146 193 241 303 359 431
#
# _framework density 24.169816000000001
#
# number of rings (size 3 to 8) (size 9 to 14) (size 15 to 20)
#    0.000    1.000    2.500    2.250    7.000    6.000 
#    2.250    0.000    0.000    0.000    0.000    0.000 
#    0.000    0.000    0.000    0.000    0.000    0.000 
#
# Total GULP energy -44624.702951 kJ/mol
# GULP energy per Si atom -5578.087869 kJ/mol
# Density = 2.411480 g / cm^3
# Si number density = 24.169816 Si / 1000 Ang^3
#
#
#
# Elastic Constant Matrix: (Units=GPa)
#
#
# Indices 1 2 3 4 5 6 
#
# 1 82.9970 51.3110 55.2342 -13.1061 -19.6420 2.4093
# 2 51.3110 109.8303 37.3515 -9.0683 -28.5935 -19.3410
# 3 55.2342 37.3515 105.4437 -23.1231 -28.5356 2.3248
# 4 -13.1061 -9.0683 -23.1231 35.9864 7.5114 7.7968
# 5 -19.6420 -28.5935 -28.5356 7.5114 47.4751 -6.9136
# 6 2.4093 -19.3410 2.3248 7.7968 -6.9136 38.0597
#
#
#
# Elastic Compliance Matrix: (Units=1/GPa)
#
#
# Indices 1 2 3 4 5 6 
#
# 1 0.024335 -0.010039 -0.009290 0.002537 -0.003003 -0.007140
# 2 -0.010039 0.017890 0.000380 -0.003428 0.009149 0.012068
# 3 -0.009290 0.000380 0.017218 0.006752 0.005573 -0.000642
# 4 0.002537 -0.003428 0.006752 0.035253 -0.004030 -0.010269
# 5 -0.003003 0.009149 0.005573 -0.004030 0.030912 0.010940
# 6 -0.007140 0.012068 -0.000642 -0.010269 0.010940 0.036989
#
#
# Mechanical properties :
#
#
# Convention : Reuss Voigt Hill
#
# Bulk Modulus (GPa) = 46.41576 65.11828 55.76702
# Shear Modulus (GPa) = 24.07578 34.59586 29.33582
#
# Velocity S-wave (km/s) = 3.15954 3.78744 3.48765
# Velocity P-wave (km/s) = 5.70579 6.79167 6.27227
#
# Compressibility (1/GPa) = 0.02154441
#
# Stress axis : x y z
#
# Youngs Moduli (GPa) = 41.09355 55.89707 58.07725
#
# Poissons Ratio (x) = 0.56116 0.53953
# Poissons Ratio (y) = 0.41255 -0.02205
# Poissons Ratio (z) = 0.38175 -0.02123
#
# Static dielectric constant tensor:
#      x y z
#    x 2.095230 0.080620 0.004040 
#    y 0.080620 1.992970 0.077520 
#    z 0.004040 0.077520 1.980850 
# 
# From -- ./inp_files/6096.got.cif
#   From: 2010.05.17/outbox.cif.g08.bks.cpg/sg1_4_cif.got.tgz:6096.got - 2010.05.17 20:27:59.
