data_PCOD9000219
_publ_section_title
;
Structure prediction by ZEFSAII (Michael W. Deem and Ramdas Pophale) SiO2 
 PCOD9000219
Probable space group: P 1
;
_chemical_formula_sum "Si O2"
_cell_formula_units_Z 6
_cell_length_a 6.220021
_cell_length_b 10.073148
_cell_length_c 4.741819
_cell_angle_alpha 71.773199
_cell_angle_beta 97.699402
_cell_angle_gamma 60.701126
_cell_volume 230.846112
_symmetry_space_group_name_H-M "P 1"
_symmetry_group_IT_number 1
_symmetry_cell_setting 'triclinic'
loop_
_space_group_symop_operation_xyz
x,y,z
loop_
_atom_site_type_symbol
_atom_site_label
_atom_site_fract_x
_atom_site_fract_y
_atom_site_fract_z
Si Si1 0.689020 0.740680 0.107040
Si Si2 0.004110 0.842522 0.416247
Si Si3 0.671235 0.268350 0.638710
Si Si4 0.490683 0.170106 0.201698
Si Si5 0.185551 0.055448 0.498802
Si Si6 0.580560 0.588054 0.723196
O O1 0.610128 0.694221 0.414210
O O2 0.914910 0.771050 0.199989
O O3 0.749142 0.591092 0.004911
O O4 0.437483 0.908283 0.813484
O O5 0.273361 0.684987 0.697648
O O6 0.092997 0.971207 0.315325
O O7 0.732551 0.973740 0.445267
O O8 0.955574 0.154978 0.619101
O O9 0.496831 0.305780 0.304179
O O10 0.655739 0.416595 0.706465
O O11 0.554553 0.192377 0.880452
O O12 0.243073 0.171092 0.249737
#
# Coordination Sequence:
#
# PCOD9000219 Si02
#       6
#     1   1   1   1   1   1
#     4  11  23  43  69  99 134 182 232 279 341 408
#     4  10  22  43  69 101 134 175 231 283 334 403
#     4  11  25  45  68 102 142 180 226 283 346 411
#     4  11  23  43  71 100 135 182 231 280 341 408
#     4  10  24  46  74 103 137 180 234 289 340 407
#     4  11  25  44  67  99 142 181 224 284 346 409
#
# _framework density 25.991343000000001
#
# number of rings (size 3 to 8) (size 9 to 14) (size 15 to 20)
#    0.000    1.333    0.000    5.000    0.000   12.000 
#    0.000    8.333    0.000    0.000    0.000    0.000 
#    0.000    0.000    0.000    0.000    0.000    0.000 
#
# Total GULP energy -33516.540906 kJ/mol
# GULP energy per Si atom -5586.090151 kJ/mol
# Density = 2.593219 g / cm^3
# Si number density = 25.991343 Si / 1000 Ang^3
#
#
#
# Elastic Constant Matrix: (Units=GPa)
#
#
# Indices 1 2 3 4 5 6 
#
# 1 115.3782 63.3419 57.6983 8.2428 -16.5862 23.4665
# 2 63.3419 174.0567 18.5917 48.3694 3.6541 19.8380
# 3 57.6983 18.5917 96.7302 17.7600 -28.3400 18.3152
# 4 8.2428 48.3694 17.7600 48.3672 13.0551 8.2261
# 5 -16.5862 3.6541 -28.3400 13.0551 55.3444 14.9457
# 6 23.4665 19.8380 18.3152 8.2261 14.9457 36.5797
#
#
#
# Elastic Compliance Matrix: (Units=1/GPa)
#
#
# Indices 1 2 3 4 5 6 
#
# 1 0.018123 -0.007503 -0.010300 0.009013 -0.000313 -0.004298
# 2 -0.007503 0.011925 0.006874 -0.013796 0.004807 -0.003957
# 3 -0.010300 0.006874 0.025896 -0.017039 0.017341 -0.013339
# 4 0.009013 -0.013796 -0.017039 0.042532 -0.017227 0.007706
# 5 -0.000313 0.004807 0.017341 -0.017227 0.036586 -0.022163
# 6 -0.004298 -0.003957 -0.013339 0.007706 -0.022163 0.046243
#
#
# Mechanical properties :
#
#
# Convention : Reuss Voigt Hill
#
# Bulk Modulus (GPa) = 29.33862 73.93654 51.63758
# Shear Modulus (GPa) = 23.30737 44.49381 33.90059
#
# Velocity S-wave (km/s) = 2.99780 4.14196 3.61543
# Velocity P-wave (km/s) = 4.82647 7.16818 6.11055
#
# Compressibility (1/GPa) = 0.03408477
#
# Stress axis : x y z
#
# Youngs Moduli (GPa) = 55.17972 83.85527 38.61638
#
# Poissons Ratio (x) = 0.62916 0.39776
# Poissons Ratio (y) = 0.41401 -0.26544
# Poissons Ratio (z) = 0.56837 -0.57641
#
# Static dielectric constant tensor:
#      x y z
#    x 2.062790 -0.005670 0.045690 
#    y -0.005670 2.068770 -0.035430 
#    z 0.045690 -0.035430 2.068970 
# 
# From -- ./inp_files/102.got.cif
#   From: 2010.05.17/outbox.cif.g08.bks.cpg/sg1_1_cif.got.tgz:102.got - 2010.05.17 20:27:59.
