data_PCOD9000574
_publ_section_title
;
Structure prediction by ZEFSAII (Michael W. Deem and Ramdas Pophale) SiO2 
 PCOD9000574
Probable space group: P 1
;
_chemical_formula_sum "Si O2"
_cell_formula_units_Z 8
_cell_length_a 4.889899
_cell_length_b 5.367893
_cell_length_c 16.270678
_cell_angle_alpha 43.140908
_cell_angle_beta 90.601789
_cell_angle_gamma 84.980914
_cell_volume 289.177776
_symmetry_space_group_name_H-M "P 1"
_symmetry_group_IT_number 1
_symmetry_cell_setting 'triclinic'
loop_
_space_group_symop_operation_xyz
x,y,z
loop_
_atom_site_type_symbol
_atom_site_label
_atom_site_fract_x
_atom_site_fract_y
_atom_site_fract_z
Si Si1 0.225260 0.427690 0.731190
Si Si2 0.172479 0.810687 0.990203
Si Si3 0.657733 0.665074 0.429945
Si Si4 0.680495 0.848407 0.690325
Si Si5 0.820766 0.455036 0.944903
Si Si6 0.150048 0.836911 0.478592
Si Si7 0.511148 0.819139 0.137576
Si Si8 0.024577 0.634980 0.287800
O O1 0.385506 0.714465 0.710923
O O2 0.273481 0.505303 0.617521
O O3 0.901822 0.552080 0.715475
O O4 0.308824 0.031548 0.865806
O O5 0.971326 0.574764 0.998185
O O6 0.398795 0.644175 0.097120
O O7 0.003536 0.136589 0.967346
O O8 0.337351 0.810344 0.404350
O O9 0.832044 0.817705 0.466375
O O10 0.809764 0.783233 0.321729
O O11 0.696497 0.230794 0.553324
O O12 0.761721 0.794041 0.799434
O O13 0.566667 0.236966 0.019691
O O14 0.162751 0.238092 0.416972
O O15 0.276632 0.808834 0.208235
O O16 0.806542 0.610659 0.218227
#
# Coordination Sequence:
#
# PCOD9000574 Si02
#       8
#     1   1   1   1   1   1   1   1
#     4  11  23  45  78 115 162 202 257 339 414 490
#     4  11  26  52  82 121 164 213 270 341 416 489
#     4  12  26  47  78 117 152 212 265 333 409 483
#     4  11  23  45  78 115 162 202 257 339 414 490
#     4  11  26  52  82 121 164 213 270 341 416 489
#     4  12  26  47  78 117 152 212 265 333 409 483
#     4  12  26  54  76 116 158 226 270 338 398 486
#     4  12  28  52  78 110 166 212 278 332 398 478
#
# _framework density 27.664642000000001
#
# number of rings (size 3 to 8) (size 9 to 14) (size 15 to 20)
#    0.000    0.500    3.750    3.750    1.750    4.000 
#    9.000    0.000    0.000    0.000    0.000    0.000 
#    0.000    0.000    0.000    0.000    0.000    0.000 
#
# Total GULP energy -44843.266425 kJ/mol
# GULP energy per Si atom -5605.408303 kJ/mol
# Density = 2.760168 g / cm^3
# Si number density = 27.664642 Si / 1000 Ang^3
#
#
#
# Elastic Constant Matrix: (Units=GPa)
#
#
# Indices 1 2 3 4 5 6 
#
# 1 138.5733 37.5335 50.1336 10.3534 -23.0531 8.5650
# 2 37.5335 119.6023 21.9926 9.8214 -11.7512 22.1682
# 3 50.1336 21.9926 116.3947 6.8426 -25.6322 7.9517
# 4 10.3534 9.8214 6.8426 42.7957 -0.9094 1.7929
# 5 -23.0531 -11.7512 -25.6322 -0.9094 52.2688 5.1439
# 6 8.5650 22.1682 7.9517 1.7929 5.1439 51.3987
#
#
#
# Elastic Compliance Matrix: (Units=1/GPa)
#
#
# Indices 1 2 3 4 5 6 
#
# 1 0.009344 -0.001975 -0.003068 -0.001253 0.002191 -0.000406
# 2 -0.001975 0.010084 -0.000329 -0.001579 0.001608 -0.004075
# 3 -0.003068 -0.000329 0.011024 -0.000798 0.004107 -0.001435
# 4 -0.001253 -0.001579 -0.000798 0.024130 -0.000905 0.000262
# 5 0.002191 0.001608 0.004107 -0.000905 0.022847 -0.003949
# 6 -0.000406 -0.004075 -0.001435 0.000262 -0.003949 0.021889
#
#
# Mechanical properties :
#
#
# Convention : Reuss Voigt Hill
#
# Bulk Modulus (GPa) = 50.73791 65.98775 58.36283
# Shear Modulus (GPa) = 42.86976 46.95333 44.91154
#
# Velocity S-wave (km/s) = 3.94080 4.12422 4.03355
# Velocity P-wave (km/s) = 6.25193 6.82520 6.54485
#
# Compressibility (1/GPa) = 0.01970913
#
# Stress axis : x y z
#
# Youngs Moduli (GPa) = 107.01561 99.16341 90.70852
#
# Poissons Ratio (x) = 0.19583 0.27827
# Poissons Ratio (y) = 0.21134 0.02988
# Poissons Ratio (z) = 0.32829 0.03267
#
# Static dielectric constant tensor:
#      x y z
#    x 2.090110 -0.050130 0.024000 
#    y -0.050130 2.192120 0.026190 
#    z 0.024000 0.026190 2.171790 
# 
# From -- ./inp_files/7356.got.cif
#   From: 2010.05.17/outbox.cif.g08.bks.cpg/sg1_4_cif.got.tgz:7356.got - 2010.05.17 20:27:59.
