data_PCOD9000048
_publ_section_title
;
Structure prediction by ZEFSAII (Michael W. Deem and Ramdas Pophale) SiO2 
 PCOD9000048
Probable space group: P 1
;
_chemical_formula_sum "Si O2"
_cell_formula_units_Z 8
_cell_length_a 10.670342
_cell_length_b 7.306875
_cell_length_c 5.590922
_cell_angle_alpha 97.281148
_cell_angle_beta 85.404465
_cell_angle_gamma 41.217641
_cell_volume 274.454515
_symmetry_space_group_name_H-M "P 1"
_symmetry_group_IT_number 1
_symmetry_cell_setting 'triclinic'
loop_
_space_group_symop_operation_xyz
x,y,z
loop_
_atom_site_type_symbol
_atom_site_label
_atom_site_fract_x
_atom_site_fract_y
_atom_site_fract_z
Si Si1 0.121050 0.394290 0.198190
Si Si2 0.457305 0.139915 0.595277
Si Si3 0.118213 0.820605 0.749285
Si Si4 0.628853 0.385584 0.364433
Si Si5 0.751646 0.613642 0.121832
Si Si6 0.244941 0.688110 0.215568
Si Si7 0.452487 0.817103 0.855874
Si Si8 0.818062 0.916164 0.629297
O O1 0.202999 0.512074 0.161145
O O2 0.959854 0.482177 0.061027
O O3 0.983924 0.578509 0.483014
O O4 0.302240 0.046235 0.128374
O O5 0.287268 0.474792 0.626025
O O6 0.594095 0.932193 0.317032
O O7 0.376364 0.048180 0.708472
O O8 0.612100 0.056538 0.741588
O O9 0.125138 0.902794 0.498997
O O10 0.908358 0.953870 0.811842
O O11 0.168535 0.851337 0.999808
O O12 0.734430 0.451081 0.266178
O O13 0.471639 0.488234 0.209413
O O14 0.495270 0.590975 0.652441
O O15 0.776373 0.073772 0.412254
O O16 0.666611 0.634394 0.890964
#
# Coordination Sequence:
#
# PCOD9000048 Si02
#       8
#     1   1   1   1   1   1   1   1
#     4  10  23  47  76 105 140 206 268 303 371 465
#     4  10  21  41  75 104 146 195 261 313 374 459
#     4  11  23  44  75 112 146 198 263 315 376 448
#     4  11  26  49  71 113 161 195 245 327 405 446
#     4  10  24  46  71 105 156 202 250 314 392 466
#     4  11  24  46  79 111 152 199 259 320 377 460
#     4  11  24  46  72 107 149 203 249 318 391 459
#     4  10  23  45  75 111 148 196 261 318 380 459
#
# _framework density 29.148728999999999
#
# number of rings (size 3 to 8) (size 9 to 14) (size 15 to 20)
#    0.000    1.500    2.500    1.500    5.250    0.000 
#   15.750    0.000    0.000    0.000    0.000    0.000 
#    0.000    0.000    0.000    0.000    0.000    0.000 
#
# Total GULP energy -44777.212966 kJ/mol
# GULP energy per Si atom -5597.151621 kJ/mol
# Density = 2.908239 g / cm^3
# Si number density = 29.148729 Si / 1000 Ang^3
#
#
#
# Elastic Constant Matrix: (Units=GPa)
#
#
# Indices 1 2 3 4 5 6 
#
# 1 171.8058 52.4911 45.6415 -3.4254 28.0812 -29.0018
# 2 52.4911 104.7116 42.5003 16.8455 12.7882 -11.7863
# 3 45.6415 42.5003 148.7381 -17.7239 30.3221 -15.1702
# 4 -3.4254 16.8455 -17.7239 45.5078 -4.5809 1.6536
# 5 28.0812 12.7882 30.3221 -4.5809 62.5880 -13.8424
# 6 -29.0018 -11.7863 -15.1702 1.6536 -13.8424 64.3313
#
#
#
# Elastic Compliance Matrix: (Units=1/GPa)
#
#
# Indices 1 2 3 4 5 6 
#
# 1 0.007729 -0.003332 -0.000651 0.001290 -0.001872 0.002284
# 2 -0.003332 0.013869 -0.003730 -0.006845 0.000043 0.000345
# 3 -0.000651 -0.003730 0.009185 0.004595 -0.002963 0.000433
# 4 0.001290 -0.006845 0.004595 0.026450 0.000494 -0.000163
# 5 -0.001872 0.000043 -0.002963 0.000494 0.018834 0.002505
# 6 0.002284 0.000345 0.000433 -0.000163 0.002505 0.017283
#
#
# Mechanical properties :
#
#
# Convention : Reuss Voigt Hill
#
# Bulk Modulus (GPa) = 65.12010 78.50237 71.81123
# Shear Modulus (GPa) = 43.90009 53.46023 48.68016
#
# Velocity S-wave (km/s) = 3.88502 4.28723 4.09107
# Velocity P-wave (km/s) = 6.52025 7.17616 6.85605
#
# Compressibility (1/GPa) = 0.01535624
#
# Stress axis : x y z
#
# Youngs Moduli (GPa) = 129.38664 72.10362 108.87696
#
# Poissons Ratio (x) = 0.24024 0.07091
# Poissons Ratio (y) = 0.43109 0.40610
# Poissons Ratio (z) = 0.08427 0.26894
#
# Static dielectric constant tensor:
#      x y z
#    x 2.412550 -0.021140 -0.085390 
#    y -0.021140 2.215440 0.002520 
#    z -0.085390 0.002520 2.360330 
# 
# From -- ./inp_files/2220.got.cif
#   From: 2010.05.17/outbox.cif.g08.bks.cpg/sg1_2_cif.got.tgz:2220.got - 2010.05.17 20:27:59.
