data_PCOD9000476
_publ_section_title
;
Structure prediction by ZEFSAII (Michael W. Deem and Ramdas Pophale) SiO2 
 PCOD9000476
Probable space group: P 1
;
_chemical_formula_sum "Si O2"
_cell_formula_units_Z 8
_cell_length_a 8.672065
_cell_length_b 5.338875
_cell_length_c 11.171904
_cell_angle_alpha 63.317919
_cell_angle_beta 125.791484
_cell_angle_gamma 83.947752
_cell_volume 322.953252
_symmetry_space_group_name_H-M "P 1"
_symmetry_group_IT_number 1
_symmetry_cell_setting 'triclinic'
loop_
_space_group_symop_operation_xyz
x,y,z
loop_
_atom_site_type_symbol
_atom_site_label
_atom_site_fract_x
_atom_site_fract_y
_atom_site_fract_z
Si Si1 0.891630 0.511170 0.290740
Si Si2 0.111822 0.872040 0.829792
Si Si3 0.360293 0.822421 0.405199
Si Si4 0.026497 0.363931 0.857089
Si Si5 0.882042 0.079117 0.044008
Si Si6 0.545465 0.579927 0.949180
Si Si7 0.386329 0.137344 0.587824
Si Si8 0.756882 0.590586 0.470233
O O1 0.801745 0.683324 0.341043
O O2 0.137181 0.219404 0.485393
O O3 0.928696 0.719519 0.161619
O O4 0.706921 0.453346 0.163254
O O5 0.082847 0.575746 0.924994
O O6 0.301898 0.694177 0.856766
O O7 0.195415 0.037965 0.930853
O O8 0.884234 0.191792 0.615465
O O9 0.392895 0.467690 0.524903
O O10 0.508196 0.766920 0.366552
O O11 0.434536 0.968443 0.515799
O O12 0.099375 0.052304 0.212238
O O13 0.895323 0.619926 0.636055
O O14 0.881008 0.236367 0.883739
O O15 0.655230 0.299705 0.961932
O O16 0.535584 0.885613 0.810908
#
# Coordination Sequence:
#
# PCOD9000476 Si02
#       8
#     1   1   1   1   1   1   1   1
#     4  11  26  50  68 115 144 192 240 300 360 433
#     4  10  26  44  72 104 140 196 237 290 357 433
#     4  11  26  45  72 105 147 191 236 301 354 430
#     4  10  25  47  72 107 140 191 243 289 363 422
#     4  11  27  44  75 109 148 183 250 298 359 428
#     4  12  26  44  76 105 146 192 238 300 361 427
#     4  11  25  49  71 106 147 190 240 293 362 428
#     4  10  25  45  72 103 150 189 240 291 366 423
#
# _framework density 24.771384999999999
#
# number of rings (size 3 to 8) (size 9 to 14) (size 15 to 20)
#    0.750    0.500    2.500    0.750   12.250    3.000 
#    0.000    0.000    0.000    0.000    0.000    0.000 
#    0.000    0.000    0.000    0.000    0.000    0.000 
#
# Total GULP energy -44633.872428 kJ/mol
# GULP energy per Si atom -5579.234053 kJ/mol
# Density = 2.471500 g / cm^3
# Si number density = 24.771385 Si / 1000 Ang^3
#
#
#
# Elastic Constant Matrix: (Units=GPa)
#
#
# Indices 1 2 3 4 5 6 
#
# 1 88.1805 17.2255 12.1252 -3.0455 6.4557 -26.6723
# 2 17.2255 102.0211 21.5501 -18.0233 1.4718 -0.3637
# 3 12.1252 21.5501 75.2119 9.9606 -0.4247 0.1747
# 4 -3.0455 -18.0233 9.9606 34.6480 -5.2878 -1.8639
# 5 6.4557 1.4718 -0.4247 -5.2878 32.5345 -11.8886
# 6 -26.6723 -0.3637 0.1747 -1.8639 -11.8886 37.4944
#
#
#
# Elastic Compliance Matrix: (Units=1/GPa)
#
#
# Indices 1 2 3 4 5 6 
#
# 1 0.015450 -0.001769 -0.002259 0.001942 0.001526 0.011565
# 2 -0.001769 0.012320 -0.004241 0.007566 0.000788 -0.000493
# 3 -0.002259 -0.004241 0.015838 -0.007281 -0.001242 -0.002478
# 4 0.001942 0.007566 -0.007281 0.036449 0.007134 0.005563
# 5 0.001526 0.000788 -0.001242 0.007134 0.036276 0.012956
# 6 0.011565 -0.000493 -0.002478 0.005563 0.012956 0.039289
#
#
# Mechanical properties :
#
#
# Convention : Reuss Voigt Hill
#
# Bulk Modulus (GPa) = 36.94271 40.80168 38.87219
# Shear Modulus (GPa) = 27.59624 35.23621 31.41623
#
# Velocity S-wave (km/s) = 3.34134 3.77564 3.56511
# Velocity P-wave (km/s) = 5.46186 5.95939 5.71604
#
# Compressibility (1/GPa) = 0.02706894
#
# Stress axis : x y z
#
# Youngs Moduli (GPa) = 64.72528 81.16887 63.13854
#
# Poissons Ratio (x) = 0.14359 0.14265
# Poissons Ratio (y) = 0.11450 0.26778
# Poissons Ratio (z) = 0.14624 0.34426
#
# Static dielectric constant tensor:
#      x y z
#    x 1.964080 -0.003800 -0.005310 
#    y -0.003800 1.974860 0.035520 
#    z -0.005310 0.035520 2.006010 
# 
# From -- ./inp_files/3385.got.cif
#   From: 2010.05.17/outbox.cif.g08.bks.cpg/sg1_2_cif.got.tgz:3385.got - 2010.05.17 20:27:59.
