data_PCOD9000160
_publ_section_title
;
Structure prediction by ZEFSAII (Michael W. Deem and Ramdas Pophale) SiO2 
 PCOD9000160
Probable space group: P 1
;
_chemical_formula_sum "Si O2"
_cell_formula_units_Z 8
_cell_length_a 12.802963
_cell_length_b 5.077998
_cell_length_c 10.748817
_cell_angle_alpha 103.003616
_cell_angle_beta 33.353374
_cell_angle_gamma 113.816279
_cell_volume 342.622965
_symmetry_space_group_name_H-M "P 1"
_symmetry_group_IT_number 1
_symmetry_cell_setting 'triclinic'
loop_
_space_group_symop_operation_xyz
x,y,z
loop_
_atom_site_type_symbol
_atom_site_label
_atom_site_fract_x
_atom_site_fract_y
_atom_site_fract_z
Si Si1 0.037540 0.804670 0.663900
Si Si2 0.844384 0.281834 0.641984
Si Si3 0.326608 0.885076 0.618556
Si Si4 0.738733 0.820222 0.146064
Si Si5 0.918861 0.482957 0.107824
Si Si6 0.462477 0.853407 0.871129
Si Si7 0.578140 0.347169 0.608371
Si Si8 0.054804 0.870840 0.379474
O O1 0.200612 0.897939 0.622677
O O2 0.129359 0.958182 0.458332
O O3 0.950730 0.455740 0.679313
O O4 0.834532 0.851225 0.916368
O O5 0.865208 0.556591 0.562466
O O6 0.613168 0.037581 0.852489
O O7 0.979160 0.115202 0.434059
O O8 0.501440 0.769493 0.392375
O O9 0.442157 0.196784 0.605406
O O10 0.158560 0.672897 0.861235
O O11 0.798761 0.575909 0.127581
O O12 0.866642 0.136788 0.117400
O O13 0.810677 0.530785 0.345362
O O14 0.482837 0.549243 0.793716
O O15 0.556632 0.065791 0.681985
O O16 0.233585 0.828013 0.121839
#
# Coordination Sequence:
#
# PCOD9000160 Si02
#       8
#     1   1   1   1   1   1   1   1
#     4   9  24  43  68 102 133 168 218 271 330 391
#     4  10  24  44  64  96 133 172 218 273 312 382
#     4  10  23  45  68 101 134 172 210 276 335 393
#     4  10  22  40  65  99 135 169 213 260 331 400
#     4  10  23  43  62  97 134 173 216 261 329 389
#     4  12  25  46  69  95 132 178 224 267 324 385
#     4  11  25  43  69  99 131 174 222 270 326 392
#     4  10  24  44  67 103 126 176 223 264 333 380
#
# _framework density 23.349283
#
# number of rings (size 3 to 8) (size 9 to 14) (size 15 to 20)
#    0.750    1.000    0.000    3.000    3.500   11.000 
#    4.500    3.750    0.000    0.000    0.000    0.000 
#    0.000    0.000    0.000    0.000    0.000    0.000 
#
# Total GULP energy -44686.982938 kJ/mol
# GULP energy per Si atom -5585.872867 kJ/mol
# Density = 2.329614 g / cm^3
# Si number density = 23.349283 Si / 1000 Ang^3
#
#
#
# Elastic Constant Matrix: (Units=GPa)
#
#
# Indices 1 2 3 4 5 6 
#
# 1 66.7162 13.7678 2.9224 -2.8259 -3.5465 6.9760
# 2 13.7678 81.7341 4.1195 14.9855 -13.6743 4.0881
# 3 2.9224 4.1195 149.0407 11.2131 -16.7581 -0.5950
# 4 -2.8259 14.9855 11.2131 38.3990 -2.4691 -3.5428
# 5 -3.5465 -13.6743 -16.7581 -2.4691 38.6691 -5.6280
# 6 6.9760 4.0881 -0.5950 -3.5428 -5.6280 34.9761
#
#
#
# Elastic Compliance Matrix: (Units=1/GPa)
#
#
# Indices 1 2 3 4 5 6 
#
# 1 0.015982 -0.002943 -0.000407 0.002202 0.000007 -0.002627
# 2 -0.002943 0.014604 0.000615 -0.005885 0.004646 -0.000958
# 3 -0.000407 0.000615 0.007227 -0.002132 0.003240 0.000438
# 4 0.002202 -0.005885 -0.002132 0.029380 -0.000474 0.003112
# 5 0.000007 0.004646 0.003240 -0.000474 0.029490 0.004208
# 6 -0.002627 -0.000958 0.000438 0.003112 0.004208 0.030227
#
#
# Mechanical properties :
#
#
# Convention : Reuss Voigt Hill
#
# Bulk Modulus (GPa) = 30.91831 37.67893 34.29862
# Shear Modulus (GPa) = 34.92584 40.85426 37.89005
#
# Velocity S-wave (km/s) = 3.87175 4.18748 4.03271
# Velocity P-wave (km/s) = 5.76695 6.28905 6.03365
#
# Compressibility (1/GPa) = 0.03234329
#
# Stress axis : x y z
#
# Youngs Moduli (GPa) = 62.56944 68.47603 138.37052
#
# Poissons Ratio (x) = 0.20151 0.05637
# Poissons Ratio (y) = 0.18413 -0.08515
# Poissons Ratio (z) = 0.02549 -0.04214
#
# Static dielectric constant tensor:
#      x y z
#    x 1.966940 0.050240 0.010260 
#    y 0.050240 1.845300 -0.009680 
#    z 0.010260 -0.009680 1.871700 
# 
# From -- ./inp_files/6274.got.cif
#   From: 2010.05.17/outbox.cif.g08.bks.cpg/sg1_4_cif.got.tgz:6274.got - 2010.05.17 20:27:59.
