data_PCOD9000838
_publ_section_title
;
Structure prediction by ZEFSAII (Michael W. Deem and Ramdas Pophale) SiO2 
 PCOD9000838
Probable space group: P 1
;
_chemical_formula_sum "Si O2"
_cell_formula_units_Z 8
_cell_length_a 7.626467
_cell_length_b 7.281928
_cell_length_c 11.423291
_cell_angle_alpha 54.639177
_cell_angle_beta 139.799720
_cell_angle_gamma 123.800217
_cell_volume 325.975658
_symmetry_space_group_name_H-M "P 1"
_symmetry_group_IT_number 1
_symmetry_cell_setting 'triclinic'
loop_
_space_group_symop_operation_xyz
x,y,z
loop_
_atom_site_type_symbol
_atom_site_label
_atom_site_fract_x
_atom_site_fract_y
_atom_site_fract_z
Si Si1 0.350760 0.399470 0.348670
Si Si2 0.938247 0.481755 0.520118
Si Si3 0.571630 0.170250 0.265393
Si Si4 0.733176 0.401509 0.024167
Si Si5 0.570842 0.338037 0.715675
Si Si6 0.155268 0.498837 0.880333
Si Si7 0.214657 0.900668 0.354555
Si Si8 0.651478 0.853998 0.946758
O O1 0.642720 0.540454 0.392087
O O2 0.360531 0.406035 0.492256
O O3 0.332204 0.134326 0.398901
O O4 0.059408 0.447521 0.142537
O O5 0.824431 0.287881 0.436091
O O6 0.075276 0.425458 0.731794
O O7 0.154285 0.685901 0.490527
O O8 0.420152 0.928542 0.335753
O O9 0.674215 0.211557 0.168887
O O10 0.328429 0.320845 0.087465
O O11 0.535879 0.321265 0.842475
O O12 0.690781 0.645168 0.961400
O O13 0.866347 0.510830 0.786356
O O14 0.631496 0.094626 0.793086
O O15 0.360541 0.746206 0.898914
O O16 0.909061 0.899645 0.149129
#
# Coordination Sequence:
#
# PCOD9000838 Si02
#       8
#     1   1   1   1   1   1   1   1
#     4  10  23  41  67  93 130 167 209 267 325 368
#     4  10  20  38  66  92 124 168 212 266 309 384
#     4  10  21  38  60  93 125 168 208 263 316 372
#     4  11  23  41  62 100 131 165 210 266 321 380
#     4  11  22  45  65  93 132 167 211 270 312 384
#     4  10  20  38  66  93 123 168 217 256 322 373
#     4  11  19  41  66  90 125 170 214 255 320 378
#     4  11  22  40  68  92 124 173 211 257 321 377
#
# _framework density 24.541709999999998
#
# number of rings (size 3 to 8) (size 9 to 14) (size 15 to 20)
#    0.000    1.500    5.000    1.500    0.000    2.000 
#    6.750    0.000    0.000    0.000    0.000    0.000 
#    0.000    0.000    0.000    0.000    0.000    0.000 
#
# Total GULP energy -44696.406306 kJ/mol
# GULP energy per Si atom -5587.050788 kJ/mol
# Density = 2.448585 g / cm^3
# Si number density = 24.541710 Si / 1000 Ang^3
#
#
#
# Elastic Constant Matrix: (Units=GPa)
#
#
# Indices 1 2 3 4 5 6 
#
# 1 91.7998 29.3207 9.8891 3.3167 -22.5238 21.3439
# 2 29.3207 100.3939 36.1560 -0.9374 -13.9159 24.0231
# 3 9.8891 36.1560 142.9613 20.9952 -40.5851 -5.8140
# 4 3.3167 -0.9374 20.9952 28.7707 -3.7703 1.3388
# 5 -22.5238 -13.9159 -40.5851 -3.7703 46.8423 1.5629
# 6 21.3439 24.0231 -5.8140 1.3388 1.5629 37.1063
#
#
#
# Elastic Compliance Matrix: (Units=1/GPa)
#
#
# Indices 1 2 3 4 5 6 
#
# 1 0.015217 -0.002210 0.001834 -0.001729 0.008355 -0.007324
# 2 -0.002210 0.014401 -0.004514 0.004428 -0.000042 -0.008918
# 3 0.001834 -0.004514 0.011922 -0.008035 0.009102 0.003642
# 4 -0.001729 0.004428 -0.008035 0.040774 -0.003047 -0.004474
# 5 0.008355 -0.000042 0.009102 -0.003047 0.033149 -0.004639
# 6 -0.007324 -0.008918 0.003642 -0.004474 -0.004639 0.037863
#
#
# Mechanical properties :
#
#
# Convention : Reuss Voigt Hill
#
# Bulk Modulus (GPa) = 31.48619 53.98738 42.73678
# Shear Modulus (GPa) = 28.78655 39.86316 34.32486
#
# Velocity S-wave (km/s) = 3.42857 4.03464 3.74389
# Velocity P-wave (km/s) = 5.34144 6.61441 6.01171
#
# Compressibility (1/GPa) = 0.03175996
#
# Stress axis : x y z
#
# Youngs Moduli (GPa) = 65.71645 69.43756 83.88070
#
# Poissons Ratio (x) = 0.15348 -0.15386
# Poissons Ratio (y) = 0.14525 0.37864
# Poissons Ratio (z) = -0.12054 0.31344
#
# Static dielectric constant tensor:
#      x y z
#    x 2.078140 -0.004310 -0.033470 
#    y -0.004310 1.927020 -0.020830 
#    z -0.033470 -0.020830 1.911830 
# 
# From -- ./inp_files/4308.got.cif
#   From: 2010.05.17/outbox.cif.g08.bks.cpg/sg1_3_cif.got.tgz:4308.got - 2010.05.17 20:27:59.
