data_PCOD9000096
_publ_section_title
;
Structure prediction by ZEFSAII (Michael W. Deem and Ramdas Pophale) SiO2 
 PCOD9000096
Probable space group: P 1
;
_chemical_formula_sum "Si O2"
_cell_formula_units_Z 8
_cell_length_a 11.677654
_cell_length_b 5.103655
_cell_length_c 5.073990
_cell_angle_alpha 90.889825
_cell_angle_beta 92.626316
_cell_angle_gamma 78.383848
_cell_volume 295.892360
_symmetry_space_group_name_H-M "P 1"
_symmetry_group_IT_number 1
_symmetry_cell_setting 'triclinic'
loop_
_space_group_symop_operation_xyz
x,y,z
loop_
_atom_site_type_symbol
_atom_site_label
_atom_site_fract_x
_atom_site_fract_y
_atom_site_fract_z
Si Si1 0.334710 0.813760 0.222610
Si Si2 0.174741 0.894106 0.702414
Si Si3 0.735730 0.328136 0.168842
Si Si4 0.981422 0.122354 0.047262
Si Si5 0.016363 0.604611 0.426995
Si Si6 0.473467 0.371663 0.952769
Si Si7 0.766607 0.819857 0.502147
Si Si8 0.510371 0.860068 0.623801
O O1 0.250723 0.923641 0.456607
O O2 0.458631 0.889417 0.322267
O O3 0.256537 0.897985 0.961642
O O4 0.378580 0.495142 0.163895
O O5 0.127798 0.623214 0.618815
O O6 0.055762 0.090113 0.787356
O O7 0.842338 0.208264 0.985853
O O8 0.747091 0.625530 0.253849
O O9 0.759987 0.122006 0.412598
O O10 0.605027 0.323287 0.073326
O O11 0.015576 0.345056 0.248245
O O12 0.007242 0.846040 0.213204
O O13 0.898361 0.685306 0.592748
O O14 0.471253 0.605589 0.740878
O O15 0.456179 0.117244 0.788762
O O16 0.650553 0.817514 0.656508
#
# Coordination Sequence:
#
# PCOD9000096 Si02
#       8
#     1   1   1   1   1   1   1   1
#     4  12  28  52  76 112 152 204 254 308 370 454
#     4  12  26  52  78 108 156 200 256 306 372 452
#     4  10  21  43  75 109 153 191 247 311 378 448
#     4  10  24  47  74 113 149 197 249 310 377 443
#     4  10  24  47  74 113 149 197 249 310 377 443
#     4  12  27  47  74 113 152 198 250 311 379 444
#     4  10  21  43  75 109 153 191 247 311 378 448
#     4  12  27  47  74 113 152 198 250 311 379 444
#
# _framework density 27.036859
#
# number of rings (size 3 to 8) (size 9 to 14) (size 15 to 20)
#    0.000    1.000    3.750    1.500    1.750    3.000 
#    0.000    0.000    0.000    0.000    0.000    0.000 
#    0.000    0.000    0.000    0.000    0.000    0.000 
#
# Total GULP energy -44815.325404 kJ/mol
# GULP energy per Si atom -5601.915676 kJ/mol
# Density = 2.697532 g / cm^3
# Si number density = 27.036859 Si / 1000 Ang^3
#
#
#
# Elastic Constant Matrix: (Units=GPa)
#
#
# Indices 1 2 3 4 5 6 
#
# 1 150.1659 18.9680 49.3291 10.4548 -7.2282 -14.8506
# 2 18.9680 122.1331 48.1196 16.8844 -10.0173 3.0882
# 3 49.3291 48.1196 156.0495 20.9675 -0.8920 -7.2047
# 4 10.4548 16.8844 20.9675 39.0457 -6.6715 -8.7857
# 5 -7.2282 -10.0173 -0.8920 -6.6715 55.4086 14.4448
# 6 -14.8506 3.0882 -7.2047 -8.7857 14.4448 49.2065
#
#
#
# Elastic Compliance Matrix: (Units=1/GPa)
#
#
# Indices 1 2 3 4 5 6 
#
# 1 0.007639 -0.000298 -0.002202 -0.000252 0.000397 0.001840
# 2 -0.000298 0.009899 -0.002653 -0.002940 0.001925 -0.002190
# 3 -0.002202 -0.002653 0.008317 -0.002796 -0.001112 0.000547
# 4 -0.000252 -0.002940 -0.002796 0.029769 0.001806 0.004484
# 5 0.000397 0.001925 -0.001112 0.001806 0.020148 -0.005756
# 6 0.001840 -0.002190 0.000547 0.004484 -0.005756 0.023586
#
#
# Mechanical properties :
#
#
# Convention : Reuss Voigt Hill
#
# Bulk Modulus (GPa) = 64.31348 73.46465 68.88907
# Shear Modulus (GPa) = 43.53641 49.52763 46.53202
#
# Velocity S-wave (km/s) = 4.01716 4.28466 4.15307
# Velocity P-wave (km/s) = 6.73467 7.19088 6.96651
#
# Compressibility (1/GPa) = 0.01554884
#
# Stress axis : x y z
#
# Youngs Moduli (GPa) = 130.90959 101.01869 120.23506
#
# Poissons Ratio (x) = 0.03010 0.26472
# Poissons Ratio (y) = 0.03901 0.31903
# Poissons Ratio (z) = 0.28823 0.26804
#
# Static dielectric constant tensor:
#      x y z
#    x 2.118930 -0.011900 -0.025240 
#    y -0.011900 2.106710 -0.070250 
#    z -0.025240 -0.070250 2.143780 
# 
# From -- ./inp_files/1982.got.cif
#   From: 2010.05.17/outbox.cif.g08.bks.cpg/sg1_1_cif.got.tgz:1982.got - 2010.05.17 20:27:59.
