data_PCOD9000796
_publ_section_title
;
Structure prediction by ZEFSAII (Michael W. Deem and Ramdas Pophale) SiO2 
 PCOD9000796
Probable space group: P 1
;
_chemical_formula_sum "Si O2"
_cell_formula_units_Z 8
_cell_length_a 12.010479
_cell_length_b 9.542248
_cell_length_c 8.144615
_cell_angle_alpha 108.579777
_cell_angle_beta 61.378581
_cell_angle_gamma 153.689070
_cell_volume 348.149401
_symmetry_space_group_name_H-M "P 1"
_symmetry_group_IT_number 1
_symmetry_cell_setting 'triclinic'
loop_
_space_group_symop_operation_xyz
x,y,z
loop_
_atom_site_type_symbol
_atom_site_label
_atom_site_fract_x
_atom_site_fract_y
_atom_site_fract_z
Si Si1 0.608190 0.764830 0.251180
Si Si2 0.139977 0.676590 0.146669
Si Si3 0.759927 0.600249 0.145161
Si Si4 0.324741 0.244158 0.815310
Si Si5 0.575146 0.032675 0.476522
Si Si6 0.557435 0.229215 0.832544
Si Si7 0.342445 0.047609 0.459291
Si Si8 0.291857 0.512177 0.040661
O O1 0.572507 0.554813 0.238830
O O2 0.450120 0.638597 0.145853
O O3 0.500291 0.783169 0.454428
O O4 0.950024 0.138509 0.146002
O O5 0.327446 0.722094 0.053000
O O6 0.819224 0.295279 0.263335
O O7 0.203803 0.857865 0.315675
O O8 0.239468 0.848891 0.969612
O O9 0.660418 0.427929 0.322218
O O10 0.696076 0.418959 0.976160
O O11 0.080680 0.981552 0.028490
O O12 0.556052 0.372489 0.771908
O O13 0.223785 0.060771 0.651317
O O14 0.399567 0.493639 0.837420
O O15 0.676104 0.216067 0.640515
O O16 0.343837 0.904343 0.519920
#
# Coordination Sequence:
#
# PCOD9000796 Si02
#       8
#     1   1   1   1   1   1   1   1
#     4  10  20  37  60  81 115 153 188 233 287 337
#     4  10  20  35  56  79 112 144 190 227 287 328
#     4  10  20  35  56  79 112 144 190 227 287 328
#     4  10  20  35  56  79 112 144 190 227 287 328
#     4  10  20  35  56  79 112 144 190 227 287 328
#     4  10  20  34  56  82 108 146 186 236 276 340
#     4  10  20  34  56  82 108 146 186 236 276 340
#     4  10  20  37  60  81 115 153 188 233 287 337
#
# _framework density 22.978639000000001
#
# number of rings (size 3 to 8) (size 9 to 14) (size 15 to 20)
#    0.000    2.000    2.500    1.500    0.000    1.000 
#    0.000    0.000    0.000    6.000    0.000    0.000 
#    0.000    0.000    0.000    0.000    0.000    0.000 
#
# Total GULP energy -44573.716952 kJ/mol
# GULP energy per Si atom -5571.714619 kJ/mol
# Density = 2.292634 g / cm^3
# Si number density = 22.978639 Si / 1000 Ang^3
#
#
#
# Elastic Constant Matrix: (Units=GPa)
#
#
# Indices 1 2 3 4 5 6 
#
# 1 112.9225 24.0160 35.9861 36.3082 -8.5469 -16.8246
# 2 24.0160 60.5570 29.9092 18.2671 -7.0570 -1.1867
# 3 35.9861 29.9092 92.3086 19.5079 -16.7565 -21.9166
# 4 36.3082 18.2671 19.5079 44.6477 -19.5214 -15.7471
# 5 -8.5469 -7.0570 -16.7565 -19.5214 27.3626 9.3852
# 6 -16.8246 -1.1867 -21.9166 -15.7471 9.3852 37.6635
#
#
#
# Elastic Compliance Matrix: (Units=1/GPa)
#
#
# Indices 1 2 3 4 5 6 
#
# 1 0.013591 -0.000799 -0.003612 -0.011933 -0.006919 0.000679
# 2 -0.000799 0.022750 -0.007323 -0.009279 -0.003081 -0.007013
# 3 -0.003612 -0.007323 0.016962 0.004911 0.008110 0.008058
# 4 -0.011933 -0.009279 0.004911 0.050332 0.029005 0.011051
# 5 -0.006919 -0.003081 0.008110 0.029005 0.059665 -0.001210
# 6 0.000679 -0.007013 0.008058 0.011051 -0.001210 0.036244
#
#
# Mechanical properties :
#
#
# Convention : Reuss Voigt Hill
#
# Bulk Modulus (GPa) = 33.51998 49.51230 41.51614
# Shear Modulus (GPa) = 21.46313 33.65986 27.56150
#
# Velocity S-wave (km/s) = 3.05953 3.83147 3.46705
# Velocity P-wave (km/s) = 5.20578 6.41618 5.84241
#
# Compressibility (1/GPa) = 0.02983295
#
# Stress axis : x y z
#
# Youngs Moduli (GPa) = 73.57750 43.95642 58.95556
#
# Poissons Ratio (x) = 0.03513 0.21298
# Poissons Ratio (y) = 0.05881 0.43174
# Poissons Ratio (z) = 0.26580 0.32190
#
# Static dielectric constant tensor:
#      x y z
#    x 1.939300 -0.013000 -0.073690 
#    y -0.013000 1.987630 -0.027300 
#    z -0.073690 -0.027300 1.891130 
# 
# From -- ./inp_files/1181.got.cif
#   From: 2010.05.17/outbox.cif.g08.bks.cpg/sg1_1_cif.got.tgz:1181.got - 2010.05.17 20:27:59.
