data_PCOD9000592
_publ_section_title
;
Structure prediction by ZEFSAII (Michael W. Deem and Ramdas Pophale) SiO2 
 PCOD9000592
Probable space group: P 1
;
_chemical_formula_sum "Si O2"
_cell_formula_units_Z 8
_cell_length_a 13.840187
_cell_length_b 5.485223
_cell_length_c 10.860716
_cell_angle_alpha 56.019253
_cell_angle_beta 31.799916
_cell_angle_gamma 46.266855
_cell_volume 313.051716
_symmetry_space_group_name_H-M "P 1"
_symmetry_group_IT_number 1
_symmetry_cell_setting 'triclinic'
loop_
_space_group_symop_operation_xyz
x,y,z
loop_
_atom_site_type_symbol
_atom_site_label
_atom_site_fract_x
_atom_site_fract_y
_atom_site_fract_z
Si Si1 0.319200 0.090000 0.625000
Si Si2 0.654347 0.722895 0.005579
Si Si3 0.790112 0.316967 0.576283
Si Si4 0.514835 0.296227 0.674431
Si Si5 0.076789 0.617379 0.521566
Si Si6 0.479940 0.500711 0.041656
Si Si7 0.082447 0.411286 0.037916
Si Si8 0.734232 0.120360 0.244885
O O1 0.207342 0.336434 0.561561
O O2 0.527450 0.115892 0.420741
O O3 0.411446 0.689708 0.629426
O O4 0.157677 0.225790 0.877655
O O5 0.871078 0.584544 0.731875
O O6 0.494744 0.663222 0.109140
O O7 0.711647 0.471607 0.129187
O O8 0.585564 0.090754 0.033282
O O9 0.627034 0.238306 0.699352
O O10 0.918044 0.373807 0.314228
O O11 0.616246 0.594743 0.775312
O O12 0.961665 0.019333 0.560347
O O13 0.703698 0.097365 0.429289
O O14 0.302278 0.274660 0.910222
O O15 0.239833 0.596860 0.246991
O O16 0.951199 0.815794 0.044760
#
# Coordination Sequence:
#
# PCOD9000592 Si02
#       8
#     1   1   1   1   1   1   1   1
#     4  11  24  48  75 108 145 194 259 312 373 453
#     4  11  26  46  76 113 151 200 252 315 378 448
#     4  11  28  46  74 110 151 197 247 307 384 459
#     4  11  26  47  73 108 145 198 251 311 377 457
#     4  11  26  46  78 108 153 198 252 314 381 447
#     4  11  27  49  72 110 159 198 252 310 380 457
#     4  11  27  44  78 105 149 197 253 310 382 446
#     4  11  24  44  78 108 151 192 258 317 375 449
#
# _framework density 25.554883
#
# number of rings (size 3 to 8) (size 9 to 14) (size 15 to 20)
#    0.000    1.000    2.500    1.500    8.750    8.000 
#    0.000    0.000    0.000    0.000    0.000    0.000 
#    0.000    0.000    0.000    0.000    0.000    0.000 
#
# Total GULP energy -44653.950032 kJ/mol
# GULP energy per Si atom -5581.743754 kJ/mol
# Density = 2.549672 g / cm^3
# Si number density = 25.554883 Si / 1000 Ang^3
#
#
#
# Elastic Constant Matrix: (Units=GPa)
#
#
# Indices 1 2 3 4 5 6 
#
# 1 71.0585 1.3531 -5.9106 3.8191 -3.7232 -8.1507
# 2 1.3531 106.9285 22.9760 16.4405 -0.9300 -16.5769
# 3 -5.9106 22.9760 170.4491 9.6128 -1.8450 1.9538
# 4 3.8191 16.4405 9.6128 48.4510 -0.7362 0.1754
# 5 -3.7232 -0.9300 -1.8450 -0.7362 33.3848 -0.7212
# 6 -8.1507 -16.5769 1.9538 0.1754 -0.7212 37.3689
#
#
#
# Elastic Compliance Matrix: (Units=1/GPa)
#
#
# Indices 1 2 3 4 5 6 
#
# 1 0.014663 0.000466 0.000504 -0.001400 0.001719 0.003419
# 2 0.000466 0.010954 -0.001317 -0.003506 0.000316 0.005052
# 3 0.000504 -0.001317 0.006119 -0.000799 0.000323 -0.000784
# 4 -0.001400 -0.003506 -0.000799 0.022107 0.000148 -0.001920
# 5 0.001719 0.000316 0.000323 0.000148 0.030199 0.001080
# 6 0.003419 0.005052 -0.000784 -0.001920 0.001080 0.029818
#
#
# Mechanical properties :
#
#
# Convention : Reuss Voigt Hill
#
# Bulk Modulus (GPa) = 32.21286 42.80811 37.51049
# Shear Modulus (GPa) = 40.03122 45.84210 42.93666
#
# Velocity S-wave (km/s) = 3.96217 4.24000 4.10344
# Velocity P-wave (km/s) = 5.79349 6.38420 6.09600
#
# Compressibility (1/GPa) = 0.03104350
#
# Stress axis : x y z
#
# Youngs Moduli (GPa) = 68.19694 91.28885 163.41360
#
# Poissons Ratio (x) = -0.04258 -0.08236
# Poissons Ratio (y) = -0.03181 0.21525
# Poissons Ratio (z) = -0.03437 0.12024
#
# Static dielectric constant tensor:
#      x y z
#    x 1.966280 0.031700 0.015570 
#    y 0.031700 2.094350 -0.046160 
#    z 0.015570 -0.046160 2.029520 
# 
# From -- ./inp_files/2499.got.cif
#   From: 2010.05.17/outbox.cif.g08.bks.cpg/sg1_2_cif.got.tgz:2499.got - 2010.05.17 20:27:59.
