data_PCOD9000196
_publ_section_title
;
Structure prediction by ZEFSAII (Michael W. Deem and Ramdas Pophale) SiO2 
 PCOD9000196
Probable space group: P 1
;
_chemical_formula_sum "Si O2"
_cell_formula_units_Z 8
_cell_length_a 4.956180
_cell_length_b 6.066006
_cell_length_c 12.341247
_cell_angle_alpha 97.058215
_cell_angle_beta 74.831653
_cell_angle_gamma 99.376513
_cell_volume 352.062283
_symmetry_space_group_name_H-M "P 1"
_symmetry_group_IT_number 1
_symmetry_cell_setting 'triclinic'
loop_
_space_group_symop_operation_xyz
x,y,z
loop_
_atom_site_type_symbol
_atom_site_label
_atom_site_fract_x
_atom_site_fract_y
_atom_site_fract_z
Si Si1 0.492640 0.628720 0.673170
Si Si2 0.361250 0.024917 0.343771
Si Si3 0.649395 0.654759 0.900846
Si Si4 0.693642 0.246966 0.743648
Si Si5 0.813921 0.450995 0.266635
Si Si6 0.772676 0.849258 0.453752
Si Si7 0.111937 0.942617 0.762427
Si Si8 0.402698 0.625063 0.157329
O O1 0.491892 0.676663 0.804839
O O2 0.618148 0.391705 0.654310
O O3 0.689606 0.783708 0.580079
O O4 0.189301 0.711815 0.683205
O O5 0.501890 0.912497 0.423110
O O6 0.341563 0.856190 0.233287
O O7 0.040341 0.037276 0.414552
O O8 0.585096 0.239714 0.305829
O O9 0.747965 0.413464 0.851578
O O10 0.905158 0.855516 0.877285
O O11 0.466714 0.652474 0.026182
O O12 0.398225 0.089322 0.778256
O O13 0.952338 0.104242 0.713010
O O14 0.835489 0.620973 0.375610
O O15 0.678814 0.565846 0.186016
O O16 0.136503 0.435755 0.199739
#
# Coordination Sequence:
#
# PCOD9000196 Si02
#       8
#     1   1   1   1   1   1   1   1
#     4  10  25  44  65  99 141 173 216 275 326 398
#     4  10  22  42  67  93 122 168 221 271 327 382
#     4  10  25  42  64  98 139 172 214 273 327 397
#     4  10  24  39  64  91 135 179 221 258 323 394
#     4  10  22  43  65  94 123 167 219 274 323 382
#     4  10  23  42  64  93 129 168 216 272 326 384
#     4  12  22  44  62  93 137 181 218 260 323 398
#     4  10  23  40  67  93 130 164 215 271 329 383
#
# _framework density 22.72325
#
# number of rings (size 3 to 8) (size 9 to 14) (size 15 to 20)
#    0.750    1.000    1.250    1.500    3.500    3.000 
#    0.000    2.500    0.000    0.000    0.000    0.000 
#    0.000    0.000    0.000    0.000    0.000    0.000 
#
# Total GULP energy -44546.229167 kJ/mol
# GULP energy per Si atom -5568.278646 kJ/mol
# Density = 2.267153 g / cm^3
# Si number density = 22.723250 Si / 1000 Ang^3
#
#
#
# Elastic Constant Matrix: (Units=GPa)
#
#
# Indices 1 2 3 4 5 6 
#
# 1 93.6070 22.5892 26.9459 3.6786 -20.1934 -11.0491
# 2 22.5892 72.2519 22.8951 -11.9045 -2.1597 1.2083
# 3 26.9459 22.8951 105.0430 -10.6384 7.4488 -10.6133
# 4 3.6786 -11.9045 -10.6384 18.8936 6.2843 -6.7636
# 5 -20.1934 -2.1597 7.4488 6.2843 22.9922 -7.9845
# 6 -11.0491 1.2083 -10.6133 -6.7636 -7.9845 40.6979
#
#
#
# Elastic Compliance Matrix: (Units=1/GPa)
#
#
# Indices 1 2 3 4 5 6 
#
# 1 0.022775 -0.007321 -0.007812 -0.020984 0.029924 0.006747
# 2 -0.007321 0.018459 -0.000083 0.015525 -0.009555 -0.001852
# 3 -0.007812 -0.000083 0.014242 0.014931 -0.015182 0.001098
# 4 -0.020984 0.015525 0.014931 0.091787 -0.045484 0.004067
# 5 0.029924 -0.009555 -0.015182 -0.045484 0.091373 0.014816
# 6 0.006747 -0.001852 0.001098 0.004067 0.014816 0.030327
#
#
# Mechanical properties :
#
#
# Convention : Reuss Voigt Hill
#
# Bulk Modulus (GPa) = 39.92890 46.19582 43.06236
# Shear Modulus (GPa) = 16.24747 29.74817 22.99782
#
# Velocity S-wave (km/s) = 2.67688 3.62214 3.18478
# Velocity P-wave (km/s) = 5.21193 6.15363 5.70225
#
# Compressibility (1/GPa) = 0.02504452
#
# Stress axis : x y z
#
# Youngs Moduli (GPa) = 43.90839 54.17528 70.21661
#
# Poissons Ratio (x) = 0.39659 0.54854
# Poissons Ratio (y) = 0.32143 0.00580
# Poissons Ratio (z) = 0.34302 0.00447
#
# Static dielectric constant tensor:
#      x y z
#    x 1.888060 -0.030590 -0.019870 
#    y -0.030590 1.987690 0.014540 
#    z -0.019870 0.014540 1.793050 
# 
# From -- ./inp_files/6897.got.cif
#   From: 2010.05.17/outbox.cif.g08.bks.cpg/sg1_4_cif.got.tgz:6897.got - 2010.05.17 20:27:59.
