data_PCOD9000398
_publ_section_title
;
Structure prediction by ZEFSAII (Michael W. Deem and Ramdas Pophale) SiO2 
 PCOD9000398
Probable space group: P 1
;
_chemical_formula_sum "Si O2"
_cell_formula_units_Z 8
_cell_length_a 5.082665
_cell_length_b 10.243682
_cell_length_c 8.298113
_cell_angle_alpha 60.358982
_cell_angle_beta 53.800889
_cell_angle_gamma 75.871669
_cell_volume 302.311889
_symmetry_space_group_name_H-M "P 1"
_symmetry_group_IT_number 1
_symmetry_cell_setting 'triclinic'
loop_
_space_group_symop_operation_xyz
x,y,z
loop_
_atom_site_type_symbol
_atom_site_label
_atom_site_fract_x
_atom_site_fract_y
_atom_site_fract_z
Si Si1 0.102380 0.355380 0.684200
Si Si2 0.190865 0.797569 0.915014
Si Si3 0.114125 0.276791 0.301596
Si Si4 0.720020 0.558966 0.331915
Si Si5 0.144194 0.897431 0.234199
Si Si6 0.767883 0.628237 0.656505
Si Si7 0.469061 0.198580 0.912364
Si Si8 0.564757 0.075565 0.458183
O O1 0.391892 0.468934 0.444343
O O2 0.269394 0.233944 0.804679
O O3 0.388132 0.206659 0.354233
O O4 0.891552 0.476310 0.778411
O O5 0.463631 0.691092 0.817073
O O6 0.284967 0.953485 0.694962
O O7 0.213551 0.834691 0.072763
O O8 0.841172 0.703094 0.094112
O O9 0.989466 0.436680 0.294206
O O10 0.839408 0.262667 0.727107
O O11 0.810640 0.151462 0.457056
O O12 0.692988 0.597105 0.510583
O O13 0.062869 0.760168 0.469171
O O14 0.811509 0.987265 0.309976
O O15 0.427147 0.026006 0.086911
O O16 0.285032 0.290203 0.057184
#
# Coordination Sequence:
#
# PCOD9000398 Si02
#       8
#     1   1   1   1   1   1   1   1
#     4  12  25  47  73 106 148 189 239 299 355 424
#     4  10  23  50  75 107 143 199 238 293 364 426
#     4  11  25  48  73 109 143 185 241 297 359 429
#     4  11  26  46  74 109 147 190 242 295 358 430
#     4   9  22  47  75 109 143 191 240 300 357 428
#     4  10  23  50  72 106 150 189 242 299 351 432
#     4  11  24  47  77 104 145 191 236 301 364 418
#     4  10  24  49  73 108 145 180 242 302 352 429
#
# _framework density 26.462736
#
# number of rings (size 3 to 8) (size 9 to 14) (size 15 to 20)
#    0.000    1.500    1.250    2.250    3.500    0.000 
#   33.750    0.000    0.000    0.000    0.000    0.000 
#    0.000    0.000    0.000    0.000    0.000    0.000 
#
# Total GULP energy -44818.778531 kJ/mol
# GULP energy per Si atom -5602.347316 kJ/mol
# Density = 2.640251 g / cm^3
# Si number density = 26.462736 Si / 1000 Ang^3
#
#
#
# Elastic Constant Matrix: (Units=GPa)
#
#
# Indices 1 2 3 4 5 6 
#
# 1 115.2087 35.8038 15.5838 -19.1871 -1.0163 5.7263
# 2 35.8038 142.2607 40.9059 17.1688 -8.0465 -5.1917
# 3 15.5838 40.9059 136.0268 -19.7991 -23.3243 15.9345
# 4 -19.1871 17.1688 -19.7991 73.1170 10.4268 -15.1543
# 5 -1.0163 -8.0465 -23.3243 10.4268 18.9469 -7.6111
# 6 5.7263 -5.1917 15.9345 -15.1543 -7.6111 36.6463
#
#
#
# Elastic Compliance Matrix: (Units=1/GPa)
#
#
# Indices 1 2 3 4 5 6 
#
# 1 0.010355 -0.003259 -0.000127 0.003695 -0.003510 -0.001226
# 2 -0.003259 0.009347 -0.002643 -0.003824 0.003500 0.002128
# 3 -0.000127 -0.002643 0.010330 0.001528 0.009878 -0.002163
# 4 0.003695 -0.003824 0.001528 0.017897 -0.007787 0.004000
# 5 -0.003510 0.003500 0.009878 -0.007787 0.074106 0.008920
# 6 -0.001226 0.002128 -0.002163 0.004000 0.008920 0.032228
#
#
# Mechanical properties :
#
#
# Convention : Reuss Voigt Hill
#
# Bulk Modulus (GPa) = 55.63433 64.23146 59.93289
# Shear Modulus (GPa) = 29.01691 45.82223 37.41957
#
# Velocity S-wave (km/s) = 3.31497 4.16574 3.76446
# Velocity P-wave (km/s) = 5.97673 6.88933 6.44919
#
# Compressibility (1/GPa) = 0.01797451
#
# Stress axis : x y z
#
# Youngs Moduli (GPa) = 96.57052 106.99056 96.80177
#
# Poissons Ratio (x) = 0.34867 0.01228
# Poissons Ratio (y) = 0.31471 0.25585
# Poissons Ratio (z) = 0.01225 0.28278
#
# Static dielectric constant tensor:
#      x y z
#    x 2.046840 0.042550 -0.020860 
#    y 0.042550 2.093330 0.011450 
#    z -0.020860 0.011450 2.098810 
# 
# From -- ./inp_files/1558.got.cif
#   From: 2010.05.17/outbox.cif.g08.bks.cpg/sg1_1_cif.got.tgz:1558.got - 2010.05.17 20:27:59.
