data_PCOD9000652
_publ_section_title
;
Structure prediction by ZEFSAII (Michael W. Deem and Ramdas Pophale) SiO2 
 PCOD9000652
Probable space group: P 1
;
_chemical_formula_sum "Si O2"
_cell_formula_units_Z 8
_cell_length_a 9.577466
_cell_length_b 7.612655
_cell_length_c 6.703354
_cell_angle_alpha 111.802089
_cell_angle_beta 44.408489
_cell_angle_gamma 90.002189
_cell_volume 289.868417
_symmetry_space_group_name_H-M "P 1"
_symmetry_group_IT_number 1
_symmetry_cell_setting 'triclinic'
loop_
_space_group_symop_operation_xyz
x,y,z
loop_
_atom_site_type_symbol
_atom_site_label
_atom_site_fract_x
_atom_site_fract_y
_atom_site_fract_z
Si Si1 0.164810 0.884070 0.385260
Si Si2 0.529102 0.242306 0.343265
Si Si3 0.212837 0.787731 0.707079
Si Si4 0.484035 0.030151 0.675862
Si Si5 0.848102 0.287770 0.707139
Si Si6 0.218018 0.384009 0.385175
Si Si7 0.608113 0.530202 0.675934
Si Si8 0.895692 0.742311 0.343261
O O1 0.115258 0.949843 0.693887
O O2 0.023424 0.753252 0.415784
O O3 0.422665 0.747721 0.034000
O O4 0.063491 0.071830 0.410539
O O5 0.577265 0.064830 0.383072
O O6 0.328867 0.253233 0.415748
O O7 0.486020 0.442817 0.607581
O O8 0.707008 0.250804 0.010442
O O9 0.294032 0.571804 0.410486
O O10 0.384353 0.860659 0.666095
O O11 0.050637 0.750781 0.010412
O O12 0.717570 0.360727 0.666178
O O13 0.311418 0.247666 0.033920
O O14 0.958951 0.449828 0.693845
O O15 0.674474 0.942817 0.607544
O O16 0.807679 0.564861 0.383119
#
# Coordination Sequence:
#
# PCOD9000652 Si02
#       8
#     1   1   1   1   1   1   1   1
#     4  12  26  48  76 111 158 204 254 321 388 459
#     4  12  25  47  77 112 155 202 257 321 386 461
#     4  12  27  48  76 112 155 204 258 319 389 462
#     4  12  28  49  77 115 156 202 261 321 385 466
#     4  12  27  48  76 112 155 204 258 319 389 462
#     4  12  26  48  76 111 158 204 254 321 388 459
#     4  12  28  49  77 115 156 202 261 321 385 466
#     4  12  25  47  77 112 155 202 257 321 386 461
#
# _framework density 27.598728000000001
#
# number of rings (size 3 to 8) (size 9 to 14) (size 15 to 20)
#    0.000    0.000    0.000   10.500    0.000    6.000 
#    0.000    0.000    0.000    0.000    0.000    0.000 
#    0.000    0.000    0.000    0.000    0.000    0.000 
#
# Total GULP energy -44825.348393 kJ/mol
# GULP energy per Si atom -5603.168549 kJ/mol
# Density = 2.753591 g / cm^3
# Si number density = 27.598728 Si / 1000 Ang^3
#
#
#
# Elastic Constant Matrix: (Units=GPa)
#
#
# Indices 1 2 3 4 5 6 
#
# 1 165.9108 28.2455 53.0356 -7.5608 -1.1732 0.4243
# 2 28.2455 145.0007 65.5371 -25.5161 6.2624 -2.2272
# 3 53.0356 65.5371 119.5341 -40.0025 6.2742 -5.3726
# 4 -7.5608 -25.5161 -40.0025 53.4307 -5.9087 1.2389
# 5 -1.1732 6.2624 6.2742 -5.9087 37.4476 -7.9868
# 6 0.4243 -2.2272 -5.3726 1.2389 -7.9868 61.4276
#
#
#
# Elastic Compliance Matrix: (Units=1/GPa)
#
#
# Indices 1 2 3 4 5 6 
#
# 1 0.007171 -0.000015 -0.003809 -0.001780 0.000525 -0.000279
# 2 -0.000015 0.009212 -0.004762 0.000763 -0.000662 -0.000184
# 3 -0.003809 -0.004762 0.015702 0.008882 -0.000338 0.001004
# 4 -0.001780 0.000763 0.008882 0.025743 0.002524 0.000626
# 5 0.000525 -0.000662 -0.000338 0.002524 0.028041 0.003538
# 6 -0.000279 -0.000184 0.001004 0.000626 0.003538 0.016810
#
#
# Mechanical properties :
#
#
# Convention : Reuss Voigt Hill
#
# Bulk Modulus (GPa) = 67.06011 80.45356 73.75684
# Shear Modulus (GPa) = 40.05756 49.36968 44.71362
#
# Velocity S-wave (km/s) = 3.81389 4.23406 4.02945
# Velocity P-wave (km/s) = 6.61403 7.28817 6.95927
#
# Compressibility (1/GPa) = 0.01491199
#
# Stress axis : x y z
#
# Youngs Moduli (GPa) = 139.45398 108.55600 63.68709
#
# Poissons Ratio (x) = 0.00168 0.24257
# Poissons Ratio (y) = 0.00216 0.30327
# Poissons Ratio (z) = 0.53115 0.51694
#
# Static dielectric constant tensor:
#      x y z
#    x 2.167260 -0.019310 -0.010660 
#    y -0.019310 2.331760 0.074040 
#    z -0.010660 0.074040 2.180210 
# 
# From -- ./inp_files/5460.got.cif
#   From: 2010.05.17/outbox.cif.g08.bks.cpg/sg1_3_cif.got.tgz:5460.got - 2010.05.17 20:27:59.
