data_PCOD9000854
_publ_section_title
;
Structure prediction by ZEFSAII (Michael W. Deem and Ramdas Pophale) SiO2 
 PCOD9000854
Probable space group: P 1
;
_chemical_formula_sum "Si O2"
_cell_formula_units_Z 8
_cell_length_a 7.177119
_cell_length_b 6.997205
_cell_length_c 9.283045
_cell_angle_alpha 116.638573
_cell_angle_beta 47.499646
_cell_angle_gamma 122.452546
_cell_volume 287.262127
_symmetry_space_group_name_H-M "P 1"
_symmetry_group_IT_number 1
_symmetry_cell_setting 'triclinic'
loop_
_space_group_symop_operation_xyz
x,y,z
loop_
_atom_site_type_symbol
_atom_site_label
_atom_site_fract_x
_atom_site_fract_y
_atom_site_fract_z
Si Si1 0.865040 0.396190 0.352350
Si Si2 0.209676 0.889559 0.208888
Si Si3 0.901883 0.210077 0.560912
Si Si4 0.568863 0.888067 0.258796
Si Si5 0.484350 0.882247 0.802892
Si Si6 0.352505 0.406040 0.783689
Si Si7 0.033181 0.918817 0.700571
Si Si8 0.707148 0.526106 0.929865
O O1 0.980370 0.391124 0.451812
O O2 0.802812 0.132495 0.248798
O O3 0.574333 0.401417 0.548207
O O4 0.014248 0.624421 0.256818
O O5 0.487444 0.900609 0.139965
O O6 0.105251 0.075526 0.398773
O O7 0.308184 0.984778 0.029870
O O8 0.602135 0.007630 0.634600
O O9 0.833574 0.326637 0.779018
O O10 0.292378 0.885932 0.478349
O O11 0.621311 0.645925 0.152988
O O12 0.767090 0.874374 0.723566
O O13 0.289396 0.621851 0.833375
O O14 0.120403 0.167578 0.807216
O O15 0.474873 0.447009 0.896687
O O16 0.944276 0.740861 0.814587
#
# Coordination Sequence:
#
# PCOD9000854 Si02
#       8
#     1   1   1   1   1   1   1   1
#     4  10  24  44  72  99 138 180 230 284 344 405
#     4  12  23  44  72 101 136 183 230 285 337 406
#     4  11  24  47  68 102 146 177 226 287 345 408
#     4  11  21  41  74  98 129 183 230 277 341 407
#     4  11  22  39  69 100 134 176 229 277 340 399
#     4   9  18  40  66  93 129 179 218 278 334 398
#     4  10  20  39  65  98 130 175 226 274 330 403
#     4  10  22  40  66  99 134 177 223 278 345 404
#
# _framework density 27.849128
#
# number of rings (size 3 to 8) (size 9 to 14) (size 15 to 20)
#    0.000    1.500    5.000    1.500    1.750    2.000 
#    0.000   12.500    0.000    0.000    0.000    0.000 
#    0.000    0.000    0.000    0.000    0.000    0.000 
#
# Total GULP energy -44605.523756 kJ/mol
# GULP energy per Si atom -5575.690469 kJ/mol
# Density = 2.778574 g / cm^3
# Si number density = 27.849128 Si / 1000 Ang^3
#
#
#
# Elastic Constant Matrix: (Units=GPa)
#
#
# Indices 1 2 3 4 5 6 
#
# 1 71.0466 32.6669 23.4165 1.0665 -1.9294 -3.5580
# 2 32.6669 167.5620 47.4516 6.4932 0.4428 9.7814
# 3 23.4165 47.4516 179.8181 15.8188 -21.2972 -8.0575
# 4 1.0665 6.4932 15.8188 59.2698 -11.9060 10.0030
# 5 -1.9294 0.4428 -21.2972 -11.9060 26.5589 8.7801
# 6 -3.5580 9.7814 -8.0575 10.0030 8.7801 44.5514
#
#
#
# Elastic Compliance Matrix: (Units=1/GPa)
#
#
# Indices 1 2 3 4 5 6 
#
# 1 0.015878 -0.002830 -0.001291 -0.000008 -0.000413 0.001739
# 2 -0.002830 0.007123 -0.001716 -0.000203 -0.001190 -0.001820
# 3 -0.001291 -0.001716 0.006856 -0.000769 0.004847 0.000731
# 4 -0.000008 -0.000203 -0.000769 0.020415 0.010788 -0.006805
# 5 -0.000413 -0.001190 0.004847 0.010788 0.050062 -0.011184
# 6 0.001739 -0.001820 0.000731 -0.006805 -0.011184 0.026849
#
#
# Mechanical properties :
#
#
# Convention : Reuss Voigt Hill
#
# Bulk Modulus (GPa) = 54.99459 69.49963 62.24711
# Shear Modulus (GPa) = 34.50239 47.06879 40.78559
#
# Velocity S-wave (km/s) = 3.52362 4.11559 3.83106
# Velocity P-wave (km/s) = 6.02866 6.89884 6.47838
#
# Compressibility (1/GPa) = 0.01818361
#
# Stress axis : x y z
#
# Youngs Moduli (GPa) = 62.98014 140.39498 145.84800
#
# Poissons Ratio (x) = 0.39731 0.18832
# Poissons Ratio (y) = 0.17823 0.25022
# Poissons Ratio (z) = 0.08132 0.24087
#
# Static dielectric constant tensor:
#      x y z
#    x 2.270810 0.050280 0.053140 
#    y 0.050280 2.267520 0.133460 
#    z 0.053140 0.133460 2.289890 
# 
# From -- ./inp_files/4112.got.cif
#   From: 2010.05.17/outbox.cif.g08.bks.cpg/sg1_3_cif.got.tgz:4112.got - 2010.05.17 20:27:59.
