data_PCOD9000742
_publ_section_title
;
Structure prediction by ZEFSAII (Michael W. Deem and Ramdas Pophale) SiO2 
 PCOD9000742
Probable space group: P 1
;
_chemical_formula_sum "Si O2"
_cell_formula_units_Z 8
_cell_length_a 8.044817
_cell_length_b 12.430297
_cell_length_c 9.270375
_cell_angle_alpha 29.883912
_cell_angle_beta 68.596173
_cell_angle_gamma 67.825040
_cell_volume 426.296060
_symmetry_space_group_name_H-M "P 1"
_symmetry_group_IT_number 1
_symmetry_cell_setting 'triclinic'
loop_
_space_group_symop_operation_xyz
x,y,z
loop_
_atom_site_type_symbol
_atom_site_label
_atom_site_fract_x
_atom_site_fract_y
_atom_site_fract_z
Si Si1 0.824410 0.050000 0.756450
Si Si2 0.691939 0.156299 0.235091
Si Si3 0.826330 0.442608 0.108106
Si Si4 0.307061 0.652578 0.349225
Si Si5 0.649250 0.345061 0.718693
Si Si6 0.987215 0.783307 0.485072
Si Si7 0.571024 0.841780 0.852819
Si Si8 0.952191 0.638141 0.359069
O O1 0.900505 0.244804 0.420037
O O2 0.709183 0.158623 0.800236
O O3 0.694659 0.948939 0.803298
O O4 0.956349 0.848056 0.012611
O O5 0.731967 0.338797 0.123854
O O6 0.565143 0.998135 0.534450
O O7 0.621922 0.251268 0.994723
O O8 0.883136 0.005058 0.321575
O O9 0.676392 0.607336 0.047164
O O10 0.968688 0.591415 0.827392
O O11 0.472349 0.494960 0.545141
O O12 0.188719 0.781293 0.364074
O O13 0.155922 0.533582 0.452386
O O14 0.388779 0.807683 0.029732
O O15 0.816770 0.484993 0.517626
O O16 0.884957 0.725189 0.437849
#
# Coordination Sequence:
#
# PCOD9000742 Si02
#       8
#     1   1   1   1   1   1   1   1
#     4  11  20  37  66  88 116 168 201 239 305 360
#     4  10  20  36  66  86 119 166 198 240 309 356
#     4  10  19  38  63  87 120 165 197 244 301 362
#     4  10  21  40  60  90 127 154 197 257 294 352
#     4  12  20  40  64  90 118 163 205 243 297 362
#     4   9  20  38  58  87 123 153 197 248 298 346
#     4  10  21  39  62  90 125 157 196 253 303 352
#     4  10  21  38  59  88 122 158 193 252 295 348
#
# _framework density 18.766300000000001
#
# number of rings (size 3 to 8) (size 9 to 14) (size 15 to 20)
#    0.750    1.000    5.000    0.000    0.000    0.000 
#    9.000    0.000    8.250    0.000    0.000    0.000 
#    0.000    0.000    0.000    0.000    0.000    0.000 
#
# Total GULP energy -44569.095642 kJ/mol
# GULP energy per Si atom -5571.136955 kJ/mol
# Density = 1.872359 g / cm^3
# Si number density = 18.766300 Si / 1000 Ang^3
#
#
#
# Elastic Constant Matrix: (Units=GPa)
#
#
# Indices 1 2 3 4 5 6 
#
# 1 94.5995 28.4048 45.6669 3.3631 4.3705 -6.2734
# 2 28.4048 101.6018 31.8105 3.2594 -10.0361 6.2103
# 3 45.6669 31.8105 129.1188 25.8588 8.5256 -5.3282
# 4 3.3631 3.2594 25.8588 35.5513 4.5014 -7.6640
# 5 4.3705 -10.0361 8.5256 4.5014 21.0116 13.8672
# 6 -6.2734 6.2103 -5.3282 -7.6640 13.8672 25.1396
#
#
#
# Elastic Compliance Matrix: (Units=1/GPa)
#
#
# Indices 1 2 3 4 5 6 
#
# 1 0.015889 -0.006219 -0.003780 0.007570 -0.017279 0.016539
# 2 -0.006219 0.017292 -0.003501 -0.007463 0.028944 -0.024806
# 3 -0.003780 -0.003501 0.011831 -0.005930 -0.007589 0.004807
# 4 0.007570 -0.007463 -0.005930 0.044748 -0.036098 0.036029
# 5 -0.017279 0.028944 -0.007589 -0.036098 0.144213 -0.103624
# 6 0.016539 -0.024806 0.004807 0.036029 -0.103624 0.119196
#
#
# Mechanical properties :
#
#
# Convention : Reuss Voigt Hill
#
# Bulk Modulus (GPa) = 55.51757 59.67605 57.59681
# Shear Modulus (GPa) = 12.94759 30.96970 21.95864
#
# Velocity S-wave (km/s) = 2.62952 4.06677 3.42440
# Velocity P-wave (km/s) = 6.23434 7.34303 6.81128
#
# Compressibility (1/GPa) = 0.01801231
#
# Stress axis : x y z
#
# Youngs Moduli (GPa) = 62.93665 57.83106 84.52207
#
# Poissons Ratio (x) = 0.35966 0.31950
# Poissons Ratio (y) = 0.39141 0.29588
# Poissons Ratio (z) = 0.23791 0.20245
#
# Static dielectric constant tensor:
#      x y z
#    x 1.625830 0.006040 0.000490 
#    y 0.006040 1.651820 0.016360 
#    z 0.000490 0.016360 1.698730 
# 
# From -- ./inp_files/1062.got.cif
#   From: 2010.05.17/outbox.cif.g08.bks.cpg/sg1_1_cif.got.tgz:1062.got - 2010.05.17 20:27:59.
