data_PCOD9000287
_publ_section_title
;
Structure prediction by ZEFSAII (Michael W. Deem and Ramdas Pophale) SiO2 
 PCOD9000287
Probable space group: P 1
;
_chemical_formula_sum "Si O2"
_cell_formula_units_Z 8
_cell_length_a 11.075996
_cell_length_b 5.117096
_cell_length_c 11.838433
_cell_angle_alpha 109.439333
_cell_angle_beta 36.669701
_cell_angle_gamma 124.818998
_cell_volume 318.057780
_symmetry_space_group_name_H-M "P 1"
_symmetry_group_IT_number 1
_symmetry_cell_setting 'triclinic'
loop_
_space_group_symop_operation_xyz
x,y,z
loop_
_atom_site_type_symbol
_atom_site_label
_atom_site_fract_x
_atom_site_fract_y
_atom_site_fract_z
Si Si1 0.995800 0.556630 0.371190
Si Si2 0.942736 0.904718 0.667084
Si Si3 0.489919 0.868174 0.682589
Si Si4 0.662417 0.456471 0.020055
Si Si5 0.069669 0.415111 0.815742
Si Si6 0.438210 0.818560 0.973769
Si Si7 0.753598 0.582690 0.343594
Si Si8 0.773669 0.978747 0.167556
O O1 0.041163 0.780314 0.478382
O O2 0.951335 0.696205 0.309567
O O3 0.741722 0.215046 0.534112
O O4 0.216611 0.521230 0.165275
O O5 0.845601 0.662255 0.811521
O O6 0.697432 0.864921 0.798800
O O7 0.112509 0.257817 0.650394
O O8 0.277774 0.783500 0.743199
O O9 0.400550 0.821991 0.870248
O O10 0.543662 0.592946 0.565549
O O11 0.817457 0.377959 0.974681
O O12 0.461023 0.128559 0.064914
O O13 0.598227 0.680359 0.171637
O O14 0.008105 0.198163 0.944598
O O15 0.815442 0.820847 0.223888
O O16 0.693733 0.225726 0.299762
#
# Coordination Sequence:
#
# PCOD9000287 Si02
#       8
#     1   1   1   1   1   1   1   1
#     4  12  26  48  77 118 157 208 263 318 396 474
#     4  10  23  49  72 113 159 202 267 314 393 473
#     4  12  26  47  77 118 159 204 263 329 388 465
#     4  10  22  47  78 111 159 205 261 322 389 467
#     4  10  24  47  79 113 157 207 255 335 385 462
#     4  11  25  47  79 112 156 215 253 330 389 463
#     4  12  25  46  72 115 160 196 258 324 377 472
#     4  11  23  47  76 108 155 201 260 310 389 460
#
# _framework density 25.152661999999999
#
# number of rings (size 3 to 8) (size 9 to 14) (size 15 to 20)
#    0.000    1.000    5.000    0.750    0.000    4.000 
#    4.500    0.000    0.000    0.000    0.000    0.000 
#    0.000    0.000    0.000    0.000    0.000    0.000 
#
# Total GULP energy -44726.273517 kJ/mol
# GULP energy per Si atom -5590.784190 kJ/mol
# Density = 2.509541 g / cm^3
# Si number density = 25.152662 Si / 1000 Ang^3
#
#
#
# Elastic Constant Matrix: (Units=GPa)
#
#
# Indices 1 2 3 4 5 6 
#
# 1 97.3188 54.0513 34.4198 8.3665 28.5516 12.3066
# 2 54.0513 147.7618 61.0494 26.1118 22.3242 20.2423
# 3 34.4198 61.0494 146.7825 15.8567 30.6440 21.9194
# 4 8.3665 26.1118 15.8567 33.1895 7.2617 6.0198
# 5 28.5516 22.3242 30.6440 7.2617 36.0922 1.8785
# 6 12.3066 20.2423 21.9194 6.0198 1.8785 48.8480
#
#
#
# Elastic Compliance Matrix: (Units=1/GPa)
#
#
# Indices 1 2 3 4 5 6 
#
# 1 0.015716 -0.004410 0.000419 0.001963 -0.010343 -0.002164
# 2 -0.004410 0.010631 -0.002629 -0.005826 0.000391 -0.001412
# 3 0.000419 -0.002629 0.009728 -0.000674 -0.006671 -0.003042
# 4 0.001963 -0.005826 -0.000674 0.035891 -0.004493 -0.002029
# 5 -0.010343 0.000391 -0.006671 -0.004493 0.041988 0.004376
# 6 -0.002164 -0.001412 -0.003042 -0.002029 0.004376 0.023049
#
#
# Mechanical properties :
#
#
# Convention : Reuss Voigt Hill
#
# Bulk Modulus (GPa) = 43.79147 76.76713 60.27930
# Shear Modulus (GPa) = 31.67516 39.78210 35.72863
#
# Velocity S-wave (km/s) = 3.55253 3.98128 3.77300
# Velocity P-wave (km/s) = 5.85452 7.19172 6.55730
#
# Compressibility (1/GPa) = 0.02283550
#
# Stress axis : x y z
#
# Youngs Moduli (GPa) = 63.62987 94.06663 102.80063
#
# Poissons Ratio (x) = 0.41482 -0.04311
# Poissons Ratio (y) = 0.28060 0.27025
# Poissons Ratio (z) = -0.02668 0.24729
#
# Static dielectric constant tensor:
#      x y z
#    x 2.070940 -0.007950 -0.072780 
#    y -0.007950 2.069170 -0.031990 
#    z -0.072780 -0.031990 2.006740 
# 
# From -- ./inp_files/2347.got.cif
#   From: 2010.05.17/outbox.cif.g08.bks.cpg/sg1_2_cif.got.tgz:2347.got - 2010.05.17 20:27:59.
