data_PCOD9000412
_publ_section_title
;
Structure prediction by ZEFSAII (Michael W. Deem and Ramdas Pophale) SiO2 
 PCOD9000412
Probable space group: P 1
;
_chemical_formula_sum "Si O2"
_cell_formula_units_Z 8
_cell_length_a 11.465205
_cell_length_b 5.492774
_cell_length_c 8.543693
_cell_angle_alpha 92.448122
_cell_angle_beta 58.015604
_cell_angle_gamma 56.056802
_cell_volume 331.918412
_symmetry_space_group_name_H-M "P 1"
_symmetry_group_IT_number 1
_symmetry_cell_setting 'triclinic'
loop_
_space_group_symop_operation_xyz
x,y,z
loop_
_atom_site_type_symbol
_atom_site_label
_atom_site_fract_x
_atom_site_fract_y
_atom_site_fract_z
Si Si1 0.776620 0.286420 0.498880
Si Si2 0.999103 0.338415 0.130836
Si Si3 0.424212 0.593403 0.375898
Si Si4 0.750758 0.713246 0.783287
Si Si5 0.389673 0.450443 0.078292
Si Si6 0.349846 0.672608 0.766233
Si Si7 0.057519 0.566941 0.408153
Si Si8 0.644747 0.812493 0.193430
O O1 0.709652 0.597868 0.659076
O O2 0.578474 0.406397 0.595446
O O3 0.900820 0.206677 0.257508
O O4 0.925575 0.964556 0.493165
O O5 0.010966 0.475432 0.283446
O O6 0.839712 0.626674 0.138128
O O7 0.207894 0.070532 0.905403
O O8 0.353710 0.695423 0.246444
O O9 0.300401 0.671499 0.619830
O O10 0.518510 0.743517 0.349543
O O11 0.550934 0.193526 0.263403
O O12 0.968157 0.531243 0.614346
O O13 0.702560 0.644899 0.976712
O O14 0.607369 0.115613 0.891897
O O15 0.274212 0.368975 0.236007
O O16 0.315045 0.583933 0.958296
#
# Coordination Sequence:
#
# PCOD9000412 Si02
#       8
#     1   1   1   1   1   1   1   1
#     4  11  21  42  68  97 139 176 240 285 354 422
#     4  11  25  42  68 102 137 183 239 291 350 429
#     4  11  27  48  74 105 145 188 235 297 349 423
#     4  10  24  42  71  97 138 193 222 298 358 406
#     4  11  24  46  70 106 141 181 244 286 351 428
#     4  12  23  44  73 101 138 194 226 296 361 410
#     4  11  23  43  68 104 135 183 239 290 349 429
#     4  11  25  49  70 104 147 184 237 295 352 421
#
# _framework density 24.102311
#
# number of rings (size 3 to 8) (size 9 to 14) (size 15 to 20)
#    0.000    1.000    3.750    2.250    3.500    3.000 
#    6.750    0.000    0.000    0.000    0.000    0.000 
#    0.000    0.000    0.000    0.000    0.000    0.000 
#
# Total GULP energy -44539.488692 kJ/mol
# GULP energy per Si atom -5567.436087 kJ/mol
# Density = 2.404745 g / cm^3
# Si number density = 24.102311 Si / 1000 Ang^3
#
#
#
# Elastic Constant Matrix: (Units=GPa)
#
#
# Indices 1 2 3 4 5 6 
#
# 1 -13.6566 -43.6640 42.0723 23.3599 -50.6889 24.5941
# 2 -43.6640 24.2107 36.6456 11.5785 -26.0592 18.8878
# 3 42.0723 36.6456 114.9323 -13.9802 28.4656 -21.1989
# 4 23.3599 11.5785 -13.9802 27.6035 12.6658 -3.1324
# 5 -50.6889 -26.0592 28.4656 12.6658 16.5138 13.7344
# 6 24.5941 18.8878 -21.1989 -3.1324 13.7344 10.9458
#
#
#
# Elastic Compliance Matrix: (Units=1/GPa)
#
#
# Indices 1 2 3 4 5 6 
#
# 1 0.007549 -0.007642 0.003447 0.002492 -0.005853 0.010958
# 2 -0.007642 0.014844 0.000774 0.004089 -0.006839 0.002807
# 3 0.003447 0.000774 0.006249 -0.001363 0.002636 -0.000675
# 4 0.002492 0.004089 -0.001363 0.029154 0.002945 -0.010646
# 5 -0.005853 -0.006839 0.002636 0.002945 0.016165 0.010618
# 6 0.010958 0.002807 -0.000675 -0.010646 0.010618 0.044218
#
#
# Mechanical properties :
#
#
# Convention : Reuss Voigt Hill
#
# Bulk Modulus (GPa) = 45.87366 21.73268 33.80317
# Shear Modulus (GPa) = 37.79630 17.04146 27.41888
#
# Velocity S-wave (km/s) = 3.96430 2.66192 3.37650
# Velocity P-wave (km/s) = 6.32680 4.29932 5.40891
#
# Compressibility (1/GPa) = 0.02179900
#
# Stress axis : x y z
#
# Youngs Moduli (GPa) = 132.46115 67.36883 160.02270
#
# Poissons Ratio (x) = 0.51485 -0.55160
# Poissons Ratio (y) = 1.01230 -0.12380
# Poissons Ratio (z) = -0.45659 -0.05212
#
# Static dielectric constant tensor:
#      x y z
#    x 2.004830 -0.045090 -0.000660 
#    y -0.045090 2.168830 -0.028460 
#    z -0.000660 -0.028460 1.918200 
# 
# From -- ./inp_files/1615.got.cif
#   From: 2010.05.17/outbox.cif.g08.bks.cpg/sg1_1_cif.got.tgz:1615.got - 2010.05.17 20:27:59.
