data_PCOD9000084
_publ_section_title
;
Structure prediction by ZEFSAII (Michael W. Deem and Ramdas Pophale) SiO2 
 PCOD9000084
Probable space group: P 1
;
_chemical_formula_sum "Si O2"
_cell_formula_units_Z 8
_cell_length_a 6.552377
_cell_length_b 7.508480
_cell_length_c 10.476982
_cell_angle_alpha 135.050953
_cell_angle_beta 87.439587
_cell_angle_gamma 98.791892
_cell_volume 358.383939
_symmetry_space_group_name_H-M "P 1"
_symmetry_group_IT_number 1
_symmetry_cell_setting 'triclinic'
loop_
_space_group_symop_operation_xyz
x,y,z
loop_
_atom_site_type_symbol
_atom_site_label
_atom_site_fract_x
_atom_site_fract_y
_atom_site_fract_z
Si Si1 0.215670 0.586590 0.175850
Si Si2 0.970152 0.850949 0.102709
Si Si3 0.594610 0.018159 0.355655
Si Si4 0.380558 0.202542 0.814565
Si Si5 0.616994 0.762261 0.629903
Si Si6 0.290888 0.322889 0.364092
Si Si7 0.067476 0.715818 0.511861
Si Si8 0.670483 0.492837 0.755242
O O1 0.091200 0.584053 0.308982
O O2 0.081585 0.701683 0.130171
O O3 0.442431 0.763553 0.273428
O O4 0.263822 0.318333 0.989702
O O5 0.775634 0.956351 0.227124
O O6 0.871229 0.657664 0.898063
O O7 0.143708 0.092329 0.179281
O O8 0.427797 0.171460 0.372727
O O9 0.696265 0.212019 0.560887
O O10 0.488849 0.427422 0.832763
O O11 0.551031 0.037970 0.772124
O O12 0.217001 0.988070 0.640631
O O13 0.470956 0.558766 0.438618
O O14 0.604494 0.650884 0.717541
O O15 0.844698 0.767355 0.576695
O O16 0.132151 0.511535 0.509047
#
# Coordination Sequence:
#
# PCOD9000084 Si02
#       8
#     1   1   1   1   1   1   1   1
#     4  11  25  42  68 103 143 180 235 282 348 423
#     4  11  24  41  70 106 136 184 232 284 357 410
#     4  10  21  43  68  99 135 182 227 284 348 412
#     4  11  25  46  71 107 140 185 237 290 353 413
#     4  10  25  47  74 102 141 189 234 288 357 412
#     4   9  21  43  65 100 135 174 235 281 342 413
#     4  11  24  46  72 103 141 186 229 297 349 416
#     4  11  23  46  74 100 139 182 233 292 346 417
#
# _framework density 22.322427999999999
#
# number of rings (size 3 to 8) (size 9 to 14) (size 15 to 20)
#    0.000    1.500    2.500    1.500    3.500    2.000 
#    6.750    0.000    0.000    0.000    0.000    0.000 
#    0.000    0.000    0.000    0.000    0.000    0.000 
#
# Total GULP energy -44618.153848 kJ/mol
# GULP energy per Si atom -5577.269231 kJ/mol
# Density = 2.227162 g / cm^3
# Si number density = 22.322428 Si / 1000 Ang^3
#
#
#
# Elastic Constant Matrix: (Units=GPa)
#
#
# Indices 1 2 3 4 5 6 
#
# 1 120.3812 41.2717 50.5084 0.3766 6.2152 -7.8588
# 2 41.2717 102.4222 32.9270 -7.8312 -1.2170 -10.9672
# 3 50.5084 32.9270 127.3330 1.2788 4.4364 -10.1565
# 4 0.3766 -7.8312 1.2788 21.0184 9.1896 -1.1411
# 5 6.2152 -1.2170 4.4364 9.1896 48.4504 9.3316
# 6 -7.8588 -10.9672 -10.1565 -1.1411 9.3316 18.4575
#
#
#
# Elastic Compliance Matrix: (Units=1/GPa)
#
#
# Indices 1 2 3 4 5 6 
#
# 1 0.010999 -0.003242 -0.003344 -0.000504 -0.001397 0.001592
# 2 -0.003242 0.012667 -0.001483 0.005867 -0.001484 0.006443
# 3 -0.003344 -0.001483 0.009903 -0.000389 -0.001155 0.003704
# 4 -0.000504 0.005867 -0.000389 0.056153 -0.012918 0.013060
# 5 -0.001397 -0.001484 -0.001155 -0.012918 0.026476 -0.016296
# 6 0.001592 0.006443 0.003704 0.013060 -0.016296 0.069769
#
#
# Mechanical properties :
#
#
# Convention : Reuss Voigt Hill
#
# Bulk Modulus (GPa) = 57.36600 66.61676 61.99138
# Shear Modulus (GPa) = 24.04815 32.61387 28.33101
#
# Velocity S-wave (km/s) = 3.28580 3.82650 3.56641
# Velocity P-wave (km/s) = 6.33640 7.03068 6.69255
#
# Compressibility (1/GPa) = 0.01743193
#
# Stress axis : x y z
#
# Youngs Moduli (GPa) = 90.91727 78.94232 100.98056
#
# Poissons Ratio (x) = 0.25592 0.33767
# Poissons Ratio (y) = 0.29474 0.14976
# Poissons Ratio (z) = 0.30402 0.11708
#
# Static dielectric constant tensor:
#      x y z
#    x 1.843940 -0.024990 0.027360 
#    y -0.024990 1.881270 -0.023180 
#    z 0.027360 -0.023180 1.835010 
# 
# From -- ./inp_files/1718.got.cif
#   From: 2010.05.17/outbox.cif.g08.bks.cpg/sg1_1_cif.got.tgz:1718.got - 2010.05.17 20:27:59.
