data_PCOD9000852
_publ_section_title
;
Structure prediction by ZEFSAII (Michael W. Deem and Ramdas Pophale) SiO2 
 PCOD9000852
Probable space group: P 1
;
_chemical_formula_sum "Si O2"
_cell_formula_units_Z 8
_cell_length_a 9.585930
_cell_length_b 8.844984
_cell_length_c 9.082986
_cell_angle_alpha 132.197823
_cell_angle_beta 60.784455
_cell_angle_gamma 86.014197
_cell_volume 392.824667
_symmetry_space_group_name_H-M "P 1"
_symmetry_group_IT_number 1
_symmetry_cell_setting 'triclinic'
loop_
_space_group_symop_operation_xyz
x,y,z
loop_
_atom_site_type_symbol
_atom_site_label
_atom_site_fract_x
_atom_site_fract_y
_atom_site_fract_z
Si Si1 0.111470 0.622280 0.841950
Si Si2 0.468439 0.843978 0.236050
Si Si3 0.445876 0.333516 0.249110
Si Si4 0.395798 0.214715 0.868421
Si Si5 0.620018 0.616401 0.301234
Si Si6 0.069431 0.304384 0.890430
Si Si7 0.706586 0.063507 0.185936
Si Si8 0.440921 0.539952 0.817740
O O1 0.270366 0.408409 0.501959
O O2 0.037864 0.508726 0.920050
O O3 0.236464 0.678884 0.918518
O O4 0.929462 0.854559 0.993290
O O5 0.610979 0.613386 0.126323
O O6 0.244057 0.028877 0.544467
O O7 0.564328 0.992742 0.275297
O O8 0.463099 0.737707 0.013910
O O9 0.462421 0.566383 0.397135
O O10 0.657834 0.097590 0.060026
O O11 0.406514 0.283029 0.074200
O O12 0.178325 0.305263 0.980812
O O13 0.442770 0.366333 0.832795
O O14 0.545465 0.902273 0.568774
O O15 0.847145 0.392728 0.090924
O O16 0.618607 0.338196 0.482948
#
# Coordination Sequence:
#
# PCOD9000852 Si02
#       8
#     1   1   1   1   1   1   1   1
#     4  10  21  42  62  86 127 159 194 252 299 353
#     4  11  20  38  65  90 118 157 203 247 292 356
#     4  11  24  40  59  94 127 155 194 250 313 347
#     4  10  21  40  62  88 125 156 198 253 298 351
#     4  11  22  40  64  90 122 157 202 251 293 356
#     4  10  20  41  65  89 117 160 208 243 290 360
#     4  11  22  42  61  89 125 159 198 250 298 357
#     4  10  20  39  64  92 115 159 209 244 291 358
#
# _framework density 20.365321000000002
#
# number of rings (size 3 to 8) (size 9 to 14) (size 15 to 20)
#    0.000    1.500    7.500    0.000    0.000    6.000 
#    4.500    0.000    0.000    0.000    0.000    0.000 
#    0.000    0.000    0.000    0.000    0.000    0.000 
#
# Total GULP energy -44611.270468 kJ/mol
# GULP energy per Si atom -5576.408809 kJ/mol
# Density = 2.031897 g / cm^3
# Si number density = 20.365321 Si / 1000 Ang^3
#
#
#
# Elastic Constant Matrix: (Units=GPa)
#
#
# Indices 1 2 3 4 5 6 
#
# 1 106.9532 28.6265 64.1055 2.6416 8.2553 -38.4108
# 2 28.6265 60.7964 11.8467 -5.6607 4.3222 -31.0140
# 3 64.1055 11.8467 58.2680 5.5915 10.4592 -20.2414
# 4 2.6416 -5.6607 5.5915 27.8347 -12.9735 0.7366
# 5 8.2553 4.3222 10.4592 -12.9735 39.2304 -0.1452
# 6 -38.4108 -31.0140 -20.2414 0.7366 -0.1452 46.6989
#
#
#
# Elastic Compliance Matrix: (Units=1/GPa)
#
#
# Indices 1 2 3 4 5 6 
#
# 1 0.034699 -0.003911 -0.034741 0.004418 0.003893 0.010827
# 2 -0.003911 0.026013 0.004639 0.003316 -0.002124 0.016011
# 3 -0.034741 0.004639 0.058046 -0.013548 -0.013157 -0.000162
# 4 0.004418 0.003316 -0.013548 0.047290 0.017953 -0.000726
# 5 0.003893 -0.002124 -0.013157 0.017953 0.034335 -0.004088
# 6 0.010827 0.016011 -0.000162 -0.000726 -0.004088 0.040881
#
#
# Mechanical properties :
#
#
# Convention : Reuss Voigt Hill
#
# Bulk Modulus (GPa) = 19.71154 48.35280 34.03217
# Shear Modulus (GPa) = 15.32795 30.84871 23.08833
#
# Velocity S-wave (km/s) = 2.74642 3.89622 3.37071
# Velocity P-wave (km/s) = 4.44490 6.63589 5.64766
#
# Compressibility (1/GPa) = 0.05073169
#
# Stress axis : x y z
#
# Youngs Moduli (GPa) = 28.81968 38.44170 17.22766
#
# Poissons Ratio (x) = 0.15033 0.59851
# Poissons Ratio (y) = 0.11270 -0.07991
# Poissons Ratio (z) = 1.00123 -0.17832
#
# Static dielectric constant tensor:
#      x y z
#    x 1.708720 -0.000750 -0.009930 
#    y -0.000750 1.788740 0.018790 
#    z -0.009930 0.018790 1.704980 
# 
# From -- ./inp_files/4058.got.cif
#   From: 2010.05.17/outbox.cif.g08.bks.cpg/sg1_3_cif.got.tgz:4058.got - 2010.05.17 20:27:59.
