data_PCOD9000310
_publ_section_title
;
Structure prediction by ZEFSAII (Michael W. Deem and Ramdas Pophale) SiO2 
 PCOD9000310
Probable space group: P 1
;
_chemical_formula_sum "Si O2"
_cell_formula_units_Z 8
_cell_length_a 12.507816
_cell_length_b 5.180578
_cell_length_c 9.504739
_cell_angle_alpha 106.519255
_cell_angle_beta 36.612532
_cell_angle_gamma 96.460738
_cell_volume 344.866804
_symmetry_space_group_name_H-M "P 1"
_symmetry_group_IT_number 1
_symmetry_cell_setting 'triclinic'
loop_
_space_group_symop_operation_xyz
x,y,z
loop_
_atom_site_type_symbol
_atom_site_label
_atom_site_fract_x
_atom_site_fract_y
_atom_site_fract_z
Si Si1 0.801560 0.848160 0.400790
Si Si2 0.128153 0.067596 0.230924
Si Si3 0.651449 0.972279 0.870884
Si Si4 0.693222 0.312444 0.380700
Si Si5 0.967829 0.602396 0.657596
Si Si6 0.661578 0.476895 0.122542
Si Si7 0.359145 0.471309 0.964390
Si Si8 0.359654 0.721576 0.282010
O O1 0.653490 0.934557 0.695908
O O2 0.829868 0.520743 0.303547
O O3 0.965428 0.981029 0.303895
O O4 0.743990 0.006831 0.341285
O O5 0.057310 0.295491 0.461110
O O6 0.235261 0.775011 0.127674
O O7 0.248564 0.228517 0.032478
O O8 0.822919 0.738576 0.711124
O O9 0.698720 0.242072 0.928429
O O10 0.459410 0.948817 0.142619
O O11 0.513324 0.436792 0.679909
O O12 0.657978 0.345148 0.257910
O O13 0.140901 0.748344 0.525614
O O14 0.837168 0.613220 0.932465
O O15 0.466764 0.656054 0.306159
O O16 0.422607 0.479410 0.061214
#
# Coordination Sequence:
#
# PCOD9000310 Si02
#       8
#     1   1   1   1   1   1   1   1
#     4  12  23  45  71  99 136 184 230 283 341 407
#     4  11  23  42  72 104 131 170 239 292 334 396
#     4  11  22  42  73 101 136 179 238 283 342 408
#     4  12  27  45  67 101 145 183 224 276 352 417
#     4  10  23  43  71 107 134 174 236 295 337 407
#     4  11  26  44  68 100 144 184 224 284 345 421
#     4  11  23  42  69 103 135 174 230 291 337 406
#     4  10  23  41  71  99 131 180 235 282 344 394
#
# _framework density 23.197361000000001
#
# number of rings (size 3 to 8) (size 9 to 14) (size 15 to 20)
#    0.000    1.000    2.500    4.500    7.000    0.000 
#    4.500    0.000    0.000    0.000    0.000    0.000 
#    0.000    0.000    0.000    0.000    0.000    0.000 
#
# Total GULP energy -44677.875277 kJ/mol
# GULP energy per Si atom -5584.734410 kJ/mol
# Density = 2.314456 g / cm^3
# Si number density = 23.197361 Si / 1000 Ang^3
#
#
#
# Elastic Constant Matrix: (Units=GPa)
#
#
# Indices 1 2 3 4 5 6 
#
# 1 84.2856 28.8558 65.3338 -24.7545 -3.8530 -19.7700
# 2 28.8558 110.8443 34.4796 -21.9022 -9.8140 -4.0171
# 3 65.3338 34.4796 91.4817 -34.4879 -11.7215 -3.7275
# 4 -24.7545 -21.9022 -34.4879 45.6333 5.0646 2.3392
# 5 -3.8530 -9.8140 -11.7215 5.0646 41.8202 -13.7318
# 6 -19.7700 -4.0171 -3.7275 2.3392 -13.7318 37.8047
#
#
#
# Elastic Compliance Matrix: (Units=1/GPa)
#
#
# Indices 1 2 3 4 5 6 
#
# 1 0.033716 -0.000997 -0.023076 -0.000633 0.001705 0.015910
# 2 -0.000997 0.010645 -0.001962 0.002839 0.001807 0.000897
# 3 -0.023076 -0.001962 0.032261 0.011145 0.002150 -0.009004
# 4 -0.000633 0.002839 0.011145 0.031455 -0.000415 -0.001027
# 5 0.001705 0.001807 0.002150 -0.000415 0.029044 0.011871
# 6 0.015910 0.000897 -0.009004 -0.001027 0.011871 0.038355
#
#
# Mechanical properties :
#
#
# Convention : Reuss Voigt Hill
#
# Bulk Modulus (GPa) = 40.72670 60.43889 50.58280
# Shear Modulus (GPa) = 21.21087 35.58113 28.39600
#
# Velocity S-wave (km/s) = 3.02713 3.92068 3.50252
# Velocity P-wave (km/s) = 5.46010 6.82689 6.18139
#
# Compressibility (1/GPa) = 0.02455392
#
# Stress axis : x y z
#
# Youngs Moduli (GPa) = 29.65909 93.94157 30.99754
#
# Poissons Ratio (x) = 0.09365 0.71528
# Poissons Ratio (y) = 0.02957 0.06081
# Poissons Ratio (z) = 0.68440 0.18428
#
# Static dielectric constant tensor:
#      x y z
#    x 1.936980 -0.036260 -0.052590 
#    y -0.036260 1.950590 -0.019080 
#    z -0.052590 -0.019080 1.879350 
# 
# From -- ./inp_files/1555.got.cif
#   From: 2010.05.17/outbox.cif.g08.bks.cpg/sg1_1_cif.got.tgz:1555.got - 2010.05.17 20:27:59.
