data_PCOD9000204
_publ_section_title
;
Structure prediction by ZEFSAII (Michael W. Deem and Ramdas Pophale) SiO2 
 PCOD9000204
Probable space group: P 1
;
_chemical_formula_sum "Si O2"
_cell_formula_units_Z 8
_cell_length_a 7.660324
_cell_length_b 12.800763
_cell_length_c 10.029081
_cell_angle_alpha 144.989991
_cell_angle_beta 46.076241
_cell_angle_gamma 146.285264
_cell_volume 312.933981
_symmetry_space_group_name_H-M "P 1"
_symmetry_group_IT_number 1
_symmetry_cell_setting 'triclinic'
loop_
_space_group_symop_operation_xyz
x,y,z
loop_
_atom_site_type_symbol
_atom_site_label
_atom_site_fract_x
_atom_site_fract_y
_atom_site_fract_z
Si Si1 0.350280 0.843560 0.693910
Si Si2 0.320787 0.120507 0.616958
Si Si3 0.218325 0.873327 0.149764
Si Si4 0.226304 0.380603 0.318484
Si Si5 0.196484 0.684433 0.308791
Si Si6 0.732769 0.347796 0.899253
Si Si7 0.884804 0.905283 0.136853
Si Si8 0.864375 0.200849 0.043679
O O1 0.325989 0.634628 0.562257
O O2 0.286136 0.736440 0.468878
O O3 0.646252 0.119512 0.785514
O O4 0.061034 0.840716 0.883301
O O5 0.366493 0.080992 0.399043
O O6 0.117074 0.849241 0.485008
O O7 0.606467 0.268038 0.727436
O O8 0.105317 0.190020 0.825265
O O9 0.945197 0.852116 0.195633
O O10 0.500439 0.977122 0.003973
O O11 0.073401 0.609616 0.995099
O O12 0.986622 0.254862 0.187716
O O13 0.515319 0.399052 0.133175
O O14 0.060489 0.182100 0.314201
O O15 0.517393 0.762607 0.153593
O O16 0.901605 0.414257 0.181313
#
# Coordination Sequence:
#
# PCOD9000204 Si02
#       8
#     1   1   1   1   1   1   1   1
#     4   9  20  40  68  95 127 172 217 275 328 377
#     4  10  23  47  69  91 135 180 217 278 334 382
#     4  12  25  41  68 105 136 173 224 273 330 402
#     4   9  19  42  71  96 132 181 226 269 331 403
#     4  10  22  42  70  98 130 179 226 269 332 400
#     4   9  21  43  69  98 132 173 225 274 332 397
#     4  11  23  38  63 102 137 173 225 273 329 404
#     4  10  23  43  66  99 135 173 226 275 328 397
#
# _framework density 25.564499000000001
#
# number of rings (size 3 to 8) (size 9 to 14) (size 15 to 20)
#    0.000    2.000    0.000    3.750    0.000   11.000 
#    0.000   10.000    0.000    0.000    0.000    0.000 
#    0.000    0.000    0.000    0.000    0.000    0.000 
#
# Total GULP energy -44677.852264 kJ/mol
# GULP energy per Si atom -5584.731533 kJ/mol
# Density = 2.550631 g / cm^3
# Si number density = 25.564499 Si / 1000 Ang^3
#
#
#
# Elastic Constant Matrix: (Units=GPa)
#
#
# Indices 1 2 3 4 5 6 
#
# 1 66.0651 4.4251 28.0808 21.7451 2.1431 -0.7987
# 2 4.4251 110.3441 50.6071 22.9002 -7.3192 -13.7966
# 3 28.0808 50.6071 124.2460 27.1648 0.7757 5.7812
# 4 21.7451 22.9002 27.1648 38.2863 -3.5581 -8.1389
# 5 2.1431 -7.3192 0.7757 -3.5581 42.1635 18.2272
# 6 -0.7987 -13.7966 5.7812 -8.1389 18.2272 34.6820
#
#
#
# Elastic Compliance Matrix: (Units=1/GPa)
#
#
# Indices 1 2 3 4 5 6 
#
# 1 0.019966 0.002932 -0.003371 -0.010743 -0.001561 0.000487
# 2 0.002932 0.012886 -0.005128 -0.004673 -0.000457 0.005192
# 3 -0.003371 -0.005128 0.012226 -0.004840 0.001210 -0.005927
# 4 -0.010743 -0.004673 -0.004840 0.040186 -0.000388 0.008335
# 5 -0.001561 -0.000457 0.001210 -0.000388 0.030904 -0.016752
# 6 0.000487 0.005192 -0.005927 0.008335 -0.016752 0.042658
#
#
# Mechanical properties :
#
#
# Convention : Reuss Voigt Hill
#
# Bulk Modulus (GPa) = 29.46089 51.87567 40.66828
# Shear Modulus (GPa) = 27.58278 37.52919 32.55598
#
# Velocity S-wave (km/s) = 3.28830 3.83563 3.57246
# Velocity P-wave (km/s) = 5.09572 6.32078 5.74102
#
# Compressibility (1/GPa) = 0.03394331
#
# Stress axis : x y z
#
# Youngs Moduli (GPa) = 50.08609 77.60629 81.79528
#
# Poissons Ratio (x) = -0.22757 0.27572
# Poissons Ratio (y) = -0.14687 0.41947
# Poissons Ratio (z) = 0.16883 0.39798
#
# Static dielectric constant tensor:
#      x y z
#    x 2.130180 -0.068270 0.144890 
#    y -0.068270 2.047430 0.010620 
#    z 0.144890 0.010620 2.018480 
# 
# From -- ./inp_files/5770.got.cif
#   From: 2010.05.17/outbox.cif.g08.bks.cpg/sg1_3_cif.got.tgz:5770.got - 2010.05.17 20:27:59.
