data_PCOD9000114
_publ_section_title
;
Structure prediction by ZEFSAII (Michael W. Deem and Ramdas Pophale) SiO2 
 PCOD9000114
Probable space group: P 1
;
_chemical_formula_sum "Si O2"
_cell_formula_units_Z 8
_cell_length_a 12.463295
_cell_length_b 4.894804
_cell_length_c 6.070911
_cell_angle_alpha 85.377053
_cell_angle_beta 87.299903
_cell_angle_gamma 63.061392
_cell_volume 329.074060
_symmetry_space_group_name_H-M "P 1"
_symmetry_group_IT_number 1
_symmetry_cell_setting 'triclinic'
loop_
_space_group_symop_operation_xyz
x,y,z
loop_
_atom_site_type_symbol
_atom_site_label
_atom_site_fract_x
_atom_site_fract_y
_atom_site_fract_z
Si Si1 0.604630 0.341690 0.485350
Si Si2 0.441124 0.257998 0.129636
Si Si3 0.225764 0.592843 0.394552
Si Si4 0.780538 0.210253 0.107295
Si Si5 0.058959 0.922266 0.030236
Si Si6 0.381446 0.756984 0.723126
Si Si7 0.149733 0.327239 0.774983
Si Si8 0.662964 0.849944 0.894735
O O1 0.522685 0.302015 0.306437
O O2 0.715019 0.342367 0.338668
O O3 0.511827 0.649085 0.604080
O O4 0.646130 0.053179 0.665733
O O5 0.322409 0.303041 0.265825
O O6 0.402946 0.533625 0.941459
O O7 0.531228 0.956138 0.010617
O O8 0.151704 0.871443 0.221393
O O9 0.300084 0.684745 0.558081
O O10 0.134638 0.498647 0.535038
O O11 0.729797 0.484642 0.914432
O O12 0.922859 0.070671 0.111629
O O13 0.740027 0.958167 0.042983
O O14 0.101015 0.585514 0.948276
O O15 0.081199 0.123530 0.828760
O O16 0.293964 0.103007 0.782613
#
# Coordination Sequence:
#
# PCOD9000114 Si02
#       8
#     1   1   1   1   1   1   1   1
#     4   9  22  43  71 106 129 182 223 283 347 401
#     4   9  19  43  69 104 140 169 220 286 347 406
#     4  11  23  43  70 104 138 181 226 274 348 404
#     4  11  25  47  69  96 138 181 230 278 330 404
#     4  12  28  45  69 100 142 184 230 275 334 408
#     4  10  21  45  70 106 141 171 223 290 341 409
#     4  12  25  45  65 103 139 181 223 281 337 399
#     4  10  23  45  69 101 133 175 225 287 338 395
#
# _framework density 24.310637
#
# number of rings (size 3 to 8) (size 9 to 14) (size 15 to 20)
#    0.000    1.500    2.500    0.750    3.500    4.000 
#   22.500    0.000    0.000    0.000    0.000    0.000 
#    0.000    0.000    0.000    0.000    0.000    0.000 
#
# Total GULP energy -44801.461272 kJ/mol
# GULP energy per Si atom -5600.182659 kJ/mol
# Density = 2.425531 g / cm^3
# Si number density = 24.310637 Si / 1000 Ang^3
#
#
#
# Elastic Constant Matrix: (Units=GPa)
#
#
# Indices 1 2 3 4 5 6 
#
# 1 107.1135 44.4425 38.1379 10.5471 -27.4125 -26.3946
# 2 44.4425 121.1615 32.5967 13.4685 -13.2650 -13.5390
# 3 38.1379 32.5967 112.8083 9.6693 -15.2985 -27.4015
# 4 10.5471 13.4685 9.6693 26.8910 -4.6345 -7.6557
# 5 -27.4125 -13.2650 -15.2985 -4.6345 38.4178 8.7852
# 6 -26.3946 -13.5390 -27.4015 -7.6557 8.7852 44.1726
#
#
#
# Elastic Compliance Matrix: (Units=1/GPa)
#
#
# Indices 1 2 3 4 5 6 
#
# 1 0.014525 -0.003449 -0.001644 -0.000690 0.007284 0.005034
# 2 -0.003449 0.010286 -0.001626 -0.003337 0.000161 -0.000527
# 3 -0.001644 -0.001626 0.011426 -0.000921 0.001528 0.005143
# 4 -0.000690 -0.003337 -0.000921 0.041134 0.001864 0.004752
# 5 0.007284 0.000161 0.001528 0.001864 0.032287 -0.000749
# 6 0.005034 -0.000527 0.005143 0.004752 -0.000749 0.029648
#
#
# Mechanical properties :
#
#
# Convention : Reuss Voigt Hill
#
# Bulk Modulus (GPa) = 43.86462 63.49306 53.67884
# Shear Modulus (GPa) = 31.18309 36.95669 34.06989
#
# Velocity S-wave (km/s) = 3.58536 3.90319 3.74764
# Velocity P-wave (km/s) = 5.93483 6.81816 6.39177
#
# Compressibility (1/GPa) = 0.02279742
#
# Stress axis : x y z
#
# Youngs Moduli (GPa) = 68.84828 97.22325 87.52015
#
# Poissons Ratio (x) = 0.33529 0.14391
# Poissons Ratio (y) = 0.23744 0.14235
# Poissons Ratio (z) = 0.11321 0.15813
#
# Static dielectric constant tensor:
#      x y z
#    x 1.920390 0.008300 0.022520 
#    y 0.008300 1.921300 0.041470 
#    z 0.022520 0.041470 1.964120 
# 
# From -- ./inp_files/365.got.cif
#   From: 2010.05.17/outbox.cif.g08.bks.cpg/sg1_1_cif.got.tgz:365.got - 2010.05.17 20:27:59.
