data_PCOD9000344
_publ_section_title
;
Structure prediction by ZEFSAII (Michael W. Deem and Ramdas Pophale) SiO2 
 PCOD9000344
Probable space group: P 1
;
_chemical_formula_sum "Si O2"
_cell_formula_units_Z 8
_cell_length_a 8.117600
_cell_length_b 8.117601
_cell_length_c 9.161063
_cell_angle_alpha 45.758420
_cell_angle_beta 114.725799
_cell_angle_gamma 105.033910
_cell_volume 392.336044
_symmetry_space_group_name_H-M "P 1"
_symmetry_group_IT_number 1
_symmetry_cell_setting 'triclinic'
loop_
_space_group_symop_operation_xyz
x,y,z
loop_
_atom_site_type_symbol
_atom_site_label
_atom_site_fract_x
_atom_site_fract_y
_atom_site_fract_z
Si Si1 0.372240 0.317110 0.859640
Si Si2 0.043787 0.120239 0.728046
Si Si3 0.218235 0.624834 0.088150
Si Si4 0.892978 0.344771 0.240039
Si Si5 0.645420 0.077906 0.638249
Si Si6 0.635725 0.979919 0.347650
Si Si7 0.507555 0.502769 0.499546
Si Si8 0.504381 0.625681 0.949432
O O1 0.165130 0.261549 0.793848
O O2 0.461409 0.345756 0.716971
O O3 0.407750 0.552052 0.810825
O O4 0.475280 0.119486 0.115633
O O5 0.985420 0.273211 0.472051
O O6 0.857659 0.035905 0.776854
O O7 0.157816 0.888404 0.870713
O O8 0.321725 0.604976 0.293843
O O9 0.041532 0.473053 0.122726
O O10 0.369327 0.549980 0.071520
O O11 0.818700 0.107992 0.293854
O O12 0.706851 0.501810 0.099110
O O13 0.619598 0.025135 0.488556
O O14 0.599050 0.335045 0.516189
O O15 0.530350 0.896343 0.793839
O O16 0.624756 0.714047 0.464977
#
# Coordination Sequence:
#
# PCOD9000344 Si02
#       8
#     1   1   1   1   1   1   1   1
#     4  11  22  43  67 100 137 172 228 282 327 397
#     4  11  22  43  67 100 137 172 228 282 327 397
#     4  12  23  42  72  99 135 179 224 274 339 401
#     4  10  23  44  69  94 139 175 224 280 332 398
#     4  11  24  45  70  99 138 183 220 273 343 400
#     4  10  23  44  69  94 139 175 224 280 332 398
#     4  12  23  42  72  99 135 179 224 274 339 401
#     4  11  24  45  70  99 138 183 220 273 343 400
#
# _framework density 20.390682999999999
#
# number of rings (size 3 to 8) (size 9 to 14) (size 15 to 20)
#    0.000    1.000    5.000    3.000    0.000    0.000 
#    9.000    0.000    0.000    0.000    0.000    0.000 
#    0.000    0.000    0.000    0.000    0.000    0.000 
#
# Total GULP energy -44650.977509 kJ/mol
# GULP energy per Si atom -5581.372189 kJ/mol
# Density = 2.034427 g / cm^3
# Si number density = 20.390683 Si / 1000 Ang^3
#
#
#
# Elastic Constant Matrix: (Units=GPa)
#
#
# Indices 1 2 3 4 5 6 
#
# 1 122.8858 60.0085 33.7902 1.2873 -8.7055 21.4766
# 2 60.0085 153.5150 41.7554 -5.9159 4.2551 18.3764
# 3 33.7902 41.7554 57.1560 11.1339 7.0805 13.7756
# 4 1.2873 -5.9159 11.1339 35.2288 7.7433 3.3124
# 5 -8.7055 4.2551 7.0805 7.7433 31.4942 -0.8178
# 6 21.4766 18.3764 13.7756 3.3124 -0.8178 36.4804
#
#
#
# Elastic Compliance Matrix: (Units=1/GPa)
#
#
# Indices 1 2 3 4 5 6 
#
# 1 0.011835 -0.003151 -0.004348 -0.000269 0.004647 -0.003610
# 2 -0.003151 0.009564 -0.005325 0.003966 -0.001976 -0.001356
# 3 -0.004348 -0.005325 0.027137 -0.007850 -0.004767 -0.004399
# 4 -0.000269 0.003966 -0.007850 0.033293 -0.007084 -0.002057
# 5 0.004647 -0.001976 -0.004767 -0.007084 0.036156 0.001514
# 6 -0.003610 -0.001356 -0.004399 -0.002057 0.001514 0.032102
#
#
# Mechanical properties :
#
#
# Convention : Reuss Voigt Hill
#
# Bulk Modulus (GPa) = 43.69140 67.18499 55.43819
# Shear Modulus (GPa) = 27.26808 33.84087 30.55448
#
# Velocity S-wave (km/s) = 3.66085 4.07827 3.87518
# Velocity P-wave (km/s) = 6.27238 7.42945 6.87530
#
# Compressibility (1/GPa) = 0.02288780
#
# Stress axis : x y z
#
# Youngs Moduli (GPa) = 84.49791 104.55882 36.85000
#
# Poissons Ratio (x) = 0.32942 0.16023
# Poissons Ratio (y) = 0.26621 0.19624
# Poissons Ratio (z) = 0.36741 0.55680
#
# Static dielectric constant tensor:
#      x y z
#    x 1.730000 0.005930 -0.012310 
#    y 0.005930 1.736020 -0.020200 
#    z -0.012310 -0.020200 1.770730 
# 
# From -- ./inp_files/4129.got.cif
#   From: 2010.05.17/outbox.cif.g08.bks.cpg/sg1_3_cif.got.tgz:4129.got - 2010.05.17 20:27:59.
