data_PCOD9000327
_publ_section_title
;
Structure prediction by ZEFSAII (Michael W. Deem and Ramdas Pophale) SiO2 
 PCOD9000327
Probable space group: P 1
;
_chemical_formula_sum "Si O2"
_cell_formula_units_Z 8
_cell_length_a 9.837538
_cell_length_b 12.232150
_cell_length_c 5.496432
_cell_angle_alpha 78.370238
_cell_angle_beta 100.910663
_cell_angle_gamma 39.197761
_cell_volume 339.722154
_symmetry_space_group_name_H-M "P 1"
_symmetry_group_IT_number 1
_symmetry_cell_setting 'triclinic'
loop_
_space_group_symop_operation_xyz
x,y,z
loop_
_atom_site_type_symbol
_atom_site_label
_atom_site_fract_x
_atom_site_fract_y
_atom_site_fract_z
Si Si1 0.294580 0.607010 0.875000
Si Si2 0.310285 0.219409 0.311308
Si Si3 0.856327 0.203095 0.120606
Si Si4 0.833130 0.593637 0.264473
Si Si5 0.983963 0.310699 0.794659
Si Si6 0.819337 0.831342 0.409122
Si Si7 0.325254 0.970761 0.690010
Si Si8 0.071550 0.835566 0.195796
O O1 0.242096 0.711673 0.558891
O O2 0.080507 0.655787 0.737840
O O3 0.588458 0.366548 0.095569
O O4 0.222853 0.717391 0.050058
O O5 0.121625 0.418874 0.332147
O O6 0.594518 0.050204 0.380941
O O7 0.345054 0.078402 0.525910
O O8 0.133328 0.307640 0.982436
O O9 0.825353 0.340361 0.905088
O O10 0.111649 0.046764 0.439938
O O11 0.913096 0.057783 0.039819
O O12 0.833833 0.475303 0.456924
O O13 0.756921 0.749088 0.341094
O O14 0.614609 0.730330 0.923490
O O15 0.198351 0.081319 0.858985
O O16 0.880343 0.861377 0.173217
#
# Coordination Sequence:
#
# PCOD9000327 Si02
#       8
#     1   1   1   1   1   1   1   1
#     4  10  27  48  73 112 140 201 243 299 368 426
#     4  10  23  43  66 106 142 185 233 294 366 431
#     4  11  26  49  72 102 149 189 250 298 362 439
#     4  11  24  43  72 108 144 186 232 305 374 425
#     4  10  24  42  67 105 140 189 233 295 365 433
#     4  10  25  45  70 108 145 185 247 296 360 445
#     4  10  24  43  70 107 144 184 240 301 363 434
#     4  10  27  47  74 108 144 197 244 302 356 433
#
# _framework density 23.548656999999999
#
# number of rings (size 3 to 8) (size 9 to 14) (size 15 to 20)
#    0.750    1.000    1.250    0.000    7.000    7.000 
#    0.000    0.000    0.000    0.000    0.000    0.000 
#    0.000    0.000    0.000    0.000    0.000    0.000 
#
# Total GULP energy -44667.902482 kJ/mol
# GULP energy per Si atom -5583.487810 kJ/mol
# Density = 2.349506 g / cm^3
# Si number density = 23.548657 Si / 1000 Ang^3
#
#
#
# Elastic Constant Matrix: (Units=GPa)
#
#
# Indices 1 2 3 4 5 6 
#
# 1 52.7697 26.9603 36.3105 -13.4207 20.5835 5.3272
# 2 26.9603 132.0379 46.5230 0.4110 23.2402 -2.8807
# 3 36.3105 46.5230 86.9884 -16.8847 -14.2166 -20.8563
# 4 -13.4207 0.4110 -16.8847 37.6338 -10.4420 0.7933
# 5 20.5835 23.2402 -14.2166 -10.4420 -6.7827 -20.2353
# 6 5.3272 -2.8807 -20.8563 0.7933 -20.2353 24.5701
#
#
#
# Elastic Compliance Matrix: (Units=1/GPa)
#
#
# Indices 1 2 3 4 5 6 
#
# 1 0.019726 -0.005965 -0.000163 0.010176 0.011668 0.004167
# 2 -0.005965 0.008630 -0.000905 -0.001804 0.003293 0.004307
# 3 -0.000163 -0.000905 0.009137 0.000409 -0.013382 -0.003349
# 4 0.010176 -0.001804 0.000409 0.029521 -0.003640 -0.006022
# 5 0.011668 0.003293 -0.013382 -0.003640 -0.007854 -0.019854
# 6 0.004167 0.004307 -0.003349 -0.006022 -0.019854 0.021301
#
#
# Mechanical properties :
#
#
# Convention : Reuss Voigt Hill
#
# Bulk Modulus (GPa) = 42.68415 54.59818 48.64117
# Shear Modulus (GPa) = 48.85899 21.88437 35.37168
#
# Velocity S-wave (km/s) = 4.55995 3.05179 3.87986
# Velocity P-wave (km/s) = 6.77418 5.97106 6.38526
#
# Compressibility (1/GPa) = 0.02342790
#
# Stress axis : x y z
#
# Youngs Moduli (GPa) = 50.69489 115.87012 109.44629
#
# Poissons Ratio (x) = 0.69116 0.01780
# Poissons Ratio (y) = 0.30239 0.09906
# Poissons Ratio (z) = 0.00824 0.10487
#
# Static dielectric constant tensor:
#      x y z
#    x 1.902060 -0.047330 0.002880 
#    y -0.047330 1.928310 0.029660 
#    z 0.002880 0.029660 1.919810 
# 
# From -- ./inp_files/2370.got.cif
#   From: 2010.05.17/outbox.cif.g08.bks.cpg/sg1_2_cif.got.tgz:2370.got - 2010.05.17 20:27:59.
