data_PCOD9000234
_publ_section_title
;
Structure prediction by ZEFSAII (Michael W. Deem and Ramdas Pophale) SiO2 
 PCOD9000234
Probable space group: P 1
;
_chemical_formula_sum "Si O2"
_cell_formula_units_Z 8
_cell_length_a 7.413925
_cell_length_b 9.857923
_cell_length_c 7.172973
_cell_angle_alpha 126.404815
_cell_angle_beta 95.216757
_cell_angle_gamma 114.363115
_cell_volume 341.690270
_symmetry_space_group_name_H-M "P 1"
_symmetry_group_IT_number 1
_symmetry_cell_setting 'triclinic'
loop_
_space_group_symop_operation_xyz
x,y,z
loop_
_atom_site_type_symbol
_atom_site_label
_atom_site_fract_x
_atom_site_fract_y
_atom_site_fract_z
Si Si1 0.315830 0.116850 0.245440
Si Si2 0.487441 0.735626 0.844889
Si Si3 0.631148 0.030433 0.400505
Si Si4 0.110094 0.353332 0.111323
Si Si5 0.079017 0.316451 0.519850
Si Si6 0.035741 0.937153 0.707579
Si Si7 0.597314 0.519712 0.396426
Si Si8 0.319052 0.806110 0.508116
O O1 0.527356 0.300856 0.291405
O O2 0.204561 0.202959 0.432933
O O3 0.427527 0.031766 0.304193
O O4 0.127967 0.970524 0.956229
O O5 0.593515 0.634072 0.672211
O O6 0.403567 0.808334 0.727507
O O7 0.267995 0.553972 0.780288
O O8 0.656290 0.901230 0.141332
O O9 0.536834 0.914439 0.489669
O O10 0.873660 0.241459 0.575567
O O11 0.373619 0.449029 0.208631
O O12 0.133154 0.564301 0.236428
O O13 0.030555 0.314219 0.290220
O O14 0.007847 0.124184 0.830240
O O15 0.221807 0.941740 0.608872
O O16 0.819449 0.702204 0.468726
#
# Coordination Sequence:
#
# PCOD9000234 Si02
#       8
#     1   1   1   1   1   1   1   1
#     4   9  20  34  59  88 113 146 203 233 280 362
#     4   9  19  41  57  79 118 150 193 242 284 345
#     4  12  21  37  61  85 117 156 185 241 299 331
#     4   8  19  39  56  87 115 147 200 238 280 356
#     4   8  19  38  59  83 115 153 193 239 288 343
#     4  10  17  38  61  81 117 154 187 242 294 332
#     4   8  17  34  63  83 104 160 191 232 300 334
#     4  10  22  37  58  90 117 146 202 235 281 363
#
# _framework density 23.413015999999999
#
# number of rings (size 3 to 8) (size 9 to 14) (size 15 to 20)
#    0.000    3.500    1.250    1.500    3.500    0.000 
#    9.000    5.000    0.000    0.000    0.000    0.000 
#    0.000    0.000    0.000    0.000    0.000    0.000 
#
# Total GULP energy -44534.326876 kJ/mol
# GULP energy per Si atom -5566.790859 kJ/mol
# Density = 2.335973 g / cm^3
# Si number density = 23.413016 Si / 1000 Ang^3
#
#
#
# Elastic Constant Matrix: (Units=GPa)
#
#
# Indices 1 2 3 4 5 6 
#
# 1 53.7312 34.9060 14.2705 3.8091 0.3396 4.5426
# 2 34.9060 71.7107 20.4400 11.1929 3.5943 23.6213
# 3 14.2705 20.4400 43.8870 14.3054 -1.5173 -1.7169
# 4 3.8091 11.1929 14.3054 19.3305 2.5821 3.6416
# 5 0.3396 3.5943 -1.5173 2.5821 25.3034 9.2810
# 6 4.5426 23.6213 -1.7169 3.6416 9.2810 30.1116
#
#
#
# Elastic Compliance Matrix: (Units=1/GPa)
#
#
# Indices 1 2 3 4 5 6 
#
# 1 0.029357 -0.016985 -0.002930 0.004824 -0.001845 0.008714
# 2 -0.016985 0.033779 -0.009360 -0.005145 0.004668 -0.025286
# 3 -0.002930 -0.009360 0.036222 -0.023304 0.001435 0.012226
# 4 0.004824 -0.005145 -0.023304 0.072773 -0.006376 -0.004856
# 5 -0.001845 0.004668 0.001435 -0.006376 0.045715 -0.016621
# 6 0.008714 -0.025286 0.012226 -0.004856 -0.016621 0.058138
#
#
# Mechanical properties :
#
#
# Convention : Reuss Voigt Hill
#
# Bulk Modulus (GPa) = 24.50581 34.28466 29.39524
# Shear Modulus (GPa) = 14.36221 21.59660 17.97941
#
# Velocity S-wave (km/s) = 2.47944 3.04043 2.77415
# Velocity P-wave (km/s) = 4.32276 5.19623 4.77949
#
# Compressibility (1/GPa) = 0.04080665
#
# Stress axis : x y z
#
# Youngs Moduli (GPa) = 34.06375 29.60445 27.60768
#
# Poissons Ratio (x) = 0.50284 0.08090
# Poissons Ratio (y) = 0.57858 0.25840
# Poissons Ratio (z) = 0.09982 0.27709
#
# Static dielectric constant tensor:
#      x y z
#    x 1.913780 -0.023190 -0.008670 
#    y -0.023190 1.941380 0.010230 
#    z -0.008670 0.010230 1.938070 
# 
# From -- ./inp_files/3851.got.cif
#   From: 2010.05.17/outbox.cif.g08.bks.cpg/sg1_2_cif.got.tgz:3851.got - 2010.05.17 20:27:59.
