data_PCOD9000483
_publ_section_title
;
Structure prediction by ZEFSAII (Michael W. Deem and Ramdas Pophale) SiO2 
 PCOD9000483
Probable space group: P 1
;
_chemical_formula_sum "Si O2"
_cell_formula_units_Z 8
_cell_length_a 5.055749
_cell_length_b 11.504772
_cell_length_c 13.596074
_cell_angle_alpha 149.524232
_cell_angle_beta 122.018259
_cell_angle_gamma 61.332459
_cell_volume 339.591935
_symmetry_space_group_name_H-M "P 1"
_symmetry_group_IT_number 1
_symmetry_cell_setting 'triclinic'
loop_
_space_group_symop_operation_xyz
x,y,z
loop_
_atom_site_type_symbol
_atom_site_label
_atom_site_fract_x
_atom_site_fract_y
_atom_site_fract_z
Si Si1 0.387390 0.328270 0.359320
Si Si2 0.187239 0.131748 0.914084
Si Si3 0.945048 0.544970 0.696897
Si Si4 0.767109 0.407207 0.179580
Si Si5 0.515483 0.633255 0.111826
Si Si6 0.938432 0.341731 0.831527
Si Si7 0.392228 0.165114 0.465598
Si Si8 0.458102 0.842078 0.915640
O O1 0.673440 0.491783 0.527346
O O2 0.359944 0.270589 0.427122
O O3 0.058251 0.427688 0.324415
O O4 0.483915 0.087170 0.150213
O O5 0.457865 0.318467 0.105250
O O6 0.902269 0.210463 0.986951
O O7 0.062888 0.144009 0.788257
O O8 0.339651 0.905621 0.828621
O O9 0.772620 0.685358 0.852948
O O10 0.113939 0.296181 0.567363
O O11 0.202769 0.705946 0.823226
O O12 0.674541 0.612777 0.236703
O O13 0.392709 0.892705 0.260145
O O14 0.753827 0.535863 0.004319
O O15 0.236787 0.460198 0.933839
O O16 0.706093 0.237448 0.632897
#
# Coordination Sequence:
#
# PCOD9000483 Si02
#       8
#     1   1   1   1   1   1   1   1
#     4  11  27  45  72 102 144 172 230 289 336 407
#     4   9  19  43  71  99 128 180 229 275 340 400
#     4  12  28  43  64 107 139 182 228 272 341 414
#     4   9  20  43  71 100 130 174 230 281 336 399
#     4  10  25  47  73  95 135 188 223 280 345 391
#     4  10  25  46  70  98 141 175 230 285 328 413
#     4  12  29  44  69 107 138 183 231 272 345 413
#     4  11  25  45  72  98 139 184 223 284 347 391
#
# _framework density 23.557683000000001
#
# number of rings (size 3 to 8) (size 9 to 14) (size 15 to 20)
#    0.000    1.500    1.250    1.500   10.500    1.000 
#    0.000    0.000    0.000    0.000    0.000    0.000 
#    0.000    0.000    0.000    0.000    0.000    0.000 
#
# Total GULP energy -44768.883674 kJ/mol
# GULP energy per Si atom -5596.110459 kJ/mol
# Density = 2.350406 g / cm^3
# Si number density = 23.557683 Si / 1000 Ang^3
#
#
#
# Elastic Constant Matrix: (Units=GPa)
#
#
# Indices 1 2 3 4 5 6 
#
# 1 121.1707 8.7110 26.3926 1.7286 -1.0432 -5.3228
# 2 8.7110 88.8097 6.1201 -35.0935 0.1898 -2.1057
# 3 26.3926 6.1201 82.4877 -18.9728 -2.7909 -5.7160
# 4 1.7286 -35.0935 -18.9728 45.9098 -9.9735 2.9128
# 5 -1.0432 0.1898 -2.7909 -9.9735 26.7117 0.4657
# 6 -5.3228 -2.1057 -5.7160 2.9128 0.4657 29.5544
#
#
#
# Elastic Compliance Matrix: (Units=1/GPa)
#
#
# Indices 1 2 3 4 5 6 
#
# 1 0.009312 -0.002189 -0.003693 -0.003954 -0.001504 0.001220
# 2 -0.002189 0.017690 0.003348 0.016359 0.006250 -0.000197
# 3 -0.003693 0.003348 0.015693 0.010231 0.005265 0.001517
# 4 -0.003954 0.016359 0.010231 0.042413 0.016669 -0.002011
# 5 -0.001504 0.006250 0.005265 0.016669 0.044128 -0.001145
# 6 0.001220 -0.000197 0.001517 -0.002011 -0.001145 0.034551
#
#
# Mechanical properties :
#
#
# Convention : Reuss Voigt Hill
#
# Bulk Modulus (GPa) = 26.57640 41.65728 34.11684
# Shear Modulus (GPa) = 27.56404 37.18482 32.37443
#
# Velocity S-wave (km/s) = 3.42433 3.97729 3.71113
# Velocity P-wave (km/s) = 5.19044 6.23003 5.73384
#
# Compressibility (1/GPa) = 0.03762737
#
# Stress axis : x y z
#
# Youngs Moduli (GPa) = 107.39278 56.52813 63.72390
#
# Poissons Ratio (x) = 0.12376 0.23532
# Poissons Ratio (y) = 0.23512 -0.21338
# Poissons Ratio (z) = 0.39658 -0.18928
#
# Static dielectric constant tensor:
#      x y z
#    x 1.888280 -0.002000 -0.016000 
#    y -0.002000 1.945930 -0.039610 
#    z -0.016000 -0.039610 1.859100 
# 
# From -- ./inp_files/7047.got.cif
#   From: 2010.05.17/outbox.cif.g08.bks.cpg/sg1_4_cif.got.tgz:7047.got - 2010.05.17 20:27:59.
