data_PCOD9000005
_publ_section_title
;
Structure prediction by ZEFSAII (Michael W. Deem and Ramdas Pophale) SiO2 
 PCOD9000005
Probable space group: P 1
;
_chemical_formula_sum "Si O2"
_cell_formula_units_Z 8
_cell_length_a 10.297286
_cell_length_b 8.260748
_cell_length_c 4.885017
_cell_angle_alpha 82.573739
_cell_angle_beta 71.143571
_cell_angle_gamma 120.281864
_cell_volume 317.126449
_symmetry_space_group_name_H-M "P 1"
_symmetry_group_IT_number 1
_symmetry_cell_setting 'triclinic'
loop_
_space_group_symop_operation_xyz
x,y,z
loop_
_atom_site_type_symbol
_atom_site_label
_atom_site_fract_x
_atom_site_fract_y
_atom_site_fract_z
Si Si1 0.294460 0.315330 0.297200
Si Si2 0.863185 0.200585 0.012204
Si Si3 0.574819 0.847719 0.665020
Si Si4 0.978948 0.930579 0.816231
Si Si5 0.800517 0.686331 0.498715
Si Si6 0.530284 0.291069 0.507395
Si Si7 0.234436 0.481849 0.787751
Si Si8 0.557666 0.109584 0.025886
O O1 0.464848 0.387958 0.328444
O O2 0.240655 0.439980 0.473524
O O3 0.275610 0.353063 0.986087
O O4 0.164638 0.087147 0.538304
O O5 0.762214 0.261767 0.887331
O O6 0.037039 0.382712 0.986143
O O7 0.901825 0.062143 0.841438
O O8 0.726519 0.047788 0.364346
O O9 0.650256 0.716559 0.636779
O O10 0.388458 0.706952 0.694505
O O11 0.542421 0.917852 0.957721
O O12 0.881683 0.738188 0.729816
O O13 0.947629 0.855945 0.163747
O O14 0.712635 0.478107 0.445040
O O15 0.468798 0.174885 0.865226
O O16 0.501572 0.119955 0.361798
#
# Coordination Sequence:
#
# PCOD9000005 Si02
#       8
#     1   1   1   1   1   1   1   1
#     4  11  23  43  62 105 135 170 219 288 336 385
#     4  10  23  44  69 102 136 175 222 286 337 386
#     4  11  23  44  71 101 130 180 230 277 326 400
#     4  10  21  39  70  95 131 165 226 290 323 376
#     4  11  22  40  69 100 122 176 232 269 326 398
#     4  12  26  42  67  97 141 179 215 268 346 408
#     4  11  25  39  73 104 130 168 236 286 326 386
#     4  12  25  43  67  94 141 187 210 270 350 405
#
# _framework density 25.226531999999999
#
# number of rings (size 3 to 8) (size 9 to 14) (size 15 to 20)
#    0.000    1.000    3.750    3.750    5.250    0.000 
#    0.000    3.750    2.750    0.000    0.000    0.000 
#    0.000    0.000    0.000    0.000    0.000    0.000 
#
# Total GULP energy -44581.913754 kJ/mol
# GULP energy per Si atom -5572.739219 kJ/mol
# Density = 2.516912 g / cm^3
# Si number density = 25.226532 Si / 1000 Ang^3
#
#
#
# Elastic Constant Matrix: (Units=GPa)
#
#
# Indices 1 2 3 4 5 6 
#
# 1 83.0636 1.6596 20.8382 -10.0216 10.7145 18.4813
# 2 1.6596 126.8278 49.8536 4.1300 -10.6331 36.0915
# 3 20.8382 49.8536 81.8582 5.2354 14.2560 8.0935
# 4 -10.0216 4.1300 5.2354 44.2876 12.7585 2.0120
# 5 10.7145 -10.6331 14.2560 12.7585 29.8533 -4.9820
# 6 18.4813 36.0915 8.0935 2.0120 -4.9820 35.7896
#
#
#
# Elastic Compliance Matrix: (Units=1/GPa)
#
#
# Indices 1 2 3 4 5 6 
#
# 1 0.018646 0.005476 -0.005689 0.007298 -0.007705 -0.015347
# 2 0.005476 0.018078 -0.011971 -0.000400 0.007476 -0.017288
# 3 -0.005689 -0.011971 0.022106 0.000126 -0.011428 0.008413
# 4 0.007298 -0.000400 0.000126 0.029370 -0.016601 -0.007356
# 5 -0.007705 0.007476 -0.011428 -0.016601 0.052695 0.007292
# 6 -0.015347 -0.017288 0.008413 -0.007356 0.007292 0.052826
#
#
# Mechanical properties :
#
#
# Convention : Reuss Voigt Hill
#
# Bulk Modulus (GPa) = 29.01840 48.49472 38.75656
# Shear Modulus (GPa) = 21.77934 36.61264 29.19599
#
# Velocity S-wave (km/s) = 2.94147 3.81380 3.40568
# Velocity P-wave (km/s) = 4.80254 6.21762 5.55532
#
# Compressibility (1/GPa) = 0.03446089
#
# Stress axis : x y z
#
# Youngs Moduli (GPa) = 53.63157 55.31553 45.23758
#
# Poissons Ratio (x) = -0.30290 0.25736
# Poissons Ratio (y) = -0.29368 0.54154
# Poissons Ratio (z) = 0.30511 0.66219
#
# Static dielectric constant tensor:
#      x y z
#    x 2.109730 -0.053510 -0.023540 
#    y -0.053510 1.981570 -0.016850 
#    z -0.023540 -0.016850 2.011280 
# 
# From -- ./inp_files/2132.got.cif
#   From: 2010.05.17/outbox.cif.g08.bks.cpg/sg1_2_cif.got.tgz:2132.got - 2010.05.17 20:27:59.
