data_PCOD9000993
_publ_section_title
;
Structure prediction by ZEFSAII (Michael W. Deem and Ramdas Pophale) SiO2 
 PCOD9000993
Probable space group: P -1
;
_chemical_formula_sum "Si O2"
_cell_formula_units_Z 16
_cell_length_a 16.115959
_cell_length_b 5.175501
_cell_length_c 11.548537
_cell_angle_alpha 62.586169
_cell_angle_beta 104.631197
_cell_angle_gamma 98.151315
_cell_volume 826.981333
_symmetry_space_group_name_H-M "P -1"
_symmetry_group_IT_number 2
_symmetry_cell_setting 'triclinic'
loop_
_space_group_symop_operation_xyz
x,y,z
-x,-y,-z
loop_
_atom_site_type_symbol
_atom_site_label
_atom_site_fract_x
_atom_site_fract_y
_atom_site_fract_z
Si Si1 0.031354 0.152259 0.689807
Si Si2 0.803685 0.503545 0.354821
Si Si3 0.091141 0.662284 0.981810
Si Si4 0.853324 0.940989 0.603780
Si Si5 0.410900 0.478267 0.907477
Si Si6 0.120721 0.710083 0.243793
Si Si7 0.664120 0.931034 0.215725
Si Si8 0.759977 0.471870 0.075686
O O1 0.104077 0.347218 0.613235
O O2 0.205641 0.490621 0.788883
O O3 0.955933 0.014588 0.611895
O O4 0.076979 0.902103 0.829255
O O5 0.804157 0.168948 0.461775
O O6 0.595631 0.749186 0.152291
O O7 0.726360 0.690903 0.339689
O O8 0.165612 0.462272 0.001124
O O9 0.117460 0.777376 0.093671
O O10 0.000000 0.500000 0.000000
O O11 0.838472 0.044527 0.709569
O O12 0.837263 0.600173 0.656463
O O13 0.382337 0.804173 0.790453
O O14 0.332309 0.381192 0.986042
O O15 0.500000 0.500000 0.000000
O O16 0.023323 0.680318 0.266422
O O17 0.730194 0.131283 0.120350
#
# Coordination Sequence:
#
# PCOD9000993 Si02
#       8
#     2   2   2   2   2   2   2   2
#     4  10  21  33  51  71  90 145 187 229 273 287
#     4  11  20  35  51  72 109 132 181 228 262 318
#     4  12  19  37  52  71 110 144 188 225 249 317
#     4  10  24  35  49  70  98 138 192 225 267 297
#     4   9  17  34  54  78 112 131 158 210 264 336
#     4  10  23  35  47  71  92 140 185 219 268 297
#     4   9  19  32  49  82 101 137 163 199 272 318
#     4   9  22  31  54  80 102 141 174 209 273 305
#
# _framework density 19.347473999999998
#
# number of rings (size 3 to 8) (size 9 to 14) (size 15 to 20)
#    1.500    0.500    2.500    1.875    1.750    1.500 
#    0.000    0.000    0.000    0.000    0.000    0.000 
#    0.000   14.000    0.000    0.000    0.000    0.000 
#
# Total GULP energy -89085.274238 kJ/mol
# GULP energy per Si atom -5567.829640 kJ/mol
# Density = 1.930344 g / cm^3
# Si number density = 19.347474 Si / 1000 Ang^3
#
#
#
# Elastic Constant Matrix: (Units=GPa)
#
#
# Indices 1 2 3 4 5 6 
#
# 1 47.5716 2.4166 12.6491 9.1971 5.1935 -2.2845
# 2 2.4166 77.8047 4.6170 -4.6472 1.7700 -10.7114
# 3 12.6491 4.6170 44.5314 -6.4661 6.0357 -1.1876
# 4 9.1971 -4.6472 -6.4661 32.9160 -4.6855 5.0087
# 5 5.1935 1.7700 6.0357 -4.6855 18.3580 3.8302
# 6 -2.2845 -10.7114 -1.1876 5.0087 3.8302 21.7065
#
#
#
# Elastic Compliance Matrix: (Units=1/GPa)
#
#
# Indices 1 2 3 4 5 6 
#
# 1 0.026589 0.000087 -0.007768 -0.011270 -0.009240 0.006647
# 2 0.000087 0.013974 -0.000896 0.000317 -0.002504 0.007224
# 3 -0.007768 -0.000896 0.026324 0.006650 -0.004559 -0.000549
# 4 -0.011270 0.000317 0.006650 0.038588 0.013307 -0.011918
# 5 -0.009240 -0.002504 -0.004559 0.013307 0.065798 -0.017138
# 6 0.006647 0.007224 -0.000549 -0.011918 -0.017138 0.056078
#
#
# Mechanical properties :
#
#
# Convention : Reuss Voigt Hill
#
# Bulk Modulus (GPa) = 20.10709 23.25255 21.67982
# Shear Modulus (GPa) = 19.15107 24.61110 21.88109
#
# Velocity S-wave (km/s) = 3.14960 3.57046 3.36661
# Velocity P-wave (km/s) = 4.86228 5.38907 5.13244
#
# Compressibility (1/GPa) = 0.04973370
#
# Stress axis : x y z
#
# Youngs Moduli (GPa) = 37.60985 71.56353 37.98756
#
# Poissons Ratio (x) = -0.00625 0.29510
# Poissons Ratio (y) = -0.00328 0.03402
# Poissons Ratio (z) = 0.29217 0.06409
#
# Static dielectric constant tensor:
#      x y z
#    x 1.717320 -0.037500 0.014890 
#    y -0.037500 1.765960 -0.000240 
#    z 0.014890 -0.000240 1.710790 
# 
# From -- ./inp_files/536140.got.cif
#   From: 2010.05.17/outbox.cif.g08.bks.cpg/sg2_269_cif.got.tgz:536140.got - 2010.06.03 11:33:40.
