data_PCOD9000292
_publ_section_title
;
Structure prediction by ZEFSAII (Michael W. Deem and Ramdas Pophale) SiO2 
 PCOD9000292
Probable space group: P 1
;
_chemical_formula_sum "Si O2"
_cell_formula_units_Z 8
_cell_length_a 5.070627
_cell_length_b 10.667348
_cell_length_c 9.104047
_cell_angle_alpha 136.919816
_cell_angle_beta 81.475701
_cell_angle_gamma 82.465716
_cell_volume 311.041647
_symmetry_space_group_name_H-M "P 1"
_symmetry_group_IT_number 1
_symmetry_cell_setting 'triclinic'
loop_
_space_group_symop_operation_xyz
x,y,z
loop_
_atom_site_type_symbol
_atom_site_label
_atom_site_fract_x
_atom_site_fract_y
_atom_site_fract_z
Si Si1 0.030010 0.927980 0.457720
Si Si2 0.422768 0.704087 0.983556
Si Si3 0.596302 0.287994 0.623112
Si Si4 0.226596 0.247514 0.863569
Si Si5 0.012660 0.401761 0.309515
Si Si6 0.363375 0.647554 0.619911
Si Si7 0.642686 0.947474 0.751150
Si Si8 0.500702 0.081811 0.171444
O O1 0.241301 0.765171 0.198146
O O2 0.865325 0.844207 0.517723
O O3 0.177074 0.053872 0.645380
O O4 0.823089 0.094633 0.510098
O O5 0.507208 0.890296 0.095854
O O6 0.661891 0.488248 0.796488
O O7 0.262316 0.685035 0.829603
O O8 0.313138 0.338028 0.790629
O O9 0.543677 0.224269 0.411768
O O10 0.501986 0.161156 0.871774
O O11 0.004547 0.367282 0.105274
O O12 0.166494 0.556674 0.469428
O O13 0.204410 0.206629 0.217867
O O14 0.687818 0.493926 0.463479
O O15 0.424989 0.834074 0.705862
O O16 0.728198 0.997580 0.948747
#
# Coordination Sequence:
#
# PCOD9000292 Si02
#       8
#     1   1   1   1   1   1   1   1
#     4  11  25  47  72 107 153 197 243 315 375 447
#     4  11  25  44  74 110 143 198 247 308 376 449
#     4  11  24  46  72 106 151 194 250 306 380 442
#     4  10  24  45  68 104 153 194 239 315 371 440
#     4  11  26  46  78 105 154 194 252 313 371 439
#     4  11  26  46  75 116 142 198 257 305 372 452
#     4   9  24  45  72 104 145 198 247 308 371 443
#     4  10  22  49  69 106 149 191 251 314 364 448
#
# _framework density 25.720029
#
# number of rings (size 3 to 8) (size 9 to 14) (size 15 to 20)
#    0.000    1.500    2.500    0.000   10.500    2.000 
#    4.500    0.000    0.000    0.000    0.000    0.000 
#    0.000    0.000    0.000    0.000    0.000    0.000 
#
# Total GULP energy -44726.484498 kJ/mol
# GULP energy per Si atom -5590.810562 kJ/mol
# Density = 2.566149 g / cm^3
# Si number density = 25.720029 Si / 1000 Ang^3
#
#
#
# Elastic Constant Matrix: (Units=GPa)
#
#
# Indices 1 2 3 4 5 6 
#
# 1 58.1913 33.6749 46.8024 -16.7408 11.0544 -1.7727
# 2 33.6749 110.9168 65.5326 0.7314 5.7778 9.4723
# 3 46.8024 65.5326 213.9527 -21.8845 6.4811 18.7759
# 4 -16.7408 0.7314 -21.8845 58.1717 7.6646 -7.9561
# 5 11.0544 5.7778 6.4811 7.6646 25.2721 2.1828
# 6 -1.7727 9.4723 18.7759 -7.9561 2.1828 34.5093
#
#
#
# Elastic Compliance Matrix: (Units=1/GPa)
#
#
# Indices 1 2 3 4 5 6 
#
# 1 0.030399 -0.007089 -0.003732 0.010589 -0.014700 0.008909
# 2 -0.007089 0.012890 -0.002559 -0.003959 0.002319 -0.003569
# 3 -0.003732 -0.002559 0.006615 0.000990 0.000471 -0.002890
# 4 0.010589 -0.003959 0.000990 0.023172 -0.011627 0.007170
# 5 -0.014700 0.002319 0.000471 -0.011627 0.049519 -0.007461
# 6 0.008909 -0.003569 -0.002890 0.007170 -0.007461 0.034112
#
#
# Mechanical properties :
#
#
# Convention : Reuss Voigt Hill
#
# Bulk Modulus (GPa) = 43.20978 75.00894 59.10936
# Shear Modulus (GPa) = 26.15296 39.39402 32.77349
#
# Velocity S-wave (km/s) = 3.19224 3.91787 3.57352
# Velocity P-wave (km/s) = 5.51577 7.04934 6.32918
#
# Compressibility (1/GPa) = 0.02314291
#
# Stress axis : x y z
#
# Youngs Moduli (GPa) = 32.89611 77.57711 151.17704
#
# Poissons Ratio (x) = 0.54997 0.56416
# Poissons Ratio (y) = 0.23321 0.38693
# Poissons Ratio (z) = 0.12276 0.19855
#
# Static dielectric constant tensor:
#      x y z
#    x 2.101090 -0.030690 -0.048090 
#    y -0.030690 2.070570 0.003540 
#    z -0.048090 0.003540 2.034940 
# 
# From -- ./inp_files/1669.got.cif
#   From: 2010.05.17/outbox.cif.g08.bks.cpg/sg1_1_cif.got.tgz:1669.got - 2010.05.17 20:27:59.
