data_PCOD9000828
_publ_section_title
;
Structure prediction by ZEFSAII (Michael W. Deem and Ramdas Pophale) SiO2 
 PCOD9000828
Probable space group: P 1
;
_chemical_formula_sum "Si O2"
_cell_formula_units_Z 6
_cell_length_a 7.175695
_cell_length_b 5.146821
_cell_length_c 9.071450
_cell_angle_alpha 74.772175
_cell_angle_beta 52.309873
_cell_angle_gamma 95.367598
_cell_volume 241.223444
_symmetry_space_group_name_H-M "P 1"
_symmetry_group_IT_number 1
_symmetry_cell_setting 'triclinic'
loop_
_space_group_symop_operation_xyz
x,y,z
loop_
_atom_site_type_symbol
_atom_site_label
_atom_site_fract_x
_atom_site_fract_y
_atom_site_fract_z
Si Si1 0.161370 0.165430 0.838980
Si Si2 0.800897 0.382578 0.817771
Si Si3 0.086867 0.281199 0.174307
Si Si4 0.583480 0.373997 0.397995
Si Si5 0.970058 0.668932 0.387133
Si Si6 0.651959 0.756894 0.055181
O O1 0.371527 0.146692 0.628050
O O2 0.049320 0.392615 0.785803
O O3 0.232287 0.263013 0.957391
O O4 0.926834 0.873556 0.986827
O O5 0.683126 0.597367 0.916886
O O6 0.885839 0.471114 0.598720
O O7 0.623296 0.057436 0.981721
O O8 0.145904 0.555754 0.210981
O O9 0.804762 0.256035 0.259627
O O10 0.071163 0.003354 0.318745
O O11 0.720314 0.607743 0.419831
O O12 0.495507 0.528158 0.283877
#
# Coordination Sequence:
#
# PCOD9000828 Si02
#       6
#     1   1   1   1   1   1
#     4  10  21  39  63  87 112 158 194 236 287 345
#     4  10  20  38  60  84 119 153 186 242 292 331
#     4  10  20  39  57  87 118 145 197 238 277 348
#     4  10  21  39  63  87 112 158 194 236 287 345
#     4  10  20  38  60  84 119 153 186 242 292 331
#     4  10  20  39  57  87 118 145 197 238 277 348
#
# _framework density 24.873203
#
# number of rings (size 3 to 8) (size 9 to 14) (size 15 to 20)
#    2.000    0.000    3.333    1.000    0.000    1.333 
#    0.000    3.333    0.000    0.000    0.000    0.000 
#    0.000    0.000    0.000    0.000    0.000    0.000 
#
# Total GULP energy -33477.479186 kJ/mol
# GULP energy per Si atom -5579.579864 kJ/mol
# Density = 2.481659 g / cm^3
# Si number density = 24.873203 Si / 1000 Ang^3
#
#
#
# Elastic Constant Matrix: (Units=GPa)
#
#
# Indices 1 2 3 4 5 6 
#
# 1 61.1557 7.6729 26.7609 -0.2777 12.7786 -8.5733
# 2 7.6729 123.3480 17.3870 -4.7682 11.3245 6.0679
# 3 26.7609 17.3870 151.3439 3.8003 21.2096 -5.9865
# 4 -0.2777 -4.7682 3.8003 33.7299 -3.7716 8.5808
# 5 12.7786 11.3245 21.2096 -3.7716 41.8177 1.7952
# 6 -8.5733 6.0679 -5.9865 8.5808 1.7952 22.5774
#
#
#
# Elastic Compliance Matrix: (Units=1/GPa)
#
#
# Indices 1 2 3 4 5 6 
#
# 1 0.019725 -0.000944 -0.002250 -0.002463 -0.005218 0.008498
# 2 -0.000944 0.008660 -0.000842 0.002083 -0.001287 -0.003599
# 3 -0.002250 -0.000842 0.007708 -0.001991 -0.003278 0.002433
# 4 -0.002463 0.002083 -0.001991 0.034672 0.004995 -0.015598
# 5 -0.005218 -0.001287 -0.003278 0.004995 0.028255 -0.006650
# 6 0.008498 -0.003599 0.002433 -0.015598 -0.006650 0.055588
#
#
# Mechanical properties :
#
#
# Convention : Reuss Voigt Hill
#
# Bulk Modulus (GPa) = 35.68853 48.83214 42.26033
# Shear Modulus (GPa) = 29.06609 38.56015 33.81312
#
# Velocity S-wave (km/s) = 3.42214 3.94162 3.69103
# Velocity P-wave (km/s) = 5.47669 6.35533 5.93230
#
# Compressibility (1/GPa) = 0.02802021
#
# Stress axis : x y z
#
# Youngs Moduli (GPa) = 50.69659 115.46915 129.74045
#
# Poissons Ratio (x) = 0.10901 0.29194
# Poissons Ratio (y) = 0.04786 0.10927
# Poissons Ratio (z) = 0.11408 0.09725
#
# Static dielectric constant tensor:
#      x y z
#    x 2.114660 0.025710 -0.094110 
#    y 0.025710 1.886520 -0.015610 
#    z -0.094110 -0.015610 1.958580 
# 
# From -- ./inp_files/3022.got.cif
#   From: 2010.05.17/outbox.cif.g08.bks.cpg/sg1_2_cif.got.tgz:3022.got - 2010.05.17 20:27:59.
