data_PCOD9000433
_publ_section_title
;
Structure prediction by ZEFSAII (Michael W. Deem and Ramdas Pophale) SiO2 
 PCOD9000433
Probable space group: P 1
;
_chemical_formula_sum "Si O2"
_cell_formula_units_Z 6
_cell_length_a 5.005454
_cell_length_b 5.644310
_cell_length_c 7.628768
_cell_angle_alpha 90.000366
_cell_angle_beta 79.700020
_cell_angle_gamma 90.000056
_cell_volume 212.057250
_symmetry_space_group_name_H-M "P 1"
_symmetry_group_IT_number 1
_symmetry_cell_setting 'triclinic'
loop_
_space_group_symop_operation_xyz
x,y,z
loop_
_atom_site_type_symbol
_atom_site_label
_atom_site_fract_x
_atom_site_fract_y
_atom_site_fract_z
Si Si1 0.020680 0.050270 0.804390
Si Si2 0.556167 0.788685 0.692127
Si Si3 0.773629 0.288683 0.141047
Si Si4 0.012574 0.292070 0.468486
Si Si5 0.309116 0.550269 0.028784
Si Si6 0.317222 0.792070 0.364689
O O1 0.946035 0.264717 0.681270
O O2 0.339515 0.998687 0.759728
O O3 0.848019 0.840874 0.736381
O O4 0.914112 0.083719 0.012107
O O5 0.552008 0.767094 0.483613
O O6 0.415682 0.583722 0.821067
O O7 0.481777 0.340875 0.096793
O O8 0.777789 0.267095 0.349561
O O9 0.990283 0.498682 0.073446
O O10 0.148698 0.547763 0.420967
O O11 0.181099 0.047763 0.412208
O O12 0.383757 0.764717 0.151905
#
# Coordination Sequence:
#
# PCOD9000433 Si02
#       6
#     1   1   1   1   1   1
#     4  11  24  42  68 100 138 181 228 282 340 405
#     4  11  24  42  68 100 138 181 228 282 340 405
#     4  11  24  42  68 100 138 181 228 282 340 405
#     4  10  24  46  72 102 138 180 228 282 340 404
#     4  11  24  42  68 100 138 181 228 282 340 405
#     4  10  24  46  72 102 138 180 228 282 340 404
#
# _framework density 28.294249000000001
#
# number of rings (size 3 to 8) (size 9 to 14) (size 15 to 20)
#    0.000    1.333    0.000    4.000    0.000   18.667 
#    0.000    0.000    0.000    0.000    0.000    0.000 
#    0.000    0.000    0.000    0.000    0.000    0.000 
#
# Total GULP energy -33597.760267 kJ/mol
# GULP energy per Si atom -5599.626711 kJ/mol
# Density = 2.822985 g / cm^3
# Si number density = 28.294249 Si / 1000 Ang^3
#
#
#
# Elastic Constant Matrix: (Units=GPa)
#
#
# Indices 1 2 3 4 5 6 
#
# 1 86.6225 49.7573 49.7064 0.0010 6.5578 -0.0007
# 2 49.7573 137.3309 43.7133 -0.0010 -2.9624 -0.0004
# 3 49.7064 43.7133 75.1727 -0.0006 23.9256 -0.0004
# 4 0.0010 -0.0010 -0.0006 69.0837 0.0003 -5.9894
# 5 6.5578 -2.9624 23.9256 0.0003 50.0600 -0.0007
# 6 -0.0007 -0.0004 -0.0004 -5.9894 -0.0007 48.4338
#
#
#
# Elastic Compliance Matrix: (Units=1/GPa)
#
#
# Indices 1 2 3 4 5 6 
#
# 1 0.020437 -0.003336 -0.012571 0.000000 0.003134 0.000000
# 2 -0.003336 0.010050 -0.004679 0.000000 0.003268 0.000000
# 3 -0.012571 -0.004679 0.028187 0.000000 -0.012102 0.000000
# 4 0.000000 0.000000 0.000000 0.014632 0.000000 0.001809
# 5 0.003134 0.003268 -0.012102 0.000000 0.025543 0.000000
# 6 0.000000 0.000000 0.000000 0.001809 0.000000 0.020871
#
#
# Mechanical properties :
#
#
# Convention : Reuss Voigt Hill
#
# Bulk Modulus (GPa) = 57.13079 65.05335 61.09207
# Shear Modulus (GPa) = 29.98960 43.91210 36.95085
#
# Velocity S-wave (km/s) = 3.25917 3.94379 3.61771
# Velocity P-wave (km/s) = 5.86502 6.61662 6.25212
#
# Compressibility (1/GPa) = 0.01750370
#
# Stress axis : x y z
#
# Youngs Moduli (GPa) = 48.93150 99.50348 35.47679
#
# Poissons Ratio (x) = 0.33190 0.44598
# Poissons Ratio (y) = 0.16321 0.16598
# Poissons Ratio (z) = 0.61512 0.46553
#
# Static dielectric constant tensor:
#      x y z
#    x 2.085000 0.000000 -0.031400 
#    y 0.000000 2.248980 0.000010 
#    z -0.031400 0.000010 2.266090 
# 
# From -- ./inp_files/63.got.cif
#   From: 2010.05.17/outbox.cif.g08.bks.cpg/sg1_1_cif.got.tgz:63.got - 2010.05.17 20:27:59.
