data_PCOD9000394
_publ_section_title
;
Structure prediction by ZEFSAII (Michael W. Deem and Ramdas Pophale) SiO2 
 PCOD9000394
Probable space group: P 1
;
_chemical_formula_sum "Si O2"
_cell_formula_units_Z 8
_cell_length_a 7.238724
_cell_length_b 10.013558
_cell_length_c 6.882203
_cell_angle_alpha 134.101519
_cell_angle_beta 64.656362
_cell_angle_gamma 120.668238
_cell_volume 305.966216
_symmetry_space_group_name_H-M "P 1"
_symmetry_group_IT_number 1
_symmetry_cell_setting 'triclinic'
loop_
_space_group_symop_operation_xyz
x,y,z
loop_
_atom_site_type_symbol
_atom_site_label
_atom_site_fract_x
_atom_site_fract_y
_atom_site_fract_z
Si Si1 0.375000 0.168560 0.608270
Si Si2 0.729070 0.733997 0.433285
Si Si3 0.193034 0.773276 0.138852
Si Si4 0.690081 0.149437 0.761960
Si Si5 0.456821 0.605228 0.085406
Si Si6 0.227752 0.110130 0.028867
Si Si7 0.866605 0.701277 0.774258
Si Si8 0.048301 0.419002 0.630213
O O1 0.581919 0.132931 0.578941
O O2 0.412756 0.395813 0.789268
O O3 0.203845 0.122480 0.816686
O O4 0.297044 0.007022 0.313854
O O5 0.778913 0.686996 0.580591
O O6 0.722062 0.953953 0.631370
O O7 0.519963 0.594533 0.270715
O O8 0.938917 0.725809 0.214357
O O9 0.276563 0.705924 0.234632
O O10 0.235093 0.620228 0.814862
O O11 0.488690 0.172738 0.999188
O O12 0.913636 0.320645 0.786950
O O13 0.675762 0.739644 0.022635
O O14 0.130277 0.256751 0.330635
O O15 0.084529 0.884123 0.899264
O O16 0.909181 0.504192 0.629873
#
# Coordination Sequence:
#
# PCOD9000394 Si02
#       8
#     1   1   1   1   1   1   1   1
#     4  10  23  49  77 109 160 212 254 328 402 463
#     4  12  25  50  84 112 161 214 260 334 407 470
#     4  12  27  48  81 113 158 215 257 330 403 469
#     4  10  23  52  82 109 168 209 259 337 399 472
#     4  12  26  50  78 116 163 208 268 329 404 474
#     4  10  25  46  79 122 156 204 274 328 389 489
#     4  12  26  49  79 123 158 207 273 331 397 487
#     4  12  27  50  84 116 164 211 273 325 409 484
#
# _framework density 26.146677
#
# number of rings (size 3 to 8) (size 9 to 14) (size 15 to 20)
#    0.750    0.000    5.000    0.750    3.500    2.000 
#    2.250    0.000    0.000    0.000    0.000    0.000 
#    0.000    0.000    0.000    0.000    0.000    0.000 
#
# Total GULP energy -44744.506998 kJ/mol
# GULP energy per Si atom -5593.063375 kJ/mol
# Density = 2.608717 g / cm^3
# Si number density = 26.146677 Si / 1000 Ang^3
#
#
#
# Elastic Constant Matrix: (Units=GPa)
#
#
# Indices 1 2 3 4 5 6 
#
# 1 135.1535 30.3253 52.2161 16.1816 -11.7434 -21.0821
# 2 30.3253 126.4189 63.5003 15.7056 -12.8301 -11.0053
# 3 52.2161 63.5003 146.0216 26.3752 -14.6348 -2.6183
# 4 16.1816 15.7056 26.3752 50.0700 -3.2618 -5.7021
# 5 -11.7434 -12.8301 -14.6348 -3.2618 53.1744 6.6477
# 6 -21.0821 -11.0053 -2.6183 -5.7021 6.6477 44.4784
#
#
#
# Elastic Compliance Matrix: (Units=1/GPa)
#
#
# Indices 1 2 3 4 5 6 
#
# 1 0.009381 -0.000243 -0.002949 -0.000904 0.000646 0.004000
# 2 -0.000243 0.010434 -0.004187 -0.000697 0.001022 0.001978
# 3 -0.002949 -0.004187 0.010428 -0.003421 0.001305 -0.002454
# 4 -0.000904 -0.000697 -0.003421 0.022513 -0.000193 0.002112
# 5 0.000646 0.001022 0.001305 -0.000193 0.019837 -0.002354
# 6 0.004000 0.001978 -0.002454 0.002112 -0.002354 0.025347
#
#
# Mechanical properties :
#
#
# Convention : Reuss Voigt Hill
#
# Bulk Modulus (GPa) = 64.57438 77.74194 71.15816
# Shear Modulus (GPa) = 42.42309 46.98138 44.70223
#
# Velocity S-wave (km/s) = 4.03240 4.24351 4.13930
# Velocity P-wave (km/s) = 6.81403 7.33535 7.07949
#
# Compressibility (1/GPa) = 0.01548602
#
# Stress axis : x y z
#
# Youngs Moduli (GPa) = 106.59453 95.84067 95.89119
#
# Poissons Ratio (x) = 0.02327 0.28281
# Poissons Ratio (y) = 0.02588 0.40148
# Poissons Ratio (z) = 0.31438 0.40127
#
# Static dielectric constant tensor:
#      x y z
#    x 2.099880 0.009520 0.080400 
#    y 0.009520 2.073290 -0.020960 
#    z 0.080400 -0.020960 2.020970 
# 
# From -- ./inp_files/4891.got.cif
#   From: 2010.05.17/outbox.cif.g08.bks.cpg/sg1_3_cif.got.tgz:4891.got - 2010.05.17 20:27:59.
