data_PCOD9000487
_publ_section_title
;
Structure prediction by ZEFSAII (Michael W. Deem and Ramdas Pophale) SiO2 
 PCOD9000487
Probable space group: P 1
;
_chemical_formula_sum "Si O2"
_cell_formula_units_Z 6
_cell_length_a 7.454269
_cell_length_b 6.892093
_cell_length_c 5.188265
_cell_angle_alpha 68.751721
_cell_angle_beta 107.568828
_cell_angle_gamma 75.522257
_cell_volume 216.602663
_symmetry_space_group_name_H-M "P 1"
_symmetry_group_IT_number 1
_symmetry_cell_setting 'triclinic'
loop_
_space_group_symop_operation_xyz
x,y,z
loop_
_atom_site_type_symbol
_atom_site_label
_atom_site_fract_x
_atom_site_fract_y
_atom_site_fract_z
Si Si1 0.702340 0.461830 0.120330
Si Si2 0.007024 0.640224 0.073495
Si Si3 0.086451 0.022844 0.657814
Si Si4 0.407744 0.416146 0.643805
Si Si5 0.356841 0.919858 0.313039
Si Si6 0.659937 0.926807 0.097191
O O1 0.860553 0.518119 0.968065
O O2 0.503438 0.422738 0.965794
O O3 0.865215 0.235035 0.433994
O O4 0.617838 0.709901 0.090724
O O5 0.191117 0.455850 0.404313
O O6 0.060662 0.785460 0.812650
O O7 0.895905 0.827954 0.161335
O O8 0.227786 0.993256 0.482543
O O9 0.207205 0.048729 0.950376
O O10 0.555404 0.156353 0.778676
O O11 0.419207 0.649455 0.444161
O O12 0.563024 0.959930 0.324097
#
# Coordination Sequence:
#
# PCOD9000487 Si02
#       6
#     1   1   1   1   1   1
#     4  10  25  46  82 116 158 208 270 329 404 476
#     4   9  25  49  77 116 156 208 266 327 397 480
#     4  11  25  49  80 117 162 209 270 331 407 481
#     4  11  24  48  78 114 160 205 264 332 401 470
#     4  11  26  48  80 118 160 212 265 337 404 478
#     4  10  25  48  77 119 156 204 275 322 401 479
#
# _framework density 27.700493999999999
#
# number of rings (size 3 to 8) (size 9 to 14) (size 15 to 20)
#    1.000    0.667    0.000    2.000    7.000    2.667 
#    0.000    0.000    0.000    0.000    0.000    0.000 
#    0.000    0.000    0.000    0.000    0.000    0.000 
#
# Total GULP energy -33423.465071 kJ/mol
# GULP energy per Si atom -5570.577512 kJ/mol
# Density = 2.763745 g / cm^3
# Si number density = 27.700494 Si / 1000 Ang^3
#
#
#
# Elastic Constant Matrix: (Units=GPa)
#
#
# Indices 1 2 3 4 5 6 
#
# 1 77.2790 42.1831 39.3615 7.3048 -22.6315 -17.8005
# 2 42.1831 143.2019 74.1207 -34.5559 -9.7885 -8.6470
# 3 39.3615 74.1207 173.8980 -31.7241 2.5101 -38.7385
# 4 7.3048 -34.5559 -31.7241 66.0935 -9.7696 5.1564
# 5 -22.6315 -9.7885 2.5101 -9.7696 55.5426 -1.7292
# 6 -17.8005 -8.6470 -38.7385 5.1564 -1.7292 37.6872
#
#
#
# Elastic Compliance Matrix: (Units=1/GPa)
#
#
# Indices 1 2 3 4 5 6 
#
# 1 0.021535 -0.005905 -0.001709 -0.005887 0.007031 0.008188
# 2 -0.005905 0.011721 -0.003703 0.005459 0.000643 -0.004623
# 3 -0.001709 -0.003703 0.009973 0.002227 -0.001151 0.008237
# 4 -0.005887 0.005459 0.002227 0.020140 0.001946 -0.001905
# 5 0.007031 0.000643 -0.001151 0.001946 0.021470 0.003004
# 6 0.008188 -0.004623 0.008237 -0.001905 0.003004 0.038206
#
#
# Mechanical properties :
#
#
# Convention : Reuss Voigt Hill
#
# Bulk Modulus (GPa) = 48.55047 78.41218 63.48133
# Shear Modulus (GPa) = 32.77708 47.77889 40.27798
#
# Velocity S-wave (km/s) = 3.44360 4.15762 3.81734
# Velocity P-wave (km/s) = 5.77721 7.17052 6.51124
#
# Compressibility (1/GPa) = 0.02059712
#
# Stress axis : x y z
#
# Youngs Moduli (GPa) = 46.43531 85.31593 100.26602
#
# Poissons Ratio (x) = 0.50376 0.17138
# Poissons Ratio (y) = 0.27418 0.37124
# Poissons Ratio (z) = 0.07937 0.31589
#
# Static dielectric constant tensor:
#      x y z
#    x 2.355900 -0.031210 0.022050 
#    y -0.031210 2.182110 0.105970 
#    z 0.022050 0.105970 2.199940 
# 
# From -- ./inp_files/818.got.cif
#   From: 2010.05.17/outbox.cif.g08.bks.cpg/sg1_1_cif.got.tgz:818.got - 2010.05.17 20:27:59.
