data_PCOD9000106
_publ_section_title
;
Structure prediction by ZEFSAII (Michael W. Deem and Ramdas Pophale) SiO2 
 PCOD9000106
Probable space group: P 1
;
_chemical_formula_sum "Si O2"
_cell_formula_units_Z 8
_cell_length_a 5.270803
_cell_length_b 11.591140
_cell_length_c 6.944039
_cell_angle_alpha 53.568756
_cell_angle_beta 105.723933
_cell_angle_gamma 88.615072
_cell_volume 319.037532
_symmetry_space_group_name_H-M "P 1"
_symmetry_group_IT_number 1
_symmetry_cell_setting 'triclinic'
loop_
_space_group_symop_operation_xyz
x,y,z
loop_
_atom_site_type_symbol
_atom_site_label
_atom_site_fract_x
_atom_site_fract_y
_atom_site_fract_z
Si Si1 0.935180 0.557720 0.610680
Si Si2 0.471511 0.431589 0.065180
Si Si3 0.640529 0.708228 0.749606
Si Si4 0.966463 0.789973 0.070756
Si Si5 0.296393 0.997614 0.364409
Si Si6 0.441198 0.964924 0.015333
Si Si7 0.297966 0.214859 0.467567
Si Si8 0.838567 0.267037 0.022725
O O1 0.700255 0.667098 0.578359
O O2 0.007680 0.637676 0.355271
O O3 0.866453 0.396030 0.752432
O O4 0.183167 0.528246 0.840395
O O5 0.458149 0.339381 0.345234
O O6 0.546258 0.318523 0.009599
O O7 0.641213 0.552484 0.000618
O O8 0.350649 0.826119 0.598345
O O9 0.859336 0.769760 0.854603
O O10 0.717165 0.896278 0.028707
O O11 0.221892 0.864601 0.044507
O O12 0.480068 0.985529 0.227423
O O13 0.410342 0.080192 0.476161
O O14 0.998281 0.102920 0.155644
O O15 0.309016 0.131282 0.749594
O O16 0.008559 0.279095 0.244651
#
# Coordination Sequence:
#
# PCOD9000106 Si02
#       8
#     1   1   1   1   1   1   1   1
#     4  10  22  44  66  97 142 178 227 288 342 416
#     4  10  21  44  73  98 139 185 228 284 355 413
#     4  11  23  44  73 101 135 185 229 287 352 410
#     4  12  27  43  69 107 142 179 236 290 343 411
#     4  10  21  45  70 100 134 185 231 282 355 399
#     4  12  26  44  69 108 138 182 234 293 340 415
#     4   9  22  43  68  99 138 176 227 290 341 411
#     4   8  20  41  66  96 136 178 222 282 346 407
#
# _framework density 25.075422
#
# number of rings (size 3 to 8) (size 9 to 14) (size 15 to 20)
#    0.750    1.000    2.500    0.750    5.250    2.000 
#    9.000    2.500    0.000    0.000    0.000    0.000 
#    0.000    0.000    0.000    0.000    0.000    0.000 
#
# Total GULP energy -44608.369487 kJ/mol
# GULP energy per Si atom -5576.046186 kJ/mol
# Density = 2.501835 g / cm^3
# Si number density = 25.075422 Si / 1000 Ang^3
#
#
#
# Elastic Constant Matrix: (Units=GPa)
#
#
# Indices 1 2 3 4 5 6 
#
# 1 75.6817 24.5337 8.8029 -19.1563 -2.9802 -10.4790
# 2 24.5337 76.9141 16.1978 -21.2200 14.5967 -11.9603
# 3 8.8029 16.1978 139.5288 -29.3277 -10.5797 -7.2073
# 4 -19.1563 -21.2200 -29.3277 44.9656 -6.1623 10.5329
# 5 -2.9802 14.5967 -10.5797 -6.1623 30.5998 -9.4388
# 6 -10.4790 -11.9603 -7.2073 10.5329 -9.4388 25.1373
#
#
#
# Elastic Compliance Matrix: (Units=1/GPa)
#
#
# Indices 1 2 3 4 5 6 
#
# 1 0.017084 -0.004699 0.001521 0.005729 0.007336 0.005677
# 2 -0.004699 0.017655 -0.001481 0.003939 -0.008201 0.001287
# 3 0.001521 -0.001481 0.009105 0.006191 0.005918 0.002168
# 4 0.005729 0.003939 0.006191 0.032646 0.005696 -0.005503
# 5 0.007336 -0.008201 0.005918 0.005696 0.045270 0.015464
# 6 0.005677 0.001287 0.002168 -0.005503 0.015464 0.051495
#
#
# Mechanical properties :
#
#
# Convention : Reuss Voigt Hill
#
# Bulk Modulus (GPa) = 28.96179 43.46594 36.21387
# Shear Modulus (GPa) = 25.76237 36.31321 31.03779
#
# Velocity S-wave (km/s) = 3.20878 3.80960 3.52202
# Velocity P-wave (km/s) = 5.03024 6.05990 5.56892
#
# Compressibility (1/GPa) = 0.03452825
#
# Stress axis : x y z
#
# Youngs Moduli (GPa) = 58.53293 56.63974 109.83115
#
# Poissons Ratio (x) = 0.26614 -0.16708
# Poissons Ratio (y) = 0.27504 0.16262
# Poissons Ratio (z) = -0.08904 0.08386
#
# Static dielectric constant tensor:
#      x y z
#    x 2.045920 -0.023500 -0.010850 
#    y -0.023500 1.999200 -0.045210 
#    z -0.010850 -0.045210 2.012180 
# 
# From -- ./inp_files/3252.got.cif
#   From: 2010.05.17/outbox.cif.g08.bks.cpg/sg1_2_cif.got.tgz:3252.got - 2010.05.17 20:27:59.
