data_PCOD9000572
_publ_section_title
;
Structure prediction by ZEFSAII (Michael W. Deem and Ramdas Pophale) SiO2 
 PCOD9000572
Probable space group: P 1
;
_chemical_formula_sum "Si O2"
_cell_formula_units_Z 8
_cell_length_a 12.265165
_cell_length_b 5.023128
_cell_length_c 5.679871
_cell_angle_alpha 86.541596
_cell_angle_beta 85.025090
_cell_angle_gamma 118.945904
_cell_volume 302.958141
_symmetry_space_group_name_H-M "P 1"
_symmetry_group_IT_number 1
_symmetry_cell_setting 'triclinic'
loop_
_space_group_symop_operation_xyz
x,y,z
loop_
_atom_site_type_symbol
_atom_site_label
_atom_site_fract_x
_atom_site_fract_y
_atom_site_fract_z
Si Si1 0.170960 0.692460 0.928270
Si Si2 0.499828 0.879458 0.127301
Si Si3 0.929891 0.622614 0.024647
Si Si4 0.732455 0.215734 0.411030
Si Si5 0.072921 0.157059 0.340285
Si Si6 0.309963 0.491517 0.533029
Si Si7 0.422676 0.285942 0.876051
Si Si8 0.814179 0.819763 0.655877
O O1 0.247156 0.585711 0.748820
O O2 0.038500 0.626816 0.841453
O O3 0.122629 0.476713 0.177745
O O4 0.274311 0.040262 0.950804
O O5 0.377420 0.765241 0.321295
O O6 0.479565 0.568291 0.029458
O O7 0.614574 0.047968 0.272979
O O8 0.496247 0.100483 0.914250
O O9 0.830439 0.690267 0.906613
O O10 0.850835 0.317244 0.206423
O O11 0.014441 0.896486 0.169474
O O12 0.754957 0.531755 0.504283
O O13 0.738548 0.001630 0.626462
O O14 0.195741 0.199540 0.449108
O O15 0.958043 0.056754 0.545550
O O16 0.416187 0.420629 0.617666
#
# Coordination Sequence:
#
# PCOD9000572 Si02
#       8
#     1   1   1   1   1   1   1   1
#     4  12  23  44  72 110 143 188 233 294 358 425
#     4  12  28  50  74 102 147 188 245 292 353 417
#     4  11  26  45  75 105 148 185 236 295 359 424
#     4  11  27  49  74 105 140 190 242 297 345 424
#     4  11  23  45  69 108 148 185 230 296 356 431
#     4  12  26  44  74 107 149 187 236 288 363 423
#     4  12  26  49  72 108 141 193 236 298 351 421
#     4  11  25  46  76 107 140 186 238 294 361 415
#
# _framework density 26.406291
#
# number of rings (size 3 to 8) (size 9 to 14) (size 15 to 20)
#    0.000    0.500    3.750    3.750    5.250    3.000 
#    2.250    0.000    0.000    0.000    0.000    0.000 
#    0.000    0.000    0.000    0.000    0.000    0.000 
#
# Total GULP energy -44846.993978 kJ/mol
# GULP energy per Si atom -5605.874247 kJ/mol
# Density = 2.634619 g / cm^3
# Si number density = 26.406291 Si / 1000 Ang^3
#
#
#
# Elastic Constant Matrix: (Units=GPa)
#
#
# Indices 1 2 3 4 5 6 
#
# 1 78.3526 47.8324 9.1172 2.2335 27.2284 14.5853
# 2 47.8324 150.8425 36.2951 29.0922 9.2711 11.1172
# 3 9.1172 36.2951 74.2399 2.8304 26.7975 7.2032
# 4 2.2335 29.0922 2.8304 51.0346 5.4751 12.9764
# 5 27.2284 9.2711 26.7975 5.4751 47.2144 2.2404
# 6 14.5853 11.1172 7.2032 12.9764 2.2404 52.2667
#
#
#
# Elastic Compliance Matrix: (Units=1/GPa)
#
#
# Indices 1 2 3 4 5 6 
#
# 1 0.025296 -0.009996 0.008744 0.007917 -0.018158 -0.007325
# 2 -0.009996 0.012500 -0.007964 -0.007887 0.008612 0.002817
# 3 0.008744 -0.007964 0.022555 0.005871 -0.016743 -0.004594
# 4 0.007917 -0.007887 0.005871 0.026290 -0.009043 -0.007480
# 5 -0.018158 0.008612 -0.016743 -0.009043 0.040225 0.006064
# 6 -0.007325 0.002817 -0.004594 -0.007480 0.006064 0.022808
#
#
# Mechanical properties :
#
#
# Convention : Reuss Voigt Hill
#
# Bulk Modulus (GPa) = 23.85655 54.43603 39.14629
# Shear Modulus (GPa) = 27.46041 44.11582 35.78812
#
# Velocity S-wave (km/s) = 3.22828 4.09180 3.68542
# Velocity P-wave (km/s) = 4.79059 6.55617 5.74165
#
# Compressibility (1/GPa) = 0.04191721
#
# Stress axis : x y z
#
# Youngs Moduli (GPa) = 39.53193 80.00150 44.33547
#
# Poissons Ratio (x) = 0.79972 -0.38766
# Poissons Ratio (y) = 0.39517 0.35311
# Poissons Ratio (z) = -0.34566 0.63717
#
# Static dielectric constant tensor:
#      x y z
#    x 2.133320 -0.025220 0.007370 
#    y -0.025220 1.983600 -0.006490 
#    z 0.007370 -0.006490 2.059440 
# 
# From -- ./inp_files/523.got.cif
#   From: 2010.05.17/outbox.cif.g08.bks.cpg/sg1_1_cif.got.tgz:523.got - 2010.05.17 20:27:59.
