data_PCOD9000167
_publ_section_title
;
Structure prediction by ZEFSAII (Michael W. Deem and Ramdas Pophale) SiO2 
 PCOD9000167
Probable space group: P 1
;
_chemical_formula_sum "Si O2"
_cell_formula_units_Z 8
_cell_length_a 4.844696
_cell_length_b 14.571598
_cell_length_c 5.498107
_cell_angle_alpha 57.510254
_cell_angle_beta 100.794189
_cell_angle_gamma 78.249785
_cell_volume 299.131978
_symmetry_space_group_name_H-M "P 1"
_symmetry_group_IT_number 1
_symmetry_cell_setting 'triclinic'
loop_
_space_group_symop_operation_xyz
x,y,z
loop_
_atom_site_type_symbol
_atom_site_label
_atom_site_fract_x
_atom_site_fract_y
_atom_site_fract_z
Si Si1 0.345750 0.204180 0.943770
Si Si2 0.125566 0.799645 0.889975
Si Si3 0.504193 0.421661 0.768906
Si Si4 0.520730 0.879510 0.207240
Si Si5 0.726931 0.678766 0.906959
Si Si6 0.919360 0.000393 0.190254
Si Si7 0.300514 0.474968 0.153448
Si Si8 0.142072 0.257477 0.328328
O O1 0.318098 0.337537 0.802527
O O2 0.139595 0.206159 0.670948
O O3 0.282833 0.168137 0.257237
O O4 0.688732 0.128487 0.031838
O O5 0.386420 0.707337 0.894666
O O6 0.912473 0.733120 0.041780
O O7 0.946993 0.916507 0.544729
O O8 0.323152 0.839573 0.048617
O O9 0.506681 0.472978 0.426289
O O10 0.363455 0.511004 0.839998
O O11 0.823126 0.339563 0.048626
O O12 0.699313 0.762652 0.552491
O O13 0.733822 0.946035 0.055439
O O14 0.259872 0.971818 0.202544
O O15 0.957542 0.550669 0.065375
O O16 0.328137 0.341613 0.294688
#
# Coordination Sequence:
#
# PCOD9000167 Si02
#       8
#     1   1   1   1   1   1   1   1
#     4  10  23  39  62  94 121 165 210 257 316 379
#     4  10  22  41  62  89 129 157 213 260 313 376
#     4  10  22  41  62  89 129 157 213 260 313 376
#     4  10  22  41  62  89 129 157 213 260 313 376
#     4  10  23  39  62  94 121 165 210 257 316 379
#     4  10  23  39  62  94 121 165 210 257 316 379
#     4  10  23  39  62  94 121 165 210 257 316 379
#     4  10  22  41  62  89 129 157 213 260 313 376
#
# _framework density 26.744047999999999
#
# number of rings (size 3 to 8) (size 9 to 14) (size 15 to 20)
#    0.000    2.000    0.000    1.500    7.000    2.000 
#    0.000    0.000    0.000    0.000    0.000    0.000 
#    0.000    0.000    0.000    0.000    0.000    0.000 
#
# Total GULP energy -44691.339046 kJ/mol
# GULP energy per Si atom -5586.417381 kJ/mol
# Density = 2.668318 g / cm^3
# Si number density = 26.744048 Si / 1000 Ang^3
#
#
#
# Elastic Constant Matrix: (Units=GPa)
#
#
# Indices 1 2 3 4 5 6 
#
# 1 114.9723 17.2499 22.0263 1.6932 17.1122 -23.4149
# 2 17.2499 130.3284 64.1582 18.7337 6.5947 -26.8531
# 3 22.0263 64.1582 157.2423 26.6999 15.7149 -15.5171
# 4 1.6932 18.7337 26.6999 57.6845 -2.7041 5.2626
# 5 17.1122 6.5947 15.7149 -2.7041 34.0733 -5.7700
# 6 -23.4149 -26.8531 -15.5171 5.2626 -5.7700 47.6730
#
#
#
# Elastic Compliance Matrix: (Units=1/GPa)
#
#
# Indices 1 2 3 4 5 6 
#
# 1 0.010350 0.000140 -0.000505 -0.000732 -0.004278 0.004561
# 2 0.000140 0.010810 -0.003525 -0.002358 0.000172 0.005292
# 3 -0.000505 -0.003525 0.008779 -0.003109 -0.003263 0.000572
# 4 -0.000732 -0.002358 -0.003109 0.020121 0.003085 -0.004548
# 5 -0.004278 0.000172 -0.003263 0.003085 0.033319 0.000626
# 6 0.004561 0.005292 0.000572 -0.004548 0.000626 0.026961
#
#
# Mechanical properties :
#
#
# Convention : Reuss Voigt Hill
#
# Bulk Modulus (GPa) = 45.12745 67.71242 56.41993
# Shear Modulus (GPa) = 39.83827 47.82674 43.83251
#
# Velocity S-wave (km/s) = 3.86374 4.23343 4.05280
# Velocity P-wave (km/s) = 6.06754 7.01923 6.56067
#
# Compressibility (1/GPa) = 0.02215946
#
# Stress axis : x y z
#
# Youngs Moduli (GPa) = 96.61988 92.50483 113.90637
#
# Poissons Ratio (x) = -0.01297 0.05753
# Poissons Ratio (y) = -0.01355 0.40153
# Poissons Ratio (z) = 0.04880 0.32609
#
# Static dielectric constant tensor:
#      x y z
#    x 2.258000 0.046050 -0.015780 
#    y 0.046050 2.217910 0.121400 
#    z -0.015780 0.121400 2.171210 
# 
# From -- ./inp_files/353.got.cif
#   From: 2010.05.17/outbox.cif.g08.bks.cpg/sg1_1_cif.got.tgz:353.got - 2010.05.17 20:27:59.
