data_PCOD9000743
_publ_section_title
;
Structure prediction by ZEFSAII (Michael W. Deem and Ramdas Pophale) SiO2 
 PCOD9000743
Probable space group: P 1
;
_chemical_formula_sum "Si O2"
_cell_formula_units_Z 8
_cell_length_a 8.136902
_cell_length_b 8.155930
_cell_length_c 7.549056
_cell_angle_alpha 70.609215
_cell_angle_beta 132.437970
_cell_angle_gamma 89.414868
_cell_volume 328.421114
_symmetry_space_group_name_H-M "P 1"
_symmetry_group_IT_number 1
_symmetry_cell_setting 'triclinic'
loop_
_space_group_symop_operation_xyz
x,y,z
loop_
_atom_site_type_symbol
_atom_site_label
_atom_site_fract_x
_atom_site_fract_y
_atom_site_fract_z
Si Si1 0.528100 0.711830 0.890220
Si Si2 0.908928 0.401063 0.459542
Si Si3 0.829642 0.958212 0.884585
Si Si4 0.992808 0.286044 0.945560
Si Si5 0.301418 0.061088 0.770143
Si Si6 0.513172 0.023523 0.295385
Si Si7 0.368357 0.698080 0.380978
Si Si8 0.214662 0.389495 0.379137
O O1 0.701487 0.833045 0.938526
O O2 0.330925 0.853420 0.818980
O O3 0.427203 0.689063 0.635079
O O4 0.661447 0.519543 0.152471
O O5 0.910360 0.411002 0.667074
O O6 0.096970 0.465279 0.457355
O O7 0.033825 0.181954 0.589123
O O8 0.705699 0.020490 0.581919
O O9 0.856584 0.141002 0.928536
O O10 0.097812 0.822004 0.104016
O O11 0.006774 0.405140 0.083566
O O12 0.263716 0.157032 0.146298
O O13 0.335186 0.173393 0.582509
O O14 0.482476 0.079045 0.046862
O O15 0.519075 0.812096 0.366811
O O16 0.385695 0.495678 0.404073
#
# Coordination Sequence:
#
# PCOD9000743 Si02
#       8
#     1   1   1   1   1   1   1   1
#     4  11  21  43  64  90 128 166 206 259 315 363
#     4   9  22  42  63  93 130 158 212 262 297 380
#     4  10  19  38  63  90 121 169 204 258 311 361
#     4  10  21  42  62  88 132 162 208 262 306 372
#     4   9  20  40  63  92 126 163 211 250 310 377
#     4   9  20  39  60  93 128 162 210 259 309 372
#     4  10  21  38  63  89 130 161 210 262 302 377
#     4  10  20  42  60  91 127 163 201 256 312 358
#
# _framework density 24.358967
#
# number of rings (size 3 to 8) (size 9 to 14) (size 15 to 20)
#    0.750    1.500    1.250    2.250    0.000    2.000 
#    9.000    1.250    0.000    0.000    0.000    0.000 
#    0.000    0.000    0.000    0.000    0.000    0.000 
#
# Total GULP energy -44629.530905 kJ/mol
# GULP energy per Si atom -5578.691363 kJ/mol
# Density = 2.430352 g / cm^3
# Si number density = 24.358967 Si / 1000 Ang^3
#
#
#
# Elastic Constant Matrix: (Units=GPa)
#
#
# Indices 1 2 3 4 5 6 
#
# 1 50.1264 18.1961 28.7401 -0.1177 -10.4562 8.7718
# 2 18.1961 82.4142 40.4232 4.5343 3.3113 0.5479
# 3 28.7401 40.4232 182.2714 -18.2399 -20.3936 -9.4339
# 4 -0.1177 4.5343 -18.2399 41.2792 -9.4149 16.3429
# 5 -10.4562 3.3113 -20.3936 -9.4149 39.9699 -4.5971
# 6 8.7718 0.5479 -9.4339 16.3429 -4.5971 23.9346
#
#
#
# Elastic Compliance Matrix: (Units=1/GPa)
#
#
# Indices 1 2 3 4 5 6 
#
# 1 0.027042 -0.005268 -0.002479 0.006525 0.006168 -0.014038
# 2 -0.005268 0.015630 -0.003687 -0.005834 -0.005580 0.003031
# 3 -0.002479 -0.003687 0.007754 0.004048 0.004821 0.002211
# 4 0.006525 -0.005834 0.004048 0.039114 0.010554 -0.025343
# 5 0.006168 -0.005580 0.004821 0.010554 0.031889 -0.001314
# 6 -0.014038 0.003031 0.002211 -0.025343 -0.001314 0.064779
#
#
# Mechanical properties :
#
#
# Convention : Reuss Voigt Hill
#
# Bulk Modulus (GPa) = 36.28734 54.39233 45.33984
# Shear Modulus (GPa) = 22.90819 36.20026 29.55423
#
# Velocity S-wave (km/s) = 3.06999 3.85920 3.48699
# Velocity P-wave (km/s) = 5.24363 6.49891 5.90473
#
# Compressibility (1/GPa) = 0.02755782
#
# Stress axis : x y z
#
# Youngs Moduli (GPa) = 36.97996 63.97802 128.96847
#
# Poissons Ratio (x) = 0.33704 0.31972
# Poissons Ratio (y) = 0.19481 0.47550
# Poissons Ratio (z) = 0.09167 0.23588
#
# Static dielectric constant tensor:
#      x y z
#    x 2.013350 -0.045220 0.034670 
#    y -0.045220 1.975460 -0.022460 
#    z 0.034670 -0.022460 1.937260 
# 
# From -- ./inp_files/1213.got.cif
#   From: 2010.05.17/outbox.cif.g08.bks.cpg/sg1_1_cif.got.tgz:1213.got - 2010.05.17 20:27:59.
