data_PCOD9000665
_publ_section_title
;
Structure prediction by ZEFSAII (Michael W. Deem and Ramdas Pophale) SiO2 
 PCOD9000665
Probable space group: P 1
;
_chemical_formula_sum "Si O2"
_cell_formula_units_Z 6
_cell_length_a 4.909154
_cell_length_b 11.036954
_cell_length_c 5.083171
_cell_angle_alpha 117.423236
_cell_angle_beta 90.000013
_cell_angle_gamma 91.271595
_cell_volume 244.391537
_symmetry_space_group_name_H-M "P 1"
_symmetry_group_IT_number 1
_symmetry_cell_setting 'triclinic'
loop_
_space_group_symop_operation_xyz
x,y,z
loop_
_atom_site_type_symbol
_atom_site_label
_atom_site_fract_x
_atom_site_fract_y
_atom_site_fract_z
Si Si1 0.366920 0.668900 0.268760
Si Si2 0.849137 0.485439 0.177267
Si Si3 0.014602 0.914836 0.675446
Si Si4 0.274974 0.122639 0.222499
Si Si5 0.792756 0.306100 0.497929
Si Si6 0.627292 0.876704 0.137314
O O1 0.621516 0.598146 0.330549
O O2 0.479473 0.732477 0.059330
O O3 0.122284 0.558924 0.142174
O O4 0.239408 0.798786 0.542622
O O5 0.898062 0.408336 0.372319
O O6 0.743832 0.383203 0.847187
O O7 0.829802 0.907197 0.410618
O O8 0.812092 0.884342 0.887764
O O9 0.162422 0.059062 0.885915
O O10 0.519609 0.232615 0.315866
O O11 0.020377 0.193393 0.425795
O O12 0.402486 0.992753 0.236589
#
# Coordination Sequence:
#
# PCOD9000665 Si02
#       6
#     1   1   1   1   1   1
#     4  12  28  52  80 116 158 198 268 318 396 462
#     4  12  30  50  78 110 158 214 258 314 378 470
#     4  12  28  50  82 124 156 202 252 340 398 458
#     4  12  28  52  80 116 158 198 268 318 396 462
#     4  12  30  50  78 110 158 214 258 314 378 470
#     4  12  28  50  82 124 156 202 252 340 398 458
#
# _framework density 24.550767
#
# number of rings (size 3 to 8) (size 9 to 14) (size 15 to 20)
#    0.000    0.000    3.333    4.000    4.667    5.333 
#    0.000    0.000    0.000    0.000    0.000    0.000 
#    0.000    0.000    0.000    0.000    0.000    0.000 
#
# Total GULP energy -33671.203943 kJ/mol
# GULP energy per Si atom -5611.867324 kJ/mol
# Density = 2.449489 g / cm^3
# Si number density = 24.550767 Si / 1000 Ang^3
#
#
#
# Elastic Constant Matrix: (Units=GPa)
#
#
# Indices 1 2 3 4 5 6 
#
# 1 145.9789 27.8800 34.2414 -9.8226 -1.4810 -7.1372
# 2 27.8800 90.8216 31.8012 -17.2879 -10.3243 -15.6200
# 3 34.2414 31.8012 108.2197 -18.3250 -12.2317 -10.8258
# 4 -9.8226 -17.2879 -18.3250 36.4956 1.8477 2.4769
# 5 -1.4810 -10.3243 -12.2317 1.8477 45.5388 11.7627
# 6 -7.1372 -15.6200 -10.8258 2.4769 11.7627 50.8134
#
#
#
# Elastic Compliance Matrix: (Units=1/GPa)
#
#
# Indices 1 2 3 4 5 6 
#
# 1 0.007647 -0.001638 -0.001935 0.000327 -0.000736 0.000313
# 2 -0.001638 0.013899 -0.002299 0.004710 0.001522 0.002971
# 3 -0.001935 -0.002299 0.011530 0.004017 0.002147 0.000785
# 4 0.000327 0.004710 0.004017 0.031657 0.000707 0.000643
# 5 -0.000736 0.001522 0.002147 0.000707 0.024064 -0.004783
# 6 0.000313 0.002971 0.000785 0.000643 -0.004783 0.021880
#
#
# Mechanical properties :
#
#
# Convention : Reuss Voigt Hill
#
# Bulk Modulus (GPa) = 46.87845 59.20724 53.04285
# Shear Modulus (GPa) = 38.60081 43.30940 40.95510
#
# Velocity S-wave (km/s) = 3.96951 4.20465 4.08877
# Velocity P-wave (km/s) = 6.33603 6.90946 6.62895
#
# Compressibility (1/GPa) = 0.02133176
#
# Stress axis : x y z
#
# Youngs Moduli (GPa) = 130.77499 71.94834 86.73168
#
# Poissons Ratio (x) = 0.11782 0.16781
# Poissons Ratio (y) = 0.21415 0.19944
# Poissons Ratio (z) = 0.25303 0.16544
#
# Static dielectric constant tensor:
#      x y z
#    x 1.910750 0.038990 0.026560 
#    y 0.038990 1.934120 0.012880 
#    z 0.026560 0.012880 1.933980 
# 
# From -- ./inp_files/328.got.cif
#   From: 2010.05.17/outbox.cif.g08.bks.cpg/sg1_1_cif.got.tgz:328.got - 2010.05.17 20:27:59.
