data_PCOD9000253
_publ_section_title
;
Structure prediction by ZEFSAII (Michael W. Deem and Ramdas Pophale) SiO2 
 PCOD9000253
Probable space group: P 1
;
_chemical_formula_sum "Si O2"
_cell_formula_units_Z 8
_cell_length_a 9.607669
_cell_length_b 13.086793
_cell_length_c 12.800225
_cell_angle_alpha 157.811932
_cell_angle_beta 33.521444
_cell_angle_gamma 150.286603
_cell_volume 297.500958
_symmetry_space_group_name_H-M "P 1"
_symmetry_group_IT_number 1
_symmetry_cell_setting 'triclinic'
loop_
_space_group_symop_operation_xyz
x,y,z
loop_
_atom_site_type_symbol
_atom_site_label
_atom_site_fract_x
_atom_site_fract_y
_atom_site_fract_z
Si Si1 0.827900 0.768100 0.416130
Si Si2 0.983269 0.101376 0.977115
Si Si3 0.709587 0.949930 0.465800
Si Si4 0.214292 0.493496 0.885793
Si Si5 0.236757 0.606334 0.740625
Si Si6 0.668974 0.323883 0.514977
Si Si7 0.161987 0.881948 0.851936
Si Si8 0.285897 0.758662 0.361682
O O1 0.528931 0.633715 0.534761
O O2 0.487138 0.992124 0.721322
O O3 0.781290 0.727679 0.281707
O O4 0.007444 0.131249 0.661478
O O5 0.082780 0.097951 0.033034
O O6 0.042647 0.841962 0.639284
O O7 0.170391 0.402162 0.076125
O O8 0.724473 0.175338 0.235028
O O9 0.977354 0.267153 0.571885
O O10 0.939901 0.551619 0.630411
O O11 0.518118 0.803385 0.347738
O O12 0.285827 0.650956 0.875819
O O13 0.027678 0.621115 0.184160
O O14 0.502320 0.516701 0.774713
O O15 0.157547 0.829719 0.930129
O O16 0.467588 0.029645 0.427933
#
# Coordination Sequence:
#
# PCOD9000253 Si02
#       8
#     1   1   1   1   1   1   1   1
#     4  10  25  46  68 101 137 186 240 285 338 425
#     4  11  25  44  66 108 144 177 233 289 345 421
#     4   9  19  42  69 102 137 173 233 288 344 412
#     4  11  28  46  70 101 144 184 241 282 341 426
#     4  10  22  48  73 101 140 192 224 297 358 400
#     4  12  26  45  75 104 145 189 231 287 357 417
#     4  10  22  44  73 114 136 178 239 291 350 426
#     4  11  25  41  68 107 143 181 223 293 351 413
#
# _framework density 26.890671000000001
#
# number of rings (size 3 to 8) (size 9 to 14) (size 15 to 20)
#    0.000    1.500    3.750    0.000    3.500   10.000 
#    0.000    0.000    0.000    0.000    0.000    0.000 
#    0.000    0.000    0.000    0.000    0.000    0.000 
#
# Total GULP energy -44745.571567 kJ/mol
# GULP energy per Si atom -5593.196446 kJ/mol
# Density = 2.682947 g / cm^3
# Si number density = 26.890671 Si / 1000 Ang^3
#
#
#
# Elastic Constant Matrix: (Units=GPa)
#
#
# Indices 1 2 3 4 5 6 
#
# 1 77.0856 46.6624 36.4252 14.3900 -8.8236 -3.3372
# 2 46.6624 153.6483 45.0807 -14.3309 -6.6216 -9.6772
# 3 36.4252 45.0807 138.9359 9.8559 -22.2520 7.4480
# 4 14.3900 -14.3309 9.8559 39.9891 -1.8411 -13.6091
# 5 -8.8236 -6.6216 -22.2520 -1.8411 30.2727 -0.4736
# 6 -3.3372 -9.6772 7.4480 -13.6091 -0.4736 40.5535
#
#
#
# Elastic Compliance Matrix: (Units=1/GPa)
#
#
# Indices 1 2 3 4 5 6 
#
# 1 0.019722 -0.006435 -0.001862 -0.009801 0.002332 -0.002832
# 2 -0.006435 0.010329 -0.002705 0.008423 -0.001010 0.005247
# 3 -0.001862 -0.002705 0.009985 -0.003794 0.005915 -0.003837
# 4 -0.009801 0.008423 -0.003794 0.037332 -0.001307 0.014413
# 5 0.002332 -0.001010 0.005915 -0.001307 0.037742 -0.001133
# 6 -0.002832 0.005247 -0.003837 0.014413 -0.001133 0.031206
#
#
# Mechanical properties :
#
#
# Convention : Reuss Voigt Hill
#
# Bulk Modulus (GPa) = 55.45675 69.55629 62.50652
# Shear Modulus (GPa) = 28.68118 38.26315 33.47217
#
# Velocity S-wave (km/s) = 3.26940 3.77625 3.53193
# Velocity P-wave (km/s) = 5.90930 6.70342 6.31885
#
# Compressibility (1/GPa) = 0.01803207
#
# Stress axis : x y z
#
# Youngs Moduli (GPa) = 50.70587 96.81640 100.14531
#
# Poissons Ratio (x) = 0.62302 0.18646
# Poissons Ratio (y) = 0.32630 0.27088
# Poissons Ratio (z) = 0.09441 0.26188
#
# Static dielectric constant tensor:
#      x y z
#    x 2.202070 -0.007680 0.008160 
#    y -0.007680 2.096220 -0.056660 
#    z 0.008160 -0.056660 2.104640 
# 
# From -- ./inp_files/7274.got.cif
#   From: 2010.05.17/outbox.cif.g08.bks.cpg/sg1_4_cif.got.tgz:7274.got - 2010.05.17 20:27:59.
