data_PCOD9000942
_publ_section_title
;
Structure prediction by ZEFSAII (Michael W. Deem and Ramdas Pophale) SiO2 
 PCOD9000942
Probable space group: P 1
;
_chemical_formula_sum "Si O2"
_cell_formula_units_Z 6
_cell_length_a 9.407520
_cell_length_b 6.590697
_cell_length_c 7.557328
_cell_angle_alpha 114.300023
_cell_angle_beta 131.455880
_cell_angle_gamma 50.829295
_cell_volume 272.238585
_symmetry_space_group_name_H-M "P 1"
_symmetry_group_IT_number 1
_symmetry_cell_setting 'triclinic'
loop_
_space_group_symop_operation_xyz
x,y,z
loop_
_atom_site_type_symbol
_atom_site_label
_atom_site_fract_x
_atom_site_fract_y
_atom_site_fract_z
Si Si1 0.504680 0.254190 0.369160
Si Si2 0.162584 0.817459 0.169526
Si Si3 0.462051 0.766310 0.071320
Si Si4 0.664403 0.993093 0.771960
Si Si5 0.804616 0.437509 0.509690
Si Si6 0.298719 0.022342 0.687331
O O1 0.279701 0.519626 0.226257
O O2 0.703647 0.282693 0.465415
O O3 0.496305 0.010590 0.201139
O O4 0.544747 0.198320 0.589800
O O5 0.268672 0.812437 0.065130
O O6 0.236339 0.953086 0.422981
O O7 0.899493 0.956359 0.996639
O O8 0.686743 0.522745 0.249954
O O9 0.388950 0.783575 0.815074
O O10 0.722721 0.708347 0.643622
O O11 0.495930 0.072132 0.824090
O O12 0.070030 0.266372 0.658350
#
# Coordination Sequence:
#
# PCOD9000942 Si02
#       6
#     1   1   1   1   1   1
#     4  10  20  46  70  90 138 172 208 278 322 374
#     4  11  24  45  67  97 134 170 217 271 321 385
#     4  10  23  45  66  98 133 170 218 269 322 385
#     4  11  24  45  67  97 134 170 217 271 321 385
#     4  10  23  45  66  98 133 170 218 269 322 385
#     4  12  24  44  68 100 128 174 220 260 332 386
#
# _framework density 22.039489
#
# number of rings (size 3 to 8) (size 9 to 14) (size 15 to 20)
#    0.000    1.333    5.000    2.000    2.333    2.667 
#   12.000    0.000    0.000    0.000    0.000    0.000 
#    0.000    0.000    0.000    0.000    0.000    0.000 
#
# Total GULP energy -33561.110163 kJ/mol
# GULP energy per Si atom -5593.518360 kJ/mol
# Density = 2.198933 g / cm^3
# Si number density = 22.039489 Si / 1000 Ang^3
#
#
#
# Elastic Constant Matrix: (Units=GPa)
#
#
# Indices 1 2 3 4 5 6 
#
# 1 117.6832 34.9322 63.9693 -27.4090 -8.0739 19.1036
# 2 34.9322 78.1311 -2.8150 -5.5432 1.6898 15.0300
# 3 63.9693 -2.8150 99.4490 -18.9664 3.3778 9.8863
# 4 -27.4090 -5.5432 -18.9664 24.4043 14.4453 -4.5622
# 5 -8.0739 1.6898 3.3778 14.4453 29.1924 -5.8449
# 6 19.1036 15.0300 9.8863 -4.5622 -5.8449 30.2786
#
#
#
# Elastic Compliance Matrix: (Units=1/GPa)
#
#
# Indices 1 2 3 4 5 6 
#
# 1 0.019659 -0.007786 -0.010492 0.010932 0.001039 -0.003265
# 2 -0.007786 0.018463 0.007367 0.004347 -0.007726 -0.007494
# 3 -0.010492 0.007367 0.020190 0.012227 -0.012558 -0.004212
# 4 0.010932 0.004347 0.012227 0.088215 -0.043944 -0.008238
# 5 0.001039 -0.007726 -0.012558 -0.043944 0.060664 0.012369
# 6 -0.003265 -0.007494 -0.004212 -0.008238 0.012369 0.041328
#
#
# Mechanical properties :
#
#
# Convention : Reuss Voigt Hill
#
# Bulk Modulus (GPa) = 27.40442 54.15957 40.78200
# Shear Modulus (GPa) = 17.69897 30.05353 23.87625
#
# Velocity S-wave (km/s) = 2.83690 3.69673 3.29498
# Velocity P-wave (km/s) = 4.81580 6.54586 5.74631
#
# Compressibility (1/GPa) = 0.03649046
#
# Stress axis : x y z
#
# Youngs Moduli (GPa) = 50.86776 54.16304 49.53066
#
# Poissons Ratio (x) = 0.42172 0.51965
# Poissons Ratio (y) = 0.39607 -0.36491
# Poissons Ratio (z) = 0.53368 -0.39904
#
# Static dielectric constant tensor:
#      x y z
#    x 1.772340 -0.016340 -0.025620 
#    y -0.016340 1.822760 0.055120 
#    z -0.025620 0.055120 1.857310 
# 
# From -- ./inp_files/950.got.cif
#   From: 2010.05.17/outbox.cif.g08.bks.cpg/sg1_1_cif.got.tgz:950.got - 2010.05.17 20:27:59.
