data_PCOD9000619
_publ_section_title
;
Structure prediction by ZEFSAII (Michael W. Deem and Ramdas Pophale) SiO2 
 PCOD9000619
Probable space group: P 1
;
_chemical_formula_sum "Si O2"
_cell_formula_units_Z 8
_cell_length_a 7.531720
_cell_length_b 6.828229
_cell_length_c 6.916162
_cell_angle_alpha 68.148016
_cell_angle_beta 94.875667
_cell_angle_gamma 68.501911
_cell_volume 296.896701
_symmetry_space_group_name_H-M "P 1"
_symmetry_group_IT_number 1
_symmetry_cell_setting 'triclinic'
loop_
_space_group_symop_operation_xyz
x,y,z
loop_
_atom_site_type_symbol
_atom_site_label
_atom_site_fract_x
_atom_site_fract_y
_atom_site_fract_z
Si Si1 0.616150 0.100000 0.872360
Si Si2 0.532351 0.462401 0.393639
Si Si3 0.820966 0.256671 0.153452
Si Si4 0.151704 0.617423 0.073887
Si Si5 0.249420 0.873011 0.422281
Si Si6 0.836406 0.663543 0.785963
Si Si7 0.008505 0.568955 0.472691
Si Si8 0.243593 0.032964 0.785340
O O1 0.424270 0.053459 0.901060
O O2 0.752002 0.899071 0.811130
O O3 0.558490 0.325163 0.646179
O O4 0.723047 0.117568 0.071610
O O5 0.726048 0.346892 0.321879
O O6 0.364480 0.447918 0.240873
O O7 0.430873 0.734938 0.346660
O O8 0.160832 0.864522 0.942120
O O9 0.057181 0.103011 0.250012
O O10 0.003046 0.608028 0.229279
O O11 0.071491 0.550118 0.899789
O O12 0.153237 0.688608 0.497549
O O13 0.314182 0.923071 0.618423
O O14 0.819945 0.694462 0.545030
O O15 0.763301 0.485289 0.933072
O O16 0.086396 0.296870 0.631675
#
# Coordination Sequence:
#
# PCOD9000619 Si02
#       8
#     1   1   1   1   1   1   1   1
#     4  12  28  52  74 122 165 210 273 341 405 487
#     4  11  27  50  81 117 167 210 273 335 402 488
#     4  12  30  53  84 120 168 217 270 339 412 482
#     4  11  25  50  78 118 155 211 272 323 407 480
#     4  11  25  54  82 116 168 212 276 334 397 497
#     4  12  28  48  80 116 165 213 268 340 403 479
#     4  11  25  47  76 117 154 208 269 324 399 477
#     4  12  26  50  85 114 164 215 265 338 411 478
#
# _framework density 26.945398999999998
#
# number of rings (size 3 to 8) (size 9 to 14) (size 15 to 20)
#    0.000    0.500    3.750    3.750   10.500    1.000 
#    6.750    1.250    0.000    0.000    0.000    0.000 
#    0.000    0.000    0.000    0.000    0.000    0.000 
#
# Total GULP energy -44794.395858 kJ/mol
# GULP energy per Si atom -5599.299482 kJ/mol
# Density = 2.688407 g / cm^3
# Si number density = 26.945399 Si / 1000 Ang^3
#
#
#
# Elastic Constant Matrix: (Units=GPa)
#
#
# Indices 1 2 3 4 5 6 
#
# 1 104.6245 26.2620 43.5097 -5.8238 6.2731 5.9494
# 2 26.2620 152.1766 57.4362 9.9933 -13.1077 -10.3185
# 3 43.5097 57.4362 127.9736 -5.4701 -17.7382 2.9614
# 4 -5.8238 9.9933 -5.4701 51.2201 3.3757 -8.2316
# 5 6.2731 -13.1077 -17.7382 3.3757 59.0100 -5.9435
# 6 5.9494 -10.3185 2.9614 -8.2316 -5.9435 40.4285
#
#
#
# Elastic Compliance Matrix: (Units=1/GPa)
#
#
# Indices 1 2 3 4 5 6 
#
# 1 0.011754 -0.001020 -0.003851 0.001005 -0.002885 -0.001928
# 2 -0.001020 0.008417 -0.003383 -0.001825 0.001304 0.002366
# 3 -0.003851 -0.003383 0.011101 0.001145 0.002884 -0.000453
# 4 0.001005 -0.001825 0.001145 0.020725 -0.001014 0.003373
# 5 -0.002885 0.001304 0.002884 -0.001014 0.018780 0.003101
# 6 -0.001928 0.002366 -0.000453 0.003373 0.003101 0.026798
#
#
# Mechanical properties :
#
#
# Convention : Reuss Voigt Hill
#
# Bulk Modulus (GPa) = 67.73223 71.02117 69.37670
# Shear Modulus (GPa) = 42.01565 47.30284 44.65925
#
# Velocity S-wave (km/s) = 3.95307 4.19442 4.07553
# Velocity P-wave (km/s) = 6.78432 7.06203 6.92457
#
# Compressibility (1/GPa) = 0.01476402
#
# Stress axis : x y z
#
# Youngs Moduli (GPa) = 85.07739 118.81106 90.08519
#
# Poissons Ratio (x) = 0.12122 0.34689
# Poissons Ratio (y) = 0.08680 0.30473
# Poissons Ratio (z) = 0.32761 0.40190
#
# Static dielectric constant tensor:
#      x y z
#    x 2.136600 -0.070480 0.017420 
#    y -0.070480 2.145540 0.003170 
#    z 0.017420 0.003170 2.070780 
# 
# From -- ./inp_files/4610.got.cif
#   From: 2010.05.17/outbox.cif.g08.bks.cpg/sg1_3_cif.got.tgz:4610.got - 2010.05.17 20:27:59.
