data_PCOD9000237
_publ_section_title
;
Structure prediction by ZEFSAII (Michael W. Deem and Ramdas Pophale) SiO2 
 PCOD9000237
Probable space group: P 1
;
_chemical_formula_sum "Si O2"
_cell_formula_units_Z 8
_cell_length_a 5.188047
_cell_length_b 9.215315
_cell_length_c 14.497022
_cell_angle_alpha 34.435671
_cell_angle_beta 100.425338
_cell_angle_gamma 81.412098
_cell_volume 325.203710
_symmetry_space_group_name_H-M "P 1"
_symmetry_group_IT_number 1
_symmetry_cell_setting 'triclinic'
loop_
_space_group_symop_operation_xyz
x,y,z
loop_
_atom_site_type_symbol
_atom_site_label
_atom_site_fract_x
_atom_site_fract_y
_atom_site_fract_z
Si Si1 0.286650 0.908510 0.885550
Si Si2 0.039545 0.170012 0.920024
Si Si3 0.057425 0.602522 0.284657
Si Si4 0.796095 0.807538 0.828298
Si Si5 0.540277 0.718279 0.315211
Si Si6 0.203741 0.108624 0.263547
Si Si7 0.814509 0.282015 0.308683
Si Si8 0.669402 0.855197 0.594363
O O1 0.558742 0.895879 0.851290
O O2 0.012255 0.939278 0.789674
O O3 0.128312 0.151561 0.828982
O O4 0.465437 0.579902 0.122529
O O5 0.350684 0.017014 0.081333
O O6 0.814348 0.508499 0.759892
O O7 0.923362 0.942785 0.056144
O O8 0.988483 0.425689 0.296278
O O9 0.889122 0.594198 0.371922
O O10 0.404894 0.515166 0.378506
O O11 0.600211 0.885962 0.681480
O O12 0.049965 0.441885 0.035173
O O13 0.400242 0.845216 0.340418
O O14 0.422013 0.038182 0.402502
O O15 0.908068 0.152830 0.277672
O O16 0.882070 0.994608 0.522833
#
# Coordination Sequence:
#
# PCOD9000237 Si02
#       8
#     1   1   1   1   1   1   1   1
#     4  11  23  46  74 100 145 201 236 290 371 440
#     4  10  23  45  72 108 143 195 240 298 363 434
#     4  10  22  43  76 100 140 201 235 288 367 435
#     4  11  25  47  73 104 144 196 241 294 369 434
#     4  10  23  42  75  99 141 193 240 283 362 434
#     4  11  25  46  71 108 152 192 241 299 380 427
#     4  11  24  45  76 106 149 192 247 302 366 430
#     4  12  27  46  75 115 146 188 248 318 352 438
#
# _framework density 24.599965999999998
#
# number of rings (size 3 to 8) (size 9 to 14) (size 15 to 20)
#    0.750    0.500    3.750    1.500    5.250    2.000 
#    2.250    0.000    0.000    0.000    0.000    0.000 
#    0.000    0.000    0.000    0.000    0.000    0.000 
#
# Total GULP energy -44663.854805 kJ/mol
# GULP energy per Si atom -5582.981851 kJ/mol
# Density = 2.454398 g / cm^3
# Si number density = 24.599966 Si / 1000 Ang^3
#
#
#
# Elastic Constant Matrix: (Units=GPa)
#
#
# Indices 1 2 3 4 5 6 
#
# 1 96.9776 35.8650 15.6303 -7.1829 0.8778 -4.3087
# 2 35.8650 155.0032 36.7465 4.4922 -8.0666 -25.0867
# 3 15.6303 36.7465 81.1597 2.2654 2.8792 15.3551
# 4 -7.1829 4.4922 2.2654 43.4857 9.9803 0.4450
# 5 0.8778 -8.0666 2.8792 9.9803 34.7178 7.6045
# 6 -4.3087 -25.0867 15.3551 0.4450 7.6045 38.2750
#
#
#
# Elastic Compliance Matrix: (Units=1/GPa)
#
#
# Indices 1 2 3 4 5 6 
#
# 1 0.011660 -0.002495 -0.001218 0.002616 -0.001626 0.000458
# 2 -0.002495 0.009742 -0.005456 -0.001554 0.001469 0.008019
# 3 -0.001218 -0.005456 0.017030 -0.000361 -0.000247 -0.010492
# 4 0.002616 -0.001554 -0.000361 0.025402 -0.007850 0.000685
# 5 -0.001626 0.001469 -0.000247 -0.007850 0.032672 -0.005521
# 6 0.000458 0.008019 -0.010492 0.000685 -0.005521 0.036732
#
#
# Mechanical properties :
#
#
# Convention : Reuss Voigt Hill
#
# Bulk Modulus (GPa) = 49.76835 56.62488 53.19661
# Shear Modulus (GPa) = 31.59079 39.62228 35.60653
#
# Velocity S-wave (km/s) = 3.58743 4.01766 3.80863
# Velocity P-wave (km/s) = 6.11838 6.67760 6.40410
#
# Compressibility (1/GPa) = 0.02009309
#
# Stress axis : x y z
#
# Youngs Moduli (GPa) = 85.76630 102.65152 58.71966
#
# Poissons Ratio (x) = 0.25616 0.07150
# Poissons Ratio (y) = 0.21403 0.32038
# Poissons Ratio (z) = 0.10443 0.56007
#
# Static dielectric constant tensor:
#      x y z
#    x 2.182350 -0.016670 0.009670 
#    y -0.016670 1.907470 -0.008140 
#    z 0.009670 -0.008140 2.003160 
# 
# From -- ./inp_files/6998.got.cif
#   From: 2010.05.17/outbox.cif.g08.bks.cpg/sg1_4_cif.got.tgz:6998.got - 2010.05.17 20:27:59.
