data_PCOD9000730
_publ_section_title
;
Structure prediction by ZEFSAII (Michael W. Deem and Ramdas Pophale) SiO2 
 PCOD9000730
Probable space group: P 1
;
_chemical_formula_sum "Si O2"
_cell_formula_units_Z 8
_cell_length_a 7.698789
_cell_length_b 7.662521
_cell_length_c 7.990346
_cell_angle_alpha 52.928332
_cell_angle_beta 61.162184
_cell_angle_gamma 54.213083
_cell_volume 298.887685
_symmetry_space_group_name_H-M "P 1"
_symmetry_group_IT_number 1
_symmetry_cell_setting 'triclinic'
loop_
_space_group_symop_operation_xyz
x,y,z
loop_
_atom_site_type_symbol
_atom_site_label
_atom_site_fract_x
_atom_site_fract_y
_atom_site_fract_z
Si Si1 0.271380 0.492180 0.191960
Si Si2 0.734904 0.560718 0.148266
Si Si3 0.572061 0.064476 0.087186
Si Si4 0.101073 0.763769 0.796438
Si Si5 0.925124 0.518497 0.574774
Si Si6 0.166071 0.791755 0.384829
Si Si7 0.707465 0.288024 0.634331
Si Si8 0.922856 0.193368 0.022825
O O1 0.404226 0.228172 0.207638
O O2 0.312219 0.595426 0.291845
O O3 0.043380 0.489048 0.358939
O O4 0.240051 0.683711 0.948584
O O5 0.724534 0.366103 0.396102
O O6 0.727752 0.436164 0.046420
O O7 0.582640 0.811767 0.166742
O O8 0.950043 0.614167 0.974947
O O9 0.800616 0.044701 0.077689
O O10 0.532243 0.211456 0.845820
O O11 0.233454 0.733335 0.578706
O O12 0.928709 0.042124 0.699660
O O13 0.707830 0.496816 0.637715
O O14 0.940422 0.747637 0.515744
O O15 0.040369 0.294036 0.775760
O O16 0.084027 0.046025 0.181568
#
# Coordination Sequence:
#
# PCOD9000730 Si02
#       8
#     1   1   1   1   1   1   1   1
#     4  10  21  42  58  88 137 157 187 260 316 357
#     4  11  19  39  63  91 117 156 214 251 292 363
#     4  10  24  40  57  90 131 159 193 253 315 365
#     4  11  20  37  67  91 118 155 211 261 291 359
#     4   9  19  35  63  83 117 160 199 253 299 350
#     4  10  20  37  64  91 114 154 212 257 291 352
#     4  10  19  37  62  87 112 163 208 247 299 352
#     4  11  20  39  68  89 114 160 216 252 297 358
#
# _framework density 26.765908
#
# number of rings (size 3 to 8) (size 9 to 14) (size 15 to 20)
#    0.750    1.000    3.750    3.000    0.000    0.000 
#    6.750    1.250    0.000    0.000    0.000    0.000 
#    0.000    0.000    0.000    0.000    0.000    0.000 
#
# Total GULP energy -44566.177768 kJ/mol
# GULP energy per Si atom -5570.772221 kJ/mol
# Density = 2.670499 g / cm^3
# Si number density = 26.765908 Si / 1000 Ang^3
#
#
#
# Elastic Constant Matrix: (Units=GPa)
#
#
# Indices 1 2 3 4 5 6 
#
# 1 59.6744 32.5896 35.0114 -4.1463 23.5811 11.2778
# 2 32.5896 140.3991 55.0644 14.9768 5.9906 18.2502
# 3 35.0114 55.0644 231.6005 2.4378 37.8518 -0.0781
# 4 -4.1463 14.9768 2.4378 53.0808 5.4195 0.5045
# 5 23.5811 5.9906 37.8518 5.4195 38.3098 0.1776
# 6 11.2778 18.2502 -0.0781 0.5045 0.1776 40.0488
#
#
#
# Elastic Compliance Matrix: (Units=1/GPa)
#
#
# Indices 1 2 3 4 5 6 
#
# 1 0.028021 -0.005605 -0.000195 0.005560 -0.016941 -0.005332
# 2 -0.005605 0.009850 -0.002212 -0.003559 0.004612 -0.002890
# 3 -0.000195 -0.002212 0.005735 0.000879 -0.005330 0.001087
# 4 0.005560 -0.003559 0.000879 0.020922 -0.006693 -0.000176
# 5 -0.016941 0.004612 -0.005330 -0.006693 0.042011 0.002556
# 6 -0.005332 -0.002890 0.001087 -0.000176 0.002556 0.027781
#
#
# Mechanical properties :
#
#
# Convention : Reuss Voigt Hill
#
# Bulk Modulus (GPa) = 36.25450 75.22276 55.73863
# Shear Modulus (GPa) = 31.34045 46.88846 39.11446
#
# Velocity S-wave (km/s) = 3.42557 4.18999 3.82691
# Velocity P-wave (km/s) = 5.40559 7.18143 6.35584
#
# Compressibility (1/GPa) = 0.02758278
#
# Stress axis : x y z
#
# Youngs Moduli (GPa) = 35.68710 101.52775 174.35571
#
# Poissons Ratio (x) = 0.56906 0.03400
# Poissons Ratio (y) = 0.20003 0.38563
# Poissons Ratio (z) = 0.00696 0.22455
#
# Static dielectric constant tensor:
#      x y z
#    x 2.334420 -0.084000 -0.052070 
#    y -0.084000 2.169900 0.054330 
#    z -0.052070 0.054330 2.101100 
# 
# From -- ./inp_files/1021.got.cif
#   From: 2010.05.17/outbox.cif.g08.bks.cpg/sg1_1_cif.got.tgz:1021.got - 2010.05.17 20:27:59.
