data_PCOD9000448
_publ_section_title
;
Structure prediction by ZEFSAII (Michael W. Deem and Ramdas Pophale) SiO2 
 PCOD9000448
Probable space group: P 1
;
_chemical_formula_sum "Si O2"
_cell_formula_units_Z 8
_cell_length_a 9.244636
_cell_length_b 5.181312
_cell_length_c 10.904011
_cell_angle_alpha 66.160330
_cell_angle_beta 60.687677
_cell_angle_gamma 104.497214
_cell_volume 344.566499
_symmetry_space_group_name_H-M "P 1"
_symmetry_group_IT_number 1
_symmetry_cell_setting 'triclinic'
loop_
_space_group_symop_operation_xyz
x,y,z
loop_
_atom_site_type_symbol
_atom_site_label
_atom_site_fract_x
_atom_site_fract_y
_atom_site_fract_z
Si Si1 0.228400 0.448450 0.722570
Si Si2 0.489051 0.701909 0.204106
Si Si3 0.609850 0.422836 0.986850
Si Si4 0.701408 0.157846 0.617436
Si Si5 0.302707 0.420597 0.969512
Si Si6 0.954122 0.585586 0.658592
Si Si7 0.089128 0.231881 0.349692
Si Si8 0.472415 0.243854 0.512844
O O1 0.194915 0.324547 0.901346
O O2 0.300382 0.241184 0.660794
O O3 0.051657 0.430007 0.725579
O O4 0.396251 0.861674 0.575213
O O5 0.566030 0.625248 0.062935
O O6 0.253932 0.540741 0.307530
O O7 0.518449 0.498104 0.335103
O O8 0.594914 0.097249 0.111446
O O9 0.436124 0.278010 0.982238
O O10 0.826582 0.656012 0.791364
O O11 0.799924 0.331795 0.670457
O O12 0.655452 0.373969 0.505209
O O13 0.864031 0.120440 0.487393
O O14 0.484964 0.817214 0.801064
O O15 0.156127 0.328776 0.162679
O O16 0.104163 0.927622 0.454527
#
# Coordination Sequence:
#
# PCOD9000448 Si02
#       8
#     1   1   1   1   1   1   1   1
#     4  11  25  44  72 101 142 183 233 289 352 409
#     4  11  24  44  68 106 138 189 228 288 348 422
#     4  11  24  42  70 100 147 180 233 286 353 407
#     4  11  25  45  73 101 143 185 237 287 350 416
#     4  10  24  48  68 105 140 188 227 291 351 415
#     4  12  24  44  70 106 138 186 238 287 347 418
#     4  11  24  42  73 102 138 185 239 279 353 414
#     4  11  24  45  70 101 142 188 229 287 354 413
#
# _framework density 23.217580000000002
#
# number of rings (size 3 to 8) (size 9 to 14) (size 15 to 20)
#    0.000    1.000    2.500    3.750    7.000    3.000 
#    2.250    0.000    0.000    0.000    0.000    0.000 
#    0.000    0.000    0.000    0.000    0.000    0.000 
#
# Total GULP energy -44738.686029 kJ/mol
# GULP energy per Si atom -5592.335754 kJ/mol
# Density = 2.316474 g / cm^3
# Si number density = 23.217580 Si / 1000 Ang^3
#
#
#
# Elastic Constant Matrix: (Units=GPa)
#
#
# Indices 1 2 3 4 5 6 
#
# 1 134.5544 -8.3417 24.9471 21.2797 22.2487 4.4190
# 2 -8.3417 42.9935 9.1348 3.7663 -10.2997 -5.0148
# 3 24.9471 9.1348 110.2261 12.0567 17.9174 -2.2659
# 4 21.2797 3.7663 12.0567 35.9679 -6.3644 -0.1232
# 5 22.2487 -10.2997 17.9174 -6.3644 41.2958 4.6552
# 6 4.4190 -5.0148 -2.2659 -0.1232 4.6552 35.1882
#
#
#
# Elastic Compliance Matrix: (Units=1/GPa)
#
#
# Indices 1 2 3 4 5 6 
#
# 1 0.009598 0.001204 -0.000658 -0.006569 -0.005557 -0.000364
# 2 0.001204 0.026259 -0.003407 -0.001084 0.006936 0.002450
# 3 -0.000658 -0.003407 0.010931 -0.003971 -0.005971 0.001077
# 4 -0.006569 -0.001084 -0.003971 0.034985 0.010479 -0.000849
# 5 -0.005557 0.006936 -0.005971 0.010479 0.033494 -0.003093
# 6 -0.000364 0.002450 0.001077 -0.000849 -0.003093 0.029289
#
#
# Mechanical properties :
#
#
# Convention : Reuss Voigt Hill
#
# Bulk Modulus (GPa) = 24.35124 37.69494 31.02309
# Shear Modulus (GPa) = 30.49411 39.95930 35.22671
#
# Velocity S-wave (km/s) = 3.62803 4.15309 3.89941
# Velocity P-wave (km/s) = 5.29728 6.26644 5.80213
#
# Compressibility (1/GPa) = 0.04106566
#
# Stress axis : x y z
#
# Youngs Moduli (GPa) = 104.18701 38.08194 91.48598
#
# Poissons Ratio (x) = -0.04584 0.06018
# Poissons Ratio (y) = -0.12542 0.31170
# Poissons Ratio (z) = 0.06854 0.12975
#
# Static dielectric constant tensor:
#      x y z
#    x 1.895220 0.004730 -0.009120 
#    y 0.004730 1.893150 -0.017800 
#    z -0.009120 -0.017800 1.917970 
# 
# From -- ./inp_files/1076.got.cif
#   From: 2010.05.17/outbox.cif.g08.bks.cpg/sg1_1_cif.got.tgz:1076.got - 2010.05.17 20:27:59.
