data_PCOD9000395
_publ_section_title
;
Structure prediction by ZEFSAII (Michael W. Deem and Ramdas Pophale) SiO2 
 PCOD9000395
Probable space group: P 1
;
_chemical_formula_sum "Si O2"
_cell_formula_units_Z 8
_cell_length_a 7.348809
_cell_length_b 8.911061
_cell_length_c 7.799306
_cell_angle_alpha 95.420727
_cell_angle_beta 54.386373
_cell_angle_gamma 128.552043
_cell_volume 294.349950
_symmetry_space_group_name_H-M "P 1"
_symmetry_group_IT_number 1
_symmetry_cell_setting 'triclinic'
loop_
_space_group_symop_operation_xyz
x,y,z
loop_
_atom_site_type_symbol
_atom_site_label
_atom_site_fract_x
_atom_site_fract_y
_atom_site_fract_z
Si Si1 0.370530 0.298070 0.476000
Si Si2 0.563871 0.794973 0.652529
Si Si3 0.900741 0.191435 0.324979
Si Si4 0.831726 0.742842 0.179562
Si Si5 0.435245 0.026690 0.263459
Si Si6 0.380233 0.678084 0.130707
Si Si7 0.378585 0.204169 0.857441
Si Si8 0.963828 0.398305 0.762992
O O1 0.171308 0.356589 0.577189
O O2 0.704967 0.512369 0.238056
O O3 0.258459 0.098367 0.411522
O O4 0.376123 0.255544 0.667844
O O5 0.215517 0.625467 0.740729
O O6 0.745411 0.036490 0.554167
O O7 0.525422 0.736230 0.866388
O O8 0.292940 0.808704 0.238952
O O9 0.074082 0.430100 0.278562
O O10 0.602934 0.062556 0.351315
O O11 0.747279 0.770279 0.417133
O O12 0.629687 0.734204 0.141116
O O13 0.188975 0.957155 0.963532
O O14 0.725099 0.209368 0.005114
O O15 0.165268 0.216260 0.088398
O O16 0.727909 0.367341 0.758670
#
# Coordination Sequence:
#
# PCOD9000395 Si02
#       8
#     1   1   1   1   1   1   1   1
#     4  11  26  52  82 120 173 224 280 350 425 503
#     4  10  23  49  86 125 170 221 277 353 425 495
#     4  11  24  52  87 125 169 220 288 343 423 510
#     4  10  24  51  85 126 168 220 292 343 423 512
#     4  12  26  51  82 123 173 222 278 348 421 505
#     4  12  24  48  88 123 178 221 277 359 414 506
#     4  11  24  54  86 126 170 223 282 357 428 499
#     4  11  25  55  84 124 173 221 284 351 427 508
#
# _framework density 27.178533000000002
#
# number of rings (size 3 to 8) (size 9 to 14) (size 15 to 20)
#    0.000    1.000    5.000    0.750    1.750    7.000 
#    9.000    1.250    0.000    0.000    0.000    0.000 
#    0.000    0.000    0.000    0.000    0.000    0.000 
#
# Total GULP energy -44881.321156 kJ/mol
# GULP energy per Si atom -5610.165144 kJ/mol
# Density = 2.711667 g / cm^3
# Si number density = 27.178533 Si / 1000 Ang^3
#
#
#
# Elastic Constant Matrix: (Units=GPa)
#
#
# Indices 1 2 3 4 5 6 
#
# 1 129.4788 51.9225 64.9907 12.9685 -1.7094 6.0138
# 2 51.9225 231.8591 74.3385 -10.8770 7.3178 -4.8988
# 3 64.9907 74.3385 179.5685 -15.7903 15.3010 -8.3639
# 4 12.9685 -10.8770 -15.7903 43.0720 -9.9469 5.9375
# 5 -1.7094 7.3178 15.3010 -9.9469 51.8624 14.4894
# 6 6.0138 -4.8988 -8.3639 5.9375 14.4894 34.6029
#
#
#
# Elastic Compliance Matrix: (Units=1/GPa)
#
#
# Indices 1 2 3 4 5 6 
#
# 1 0.010933 -0.001484 -0.004018 -0.004298 0.001796 -0.003096
# 2 -0.001484 0.005186 -0.001463 0.001069 -0.000307 0.000584
# 3 -0.004018 -0.001463 0.008251 0.002811 -0.002697 0.003132
# 4 -0.004298 0.001069 0.002811 0.027933 0.005814 -0.005650
# 5 0.001796 -0.000307 -0.002697 0.005814 0.024751 -0.012369
# 6 -0.003096 0.000584 0.003132 -0.005650 -0.012369 0.036426
#
#
# Mechanical properties :
#
#
# Convention : Reuss Voigt Hill
#
# Bulk Modulus (GPa) = 95.76569 102.60112 99.18340
# Shear Modulus (GPa) = 38.20013 49.21778 43.70895
#
# Velocity S-wave (km/s) = 3.75310 4.26009 4.01461
# Velocity P-wave (km/s) = 7.35482 7.87595 7.61984
#
# Compressibility (1/GPa) = 0.01044215
#
# Stress axis : x y z
#
# Youngs Moduli (GPa) = 91.46630 192.81213 121.19133
#
# Poissons Ratio (x) = 0.28611 0.48692
# Poissons Ratio (y) = 0.13572 0.17726
# Poissons Ratio (z) = 0.36749 0.28202
#
# Static dielectric constant tensor:
#      x y z
#    x 2.227020 0.008440 0.000300 
#    y 0.008440 2.124330 0.047430 
#    z 0.000300 0.047430 2.058870 
# 
# From -- ./inp_files/4290.got.cif
#   From: 2010.05.17/outbox.cif.g08.bks.cpg/sg1_3_cif.got.tgz:4290.got - 2010.05.17 20:27:59.
