data_PCOD9000071
_publ_section_title
;
Structure prediction by ZEFSAII (Michael W. Deem and Ramdas Pophale) SiO2 
 PCOD9000071
Probable space group: P 1
;
_chemical_formula_sum "Si O2"
_cell_formula_units_Z 8
_cell_length_a 9.003640
_cell_length_b 9.049942
_cell_length_c 9.066866
_cell_angle_alpha 100.262598
_cell_angle_beta 131.716561
_cell_angle_gamma 110.140588
_cell_volume 421.329031
_symmetry_space_group_name_H-M "P 1"
_symmetry_group_IT_number 1
_symmetry_cell_setting 'triclinic'
loop_
_space_group_symop_operation_xyz
x,y,z
loop_
_atom_site_type_symbol
_atom_site_label
_atom_site_fract_x
_atom_site_fract_y
_atom_site_fract_z
Si Si1 0.989500 0.002020 0.297050
Si Si2 0.019145 0.915345 0.731099
Si Si3 0.867574 0.073384 0.914611
Si Si4 0.155414 0.710963 0.998717
Si Si5 0.880866 0.423944 0.005750
Si Si6 0.376459 0.268971 0.820772
Si Si7 0.288828 0.837634 0.425221
Si Si8 0.563663 0.670915 0.150176
O O1 0.142010 0.187459 0.537820
O O2 0.710787 0.828910 0.144669
O O3 0.149020 0.922533 0.395943
O O4 0.974742 0.052692 0.130862
O O5 0.944943 0.009258 0.815667
O O6 0.777547 0.767838 0.438379
O O7 0.255720 0.091976 0.823282
O O8 0.091645 0.802039 0.850366
O O9 0.559642 0.935861 0.692971
O O10 0.950443 0.285799 0.995949
O O11 0.314976 0.858357 0.267482
O O12 0.321771 0.653009 0.038189
O O13 0.904944 0.528272 0.886929
O O14 0.612110 0.316200 0.889726
O O15 0.096621 0.607279 0.280083
O O16 0.474804 0.465133 0.001528
#
# Coordination Sequence:
#
# PCOD9000071 Si02
#       8
#     1   1   1   1   1   1   1   1
#     4  11  24  41  69  92 132 170 212 263 323 372
#     4  11  24  42  68  94 127 170 215 260 322 372
#     4  12  22  42  69  96 124 173 216 261 316 380
#     4  10  22  44  64  92 129 170 208 264 316 375
#     4  10  22  41  65  93 131 165 210 262 314 380
#     4  11  24  44  63  97 134 164 212 268 313 384
#     4  10  21  43  64  91 131 166 212 266 310 376
#     4  11  23  45  62  95 134 168 207 270 314 379
#
# _framework density 18.987535000000001
#
# number of rings (size 3 to 8) (size 9 to 14) (size 15 to 20)
#    0.750    0.500    5.000    0.750    1.750    1.000 
#    9.000    0.000    0.000    0.000    0.000    0.000 
#    0.000    0.000    0.000    0.000    0.000    0.000 
#
# Total GULP energy -44628.310860 kJ/mol
# GULP energy per Si atom -5578.538858 kJ/mol
# Density = 1.894432 g / cm^3
# Si number density = 18.987535 Si / 1000 Ang^3
#
#
#
# Elastic Constant Matrix: (Units=GPa)
#
#
# Indices 1 2 3 4 5 6 
#
# 1 121.8979 59.1166 28.7470 2.8727 -1.0497 4.8963
# 2 59.1166 113.6689 65.4096 14.2939 -4.3426 5.2743
# 3 28.7470 65.4096 84.7518 15.2155 -10.4583 -0.2654
# 4 2.8727 14.2939 15.2155 25.1344 -1.6821 -4.6608
# 5 -1.0497 -4.3426 -10.4583 -1.6821 32.4954 4.6046
# 6 4.8963 5.2743 -0.2654 -4.6608 4.6046 31.6772
#
#
#
# Elastic Compliance Matrix: (Units=1/GPa)
#
#
# Indices 1 2 3 4 5 6 
#
# 1 0.011125 -0.006541 0.000940 0.001810 -0.000069 -0.000346
# 2 -0.006541 0.020115 -0.012863 -0.003512 -0.001455 -0.002751
# 3 0.000940 -0.012863 0.023224 -0.006404 0.005388 0.000466
# 4 0.001810 -0.003512 -0.006404 0.046732 -0.001085 0.007285
# 5 -0.000069 -0.001455 0.005388 -0.001085 0.032913 -0.004646
# 6 -0.000346 -0.002751 0.000466 0.007285 -0.004646 0.033831
#
#
# Mechanical properties :
#
#
# Convention : Reuss Voigt Hill
#
# Bulk Modulus (GPa) = 57.02744 69.65168 63.33956
# Shear Modulus (GPa) = 23.72891 28.99776 26.36333
#
# Velocity S-wave (km/s) = 3.53896 3.91218 3.73024
# Velocity P-wave (km/s) = 6.84093 7.56104 7.20998
#
# Compressibility (1/GPa) = 0.01753542
#
# Stress axis : x y z
#
# Youngs Moduli (GPa) = 89.89044 49.71388 43.05878
#
# Poissons Ratio (x) = 0.32517 -0.04048
# Poissons Ratio (y) = 0.58796 0.55388
# Poissons Ratio (z) = -0.08450 0.63949
#
# Static dielectric constant tensor:
#      x y z
#    x 1.666780 0.011560 -0.017310 
#    y 0.011560 1.642770 0.023490 
#    z -0.017310 0.023490 1.664470 
# 
# From -- ./inp_files/4274.got.cif
#   From: 2010.05.17/outbox.cif.g08.bks.cpg/sg1_3_cif.got.tgz:4274.got - 2010.05.17 20:27:59.
