data_PCOD9000228
_publ_section_title
;
Structure prediction by ZEFSAII (Michael W. Deem and Ramdas Pophale) SiO2 
 PCOD9000228
Probable space group: P 1
;
_chemical_formula_sum "Si O2"
_cell_formula_units_Z 8
_cell_length_a 7.374863
_cell_length_b 7.573778
_cell_length_c 7.325423
_cell_angle_alpha 68.029768
_cell_angle_beta 105.737861
_cell_angle_gamma 70.428671
_cell_volume 318.588675
_symmetry_space_group_name_H-M "P 1"
_symmetry_group_IT_number 1
_symmetry_cell_setting 'triclinic'
loop_
_space_group_symop_operation_xyz
x,y,z
loop_
_atom_site_type_symbol
_atom_site_label
_atom_site_fract_x
_atom_site_fract_y
_atom_site_fract_z
Si Si1 0.708650 0.379240 0.812420
Si Si2 0.876586 0.955807 0.437212
Si Si3 0.345225 0.849863 0.577007
Si Si4 0.825527 0.554774 0.427514
Si Si5 0.987481 0.464835 0.143254
Si Si6 0.414038 0.158057 0.199596
Si Si7 0.911595 0.927352 0.894040
Si Si8 0.370704 0.880654 0.004006
O O1 0.816049 0.419903 0.646372
O O2 0.472099 0.589100 0.679343
O O3 0.745698 0.139992 0.877441
O O4 0.843854 0.396005 0.010742
O O5 0.877327 0.740242 0.443139
O O6 0.640191 0.153701 0.250453
O O7 0.883639 0.952509 0.659422
O O8 0.092572 0.948094 0.429186
O O9 0.372892 0.884241 0.784569
O O10 0.436290 0.968945 0.422513
O O11 0.589070 0.677344 0.220426
O O12 0.993897 0.402687 0.379665
O O13 0.882767 0.724346 0.018957
O O14 0.217313 0.372397 0.144273
O O15 0.359199 0.091128 0.017433
O O16 0.156805 0.875293 0.014572
#
# Coordination Sequence:
#
# PCOD9000228 Si02
#       8
#     1   1   1   1   1   1   1   1
#     4  12  24  48  75 105 152 192 239 313 363 427
#     4  10  24  45  69 112 140 186 250 296 359 441
#     4  11  23  45  76 105 146 191 243 302 373 425
#     4  11  24  43  74 104 146 192 244 298 359 436
#     4  12  26  45  74 110 146 196 241 301 372 430
#     4  11  24  47  73 104 153 188 239 308 366 429
#     4  11  25  46  71 104 151 188 245 301 362 440
#     4  10  22  43  70 104 140 189 239 297 358 436
#
# _framework density 25.110745999999999
#
# number of rings (size 3 to 8) (size 9 to 14) (size 15 to 20)
#    0.000    1.000    6.250    0.000    5.250    2.000 
#    0.000    6.250    0.000    0.000    0.000    0.000 
#    0.000    0.000    0.000    0.000    0.000    0.000 
#
# Total GULP energy -44881.377351 kJ/mol
# GULP energy per Si atom -5610.172169 kJ/mol
# Density = 2.505359 g / cm^3
# Si number density = 25.110746 Si / 1000 Ang^3
#
#
#
# Elastic Constant Matrix: (Units=GPa)
#
#
# Indices 1 2 3 4 5 6 
#
# 1 119.6798 46.7102 45.6419 6.1276 23.6565 -16.0922
# 2 46.7102 187.3688 62.5681 0.7232 -6.5303 -5.3917
# 3 45.6419 62.5681 62.4439 3.0347 4.0625 9.2811
# 4 6.1276 0.7232 3.0347 55.3623 -7.6525 -3.9067
# 5 23.6565 -6.5303 4.0625 -7.6525 40.3078 3.9258
# 6 -16.0922 -5.3917 9.2811 -3.9067 3.9258 35.3899
#
#
#
# Elastic Compliance Matrix: (Units=1/GPa)
#
#
# Indices 1 2 3 4 5 6 
#
# 1 0.017512 0.000459 -0.014405 -0.001679 -0.010314 0.012769
# 2 0.000459 0.008666 -0.009779 0.000917 0.001906 0.003983
# 3 -0.014405 -0.009779 0.038903 -0.001110 0.004576 -0.018873
# 4 -0.001679 0.000917 -0.001110 0.019040 0.004740 0.001243
# 5 -0.010314 0.001906 0.004576 0.004740 0.032455 -0.008677
# 6 0.012769 0.003983 -0.018873 0.001243 -0.008677 0.040719
#
#
# Mechanical properties :
#
#
# Convention : Reuss Voigt Hill
#
# Bulk Modulus (GPa) = 56.71997 75.48143 66.10070
# Shear Modulus (GPa) = 23.73923 40.51680 32.12801
#
# Velocity S-wave (km/s) = 3.07804 4.02123 3.58082
# Velocity P-wave (km/s) = 5.93881 7.18923 6.59373
#
# Compressibility (1/GPa) = 0.01763047
#
# Stress axis : x y z
#
# Youngs Moduli (GPa) = 57.10489 115.39779 25.70469
#
# Poissons Ratio (x) = -0.05299 0.37028
# Poissons Ratio (y) = -0.02622 0.25137
# Poissons Ratio (z) = 0.82260 1.12850
#
# Static dielectric constant tensor:
#      x y z
#    x 1.954980 -0.015680 -0.012800 
#    y -0.015680 1.960800 -0.028990 
#    z -0.012800 -0.028990 1.997800 
# 
# From -- ./inp_files/4206.got.cif
#   From: 2010.05.17/outbox.cif.g08.bks.cpg/sg1_3_cif.got.tgz:4206.got - 2010.05.17 20:27:59.
