data_PCOD9000674
_publ_section_title
;
Structure prediction by ZEFSAII (Michael W. Deem and Ramdas Pophale) SiO2 
 PCOD9000674
Probable space group: P 1
;
_chemical_formula_sum "Si O2"
_cell_formula_units_Z 8
_cell_length_a 18.763653
_cell_length_b 5.196628
_cell_length_c 9.756385
_cell_angle_alpha 111.638057
_cell_angle_beta 156.387438
_cell_angle_gamma 68.963639
_cell_volume 353.631478
_symmetry_space_group_name_H-M "P 1"
_symmetry_group_IT_number 1
_symmetry_cell_setting 'triclinic'
loop_
_space_group_symop_operation_xyz
x,y,z
loop_
_atom_site_type_symbol
_atom_site_label
_atom_site_fract_x
_atom_site_fract_y
_atom_site_fract_z
Si Si1 0.954210 0.919440 0.019120
Si Si2 0.118008 0.768040 0.009846
Si Si3 0.031732 0.994848 0.618809
Si Si4 0.629357 0.125191 0.023027
Si Si5 0.330104 0.342882 0.147288
Si Si6 0.716361 0.718424 0.336700
Si Si7 0.530272 0.838585 0.525381
Si Si8 0.927393 0.558989 0.152713
O O1 0.003748 0.686683 0.172807
O O2 0.101098 0.913835 0.154983
O O3 0.930855 0.229184 0.095221
O O4 0.770850 0.833709 0.603809
O O5 0.267446 0.524398 0.206646
O O6 0.117946 0.965844 0.916198
O O7 0.919627 0.647271 0.625798
O O8 0.827998 0.097152 0.301556
O O9 0.023746 0.695181 0.476364
O O10 0.152938 0.180803 0.775408
O O11 0.635188 0.954406 0.140365
O O12 0.603270 0.449382 0.075229
O O13 0.515561 0.974181 0.679090
O O14 0.404005 0.583046 0.231510
O O15 0.480189 0.101173 0.393362
O O16 0.726573 0.696997 0.828629
#
# Coordination Sequence:
#
# PCOD9000674 Si02
#       8
#     1   1   1   1   1   1   1   1
#     4  10  22  37  64  94 123 152 204 264 296 355
#     4   9  21  36  66  96 109 158 205 259 297 347
#     4  10  21  37  66  90 119 155 216 250 292 353
#     4  10  18  36  56  91 115 147 203 257 280 346
#     4  12  21  39  60  93 120 164 196 253 303 366
#     4   9  18  32  62  86 113 144 196 251 297 338
#     4  11  25  35  60  91 133 151 200 249 309 361
#     4  11  24  40  60  97 120 163 202 253 300 356
#
# _framework density 22.622418
#
# number of rings (size 3 to 8) (size 9 to 14) (size 15 to 20)
#    0.750    1.000    2.500    2.250    3.500    2.000 
#    0.000    0.000    0.000   15.000    0.000    0.000 
#    0.000    0.000    0.000    0.000    0.000    0.000 
#
# Total GULP energy -44594.630618 kJ/mol
# GULP energy per Si atom -5574.328827 kJ/mol
# Density = 2.257093 g / cm^3
# Si number density = 22.622418 Si / 1000 Ang^3
#
#
#
# Elastic Constant Matrix: (Units=GPa)
#
#
# Indices 1 2 3 4 5 6 
#
# 1 39.7984 5.3441 8.1523 7.0497 -5.1423 3.7382
# 2 5.3441 123.1178 17.2876 27.0207 13.1701 16.1972
# 3 8.1523 17.2876 51.0666 9.3220 9.2463 5.7824
# 4 7.0497 27.0207 9.3220 32.8345 -5.6461 2.9756
# 5 -5.1423 13.1701 9.2463 -5.6461 22.3082 -2.3963
# 6 3.7382 16.1972 5.7824 2.9756 -2.3963 31.3307
#
#
#
# Elastic Compliance Matrix: (Units=1/GPa)
#
#
# Indices 1 2 3 4 5 6 
#
# 1 0.027872 -0.000673 -0.005124 -0.002459 0.008198 -0.001171
# 2 -0.000673 0.012792 0.000848 -0.012069 -0.011806 -0.006446
# 3 -0.005124 0.000848 0.024919 -0.008779 -0.014739 -0.004719
# 4 -0.002459 -0.012069 -0.008779 0.046806 0.022628 0.005438
# 5 0.008198 -0.011806 -0.014739 0.022628 0.066682 0.010796
# 6 -0.001171 -0.006446 -0.004719 0.005438 0.010796 0.036570
#
#
# Mechanical properties :
#
#
# Convention : Reuss Voigt Hill
#
# Bulk Modulus (GPa) = 17.95895 30.61677 24.28786
# Shear Modulus (GPa) = 20.48324 29.50793 24.99559
#
# Velocity S-wave (km/s) = 3.01232 3.61552 3.32761
# Velocity P-wave (km/s) = 4.47823 5.56709 5.05208
#
# Compressibility (1/GPa) = 0.05568255
#
# Stress axis : x y z
#
# Youngs Moduli (GPa) = 35.87887 78.17224 40.13016
#
# Poissons Ratio (x) = 0.05264 0.20564
# Poissons Ratio (y) = 0.02416 -0.03401
# Poissons Ratio (z) = 0.18385 -0.06626
#
# Static dielectric constant tensor:
#      x y z
#    x 1.886570 0.018610 0.031220 
#    y 0.018610 1.833220 0.006040 
#    z 0.031220 0.006040 1.882400 
# 
# From -- ./inp_files/5820.got.cif
#   From: 2010.05.17/outbox.cif.g08.bks.cpg/sg1_3_cif.got.tgz:5820.got - 2010.05.17 20:27:59.
