data_PCOD9000238
_publ_section_title
;
Structure prediction by ZEFSAII (Michael W. Deem and Ramdas Pophale) SiO2 
 PCOD9000238
Probable space group: P 1
;
_chemical_formula_sum "Si O2"
_cell_formula_units_Z 8
_cell_length_a 7.780601
_cell_length_b 7.515621
_cell_length_c 9.766436
_cell_angle_alpha 71.290573
_cell_angle_beta 76.309454
_cell_angle_gamma 125.108685
_cell_volume 371.432300
_symmetry_space_group_name_H-M "P 1"
_symmetry_group_IT_number 1
_symmetry_cell_setting 'triclinic'
loop_
_space_group_symop_operation_xyz
x,y,z
loop_
_atom_site_type_symbol
_atom_site_label
_atom_site_fract_x
_atom_site_fract_y
_atom_site_fract_z
Si Si1 0.417210 0.528560 0.841470
Si Si2 0.860540 0.122749 0.116553
Si Si3 0.445380 0.083470 0.300095
Si Si4 0.098641 0.468797 0.518917
Si Si5 0.799738 0.472449 0.365526
Si Si6 0.581726 0.654580 0.479371
Si Si7 0.671563 0.970822 0.904156
Si Si8 0.296016 0.021670 0.050165
O O1 0.506740 0.662357 0.642925
O O2 0.593228 0.747811 0.870379
O O3 0.380213 0.275730 0.899310
O O4 0.142885 0.389898 0.971761
O O5 0.690567 0.173423 0.164780
O O6 0.797763 0.943034 0.299738
O O7 0.759251 0.955596 0.036793
O O8 0.557722 0.254353 0.372446
O O9 0.333753 0.102789 0.184693
O O10 0.243326 0.771268 0.450257
O O11 0.331761 0.497387 0.471304
O O12 0.944022 0.404596 0.425350
O O13 0.900829 0.253371 0.721069
O O14 0.694268 0.531056 0.487791
O O15 0.008840 0.738295 0.170686
O O16 0.458093 0.965572 0.980932
#
# Coordination Sequence:
#
# PCOD9000238 Si02
#       8
#     1   1   1   1   1   1   1   1
#     4  12  24  43  70 101 133 183 220 281 348 392
#     4  10  22  44  64  95 137 170 232 279 322 418
#     4   9  22  42  69  97 130 185 221 280 348 388
#     4  10  23  43  63 101 136 169 233 275 326 419
#     4  11  22  44  69  98 137 180 221 288 341 393
#     4  11  24  44  68 102 137 172 232 278 331 418
#     4  11  24  44  69  95 139 183 219 283 347 391
#     4  10  23  44  66 101 135 172 238 278 325 425
#
# _framework density 21.538243000000001
#
# number of rings (size 3 to 8) (size 9 to 14) (size 15 to 20)
#    0.000    1.500    2.500    2.250    5.250    0.000 
#    6.750    0.000    0.000    0.000    0.000    0.000 
#    0.000    0.000    0.000    0.000    0.000    0.000 
#
# Total GULP energy -44606.994927 kJ/mol
# GULP energy per Si atom -5575.874366 kJ/mol
# Density = 2.148922 g / cm^3
# Si number density = 21.538243 Si / 1000 Ang^3
#
#
#
# Elastic Constant Matrix: (Units=GPa)
#
#
# Indices 1 2 3 4 5 6 
#
# 1 49.2998 -5.4790 3.4375 -6.7648 -2.6631 1.5392
# 2 -5.4790 71.9917 36.4999 -4.2862 0.4493 11.6215
# 3 3.4375 36.4999 136.6632 -14.6659 -0.5034 -1.2028
# 4 -6.7648 -4.2862 -14.6659 25.8016 9.2287 -3.2570
# 5 -2.6631 0.4493 -0.5034 9.2287 33.5145 -1.8315
# 6 1.5392 11.6215 -1.2028 -3.2570 -1.8315 12.9674
#
#
#
# Elastic Compliance Matrix: (Units=1/GPa)
#
#
# Indices 1 2 3 4 5 6 
#
# 1 0.021511 0.003016 -0.000829 0.005154 0.000017 -0.004036
# 2 0.003016 0.020085 -0.005752 -0.001290 -0.000817 -0.019331
# 3 -0.000829 -0.005752 0.009528 0.005520 -0.000962 0.007387
# 4 0.005154 -0.001290 0.005520 0.048904 -0.012323 0.011599
# 5 0.000017 -0.000817 -0.000962 -0.012323 0.033352 0.002257
# 6 -0.004036 -0.019331 0.007387 0.011599 0.002257 0.098838
#
#
# Mechanical properties :
#
#
# Convention : Reuss Voigt Hill
#
# Bulk Modulus (GPa) = 22.73011 36.31903 29.52457
# Shear Modulus (GPa) = 19.68404 29.35645 24.52024
#
# Velocity S-wave (km/s) = 3.02638 3.69588 3.37776
# Velocity P-wave (km/s) = 4.77370 5.92553 5.38052
#
# Compressibility (1/GPa) = 0.04399451
#
# Stress axis : x y z
#
# Youngs Moduli (GPa) = 46.48747 49.78822 104.95289
#
# Poissons Ratio (x) = -0.15014 0.08698
# Poissons Ratio (y) = -0.14019 0.60366
# Poissons Ratio (z) = 0.03853 0.28637
#
# Static dielectric constant tensor:
#      x y z
#    x 1.843180 0.018480 0.043030 
#    y 0.018480 1.818650 0.024630 
#    z 0.043030 0.024630 1.775460 
# 
# From -- ./inp_files/1117.got.cif
#   From: 2010.05.17/outbox.cif.g08.bks.cpg/sg1_1_cif.got.tgz:1117.got - 2010.05.17 20:27:59.
