data_PCOD9000366
_publ_section_title
;
Structure prediction by ZEFSAII (Michael W. Deem and Ramdas Pophale) SiO2 
 PCOD9000366
Probable space group: P 1
;
_chemical_formula_sum "Si O2"
_cell_formula_units_Z 8
_cell_length_a 6.548585
_cell_length_b 9.021683
_cell_length_c 7.038794
_cell_angle_alpha 65.706592
_cell_angle_beta 64.782101
_cell_angle_gamma 103.674038
_cell_volume 297.106420
_symmetry_space_group_name_H-M "P 1"
_symmetry_group_IT_number 1
_symmetry_cell_setting 'triclinic'
loop_
_space_group_symop_operation_xyz
x,y,z
loop_
_atom_site_type_symbol
_atom_site_label
_atom_site_fract_x
_atom_site_fract_y
_atom_site_fract_z
Si Si1 0.670930 0.652510 0.529540
Si Si2 0.913044 0.295940 0.366614
Si Si3 0.440326 0.914846 0.591047
Si Si4 0.465419 0.347175 0.216604
Si Si5 0.743655 0.192446 0.905270
Si Si6 0.244857 0.909828 0.251412
Si Si7 0.279020 0.238500 0.792545
Si Si8 0.890183 0.659197 0.058210
O O1 0.542929 0.768710 0.600074
O O2 0.464638 0.433284 0.722932
O O3 0.729045 0.694970 0.261312
O O4 0.967323 0.723964 0.441797
O O5 0.823200 0.295711 0.618700
O O6 0.932707 0.480051 0.168740
O O7 0.188239 0.304392 0.268839
O O8 0.693742 0.103046 0.460689
O O9 0.296015 0.924979 0.450327
O O10 0.183569 0.829112 0.866971
O O11 0.391214 0.267556 0.511091
O O12 0.676330 0.570670 0.021755
O O13 0.609258 0.269354 0.064134
O O14 0.998326 0.215748 0.888346
O O15 0.543683 0.973571 0.045443
O O16 0.233505 0.068813 0.040451
#
# Coordination Sequence:
#
# PCOD9000366 Si02
#       8
#     1   1   1   1   1   1   1   1
#     4  11  26  47  74 109 149 197 254 313 373 447
#     4  11  26  48  74 110 154 199 252 314 379 451
#     4  12  28  48  74 112 154 201 254 309 376 451
#     4  10  23  45  77 109 144 195 249 310 381 447
#     4  11  22  44  77 106 144 197 251 309 376 448
#     4  12  26  46  75 108 153 202 247 306 377 452
#     4  10  25  49  74 110 154 195 249 314 381 456
#     4  11  26  47  73 110 154 198 252 311 377 458
#
# _framework density 26.926376999999999
#
# number of rings (size 3 to 8) (size 9 to 14) (size 15 to 20)
#    0.000    1.000    0.000    5.250    0.000   13.000 
#    0.000   10.000    0.000    0.000    0.000    0.000 
#    0.000    0.000    0.000    0.000    0.000    0.000 
#
# Total GULP energy -44670.979560 kJ/mol
# GULP energy per Si atom -5583.872445 kJ/mol
# Density = 2.686509 g / cm^3
# Si number density = 26.926377 Si / 1000 Ang^3
#
#
#
# Elastic Constant Matrix: (Units=GPa)
#
#
# Indices 1 2 3 4 5 6 
#
# 1 189.8783 84.5682 54.7062 -24.5476 -25.0325 29.4356
# 2 84.5682 110.5549 36.0137 -11.9145 -6.2576 21.5449
# 3 54.7062 36.0137 117.0562 -4.5364 -19.0954 7.4262
# 4 -24.5476 -11.9145 -4.5364 53.8119 6.3413 -24.1367
# 5 -25.0325 -6.2576 -19.0954 6.3413 56.5116 -10.4227
# 6 29.4356 21.5449 7.4262 -24.1367 -10.4227 53.1075
#
#
#
# Elastic Compliance Matrix: (Units=1/GPa)
#
#
# Indices 1 2 3 4 5 6 
#
# 1 0.009145 -0.005799 -0.001965 0.001957 0.002323 -0.001096
# 2 -0.005799 0.014527 -0.001932 -0.000765 -0.002112 -0.003171
# 3 -0.001965 -0.001932 0.010420 -0.000424 0.002620 0.000738
# 4 0.001957 -0.000765 -0.000424 0.023809 -0.000175 0.010072
# 5 0.002323 -0.002112 0.002620 -0.000175 0.019956 0.003040
# 6 -0.001096 -0.003171 0.000738 0.010072 0.003040 0.025795
#
#
# Mechanical properties :
#
#
# Convention : Reuss Voigt Hill
#
# Bulk Modulus (GPa) = 68.03497 85.34062 76.68779
# Shear Modulus (GPa) = 39.07990 48.83295 43.95642
#
# Velocity S-wave (km/s) = 3.81381 4.26323 4.04476
# Velocity P-wave (km/s) = 6.68696 7.48307 7.09619
#
# Compressibility (1/GPa) = 0.01469832
#
# Stress axis : x y z
#
# Youngs Moduli (GPa) = 109.35426 68.83962 95.96906
#
# Poissons Ratio (x) = 0.39920 0.18861
# Poissons Ratio (y) = 0.63414 0.18542
# Poissons Ratio (z) = 0.21492 0.13301
#
# Static dielectric constant tensor:
#      x y z
#    x 2.148880 0.054080 0.089690 
#    y 0.054080 2.206610 -0.071360 
#    z 0.089690 -0.071360 2.389070 
# 
# From -- ./inp_files/4055.got.cif
#   From: 2010.05.17/outbox.cif.g08.bks.cpg/sg1_3_cif.got.tgz:4055.got - 2010.05.17 20:27:59.
