data_PCOD9000082
_publ_section_title
;
Structure prediction by ZEFSAII (Michael W. Deem and Ramdas Pophale) SiO2 
 PCOD9000082
Probable space group: P 1
;
_chemical_formula_sum "Si O2"
_cell_formula_units_Z 8
_cell_length_a 8.095375
_cell_length_b 7.124030
_cell_length_c 8.060611
_cell_angle_alpha 101.528630
_cell_angle_beta 72.589859
_cell_angle_gamma 60.028343
_cell_volume 348.252029
_symmetry_space_group_name_H-M "P 1"
_symmetry_group_IT_number 1
_symmetry_cell_setting 'triclinic'
loop_
_space_group_symop_operation_xyz
x,y,z
loop_
_atom_site_type_symbol
_atom_site_label
_atom_site_fract_x
_atom_site_fract_y
_atom_site_fract_z
Si Si1 0.323370 0.427580 0.576520
Si Si2 0.589454 0.944413 0.568480
Si Si3 0.824975 0.706889 0.109971
Si Si4 0.998817 0.877700 0.561747
Si Si5 0.401207 0.755558 0.817930
Si Si6 0.243064 0.623429 0.111617
Si Si7 0.958076 0.194869 0.902753
Si Si8 0.564564 0.184933 0.118813
O O1 0.405983 0.558274 0.672798
O O2 0.465805 0.301809 0.347597
O O3 0.090231 0.650942 0.618056
O O4 0.372129 0.204569 0.628909
O O5 0.699911 0.786507 0.339553
O O6 0.758871 0.985212 0.596799
O O7 0.555041 0.804418 0.690934
O O8 0.038936 0.696430 0.073831
O O9 0.667653 0.909762 0.060630
O O10 0.898175 0.453409 0.982667
O O11 0.147267 0.772632 0.335907
O O12 0.010985 0.071792 0.684584
O O13 0.403657 0.668299 0.986033
O O14 0.165482 0.007814 0.917565
O O15 0.377281 0.344898 0.070588
O O16 0.756298 0.203057 0.025418
#
# Coordination Sequence:
#
# PCOD9000082 Si02
#       8
#     1   1   1   1   1   1   1   1
#     4   9  21  42  68  90 134 170 213 267 320 381
#     4  10  22  43  70  94 128 173 217 262 324 382
#     4  10  22  45  69  95 128 173 217 265 321 385
#     4   9  22  44  67  95 130 172 216 266 320 380
#     4  11  23  40  68  98 130 171 214 266 326 381
#     4  10  22  45  69  92 133 171 216 268 319 383
#     4  11  23  40  68  96 134 166 216 267 323 382
#     4  10  21  43  67  96 129 172 213 269 321 380
#
# _framework density 22.971869000000002
#
# number of rings (size 3 to 8) (size 9 to 14) (size 15 to 20)
#    0.000    2.000    1.250    0.750    3.500    0.000 
#    6.750    0.000   11.000    0.000    0.000    0.000 
#    0.000    0.000    0.000    0.000    0.000    0.000 
#
# Total GULP energy -44739.416450 kJ/mol
# GULP energy per Si atom -5592.427056 kJ/mol
# Density = 2.291958 g / cm^3
# Si number density = 22.971869 Si / 1000 Ang^3
#
#
#
# Elastic Constant Matrix: (Units=GPa)
#
#
# Indices 1 2 3 4 5 6 
#
# 1 37.1205 32.9376 24.3678 -2.6425 -1.1683 -7.1515
# 2 32.9376 166.5760 71.9112 15.5621 10.0320 -0.3377
# 3 24.3678 71.9112 82.8225 -1.1519 5.2972 1.5483
# 4 -2.6425 15.5621 -1.1519 46.7261 5.5337 -2.7650
# 5 -1.1683 10.0320 5.2972 5.5337 21.5957 -1.8993
# 6 -7.1515 -0.3377 1.5483 -2.7650 -1.8993 32.7777
#
#
#
# Elastic Compliance Matrix: (Units=1/GPa)
#
#
# Indices 1 2 3 4 5 6 
#
# 1 0.038612 -0.005100 -0.007456 0.003518 0.006210 0.009381
# 2 -0.005100 0.010911 -0.007845 -0.003882 -0.002522 -0.001103
# 3 -0.007456 -0.007845 0.021359 0.002914 -0.002978 -0.002643
# 4 0.003518 -0.003882 0.002914 0.023644 -0.004576 0.002319
# 5 0.006210 -0.002522 -0.002978 -0.004576 0.050066 0.003985
# 6 0.009381 -0.001103 -0.002643 0.002319 0.003985 0.033095
#
#
# Mechanical properties :
#
#
# Convention : Reuss Voigt Hill
#
# Bulk Modulus (GPa) = 33.24381 60.55024 46.89703
# Shear Modulus (GPa) = 21.88028 30.70673 26.29351
#
# Velocity S-wave (km/s) = 3.08958 3.66007 3.38686
# Velocity P-wave (km/s) = 5.21826 6.65411 5.97944
#
# Compressibility (1/GPa) = 0.03008079
#
# Stress axis : x y z
#
# Youngs Moduli (GPa) = 25.89866 91.65357 46.81765
#
# Poissons Ratio (x) = 0.46741 0.34908
# Poissons Ratio (y) = 0.13208 0.36728
# Poissons Ratio (z) = 0.19310 0.71901
#
# Static dielectric constant tensor:
#      x y z
#    x 1.828410 -0.030740 -0.001250 
#    y -0.030740 1.849370 -0.027810 
#    z -0.001250 -0.027810 1.866520 
# 
# From -- ./inp_files/3455.got.cif
#   From: 2010.05.17/outbox.cif.g08.bks.cpg/sg1_2_cif.got.tgz:3455.got - 2010.05.17 20:27:59.
