data_PCOD9000632
_publ_section_title
;
Structure prediction by ZEFSAII (Michael W. Deem and Ramdas Pophale) SiO2 
 PCOD9000632
Probable space group: P 1
;
_chemical_formula_sum "Si O2"
_cell_formula_units_Z 8
_cell_length_a 8.270954
_cell_length_b 5.499462
_cell_length_c 10.624351
_cell_angle_alpha 87.354267
_cell_angle_beta 42.817088
_cell_angle_gamma 98.770560
_cell_volume 315.501277
_symmetry_space_group_name_H-M "P 1"
_symmetry_group_IT_number 1
_symmetry_cell_setting 'triclinic'
loop_
_space_group_symop_operation_xyz
x,y,z
loop_
_atom_site_type_symbol
_atom_site_label
_atom_site_fract_x
_atom_site_fract_y
_atom_site_fract_z
Si Si1 0.118430 0.923060 0.051520
Si Si2 0.940574 0.255332 0.733060
Si Si3 0.343261 0.558001 0.209906
Si Si4 0.802070 0.492856 0.548680
Si Si5 0.944992 0.365305 0.141284
Si Si6 0.541016 0.122888 0.186641
Si Si7 0.620758 0.805481 0.815953
Si Si8 0.288483 0.281901 0.741522
O O1 0.936516 0.645078 0.175401
O O2 0.399416 0.940109 0.930429
O O3 0.032204 0.143133 0.167966
O O4 0.139475 0.006815 0.889577
O O5 0.869969 0.399602 0.650246
O O6 0.203150 0.335421 0.650999
O O7 0.874022 0.969981 0.727258
O O8 0.746139 0.229403 0.958720
O O9 0.354334 0.297318 0.274282
O O10 0.065306 0.549552 0.333990
O O11 0.441820 0.820957 0.226824
O O12 0.497758 0.591118 0.991940
O O13 0.696208 0.725056 0.640561
O O14 0.577217 0.319210 0.601332
O O15 0.691531 0.206392 0.226345
O O16 0.172052 0.439509 0.905750
#
# Coordination Sequence:
#
# PCOD9000632 Si02
#       8
#     1   1   1   1   1   1   1   1
#     4  10  18  33  62  98 123 169 221 261 331 392
#     4  10  21  40  72  94 132 180 225 271 345 390
#     4  11  26  39  68  97 136 173 231 269 342 395
#     4  12  23  44  68  96 140 181 215 286 331 404
#     4   9  18  33  63  93 126 164 218 270 323 385
#     4  10  21  42  62 101 129 172 222 282 319 404
#     4  11  22  41  67  97 133 182 224 274 337 404
#     4   9  21  36  64 102 127 171 226 269 328 402
#
# _framework density 25.356473000000001
#
# number of rings (size 3 to 8) (size 9 to 14) (size 15 to 20)
#    0.750    1.000    3.750    0.750    3.500    0.000 
#    0.000    2.500    0.000    1.500    0.000    0.000 
#    0.000    0.000    0.000    0.000    0.000    0.000 
#
# Total GULP energy -44604.017632 kJ/mol
# GULP energy per Si atom -5575.502204 kJ/mol
# Density = 2.529876 g / cm^3
# Si number density = 25.356473 Si / 1000 Ang^3
#
#
#
# Elastic Constant Matrix: (Units=GPa)
#
#
# Indices 1 2 3 4 5 6 
#
# 1 129.6822 28.8622 5.4729 -0.4767 -17.1446 -10.1286
# 2 28.8622 123.6903 19.9589 13.0969 -10.4494 3.9252
# 3 5.4729 19.9589 54.2761 4.1332 -13.4597 3.9999
# 4 -0.4767 13.0969 4.1332 19.9757 -4.7917 -0.5752
# 5 -17.1446 -10.4494 -13.4597 -4.7917 38.2959 -2.5285
# 6 -10.1286 3.9252 3.9999 -0.5752 -2.5285 23.7701
#
#
#
# Elastic Compliance Matrix: (Units=1/GPa)
#
#
# Indices 1 2 3 4 5 6 
#
# 1 0.009148 -0.002286 0.000419 0.002794 0.004280 0.004728
# 2 -0.002286 0.009756 -0.002792 -0.005998 -0.000244 -0.002286
# 3 0.000419 -0.002792 0.021300 -0.001041 0.006632 -0.002264
# 4 0.002794 -0.005998 -0.001041 0.055971 0.006543 0.004406
# 5 0.004280 -0.000244 0.006632 0.006543 0.031392 0.004246
# 6 0.004728 -0.002286 -0.002264 0.004406 0.004246 0.045401
#
#
# Mechanical properties :
#
#
# Convention : Reuss Voigt Hill
#
# Bulk Modulus (GPa) = 32.38009 46.24850 39.31429
# Shear Modulus (GPa) = 25.96297 33.29865 29.63081
#
# Velocity S-wave (km/s) = 3.20334 3.62777 3.42214
# Velocity P-wave (km/s) = 5.14583 5.98553 5.58149
#
# Compressibility (1/GPa) = 0.03088318
#
# Stress axis : x y z
#
# Youngs Moduli (GPa) = 109.31646 102.50387 46.94905
#
# Poissons Ratio (x) = 0.23436 -0.01965
# Poissons Ratio (y) = 0.24993 0.13110
# Poissons Ratio (z) = -0.04576 0.28622
#
# Static dielectric constant tensor:
#      x y z
#    x 2.067070 0.005270 0.054920 
#    y 0.005270 2.128870 0.032190 
#    z 0.054920 0.032190 2.018240 
# 
# From -- ./inp_files/2367.got.cif
#   From: 2010.05.17/outbox.cif.g08.bks.cpg/sg1_2_cif.got.tgz:2367.got - 2010.05.17 20:27:59.
