data_PCOD9000488
_publ_section_title
;
Structure prediction by ZEFSAII (Michael W. Deem and Ramdas Pophale) SiO2 
 PCOD9000488
Probable space group: P 1
;
_chemical_formula_sum "Si O2"
_cell_formula_units_Z 8
_cell_length_a 14.842942
_cell_length_b 4.815232
_cell_length_c 7.161387
_cell_angle_alpha 98.867636
_cell_angle_beta 136.268799
_cell_angle_gamma 61.128992
_cell_volume 293.374962
_symmetry_space_group_name_H-M "P 1"
_symmetry_group_IT_number 1
_symmetry_cell_setting 'triclinic'
loop_
_space_group_symop_operation_xyz
x,y,z
loop_
_atom_site_type_symbol
_atom_site_label
_atom_site_fract_x
_atom_site_fract_y
_atom_site_fract_z
Si Si1 0.611870 0.128240 0.875000
Si Si2 0.551379 0.329646 0.253846
Si Si3 0.042261 0.336656 0.601834
Si Si4 0.135463 0.488335 0.109509
Si Si5 0.232524 0.685638 0.626599
Si Si6 0.435521 0.787596 0.490298
Si Si7 0.927446 0.722278 0.147606
Si Si8 0.732943 0.635392 0.369703
O O1 0.503289 0.531313 0.739342
O O2 0.522131 0.982898 0.624254
O O3 0.766799 0.045952 0.991975
O O4 0.670951 0.893147 0.124337
O O5 0.476423 0.558743 0.347357
O O6 0.648840 0.451753 0.296813
O O7 0.668229 0.945141 0.449356
O O8 0.400671 0.393106 0.917876
O O9 0.939189 0.437224 0.266127
O O10 0.912124 0.361874 0.555350
O O11 0.198955 0.015274 0.718077
O O12 0.096686 0.533847 0.838249
O O13 0.208306 0.652449 0.364277
O O14 0.978813 0.616468 0.004481
O O15 0.257591 0.091636 0.271291
O O16 0.079243 0.693885 0.462304
#
# Coordination Sequence:
#
# PCOD9000488 Si02
#       8
#     1   1   1   1   1   1   1   1
#     4  11  26  48  75 108 154 200 256 310 387 459
#     4  12  26  46  74 114 156 196 260 315 377 462
#     4  11  24  50  75 109 150 196 258 316 381 460
#     4  10  25  49  74 110 145 205 248 316 385 448
#     4  10  25  47  72 107 150 194 253 316 377 451
#     4  12  26  47  75 113 153 202 258 313 378 463
#     4   9  26  46  73 109 147 194 253 317 373 456
#     4  11  28  47  76 110 153 205 246 319 388 449
#
# _framework density 27.268856
#
# number of rings (size 3 to 8) (size 9 to 14) (size 15 to 20)
#    0.750    0.500    1.250    2.250   12.250    3.000 
#    2.250    0.000    0.000    0.000    0.000    0.000 
#    0.000    0.000    0.000    0.000    0.000    0.000 
#
# Total GULP energy -44543.302342 kJ/mol
# GULP energy per Si atom -5567.912793 kJ/mol
# Density = 2.720679 g / cm^3
# Si number density = 27.268856 Si / 1000 Ang^3
#
#
#
# Elastic Constant Matrix: (Units=GPa)
#
#
# Indices 1 2 3 4 5 6 
#
# 1 54.3001 29.9820 18.5712 2.2165 -3.6800 0.9784
# 2 29.9820 122.8297 34.1051 -1.1831 10.0551 -2.7935
# 3 18.5712 34.1051 82.6485 -5.1720 12.2772 -4.4056
# 4 2.2165 -1.1831 -5.1720 57.8692 -25.1595 -1.4939
# 5 -3.6800 10.0551 12.2772 -25.1595 51.1870 0.9170
# 6 0.9784 -2.7935 -4.4056 -1.4939 0.9170 47.1872
#
#
#
# Elastic Compliance Matrix: (Units=1/GPa)
#
#
# Indices 1 2 3 4 5 6 
#
# 1 0.022581 -0.004811 -0.003668 0.000238 0.003586 -0.001158
# 2 -0.004811 0.010287 -0.002882 -0.000742 -0.002048 0.000456
# 3 -0.003668 -0.002882 0.014665 0.000024 -0.003227 0.001338
# 4 0.000238 -0.000742 0.000024 0.022045 0.010985 0.000438
# 5 0.003586 -0.002048 -0.003227 0.010985 0.026382 -0.000662
# 6 -0.001158 0.000456 0.001338 0.000438 -0.000662 0.021395
#
#
# Mechanical properties :
#
#
# Convention : Reuss Voigt Hill
#
# Bulk Modulus (GPa) = 40.30440 47.23275 43.76858
# Shear Modulus (GPa) = 33.70464 43.05666 38.38065
#
# Velocity S-wave (km/s) = 3.51951 3.97793 3.75572
# Velocity P-wave (km/s) = 5.59718 6.20140 5.90702
#
# Compressibility (1/GPa) = 0.02481119
#
# Stress axis : x y z
#
# Youngs Moduli (GPa) = 44.28424 97.21275 68.18929
#
# Poissons Ratio (x) = 0.46769 0.25014
# Poissons Ratio (y) = 0.21305 0.19650
# Poissons Ratio (z) = 0.16245 0.28013
#
# Static dielectric constant tensor:
#      x y z
#    x 2.478370 0.216930 -0.164180 
#    y 0.216930 2.516960 -0.090910 
#    z -0.164180 -0.090910 2.245930 
# 
# From -- ./inp_files/5818.got.cif
#   From: 2010.05.17/outbox.cif.g08.bks.cpg/sg1_3_cif.got.tgz:5818.got - 2010.05.17 20:27:59.
