data_PCOD9000580
_publ_section_title
;
Structure prediction by ZEFSAII (Michael W. Deem and Ramdas Pophale) SiO2 
 PCOD9000580
Probable space group: P 1
;
_chemical_formula_sum "Si O2"
_cell_formula_units_Z 6
_cell_length_a 10.134023
_cell_length_b 5.174993
_cell_length_c 5.121861
_cell_angle_alpha 87.536602
_cell_angle_beta 63.494637
_cell_angle_gamma 72.485571
_cell_volume 227.915725
_symmetry_space_group_name_H-M "P 1"
_symmetry_group_IT_number 1
_symmetry_cell_setting 'triclinic'
loop_
_space_group_symop_operation_xyz
x,y,z
loop_
_atom_site_type_symbol
_atom_site_label
_atom_site_fract_x
_atom_site_fract_y
_atom_site_fract_z
Si Si1 0.212110 0.788440 0.064310
Si Si2 0.334912 0.353017 0.344822
Si Si3 0.071994 0.362075 0.926692
Si Si4 0.511305 0.851309 0.530386
Si Si5 0.735796 0.366941 0.154603
Si Si6 0.638941 0.120885 0.765997
O O1 0.264096 0.671310 0.313024
O O2 0.125289 0.592816 0.017911
O O3 0.370904 0.767136 0.773853
O O4 0.111241 0.098094 0.090411
O O5 0.178238 0.293233 0.575262
O O6 0.446069 0.163296 0.475057
O O7 0.454503 0.241540 0.003863
O O8 0.894004 0.437378 0.005238
O O9 0.591275 0.644197 0.240239
O O10 0.639727 0.842654 0.637127
O O11 0.706904 0.262341 0.470230
O O12 0.729244 0.153252 0.945316
#
# Coordination Sequence:
#
# PCOD9000580 Si02
#       6
#     1   1   1   1   1   1
#     4  11  25  50  78 114 159 215 269 328 401 487
#     4  11  23  50  79 115 154 215 270 326 398 484
#     4  11  29  49  76 120 166 211 269 338 409 486
#     4  11  26  50  85 119 160 211 280 336 402 487
#     4  12  29  51  80 123 164 212 269 341 415 482
#     4  12  26  50  82 117 161 212 273 335 401 490
#
# _framework density 26.325520999999998
#
# number of rings (size 3 to 8) (size 9 to 14) (size 15 to 20)
#    0.000    0.667    3.333    3.000    7.000    6.667 
#    3.000    0.000    0.000    0.000    0.000    0.000 
#    0.000    0.000    0.000    0.000    0.000    0.000 
#
# Total GULP energy -33515.086933 kJ/mol
# GULP energy per Si atom -5585.847822 kJ/mol
# Density = 2.626560 g / cm^3
# Si number density = 26.325521 Si / 1000 Ang^3
#
#
#
# Elastic Constant Matrix: (Units=GPa)
#
#
# Indices 1 2 3 4 5 6 
#
# 1 148.6259 47.2118 61.9414 -12.6954 -9.9380 31.6285
# 2 47.2118 130.1185 22.8403 -30.0250 23.4352 15.4995
# 3 61.9414 22.8403 116.2903 -28.9951 11.9714 5.0735
# 4 -12.6954 -30.0250 -28.9951 33.4389 -3.3192 8.4566
# 5 -9.9380 23.4352 11.9714 -3.3192 56.9206 -4.2568
# 6 31.6285 15.4995 5.0735 8.4566 -4.2568 48.1960
#
#
#
# Elastic Compliance Matrix: (Units=1/GPa)
#
#
# Indices 1 2 3 4 5 6 
#
# 1 0.011825 -0.004160 -0.006568 -0.003282 0.004612 -0.004748
# 2 -0.004160 0.013842 0.004232 0.015217 -0.006835 -0.005441
# 3 -0.006568 0.004232 0.015570 0.014711 -0.005437 -0.001752
# 4 -0.003282 0.015217 0.014711 0.058153 -0.007676 -0.015170
# 5 0.004612 -0.006835 -0.005437 -0.007676 0.022111 0.003043
# 6 -0.004748 -0.005441 -0.001752 -0.015170 0.003043 0.028729
#
#
# Mechanical properties :
#
#
# Convention : Reuss Voigt Hill
#
# Bulk Modulus (GPa) = 35.40249 73.22463 54.31356
# Shear Modulus (GPa) = 28.96223 45.24719 37.10471
#
# Velocity S-wave (km/s) = 3.32046 4.15029 3.75835
# Velocity P-wave (km/s) = 5.30827 7.13036 6.28569
#
# Compressibility (1/GPa) = 0.02824660
#
# Stress axis : x y z
#
# Youngs Moduli (GPa) = 84.56345 72.24162 64.22495
#
# Poissons Ratio (x) = 0.30056 0.42181
# Poissons Ratio (y) = 0.35182 -0.27183
# Poissons Ratio (z) = 0.55539 -0.30576
#
# Static dielectric constant tensor:
#      x y z
#    x 2.107300 -0.011980 0.058250 
#    y -0.011980 2.147850 0.005960 
#    z 0.058250 0.005960 2.015610 
# 
# From -- ./inp_files/1951.got.cif
#   From: 2010.05.17/outbox.cif.g08.bks.cpg/sg1_1_cif.got.tgz:1951.got - 2010.05.17 20:27:59.
