data_PCOD9000937
_publ_section_title
;
Structure prediction by ZEFSAII (Michael W. Deem and Ramdas Pophale) SiO2 
 PCOD9000937
Probable space group: P 1
;
_chemical_formula_sum "Si O2"
_cell_formula_units_Z 8
_cell_length_a 17.140920
_cell_length_b 8.461780
_cell_length_c 9.436099
_cell_angle_alpha 31.475162
_cell_angle_beta 37.145009
_cell_angle_gamma 38.386668
_cell_volume 407.346242
_symmetry_space_group_name_H-M "P 1"
_symmetry_group_IT_number 1
_symmetry_cell_setting 'triclinic'
loop_
_space_group_symop_operation_xyz
x,y,z
loop_
_atom_site_type_symbol
_atom_site_label
_atom_site_fract_x
_atom_site_fract_y
_atom_site_fract_z
Si Si1 0.574250 0.670380 0.702090
Si Si2 0.262883 0.601469 0.666429
Si Si3 0.011719 0.872067 0.602862
Si Si4 0.100342 0.390311 0.584243
Si Si5 0.400431 0.286722 0.306596
Si Si6 0.876187 0.617617 0.219107
Si Si7 0.052048 0.772796 0.083977
Si Si8 0.404883 0.846271 0.061546
O O1 0.725812 0.617828 0.472783
O O2 0.472998 0.980204 0.531866
O O3 0.516503 0.376824 0.981499
O O4 0.552566 0.746194 0.845698
O O5 0.377399 0.753954 0.331541
O O6 0.136473 0.744982 0.631240
O O7 0.192599 0.685189 0.856907
O O8 0.327181 0.217420 0.861754
O O9 0.046214 0.670130 0.563815
O O10 0.975599 0.249929 0.343242
O O11 0.887574 0.803271 0.917857
O O12 0.265638 0.264026 0.447026
O O13 0.059325 0.514644 0.390539
O O14 0.040164 0.107064 0.918747
O O15 0.347995 0.607905 0.233844
O O16 0.933697 0.779065 0.140286
#
# Coordination Sequence:
#
# PCOD9000937 Si02
#       8
#     1   1   1   1   1   1   1   1
#     4  10  19  36  58  90 109 148 202 245 267 324
#     4  11  19  35  56  87 115 144 194 237 285 333
#     4  11  21  35  62  83 115 152 202 238 274 338
#     4  12  22  39  58  91 118 152 182 239 314 343
#     4  10  20  33  61  89 106 148 190 250 271 337
#     4  11  23  39  59  89 113 158 197 239 271 342
#     4  11  25  35  57  88 130 147 176 241 305 353
#     4  10  17  32  59  85 106 143 187 251 269 324
#
# _framework density 19.639313000000001
#
# number of rings (size 3 to 8) (size 9 to 14) (size 15 to 20)
#    0.750    0.500    2.500    6.000    1.750    0.000 
#    0.000    0.000    0.000   15.000    0.000    0.000 
#    0.000    0.000    0.000    0.000    0.000    0.000 
#
# Total GULP energy -44585.889751 kJ/mol
# GULP energy per Si atom -5573.236219 kJ/mol
# Density = 1.959461 g / cm^3
# Si number density = 19.639313 Si / 1000 Ang^3
#
#
#
# Elastic Constant Matrix: (Units=GPa)
#
#
# Indices 1 2 3 4 5 6 
#
# 1 40.8312 7.7106 4.7019 6.1746 -8.5062 0.1440
# 2 7.7106 38.5651 -1.0755 0.4723 -3.7076 2.3762
# 3 4.7019 -1.0755 93.2796 2.9044 -4.5626 -14.3613
# 4 6.1746 0.4723 2.9044 47.6827 -0.9030 -4.9762
# 5 -8.5062 -3.7076 -4.5626 -0.9030 29.1833 0.3644
# 6 0.1440 2.3762 -14.3613 -4.9762 0.3644 15.3090
#
#
#
# Elastic Compliance Matrix: (Units=1/GPa)
#
#
# Indices 1 2 3 4 5 6 
#
# 1 0.027556 -0.004688 -0.001302 -0.003523 0.007149 -0.002068
# 2 -0.004688 0.027339 0.000002 -0.000069 0.002158 -0.004272
# 3 -0.001302 0.000002 0.012702 0.000687 0.001477 0.012116
# 4 -0.003523 -0.000069 0.000687 0.022207 -0.000340 0.007915
# 5 0.007149 0.002158 0.001477 -0.000340 0.036845 -0.000004
# 6 -0.002068 -0.004272 0.012116 0.007915 -0.000004 0.079943
#
#
# Mechanical properties :
#
#
# Convention : Reuss Voigt Hill
#
# Bulk Modulus (GPa) = 17.97898 21.70552 19.84225
# Shear Modulus (GPa) = 21.08745 29.19093 25.13919
#
# Velocity S-wave (km/s) = 3.28035 3.85951 3.58165
# Velocity P-wave (km/s) = 4.84995 5.56211 5.21820
#
# Compressibility (1/GPa) = 0.05562052
#
# Stress axis : x y z
#
# Youngs Moduli (GPa) = 36.29006 36.57771 78.72559
#
# Poissons Ratio (x) = 0.17147 0.10251
# Poissons Ratio (y) = 0.17012 -0.00013
# Poissons Ratio (z) = 0.04725 -0.00006
#
# Static dielectric constant tensor:
#      x y z
#    x 1.671090 0.013260 -0.005090 
#    y 0.013260 1.720520 0.047950 
#    z -0.005090 0.047950 1.750150 
# 
# From -- ./inp_files/5632.got.cif
#   From: 2010.05.17/outbox.cif.g08.bks.cpg/sg1_3_cif.got.tgz:5632.got - 2010.05.17 20:27:59.
