data_PCOD9000062
_publ_section_title
;
Structure prediction by ZEFSAII (Michael W. Deem and Ramdas Pophale) SiO2 
 PCOD9000062
Probable space group: P 1
;
_chemical_formula_sum "Si O2"
_cell_formula_units_Z 8
_cell_length_a 11.459810
_cell_length_b 7.281847
_cell_length_c 6.962103
_cell_angle_alpha 116.466056
_cell_angle_beta 117.725672
_cell_angle_gamma 44.036678
_cell_volume 351.593413
_symmetry_space_group_name_H-M "P 1"
_symmetry_group_IT_number 1
_symmetry_cell_setting 'triclinic'
loop_
_space_group_symop_operation_xyz
x,y,z
loop_
_atom_site_type_symbol
_atom_site_label
_atom_site_fract_x
_atom_site_fract_y
_atom_site_fract_z
Si Si1 0.569240 0.590350 0.287190
Si Si2 0.218577 0.870953 0.690949
Si Si3 0.022678 0.626015 0.956938
Si Si4 0.705351 0.157279 0.877540
Si Si5 0.484764 0.353729 0.437343
Si Si6 0.049081 0.029568 0.044712
Si Si7 0.342134 0.090339 0.093875
Si Si8 0.956073 0.371034 0.476614
O O1 0.537491 0.494617 0.412298
O O2 0.752239 0.527213 0.398679
O O3 0.417654 0.896346 0.246980
O O4 0.584770 0.403959 0.043347
O O5 0.050412 0.106696 0.556903
O O6 0.313780 0.589147 0.534262
O O7 0.351922 0.928772 0.842543
O O8 0.157380 0.912377 0.881298
O O9 0.009461 0.530101 0.692422
O O10 0.821091 0.878537 0.957954
O O11 0.141702 0.365878 0.058833
O O12 0.107878 0.765016 0.079299
O O13 0.615621 0.167897 0.623141
O O14 0.850057 0.171557 0.918175
O O15 0.452177 0.186221 0.207376
O O16 0.035661 0.239638 0.268808
#
# Coordination Sequence:
#
# PCOD9000062 Si02
#       8
#     1   1   1   1   1   1   1   1
#     4  11  24  45  70  97 139 174 220 284 327 396
#     4  11  24  42  64 102 133 171 225 273 327 400
#     4   9  21  42  70  99 130 173 229 266 333 405
#     4   9  21  45  68  98 132 174 224 271 333 394
#     4  12  25  44  68  98 140 176 218 278 341 385
#     4   9  21  41  69  91 134 171 215 282 317 390
#     4  11  25  43  66 102 132 177 227 266 336 400
#     4  10  21  42  67  93 130 176 222 264 334 396
#
# _framework density 22.753556
#
# number of rings (size 3 to 8) (size 9 to 14) (size 15 to 20)
#    0.750    1.000    1.250    2.250    3.500    1.000 
#    6.750    3.750    0.000    0.000    0.000    0.000 
#    0.000    0.000    0.000    0.000    0.000    0.000 
#
# Total GULP energy -44570.717581 kJ/mol
# GULP energy per Si atom -5571.339698 kJ/mol
# Density = 2.270177 g / cm^3
# Si number density = 22.753556 Si / 1000 Ang^3
#
#
#
# Elastic Constant Matrix: (Units=GPa)
#
#
# Indices 1 2 3 4 5 6 
#
# 1 42.6056 13.3826 36.8538 2.7870 -13.6655 -7.9435
# 2 13.3826 123.3107 24.1543 -24.7984 -5.4607 -7.9569
# 3 36.8538 24.1543 104.6390 1.9527 10.5198 -7.9473
# 4 2.7870 -24.7984 1.9527 50.2054 -2.2577 6.4346
# 5 -13.6655 -5.4607 10.5198 -2.2577 32.9621 1.2435
# 6 -7.9435 -7.9569 -7.9473 6.4346 1.2435 26.3913
#
#
#
# Elastic Compliance Matrix: (Units=1/GPa)
#
#
# Indices 1 2 3 4 5 6 
#
# 1 0.051383 -0.000311 -0.020069 -0.002100 0.027189 0.008559
# 2 -0.000311 0.009784 -0.002441 0.004960 0.002581 0.000790
# 3 -0.020069 -0.002441 0.018696 -0.001472 -0.014789 -0.000091
# 4 -0.002100 0.004960 -0.001472 0.023330 0.002222 -0.005373
# 5 0.027189 0.002581 -0.014789 0.002222 0.046843 0.001759
# 6 0.008559 0.000790 -0.000091 -0.005373 0.001759 0.041905
#
#
# Mechanical properties :
#
#
# Convention : Reuss Voigt Hill
#
# Bulk Modulus (GPa) = 29.22274 46.59296 37.90785
# Shear Modulus (GPa) = 20.08105 34.98941 27.53523
#
# Velocity S-wave (km/s) = 2.97399 3.92568 3.48250
# Velocity P-wave (km/s) = 4.96627 6.40856 5.73295
#
# Compressibility (1/GPa) = 0.03421993
#
# Stress axis : x y z
#
# Youngs Moduli (GPa) = 19.46185 102.20530 53.48774
#
# Poissons Ratio (x) = 0.03180 1.07346
# Poissons Ratio (y) = 0.00606 0.13056
# Poissons Ratio (z) = 0.39059 0.24948
#
# Static dielectric constant tensor:
#      x y z
#    x 1.902070 0.016170 0.059170 
#    y 0.016170 1.884500 -0.007220 
#    z 0.059170 -0.007220 1.841200 
# 
# From -- ./inp_files/2724.got.cif
#   From: 2010.05.17/outbox.cif.g08.bks.cpg/sg1_2_cif.got.tgz:2724.got - 2010.05.17 20:27:59.
