data_PCOD9000782
_publ_section_title
;
Structure prediction by ZEFSAII (Michael W. Deem and Ramdas Pophale) SiO2 
 PCOD9000782
Probable space group: P 1
;
_chemical_formula_sum "Si O2"
_cell_formula_units_Z 8
_cell_length_a 9.331454
_cell_length_b 14.373166
_cell_length_c 9.056601
_cell_angle_alpha 143.476131
_cell_angle_beta 136.430948
_cell_angle_gamma 27.036622
_cell_volume 328.444884
_symmetry_space_group_name_H-M "P 1"
_symmetry_group_IT_number 1
_symmetry_cell_setting 'triclinic'
loop_
_space_group_symop_operation_xyz
x,y,z
loop_
_atom_site_type_symbol
_atom_site_label
_atom_site_fract_x
_atom_site_fract_y
_atom_site_fract_z
Si Si1 0.728120 0.221560 0.047410
Si Si2 0.640671 0.634241 0.208586
Si Si3 0.199952 0.500809 0.557640
Si Si4 0.431052 0.897042 0.104729
Si Si5 0.735412 0.034379 0.513668
Si Si6 0.135555 0.092784 0.830540
Si Si7 0.188693 0.712357 0.106355
Si Si8 0.520816 0.159096 0.105331
O O1 0.641990 0.170845 0.062601
O O2 0.778066 0.072291 0.759733
O O3 0.416897 0.496130 0.116012
O O4 0.065296 0.123361 0.183116
O O5 0.554257 0.695677 0.051055
O O6 0.845436 0.660553 0.456881
O O7 0.340912 0.794133 0.295073
O O8 0.859005 0.356802 0.034320
O O9 0.378415 0.265128 0.483585
O O10 0.227316 0.620875 0.850330
O O11 0.373557 0.382422 0.379572
O O12 0.718521 0.858958 0.282583
O O13 0.378311 0.906404 0.903217
O O14 0.962929 0.025490 0.582194
O O15 0.289147 0.139222 0.899566
O O16 0.818084 0.920357 0.112192
#
# Coordination Sequence:
#
# PCOD9000782 Si02
#       8
#     1   1   1   1   1   1   1   1
#     4  10  22  40  65  98 133 163 225 275 320 390
#     4  11  20  37  69  95 124 176 222 259 331 392
#     4  10  22  42  65  94 131 173 217 263 330 396
#     4  11  20  37  68  98 124 177 221 266 326 399
#     4  10  19  42  66  86 133 180 206 267 334 382
#     4  10  22  42  62  93 140 166 215 280 321 389
#     4  11  22  44  68  92 137 176 209 277 335 387
#     4  11  23  42  65 104 134 165 221 283 323 387
#
# _framework density 24.357206000000001
#
# number of rings (size 3 to 8) (size 9 to 14) (size 15 to 20)
#    0.000    1.500    7.500    0.000    1.750    2.000 
#    4.500    0.000    0.000    0.000    0.000    0.000 
#    0.000    0.000    0.000    0.000    0.000    0.000 
#
# Total GULP energy -44537.278380 kJ/mol
# GULP energy per Si atom -5567.159797 kJ/mol
# Density = 2.430177 g / cm^3
# Si number density = 24.357206 Si / 1000 Ang^3
#
#
#
# Elastic Constant Matrix: (Units=GPa)
#
#
# Indices 1 2 3 4 5 6 
#
# 1 171.9911 35.0183 32.0110 -15.6180 6.9039 -10.2480
# 2 35.0183 94.3569 15.6304 -22.7755 11.4662 -4.0816
# 3 32.0110 15.6304 65.2031 -18.2375 5.6663 -5.7345
# 4 -15.6180 -22.7755 -18.2375 27.8532 -4.5859 -2.5891
# 5 6.9039 11.4662 5.6663 -4.5859 33.6582 -8.4995
# 6 -10.2480 -4.0816 -5.7345 -2.5891 -8.4995 48.7172
#
#
#
# Elastic Compliance Matrix: (Units=1/GPa)
#
#
# Indices 1 2 3 4 5 6 
#
# 1 0.006805 -0.001895 -0.002619 0.000650 0.000033 0.001005
# 2 -0.001895 0.014124 0.000861 0.010665 -0.002874 0.000951
# 3 -0.002619 0.000861 0.020215 0.012559 -0.000836 0.002422
# 4 0.000650 0.010665 0.012559 0.054256 0.003006 0.005916
# 5 0.000033 -0.002874 -0.000836 0.003006 0.032627 0.005520
# 6 0.001005 0.000951 0.002422 0.005916 0.005520 0.022380
#
#
# Mechanical properties :
#
#
# Convention : Reuss Voigt Hill
#
# Bulk Modulus (GPa) = 29.55374 55.20784 42.38079
# Shear Modulus (GPa) = 29.58714 38.63848 34.11281
#
# Velocity S-wave (km/s) = 3.48906 3.98719 3.74642
# Velocity P-wave (km/s) = 5.32834 6.62662 6.01262
#
# Compressibility (1/GPa) = 0.03383666
#
# Stress axis : x y z
#
# Youngs Moduli (GPa) = 146.94581 70.80369 49.46890
#
# Poissons Ratio (x) = 0.13420 0.12958
# Poissons Ratio (y) = 0.27852 -0.04261
# Poissons Ratio (z) = 0.38491 -0.06099
#
# Static dielectric constant tensor:
#      x y z
#    x 1.972480 -0.064180 0.008670 
#    y -0.064180 1.948640 0.020940 
#    z 0.008670 0.020940 2.033220 
# 
# From -- ./inp_files/4364.got.cif
#   From: 2010.05.17/outbox.cif.g08.bks.cpg/sg1_3_cif.got.tgz:4364.got - 2010.05.17 20:27:59.
