data_PCOD9000824
_publ_section_title
;
Structure prediction by ZEFSAII (Michael W. Deem and Ramdas Pophale) SiO2 
 PCOD9000824
Probable space group: P 1
;
_chemical_formula_sum "Si O2"
_cell_formula_units_Z 8
_cell_length_a 6.746304
_cell_length_b 11.401519
_cell_length_c 5.493405
_cell_angle_alpha 97.171591
_cell_angle_beta 49.415166
_cell_angle_gamma 97.905123
_cell_volume 317.496144
_symmetry_space_group_name_H-M "P 1"
_symmetry_group_IT_number 1
_symmetry_cell_setting 'triclinic'
loop_
_space_group_symop_operation_xyz
x,y,z
loop_
_atom_site_type_symbol
_atom_site_label
_atom_site_fract_x
_atom_site_fract_y
_atom_site_fract_z
Si Si1 0.500000 0.354190 0.511250
Si Si2 0.181730 0.889372 0.545009
Si Si3 0.896594 0.110528 0.387960
Si Si4 0.044600 0.160148 0.782027
Si Si5 0.384904 0.947834 0.896006
Si Si6 0.645960 0.449118 0.921425
Si Si7 0.828025 0.670434 0.596626
Si Si8 0.274444 0.565677 0.953930
O O1 0.316777 0.234356 0.630012
O O2 0.665259 0.378512 0.632472
O O3 0.299126 0.460588 0.716549
O O4 0.652633 0.379890 0.146548
O O5 0.299738 0.866709 0.710417
O O6 0.950761 0.793993 0.629168
O O7 0.082394 0.020421 0.684177
O O8 0.380970 0.893865 0.157209
O O9 0.940018 0.192781 0.609959
O O10 0.654726 0.017920 0.620848
O O11 0.866273 0.170368 0.165063
O O12 0.161702 0.042342 0.124092
O O13 0.826283 0.570346 0.782606
O O14 0.356250 0.497874 0.120331
O O15 0.529302 0.658006 0.741289
O O16 0.013386 0.627429 0.223975
#
# Coordination Sequence:
#
# PCOD9000824 Si02
#       8
#     1   1   1   1   1   1   1   1
#     4   9  18  40  61  91 117 160 197 251 295 353
#     4  10  22  39  61  93 122 159 197 246 302 361
#     4  10  21  38  58  83 122 157 196 236 291 356
#     4  10  20  37  66  88 127 154 201 243 305 359
#     4  10  22  39  57  84 121 159 196 237 289 358
#     4   8  20  37  62  87 119 155 204 245 296 346
#     4   9  20  41  61  90 118 160 197 251 294 354
#     4   8  21  39  60  88 116 158 200 247 292 347
#
# _framework density 25.197156
#
# number of rings (size 3 to 8) (size 9 to 14) (size 15 to 20)
#    1.500    1.000    0.000    1.500    0.000    6.000 
#    6.750   12.500    0.000    0.000    0.000    0.000 
#    0.000    0.000    0.000    0.000    0.000    0.000 
#
# Total GULP energy -44656.657485 kJ/mol
# GULP energy per Si atom -5582.082186 kJ/mol
# Density = 2.513981 g / cm^3
# Si number density = 25.197156 Si / 1000 Ang^3
#
#
#
# Elastic Constant Matrix: (Units=GPa)
#
#
# Indices 1 2 3 4 5 6 
#
# 1 73.1149 35.4379 62.6298 1.2190 23.5455 -4.3814
# 2 35.4379 160.3779 62.5013 -13.7066 6.9832 17.4652
# 3 62.6298 62.5013 178.3129 -9.5388 35.7538 5.6907
# 4 1.2190 -13.7066 -9.5388 42.4022 3.1848 -8.3245
# 5 23.5455 6.9832 35.7538 3.1848 51.7237 0.2508
# 6 -4.3814 17.4652 5.6907 -8.3245 0.2508 24.7415
#
#
#
# Elastic Compliance Matrix: (Units=1/GPa)
#
#
# Indices 1 2 3 4 5 6 
#
# 1 0.022715 -0.003360 -0.005951 -0.001190 -0.005736 0.007421
# 2 -0.003360 0.008335 -0.001824 0.001141 0.001622 -0.005692
# 3 -0.005951 -0.001824 0.009164 0.001652 -0.003475 -0.001283
# 4 -0.001190 0.001141 0.001652 0.025985 -0.002390 0.007371
# 5 -0.005736 0.001622 -0.003475 -0.002390 0.024286 -0.002412
# 6 0.007421 -0.005692 -0.001283 0.007371 -0.002412 0.048549
#
#
# Mechanical properties :
#
#
# Convention : Reuss Voigt Hill
#
# Bulk Modulus (GPa) = 55.73007 81.43817 68.58412
# Shear Modulus (GPa) = 29.88893 40.52260 35.20576
#
# Velocity S-wave (km/s) = 3.44787 4.01461 3.74198
# Velocity P-wave (km/s) = 6.16571 7.34030 6.77850
#
# Compressibility (1/GPa) = 0.01794363
#
# Stress axis : x y z
#
# Youngs Moduli (GPa) = 44.02395 119.97075 109.12656
#
# Poissons Ratio (x) = 0.40312 0.64940
# Poissons Ratio (y) = 0.14793 0.19905
# Poissons Ratio (z) = 0.26198 0.21884
#
# Static dielectric constant tensor:
#      x y z
#    x 2.131840 -0.101360 0.012570 
#    y -0.101360 1.997400 0.025250 
#    z 0.012570 0.025250 1.975230 
# 
# From -- ./inp_files/678.got.cif
#   From: 2010.05.17/outbox.cif.g08.bks.cpg/sg1_1_cif.got.tgz:678.got - 2010.05.17 20:27:59.
