data_PCOD9000274
_publ_section_title
;
Structure prediction by ZEFSAII (Michael W. Deem and Ramdas Pophale) SiO2 
 PCOD9000274
Probable space group: P 1
;
_chemical_formula_sum "Si O2"
_cell_formula_units_Z 8
_cell_length_a 12.559604
_cell_length_b 6.563254
_cell_length_c 5.428470
_cell_angle_alpha 84.528614
_cell_angle_beta 107.671058
_cell_angle_gamma 133.401136
_cell_volume 305.608730
_symmetry_space_group_name_H-M "P 1"
_symmetry_group_IT_number 1
_symmetry_cell_setting 'triclinic'
loop_
_space_group_symop_operation_xyz
x,y,z
loop_
_atom_site_type_symbol
_atom_site_label
_atom_site_fract_x
_atom_site_fract_y
_atom_site_fract_z
Si Si1 0.546710 0.309380 0.184740
Si Si2 0.620744 0.295438 0.734319
Si Si3 0.136098 0.486346 0.724163
Si Si4 0.821920 0.962841 0.340252
Si Si5 0.129152 0.898467 0.451555
Si Si6 0.969645 0.610486 0.870649
Si Si7 0.689816 0.874823 0.753576
Si Si8 0.377231 0.472070 0.814512
O O1 0.517395 0.155516 0.433820
O O2 0.720462 0.627443 0.292033
O O3 0.546762 0.167504 0.963028
O O4 0.436339 0.363899 0.047168
O O5 0.784230 0.388654 0.799358
O O6 0.659874 0.590356 0.744869
O O7 0.057989 0.506512 0.896223
O O8 0.184983 0.734874 0.550616
O O9 0.272632 0.504757 0.872616
O O10 0.998227 0.190766 0.522733
O O11 0.741640 0.992921 0.500202
O O12 0.803259 0.033528 0.049493
O O13 0.014468 0.772572 0.622705
O O14 0.270464 0.228682 0.561242
O O15 0.044512 0.809285 0.141492
O O16 0.526750 0.752199 0.748487
#
# Coordination Sequence:
#
# PCOD9000274 Si02
#       8
#     1   1   1   1   1   1   1   1
#     4   9  20  37  64  96 119 173 224 255 330 391
#     4   9  17  36  62  85 129 158 216 268 308 383
#     4  10  25  42  67 104 133 173 221 280 334 392
#     4   9  19  37  61  90 128 160 219 271 308 383
#     4  10  25  42  61 101 134 175 217 266 341 392
#     4  10  23  41  60 100 136 164 221 278 325 388
#     4   9  21  37  64  96 121 174 223 256 329 394
#     4  10  22  46  69  98 136 181 215 276 335 407
#
# _framework density 26.177261000000001
#
# number of rings (size 3 to 8) (size 9 to 14) (size 15 to 20)
#    0.750    2.000    0.000    0.750    8.750    4.000 
#   11.250    5.000    0.000    0.000    0.000    0.000 
#    0.000    0.000    0.000    0.000    0.000    0.000 
#
# Total GULP energy -44718.033932 kJ/mol
# GULP energy per Si atom -5589.754242 kJ/mol
# Density = 2.611768 g / cm^3
# Si number density = 26.177261 Si / 1000 Ang^3
#
#
#
# Elastic Constant Matrix: (Units=GPa)
#
#
# Indices 1 2 3 4 5 6 
#
# 1 159.0014 31.7368 60.8851 -11.3539 9.4692 13.5514
# 2 31.7368 64.0057 24.9118 13.9541 -5.8081 14.8869
# 3 60.8851 24.9118 181.6918 -6.3628 -33.5393 21.4483
# 4 -11.3539 13.9541 -6.3628 32.2919 10.5788 1.8770
# 5 9.4692 -5.8081 -33.5393 10.5788 39.7579 1.5136
# 6 13.5514 14.8869 21.4483 1.8770 1.5136 42.3487
#
#
#
# Elastic Compliance Matrix: (Units=1/GPa)
#
#
# Indices 1 2 3 4 5 6 
#
# 1 0.010146 -0.006345 -0.004011 0.008412 -0.009002 0.000964
# 2 -0.006345 0.024258 0.000927 -0.015490 0.010211 -0.006645
# 3 -0.004011 0.000927 0.008797 -0.002954 0.009439 -0.003704
# 4 0.008412 -0.015490 -0.002954 0.046141 -0.019146 0.002889
# 5 -0.009002 0.010211 0.009439 -0.019146 0.042079 -0.006145
# 6 0.000964 -0.006645 -0.003704 0.002889 -0.006145 0.027609
#
#
# Mechanical properties :
#
#
# Convention : Reuss Voigt Hill
#
# Bulk Modulus (GPa) = 41.07836 71.08514 56.08175
# Shear Modulus (GPa) = 26.88164 42.02404 34.45284
#
# Velocity S-wave (km/s) = 3.20802 4.01105 3.63179
# Velocity P-wave (km/s) = 5.42663 6.97607 6.24955
#
# Compressibility (1/GPa) = 0.02434372
#
# Stress axis : x y z
#
# Youngs Moduli (GPa) = 98.55939 41.22374 113.67564
#
# Poissons Ratio (x) = 0.26155 0.45595
# Poissons Ratio (y) = 0.62533 -0.10539
# Poissons Ratio (z) = 0.39532 -0.03822
#
# Static dielectric constant tensor:
#      x y z
#    x 2.114310 -0.070090 -0.020670 
#    y -0.070090 2.160690 -0.018160 
#    z -0.020670 -0.018160 2.035740 
# 
# From -- ./inp_files/2136.got.cif
#   From: 2010.05.17/outbox.cif.g08.bks.cpg/sg1_2_cif.got.tgz:2136.got - 2010.05.17 20:27:59.
