data_PCOD9000801
_publ_section_title
;
Structure prediction by ZEFSAII (Michael W. Deem and Ramdas Pophale) SiO2 
 PCOD9000801
Probable space group: P 1
;
_chemical_formula_sum "Si O2"
_cell_formula_units_Z 8
_cell_length_a 5.440472
_cell_length_b 7.453377
_cell_length_c 16.566466
_cell_angle_alpha 32.413879
_cell_angle_beta 124.677755
_cell_angle_gamma 122.017451
_cell_volume 294.223946
_symmetry_space_group_name_H-M "P 1"
_symmetry_group_IT_number 1
_symmetry_cell_setting 'triclinic'
loop_
_space_group_symop_operation_xyz
x,y,z
loop_
_atom_site_type_symbol
_atom_site_label
_atom_site_fract_x
_atom_site_fract_y
_atom_site_fract_z
Si Si1 0.169270 0.250000 0.929860
Si Si2 0.302248 0.929082 0.229213
Si Si3 0.977417 0.149529 0.653395
Si Si4 0.598420 0.511502 0.779020
Si Si5 0.609797 0.578023 0.012830
Si Si6 0.221864 0.497116 0.113362
Si Si7 0.570524 0.493684 0.562825
Si Si8 0.565348 0.089757 0.453058
O O1 0.379909 0.265066 0.885755
O O2 0.834777 0.356509 0.822334
O O3 0.374453 0.544449 0.908598
O O4 0.163181 0.943281 0.109408
O O5 0.122839 0.158978 0.168428
O O6 0.375454 0.593421 0.410785
O O7 0.615916 0.175642 0.186123
O O8 0.839566 0.325149 0.637015
O O9 0.329150 0.258618 0.661592
O O10 0.840017 0.758275 0.783386
O O11 0.818311 0.249464 0.501281
O O12 0.412432 0.791275 0.596129
O O13 0.459360 0.692394 0.022185
O O14 0.947077 0.700367 0.007661
O O15 0.382339 0.357233 0.274230
O O16 0.662992 0.850045 0.490007
#
# Coordination Sequence:
#
# PCOD9000801 Si02
#       8
#     1   1   1   1   1   1   1   1
#     4   9  17  32  54  81 113 149 203 226 275 356
#     4   7  19  27  57  84 104 145 199 228 284 343
#     4  10  25  35  57  95 115 156 193 232 305 349
#     4  10  20  35  52  87 116 152 192 234 280 353
#     4   8  16  26  50  85 100 138 200 226 268 346
#     4   8  15  29  47  78 111 132 181 233 280 328
#     4  11  21  40  59  88 120 149 194 247 300 339
#     4   9  23  36  60  88 121 153 190 244 294 348
#
# _framework density 27.190176000000001
#
# number of rings (size 3 to 8) (size 9 to 14) (size 15 to 20)
#    2.250    0.500    0.000    2.250    3.500    4.000 
#    0.000    0.000    0.000    0.000   71.500    0.000 
#    0.000    0.000    0.000    0.000    0.000    0.000 
#
# Total GULP energy -44588.346525 kJ/mol
# GULP energy per Si atom -5573.543316 kJ/mol
# Density = 2.712829 g / cm^3
# Si number density = 27.190176 Si / 1000 Ang^3
#
#
#
# Elastic Constant Matrix: (Units=GPa)
#
#
# Indices 1 2 3 4 5 6 
#
# 1 235.9930 71.0376 44.4413 4.3922 -5.5131 4.1608
# 2 71.0376 103.4172 11.3627 9.7018 10.0926 -1.3334
# 3 44.4413 11.3627 111.4221 25.9316 -1.9210 10.0514
# 4 4.3922 9.7018 25.9316 39.8030 -0.8349 0.6459
# 5 -5.5131 10.0926 -1.9210 -0.8349 26.6848 -9.3868
# 6 4.1608 -1.3334 10.0514 0.6459 -9.3868 46.0980
#
#
#
# Elastic Compliance Matrix: (Units=1/GPa)
#
#
# Indices 1 2 3 4 5 6 
#
# 1 0.006023 -0.004341 -0.002418 0.002024 0.002925 0.000425
# 2 -0.004341 0.013472 0.001171 -0.003688 -0.006269 -0.000699
# 3 -0.002418 0.001171 0.011813 -0.007700 -0.001198 -0.002460
# 4 0.002024 -0.003688 -0.007700 0.030849 0.002758 0.001519
# 5 0.002925 -0.006269 -0.001198 0.002758 0.043486 0.008632
# 6 0.000425 -0.000699 -0.002460 0.001519 0.008632 0.023907
#
#
# Mechanical properties :
#
#
# Convention : Reuss Voigt Hill
#
# Bulk Modulus (GPa) = 49.67634 78.27949 63.97792
# Shear Modulus (GPa) = 33.91257 44.11654 39.01455
#
# Velocity S-wave (km/s) = 3.53545 4.03242 3.79209
# Velocity P-wave (km/s) = 5.91401 7.10863 6.53866
#
# Compressibility (1/GPa) = 0.02013031
#
# Stress axis : x y z
#
# Youngs Moduli (GPa) = 166.03684 74.23030 84.64971
#
# Poissons Ratio (x) = 0.32224 0.20472
# Poissons Ratio (y) = 0.72079 -0.09911
# Poissons Ratio (z) = 0.40154 -0.08691
#
# Static dielectric constant tensor:
#      x y z
#    x 2.062400 -0.048960 -0.010410 
#    y -0.048960 2.169060 0.032040 
#    z -0.010410 0.032040 2.115680 
# 
# From -- ./inp_files/7363.got.cif
#   From: 2010.05.17/outbox.cif.g08.bks.cpg/sg1_4_cif.got.tgz:7363.got - 2010.05.17 20:27:59.
