data_PCOD9000575
_publ_section_title
;
Structure prediction by ZEFSAII (Michael W. Deem and Ramdas Pophale) SiO2 
 PCOD9000575
Probable space group: P 1
;
_chemical_formula_sum "Si O2"
_cell_formula_units_Z 8
_cell_length_a 5.437506
_cell_length_b 4.973795
_cell_length_c 13.872753
_cell_angle_alpha 103.374448
_cell_angle_beta 121.956745
_cell_angle_gamma 89.489828
_cell_volume 306.752105
_symmetry_space_group_name_H-M "P 1"
_symmetry_group_IT_number 1
_symmetry_cell_setting 'triclinic'
loop_
_space_group_symop_operation_xyz
x,y,z
loop_
_atom_site_type_symbol
_atom_site_label
_atom_site_fract_x
_atom_site_fract_y
_atom_site_fract_z
Si Si1 0.826790 0.527010 0.919490
Si Si2 0.638930 0.963367 0.764678
Si Si3 0.571038 0.484571 0.580219
Si Si4 0.246122 0.487049 0.319680
Si Si5 0.436920 0.823351 0.113199
Si Si6 0.106696 0.200138 0.614569
Si Si7 0.781460 0.830916 0.351311
Si Si8 0.695365 0.277186 0.074872
O O1 0.868205 0.248389 0.843752
O O2 0.690931 0.736085 0.837331
O O3 0.682796 0.364143 0.969031
O O4 0.094573 0.731883 0.038691
O O5 0.636795 0.813105 0.647104
O O6 0.316272 0.052577 0.714682
O O7 0.407263 0.387242 0.438590
O O8 0.340205 0.374319 0.605677
O O9 0.883667 0.378174 0.633154
O O10 0.506335 0.627689 0.318791
O O11 0.045191 0.701994 0.343577
O O12 0.020736 0.290747 0.188826
O O13 0.621208 0.996931 0.250245
O O14 0.556052 0.527685 0.116120
O O15 0.516915 0.985933 0.044523
O O16 0.916984 0.990150 0.485676
#
# Coordination Sequence:
#
# PCOD9000575 Si02
#       8
#     1   1   1   1   1   1   1   1
#     4  12  26  54  78 116 170 216 282 338 408 496
#     4  12  28  52  82 118 164 228 276 338 408 496
#     4  12  27  51  81 122 164 220 275 343 417 490
#     4  11  23  45  80 121 168 209 268 344 419 495
#     4  11  25  48  78 119 160 216 271 342 416 491
#     4  12  27  51  81 122 164 220 275 343 417 490
#     4  11  23  45  80 121 168 209 268 344 419 495
#     4  11  25  48  78 119 160 216 271 342 416 491
#
# _framework density 26.079695000000001
#
# number of rings (size 3 to 8) (size 9 to 14) (size 15 to 20)
#    0.000    0.500    3.750    3.750    0.000    3.000 
#   11.250    0.000    0.000    0.000    0.000    0.000 
#    0.000    0.000    0.000    0.000    0.000    0.000 
#
# Total GULP energy -44771.694014 kJ/mol
# GULP energy per Si atom -5596.461752 kJ/mol
# Density = 2.602034 g / cm^3
# Si number density = 26.079695 Si / 1000 Ang^3
#
#
#
# Elastic Constant Matrix: (Units=GPa)
#
#
# Indices 1 2 3 4 5 6 
#
# 1 122.1938 51.5844 21.5621 -9.8134 2.5698 2.0664
# 2 51.5844 122.1364 35.5336 -6.1886 5.4224 7.2355
# 3 21.5621 35.5336 157.0833 -16.8869 0.8566 -5.6968
# 4 -9.8134 -6.1886 -16.8869 49.0382 -6.7413 -8.8935
# 5 2.5698 5.4224 0.8566 -6.7413 31.7149 -9.0887
# 6 2.0664 7.2355 -5.6968 -8.8935 -9.0887 43.5885
#
#
#
# Elastic Compliance Matrix: (Units=1/GPa)
#
#
# Indices 1 2 3 4 5 6 
#
# 1 0.010093 -0.004161 -0.000257 0.001567 0.000400 0.000582
# 2 -0.004161 0.010747 -0.002044 -0.000970 -0.002381 -0.002548
# 3 -0.000257 -0.002044 0.007231 0.002759 0.001376 0.002146
# 4 0.001567 -0.000970 0.002759 0.023707 0.006932 0.006730
# 5 0.000400 -0.002381 0.001376 0.006932 0.036061 0.009490
# 6 0.000582 -0.002548 0.002146 0.006730 0.009490 0.026970
#
#
# Mechanical properties :
#
#
# Convention : Reuss Voigt Hill
#
# Bulk Modulus (GPa) = 66.01554 68.75262 67.38408
# Shear Modulus (GPa) = 37.65598 44.38387 41.01992
#
# Velocity S-wave (km/s) = 3.80397 4.12983 3.97024
# Velocity P-wave (km/s) = 6.68293 7.01145 6.84916
#
# Compressibility (1/GPa) = 0.01514795
#
# Stress axis : x y z
#
# Youngs Moduli (GPa) = 99.07672 93.04862 138.30246
#
# Poissons Ratio (x) = 0.38717 0.03552
# Poissons Ratio (y) = 0.41226 0.28263
# Poissons Ratio (z) = 0.02545 0.19015
#
# Static dielectric constant tensor:
#      x y z
#    x 2.055390 -0.020360 -0.063310 
#    y -0.020360 2.101980 0.046370 
#    z -0.063310 0.046370 2.200140 
# 
# From -- ./inp_files/6950.got.cif
#   From: 2010.05.17/outbox.cif.g08.bks.cpg/sg1_4_cif.got.tgz:6950.got - 2010.05.17 20:27:59.
