data_PCOD9000474
_publ_section_title
;
Structure prediction by ZEFSAII (Michael W. Deem and Ramdas Pophale) SiO2 
 PCOD9000474
Probable space group: P 1
;
_chemical_formula_sum "Si O2"
_cell_formula_units_Z 8
_cell_length_a 10.681421
_cell_length_b 9.710437
_cell_length_c 4.862722
_cell_angle_alpha 88.474305
_cell_angle_beta 81.670732
_cell_angle_gamma 139.354474
_cell_volume 317.689830
_symmetry_space_group_name_H-M "P 1"
_symmetry_group_IT_number 1
_symmetry_cell_setting 'triclinic'
loop_
_space_group_symop_operation_xyz
x,y,z
loop_
_atom_site_type_symbol
_atom_site_label
_atom_site_fract_x
_atom_site_fract_y
_atom_site_fract_z
Si Si1 0.510270 0.460330 0.545370
Si Si2 0.631451 0.166546 0.893603
Si Si3 0.997692 0.652191 0.922919
Si Si4 0.772324 0.732580 0.958173
Si Si5 0.398581 0.056827 0.487491
Si Si6 0.378335 0.633484 0.662955
Si Si7 0.779672 0.031506 0.183693
Si Si8 0.134688 0.515978 0.242779
O O1 0.573778 0.542899 0.209034
O O2 0.356556 0.449722 0.677956
O O3 0.434206 0.241377 0.573809
O O4 0.701672 0.643656 0.674136
O O5 0.814085 0.424553 0.843068
O O6 0.551664 0.094697 0.615859
O O7 0.705055 0.084959 0.993581
O O8 0.322546 0.639388 0.980484
O O9 0.181885 0.830203 0.655378
O O10 0.922606 0.741853 0.015879
O O11 0.052638 0.593388 0.155108
O O12 0.835264 0.939977 0.002486
O O13 0.218572 0.570825 0.517599
O O14 0.459728 0.083214 0.152747
O O15 0.598274 0.842712 0.458664
O O16 0.965908 0.259316 0.261623
#
# Coordination Sequence:
#
# PCOD9000474 Si02
#       8
#     1   1   1   1   1   1   1   1
#     4  11  23  44  69  97 137 177 218 278 330 390
#     4  11  25  45  69  99 136 169 230 276 323 402
#     4  11  25  44  70 100 135 176 222 275 331 400
#     4  11  24  45  68  99 136 176 219 274 334 398
#     4  12  24  43  71  99 131 184 216 275 338 385
#     4  11  24  45  67  98 136 172 224 276 324 399
#     4  10  25  45  70  99 134 179 216 280 337 383
#     4  11  26  43  70 101 131 175 227 272 331 397
#
# _framework density 25.181797
#
# number of rings (size 3 to 8) (size 9 to 14) (size 15 to 20)
#    0.000    1.000    2.500    3.000    1.750   12.000 
#    0.000    0.000    0.000    0.000    0.000    0.000 
#    0.000    0.000    0.000    0.000    0.000    0.000 
#
# Total GULP energy -44873.713749 kJ/mol
# GULP energy per Si atom -5609.214219 kJ/mol
# Density = 2.512448 g / cm^3
# Si number density = 25.181797 Si / 1000 Ang^3
#
#
#
# Elastic Constant Matrix: (Units=GPa)
#
#
# Indices 1 2 3 4 5 6 
#
# 1 125.8331 49.9812 11.0602 8.9479 -20.7680 -40.7232
# 2 49.9812 172.8500 28.5432 1.8044 -14.1126 -8.3940
# 3 11.0602 28.5432 79.6775 11.3230 5.0560 -4.4607
# 4 8.9479 1.8044 11.3230 31.7732 -6.2886 -6.3462
# 5 -20.7680 -14.1126 5.0560 -6.2886 23.2110 8.5527
# 6 -40.7232 -8.3940 -4.4607 -6.3462 8.5527 59.4049
#
#
#
# Elastic Compliance Matrix: (Units=1/GPa)
#
#
# Indices 1 2 3 4 5 6 
#
# 1 0.012537 -0.002552 -0.000847 -0.000245 0.007163 0.007112
# 2 -0.002552 0.007200 -0.002779 0.001767 0.003649 -0.001278
# 3 -0.000847 -0.002779 0.015091 -0.006385 -0.007680 0.000583
# 4 -0.000245 0.001767 -0.006385 0.036344 0.011414 0.001841
# 5 0.007163 0.003649 -0.007680 0.011414 0.057278 -0.002178
# 6 0.007112 -0.001278 0.000583 0.001841 -0.002178 0.022083
#
#
# Mechanical properties :
#
#
# Convention : Reuss Voigt Hill
#
# Bulk Modulus (GPa) = 44.50394 61.94777 53.22586
# Shear Modulus (GPa) = 29.34606 42.12955 35.73781
#
# Velocity S-wave (km/s) = 3.41745 4.09469 3.77130
# Velocity P-wave (km/s) = 5.76918 6.85631 6.33610
#
# Compressibility (1/GPa) = 0.02246992
#
# Stress axis : x y z
#
# Youngs Moduli (GPa) = 79.76555 138.89359 66.26394
#
# Poissons Ratio (x) = 0.35452 0.05615
# Poissons Ratio (y) = 0.20360 0.18415
# Poissons Ratio (z) = 0.06759 0.38600
#
# Static dielectric constant tensor:
#      x y z
#    x 2.014550 -0.041960 -0.026140 
#    y -0.041960 2.009170 0.009510 
#    z -0.026140 0.009510 1.925010 
# 
# From -- ./inp_files/2213.got.cif
#   From: 2010.05.17/outbox.cif.g08.bks.cpg/sg1_2_cif.got.tgz:2213.got - 2010.05.17 20:27:59.
