data_PCOD9000550
_publ_section_title
;
Structure prediction by ZEFSAII (Michael W. Deem and Ramdas Pophale) SiO2 
 PCOD9000550
Probable space group: P 1
;
_chemical_formula_sum "Si O2"
_cell_formula_units_Z 8
_cell_length_a 7.707495
_cell_length_b 8.176379
_cell_length_c 7.037103
_cell_angle_alpha 112.373229
_cell_angle_beta 61.397359
_cell_angle_gamma 78.539119
_cell_volume 317.953618
_symmetry_space_group_name_H-M "P 1"
_symmetry_group_IT_number 1
_symmetry_cell_setting 'triclinic'
loop_
_space_group_symop_operation_xyz
x,y,z
loop_
_atom_site_type_symbol
_atom_site_label
_atom_site_fract_x
_atom_site_fract_y
_atom_site_fract_z
Si Si1 0.389070 0.473170 0.780610
Si Si2 0.459819 0.790342 0.809330
Si Si3 0.865710 0.640839 0.047417
Si Si4 0.363809 0.229458 0.165937
Si Si5 0.947289 0.635354 0.555968
Si Si6 0.113043 0.934602 0.732560
Si Si7 0.695868 0.345113 0.181490
Si Si8 0.456002 0.077118 0.481625
O O1 0.434748 0.648956 0.922104
O O2 0.554902 0.427808 0.486746
O O3 0.454203 0.244412 0.700839
O O4 0.039332 0.796969 0.586533
O O5 0.721076 0.707839 0.590458
O O6 0.280862 0.804405 0.752121
O O7 0.389666 0.020996 0.987751
O O8 0.780784 0.492473 0.113934
O O9 0.688119 0.873696 0.276345
O O10 0.884590 0.622021 0.801306
O O11 0.119742 0.572271 0.949507
O O12 0.547770 0.306353 0.083070
O O13 0.391810 0.185539 0.359318
O O14 0.133093 0.415306 0.308269
O O15 0.259338 0.020170 0.590542
O O16 0.898691 0.124210 0.013453
#
# Coordination Sequence:
#
# PCOD9000550 Si02
#       8
#     1   1   1   1   1   1   1   1
#     4  11  24  43  66 105 133 178 228 276 342 401
#     4  12  26  42  67 105 135 182 225 285 339 400
#     4  12  21  43  74  97 134 183 229 275 339 407
#     4  11  23  44  70 102 135 180 229 279 345 401
#     4  12  23  46  70  96 143 178 225 284 338 408
#     4  12  23  46  73  99 142 180 229 280 345 408
#     4  11  22  44  76  97 137 187 223 280 347 407
#     4  11  22  44  74  99 133 192 222 275 351 408
#
# _framework density 25.160900000000002
#
# number of rings (size 3 to 8) (size 9 to 14) (size 15 to 20)
#    0.000    0.500    7.500    2.250    1.750    0.000 
#    2.250    2.500    0.000    0.000    0.000    0.000 
#    0.000    0.000    0.000    0.000    0.000    0.000 
#
# Total GULP energy -44719.163028 kJ/mol
# GULP energy per Si atom -5589.895378 kJ/mol
# Density = 2.510363 g / cm^3
# Si number density = 25.160900 Si / 1000 Ang^3
#
#
#
# Elastic Constant Matrix: (Units=GPa)
#
#
# Indices 1 2 3 4 5 6 
#
# 1 104.4922 41.3402 63.1621 16.8291 -15.7308 38.6139
# 2 41.3402 136.0561 53.8218 24.8861 -7.4613 49.7441
# 3 63.1621 53.8218 127.9255 54.1584 -37.2460 7.5590
# 4 16.8291 24.8861 54.1584 63.2974 -8.2246 -5.5251
# 5 -15.7308 -7.4613 -37.2460 -8.2246 40.0187 5.0561
# 6 38.6139 49.7441 7.5590 -5.5251 5.0561 67.9377
#
#
#
# Elastic Compliance Matrix: (Units=1/GPa)
#
#
# Indices 1 2 3 4 5 6 
#
# 1 0.018625 0.001917 -0.010351 0.002201 -0.000158 -0.010647
# 2 0.001917 0.012772 -0.004989 -0.002227 -0.000701 -0.010015
# 3 -0.010351 -0.004989 0.025326 -0.014620 0.015010 0.004413
# 4 0.002201 -0.002227 -0.014620 0.027982 -0.008023 0.004879
# 5 -0.000158 -0.000701 0.015010 -0.008023 0.037688 -0.004524
# 6 -0.010647 -0.010015 0.004413 0.004879 -0.004524 0.028346
#
#
# Mechanical properties :
#
#
# Convention : Reuss Voigt Hill
#
# Bulk Modulus (GPa) = 33.47206 76.12468 54.79837
# Shear Modulus (GPa) = 26.66041 48.26075 37.46058
#
# Velocity S-wave (km/s) = 3.25868 4.38435 3.86274
# Velocity P-wave (km/s) = 5.24316 7.48003 6.45916
#
# Compressibility (1/GPa) = 0.02987566
#
# Stress axis : x y z
#
# Youngs Moduli (GPa) = 53.69204 78.29831 39.48499
#
# Poissons Ratio (x) = -0.15011 0.40871
# Poissons Ratio (y) = -0.10293 0.19701
# Poissons Ratio (z) = 0.55577 0.39067
#
# Static dielectric constant tensor:
#      x y z
#    x 2.002350 0.000830 0.076690 
#    y 0.000830 2.141950 -0.047920 
#    z 0.076690 -0.047920 2.067760 
# 
# From -- ./inp_files/4335.got.cif
#   From: 2010.05.17/outbox.cif.g08.bks.cpg/sg1_3_cif.got.tgz:4335.got - 2010.05.17 20:27:59.
