data_PCOD9000842
_publ_section_title
;
Structure prediction by ZEFSAII (Michael W. Deem and Ramdas Pophale) SiO2 
 PCOD9000842
Probable space group: P 1
;
_chemical_formula_sum "Si O2"
_cell_formula_units_Z 8
_cell_length_a 11.823114
_cell_length_b 5.727623
_cell_length_c 5.072112
_cell_angle_alpha 93.289660
_cell_angle_beta 82.706579
_cell_angle_gamma 104.745450
_cell_volume 329.362969
_symmetry_space_group_name_H-M "P 1"
_symmetry_group_IT_number 1
_symmetry_cell_setting 'triclinic'
loop_
_space_group_symop_operation_xyz
x,y,z
loop_
_atom_site_type_symbol
_atom_site_label
_atom_site_fract_x
_atom_site_fract_y
_atom_site_fract_z
Si Si1 0.347430 0.402560 0.801040
Si Si2 0.909425 0.782283 0.281989
Si Si3 0.518031 0.867999 0.860064
Si Si4 0.131603 0.183379 0.130050
Si Si5 0.181989 0.634787 0.542180
Si Si6 0.966163 0.415606 0.871182
Si Si7 0.404164 0.035882 0.390224
Si Si8 0.795563 0.950174 0.812146
O O1 0.261471 0.567918 0.748053
O O2 0.394400 0.290557 0.525670
O O3 0.476152 0.929693 0.587365
O O4 0.259062 0.187296 0.972513
O O5 0.919185 0.527602 0.146546
O O6 0.842536 0.789539 0.573800
O O7 0.837441 0.888477 0.084844
O O8 0.043345 0.949865 0.263669
O O9 0.471051 0.028624 0.098411
O O10 0.452988 0.588575 0.924941
O O11 0.656797 0.909094 0.836106
O O12 0.156795 0.409083 0.336116
O O13 0.052124 0.250253 0.924175
O O14 0.054531 0.630876 0.699718
O O15 0.270245 0.868296 0.408549
O O16 0.860612 0.229592 0.747261
#
# Coordination Sequence:
#
# PCOD9000842 Si02
#       8
#     1   1   1   1   1   1   1   1
#     4  10  23  39  61  92 123 158 199 247 301 360
#     4  11  24  40  66  90 118 163 201 244 307 357
#     4  11  25  43  61  89 123 158 206 253 292 352
#     4  10  20  39  61  90 127 153 195 252 299 358
#     4  10  20  39  61  90 127 153 195 252 299 358
#     4  10  23  39  61  92 123 158 199 247 301 360
#     4  11  24  40  66  90 118 163 201 244 307 357
#     4  11  25  43  61  89 123 158 206 253 292 352
#
# _framework density 24.289313
#
# number of rings (size 3 to 8) (size 9 to 14) (size 15 to 20)
#    0.000    1.500    2.500    1.500    3.500    3.000 
#    0.000    0.000    0.000    0.000    0.000    0.000 
#    0.000    0.000    0.000    0.000    0.000    0.000 
#
# Total GULP energy -44781.023462 kJ/mol
# GULP energy per Si atom -5597.627933 kJ/mol
# Density = 2.423403 g / cm^3
# Si number density = 24.289313 Si / 1000 Ang^3
#
#
#
# Elastic Constant Matrix: (Units=GPa)
#
#
# Indices 1 2 3 4 5 6 
#
# 1 174.4130 46.1157 43.7101 -6.3664 -22.0160 37.8448
# 2 46.1157 69.3893 18.9642 9.7773 -12.5716 10.5882
# 3 43.7101 18.9642 105.1110 14.1970 -18.9529 7.9894
# 4 -6.3664 9.7773 14.1970 47.6738 -13.5191 0.9707
# 5 -22.0160 -12.5716 -18.9529 -13.5191 46.1725 -1.6609
# 6 37.8448 10.5882 7.9894 0.9707 -1.6609 34.9952
#
#
#
# Elastic Compliance Matrix: (Units=1/GPa)
#
#
# Indices 1 2 3 4 5 6 
#
# 1 0.010147 -0.004636 -0.002665 0.004247 0.003405 -0.008919
# 2 -0.004636 0.018501 -0.000613 -0.003815 0.001449 -0.000270
# 3 -0.002665 -0.000613 0.011528 -0.002983 0.002444 0.000634
# 4 0.004247 -0.003815 -0.002983 0.025277 0.007050 -0.003124
# 5 0.003405 0.001449 0.002444 0.007050 0.026613 -0.003611
# 6 -0.008919 -0.000270 0.000634 -0.003124 -0.003611 0.038072
#
#
# Mechanical properties :
#
#
# Convention : Reuss Voigt Hill
#
# Bulk Modulus (GPa) = 41.07142 62.94371 52.00757
# Shear Modulus (GPa) = 32.45015 41.77651 37.11333
#
# Velocity S-wave (km/s) = 3.65908 4.15173 3.91317
# Velocity P-wave (km/s) = 5.89896 6.99664 6.47112
#
# Compressibility (1/GPa) = 0.02434783
#
# Stress axis : x y z
#
# Youngs Moduli (GPa) = 98.54992 54.05063 86.74575
#
# Poissons Ratio (x) = 0.25058 0.23118
# Poissons Ratio (y) = 0.45688 0.05319
# Poissons Ratio (z) = 0.26263 0.03314
#
# Static dielectric constant tensor:
#      x y z
#    x 1.908040 -0.037800 0.052650 
#    y -0.037800 1.999480 -0.083230 
#    z 0.052650 -0.083230 1.984920 
# 
# From -- ./inp_files/2568.got.cif
#   From: 2010.05.17/outbox.cif.g08.bks.cpg/sg1_2_cif.got.tgz:2568.got - 2010.05.17 20:27:59.
