data_PCOD9000101
_publ_section_title
;
Structure prediction by ZEFSAII (Michael W. Deem and Ramdas Pophale) SiO2 
 PCOD9000101
Probable space group: P 1
;
_chemical_formula_sum "Si O2"
_cell_formula_units_Z 8
_cell_length_a 7.240990
_cell_length_b 9.613784
_cell_length_c 7.563206
_cell_angle_alpha 56.730601
_cell_angle_beta 123.450021
_cell_angle_gamma 135.524347
_cell_volume 296.717657
_symmetry_space_group_name_H-M "P 1"
_symmetry_group_IT_number 1
_symmetry_cell_setting 'triclinic'
loop_
_space_group_symop_operation_xyz
x,y,z
loop_
_atom_site_type_symbol
_atom_site_label
_atom_site_fract_x
_atom_site_fract_y
_atom_site_fract_z
Si Si1 0.019310 0.151430 0.260230
Si Si2 0.215478 0.775566 0.781584
Si Si3 0.405885 0.714196 0.248616
Si Si4 0.853180 0.131009 0.547109
Si Si5 0.761494 0.232807 0.789123
Si Si6 0.467204 0.644751 0.723917
Si Si7 0.557568 0.344188 0.173651
Si Si8 0.743600 0.582070 0.429856
O O1 0.270010 0.198615 0.236034
O O2 0.071133 0.193794 0.465526
O O3 0.707558 0.934095 0.246705
O O4 0.927073 0.275336 0.022768
O O5 0.286977 0.652719 0.775783
O O6 0.981364 0.762417 0.553285
O O7 0.482057 0.008008 0.772060
O O8 0.183296 0.711081 0.015160
O O9 0.351702 0.634043 0.474770
O O10 0.486932 0.586267 0.273227
O O11 0.929130 0.241435 0.700098
O O12 0.658301 0.195052 0.316109
O O13 0.724992 0.890931 0.687428
O O14 0.683735 0.388223 0.636102
O O15 0.520589 0.472935 0.915230
O O16 0.784765 0.534762 0.287076
#
# Coordination Sequence:
#
# PCOD9000101 Si02
#       8
#     1   1   1   1   1   1   1   1
#     4  10  22  44  69  97 140 181 228 295 346 413
#     4  10  21  45  66  90 143 177 224 301 343 409
#     4  10  23  42  70  97 134 184 227 287 361 409
#     4   9  22  43  66  98 142 181 229 290 351 414
#     4   9  21  40  67  94 132 182 227 287 350 406
#     4  10  21  44  67  99 137 179 235 288 345 422
#     4  11  23  44  71 106 136 186 241 280 359 428
#     4  11  23  40  66 101 130 184 231 280 353 427
#
# _framework density 26.961658
#
# number of rings (size 3 to 8) (size 9 to 14) (size 15 to 20)
#    0.000    2.000    1.250    0.750    7.000    0.000 
#    9.000    0.000   13.750    0.000    0.000    0.000 
#    0.000    0.000    0.000    0.000    0.000    0.000 
#
# Total GULP energy -44595.935575 kJ/mol
# GULP energy per Si atom -5574.491947 kJ/mol
# Density = 2.690029 g / cm^3
# Si number density = 26.961658 Si / 1000 Ang^3
#
#
#
# Elastic Constant Matrix: (Units=GPa)
#
#
# Indices 1 2 3 4 5 6 
#
# 1 89.2118 24.9464 37.2213 -10.7865 -7.0256 15.8109
# 2 24.9464 108.9501 27.1278 -4.4897 -10.3530 14.9591
# 3 37.2213 27.1278 181.4339 0.4401 -10.7232 25.7931
# 4 -10.7865 -4.4897 0.4401 55.9448 0.5725 2.0919
# 5 -7.0256 -10.3530 -10.7232 0.5725 45.7199 0.0910
# 6 15.8109 14.9591 25.7931 2.0919 0.0910 28.9213
#
#
#
# Elastic Compliance Matrix: (Units=1/GPa)
#
#
# Indices 1 2 3 4 5 6 
#
# 1 0.013796 -0.001766 -0.001747 0.002716 0.001287 -0.005271
# 2 -0.001766 0.010481 -0.000514 0.000636 0.001982 -0.004050
# 3 -0.001747 -0.000514 0.006691 -0.000266 0.001197 -0.004731
# 4 0.002716 0.000636 -0.000266 0.018558 0.000272 -0.002919
# 5 0.001287 0.001982 0.001197 0.000272 0.022802 -0.002888
# 6 -0.005271 -0.004050 -0.004731 -0.002919 -0.002888 0.043992
#
#
# Mechanical properties :
#
#
# Convention : Reuss Voigt Hill
#
# Bulk Modulus (GPa) = 43.64058 62.02075 52.83067
# Shear Modulus (GPa) = 37.87530 45.47055 41.67292
#
# Velocity S-wave (km/s) = 3.75211 4.11114 3.93572
# Velocity P-wave (km/s) = 5.91544 6.75193 6.34748
#
# Compressibility (1/GPa) = 0.02291445
#
# Stress axis : x y z
#
# Youngs Moduli (GPa) = 72.48475 95.40770 149.45761
#
# Poissons Ratio (x) = 0.16848 0.26117
# Poissons Ratio (y) = 0.12800 0.07675
# Poissons Ratio (z) = 0.12666 0.04899
#
# Static dielectric constant tensor:
#      x y z
#    x 2.085000 0.045240 -0.007480 
#    y 0.045240 2.331530 0.007260 
#    z -0.007480 0.007260 2.126280 
# 
# From -- ./inp_files/4814.got.cif
#   From: 2010.05.17/outbox.cif.g08.bks.cpg/sg1_3_cif.got.tgz:4814.got - 2010.05.17 20:27:59.
