data_PCOD9000553
_publ_section_title
;
Structure prediction by ZEFSAII (Michael W. Deem and Ramdas Pophale) SiO2 
 PCOD9000553
Probable space group: P 1
;
_chemical_formula_sum "Si O2"
_cell_formula_units_Z 8
_cell_length_a 6.658807
_cell_length_b 7.621370
_cell_length_c 10.290851
_cell_angle_alpha 45.671496
_cell_angle_beta 87.829829
_cell_angle_gamma 74.327212
_cell_volume 350.961580
_symmetry_space_group_name_H-M "P 1"
_symmetry_group_IT_number 1
_symmetry_cell_setting 'triclinic'
loop_
_space_group_symop_operation_xyz
x,y,z
loop_
_atom_site_type_symbol
_atom_site_label
_atom_site_fract_x
_atom_site_fract_y
_atom_site_fract_z
Si Si1 0.831060 0.882140 0.414260
Si Si2 0.054644 0.028056 0.572352
Si Si3 0.706392 0.433429 0.063872
Si Si4 0.485860 0.125630 0.874880
Si Si5 0.189128 0.413145 0.516096
Si Si6 0.954900 0.764666 0.965230
Si Si7 0.362465 0.672889 0.173007
Si Si8 0.515378 0.670687 0.677686
O O1 0.662129 0.746410 0.530080
O O2 0.891012 0.007779 0.478147
O O3 0.039733 0.662917 0.467475
O O4 0.749923 0.129915 0.192769
O O5 0.293362 0.904636 0.574731
O O6 0.033851 0.854000 0.784423
O O7 0.038328 0.307992 0.484100
O O8 0.524337 0.528591 0.129269
O O9 0.911976 0.495069 0.080083
O O10 0.631824 0.607407 0.847070
O O11 0.318918 0.184865 0.728680
O O12 0.470218 0.407084 0.780640
O O13 0.725651 0.973376 0.900520
O O14 0.418137 0.930939 0.070897
O O15 0.361879 0.491405 0.387964
O O16 0.125657 0.747740 0.080783
#
# Coordination Sequence:
#
# PCOD9000553 Si02
#       8
#     1   1   1   1   1   1   1   1
#     4  12  28  45  70 105 138 181 228 283 340 403
#     4  12  23  47  74  97 138 184 227 282 342 402
#     4  11  25  44  70 102 135 180 230 280 342 404
#     4  11  26  44  69 104 137 183 229 278 343 405
#     4  12  26  47  70 102 142 180 227 282 340 407
#     4  11  22  45  74  96 135 185 224 281 346 399
#     4  11  25  46  69 100 138 179 229 283 339 406
#     4  12  25  46  70 100 141 180 230 285 336 406
#
# _framework density 22.794518
#
# number of rings (size 3 to 8) (size 9 to 14) (size 15 to 20)
#    0.000    0.500    5.000    3.000    3.500    2.000 
#    4.500    0.000    0.000    0.000    0.000    0.000 
#    0.000    0.000    0.000    0.000    0.000    0.000 
#
# Total GULP energy -44801.814042 kJ/mol
# GULP energy per Si atom -5600.226755 kJ/mol
# Density = 2.274264 g / cm^3
# Si number density = 22.794518 Si / 1000 Ang^3
#
#
#
# Elastic Constant Matrix: (Units=GPa)
#
#
# Indices 1 2 3 4 5 6 
#
# 1 76.7379 14.1186 2.8600 -9.0808 -13.3865 3.5529
# 2 14.1186 67.8867 -2.7516 -17.7272 -9.6123 14.5183
# 3 2.8600 -2.7516 62.4449 -14.8924 -22.5397 -4.2917
# 4 -9.0808 -17.7272 -14.8924 30.7142 1.1371 -3.3894
# 5 -13.3865 -9.6123 -22.5397 1.1371 45.0466 -1.9606
# 6 3.5529 14.5183 -4.2917 -3.3894 -1.9606 42.0221
#
#
#
# Elastic Compliance Matrix: (Units=1/GPa)
#
#
# Indices 1 2 3 4 5 6 
#
# 1 0.014574 -0.000999 0.002234 0.004621 0.005117 -0.000047
# 2 -0.000999 0.020922 0.006445 0.014097 0.006817 -0.005030
# 3 0.002234 0.006445 0.025494 0.016447 0.014475 0.002190
# 4 0.004621 0.014097 0.016447 0.049720 0.011398 0.000961
# 5 0.005117 0.006817 0.014475 0.011398 0.032178 0.001111
# 6 -0.000047 -0.005030 0.002190 0.000961 0.001111 0.025892
#
#
# Mechanical properties :
#
#
# Convention : Reuss Voigt Hill
#
# Bulk Modulus (GPa) = 13.09780 26.16925 19.63352
# Shear Modulus (GPa) = 27.95346 36.41275 32.18310
#
# Velocity S-wave (km/s) = 3.50569 4.00113 3.76157
# Velocity P-wave (km/s) = 4.70585 5.73156 5.24384
#
# Compressibility (1/GPa) = 0.07634871
#
# Stress axis : x y z
#
# Youngs Moduli (GPa) = 68.61764 47.79703 39.22535
#
# Poissons Ratio (x) = 0.04775 -0.08764
# Poissons Ratio (y) = 0.06856 -0.25280
# Poissons Ratio (z) = -0.15330 -0.30804
#
# Static dielectric constant tensor:
#      x y z
#    x 1.809640 0.052240 0.014580 
#    y 0.052240 1.851400 0.009020 
#    z 0.014580 0.009020 1.860950 
# 
# From -- ./inp_files/1632.got.cif
#   From: 2010.05.17/outbox.cif.g08.bks.cpg/sg1_1_cif.got.tgz:1632.got - 2010.05.17 20:27:59.
