data_PCOD9000066
_publ_section_title
;
Structure prediction by ZEFSAII (Michael W. Deem and Ramdas Pophale) SiO2 
 PCOD9000066
Probable space group: P 1
;
_chemical_formula_sum "Si O2"
_cell_formula_units_Z 8
_cell_length_a 6.434059
_cell_length_b 13.009756
_cell_length_c 11.074329
_cell_angle_alpha 24.613846
_cell_angle_beta 122.041666
_cell_angle_gamma 122.958954
_cell_volume 322.234962
_symmetry_space_group_name_H-M "P 1"
_symmetry_group_IT_number 1
_symmetry_cell_setting 'triclinic'
loop_
_space_group_symop_operation_xyz
x,y,z
loop_
_atom_site_type_symbol
_atom_site_label
_atom_site_fract_x
_atom_site_fract_y
_atom_site_fract_z
Si Si1 0.244850 0.166200 0.074770
Si Si2 0.393506 0.915424 0.160638
Si Si3 0.939571 0.087213 0.735570
Si Si4 0.171339 0.862121 0.603879
Si Si5 0.370950 0.567557 0.332371
Si Si6 0.935990 0.754016 0.882247
Si Si7 0.449086 0.403885 0.116260
Si Si8 0.748138 0.274551 0.703266
O O1 0.406155 0.366300 0.998832
O O2 0.399381 0.028327 0.175209
O O3 0.112085 0.949799 0.357532
O O4 0.032494 0.294703 0.810633
O O5 0.441875 0.654398 0.398579
O O6 0.101832 0.900106 0.050613
O O7 0.580583 0.106471 0.930533
O O8 0.159794 0.322529 0.533620
O O9 0.744082 0.146255 0.709272
O O10 0.851001 0.969908 0.705609
O O11 0.946146 0.798266 0.695894
O O12 0.332728 0.124758 0.422582
O O13 0.304191 0.619580 0.890854
O O14 0.617757 0.516477 0.397746
O O15 0.219206 0.745862 0.019748
O O16 0.738633 0.506660 0.116275
#
# Coordination Sequence:
#
# PCOD9000066 Si02
#       8
#     1   1   1   1   1   1   1   1
#     4   9  23  44  69 104 145 185 244 299 357 438
#     4   9  20  41  63  99 138 182 234 293 361 426
#     4   9  22  40  63 101 138 183 234 293 362 428
#     4  10  26  46  71 110 143 197 245 291 369 425
#     4  10  23  39  68 105 138 186 236 297 370 430
#     4  11  25  46  73 101 152 188 243 300 363 440
#     4  10  26  46  71 110 144 194 247 295 360 432
#     4  10  21  42  70 100 142 181 239 298 370 423
#
# _framework density 24.826605000000001
#
# number of rings (size 3 to 8) (size 9 to 14) (size 15 to 20)
#    0.750    1.500    0.000    0.000    3.500   13.000 
#    0.000    0.000    0.000    0.000    0.000    0.000 
#    0.000    0.000    0.000    0.000    0.000    0.000 
#
# Total GULP energy -44652.214366 kJ/mol
# GULP energy per Si atom -5581.526796 kJ/mol
# Density = 2.477010 g / cm^3
# Si number density = 24.826605 Si / 1000 Ang^3
#
#
#
# Elastic Constant Matrix: (Units=GPa)
#
#
# Indices 1 2 3 4 5 6 
#
# 1 114.8966 47.9019 34.7210 -9.5163 9.9582 -34.2289
# 2 47.9019 103.9794 21.9003 -25.1839 10.5801 -28.6248
# 3 34.7210 21.9003 79.8241 -22.1763 13.0045 -8.8994
# 4 -9.5163 -25.1839 -22.1763 42.3636 -3.3590 3.5944
# 5 9.9582 10.5801 13.0045 -3.3590 50.7746 -3.5792
# 6 -34.2289 -28.6248 -8.8994 3.5944 -3.5792 55.7015
#
#
#
# Elastic Compliance Matrix: (Units=1/GPa)
#
#
# Indices 1 2 3 4 5 6 
#
# 1 0.013303 -0.004221 -0.004652 -0.002440 -0.000319 0.005400
# 2 -0.004221 0.014648 0.000687 0.007616 -0.001583 0.004450
# 3 -0.004652 0.000687 0.017059 0.008090 -0.003100 -0.000502
# 4 -0.002440 0.007616 0.008090 0.031606 -0.000977 0.001605
# 5 -0.000319 -0.001583 -0.003100 -0.000977 0.020809 -0.000104
# 6 0.005400 0.004450 -0.000502 0.001605 -0.000104 0.023368
#
#
# Mechanical properties :
#
#
# Convention : Reuss Voigt Hill
#
# Bulk Modulus (GPa) = 34.91798 56.41630 45.66714
# Shear Modulus (GPa) = 34.08047 42.71305 38.39676
#
# Velocity S-wave (km/s) = 3.70907 4.15234 3.93695
# Velocity P-wave (km/s) = 5.69545 6.76481 6.25303
#
# Compressibility (1/GPa) = 0.02863854
#
# Stress axis : x y z
#
# Youngs Moduli (GPa) = 75.16996 68.26926 58.61873
#
# Poissons Ratio (x) = 0.28814 0.27271
# Poissons Ratio (y) = 0.31727 -0.04027
# Poissons Ratio (z) = 0.34971 -0.04690
#
# Static dielectric constant tensor:
#      x y z
#    x 1.915540 -0.013160 0.045970 
#    y -0.013160 1.996940 0.035530 
#    z 0.045970 0.035530 2.112180 
# 
# From -- ./inp_files/330.got.cif
#   From: 2010.05.17/outbox.cif.g08.bks.cpg/sg1_1_cif.got.tgz:330.got - 2010.05.17 20:27:59.
