data_PCOD9000018
_publ_section_title
;
Structure prediction by ZEFSAII (Michael W. Deem and Ramdas Pophale) SiO2 
 PCOD9000018
Probable space group: P 1
;
_chemical_formula_sum "Si O2"
_cell_formula_units_Z 8
_cell_length_a 5.276692
_cell_length_b 9.101556
_cell_length_c 10.178805
_cell_angle_alpha 41.748048
_cell_angle_beta 91.340760
_cell_angle_gamma 78.960163
_cell_volume 308.966979
_symmetry_space_group_name_H-M "P 1"
_symmetry_group_IT_number 1
_symmetry_cell_setting 'triclinic'
loop_
_space_group_symop_operation_xyz
x,y,z
loop_
_atom_site_type_symbol
_atom_site_label
_atom_site_fract_x
_atom_site_fract_y
_atom_site_fract_z
Si Si1 0.009600 0.962830 0.771020
Si Si2 0.191690 0.174268 0.291392
Si Si3 0.798013 0.621953 0.108886
Si Si4 0.778077 0.411904 0.780135
Si Si5 0.230501 0.550140 0.836459
Si Si6 0.487527 0.996518 0.666023
Si Si7 0.559024 0.652660 0.368166
Si Si8 0.963488 0.922869 0.246011
O O1 0.119190 0.779941 0.771922
O O2 0.226222 0.093442 0.689053
O O3 0.714913 0.108052 0.628266
O O4 0.978324 0.796665 0.999383
O O5 0.417715 0.037456 0.486316
O O6 0.043333 0.016298 0.322249
O O7 0.978527 0.367516 0.245985
O O8 0.285110 0.328190 0.082833
O O9 0.630831 0.633468 0.228917
O O10 0.619329 0.737006 0.902601
O O11 0.996891 0.530651 0.749612
O O12 0.704400 0.441879 0.607071
O O13 0.500531 0.523530 0.779629
O O14 0.896243 0.145589 0.001548
O O15 0.703751 0.838949 0.298072
O O16 0.241751 0.733854 0.332109
#
# Coordination Sequence:
#
# PCOD9000018 Si02
#       8
#     1   1   1   1   1   1   1   1
#     4   9  21  38  64  94 133 172 215 285 330 392
#     4  10  23  45  73 106 132 182 231 293 346 405
#     4   9  25  48  67 101 139 183 231 282 343 420
#     4  11  24  44  66  99 142 185 223 285 343 413
#     4  10  21  40  66  97 138 170 225 282 340 402
#     4  10  22  40  67  99 135 174 225 286 341 403
#     4  12  27  47  72 100 144 194 223 282 361 410
#     4  11  27  44  71 108 139 176 245 283 340 425
#
# _framework density 25.892731999999999
#
# number of rings (size 3 to 8) (size 9 to 14) (size 15 to 20)
#    0.750    1.000    0.000    3.000    8.750    3.000 
#    2.250    0.000    0.000    0.000    0.000    0.000 
#    0.000    0.000    0.000    0.000    0.000    0.000 
#
# Total GULP energy -44784.918857 kJ/mol
# GULP energy per Si atom -5598.114857 kJ/mol
# Density = 2.583380 g / cm^3
# Si number density = 25.892732 Si / 1000 Ang^3
#
#
#
# Elastic Constant Matrix: (Units=GPa)
#
#
# Indices 1 2 3 4 5 6 
#
# 1 141.7512 24.1874 21.6846 -0.3808 13.6861 -19.4966
# 2 24.1874 94.1643 29.2881 17.9285 14.4157 3.0624
# 3 21.6846 29.2881 148.9841 23.9947 25.4456 7.7335
# 4 -0.3808 17.9285 23.9947 22.1698 -2.0338 -5.8477
# 5 13.6861 14.4157 25.4456 -2.0338 38.5789 2.8280
# 6 -19.4966 3.0624 7.7335 -5.8477 2.8280 38.9147
#
#
#
# Elastic Compliance Matrix: (Units=1/GPa)
#
#
# Indices 1 2 3 4 5 6 
#
# 1 0.008738 -0.002845 -0.001798 0.005866 -0.000975 0.005911
# 2 -0.002845 0.014906 0.001145 -0.015104 -0.005769 -0.004676
# 3 -0.001798 0.001145 0.010497 -0.014208 -0.007118 -0.004694
# 4 0.005866 -0.015104 -0.014208 0.078908 0.015800 0.017661
# 5 -0.000975 -0.005769 -0.007118 0.015800 0.033855 0.001294
# 6 0.005911 -0.004676 -0.004694 0.017661 0.001294 0.032520
#
#
# Mechanical properties :
#
#
# Convention : Reuss Voigt Hill
#
# Bulk Modulus (GPa) = 36.84115 59.46887 48.15501
# Shear Modulus (GPa) = 25.57970 40.58196 33.08083
#
# Velocity S-wave (km/s) = 3.14651 3.96322 3.57825
# Velocity P-wave (km/s) = 5.24023 6.63024 5.97579
#
# Compressibility (1/GPa) = 0.02714356
#
# Stress axis : x y z
#
# Youngs Moduli (GPa) = 114.44171 67.08869 95.26982
#
# Poissons Ratio (x) = 0.19089 0.17126
# Poissons Ratio (y) = 0.32562 -0.10904
# Poissons Ratio (z) = 0.20572 -0.07679
#
# Static dielectric constant tensor:
#      x y z
#    x 2.153450 0.006070 -0.002610 
#    y 0.006070 2.001420 -0.012790 
#    z -0.002610 -0.012790 2.025090 
# 
# From -- ./inp_files/6065.got.cif
#   From: 2010.05.17/outbox.cif.g08.bks.cpg/sg1_4_cif.got.tgz:6065.got - 2010.05.17 20:27:59.
