data_PCOD9000661
_publ_section_title
;
Structure prediction by ZEFSAII (Michael W. Deem and Ramdas Pophale) SiO2 
 PCOD9000661
Probable space group: P 1
;
_chemical_formula_sum "Si O2"
_cell_formula_units_Z 8
_cell_length_a 8.290279
_cell_length_b 10.494210
_cell_length_c 4.774101
_cell_angle_alpha 90.000200
_cell_angle_beta 89.999862
_cell_angle_gamma 127.070329
_cell_volume 331.403351
_symmetry_space_group_name_H-M "P 1"
_symmetry_group_IT_number 1
_symmetry_cell_setting 'triclinic'
loop_
_space_group_symop_operation_xyz
x,y,z
loop_
_atom_site_type_symbol
_atom_site_label
_atom_site_fract_x
_atom_site_fract_y
_atom_site_fract_z
Si Si1 0.981600 0.846250 0.795870
Si Si2 0.490030 0.319932 0.478724
Si Si3 0.988676 0.324017 0.295867
Si Si4 0.718996 0.675611 0.295870
Si Si5 0.352392 0.846808 0.983569
Si Si6 0.348198 0.675045 0.483571
Si Si7 0.711924 0.197836 0.795864
Si Si8 0.210581 0.201930 0.978727
O O1 0.918530 0.802890 0.474849
O O2 0.158854 0.835140 0.886811
O O3 0.782066 0.718974 0.974849
O O4 0.057098 0.023115 0.868464
O O5 0.643507 0.498747 0.368461
O O6 0.597097 0.255760 0.636195
O O7 0.342077 0.309746 0.713728
O O8 0.358535 0.212114 0.213728
O O9 0.147354 0.501790 0.408653
O O10 0.861909 0.213226 0.560556
O O11 0.103517 0.266104 0.136201
O O12 0.838690 0.308621 0.060556
O O13 0.541735 0.686713 0.386813
O O14 0.353435 0.716255 0.806862
O O15 0.553236 0.020063 0.908646
O O16 0.347155 0.805598 0.306861
#
# Coordination Sequence:
#
# PCOD9000661 Si02
#       8
#     1   1   1   1   1   1   1   1
#     4  12  28  48  74 109 143 193 241 293 361 424
#     4  12  26  50  74 102 148 190 244 298 350 424
#     4  12  28  48  74 109 143 193 241 293 361 424
#     4  12  28  48  74 109 143 193 241 293 361 424
#     4  12  28  50  72 106 150 190 236 298 360 428
#     4  12  28  50  72 106 150 190 236 298 360 428
#     4  12  28  48  74 109 143 193 241 293 361 424
#     4  12  26  50  74 102 148 190 244 298 350 424
#
# _framework density 24.139769000000001
#
# number of rings (size 3 to 8) (size 9 to 14) (size 15 to 20)
#    0.000    0.000    2.500    6.000   14.000    0.000 
#    0.000    0.000    0.000    0.000    0.000    0.000 
#    0.000    0.000    0.000    0.000    0.000    0.000 
#
# Total GULP energy -44920.647344 kJ/mol
# GULP energy per Si atom -5615.080918 kJ/mol
# Density = 2.408483 g / cm^3
# Si number density = 24.139769 Si / 1000 Ang^3
#
#
#
# Elastic Constant Matrix: (Units=GPa)
#
#
# Indices 1 2 3 4 5 6 
#
# 1 46.9078 28.7290 8.9851 0.5453 6.2801 5.2809
# 2 28.7290 122.9043 10.0461 2.6683 -1.8229 1.8089
# 3 8.9851 10.0461 97.0444 -3.3170 -1.0223 9.8084
# 4 0.5453 2.6683 -3.3170 12.2998 2.1658 -2.1590
# 5 6.2801 -1.8229 -1.0223 2.1658 51.5172 0.0025
# 6 5.2809 1.8089 9.8084 -2.1590 0.0025 31.9563
#
#
#
# Elastic Compliance Matrix: (Units=1/GPa)
#
#
# Indices 1 2 3 4 5 6 
#
# 1 0.026123 -0.005977 -0.001488 -0.000283 -0.003413 -0.003541
# 2 -0.005977 0.009634 -0.000551 -0.002093 0.001147 0.000470
# 3 -0.001488 -0.000551 0.010882 0.002565 0.000270 -0.002890
# 4 -0.000283 -0.002093 0.002565 0.083967 -0.003519 0.005051
# 5 -0.003413 0.001147 0.000270 -0.003519 0.020021 0.000177
# 6 -0.003541 0.000470 -0.002890 0.005051 0.000177 0.033079
#
#
# Mechanical properties :
#
#
# Convention : Reuss Voigt Hill
#
# Bulk Modulus (GPa) = 32.67143 40.26411 36.46777
# Shear Modulus (GPa) = 23.81634 33.76108 28.78871
#
# Velocity S-wave (km/s) = 3.14443 3.74380 3.45713
# Velocity P-wave (km/s) = 5.17174 5.95011 5.57453
#
# Compressibility (1/GPa) = 0.03060778
#
# Stress axis : x y z
#
# Youngs Moduli (GPa) = 38.28056 103.79796 91.89545
#
# Poissons Ratio (x) = 0.62040 0.13671
# Poissons Ratio (y) = 0.22880 0.05063
# Poissons Ratio (z) = 0.05695 0.05718
#
# Static dielectric constant tensor:
#      x y z
#    x 1.973320 0.017960 -0.010340 
#    y 0.017960 1.856860 -0.001540 
#    z -0.010340 -0.001540 1.854590 
# 
# From -- ./inp_files/1715.got.cif
#   From: 2010.05.17/outbox.cif.g08.bks.cpg/sg1_1_cif.got.tgz:1715.got - 2010.05.17 20:27:59.
