data_PCOD9000134
_publ_section_title
;
Structure prediction by ZEFSAII (Michael W. Deem and Ramdas Pophale) SiO2 
 PCOD9000134
Probable space group: P 1
;
_chemical_formula_sum "Si O2"
_cell_formula_units_Z 8
_cell_length_a 9.197221
_cell_length_b 8.873301
_cell_length_c 5.317800
_cell_angle_alpha 52.164307
_cell_angle_beta 75.777366
_cell_angle_gamma 88.058596
_cell_volume 328.351682
_symmetry_space_group_name_H-M "P 1"
_symmetry_group_IT_number 1
_symmetry_cell_setting 'triclinic'
loop_
_space_group_symop_operation_xyz
x,y,z
loop_
_atom_site_type_symbol
_atom_site_label
_atom_site_fract_x
_atom_site_fract_y
_atom_site_fract_z
Si Si1 0.924550 0.877670 0.000000
Si Si2 0.456338 0.684424 0.872499
Si Si3 0.232339 0.308653 0.319731
Si Si4 0.781107 0.788265 0.651966
Si Si5 0.770967 0.181719 0.010228
Si Si6 0.226463 0.838789 0.178061
Si Si7 0.073942 0.416754 0.792805
Si Si8 0.434515 0.066383 0.232746
O O1 0.895749 0.788132 0.831877
O O2 0.854116 0.075141 0.863708
O O3 0.836204 0.748835 0.390351
O O4 0.097969 0.899653 0.987185
O O5 0.354786 0.496227 0.010679
O O6 0.623095 0.659023 0.913034
O O7 0.475078 0.853939 0.486461
O O8 0.361981 0.762152 0.054290
O O9 0.113633 0.307107 0.141569
O O10 0.158372 0.346549 0.580316
O O11 0.341522 0.146797 0.414489
O O12 0.756965 0.014106 0.403384
O O13 0.894412 0.356595 0.875187
O O14 0.598174 0.198795 0.989884
O O15 0.138194 0.645857 0.552147
O O16 0.305952 0.017168 0.126156
#
# Coordination Sequence:
#
# PCOD9000134 Si02
#       8
#     1   1   1   1   1   1   1   1
#     4  10  22  38  64  96 125 175 216 264 326 391
#     4  10  23  44  66  98 137 169 225 272 325 395
#     4  11  26  43  69  97 135 173 221 273 327 388
#     4   9  22  39  65  91 133 170 212 273 322 382
#     4   9  23  41  65  95 135 165 223 268 326 392
#     4  11  24  40  71  96 134 175 223 269 333 387
#     4  11  25  45  63 100 137 170 220 278 320 394
#     4  11  23  44  69  99 128 183 214 273 333 391
#
# _framework density 24.364124
#
# number of rings (size 3 to 8) (size 9 to 14) (size 15 to 20)
#    0.750    1.000    1.250    1.500    7.000    1.000 
#    0.000    0.000    0.000    0.000    0.000    0.000 
#    0.000    0.000    0.000    0.000    0.000    0.000 
#
# Total GULP energy -44644.327209 kJ/mol
# GULP energy per Si atom -5580.540901 kJ/mol
# Density = 2.430867 g / cm^3
# Si number density = 24.364124 Si / 1000 Ang^3
#
#
#
# Elastic Constant Matrix: (Units=GPa)
#
#
# Indices 1 2 3 4 5 6 
#
# 1 126.6996 54.4137 57.6983 0.5062 -26.8006 27.5239
# 2 54.4137 65.5671 25.8687 5.9739 -7.0063 18.6151
# 3 57.6983 25.8687 64.1030 7.5586 -17.9757 15.7919
# 4 0.5062 5.9739 7.5586 38.9555 10.7761 -5.0231
# 5 -26.8006 -7.0063 -17.9757 10.7761 47.6026 -2.0613
# 6 27.5239 18.6151 15.7919 -5.0231 -2.0613 40.8466
#
#
#
# Elastic Compliance Matrix: (Units=1/GPa)
#
#
# Indices 1 2 3 4 5 6 
#
# 1 0.018955 -0.010052 -0.011119 0.001779 0.004441 -0.003450
# 2 -0.010052 0.025259 0.000400 -0.004229 -0.001070 -0.005467
# 3 -0.011119 0.000400 0.029376 -0.008022 0.006504 -0.004705
# 4 0.001779 -0.004229 -0.008022 0.031395 -0.009445 0.007214
# 5 0.004441 -0.001070 0.006504 -0.009445 0.027737 -0.004781
# 6 -0.003450 -0.005467 -0.004705 0.007214 -0.004781 0.031763
#
#
# Mechanical properties :
#
#
# Convention : Reuss Voigt Hill
#
# Bulk Modulus (GPa) = 31.20427 59.14790 45.17609
# Shear Modulus (GPa) = 23.07226 33.37354 28.22290
#
# Velocity S-wave (km/s) = 3.08064 3.70507 3.40719
# Velocity P-wave (km/s) = 5.04867 6.52938 5.83617
#
# Compressibility (1/GPa) = 0.03204690
#
# Stress axis : x y z
#
# Youngs Moduli (GPa) = 52.75606 39.59018 34.04163
#
# Poissons Ratio (x) = 0.39795 0.37852
# Poissons Ratio (y) = 0.53029 -0.01361
# Poissons Ratio (z) = 0.58661 -0.01583
#
# Static dielectric constant tensor:
#      x y z
#    x 1.968400 -0.000300 0.035040 
#    y -0.000300 1.967340 -0.057730 
#    z 0.035040 -0.057730 1.981770 
# 
# From -- ./inp_files/1283.got.cif
#   From: 2010.05.17/outbox.cif.g08.bks.cpg/sg1_1_cif.got.tgz:1283.got - 2010.05.17 20:27:59.
