data_PCOD9000874
_publ_section_title
;
Structure prediction by ZEFSAII (Michael W. Deem and Ramdas Pophale) SiO2 
 PCOD9000874
Probable space group: P 1
;
_chemical_formula_sum "Si O2"
_cell_formula_units_Z 8
_cell_length_a 9.904712
_cell_length_b 7.638249
_cell_length_c 7.647485
_cell_angle_alpha 95.351586
_cell_angle_beta 63.576635
_cell_angle_gamma 139.410360
_cell_volume 305.952161
_symmetry_space_group_name_H-M "P 1"
_symmetry_group_IT_number 1
_symmetry_cell_setting 'triclinic'
loop_
_space_group_symop_operation_xyz
x,y,z
loop_
_atom_site_type_symbol
_atom_site_label
_atom_site_fract_x
_atom_site_fract_y
_atom_site_fract_z
Si Si1 0.294610 0.480010 0.234300
Si Si2 0.844061 0.091686 0.855941
Si Si3 0.054349 0.493207 0.099754
Si Si4 0.600677 0.959393 0.656976
Si Si5 0.351415 0.362273 0.661730
Si Si6 0.363529 0.873515 0.467167
Si Si7 0.467406 0.292880 0.238049
Si Si8 0.035296 0.780018 0.927868
O O1 0.329855 0.644115 0.394428
O O2 0.272836 0.252703 0.265810
O O3 0.084966 0.379533 0.225876
O O4 0.569973 0.748289 0.008055
O O5 0.816626 0.170030 0.697003
O O6 0.082438 0.185930 0.729516
O O7 0.893126 0.254744 0.013864
O O8 0.994154 0.642218 0.123801
O O9 0.346187 0.779571 0.887455
O O10 0.536626 0.695382 0.631197
O O11 0.599264 0.070361 0.488303
O O12 0.484306 0.377270 0.435896
O O13 0.242984 0.130948 0.852079
O O14 0.150771 0.765711 0.703157
O O15 0.387784 0.016660 0.293387
O O16 0.748821 0.564456 0.020520
#
# Coordination Sequence:
#
# PCOD9000874 Si02
#       8
#     1   1   1   1   1   1   1   1
#     4  11  21  43  69  98 139 178 225 278 341 410
#     4  10  20  41  69  96 132 183 222 278 341 395
#     4   9  21  40  67  97 135 180 224 277 342 404
#     4   9  19  40  68  99 132 178 225 276 342 398
#     4  10  20  40  67  97 137 175 227 279 331 407
#     4  10  22  42  68 101 139 177 228 286 335 410
#     4  11  22  41  69 105 139 177 230 279 338 413
#     4  10  21  43  67  97 145 176 225 285 338 401
#
# _framework density 26.147879
#
# number of rings (size 3 to 8) (size 9 to 14) (size 15 to 20)
#    0.000    2.000    2.500    0.750    0.000    0.000 
#   11.250    6.250    0.000    0.000    0.000    0.000 
#    0.000    0.000    0.000    0.000    0.000    0.000 
#
# Total GULP energy -44637.686052 kJ/mol
# GULP energy per Si atom -5579.710756 kJ/mol
# Density = 2.608837 g / cm^3
# Si number density = 26.147879 Si / 1000 Ang^3
#
#
#
# Elastic Constant Matrix: (Units=GPa)
#
#
# Indices 1 2 3 4 5 6 
#
# 1 169.8863 44.8050 33.8492 6.9610 34.3520 -9.2014
# 2 44.8050 64.8284 22.0775 -4.6157 21.7147 -2.2563
# 3 33.8492 22.0775 91.3592 -0.3891 18.7927 -7.5621
# 4 6.9610 -4.6157 -0.3891 33.9049 -0.2918 12.7162
# 5 34.3520 21.7147 18.7927 -0.2918 62.1969 -2.1060
# 6 -9.2014 -2.2563 -7.5621 12.7162 -2.1060 41.1663
#
#
#
# Elastic Compliance Matrix: (Units=1/GPa)
#
#
# Indices 1 2 3 4 5 6 
#
# 1 0.008051 -0.004468 -0.001232 -0.003108 -0.002456 0.002163
# 2 -0.004468 0.021069 -0.002732 0.004442 -0.004107 -0.001928
# 3 -0.001232 -0.002732 0.012664 -0.000751 -0.002127 0.002024
# 4 -0.003108 0.004442 -0.000751 0.035003 0.000171 -0.011393
# 5 -0.002456 -0.004107 -0.002127 0.000171 0.019504 -0.000220
# 6 0.002163 -0.001928 0.002024 -0.011393 -0.000220 0.028549
#
#
# Mechanical properties :
#
#
# Convention : Reuss Voigt Hill
#
# Bulk Modulus (GPa) = 40.12887 58.61524 49.37206
# Shear Modulus (GPa) = 33.33072 42.47643 37.90357
#
# Velocity S-wave (km/s) = 3.57417 4.03484 3.81147
# Velocity P-wave (km/s) = 5.69325 6.64621 6.18810
#
# Compressibility (1/GPa) = 0.02491972
#
# Stress axis : x y z
#
# Youngs Moduli (GPa) = 124.20321 47.46412 78.96104
#
# Poissons Ratio (x) = 0.21208 0.09731
# Poissons Ratio (y) = 0.55497 0.21570
# Poissons Ratio (z) = 0.15306 0.12966
#
# Static dielectric constant tensor:
#      x y z
#    x 2.158080 -0.053780 0.100460 
#    y -0.053780 2.062480 -0.079100 
#    z 0.100460 -0.079100 2.208450 
# 
# From -- ./inp_files/3860.got.cif
#   From: 2010.05.17/outbox.cif.g08.bks.cpg/sg1_2_cif.got.tgz:3860.got - 2010.05.17 20:27:59.
