data_PCOD9000871
_publ_section_title
;
Structure prediction by ZEFSAII (Michael W. Deem and Ramdas Pophale) SiO2 
 PCOD9000871
Probable space group: P 1
;
_chemical_formula_sum "Si O2"
_cell_formula_units_Z 8
_cell_length_a 14.267766
_cell_length_b 11.261836
_cell_length_c 8.065177
_cell_angle_alpha 37.094029
_cell_angle_beta 150.455720
_cell_angle_gamma 150.106345
_cell_volume 313.469169
_symmetry_space_group_name_H-M "P 1"
_symmetry_group_IT_number 1
_symmetry_cell_setting 'triclinic'
loop_
_space_group_symop_operation_xyz
x,y,z
loop_
_atom_site_type_symbol
_atom_site_label
_atom_site_fract_x
_atom_site_fract_y
_atom_site_fract_z
Si Si1 0.937090 0.133480 0.188640
Si Si2 0.574032 0.268313 0.216746
Si Si3 0.426429 0.400951 0.505898
Si Si4 0.746216 0.052472 0.526122
Si Si5 0.554948 0.662634 0.918362
Si Si6 0.556151 0.117848 0.819953
Si Si7 0.244437 0.765769 0.469704
Si Si8 0.907493 0.868786 0.752464
O O1 0.165714 0.319911 0.226832
O O2 0.011999 0.050387 0.557731
O O3 0.775153 0.211457 0.926861
O O4 0.766501 0.885519 0.099958
O O5 0.781364 0.247888 0.495447
O O6 0.397242 0.011352 0.319226
O O7 0.479211 0.306320 0.859105
O O8 0.604296 0.469027 0.163178
O O9 0.467391 0.282520 0.543647
O O10 0.632666 0.683104 0.497664
O O11 0.560209 0.790523 0.613277
O O12 0.944399 0.022617 0.801822
O O13 0.648220 0.089072 0.167475
O O14 0.318246 0.592066 0.722811
O O15 0.339119 0.869375 0.682593
O O16 0.993599 0.700619 0.110706
#
# Coordination Sequence:
#
# PCOD9000871 Si02
#       8
#     1   1   1   1   1   1   1   1
#     4  10  23  43  64  97 135 173 218 282 321 398
#     4  10  20  40  66  92 129 173 217 270 328 389
#     4  11  22  39  67  95 130 175 219 264 332 395
#     4   9  20  40  64  93 131 168 218 274 315 401
#     4  10  21  41  70  93 131 176 220 267 343 387
#     4   9  22  41  65  94 133 171 221 272 328 389
#     4  10  22  41  66  97 134 169 218 284 320 398
#     4  11  22  41  68  95 135 175 219 271 339 389
#
# _framework density 25.520849999999999
#
# number of rings (size 3 to 8) (size 9 to 14) (size 15 to 20)
#    0.000    2.000    2.500    0.000    3.500    1.000 
#    2.250    0.000   27.500    0.000    0.000    0.000 
#    0.000    0.000    0.000    0.000    0.000    0.000 
#
# Total GULP energy -44685.391985 kJ/mol
# GULP energy per Si atom -5585.673998 kJ/mol
# Density = 2.546276 g / cm^3
# Si number density = 25.520850 Si / 1000 Ang^3
#
#
#
# Elastic Constant Matrix: (Units=GPa)
#
#
# Indices 1 2 3 4 5 6 
#
# 1 165.2764 66.3631 41.0448 0.3452 34.9246 -30.1487
# 2 66.3631 94.5323 23.4674 -13.3728 34.2256 -7.1380
# 3 41.0448 23.4674 110.7814 3.4012 25.9619 -9.3932
# 4 0.3452 -13.3728 3.4012 33.7218 0.5279 10.7542
# 5 34.9246 34.2256 25.9619 0.5279 41.1968 -6.4045
# 6 -30.1487 -7.1380 -9.3932 10.7542 -6.4045 42.1518
#
#
#
# Elastic Compliance Matrix: (Units=1/GPa)
#
#
# Indices 1 2 3 4 5 6 
#
# 1 0.010808 -0.006912 -0.001462 -0.005018 -0.001297 0.007317
# 2 -0.006912 0.021055 0.000292 0.010488 -0.012874 -0.005946
# 3 -0.001462 0.000292 0.010967 -0.001162 -0.005765 0.000868
# 4 -0.005018 0.010488 -0.001162 0.038144 -0.006198 -0.012745
# 5 -0.001297 -0.012874 -0.005765 -0.006198 0.040296 0.003311
# 6 0.007317 -0.005946 0.000868 -0.012745 0.003311 0.031899
#
#
# Mechanical properties :
#
#
# Convention : Reuss Voigt Hill
#
# Bulk Modulus (GPa) = 37.50202 70.26008 53.88105
# Shear Modulus (GPa) = 28.05495 39.39508 33.72501
#
# Velocity S-wave (km/s) = 3.31916 3.93318 3.63915
# Velocity P-wave (km/s) = 5.42362 6.94383 6.23027
#
# Compressibility (1/GPa) = 0.02666523
#
# Stress axis : x y z
#
# Youngs Moduli (GPa) = 92.52087 47.49560 91.18438
#
# Poissons Ratio (x) = 0.32831 0.13329
# Poissons Ratio (y) = 0.63955 -0.02663
# Poissons Ratio (z) = 0.13525 -0.01387
#
# Static dielectric constant tensor:
#      x y z
#    x 2.117290 0.003760 0.044200 
#    y 0.003760 1.994830 0.018380 
#    z 0.044200 0.018380 2.041680 
# 
# From -- ./inp_files/3778.got.cif
#   From: 2010.05.17/outbox.cif.g08.bks.cpg/sg1_2_cif.got.tgz:3778.got - 2010.05.17 20:27:59.
