data_PCOD9000355
_publ_section_title
;
Structure prediction by ZEFSAII (Michael W. Deem and Ramdas Pophale) SiO2 
 PCOD9000355
Probable space group: P 1
;
_chemical_formula_sum "Si O2"
_cell_formula_units_Z 8
_cell_length_a 5.073706
_cell_length_b 7.634652
_cell_length_c 9.714964
_cell_angle_alpha 74.840550
_cell_angle_beta 80.545474
_cell_angle_gamma 111.219678
_cell_volume 324.274905
_symmetry_space_group_name_H-M "P 1"
_symmetry_group_IT_number 1
_symmetry_cell_setting 'triclinic'
loop_
_space_group_symop_operation_xyz
x,y,z
loop_
_atom_site_type_symbol
_atom_site_label
_atom_site_fract_x
_atom_site_fract_y
_atom_site_fract_z
Si Si1 0.095910 0.200160 0.275770
Si Si2 0.627457 0.476221 0.355862
Si Si3 0.786258 0.173020 0.571726
Si Si4 0.875646 0.879845 0.117046
Si Si5 0.344030 0.603670 0.037647
Si Si6 0.737262 0.594711 0.775641
Si Si7 0.233531 0.482150 0.619065
Si Si8 0.184532 0.905804 0.820938
O O1 0.418153 0.301673 0.303945
O O2 0.104260 0.405974 0.170360
O O3 0.874983 0.096139 0.441930
O O4 0.986558 0.040360 0.196034
O O5 0.757552 0.371942 0.474957
O O6 0.413304 0.554504 0.444156
O O7 0.485245 0.039481 0.696236
O O8 0.048124 0.249774 0.644065
O O9 0.095423 0.982776 0.950629
O O10 0.552706 0.778493 0.089499
O O11 0.866508 0.674068 0.222992
O O12 0.558467 0.524649 0.950405
O O13 0.214629 0.707584 0.918001
O O14 0.484967 0.537474 0.697722
O O15 0.985338 0.538167 0.697642
O O16 0.922514 0.827725 0.748947
#
# Coordination Sequence:
#
# PCOD9000355 Si02
#       8
#     1   1   1   1   1   1   1   1
#     4  10  24  43  70 101 144 191 239 296 363 426
#     4  10  23  45  68 103 144 188 242 297 353 435
#     4  11  25  44  71 107 146 186 244 298 357 436
#     4  10  24  43  70 101 144 191 239 296 363 426
#     4  10  23  45  68 103 144 188 242 297 353 435
#     4  11  23  43  72 105 142 190 236 295 363 424
#     4  11  23  43  72 105 142 190 236 295 363 424
#     4  11  25  44  71 107 146 186 244 298 357 436
#
# _framework density 24.670425999999999
#
# number of rings (size 3 to 8) (size 9 to 14) (size 15 to 20)
#    0.000    1.500    2.500    0.750    3.500    7.000 
#    0.000    0.000    0.000    0.000    0.000    0.000 
#    0.000    0.000    0.000    0.000    0.000    0.000 
#
# Total GULP energy -44636.270417 kJ/mol
# GULP energy per Si atom -5579.533802 kJ/mol
# Density = 2.461428 g / cm^3
# Si number density = 24.670426 Si / 1000 Ang^3
#
#
#
# Elastic Constant Matrix: (Units=GPa)
#
#
# Indices 1 2 3 4 5 6 
#
# 1 107.1720 38.0153 42.8792 16.8951 -0.0658 28.1233
# 2 38.0153 138.3039 86.7641 27.2996 9.8583 38.3226
# 3 42.8792 86.7641 188.2123 23.1770 -13.1929 38.6524
# 4 16.8951 27.2996 23.1770 72.6622 1.7227 6.8076
# 5 -0.0658 9.8583 -13.1929 1.7227 37.6067 2.0833
# 6 28.1233 38.3226 38.6524 6.8076 2.0833 41.2834
#
#
#
# Elastic Compliance Matrix: (Units=1/GPa)
#
#
# Indices 1 2 3 4 5 6 
#
# 1 0.011845 -0.000633 -0.000864 -0.001647 0.000314 -0.006417
# 2 -0.000633 0.012841 -0.004388 -0.002542 -0.004417 -0.006738
# 3 -0.000864 -0.004388 0.008656 -0.000683 0.004414 -0.003552
# 4 -0.001647 -0.002542 -0.000683 0.015173 -0.000362 0.001637
# 5 0.000314 -0.004417 0.004414 -0.000362 0.029407 -0.001671
# 6 -0.006417 -0.006738 -0.003552 0.001637 -0.001671 0.037989
#
#
# Mechanical properties :
#
#
# Convention : Reuss Voigt Hill
#
# Bulk Modulus (GPa) = 46.35858 85.44506 65.90182
# Shear Modulus (GPa) = 37.07228 48.04576 42.55902
#
# Velocity S-wave (km/s) = 3.88067 4.41784 4.15794
# Velocity P-wave (km/s) = 6.23791 7.79313 7.05848
#
# Compressibility (1/GPa) = 0.02157098
#
# Stress axis : x y z
#
# Youngs Moduli (GPa) = 84.42625 77.87582 115.52781
#
# Poissons Ratio (x) = 0.04930 0.09983
# Poissons Ratio (y) = 0.05344 0.50696
# Poissons Ratio (z) = 0.07295 0.34173
#
# Static dielectric constant tensor:
#      x y z
#    x 2.178310 0.080330 -0.109430 
#    y 0.080330 2.281720 -0.128310 
#    z -0.109430 -0.128310 2.123910 
# 
# From -- ./inp_files/5929.got.cif
#   From: 2010.05.17/outbox.cif.g08.bks.cpg/sg1_3_cif.got.tgz:5929.got - 2010.05.17 20:27:59.
