data_PCOD9000339
_publ_section_title
;
Structure prediction by ZEFSAII (Michael W. Deem and Ramdas Pophale) SiO2 
 PCOD9000339
Probable space group: P 1
;
_chemical_formula_sum "Si O2"
_cell_formula_units_Z 8
_cell_length_a 8.682251
_cell_length_b 5.260209
_cell_length_c 9.321278
_cell_angle_alpha 100.198210
_cell_angle_beta 73.956549
_cell_angle_gamma 59.228886
_cell_volume 324.337649
_symmetry_space_group_name_H-M "P 1"
_symmetry_group_IT_number 1
_symmetry_cell_setting 'triclinic'
loop_
_space_group_symop_operation_xyz
x,y,z
loop_
_atom_site_type_symbol
_atom_site_label
_atom_site_fract_x
_atom_site_fract_y
_atom_site_fract_z
Si Si1 0.368130 0.357900 0.890440
Si Si2 0.679180 0.721912 0.861011
Si Si3 0.272882 0.285479 0.430049
Si Si4 0.619330 0.410927 0.608737
Si Si5 0.960915 0.872286 0.915886
Si Si6 0.655437 0.219861 0.283330
Si Si7 0.427318 0.737019 0.150269
Si Si8 0.191498 0.918644 0.632163
O O1 0.537453 0.265701 0.719828
O O2 0.163209 0.537855 0.878207
O O3 0.453457 0.025941 0.910882
O O4 0.354803 0.592820 0.039696
O O5 0.736313 0.483534 0.693047
O O6 0.817685 0.832806 0.853640
O O7 0.633741 0.638070 0.016820
O O8 0.512216 0.118531 0.358520
O O9 0.175994 0.658908 0.522897
O O10 0.274146 0.113136 0.266682
O O11 0.188853 0.170835 0.558901
O O12 0.735150 0.241693 0.417235
O O13 0.410334 0.716031 0.628859
O O14 0.036200 0.037958 0.814954
O O15 0.835913 0.023827 0.108203
O O16 0.496945 0.537970 0.261412
#
# Coordination Sequence:
#
# PCOD9000339 Si02
#       8
#     1   1   1   1   1   1   1   1
#     4  10  23  44  67 101 150 192 238 295 371 433
#     4  11  23  44  73 104 147 191 244 292 373 431
#     4  11  20  42  72 103 142 196 235 288 368 429
#     4   9  22  40  70 101 138 202 228 294 366 437
#     4  11  24  45  70 111 141 192 243 308 352 434
#     4  11  22  43  76 107 144 187 249 299 363 424
#     4  11  20  42  74 103 140 200 235 297 361 436
#     4  10  24  40  70 104 146 188 238 293 362 430
#
# _framework density 24.665652000000001
#
# number of rings (size 3 to 8) (size 9 to 14) (size 15 to 20)
#    0.000    1.500    5.000    0.000    5.250    1.000 
#    6.750    0.000    0.000    0.000    0.000    0.000 
#    0.000    0.000    0.000    0.000    0.000    0.000 
#
# Total GULP energy -44675.282070 kJ/mol
# GULP energy per Si atom -5584.410259 kJ/mol
# Density = 2.460951 g / cm^3
# Si number density = 24.665652 Si / 1000 Ang^3
#
#
#
# Elastic Constant Matrix: (Units=GPa)
#
#
# Indices 1 2 3 4 5 6 
#
# 1 64.2864 26.2727 53.2239 -9.3953 -5.2688 12.9501
# 2 26.2727 72.9502 44.6121 -9.7294 -6.5371 13.9390
# 3 53.2239 44.6121 224.9540 -1.2311 -2.1300 23.5039
# 4 -9.3953 -9.7294 -1.2311 40.7906 4.8289 -3.4126
# 5 -5.2688 -6.5371 -2.1300 4.8289 47.2376 -0.7422
# 6 12.9501 13.9390 23.5039 -3.4126 -0.7422 35.4605
#
#
#
# Elastic Compliance Matrix: (Units=1/GPa)
#
#
# Indices 1 2 3 4 5 6 
#
# 1 0.021837 -0.004238 -0.003947 0.003471 0.001264 -0.003332
# 2 -0.004238 0.017727 -0.002092 0.002692 0.001552 -0.003742
# 3 -0.003947 -0.002092 0.005975 -0.001340 -0.000352 -0.001833
# 4 0.003471 0.002692 -0.001340 0.026237 -0.001966 0.001046
# 5 0.001264 0.001552 -0.000352 -0.001966 0.021701 -0.000573
# 6 -0.003332 -0.003742 -0.001833 0.001046 -0.000573 0.032192
#
#
# Mechanical properties :
#
#
# Convention : Reuss Voigt Hill
#
# Bulk Modulus (GPa) = 40.02467 67.82312 53.92389
# Shear Modulus (GPa) = 32.35142 40.56987 36.46064
#
# Velocity S-wave (km/s) = 3.62553 4.06000 3.84890
# Velocity P-wave (km/s) = 5.81275 7.03810 6.45457
#
# Compressibility (1/GPa) = 0.02498459
#
# Stress axis : x y z
#
# Youngs Moduli (GPa) = 45.79289 56.41107 167.36315
#
# Poissons Ratio (x) = 0.23906 0.66061
# Poissons Ratio (y) = 0.19406 0.35020
# Poissons Ratio (z) = 0.18075 0.11804
#
# Static dielectric constant tensor:
#      x y z
#    x 1.922120 0.034170 0.027160 
#    y 0.034170 2.067960 0.089650 
#    z 0.027160 0.089650 2.006120 
# 
# From -- ./inp_files/2422.got.cif
#   From: 2010.05.17/outbox.cif.g08.bks.cpg/sg1_2_cif.got.tgz:2422.got - 2010.05.17 20:27:59.
