data_PCOD9000415
_publ_section_title
;
Structure prediction by ZEFSAII (Michael W. Deem and Ramdas Pophale) SiO2 
 PCOD9000415
Probable space group: P 1
;
_chemical_formula_sum "Si O2"
_cell_formula_units_Z 8
_cell_length_a 10.234521
_cell_length_b 6.436829
_cell_length_c 8.150078
_cell_angle_alpha 110.248324
_cell_angle_beta 63.391967
_cell_angle_gamma 65.351555
_cell_volume 329.401505
_symmetry_space_group_name_H-M "P 1"
_symmetry_group_IT_number 1
_symmetry_cell_setting 'triclinic'
loop_
_space_group_symop_operation_xyz
x,y,z
loop_
_atom_site_type_symbol
_atom_site_label
_atom_site_fract_x
_atom_site_fract_y
_atom_site_fract_z
Si Si1 0.281040 0.520780 0.237820
Si Si2 0.489125 0.927765 0.745615
Si Si3 0.720137 0.398679 0.692791
Si Si4 0.166454 0.383889 0.805761
Si Si5 0.862799 0.464525 0.216604
Si Si6 0.974418 0.585523 0.644357
Si Si7 0.664561 0.287574 0.066212
Si Si8 0.078363 0.923101 0.169445
O O1 0.433295 0.462146 0.268670
O O2 0.088166 0.593662 0.435844
O O3 0.408392 0.208175 0.980372
O O4 0.209750 0.781508 0.221404
O O5 0.528168 0.675961 0.771584
O O6 0.705574 0.751754 0.497491
O O7 0.341941 0.072784 0.713498
O O8 0.858273 0.476627 0.654661
O O9 0.855583 0.105191 0.418624
O O10 0.679729 0.352812 0.884878
O O11 0.962582 0.504393 0.032033
O O12 0.167023 0.639648 0.927707
O O13 0.149140 0.368420 0.619550
O O14 0.745088 0.386988 0.173000
O O15 0.038659 0.179701 0.152761
O O16 0.811032 0.926579 0.898391
#
# Coordination Sequence:
#
# PCOD9000415 Si02
#       8
#     1   1   1   1   1   1   1   1
#     4  11  26  44  73 103 142 184 230 288 348 406
#     4  10  26  43  66 107 133 179 228 291 338 407
#     4  11  24  44  73  99 141 184 232 281 344 414
#     4  11  25  46  71  99 144 183 225 288 350 408
#     4  11  25  46  71 100 142 183 231 281 353 409
#     4  12  25  48  67 106 147 179 231 288 348 414
#     4  12  25  46  69 107 138 187 233 283 346 413
#     4  10  24  43  68 101 137 181 224 288 339 413
#
# _framework density 24.286469
#
# number of rings (size 3 to 8) (size 9 to 14) (size 15 to 20)
#    0.000    1.000    5.000    0.000   10.500    4.000 
#    0.000    0.000    0.000    0.000    0.000    0.000 
#    0.000    0.000    0.000    0.000    0.000    0.000 
#
# Total GULP energy -44759.324759 kJ/mol
# GULP energy per Si atom -5594.915595 kJ/mol
# Density = 2.423119 g / cm^3
# Si number density = 24.286469 Si / 1000 Ang^3
#
#
#
# Elastic Constant Matrix: (Units=GPa)
#
#
# Indices 1 2 3 4 5 6 
#
# 1 90.4665 24.6121 -8.2673 4.6344 -10.0794 -11.5353
# 2 24.6121 108.5260 16.5973 -3.0174 -5.9883 -31.3879
# 3 -8.2673 16.5973 53.6791 8.5174 -8.3974 3.1958
# 4 4.6344 -3.0174 8.5174 44.8459 -1.0246 -9.2404
# 5 -10.0794 -5.9883 -8.3974 -1.0246 29.0998 -4.4312
# 6 -11.5353 -31.3879 3.1958 -9.2404 -4.4312 46.9745
#
#
#
# Elastic Compliance Matrix: (Units=1/GPa)
#
#
# Indices 1 2 3 4 5 6 
#
# 1 0.013053 -0.003066 0.004020 -0.002001 0.005128 0.000973
# 2 -0.003066 0.013904 -0.005789 0.004449 0.001804 0.009977
# 3 0.004020 -0.005789 0.023241 -0.006137 0.005914 -0.005111
# 4 -0.002001 0.004449 -0.006137 0.025631 0.000571 0.007994
# 5 0.005128 0.001804 0.005914 0.000571 0.039132 0.005866
# 6 0.000973 0.009977 -0.005111 0.007994 0.005866 0.030667
#
#
# Mechanical properties :
#
#
# Convention : Reuss Voigt Hill
#
# Bulk Modulus (GPa) = 24.67369 35.39509 30.03439
# Shear Modulus (GPa) = 29.61948 38.83266 34.22607
#
# Velocity S-wave (km/s) = 3.49605 4.00302 3.75809
# Velocity P-wave (km/s) = 5.14567 5.99759 5.58789
#
# Compressibility (1/GPa) = 0.04052900
#
# Stress axis : x y z
#
# Youngs Moduli (GPa) = 76.60830 71.92301 43.02649
#
# Poissons Ratio (x) = 0.22054 -0.17298
# Poissons Ratio (y) = 0.23491 0.24907
# Poissons Ratio (z) = -0.30799 0.41635
#
# Static dielectric constant tensor:
#      x y z
#    x 1.950800 -0.023780 -0.015880 
#    y -0.023780 1.910710 0.010230 
#    z -0.015880 0.010230 1.916210 
# 
# From -- ./inp_files/1613.got.cif
#   From: 2010.05.17/outbox.cif.g08.bks.cpg/sg1_1_cif.got.tgz:1613.got - 2010.05.17 20:27:59.
