data_PCOD9000264
_publ_section_title
;
Structure prediction by ZEFSAII (Michael W. Deem and Ramdas Pophale) SiO2 
 PCOD9000264
Probable space group: P 1
;
_chemical_formula_sum "Si O2"
_cell_formula_units_Z 8
_cell_length_a 10.906484
_cell_length_b 7.697396
_cell_length_c 14.170690
_cell_angle_alpha 144.931636
_cell_angle_beta 149.218627
_cell_angle_gamma 44.234896
_cell_volume 349.440602
_symmetry_space_group_name_H-M "P 1"
_symmetry_group_IT_number 1
_symmetry_cell_setting 'triclinic'
loop_
_space_group_symop_operation_xyz
x,y,z
loop_
_atom_site_type_symbol
_atom_site_label
_atom_site_fract_x
_atom_site_fract_y
_atom_site_fract_z
Si Si1 0.071280 0.461380 0.834850
Si Si2 0.685925 0.272274 0.834960
Si Si3 0.066606 0.245772 0.926888
Si Si4 0.921928 0.083079 0.081691
Si Si5 0.509553 0.862603 0.080854
Si Si6 0.623311 0.550496 0.205778
Si Si7 0.879393 0.299422 0.433473
Si Si8 0.247150 0.914454 0.378576
O O1 0.989569 0.408046 0.651670
O O2 0.058980 0.200990 0.789310
O O3 0.347852 0.548677 0.052918
O O4 0.907657 0.732555 0.892270
O O5 0.904400 0.250105 0.044742
O O6 0.529192 0.563611 0.895965
O O7 0.806844 0.279424 0.817021
O O8 0.519280 0.988892 0.609624
O O9 0.192093 0.564696 0.173265
O O10 0.237263 0.982436 0.966837
O O11 0.709844 0.231910 0.071327
O O12 0.161990 0.093623 0.306548
O O13 0.630089 0.785812 0.228031
O O14 0.650086 0.114180 0.229699
O O15 0.790655 0.550330 0.409067
O O16 0.073545 0.065539 0.410016
#
# Coordination Sequence:
#
# PCOD9000264 Si02
#       8
#     1   1   1   1   1   1   1   1
#     4  11  23  42  66 100 136 180 226 279 348 401
#     4  11  23  46  68 100 141 178 230 290 339 408
#     4  11  24  46  69 105 141 178 237 283 337 429
#     4   9  22  41  67  97 129 179 230 274 338 410
#     4  11  23  45  71 103 140 177 234 289 339 415
#     4  10  22  45  68  92 141 180 222 294 338 399
#     4  11  22  45  71  99 138 183 230 283 347 409
#     4  10  23  46  74  94 136 191 221 286 356 393
#
# _framework density 22.893735
#
# number of rings (size 3 to 8) (size 9 to 14) (size 15 to 20)
#    0.000    1.500    2.500    2.250    1.750    0.000 
#   18.000    0.000    0.000    0.000    0.000    0.000 
#    0.000    0.000    0.000    0.000    0.000    0.000 
#
# Total GULP energy -44697.070174 kJ/mol
# GULP energy per Si atom -5587.133772 kJ/mol
# Density = 2.284163 g / cm^3
# Si number density = 22.893735 Si / 1000 Ang^3
#
#
#
# Elastic Constant Matrix: (Units=GPa)
#
#
# Indices 1 2 3 4 5 6 
#
# 1 116.2053 29.6522 30.9700 -10.5362 -15.4596 1.7059
# 2 29.6522 112.1461 29.2288 -10.4830 -18.1883 -0.9386
# 3 30.9700 29.2288 75.4705 -12.9135 -16.3657 -3.3580
# 4 -10.5362 -10.4830 -12.9135 23.8875 5.8752 -6.0406
# 5 -15.4596 -18.1883 -16.3657 5.8752 42.1749 -6.6971
# 6 1.7059 -0.9386 -3.3580 -6.0406 -6.6971 33.8306
#
#
#
# Elastic Compliance Matrix: (Units=1/GPa)
#
#
# Indices 1 2 3 4 5 6 
#
# 1 0.010152 -0.001485 -0.002934 0.001781 0.001663 -0.000197
# 2 -0.001485 0.010645 -0.002435 0.002254 0.002965 0.001118
# 3 -0.002934 -0.002435 0.017755 0.007163 0.004400 0.003993
# 4 0.001781 0.002254 0.007163 0.050160 -0.001087 0.009425
# 5 0.001663 0.002965 0.004400 -0.001087 0.028389 0.005861
# 6 -0.000197 0.001118 0.003993 0.009425 0.005861 0.032839
#
#
# Mechanical properties :
#
#
# Convention : Reuss Voigt Hill
#
# Bulk Modulus (GPa) = 40.25222 53.72490 46.98856
# Shear Modulus (GPa) = 29.08164 34.24333 31.66249
#
# Velocity S-wave (km/s) = 3.56798 3.87169 3.72293
# Velocity P-wave (km/s) = 5.88169 6.59581 6.24896
#
# Compressibility (1/GPa) = 0.02484335
#
# Stress axis : x y z
#
# Youngs Moduli (GPa) = 98.50276 93.93958 56.32284
#
# Poissons Ratio (x) = 0.13950 0.16527
# Poissons Ratio (y) = 0.14627 0.13715
# Poissons Ratio (z) = 0.28904 0.22874
#
# Static dielectric constant tensor:
#      x y z
#    x 1.840890 0.031550 -0.034310 
#    y 0.031550 1.881830 0.002600 
#    z -0.034310 0.002600 1.858180 
# 
# From -- ./inp_files/4369.got.cif
#   From: 2010.05.17/outbox.cif.g08.bks.cpg/sg1_3_cif.got.tgz:4369.got - 2010.05.17 20:27:59.
