data_PCOD9000915
_publ_section_title
;
Structure prediction by ZEFSAII (Michael W. Deem and Ramdas Pophale) SiO2 
 PCOD9000915
Probable space group: P 1
;
_chemical_formula_sum "Si O2"
_cell_formula_units_Z 8
_cell_length_a 10.422893
_cell_length_b 7.798009
_cell_length_c 8.512562
_cell_angle_alpha 100.686124
_cell_angle_beta 135.037270
_cell_angle_gamma 53.381909
_cell_volume 356.637680
_symmetry_space_group_name_H-M "P 1"
_symmetry_group_IT_number 1
_symmetry_cell_setting 'triclinic'
loop_
_space_group_symop_operation_xyz
x,y,z
loop_
_atom_site_type_symbol
_atom_site_label
_atom_site_fract_x
_atom_site_fract_y
_atom_site_fract_z
Si Si1 0.020880 0.271870 0.506030
Si Si2 0.019597 0.642119 0.379223
Si Si3 0.493751 0.340578 0.543899
Si Si4 0.535617 0.600237 0.360329
Si Si5 0.658524 0.348708 0.018175
Si Si6 0.196808 0.637668 0.841014
Si Si7 0.677524 0.855408 0.502356
Si Si8 0.531764 0.844409 0.016986
O O1 0.049610 0.435882 0.463446
O O2 0.789760 0.425576 0.451468
O O3 0.930581 0.181465 0.291968
O O4 0.266064 0.068391 0.771761
O O5 0.215766 0.525946 0.394079
O O6 0.072050 0.750990 0.580639
O O7 0.745765 0.811162 0.107236
O O8 0.534801 0.455620 0.466043
O O9 0.571560 0.106561 0.503087
O O10 0.643474 0.283654 0.821867
O O11 0.457178 0.388746 0.965845
O O12 0.555961 0.778401 0.482192
O O13 0.300728 0.717406 0.063011
O O14 0.574369 0.609101 0.988208
O O15 0.974807 0.676043 0.737137
O O16 0.586324 0.867193 0.248135
#
# Coordination Sequence:
#
# PCOD9000915 Si02
#       8
#     1   1   1   1   1   1   1   1
#     4  10  20  42  76  97 132 194 239 276 343 421
#     4   9  20  45  64 100 141 181 231 292 334 423
#     4  11  26  42  68 105 146 180 224 295 374 388
#     4  11  23  44  71 107 139 181 234 296 340 416
#     4   9  20  45  64 100 141 181 231 292 334 423
#     4   9  18  42  68  91 136 186 226 273 334 418
#     4  11  23  44  71 107 139 181 234 296 340 416
#     4  10  20  42  76  97 132 194 239 276 343 421
#
# _framework density 22.431729000000001
#
# number of rings (size 3 to 8) (size 9 to 14) (size 15 to 20)
#    0.000    2.000    5.000    0.000    3.500    1.000 
#   18.000    0.000    0.000    0.000    0.000    0.000 
#    0.000    0.000    0.000    0.000    0.000    0.000 
#
# Total GULP energy -44611.770598 kJ/mol
# GULP energy per Si atom -5576.471325 kJ/mol
# Density = 2.238067 g / cm^3
# Si number density = 22.431729 Si / 1000 Ang^3
#
#
#
# Elastic Constant Matrix: (Units=GPa)
#
#
# Indices 1 2 3 4 5 6 
#
# 1 115.9529 66.0335 53.5111 15.0439 16.3207 15.7452
# 2 66.0335 95.4378 43.2582 16.2953 -1.1772 17.4053
# 3 53.5111 43.2582 151.3445 1.3233 46.2475 7.4855
# 4 15.0439 16.2953 1.3233 26.5963 5.5472 3.2333
# 5 16.3207 -1.1772 46.2475 5.5472 35.1444 6.3644
# 6 15.7452 17.4053 7.4855 3.2333 6.3644 23.5750
#
#
#
# Elastic Compliance Matrix: (Units=1/GPa)
#
#
# Indices 1 2 3 4 5 6 
#
# 1 0.016180 -0.010780 -0.000462 -0.000984 -0.006989 -0.000679
# 2 -0.010780 0.028828 -0.011575 -0.014592 0.026316 -0.015512
# 3 -0.000462 -0.011575 0.017761 0.010990 -0.026905 0.008971
# 4 -0.000984 -0.014592 0.010990 0.050616 -0.023829 0.007432
# 5 -0.006989 0.026316 -0.026905 -0.023829 0.075997 -0.023467
# 6 -0.000679 -0.015512 0.008971 0.007432 -0.023467 0.056791
#
#
# Mechanical properties :
#
#
# Convention : Reuss Voigt Hill
#
# Bulk Modulus (GPa) = 58.35915 76.48232 67.42073
# Shear Modulus (GPa) = 16.80566 30.39197 23.59881
#
# Velocity S-wave (km/s) = 2.74011 3.68484 3.24702
# Velocity P-wave (km/s) = 6.00697 7.23006 6.64671
#
# Compressibility (1/GPa) = 0.01713527
#
# Stress axis : x y z
#
# Youngs Moduli (GPa) = 61.80510 34.68796 56.30363
#
# Poissons Ratio (x) = 0.37394 0.02599
# Poissons Ratio (y) = 0.66626 0.65173
# Poissons Ratio (z) = 0.02853 0.40152
#
# Static dielectric constant tensor:
#      x y z
#    x 1.890970 0.048510 0.016260 
#    y 0.048510 1.892450 0.010540 
#    z 0.016260 0.010540 1.858090 
# 
# From -- ./inp_files/4267.got.cif
#   From: 2010.05.17/outbox.cif.g08.bks.cpg/sg1_3_cif.got.tgz:4267.got - 2010.05.17 20:27:59.
