data_PCOD9000143
_publ_section_title
;
Structure prediction by ZEFSAII (Michael W. Deem and Ramdas Pophale) SiO2 
 PCOD9000143
Probable space group: P 1
;
_chemical_formula_sum "Si O2"
_cell_formula_units_Z 8
_cell_length_a 11.334060
_cell_length_b 8.568313
_cell_length_c 9.465097
_cell_angle_alpha 43.394167
_cell_angle_beta 126.670223
_cell_angle_gamma 143.563640
_cell_volume 374.885490
_symmetry_space_group_name_H-M "P 1"
_symmetry_group_IT_number 1
_symmetry_cell_setting 'triclinic'
loop_
_space_group_symop_operation_xyz
x,y,z
loop_
_atom_site_type_symbol
_atom_site_label
_atom_site_fract_x
_atom_site_fract_y
_atom_site_fract_z
Si Si1 0.446790 0.667280 0.864760
Si Si2 0.742856 0.253298 0.491042
Si Si3 0.293694 0.013413 0.074902
Si Si4 0.546839 0.363833 0.785056
Si Si5 0.861187 0.709768 0.044705
Si Si6 0.719051 0.097843 0.009842
Si Si7 0.582994 0.888498 0.368392
Si Si8 0.019501 0.360909 0.832883
O O1 0.381199 0.348471 0.973636
O O2 0.418278 0.913647 0.269513
O O3 0.558981 0.945781 0.647533
O O4 0.589489 0.800267 0.014034
O O5 0.756007 0.497285 0.248860
O O6 0.917987 0.440342 0.606735
O O7 0.758167 0.099041 0.469953
O O8 0.342817 0.074894 0.903185
O O9 0.251137 0.590913 0.827363
O O10 0.062404 0.778920 0.104894
O O11 0.637524 0.267515 0.812618
O O12 0.506298 0.557389 0.553601
O O13 0.709549 0.550556 0.908073
O O14 0.932499 0.035738 0.919293
O O15 0.940332 0.305757 0.971373
O O16 0.672414 0.009381 0.197670
#
# Coordination Sequence:
#
# PCOD9000143 Si02
#       8
#     1   1   1   1   1   1   1   1
#     4  10  22  44  64  93 129 161 207 259 314 369
#     4  11  21  37  67  94 117 161 213 253 310 360
#     4  10  22  39  65  94 124 159 213 258 308 362
#     4  11  21  42  60  95 129 166 204 258 311 370
#     4  11  22  38  67  95 124 162 211 263 305 366
#     4  10  23  39  60  93 132 167 197 253 321 376
#     4  11  22  41  66  91 126 164 207 260 310 362
#     4  10  23  42  63  93 127 164 208 258 309 371
#
# _framework density 21.339849000000001
#
# number of rings (size 3 to 8) (size 9 to 14) (size 15 to 20)
#    0.000    1.500    5.000    0.750    1.750    4.000 
#    0.000    0.000    0.000    0.000    0.000    0.000 
#    0.000    0.000    0.000    0.000    0.000    0.000 
#
# Total GULP energy -44561.093769 kJ/mol
# GULP energy per Si atom -5570.136721 kJ/mol
# Density = 2.129128 g / cm^3
# Si number density = 21.339849 Si / 1000 Ang^3
#
#
#
# Elastic Constant Matrix: (Units=GPa)
#
#
# Indices 1 2 3 4 5 6 
#
# 1 148.0373 28.7026 57.4265 -7.7114 -18.7270 22.5745
# 2 28.7026 48.2020 29.2281 -9.6956 -17.4339 13.9884
# 3 57.4265 29.2281 121.7448 -0.6648 -6.0587 15.3481
# 4 -7.7114 -9.6956 -0.6648 26.1475 -9.4412 -2.5902
# 5 -18.7270 -17.4339 -6.0587 -9.4412 38.8458 -8.2250
# 6 22.5745 13.9884 15.3481 -2.5902 -8.2250 34.3502
#
#
#
# Elastic Compliance Matrix: (Units=1/GPa)
#
#
# Indices 1 2 3 4 5 6 
#
# 1 0.009470 -0.000123 -0.003807 0.003843 0.004176 -0.003182
# 2 -0.000123 0.038171 -0.007264 0.020432 0.019640 -0.005975
# 3 -0.003807 -0.007264 0.011648 -0.005410 -0.004873 -0.001319
# 4 0.003843 0.020432 -0.005410 0.055642 0.024024 0.001519
# 5 0.004176 0.019640 -0.004873 0.024024 0.042367 0.003391
# 6 -0.003182 -0.005975 -0.001319 0.001519 0.003391 0.035152
#
#
# Mechanical properties :
#
#
# Convention : Reuss Voigt Hill
#
# Bulk Modulus (GPa) = 27.10021 60.96650 44.03335
# Shear Modulus (GPa) = 22.01313 33.37717 27.69515
#
# Velocity S-wave (km/s) = 3.21526 3.95913 3.60643
# Velocity P-wave (km/s) = 5.14886 7.03782 6.16611
#
# Compressibility (1/GPa) = 0.03690009
#
# Stress axis : x y z
#
# Youngs Moduli (GPa) = 105.60123 26.19798 85.85304
#
# Poissons Ratio (x) = 0.00323 0.32686
# Poissons Ratio (y) = 0.01302 0.62361
# Poissons Ratio (z) = 0.40204 0.19029
#
# Static dielectric constant tensor:
#      x y z
#    x 1.824860 -0.003100 0.034750 
#    y -0.003100 1.821640 -0.020580 
#    z 0.034750 -0.020580 1.802090 
# 
# From -- ./inp_files/5248.got.cif
#   From: 2010.05.17/outbox.cif.g08.bks.cpg/sg1_3_cif.got.tgz:5248.got - 2010.05.17 20:27:59.
