data_PCOD9000643
_publ_section_title
;
Structure prediction by ZEFSAII (Michael W. Deem and Ramdas Pophale) SiO2 
 PCOD9000643
Probable space group: P 1
;
_chemical_formula_sum "Si O2"
_cell_formula_units_Z 6
_cell_length_a 7.385251
_cell_length_b 9.872422
_cell_length_c 8.541248
_cell_angle_alpha 149.900418
_cell_angle_beta 66.759880
_cell_angle_gamma 109.961336
_cell_volume 286.968397
_symmetry_space_group_name_H-M "P 1"
_symmetry_group_IT_number 1
_symmetry_cell_setting 'triclinic'
loop_
_space_group_symop_operation_xyz
x,y,z
loop_
_atom_site_type_symbol
_atom_site_label
_atom_site_fract_x
_atom_site_fract_y
_atom_site_fract_z
Si Si1 0.432150 0.027090 0.779750
Si Si2 0.870713 0.600358 0.853656
Si Si3 0.298762 0.527094 0.507703
Si Si4 0.860196 0.100351 0.580357
Si Si5 0.273777 0.236680 0.713970
Si Si6 0.457149 0.736684 0.992643
O O1 0.665722 0.028759 0.671966
O O2 0.331927 0.140062 0.769623
O O3 0.357311 0.731397 0.553916
O O4 0.373572 0.231396 0.142141
O O5 0.065198 0.528777 0.618883
O O6 0.810630 0.341382 0.717938
O O7 0.920271 0.841382 0.198135
O O8 0.399040 0.640066 0.743733
O O9 0.687321 0.696219 0.908701
O O10 0.043596 0.196210 0.717023
O O11 0.340442 0.539595 0.955211
O O12 0.390462 0.039596 0.357224
#
# Coordination Sequence:
#
# PCOD9000643 Si02
#       6
#     1   1   1   1   1   1
#     4  12  26  42  66 102 140 164 216 288 334 372
#     4  12  23  43  71  97 128 179 226 264 323 404
#     4  12  26  42  66 102 140 164 216 288 334 372
#     4  12  23  43  71  97 128 179 226 264 323 404
#     4  12  23  43  71  97 128 179 226 264 323 404
#     4  12  23  43  71  97 128 179 226 264 323 404
#
# _framework density 20.908228000000001
#
# number of rings (size 3 to 8) (size 9 to 14) (size 15 to 20)
#    0.000    0.000    6.667    4.000    0.000    2.667 
#    0.000    0.000    0.000    0.000    0.000    0.000 
#    0.000    0.000    0.000    0.000    0.000    0.000 
#
# Total GULP energy -33612.455405 kJ/mol
# GULP energy per Si atom -5602.075901 kJ/mol
# Density = 2.086064 g / cm^3
# Si number density = 20.908228 Si / 1000 Ang^3
#
#
#
# Elastic Constant Matrix: (Units=GPa)
#
#
# Indices 1 2 3 4 5 6 
#
# 1 91.4171 17.2169 -8.5261 -21.9482 5.8887 24.4097
# 2 17.2169 64.9843 -11.2668 5.5947 1.9306 12.6801
# 3 -8.5261 -11.2668 57.9187 1.3540 -8.1905 0.7452
# 4 -21.9482 5.5947 1.3540 34.3942 -7.0771 -4.3827
# 5 5.8887 1.9306 -8.1905 -7.0771 36.0249 -3.3136
# 6 24.4097 12.6801 0.7452 -4.3827 -3.3136 43.6914
#
#
#
# Elastic Compliance Matrix: (Units=1/GPa)
#
#
# Indices 1 2 3 4 5 6 
#
# 1 0.015959 -0.003405 0.001431 0.009605 -0.000863 -0.007054
# 2 -0.003405 0.018184 0.003048 -0.006043 -0.001292 -0.004131
# 3 0.001431 0.003048 0.018612 0.000235 0.003725 -0.001695
# 4 0.009605 -0.006043 0.000235 0.037541 0.006239 0.000623
# 5 -0.000863 -0.001292 0.003725 0.006239 0.030384 0.003724
# 6 -0.007054 -0.004131 -0.001695 0.000623 0.003724 0.028402
#
#
# Mechanical properties :
#
#
# Convention : Reuss Voigt Hill
#
# Bulk Modulus (GPa) = 18.21415 23.24092 20.72754
# Shear Modulus (GPa) = 30.26020 37.28185 33.77103
#
# Velocity S-wave (km/s) = 3.80845 4.22728 4.02332
# Velocity P-wave (km/s) = 5.29806 5.91323 5.61408
#
# Compressibility (1/GPa) = 0.05490236
#
# Stress axis : x y z
#
# Youngs Moduli (GPa) = 62.66145 54.99486 53.72838
#
# Poissons Ratio (x) = 0.18725 -0.07689
# Poissons Ratio (y) = 0.21335 -0.16375
# Poissons Ratio (z) = -0.08968 -0.16761
#
# Static dielectric constant tensor:
#      x y z
#    x 1.722160 -0.006420 0.005010 
#    y -0.006420 1.724380 -0.005160 
#    z 0.005010 -0.005160 1.724920 
# 
# From -- ./inp_files/4772.got.cif
#   From: 2010.05.17/outbox.cif.g08.bks.cpg/sg1_3_cif.got.tgz:4772.got - 2010.05.17 20:27:59.
