data_PCOD9000205
_publ_section_title
;
Structure prediction by ZEFSAII (Michael W. Deem and Ramdas Pophale) SiO2 
 PCOD9000205
Probable space group: P 1
;
_chemical_formula_sum "Si O2"
_cell_formula_units_Z 8
_cell_length_a 7.721765
_cell_length_b 11.485779
_cell_length_c 5.604252
_cell_angle_alpha 77.338325
_cell_angle_beta 64.770524
_cell_angle_gamma 42.220447
_cell_volume 298.315527
_symmetry_space_group_name_H-M "P 1"
_symmetry_group_IT_number 1
_symmetry_cell_setting 'triclinic'
loop_
_space_group_symop_operation_xyz
x,y,z
loop_
_atom_site_type_symbol
_atom_site_label
_atom_site_fract_x
_atom_site_fract_y
_atom_site_fract_z
Si Si1 0.790740 0.064560 0.019880
Si Si2 0.323008 0.227444 0.893836
Si Si3 0.139000 0.726107 0.224621
Si Si4 0.300827 0.989457 0.842203
Si Si5 0.839990 0.449355 0.480951
Si Si6 0.460194 0.409886 0.864253
Si Si7 0.915660 0.631035 0.682263
Si Si8 0.497921 0.753961 0.217320
O O1 0.634087 0.062516 0.903976
O O2 0.876768 0.932614 0.231953
O O3 0.570610 0.274420 0.079177
O O4 0.078130 0.007430 0.829342
O O5 0.079820 0.328627 0.192063
O O6 0.260154 0.149369 0.784534
O O7 0.362080 0.351845 0.761861
O O8 0.112371 0.651347 0.497667
O O9 0.401722 0.692839 0.122310
O O10 0.218587 0.605057 0.014966
O O11 0.292973 0.952303 0.148571
O O12 0.617770 0.816850 0.655017
O O13 0.716109 0.377068 0.651492
O O14 0.960103 0.483457 0.596432
O O15 0.564785 0.647558 0.457083
O O16 0.799051 0.664718 0.999491
#
# Coordination Sequence:
#
# PCOD9000205 Si02
#       8
#     1   1   1   1   1   1   1   1
#     4   9  22  43  66  96 142 172 230 285 326 422
#     4  10  24  40  66 104 134 180 229 281 343 411
#     4  11  20  46  69  96 137 185 225 282 353 396
#     4   9  21  47  65  99 140 173 229 288 342 401
#     4  12  22  43  72  97 140 181 229 285 349 408
#     4  10  23  42  66 104 132 185 228 277 352 402
#     4  10  22  42  70  99 131 188 223 278 356 399
#     4   9  24  41  66 103 130 174 239 278 329 427
#
# _framework density 26.817243999999999
#
# number of rings (size 3 to 8) (size 9 to 14) (size 15 to 20)
#    1.500    0.500    2.500    0.000    3.500    2.000 
#   11.250    1.250    0.000    0.000    0.000    0.000 
#    0.000    0.000    0.000    0.000    0.000    0.000 
#
# Total GULP energy -44572.199458 kJ/mol
# GULP energy per Si atom -5571.524932 kJ/mol
# Density = 2.675621 g / cm^3
# Si number density = 26.817244 Si / 1000 Ang^3
#
#
#
# Elastic Constant Matrix: (Units=GPa)
#
#
# Indices 1 2 3 4 5 6 
#
# 1 140.8941 35.8150 26.4091 -2.2556 -35.3488 22.3245
# 2 35.8150 145.7486 31.2983 -34.6584 -6.7480 27.2712
# 3 26.4091 31.2983 81.8843 -19.5705 -29.4340 26.7572
# 4 -2.2556 -34.6584 -19.5705 44.7599 8.3872 -5.5493
# 5 -35.3488 -6.7480 -29.4340 8.3872 37.8460 -8.0448
# 6 22.3245 27.2712 26.7572 -5.5493 -8.0448 47.0120
#
#
#
# Elastic Compliance Matrix: (Units=1/GPa)
#
#
# Indices 1 2 3 4 5 6 
#
# 1 0.010590 -0.002667 0.001702 -0.003182 0.010812 -0.002976
# 2 -0.002667 0.010068 -0.001656 0.007317 -0.004352 -0.003512
# 3 0.001702 -0.001656 0.021850 0.004342 0.015383 -0.009139
# 4 -0.003182 0.007317 0.004342 0.030475 -0.005589 -0.002564
# 5 0.010812 -0.004352 0.015383 -0.005589 0.048143 -0.003787
# 6 -0.002976 -0.003512 -0.009139 -0.002564 -0.003787 0.028973
#
#
# Mechanical properties :
#
#
# Convention : Reuss Voigt Hill
#
# Bulk Modulus (GPa) = 26.83376 61.73019 44.28198
# Shear Modulus (GPa) = 29.80431 44.25722 37.03077
#
# Velocity S-wave (km/s) = 3.33736 4.06683 3.72002
# Velocity P-wave (km/s) = 4.98784 6.71721 5.91606
#
# Compressibility (1/GPa) = 0.03726648
#
# Stress axis : x y z
#
# Youngs Moduli (GPa) = 94.43257 99.32652 45.76700
#
# Poissons Ratio (x) = 0.26491 -0.07792
# Poissons Ratio (y) = 0.25186 0.07578
# Poissons Ratio (z) = -0.16077 0.16446
#
# Static dielectric constant tensor:
#      x y z
#    x 2.112030 -0.154050 0.031030 
#    y -0.154050 2.286510 -0.021970 
#    z 0.031030 -0.021970 2.048820 
# 
# From -- ./inp_files/4829.got.cif
#   From: 2010.05.17/outbox.cif.g08.bks.cpg/sg1_3_cif.got.tgz:4829.got - 2010.05.17 20:27:59.
