data_PCOD9000086
_publ_section_title
;
Structure prediction by ZEFSAII (Michael W. Deem and Ramdas Pophale) SiO2 
 PCOD9000086
Probable space group: P 1
;
_chemical_formula_sum "Si O2"
_cell_formula_units_Z 8
_cell_length_a 7.334028
_cell_length_b 16.563575
_cell_length_c 5.247992
_cell_angle_alpha 107.694356
_cell_angle_beta 96.969747
_cell_angle_gamma 37.259799
_cell_volume 359.588420
_symmetry_space_group_name_H-M "P 1"
_symmetry_group_IT_number 1
_symmetry_cell_setting 'triclinic'
loop_
_space_group_symop_operation_xyz
x,y,z
loop_
_atom_site_type_symbol
_atom_site_label
_atom_site_fract_x
_atom_site_fract_y
_atom_site_fract_z
Si Si1 0.619670 0.231780 0.330990
Si Si2 0.967755 0.932992 0.620641
Si Si3 0.192942 0.929610 0.155317
Si Si4 0.307083 0.394516 0.932844
Si Si5 0.215050 0.236610 0.755507
Si Si6 0.876452 0.713712 0.221446
Si Si7 0.314455 0.151662 0.186235
Si Si8 0.860413 0.820179 0.835336
O O1 0.444893 0.347796 0.629600
O O2 0.481579 0.184439 0.255801
O O3 0.555961 0.292108 0.101171
O O4 0.969709 0.089862 0.338204
O O5 0.098044 0.895348 0.322672
O O6 0.037958 0.822293 0.687420
O O7 0.106515 0.947284 0.861531
O O8 0.594435 0.082267 0.678845
O O9 0.547230 0.813898 0.140681
O O10 0.142885 0.362450 0.871776
O O11 0.088245 0.553092 0.108801
O O12 0.118477 0.225455 0.476529
O O13 0.101993 0.233346 0.983847
O O14 0.811685 0.769095 0.553283
O O15 0.000603 0.732319 0.038449
O O16 0.560181 0.985613 0.035407
#
# Coordination Sequence:
#
# PCOD9000086 Si02
#       8
#     1   1   1   1   1   1   1   1
#     4  10  17  34  63  84  96 148 211 236 248 333
#     4  11  18  36  65  85 100 152 210 234 256 341
#     4  12  20  36  58  97 107 139 197 253 285 302
#     4  10  19  34  51  84 115 150 182 229 277 354
#     4   9  14  28  54  85  92 129 203 239 239 296
#     4  12  26  34  52  95 130 142 167 248 316 323
#     4   9  15  28  55  82  95 130 204 234 244 297
#     4  11  21  38  52  86 121 156 182 227 285 364
#
# _framework density 22.247658000000001
#
# number of rings (size 3 to 8) (size 9 to 14) (size 15 to 20)
#    0.000    1.500    6.250    3.750    0.000    0.000 
#    0.000    0.000    0.000    0.000   84.500    0.000 
#    0.000    0.000    0.000    0.000    0.000    0.000 
#
# Total GULP energy -44579.009101 kJ/mol
# GULP energy per Si atom -5572.376138 kJ/mol
# Density = 2.219702 g / cm^3
# Si number density = 22.247658 Si / 1000 Ang^3
#
#
#
# Elastic Constant Matrix: (Units=GPa)
#
#
# Indices 1 2 3 4 5 6 
#
# 1 43.1916 22.3087 8.9054 5.7562 -4.9453 16.7557
# 2 22.3087 81.5945 43.1393 8.3671 4.4493 26.4077
# 3 8.9054 43.1393 156.6152 -25.6137 -2.5033 23.4921
# 4 5.7562 8.3671 -25.6137 37.9049 11.8149 -0.4143
# 5 -4.9453 4.4493 -2.5033 11.8149 10.6125 1.8568
# 6 16.7557 26.4077 23.4921 -0.4143 1.8568 28.6928
#
#
#
# Elastic Compliance Matrix: (Units=1/GPa)
#
#
# Indices 1 2 3 4 5 6 
#
# 1 0.044049 -0.004191 -0.000407 -0.022365 0.051493 -0.025188
# 2 -0.004191 0.020828 -0.004683 -0.006572 -0.002227 -0.012838
# 3 -0.000407 -0.004683 0.009547 0.009360 -0.005913 -0.002751
# 4 -0.022365 -0.006572 0.009360 0.061856 -0.077357 0.017344
# 5 0.051493 -0.002227 -0.005913 -0.077357 0.210519 -0.037919
# 6 -0.025188 -0.012838 -0.002751 0.017344 -0.037919 0.066333
#
#
# Mechanical properties :
#
#
# Convention : Reuss Voigt Hill
#
# Bulk Modulus (GPa) = 17.90124 47.78977 32.84551
# Shear Modulus (GPa) = 11.10334 29.24523 20.17429
#
# Velocity S-wave (km/s) = 2.23643 3.62958 3.01459
# Velocity P-wave (km/s) = 3.83831 6.25241 5.18774
#
# Compressibility (1/GPa) = 0.05586205
#
# Stress axis : x y z
#
# Youngs Moduli (GPa) = 22.70209 48.01200 104.74326
#
# Poissons Ratio (x) = 0.20121 0.04260
# Poissons Ratio (y) = 0.09514 0.49056
# Poissons Ratio (z) = 0.00923 0.22486
#
# Static dielectric constant tensor:
#      x y z
#    x 1.955980 0.050670 -0.005060 
#    y 0.050670 1.777390 -0.059270 
#    z -0.005060 -0.059270 1.924280 
# 
# From -- ./inp_files/1916.got.cif
#   From: 2010.05.17/outbox.cif.g08.bks.cpg/sg1_1_cif.got.tgz:1916.got - 2010.05.17 20:27:59.
