data_PCOD9000621
_publ_section_title
;
Structure prediction by ZEFSAII (Michael W. Deem and Ramdas Pophale) SiO2 
 PCOD9000621
Probable space group: P 1
;
_chemical_formula_sum "Si O2"
_cell_formula_units_Z 8
_cell_length_a 4.962949
_cell_length_b 11.726875
_cell_length_c 5.259400
_cell_angle_alpha 81.268263
_cell_angle_beta 86.693791
_cell_angle_gamma 99.751606
_cell_volume 297.082930
_symmetry_space_group_name_H-M "P 1"
_symmetry_group_IT_number 1
_symmetry_cell_setting 'triclinic'
loop_
_space_group_symop_operation_xyz
x,y,z
loop_
_atom_site_type_symbol
_atom_site_label
_atom_site_fract_x
_atom_site_fract_y
_atom_site_fract_z
Si Si1 0.352670 0.757920 0.032750
Si Si2 0.928485 0.595974 0.777506
Si Si3 0.802789 0.206569 0.923080
Si Si4 0.011860 0.399230 0.479227
Si Si5 0.401977 0.012291 0.757216
Si Si6 0.836274 0.788841 0.365721
Si Si7 0.060960 0.044226 0.273411
Si Si8 0.529572 0.386885 0.141302
O O1 0.623041 0.741768 0.172854
O O2 0.142103 0.785656 0.251993
O O3 0.176884 0.651624 0.925759
O O4 0.413434 0.874421 0.815135
O O5 0.798201 0.702199 0.633804
O O6 0.695658 0.501668 0.955231
O O7 0.048731 0.524587 0.571830
O O8 0.567428 0.276939 0.003485
O O9 0.018737 0.300093 0.724147
O O10 0.682750 0.098061 0.784336
O O11 0.919367 0.154273 0.185391
O O12 0.229918 0.397109 0.246090
O O13 0.707771 0.376013 0.387690
O O14 0.267467 0.049466 0.495096
O O15 0.211952 0.029174 0.004112
O O16 0.836189 0.925697 0.364947
#
# Coordination Sequence:
#
# PCOD9000621 Si02
#       8
#     1   1   1   1   1   1   1   1
#     4  11  25  48  78 120 166 215 270 340 419 512
#     4  11  26  52  84 116 166 221 278 352 422 497
#     4  11  28  48  84 118 170 221 276 350 424 503
#     4  11  29  52  81 117 162 220 289 348 417 492
#     4  11  26  48  80 124 173 219 275 342 426 516
#     4  11  25  48  78 120 166 215 270 340 419 512
#     4  11  26  48  80 124 173 219 275 342 426 516
#     4  11  29  52  81 117 162 220 289 348 417 492
#
# _framework density 26.928508999999998
#
# number of rings (size 3 to 8) (size 9 to 14) (size 15 to 20)
#    0.000    1.000    2.500    0.750    7.000   10.000 
#    0.000    3.750    0.000    0.000    0.000    0.000 
#    0.000    0.000    0.000    0.000    0.000    0.000 
#
# Total GULP energy -44966.657093 kJ/mol
# GULP energy per Si atom -5620.832137 kJ/mol
# Density = 2.686722 g / cm^3
# Si number density = 26.928509 Si / 1000 Ang^3
#
#
#
# Elastic Constant Matrix: (Units=GPa)
#
#
# Indices 1 2 3 4 5 6 
#
# 1 87.5449 24.9207 35.5858 -12.9236 -9.4234 0.6458
# 2 24.9207 162.0173 48.0241 -17.0479 7.7385 8.7919
# 3 35.5858 48.0241 187.8428 -20.0896 20.8723 8.8776
# 4 -12.9236 -17.0479 -20.0896 58.8491 1.9794 2.6439
# 5 -9.4234 7.7385 20.8723 1.9794 50.7822 6.2644
# 6 0.6458 8.7919 8.8776 2.6439 6.2644 26.6830
#
#
#
# Elastic Compliance Matrix: (Units=1/GPa)
#
#
# Indices 1 2 3 4 5 6 
#
# 1 0.013423 -0.001345 -0.002427 0.001611 0.003641 -0.000089
# 2 -0.001345 0.007025 -0.001230 0.001425 -0.000640 -0.001864
# 3 -0.002427 -0.001230 0.006641 0.001530 -0.002902 -0.001216
# 4 0.001611 0.001425 0.001530 0.018431 -0.000942 -0.002623
# 5 0.003641 -0.000640 -0.002902 -0.000942 0.022192 -0.004028
# 6 -0.000089 -0.001864 -0.001216 -0.002623 -0.004028 0.039703
#
#
# Mechanical properties :
#
#
# Convention : Reuss Voigt Hill
#
# Bulk Modulus (GPa) = 58.52709 72.71847 65.62278
# Shear Modulus (GPa) = 40.61273 49.18782 44.90028
#
# Velocity S-wave (km/s) = 3.88773 4.27852 4.08780
# Velocity P-wave (km/s) = 6.47565 7.17430 6.83391
#
# Compressibility (1/GPa) = 0.01708610
#
# Stress axis : x y z
#
# Youngs Moduli (GPa) = 74.50140 142.34446 150.57040
#
# Poissons Ratio (x) = 0.19142 0.36546
# Poissons Ratio (y) = 0.10018 0.18515
# Poissons Ratio (z) = 0.18083 0.17503
#
# Static dielectric constant tensor:
#      x y z
#    x 2.106400 -0.038890 -0.036380 
#    y -0.038890 2.085010 -0.010970 
#    z -0.036380 -0.010970 2.027000 
# 
# From -- ./inp_files/638.got.cif
#   From: 2010.05.17/outbox.cif.g08.bks.cpg/sg1_1_cif.got.tgz:638.got - 2010.05.17 20:27:59.
