data_PCOD9000608
_publ_section_title
;
Structure prediction by ZEFSAII (Michael W. Deem and Ramdas Pophale) SiO2 
 PCOD9000608
Probable space group: P 1
;
_chemical_formula_sum "Si O2"
_cell_formula_units_Z 8
_cell_length_a 5.080720
_cell_length_b 9.919440
_cell_length_c 7.525204
_cell_angle_alpha 99.271883
_cell_angle_beta 78.103837
_cell_angle_gamma 61.594248
_cell_volume 311.276505
_symmetry_space_group_name_H-M "P 1"
_symmetry_group_IT_number 1
_symmetry_cell_setting 'triclinic'
loop_
_space_group_symop_operation_xyz
x,y,z
loop_
_atom_site_type_symbol
_atom_site_label
_atom_site_fract_x
_atom_site_fract_y
_atom_site_fract_z
Si Si1 0.187050 0.454790 0.211220
Si Si2 0.548166 0.029194 0.503494
Si Si3 0.675185 0.256559 0.367967
Si Si4 0.117955 0.000909 0.017782
Si Si5 0.392820 0.657866 0.030786
Si Si6 0.663453 0.534900 0.599056
Si Si7 0.501412 0.134912 0.909203
Si Si8 0.281774 0.802583 0.439392
O O1 0.518204 0.380177 0.255296
O O2 0.941593 0.514123 0.422990
O O3 0.203740 0.572298 0.092862
O O4 0.230756 0.301825 0.067382
O O5 0.359979 0.939454 0.496101
O O6 0.915493 0.888655 0.452692
O O7 0.502976 0.155253 0.384970
O O8 0.474911 0.144938 0.705595
O O9 0.668831 0.368974 0.546826
O O10 0.012396 0.110531 0.231340
O O11 0.438282 0.991054 0.920138
O O12 0.840695 0.087578 0.929094
O O13 0.161138 0.833132 0.019984
O O14 0.648977 0.570132 0.818924
O O15 0.486358 0.696412 0.218117
O O16 0.364881 0.687595 0.574324
#
# Coordination Sequence:
#
# PCOD9000608 Si02
#       8
#     1   1   1   1   1   1   1   1
#     4  11  26  50  71 113 159 193 257 317 371 464
#     4  12  26  48  78 110 151 199 256 314 383 443
#     4  11  25  47  72 105 152 198 246 318 370 447
#     4  11  25  46  76 107 149 193 256 307 379 442
#     4  12  26  50  77 112 149 208 248 314 387 447
#     4  12  26  51  77 110 156 202 251 311 390 455
#     4  11  24  48  76 112 146 202 250 316 378 454
#     4  12  28  50  75 117 152 195 258 321 368 462
#
# _framework density 25.700621999999999
#
# number of rings (size 3 to 8) (size 9 to 14) (size 15 to 20)
#    0.000    0.500    3.750    3.750    5.250    0.000 
#   13.500    0.000    0.000    0.000    0.000    0.000 
#    0.000    0.000    0.000    0.000    0.000    0.000 
#
# Total GULP energy -44701.763206 kJ/mol
# GULP energy per Si atom -5587.720401 kJ/mol
# Density = 2.564213 g / cm^3
# Si number density = 25.700622 Si / 1000 Ang^3
#
#
#
# Elastic Constant Matrix: (Units=GPa)
#
#
# Indices 1 2 3 4 5 6 
#
# 1 88.3433 20.1200 23.8521 4.1763 1.7628 14.1417
# 2 20.1200 136.6640 32.3602 3.0973 -8.3400 34.3759
# 3 23.8521 32.3602 173.4936 12.6528 7.4728 13.0758
# 4 4.1763 3.0973 12.6528 25.4768 4.3313 1.2625
# 5 1.7628 -8.3400 7.4728 4.3313 33.2238 3.9694
# 6 14.1417 34.3759 13.0758 1.2625 3.9694 32.5476
#
#
#
# Elastic Compliance Matrix: (Units=1/GPa)
#
#
# Indices 1 2 3 4 5 6 
#
# 1 0.012514 -0.000370 -0.001231 -0.001208 0.000219 -0.004531
# 2 -0.000370 0.010785 -0.001245 -0.000833 0.004459 -0.011241
# 3 -0.001231 -0.001245 0.006448 -0.002604 -0.001300 -0.000481
# 4 -0.001208 -0.000833 -0.002604 0.041649 -0.005164 0.001465
# 5 0.000219 0.004459 -0.001300 -0.005164 0.033143 -0.008123
# 6 -0.004531 -0.011241 -0.000481 0.001465 -0.008123 0.045693
#
#
# Mechanical properties :
#
#
# Convention : Reuss Voigt Hill
#
# Bulk Modulus (GPa) = 41.57270 61.24062 51.40666
# Shear Modulus (GPa) = 30.49847 39.72755 35.11301
#
# Velocity S-wave (km/s) = 3.44856 3.93591 3.70027
# Velocity P-wave (km/s) = 5.66283 6.67348 6.18882
#
# Compressibility (1/GPa) = 0.02405425
#
# Stress axis : x y z
#
# Youngs Moduli (GPa) = 79.90831 92.72094 155.09836
#
# Poissons Ratio (x) = 0.03434 0.19096
# Poissons Ratio (y) = 0.02959 0.19306
# Poissons Ratio (z) = 0.09839 0.11542
#
# Static dielectric constant tensor:
#      x y z
#    x 2.018220 -0.032920 -0.059870 
#    y -0.032920 2.053920 -0.016530 
#    z -0.059870 -0.016530 2.166970 
# 
# From -- ./inp_files/3056.got.cif
#   From: 2010.05.17/outbox.cif.g08.bks.cpg/sg1_2_cif.got.tgz:3056.got - 2010.05.17 20:27:59.
