data_PCOD9000392
_publ_section_title
;
Structure prediction by ZEFSAII (Michael W. Deem and Ramdas Pophale) SiO2 
 PCOD9000392
Probable space group: P 1
;
_chemical_formula_sum "Si O2"
_cell_formula_units_Z 8
_cell_length_a 7.735367
_cell_length_b 5.062096
_cell_length_c 11.975270
_cell_angle_alpha 94.526146
_cell_angle_beta 137.949891
_cell_angle_gamma 89.468511
_cell_volume 312.236963
_symmetry_space_group_name_H-M "P 1"
_symmetry_group_IT_number 1
_symmetry_cell_setting 'triclinic'
loop_
_space_group_symop_operation_xyz
x,y,z
loop_
_atom_site_type_symbol
_atom_site_label
_atom_site_fract_x
_atom_site_fract_y
_atom_site_fract_z
Si Si1 0.364490 0.475040 0.198580
Si Si2 0.161851 0.301566 0.857159
Si Si3 0.200169 0.186072 0.316973
Si Si4 0.177758 0.961319 0.520807
Si Si5 0.670742 0.234969 0.011105
Si Si6 0.956748 0.469388 0.530379
Si Si7 0.834871 0.713155 0.966281
Si Si8 0.639630 0.311419 0.688885
O O1 0.284429 0.217413 0.229135
O O2 0.663283 0.548303 0.372056
O O3 0.313196 0.437790 0.040413
O O4 0.134689 0.658932 0.127372
O O5 0.053561 0.461676 0.705103
O O6 0.752556 0.588129 0.803831
O O7 0.894852 0.166382 0.773124
O O8 0.172668 0.936769 0.382102
O O9 0.445808 0.351412 0.496517
O O10 0.920962 0.297274 0.211953
O O11 0.389457 0.133430 0.914591
O O12 0.984998 0.171387 0.485628
O O13 0.136194 0.685840 0.554785
O O14 0.453976 0.127988 0.674265
O O15 0.788838 0.005551 0.988871
O O16 0.658397 0.514739 0.954236
#
# Coordination Sequence:
#
# PCOD9000392 Si02
#       8
#     1   1   1   1   1   1   1   1
#     4  10  23  48  82 113 158 203 260 321 388 466
#     4  11  24  45  81 117 157 199 259 324 394 458
#     4   9  21  48  77 109 154 208 255 311 389 462
#     4  10  25  43  77 105 153 205 253 311 383 458
#     4  11  24  45  75 113 151 200 253 316 384 457
#     4  12  24  48  73 118 153 195 258 321 383 455
#     4  10  24  46  76 108 153 200 254 313 384 459
#     4   9  21  49  73 113 145 208 252 313 381 461
#
# _framework density 25.621563999999999
#
# number of rings (size 3 to 8) (size 9 to 14) (size 15 to 20)
#    0.750    1.000    1.250    1.500    0.000    9.000 
#    0.000   22.500    0.000    0.000    0.000    0.000 
#    0.000    0.000    0.000    0.000    0.000    0.000 
#
# Total GULP energy -44588.016687 kJ/mol
# GULP energy per Si atom -5573.502086 kJ/mol
# Density = 2.556325 g / cm^3
# Si number density = 25.621564 Si / 1000 Ang^3
#
#
#
# Elastic Constant Matrix: (Units=GPa)
#
#
# Indices 1 2 3 4 5 6 
#
# 1 125.3053 12.4087 64.2623 7.4898 30.2511 6.0185
# 2 12.4087 82.2713 26.7692 9.5361 -7.9337 15.4121
# 3 64.2623 26.7692 172.5976 -1.4042 14.7369 1.9805
# 4 7.4898 9.5361 -1.4042 21.2837 11.9369 -2.1568
# 5 30.2511 -7.9337 14.7369 11.9369 76.5771 -7.1017
# 6 6.0185 15.4121 1.9805 -2.1568 -7.1017 29.4255
#
#
#
# Elastic Compliance Matrix: (Units=1/GPa)
#
#
# Indices 1 2 3 4 5 6 
#
# 1 0.011084 0.000110 -0.003828 -0.002542 -0.003522 -0.003103
# 2 0.000110 0.016003 -0.002758 -0.009863 0.002919 -0.008237
# 3 -0.003828 -0.002758 0.007712 0.003644 -0.000657 0.001817
# 4 -0.002542 -0.009863 0.003644 0.058420 -0.009128 0.007519
# 5 -0.003522 0.002919 -0.000657 -0.009128 0.016539 0.002558
# 6 -0.003103 -0.008237 0.001817 0.007519 0.002558 0.039980
#
#
# Mechanical properties :
#
#
# Convention : Reuss Voigt Hill
#
# Bulk Modulus (GPa) = 45.77240 65.22827 55.50034
# Shear Modulus (GPa) = 29.41642 43.90619 36.66131
#
# Velocity S-wave (km/s) = 3.39206 4.14411 3.78680
# Velocity P-wave (km/s) = 5.76584 6.95786 6.38971
#
# Compressibility (1/GPa) = 0.02184723
#
# Stress axis : x y z
#
# Youngs Moduli (GPa) = 90.21801 62.48634 129.67012
#
# Poissons Ratio (x) = -0.00689 0.49642
# Poissons Ratio (y) = -0.00994 0.35763
# Poissons Ratio (z) = 0.34539 0.17234
#
# Static dielectric constant tensor:
#      x y z
#    x 2.062920 -0.026290 -0.068280 
#    y -0.026290 1.991540 -0.005500 
#    z -0.068280 -0.005500 2.199350 
# 
# From -- ./inp_files/6267.got.cif
#   From: 2010.05.17/outbox.cif.g08.bks.cpg/sg1_4_cif.got.tgz:6267.got - 2010.05.17 20:27:59.
