data_PCOD9000370
_publ_section_title
;
Structure prediction by ZEFSAII (Michael W. Deem and Ramdas Pophale) SiO2 
 PCOD9000370
Probable space group: P 1
;
_chemical_formula_sum "Si O2"
_cell_formula_units_Z 8
_cell_length_a 10.668093
_cell_length_b 6.860727
_cell_length_c 7.030900
_cell_angle_alpha 68.227702
_cell_angle_beta 42.250161
_cell_angle_gamma 70.146579
_cell_volume 319.569019
_symmetry_space_group_name_H-M "P 1"
_symmetry_group_IT_number 1
_symmetry_cell_setting 'triclinic'
loop_
_space_group_symop_operation_xyz
x,y,z
loop_
_atom_site_type_symbol
_atom_site_label
_atom_site_fract_x
_atom_site_fract_y
_atom_site_fract_z
Si Si1 0.265930 0.759470 0.375000
Si Si2 0.553110 0.400277 0.276665
Si Si3 0.422788 0.006609 0.447796
Si Si4 0.920348 0.550447 0.741433
Si Si5 0.022622 0.636791 0.164971
Si Si6 0.433658 0.639539 0.824968
Si Si7 0.751180 0.346032 0.457913
Si Si8 0.030034 0.117574 0.003274
O O1 0.354835 0.535113 0.438760
O O2 0.047289 0.725425 0.615947
O O3 0.328478 0.937214 0.382468
O O4 0.356850 0.752808 0.064218
O O5 0.552124 0.193955 0.221832
O O6 0.617217 0.315087 0.441439
O O7 0.698017 0.572018 0.008540
O O8 0.254734 0.092831 0.750201
O O9 0.515191 0.801467 0.528508
O O10 0.957488 0.561650 0.471057
O O11 0.974183 0.311892 0.850627
O O12 0.895575 0.522758 0.205563
O O13 0.246386 0.578078 0.951628
O O14 0.987841 0.884551 0.076486
O O15 0.595094 0.447807 0.743570
O O16 0.914682 0.152200 0.320236
#
# Coordination Sequence:
#
# PCOD9000370 Si02
#       8
#     1   1   1   1   1   1   1   1
#     4  11  23  49  71 102 141 186 237 300 349 426
#     4  11  24  41  70 106 137 186 235 294 356 422
#     4  11  24  46  71 104 146 188 235 293 363 422
#     4  10  23  46  70 101 141 181 244 286 352 425
#     4  10  24  47  68 104 144 186 236 298 350 426
#     4  10  24  45  74 100 138 189 235 289 361 417
#     4  11  24  42  73 103 145 185 232 298 355 424
#     4  10  24  42  73 102 138 189 236 284 362 418
#
# _framework density 25.033716999999999
#
# number of rings (size 3 to 8) (size 9 to 14) (size 15 to 20)
#    0.000    1.500    2.500    0.750   12.250    0.000 
#   11.250    0.000    0.000    0.000    0.000    0.000 
#    0.000    0.000    0.000    0.000    0.000    0.000 
#
# Total GULP energy -44576.610271 kJ/mol
# GULP energy per Si atom -5572.076284 kJ/mol
# Density = 2.497674 g / cm^3
# Si number density = 25.033717 Si / 1000 Ang^3
#
#
#
# Elastic Constant Matrix: (Units=GPa)
#
#
# Indices 1 2 3 4 5 6 
#
# 1 101.9066 54.4101 43.5366 -13.8666 -3.7381 23.3852
# 2 54.4101 88.5995 30.9261 -10.2080 -6.9984 30.6563
# 3 43.5366 30.9261 97.2815 10.8755 7.2476 14.5939
# 4 -13.8666 -10.2080 10.8755 37.3009 -2.9978 -8.9091
# 5 -3.7381 -6.9984 7.2476 -2.9978 46.8319 -10.3211
# 6 23.3852 30.6563 14.5939 -8.9091 -10.3211 43.2466
#
#
#
# Elastic Compliance Matrix: (Units=1/GPa)
#
#
# Indices 1 2 3 4 5 6 
#
# 1 0.017517 -0.007652 -0.006178 0.006271 0.001546 -0.000303
# 2 -0.007652 0.019863 -0.001705 0.000997 0.000703 -0.008995
# 3 -0.006178 -0.001705 0.015371 -0.008418 -0.004421 -0.003427
# 4 0.006271 0.000997 -0.008418 0.034024 0.005698 0.007113
# 5 0.001546 0.000703 -0.004421 0.005698 0.024196 0.007106
# 6 -0.000303 -0.008995 -0.003427 0.007113 0.007106 0.033981
#
#
# Mechanical properties :
#
#
# Convention : Reuss Voigt Hill
#
# Bulk Modulus (GPa) = 46.11929 60.61481 53.36705
# Shear Modulus (GPa) = 27.28535 36.07019 31.67777
#
# Velocity S-wave (km/s) = 3.30501 3.79999 3.56111
# Velocity P-wave (km/s) = 5.74691 6.59690 6.18652
#
# Compressibility (1/GPa) = 0.02168290
#
# Stress axis : x y z
#
# Youngs Moduli (GPa) = 57.08714 50.34387 65.05860
#
# Poissons Ratio (x) = 0.38522 0.40192
# Poissons Ratio (y) = 0.43682 0.11090
# Poissons Ratio (z) = 0.35267 0.08582
#
# Static dielectric constant tensor:
#      x y z
#    x 1.993480 0.013310 0.018290 
#    y 0.013310 1.989930 0.053180 
#    z 0.018290 0.053180 2.058870 
# 
# From -- ./inp_files/3230.got.cif
#   From: 2010.05.17/outbox.cif.g08.bks.cpg/sg1_2_cif.got.tgz:3230.got - 2010.05.17 20:27:59.
