data_PCOD9000808
_publ_section_title
;
Structure prediction by ZEFSAII (Michael W. Deem and Ramdas Pophale) SiO2 
 PCOD9000808
Probable space group: P 1
;
_chemical_formula_sum "Si O2"
_cell_formula_units_Z 8
_cell_length_a 7.617896
_cell_length_b 9.465445
_cell_length_c 5.655084
_cell_angle_alpha 89.122490
_cell_angle_beta 121.023741
_cell_angle_gamma 112.876740
_cell_volume 312.987142
_symmetry_space_group_name_H-M "P 1"
_symmetry_group_IT_number 1
_symmetry_cell_setting 'triclinic'
loop_
_space_group_symop_operation_xyz
x,y,z
loop_
_atom_site_type_symbol
_atom_site_label
_atom_site_fract_x
_atom_site_fract_y
_atom_site_fract_z
Si Si1 0.788040 0.781160 0.356620
Si Si2 0.947159 0.121097 0.026889
Si Si3 0.907569 0.376939 0.728626
Si Si4 0.269455 0.711562 0.970974
Si Si5 0.250398 0.089645 0.573197
Si Si6 0.298362 0.806226 0.485091
Si Si7 0.694634 0.288494 0.081201
Si Si8 0.726174 0.745789 0.813648
O O1 0.545847 0.793690 0.173869
O O2 0.774180 0.694128 0.595288
O O3 0.773476 0.692151 0.101594
O O4 0.003835 0.954183 0.489069
O O5 0.191318 0.179507 0.321605
O O6 0.794720 0.160490 0.111650
O O7 0.938747 0.218835 0.792546
O O8 0.859148 0.937766 0.913090
O O9 0.788838 0.369414 0.395149
O O10 0.779689 0.382712 0.886162
O O11 0.155713 0.524165 0.900972
O O12 0.189438 0.764367 0.152482
O O13 0.188584 0.755948 0.668884
O O14 0.380788 0.993464 0.552314
O O15 0.420611 0.200287 0.883238
O O16 0.466756 0.723778 0.615864
#
# Coordination Sequence:
#
# PCOD9000808 Si02
#       8
#     1   1   1   1   1   1   1   1
#     4   9  21  33  60  89 121 159 197 261 302 368
#     4   9  22  37  63  94 125 163 203 264 316 372
#     4  10  22  42  64  87 128 179 213 245 312 378
#     4  10  21  41  64  87 126 177 213 242 310 387
#     4  11  22  41  66 106 124 157 210 274 333 368
#     4  10  20  35  62  93 123 163 204 264 309 370
#     4  10  23  39  64  98 124 169 203 269 318 372
#     4   9  17  34  53  86 123 153 199 245 316 361
#
# _framework density 25.560155999999999
#
# number of rings (size 3 to 8) (size 9 to 14) (size 15 to 20)
#    0.750    1.500    1.250    0.750    3.500    6.000 
#    0.000    1.250    2.750    0.000    0.000    0.000 
#    0.000    0.000    0.000    0.000    0.000    0.000 
#
# Total GULP energy -44611.543027 kJ/mol
# GULP energy per Si atom -5576.442878 kJ/mol
# Density = 2.550198 g / cm^3
# Si number density = 25.560156 Si / 1000 Ang^3
#
#
#
# Elastic Constant Matrix: (Units=GPa)
#
#
# Indices 1 2 3 4 5 6 
#
# 1 107.4270 10.1474 58.5854 -4.0614 -14.0901 17.2208
# 2 10.1474 66.2862 50.0004 -0.1651 2.4729 10.0761
# 3 58.5854 50.0004 205.1331 -29.3832 -41.0140 23.8123
# 4 -4.0614 -0.1651 -29.3832 40.5797 16.4581 -5.2120
# 5 -14.0901 2.4729 -41.0140 16.4581 48.6525 3.4513
# 6 17.2208 10.0761 23.8123 -5.2120 3.4513 20.2438
#
#
#
# Elastic Compliance Matrix: (Units=1/GPa)
#
#
# Indices 1 2 3 4 5 6 
#
# 1 0.012406 0.001398 -0.002621 -0.003098 0.003034 -0.009482
# 2 0.001398 0.020347 -0.006246 -0.002930 -0.004625 -0.003935
# 3 -0.002621 -0.006246 0.009805 0.003003 0.007281 -0.006664
# 4 -0.003098 -0.002930 0.003003 0.031764 -0.009699 0.010393
# 5 0.003034 -0.004625 0.007281 -0.009699 0.032281 -0.016844
# 6 -0.009482 -0.003935 -0.006664 0.010393 -0.016844 0.072808
#
#
# Mechanical properties :
#
#
# Convention : Reuss Voigt Hill
#
# Bulk Modulus (GPa) = 36.20420 68.47917 52.34169
# Shear Modulus (GPa) = 24.56306 39.23607 31.89956
#
# Velocity S-wave (km/s) = 3.10335 3.92222 3.53656
# Velocity P-wave (km/s) = 5.19962 6.88195 6.09907
#
# Compressibility (1/GPa) = 0.02762110
#
# Stress axis : x y z
#
# Youngs Moduli (GPa) = 80.60310 49.14685 101.98526
#
# Poissons Ratio (x) = -0.06871 0.26726
# Poissons Ratio (y) = -0.11268 0.63703
# Poissons Ratio (z) = 0.21123 0.30699
#
# Static dielectric constant tensor:
#      x y z
#    x 2.133860 0.045320 0.006820 
#    y 0.045320 1.974050 -0.050630 
#    z 0.006820 -0.050630 2.052220 
# 
# From -- ./inp_files/1557.got.cif
#   From: 2010.05.17/outbox.cif.g08.bks.cpg/sg1_1_cif.got.tgz:1557.got - 2010.05.17 20:27:59.
