data_PCOD9000003
_publ_section_title
;
Structure prediction by ZEFSAII (Michael W. Deem and Ramdas Pophale) SiO2 
 PCOD9000003
Probable space group: P 1
;
_chemical_formula_sum "Si O2"
_cell_formula_units_Z 6
_cell_length_a 10.596416
_cell_length_b 7.864192
_cell_length_c 6.986690
_cell_angle_alpha 139.518396
_cell_angle_beta 42.766157
_cell_angle_gamma 134.848555
_cell_volume 241.990734
_symmetry_space_group_name_H-M "P 1"
_symmetry_group_IT_number 1
_symmetry_cell_setting 'triclinic'
loop_
_space_group_symop_operation_xyz
x,y,z
loop_
_atom_site_type_symbol
_atom_site_label
_atom_site_fract_x
_atom_site_fract_y
_atom_site_fract_z
Si Si1 0.092980 0.217360 0.300270
Si Si2 0.491078 0.686337 0.380916
Si Si3 0.071156 0.792551 0.262437
Si Si4 0.679051 0.263052 0.795509
Si Si5 0.227012 0.306868 0.799460
Si Si6 0.650691 0.594804 0.750201
O O1 0.276762 0.475926 0.389505
O O2 0.889344 0.258150 0.618777
O O3 0.114728 0.207891 0.040467
O O4 0.197238 0.040298 0.473588
O O5 0.845956 0.729176 0.527775
O O6 0.523916 0.953731 0.701892
O O7 0.594711 0.779753 0.137051
O O8 0.094935 0.932261 0.147705
O O9 0.604972 0.489628 0.174329
O O10 0.137102 0.525185 0.989739
O O11 0.690880 0.368567 0.653150
O O12 0.453827 0.459274 0.732971
#
# Coordination Sequence:
#
# PCOD9000003 Si02
#       6
#     1   1   1   1   1   1
#     4  11  25  44  73  96 136 176 220 276 330 393
#     4   9  22  38  65  95 125 176 214 259 336 383
#     4  12  27  43  69 105 127 178 227 265 336 396
#     4  10  21  39  68  92 128 175 215 263 334 382
#     4  11  26  46  67  96 142 172 218 279 326 392
#     4   9  23  40  68  92 134 173 214 272 332 380
#
# _framework density 24.794339000000001
#
# number of rings (size 3 to 8) (size 9 to 14) (size 15 to 20)
#    1.000    0.667    1.667    1.000    4.667    8.000 
#    0.000    0.000    0.000    0.000    0.000    0.000 
#    0.000    0.000    0.000    0.000    0.000    0.000 
#
# Total GULP energy -33598.114554 kJ/mol
# GULP energy per Si atom -5599.685759 kJ/mol
# Density = 2.473791 g / cm^3
# Si number density = 24.794339 Si / 1000 Ang^3
#
#
#
# Elastic Constant Matrix: (Units=GPa)
#
#
# Indices 1 2 3 4 5 6 
#
# 1 117.0196 30.2008 16.4431 -18.1079 -13.3757 -3.2484
# 2 30.2008 103.7544 30.5118 -3.2749 5.2357 -20.7734
# 3 16.4431 30.5118 74.6938 5.3865 10.8496 -15.3610
# 4 -18.1079 -3.2749 5.3865 33.7940 -2.0466 2.3557
# 5 -13.3757 5.2357 10.8496 -2.0466 23.7907 -11.5410
# 6 -3.2484 -20.7734 -15.3610 2.3557 -11.5410 45.4359
#
#
#
# Elastic Compliance Matrix: (Units=1/GPa)
#
#
# Indices 1 2 3 4 5 6 
#
# 1 0.011948 -0.002628 -0.003368 0.007232 0.009753 0.000616
# 2 -0.002628 0.012286 -0.003515 0.000022 -0.000593 0.004089
# 3 -0.003368 -0.003515 0.017679 -0.005639 -0.008580 0.002242
# 4 0.007232 0.000022 -0.005639 0.034985 0.009231 -0.000849
# 5 0.009753 -0.000593 -0.008580 0.009231 0.058078 0.011799
# 6 0.000616 0.004089 0.002242 -0.000849 0.011799 0.027722
#
#
# Mechanical properties :
#
#
# Convention : Reuss Voigt Hill
#
# Bulk Modulus (GPa) = 43.68371 49.97549 46.82960
# Shear Modulus (GPa) = 26.40606 35.15827 30.78217
#
# Velocity S-wave (km/s) = 3.26698 3.76971 3.52731
# Velocity P-wave (km/s) = 5.64691 6.25679 5.95965
#
# Compressibility (1/GPa) = 0.02289183
#
# Stress axis : x y z
#
# Youngs Moduli (GPa) = 83.69563 81.39343 56.56321
#
# Poissons Ratio (x) = 0.21388 0.19052
# Poissons Ratio (y) = 0.21993 0.19881
# Poissons Ratio (z) = 0.28191 0.28608
#
# Static dielectric constant tensor:
#      x y z
#    x 1.928330 -0.004310 -0.003950 
#    y -0.004310 1.941740 -0.058410 
#    z -0.003950 -0.058410 2.011720 
# 
# From -- ./inp_files/909.got.cif
#   From: 2010.05.17/outbox.cif.g08.bks.cpg/sg1_1_cif.got.tgz:909.got - 2010.05.17 20:27:59.
