data_PCOD9000701
_publ_section_title
;
Structure prediction by ZEFSAII (Michael W. Deem and Ramdas Pophale) SiO2 
 PCOD9000701
Probable space group: P 1
;
_chemical_formula_sum "Si O2"
_cell_formula_units_Z 8
_cell_length_a 6.471373
_cell_length_b 8.931267
_cell_length_c 8.287459
_cell_angle_alpha 131.444819
_cell_angle_beta 79.130244
_cell_angle_gamma 78.022611
_cell_volume 314.629298
_symmetry_space_group_name_H-M "P 1"
_symmetry_group_IT_number 1
_symmetry_cell_setting 'triclinic'
loop_
_space_group_symop_operation_xyz
x,y,z
loop_
_atom_site_type_symbol
_atom_site_label
_atom_site_fract_x
_atom_site_fract_y
_atom_site_fract_z
Si Si1 0.457200 0.508120 0.142400
Si Si2 0.302197 0.693415 0.615083
Si Si3 0.286921 0.703826 0.984545
Si Si4 0.709768 0.815881 0.294302
Si Si5 0.892867 0.184585 0.032496
Si Si6 0.791769 0.616634 0.814631
Si Si7 0.810081 0.149684 0.381264
Si Si8 0.842811 0.630610 0.467477
O O1 0.295775 0.556570 0.359499
O O2 0.523959 0.716945 0.274156
O O3 0.346052 0.530174 0.999391
O O4 0.698096 0.287878 0.993887
O O5 0.279402 0.614347 0.742101
O O6 0.569570 0.667227 0.553634
O O7 0.117014 0.951829 0.803118
O O8 0.509457 0.760692 0.972580
O O9 0.064747 0.939213 0.219834
O O10 0.634039 0.067422 0.429753
O O11 0.833917 0.782106 0.425861
O O12 0.868471 0.662012 0.011211
O O13 0.970578 0.376107 0.203358
O O14 0.773078 0.165585 0.205052
O O15 0.886840 0.674760 0.677347
O O16 0.819203 0.367194 0.606266
#
# Coordination Sequence:
#
# PCOD9000701 Si02
#       8
#     1   1   1   1   1   1   1   1
#     4   9  18  32  52  74 100 136 171 206 255 307
#     4   8  14  28  49  72  99 133 168 208 251 298
#     4   9  18  32  52  77 102 133 174 211 251 308
#     4   9  18  34  53  77 105 132 172 216 253 305
#     4   8  15  29  51  72  98 135 169 204 254 305
#     4   9  18  36  55  71 105 143 166 210 263 299
#     4  10  19  34  56  80 104 135 176 214 256 310
#     4   8  16  31  50  73 103 133 168 211 253 302
#
# _framework density 25.426750999999999
#
# number of rings (size 3 to 8) (size 9 to 14) (size 15 to 20)
#    0.000    3.500    0.000    0.750    0.000    3.000 
#    0.000   15.000    0.000   15.000    0.000    0.000 
#    0.000    0.000    0.000    0.000    0.000    0.000 
#
# Total GULP energy -44638.457053 kJ/mol
# GULP energy per Si atom -5579.807132 kJ/mol
# Density = 2.536888 g / cm^3
# Si number density = 25.426751 Si / 1000 Ang^3
#
#
#
# Elastic Constant Matrix: (Units=GPa)
#
#
# Indices 1 2 3 4 5 6 
#
# 1 67.5523 34.9827 31.5561 3.4376 18.1038 -18.8660
# 2 34.9827 168.3282 57.9200 -29.9618 16.6687 -23.0844
# 3 31.5561 57.9200 139.5631 -7.1610 8.0218 -11.2377
# 4 3.4376 -29.9618 -7.1610 67.3343 -6.4479 7.5384
# 5 18.1038 16.6687 8.0218 -6.4479 33.2311 -10.9514
# 6 -18.8660 -23.0844 -11.2377 7.5384 -10.9514 52.7884
#
#
#
# Elastic Compliance Matrix: (Units=1/GPa)
#
#
# Indices 1 2 3 4 5 6 
#
# 1 0.021458 -0.002583 -0.003101 -0.003941 -0.008896 0.004597
# 2 -0.002583 0.008212 -0.002481 0.003262 -0.000997 0.001467
# 3 -0.003101 -0.002481 0.008843 0.000086 0.000761 -0.000165
# 4 -0.003941 0.003262 0.000086 0.017015 0.003223 -0.001725
# 5 -0.008896 -0.000997 0.000761 0.003223 0.037129 0.003789
# 6 0.004597 0.001467 -0.000165 -0.001725 0.003789 0.022225
#
#
# Mechanical properties :
#
#
# Convention : Reuss Voigt Hill
#
# Bulk Modulus (GPa) = 45.07826 69.37346 57.22586
# Shear Modulus (GPa) = 36.07365 47.40309 41.73837
#
# Velocity S-wave (km/s) = 3.77069 4.32244 4.05596
# Velocity P-wave (km/s) = 6.06008 7.22870 6.67004
#
# Compressibility (1/GPa) = 0.02218364
#
# Stress axis : x y z
#
# Youngs Moduli (GPa) = 46.60375 121.77496 113.07876
#
# Poissons Ratio (x) = 0.31451 0.35061
# Poissons Ratio (y) = 0.12036 0.28057
# Poissons Ratio (z) = 0.14450 0.30215
#
# Static dielectric constant tensor:
#      x y z
#    x 2.240380 -0.035660 -0.032140 
#    y -0.035660 2.039420 -0.078860 
#    z -0.032140 -0.078860 2.008380 
# 
# From -- ./inp_files/4376.got.cif
#   From: 2010.05.17/outbox.cif.g08.bks.cpg/sg1_3_cif.got.tgz:4376.got - 2010.05.17 20:27:59.
