data_PCOD9000774
_publ_section_title
;
Structure prediction by ZEFSAII (Michael W. Deem and Ramdas Pophale) SiO2 
 PCOD9000774
Probable space group: P 1
;
_chemical_formula_sum "Si O2"
_cell_formula_units_Z 8
_cell_length_a 9.186210
_cell_length_b 7.083762
_cell_length_c 9.282868
_cell_angle_alpha 88.662680
_cell_angle_beta 132.785248
_cell_angle_gamma 113.867837
_cell_volume 375.869380
_symmetry_space_group_name_H-M "P 1"
_symmetry_group_IT_number 1
_symmetry_cell_setting 'triclinic'
loop_
_space_group_symop_operation_xyz
x,y,z
loop_
_atom_site_type_symbol
_atom_site_label
_atom_site_fract_x
_atom_site_fract_y
_atom_site_fract_z
Si Si1 0.785430 0.075450 0.637330
Si Si2 0.560208 0.221592 0.072221
Si Si3 0.557202 0.344166 0.537321
Si Si4 0.535924 0.540839 0.820024
Si Si5 0.022665 0.331187 0.499444
Si Si6 0.544861 0.648977 0.310916
Si Si7 0.746548 0.919108 0.153505
Si Si8 0.206382 0.174932 0.077764
O O1 0.690467 0.216027 0.643073
O O2 0.947816 0.217502 0.607937
O O3 0.580216 0.848084 0.431553
O O4 0.942318 0.033964 0.852336
O O5 0.519755 0.354777 0.920819
O O6 0.820723 0.373369 0.313338
O O7 0.369285 0.150022 0.070776
O O8 0.574705 0.015138 0.026317
O O9 0.560929 0.468466 0.680530
O O10 0.284830 0.436843 0.117342
O O11 0.301394 0.169326 0.299210
O O12 0.288532 0.524708 0.667041
O O13 0.731953 0.780675 0.008064
O O14 0.984095 0.137283 0.364380
O O15 0.655044 0.750715 0.230185
O O16 0.660475 0.532250 0.477232
#
# Coordination Sequence:
#
# PCOD9000774 Si02
#       8
#     1   1   1   1   1   1   1   1
#     4  11  19  40  65  82 116 155 195 241 286 331
#     4  10  20  39  62  88 113 149 201 241 279 342
#     4  10  24  38  58  89 122 153 189 235 293 351
#     4  12  21  42  57  86 128 150 182 247 294 337
#     4   9  20  38  62  89 107 152 201 236 284 338
#     4   9  19  40  59  85 116 147 201 239 274 349
#     4   9  20  38  61  86 115 147 203 239 277 347
#     4  10  19  41  58  87 117 149 200 238 279 343
#
# _framework density 21.283989999999999
#
# number of rings (size 3 to 8) (size 9 to 14) (size 15 to 20)
#    1.500    0.500    3.750    0.000    0.000    2.000 
#   13.500    0.000    0.000    0.000    0.000    0.000 
#    0.000    0.000    0.000    0.000    0.000    0.000 
#
# Total GULP energy -44550.177448 kJ/mol
# GULP energy per Si atom -5568.772181 kJ/mol
# Density = 2.123555 g / cm^3
# Si number density = 21.283990 Si / 1000 Ang^3
#
#
#
# Elastic Constant Matrix: (Units=GPa)
#
#
# Indices 1 2 3 4 5 6 
#
# 1 60.0419 21.3018 35.9355 -5.3593 -18.9541 -17.4657
# 2 21.3018 39.9102 12.4587 4.5905 -5.2026 -16.3390
# 3 35.9355 12.4587 106.4773 -3.2402 -14.8548 -10.4450
# 4 -5.3593 4.5905 -3.2402 35.1421 -9.2423 -0.8583
# 5 -18.9541 -5.2026 -14.8548 -9.2423 32.3830 5.9477
# 6 -17.4657 -16.3390 -10.4450 -0.8583 5.9477 23.6622
#
#
#
# Elastic Compliance Matrix: (Units=1/GPa)
#
#
# Indices 1 2 3 4 5 6 
#
# 1 0.033265 -0.010389 -0.006425 0.010252 0.015769 0.010952
# 2 -0.010389 0.039163 -0.000111 -0.007739 -0.005815 0.020506
# 3 -0.006425 -0.000111 0.011845 0.000608 0.001834 -0.000030
# 4 0.010252 -0.007739 0.000608 0.035042 0.015041 -0.000017
# 5 0.015769 -0.005815 0.001834 0.015041 0.044726 -0.002263
# 6 0.010952 0.020506 -0.000030 -0.000017 -0.002263 0.065060
#
#
# Mechanical properties :
#
#
# Convention : Reuss Voigt Hill
#
# Bulk Modulus (GPa) = 19.83267 38.42463 29.12865
# Shear Modulus (GPa) = 17.87250 27.35301 22.61276
#
# Velocity S-wave (km/s) = 2.90093 3.58878 3.26303
# Velocity P-wave (km/s) = 4.53419 5.93843 5.28317
#
# Compressibility (1/GPa) = 0.05042185
#
# Stress axis : x y z
#
# Youngs Moduli (GPa) = 30.06137 25.53408 84.42709
#
# Poissons Ratio (x) = 0.26528 0.54244
# Poissons Ratio (y) = 0.31232 0.00940
# Poissons Ratio (z) = 0.19314 0.00284
#
# Static dielectric constant tensor:
#      x y z
#    x 1.753210 0.010620 -0.011770 
#    y 0.010620 1.772310 0.013090 
#    z -0.011770 0.013090 1.794340 
# 
# From -- ./inp_files/3904.got.cif
#   From: 2010.05.17/outbox.cif.g08.bks.cpg/sg1_2_cif.got.tgz:3904.got - 2010.05.17 20:27:59.
