data_PCOD9000881
_publ_section_title
;
Structure prediction by ZEFSAII (Michael W. Deem and Ramdas Pophale) SiO2 
 PCOD9000881
Probable space group: P 1
;
_chemical_formula_sum "Si O2"
_cell_formula_units_Z 8
_cell_length_a 7.598017
_cell_length_b 9.219227
_cell_length_c 7.171316
_cell_angle_alpha 73.319608
_cell_angle_beta 123.695655
_cell_angle_gamma 72.585677
_cell_volume 327.462102
_symmetry_space_group_name_H-M "P 1"
_symmetry_group_IT_number 1
_symmetry_cell_setting 'triclinic'
loop_
_space_group_symop_operation_xyz
x,y,z
loop_
_atom_site_type_symbol
_atom_site_label
_atom_site_fract_x
_atom_site_fract_y
_atom_site_fract_z
Si Si1 0.204090 0.608490 0.142910
Si Si2 0.102611 0.987382 0.936785
Si Si3 0.767376 0.292336 0.130807
Si Si4 0.775775 0.385448 0.528790
Si Si5 0.292221 0.953758 0.662426
Si Si6 0.764677 0.609097 0.909652
Si Si7 0.494955 0.970886 0.436338
Si Si8 0.304362 0.331202 0.971237
O O1 0.495872 0.540027 0.389680
O O2 0.066070 0.825770 0.949769
O O3 0.250266 0.479904 0.041048
O O4 0.011151 0.586307 0.163276
O O5 0.270272 0.975870 0.861847
O O6 0.840918 0.188743 0.706544
O O7 0.258619 0.968725 0.216655
O O8 0.762715 0.377972 0.299118
O O9 0.997284 0.076845 0.371708
O O10 0.822537 0.409810 0.982371
O O11 0.491753 0.327740 0.929042
O O12 0.030437 0.378243 0.727104
O O13 0.425694 0.031919 0.590301
O O14 0.489316 0.737293 0.807562
O O15 0.715260 0.750721 0.660259
O O16 0.478482 0.127229 0.246298
#
# Coordination Sequence:
#
# PCOD9000881 Si02
#       8
#     1   1   1   1   1   1   1   1
#     4  11  23  37  68  93 133 176 212 271 331 381
#     4  10  21  43  64  96 129 175 217 271 326 389
#     4  10  20  41  64  93 137 175 209 275 332 382
#     4   9  22  40  64  96 128 173 225 262 326 398
#     4   9  20  37  66  86 137 165 209 270 321 378
#     4  10  23  39  60 101 131 168 218 264 328 391
#     4   9  22  41  66  97 129 171 221 264 326 395
#     4  10  21  42  68  96 128 179 219 267 334 384
#
# _framework density 24.430311
#
# number of rings (size 3 to 8) (size 9 to 14) (size 15 to 20)
#    0.750    1.500    0.000    2.250    7.000    0.000 
#    2.250    3.750    0.000    0.000    0.000    0.000 
#    0.000    0.000    0.000    0.000    0.000    0.000 
#
# Total GULP energy -44566.926148 kJ/mol
# GULP energy per Si atom -5570.865769 kJ/mol
# Density = 2.437471 g / cm^3
# Si number density = 24.430311 Si / 1000 Ang^3
#
#
#
# Elastic Constant Matrix: (Units=GPa)
#
#
# Indices 1 2 3 4 5 6 
#
# 1 112.5350 31.0267 37.5514 -1.2502 19.8107 16.9024
# 2 31.0267 100.7313 29.9465 -14.8483 5.8928 17.3596
# 3 37.5514 29.9465 87.4134 -6.3266 21.0945 10.6526
# 4 -1.2502 -14.8483 -6.3266 39.1346 -2.7333 5.8279
# 5 19.8107 5.8928 21.0945 -2.7333 37.7903 1.3300
# 6 16.9024 17.3596 10.6526 5.8279 1.3300 41.3795
#
#
#
# Elastic Compliance Matrix: (Units=1/GPa)
#
#
# Indices 1 2 3 4 5 6 
#
# 1 0.011587 -0.002057 -0.003006 -0.000752 -0.004029 -0.002861
# 2 -0.002057 0.012898 -0.002899 0.005127 0.001218 -0.004585
# 3 -0.003006 -0.002899 0.015562 0.001088 -0.006527 -0.001506
# 4 -0.000752 0.005127 0.001088 0.028663 0.001279 -0.006202
# 5 -0.004029 0.001218 -0.006527 0.001279 0.032063 0.001605
# 6 -0.002861 -0.004585 -0.001506 -0.006202 0.001605 0.028468
#
#
# Mechanical properties :
#
#
# Convention : Reuss Voigt Hill
#
# Bulk Modulus (GPa) = 41.45654 55.30321 48.37988
# Shear Modulus (GPa) = 32.63573 37.13787 34.88680
#
# Velocity S-wave (km/s) = 3.65892 3.90315 3.78301
# Velocity P-wave (km/s) = 5.90393 6.55736 6.23921
#
# Compressibility (1/GPa) = 0.02412165
#
# Stress axis : x y z
#
# Youngs Moduli (GPa) = 86.30281 77.53366 64.26038
#
# Poissons Ratio (x) = 0.15952 0.19319
# Poissons Ratio (y) = 0.17756 0.18627
# Poissons Ratio (z) = 0.25946 0.22474
#
# Static dielectric constant tensor:
#      x y z
#    x 2.010010 -0.024190 0.007350 
#    y -0.024190 1.941290 0.002920 
#    z 0.007350 0.002920 2.007780 
# 
# From -- ./inp_files/4227.got.cif
#   From: 2010.05.17/outbox.cif.g08.bks.cpg/sg1_3_cif.got.tgz:4227.got - 2010.05.17 20:27:59.
