data_PCOD9000159
_publ_section_title
;
Structure prediction by ZEFSAII (Michael W. Deem and Ramdas Pophale) SiO2 
 PCOD9000159
Probable space group: P 1
;
_chemical_formula_sum "Si O2"
_cell_formula_units_Z 8
_cell_length_a 11.302382
_cell_length_b 5.218371
_cell_length_c 14.587051
_cell_angle_alpha 61.876386
_cell_angle_beta 28.477050
_cell_angle_gamma 67.777755
_cell_volume 360.445946
_symmetry_space_group_name_H-M "P 1"
_symmetry_group_IT_number 1
_symmetry_cell_setting 'triclinic'
loop_
_space_group_symop_operation_xyz
x,y,z
loop_
_atom_site_type_symbol
_atom_site_label
_atom_site_fract_x
_atom_site_fract_y
_atom_site_fract_z
Si Si1 0.719620 0.097960 0.785820
Si Si2 0.885783 0.237180 0.265792
Si Si3 0.394521 0.526201 0.523485
Si Si4 0.745415 0.012111 0.109256
Si Si5 0.063110 0.493924 0.927162
Si Si6 0.010074 0.226754 0.387686
Si Si7 0.867474 0.448235 0.804926
Si Si8 0.181192 0.814335 0.216208
O O1 0.812002 0.207645 0.605723
O O2 0.807549 0.324449 0.766308
O O3 0.826791 0.787212 0.784791
O O4 0.425367 0.024416 0.996730
O O5 0.611533 0.304964 0.410361
O O6 0.911731 0.322198 0.340225
O O7 0.081346 0.416043 0.035174
O O8 0.968438 0.911206 0.275158
O O9 0.294944 0.554500 0.690777
O O10 0.152093 0.418414 0.647700
O O11 0.519248 0.827715 0.344823
O O12 0.910815 0.203670 0.038381
O O13 0.696712 0.249434 0.025837
O O14 0.900999 0.772227 0.992964
O O15 0.215641 0.479740 0.235269
O O16 0.099944 0.910112 0.356771
#
# Coordination Sequence:
#
# PCOD9000159 Si02
#       8
#     1   1   1   1   1   1   1   1
#     4  12  25  46  69  95 132 178 224 267 324 385
#     4   9  24  41  70 102 131 170 218 269 332 391
#     4  10  23  45  68 101 134 172 210 276 335 393
#     4  10  23  43  62  97 134 173 216 261 329 389
#     4  10  22  40  65  99 135 169 213 260 331 400
#     4  10  24  44  67 103 126 176 223 264 333 380
#     4  11  25  43  69  99 131 174 222 270 326 392
#     4  10  24  44  64  96 133 172 218 273 312 382
#
# _framework density 22.194728999999999
#
# number of rings (size 3 to 8) (size 9 to 14) (size 15 to 20)
#    0.750    1.000    0.000    3.000    5.250    9.000 
#    0.000    5.000    0.000    0.000    0.000    0.000 
#    0.000    0.000    0.000    0.000    0.000    0.000 
#
# Total GULP energy -44617.047004 kJ/mol
# GULP energy per Si atom -5577.130875 kJ/mol
# Density = 2.214421 g / cm^3
# Si number density = 22.194729 Si / 1000 Ang^3
#
#
#
# Elastic Constant Matrix: (Units=GPa)
#
#
# Indices 1 2 3 4 5 6 
#
# 1 73.1425 17.3460 41.9486 -0.1894 11.8148 -12.5897
# 2 17.3460 82.3948 12.3617 -5.2090 -19.8786 8.6045
# 3 41.9486 12.3617 137.0295 -4.8132 23.3643 -3.8906
# 4 -0.1894 -5.2090 -4.8132 34.5397 -4.7586 3.2167
# 5 11.8148 -19.8786 23.3643 -4.7586 49.9232 -11.8020
# 6 -12.5897 8.6045 -3.8906 3.2167 -11.8020 44.4449
#
#
#
# Elastic Compliance Matrix: (Units=1/GPa)
#
#
# Indices 1 2 3 4 5 6 
#
# 1 0.018903 -0.004689 -0.004766 -0.002176 -0.003093 0.005182
# 2 -0.004689 0.015643 -0.001227 0.003461 0.007606 -0.002695
# 3 -0.004766 -0.001227 0.009550 0.000687 -0.004099 -0.001415
# 4 -0.002176 0.003461 0.000687 0.030317 0.003898 -0.002386
# 5 -0.003093 0.007606 -0.004099 0.003898 0.027074 0.004200
# 6 0.005182 -0.002695 -0.001415 -0.002386 0.004200 0.025653
#
#
# Mechanical properties :
#
#
# Convention : Reuss Voigt Hill
#
# Bulk Modulus (GPa) = 43.99165 48.43103 46.21134
# Shear Modulus (GPa) = 32.03405 40.50893 36.27149
#
# Velocity S-wave (km/s) = 3.80322 4.27682 4.04696
# Velocity P-wave (km/s) = 6.25698 6.80122 6.53477
#
# Compressibility (1/GPa) = 0.02273159
#
# Stress axis : x y z
#
# Youngs Moduli (GPa) = 52.90127 63.92476 104.70907
#
# Poissons Ratio (x) = 0.29977 0.49901
# Poissons Ratio (y) = 0.24808 0.12852
# Poissons Ratio (z) = 0.25211 0.07846
#
# Static dielectric constant tensor:
#      x y z
#    x 1.835130 -0.026700 -0.004820 
#    y -0.026700 1.827720 0.021710 
#    z -0.004820 0.021710 1.780960 
# 
# From -- ./inp_files/7212.got.cif
#   From: 2010.05.17/outbox.cif.g08.bks.cpg/sg1_4_cif.got.tgz:7212.got - 2010.05.17 20:27:59.
