data_PCOD9000265
_publ_section_title
;
Structure prediction by ZEFSAII (Michael W. Deem and Ramdas Pophale) SiO2 
 PCOD9000265
Probable space group: P 1
;
_chemical_formula_sum "Si O2"
_cell_formula_units_Z 6
_cell_length_a 7.376943
_cell_length_b 5.447417
_cell_length_c 6.820033
_cell_angle_alpha 65.408843
_cell_angle_beta 79.521313
_cell_angle_gamma 106.944427
_cell_volume 223.442122
_symmetry_space_group_name_H-M "P 1"
_symmetry_group_IT_number 1
_symmetry_cell_setting 'triclinic'
loop_
_space_group_symop_operation_xyz
x,y,z
loop_
_atom_site_type_symbol
_atom_site_label
_atom_site_fract_x
_atom_site_fract_y
_atom_site_fract_z
Si Si1 0.502140 0.169230 0.463980
Si Si2 0.882808 0.683667 0.778424
Si Si3 0.472538 0.183471 0.992926
Si Si4 0.213402 0.521954 0.877023
Si Si5 0.679718 0.786774 0.163669
Si Si6 0.927004 0.188464 0.342511
O O1 0.457283 0.144574 0.246585
O O2 0.509997 0.493284 0.394571
O O3 0.735904 0.236480 0.443896
O O4 0.367256 0.860565 0.694005
O O5 0.022506 0.505413 0.792125
O O6 0.985125 0.993794 0.548042
O O7 0.664571 0.485590 0.801818
O O8 0.823159 0.722270 0.000135
O O9 0.554668 0.934196 0.016388
O O10 0.291742 0.262164 0.924220
O O11 0.119384 0.465895 0.134242
O O12 0.822028 0.989024 0.237806
#
# Coordination Sequence:
#
# PCOD9000265 Si02
#       6
#     1   1   1   1   1   1
#     4  10  22  45  69 102 141 181 227 291 338 410
#     4  11  23  46  72 101 142 178 231 291 336 407
#     4  10  22  45  69 102 141 181 227 291 338 410
#     4  12  22  46  74  98 144 184 226 288 350 398
#     4  10  22  48  72 100 142 182 228 286 348 400
#     4  11  23  46  72 101 142 178 231 291 336 407
#
# _framework density 26.852592999999999
#
# number of rings (size 3 to 8) (size 9 to 14) (size 15 to 20)
#    0.000    1.333    6.667    1.000    0.000    1.333 
#   12.000    0.000    0.000    0.000    0.000    0.000 
#    0.000    0.000    0.000    0.000    0.000    0.000 
#
# Total GULP energy -33518.374797 kJ/mol
# GULP energy per Si atom -5586.395799 kJ/mol
# Density = 2.679148 g / cm^3
# Si number density = 26.852593 Si / 1000 Ang^3
#
#
#
# Elastic Constant Matrix: (Units=GPa)
#
#
# Indices 1 2 3 4 5 6 
#
# 1 120.3864 22.6185 23.3834 -2.0172 15.7504 -38.8683
# 2 22.6185 67.7950 26.1286 -11.1476 8.1584 -13.8594
# 3 23.3834 26.1286 220.5429 -33.4117 -8.9860 0.0151
# 4 -2.0172 -11.1476 -33.4117 43.6812 7.0437 14.7698
# 5 15.7504 8.1584 -8.9860 7.0437 54.8747 -15.4207
# 6 -38.8683 -13.8594 0.0151 14.7698 -15.4207 42.7601
#
#
#
# Elastic Compliance Matrix: (Units=1/GPa)
#
#
# Indices 1 2 3 4 5 6 
#
# 1 0.013412 -0.001931 -0.002130 -0.006409 0.000872 0.014094
# 2 -0.001931 0.017091 -0.001486 0.002738 -0.001985 0.002123
# 3 -0.002130 -0.001486 0.005750 0.005410 -0.000140 -0.004339
# 4 -0.006409 0.002738 0.005410 0.035475 -0.007864 -0.020029
# 5 0.000872 -0.001985 -0.000140 -0.007864 0.022322 0.010916
# 6 0.014094 0.002123 -0.004339 -0.020029 0.010916 0.047742
#
#
# Mechanical properties :
#
#
# Convention : Reuss Voigt Hill
#
# Bulk Modulus (GPa) = 39.74776 61.44282 50.59529
# Shear Modulus (GPa) = 31.00334 50.70281 40.85307
#
# Velocity S-wave (km/s) = 3.40159 4.35005 3.90472
# Velocity P-wave (km/s) = 5.50110 6.93986 6.26194
#
# Compressibility (1/GPa) = 0.02515865
#
# Stress axis : x y z
#
# Youngs Moduli (GPa) = 74.55926 58.51194 173.90083
#
# Poissons Ratio (x) = 0.11301 0.37033
# Poissons Ratio (y) = 0.14400 0.25846
# Poissons Ratio (z) = 0.15878 0.08696
#
# Static dielectric constant tensor:
#      x y z
#    x 2.089940 -0.024250 -0.009330 
#    y -0.024250 2.178620 0.016290 
#    z -0.009330 0.016290 2.108550 
# 
# From -- ./inp_files/863.got.cif
#   From: 2010.05.17/outbox.cif.g08.bks.cpg/sg1_1_cif.got.tgz:863.got - 2010.05.17 20:27:59.
