data_PCOD9000628
_publ_section_title
;
Structure prediction by ZEFSAII (Michael W. Deem and Ramdas Pophale) SiO2 
 PCOD9000628
Probable space group: P 1
;
_chemical_formula_sum "Si O2"
_cell_formula_units_Z 6
_cell_length_a 8.957308
_cell_length_b 5.032497
_cell_length_c 7.965545
_cell_angle_alpha 119.632291
_cell_angle_beta 125.699236
_cell_angle_gamma 59.949661
_cell_volume 241.731119
_symmetry_space_group_name_H-M "P 1"
_symmetry_group_IT_number 1
_symmetry_cell_setting 'triclinic'
loop_
_space_group_symop_operation_xyz
x,y,z
loop_
_atom_site_type_symbol
_atom_site_label
_atom_site_fract_x
_atom_site_fract_y
_atom_site_fract_z
Si Si1 0.697350 0.835050 0.657470
Si Si2 0.117050 0.779835 0.569596
Si Si3 0.267682 0.049877 0.442636
Si Si4 0.847993 0.414376 0.935061
Si Si5 0.700516 0.870911 0.292940
Si Si6 0.264528 0.088903 0.074941
O O1 0.482523 0.108527 0.203406
O O2 0.703397 0.720272 0.433687
O O3 0.482516 0.068486 0.616078
O O4 0.837035 0.055346 0.836406
O O5 0.127997 0.409853 0.481890
O O6 0.893091 0.981813 0.461411
O O7 0.226346 0.828684 0.489691
O O8 0.218557 0.887354 0.827893
O O9 0.261632 0.941168 0.212809
O O10 0.746500 0.623407 0.091869
O O11 0.071953 0.392382 0.050819
O O12 0.738689 0.572527 0.745864
#
# Coordination Sequence:
#
# PCOD9000628 Si02
#       6
#     1   1   1   1   1   1
#     4  11  26  48  74 107 144 188 238 293 354 422
#     4  12  26  47  74 107 146 183 240 296 350 420
#     4  11  26  48  74 107 144 188 238 293 354 422
#     4  12  26  47  74 107 146 183 240 296 350 420
#     4  11  26  47  76 106 142 191 238 289 358 422
#     4  11  26  47  76 106 142 191 238 289 358 422
#
# _framework density 24.820965999999999
#
# number of rings (size 3 to 8) (size 9 to 14) (size 15 to 20)
#    0.000    0.667    3.333    3.000    4.667    2.667 
#    0.000    5.000    0.000    0.000    0.000    0.000 
#    0.000    0.000    0.000    0.000    0.000    0.000 
#
# Total GULP energy -33556.837627 kJ/mol
# GULP energy per Si atom -5592.806271 kJ/mol
# Density = 2.476447 g / cm^3
# Si number density = 24.820966 Si / 1000 Ang^3
#
#
#
# Elastic Constant Matrix: (Units=GPa)
#
#
# Indices 1 2 3 4 5 6 
#
# 1 143.8852 23.5240 47.9947 -22.3770 5.9503 -30.4087
# 2 23.5240 58.4222 14.6557 -8.1580 -2.5509 -9.9674
# 3 47.9947 14.6557 131.8981 -24.2081 -12.1238 0.8196
# 4 -22.3770 -8.1580 -24.2081 35.1181 -4.7864 6.5061
# 5 5.9503 -2.5509 -12.1238 -4.7864 61.6510 -12.4559
# 6 -30.4087 -9.9674 0.8196 6.5061 -12.4559 44.0304
#
#
#
# Elastic Compliance Matrix: (Units=1/GPa)
#
#
# Indices 1 2 3 4 5 6 
#
# 1 0.009955 -0.001859 -0.002973 0.002715 -0.000188 0.006056
# 2 -0.001859 0.019013 -0.000896 0.002248 0.001602 0.003158
# 3 -0.002973 -0.000896 0.009995 0.005570 0.002109 -0.002668
# 4 0.002715 0.002248 0.005570 0.035387 0.003264 -0.002025
# 5 -0.000188 0.001602 0.002109 0.003264 0.017940 0.004786
# 6 0.006056 0.003158 -0.002668 -0.002025 0.004786 0.029312
#
#
# Mechanical properties :
#
#
# Convention : Reuss Voigt Hill
#
# Bulk Modulus (GPa) = 36.35200 56.28383 46.31791
# Shear Modulus (GPa) = 35.15530 44.69530 39.92530
#
# Velocity S-wave (km/s) = 3.76753 4.24808 4.01500
# Velocity P-wave (km/s) = 5.79683 6.84008 6.33995
#
# Compressibility (1/GPa) = 0.02750880
#
# Stress axis : x y z
#
# Youngs Moduli (GPa) = 100.45002 52.59649 100.04529
#
# Poissons Ratio (x) = 0.09777 0.29739
# Poissons Ratio (y) = 0.18672 0.08963
# Poissons Ratio (z) = 0.29859 0.04712
#
# Static dielectric constant tensor:
#      x y z
#    x 1.957730 -0.046060 0.006500 
#    y -0.046060 1.873820 -0.019460 
#    z 0.006500 -0.019460 1.953310 
# 
# From -- ./inp_files/1271.got.cif
#   From: 2010.05.17/outbox.cif.g08.bks.cpg/sg1_1_cif.got.tgz:1271.got - 2010.05.17 20:27:59.
