data_PCOD9000688
_publ_section_title
;
Structure prediction by ZEFSAII (Michael W. Deem and Ramdas Pophale) SiO2 
 PCOD9000688
Probable space group: P 1
;
_chemical_formula_sum "Si O2"
_cell_formula_units_Z 8
_cell_length_a 12.194673
_cell_length_b 7.528032
_cell_length_c 15.110444
_cell_angle_alpha 35.468750
_cell_angle_beta 151.197796
_cell_angle_gamma 153.545139
_cell_volume 294.827587
_symmetry_space_group_name_H-M "P 1"
_symmetry_group_IT_number 1
_symmetry_cell_setting 'triclinic'
loop_
_space_group_symop_operation_xyz
x,y,z
loop_
_atom_site_type_symbol
_atom_site_label
_atom_site_fract_x
_atom_site_fract_y
_atom_site_fract_z
Si Si1 0.873160 0.186500 0.336260
Si Si2 0.122703 0.386414 0.248404
Si Si3 0.297745 0.555326 0.635549
Si Si4 0.025658 0.338349 0.006773
Si Si5 0.617987 0.386763 0.605075
Si Si6 0.473665 0.371583 0.996694
Si Si7 0.492288 0.564927 0.115180
Si Si8 0.299186 0.053830 0.706293
O O1 0.593127 0.157676 0.128702
O O2 0.007138 0.408321 0.435706
O O3 0.087625 0.468799 0.290017
O O4 0.955721 0.891138 0.522763
O O5 0.847771 0.891287 0.252496
O O6 0.459728 0.565451 0.394650
O O7 0.037072 0.470466 0.061474
O O8 0.503960 0.024991 0.605908
O O9 0.438746 0.425632 0.721744
O O10 0.252264 0.352188 0.780800
O O11 0.309585 0.402047 0.143243
O O12 0.758436 0.855565 0.004258
O O13 0.939603 0.555864 0.797834
O O14 0.431868 0.187384 0.647864
O O15 0.397729 0.260568 0.091574
O O16 0.382007 0.792201 0.903771
#
# Coordination Sequence:
#
# PCOD9000688 Si02
#       8
#     1   1   1   1   1   1   1   1
#     4   9  20  33  63  86 115 154 205 238 295 355
#     4  10  20  38  63  85 118 160 197 245 296 350
#     4   9  17  31  61  85 112 148 199 235 294 344
#     4  10  22  37  60  89 119 159 198 240 302 352
#     4  10  18  39  62  87 117 156 197 243 299 349
#     4  10  19  37  62  83 119 160 194 244 300 348
#     4  11  20  39  62  86 124 157 197 245 296 355
#     4   9  18  34  61  87 110 158 193 236 298 345
#
# _framework density 27.134501
#
# number of rings (size 3 to 8) (size 9 to 14) (size 15 to 20)
#    0.750    1.500    3.750    2.250    0.000    0.000 
#    4.500    2.500    2.750    3.000    0.000    0.000 
#    0.000    0.000    0.000    0.000    0.000    0.000 
#
# Total GULP energy -44600.789505 kJ/mol
# GULP energy per Si atom -5575.098688 kJ/mol
# Density = 2.707274 g / cm^3
# Si number density = 27.134501 Si / 1000 Ang^3
#
#
#
# Elastic Constant Matrix: (Units=GPa)
#
#
# Indices 1 2 3 4 5 6 
#
# 1 81.2137 1.6337 26.9056 15.0573 9.4224 -37.1696
# 2 1.6337 69.6365 4.8797 4.0403 -0.4733 -19.8339
# 3 26.9056 4.8797 140.3776 -7.6156 -19.7906 4.4753
# 4 15.0573 4.0403 -7.6156 51.1272 2.0276 4.4131
# 5 9.4224 -0.4733 -19.7906 2.0276 68.3838 6.4504
# 6 -37.1696 -19.8339 4.4753 4.4131 6.4504 25.4043
#
#
#
# Elastic Compliance Matrix: (Units=1/GPa)
#
#
# Indices 1 2 3 4 5 6 
#
# 1 -0.039167 -0.026740 0.014956 0.022888 0.017273 -0.089179
# 2 -0.026740 0.001039 0.008600 0.012522 0.010011 -0.044544
# 3 0.014956 0.008600 0.002015 -0.007258 -0.004084 0.030540
# 4 0.022888 0.012522 -0.007258 0.007182 -0.009697 0.045758
# 5 0.017273 0.010011 -0.004084 -0.009697 0.008268 0.033393
# 6 -0.089179 -0.044544 0.030540 0.045758 0.033393 -0.147702
#
#
# Mechanical properties :
#
#
# Convention : Reuss Voigt Hill
#
# Bulk Modulus (GPa) = -23.54065 39.78510 8.12223
# Shear Modulus (GPa) = -28.38392 46.17032 8.89320
#
# Velocity S-wave (km/s) = -3.23777 4.12944 1.81234
# Velocity P-wave (km/s) = 4.76150 6.11804 2.71648
#
# Compressibility (1/GPa) = -0.04247972
#
# Stress axis : x y z
#
# Youngs Moduli (GPa) = -25.53178 962.05141 496.29531
#
# Poissons Ratio (x) = 25.72508 -7.42284
# Poissons Ratio (y) = -0.68272 -4.26800
# Poissons Ratio (z) = 0.38187 -8.27337
#
# Static dielectric constant tensor:
#      x y z
#    x 2.184700 0.127900 -0.005760 
#    y 0.127900 2.309520 -0.023670 
#    z -0.005760 -0.023670 2.100510 
# 
# From -- ./inp_files/4726.got.cif
#   From: 2010.05.17/outbox.cif.g08.bks.cpg/sg1_3_cif.got.tgz:4726.got - 2010.05.17 20:27:59.
