data_PCOD9000445
_publ_section_title
;
Structure prediction by ZEFSAII (Michael W. Deem and Ramdas Pophale) SiO2 
 PCOD9000445
Probable space group: P 1
;
_chemical_formula_sum "Si O2"
_cell_formula_units_Z 8
_cell_length_a 5.782814
_cell_length_b 10.726922
_cell_length_c 10.782986
_cell_angle_alpha 26.920555
_cell_angle_beta 87.178349
_cell_angle_gamma 91.073837
_cell_volume 299.559540
_symmetry_space_group_name_H-M "P 1"
_symmetry_group_IT_number 1
_symmetry_cell_setting 'triclinic'
loop_
_space_group_symop_operation_xyz
x,y,z
loop_
_atom_site_type_symbol
_atom_site_label
_atom_site_fract_x
_atom_site_fract_y
_atom_site_fract_z
Si Si1 0.885200 0.524100 0.883430
Si Si2 0.239442 0.017964 0.989034
Si Si3 0.484378 0.772650 0.040398
Si Si4 0.526163 0.288721 0.274203
Si Si5 0.930046 0.933594 0.300089
Si Si6 0.025268 0.257474 0.342139
Si Si7 0.568374 0.580065 0.463913
Si Si8 0.908732 0.250480 0.623925
O O1 0.948630 0.779668 0.566089
O O2 0.616413 0.451795 0.002081
O O3 0.024529 0.516674 0.016849
O O4 0.933437 0.254629 0.044935
O O5 0.442143 0.283900 0.773556
O O6 0.020884 0.187647 0.806615
O O7 0.269241 0.948043 0.892924
O O8 0.132152 0.891209 0.235915
O O9 0.508882 0.518131 0.178846
O O10 0.421252 0.728812 0.232241
O O11 0.715494 0.988017 0.833247
O O12 0.749231 0.129055 0.442193
O O13 0.263403 0.135210 0.411754
O O14 0.684564 0.788456 0.377555
O O15 0.038816 0.333104 0.419128
O O16 0.771395 0.509321 0.428884
#
# Coordination Sequence:
#
# PCOD9000445 Si02
#       8
#     1   1   1   1   1   1   1   1
#     4  10  28  50  75 108 154 217 265 317 385 468
#     4  11  27  41  77 115 149 205 248 333 400 471
#     4  11  24  42  73 115 146 196 254 331 401 466
#     4  10  24  48  75 111 146 206 257 332 390 465
#     4  12  26  53  75 110 161 207 266 316 386 478
#     4  10  24  47  74 108 154 200 264 324 391 463
#     4  11  24  45  70 111 153 196 258 319 401 465
#     4  11  23  44  71 112 153 193 256 324 408 460
#
# _framework density 26.705876
#
# number of rings (size 3 to 8) (size 9 to 14) (size 15 to 20)
#    0.750    0.500    2.500    1.500   12.250    1.000 
#    0.000    0.000    0.000    0.000    0.000    0.000 
#    0.000    0.000    0.000    0.000    0.000    0.000 
#
# Total GULP energy -44627.538778 kJ/mol
# GULP energy per Si atom -5578.442347 kJ/mol
# Density = 2.664509 g / cm^3
# Si number density = 26.705876 Si / 1000 Ang^3
#
#
#
# Elastic Constant Matrix: (Units=GPa)
#
#
# Indices 1 2 3 4 5 6 
#
# 1 121.8593 46.0022 33.9571 22.3351 -16.5136 -23.8292
# 2 46.0022 144.4639 64.4417 11.7381 -5.5518 -15.7147
# 3 33.9571 64.4417 91.6126 5.0398 -7.4947 -2.5572
# 4 22.3351 11.7381 5.0398 57.7250 2.0918 -5.6027
# 5 -16.5136 -5.5518 -7.4947 2.0918 35.5694 12.0589
# 6 -23.8292 -15.7147 -2.5572 -5.6027 12.0589 45.7630
#
#
#
# Elastic Compliance Matrix: (Units=1/GPa)
#
#
# Indices 1 2 3 4 5 6 
#
# 1 0.011411 -0.001693 -0.002453 -0.003604 0.003412 0.003883
# 2 -0.001693 0.010903 -0.007050 -0.000623 -0.001476 0.002781
# 3 -0.002453 -0.007050 0.016861 0.000500 0.002413 -0.003331
# 4 -0.003604 -0.000623 0.000500 0.019022 -0.003156 0.001098
# 5 0.003412 -0.001476 0.002413 -0.003156 0.032742 -0.007609
# 6 0.003883 0.002781 -0.003331 0.001098 -0.007609 0.026782
#
#
# Mechanical properties :
#
#
# Convention : Reuss Voigt Hill
#
# Bulk Modulus (GPa) = 59.58794 71.85973 65.72383
# Shear Modulus (GPa) = 34.31546 42.04715 38.18130
#
# Velocity S-wave (km/s) = 3.58850 3.97224 3.78524
# Velocity P-wave (km/s) = 6.28736 6.92853 6.61571
#
# Compressibility (1/GPa) = 0.01678192
#
# Stress axis : x y z
#
# Youngs Moduli (GPa) = 87.63431 91.72021 59.30845
#
# Poissons Ratio (x) = 0.15530 0.14547
# Poissons Ratio (y) = 0.14838 0.41815
# Poissons Ratio (z) = 0.21495 0.64666
#
# Static dielectric constant tensor:
#      x y z
#    x 2.182820 0.011440 0.019500 
#    y 0.011440 2.059610 0.049550 
#    z 0.019500 0.049550 2.049750 
# 
# From -- ./inp_files/705.got.cif
#   From: 2010.05.17/outbox.cif.g08.bks.cpg/sg1_1_cif.got.tgz:705.got - 2010.05.17 20:27:59.
