data_PCOD9000181
_publ_section_title
;
Structure prediction by ZEFSAII (Michael W. Deem and Ramdas Pophale) SiO2 
 PCOD9000181
Probable space group: P 1
;
_chemical_formula_sum "Si O2"
_cell_formula_units_Z 8
_cell_length_a 11.157587
_cell_length_b 12.489087
_cell_length_c 5.134831
_cell_angle_alpha 117.146109
_cell_angle_beta 66.709558
_cell_angle_gamma 148.831170
_cell_volume 329.517472
_symmetry_space_group_name_H-M "P 1"
_symmetry_group_IT_number 1
_symmetry_cell_setting 'triclinic'
loop_
_space_group_symop_operation_xyz
x,y,z
loop_
_atom_site_type_symbol
_atom_site_label
_atom_site_fract_x
_atom_site_fract_y
_atom_site_fract_z
Si Si1 0.572860 0.588550 0.759190
Si Si2 0.247256 0.953456 0.300505
Si Si3 0.857549 0.222056 0.625242
Si Si4 0.670290 0.922045 0.844984
Si Si5 0.553808 0.202063 0.788840
Si Si6 0.756340 0.608659 0.143585
Si Si7 0.174760 0.628053 0.140342
Si Si8 0.146695 0.382820 0.180700
O O1 0.678279 0.789670 0.765519
O O2 0.574473 0.501921 0.412712
O O3 0.711053 0.639144 0.941597
O O4 0.334458 0.449639 0.946108
O O5 0.010240 0.834690 0.282731
O O6 0.387219 0.116719 0.600865
O O7 0.166382 0.763753 0.282586
O O8 0.409905 0.067212 0.029674
O O9 0.683000 0.177003 0.567958
O O10 0.957268 0.399877 0.932440
O O11 0.101968 0.340956 0.477380
O O12 0.707070 0.995657 0.602709
O O13 0.421546 0.782189 0.978672
O O14 0.889652 0.150665 0.050744
O O15 0.730604 0.446655 0.942042
O O16 0.177898 0.550852 0.313380
#
# Coordination Sequence:
#
# PCOD9000181 Si02
#       8
#     1   1   1   1   1   1   1   1
#     4  11  28  48  77 102 150 204 251 298 362 443
#     4  12  26  47  77 112 146 198 245 306 378 442
#     4  11  23  41  76 113 151 185 237 317 384 434
#     4  10  23  44  69 110 139 192 242 303 369 443
#     4  12  27  46  78 114 150 189 247 312 376 445
#     4  12  28  52  73 107 152 202 253 304 359 439
#     4  10  22  41  68 111 150 183 237 303 385 438
#     4  10  25  41  72 107 148 193 236 315 365 438
#
# _framework density 24.277926000000001
#
# number of rings (size 3 to 8) (size 9 to 14) (size 15 to 20)
#    0.000    1.000    2.500    2.250   10.500    5.000 
#    0.000    0.000    0.000    0.000    0.000    0.000 
#    0.000    0.000    0.000    0.000    0.000    0.000 
#
# Total GULP energy -44630.552686 kJ/mol
# GULP energy per Si atom -5578.819086 kJ/mol
# Density = 2.422267 g / cm^3
# Si number density = 24.277926 Si / 1000 Ang^3
#
#
#
# Elastic Constant Matrix: (Units=GPa)
#
#
# Indices 1 2 3 4 5 6 
#
# 1 110.6404 29.0468 23.4012 -6.2606 2.7578 -11.8531
# 2 29.0468 84.6424 8.7134 -11.8951 -1.5788 4.1360
# 3 23.4012 8.7134 64.0677 -8.2516 1.2183 -1.8243
# 4 -6.2606 -11.8951 -8.2516 32.7064 11.8737 5.2941
# 5 2.7578 -1.5788 1.2183 11.8737 32.9751 3.2158
# 6 -11.8531 4.1360 -1.8243 5.2941 3.2158 28.0680
#
#
#
# Elastic Compliance Matrix: (Units=1/GPa)
#
#
# Indices 1 2 3 4 5 6 
#
# 1 0.011393 -0.003909 -0.003516 -0.000513 -0.001353 0.005410
# 2 -0.003909 0.014118 0.000070 0.005329 -0.000462 -0.004679
# 3 -0.003516 0.000070 0.017486 0.004623 -0.001915 -0.001011
# 4 -0.000513 0.005329 0.004623 0.039541 -0.013465 -0.006617
# 5 -0.001353 -0.000462 -0.001915 -0.013465 0.035547 -0.002161
# 6 0.005410 -0.004679 -0.001011 -0.006617 -0.002161 0.040032
#
#
# Mechanical properties :
#
#
# Convention : Reuss Voigt Hill
#
# Bulk Modulus (GPa) = 35.35345 42.40817 38.88081
# Shear Modulus (GPa) = 27.43404 31.96251 29.69828
#
# Velocity S-wave (km/s) = 3.36519 3.63233 3.50131
# Velocity P-wave (km/s) = 5.44912 5.92431 5.69168
#
# Compressibility (1/GPa) = 0.02828578
#
# Stress axis : x y z
#
# Youngs Moduli (GPa) = 87.77650 70.83303 57.18800
#
# Poissons Ratio (x) = 0.27691 0.20106
# Poissons Ratio (y) = 0.34315 -0.00399
# Poissons Ratio (z) = 0.30860 -0.00494
#
# Static dielectric constant tensor:
#      x y z
#    x 1.999160 -0.011980 0.145140 
#    y -0.011980 1.954500 -0.115840 
#    z 0.145140 -0.115840 2.418170 
# 
# From -- ./inp_files/424.got.cif
#   From: 2010.05.17/outbox.cif.g08.bks.cpg/sg1_1_cif.got.tgz:424.got - 2010.05.17 20:27:59.
