data_PCOD9000069
_publ_section_title
;
Structure prediction by ZEFSAII (Michael W. Deem and Ramdas Pophale) SiO2 
 PCOD9000069
Probable space group: P 1
;
_chemical_formula_sum "Si O2"
_cell_formula_units_Z 8
_cell_length_a 11.660999
_cell_length_b 8.273498
_cell_length_c 7.457989
_cell_angle_alpha 123.489821
_cell_angle_beta 46.051828
_cell_angle_gamma 143.539029
_cell_volume 307.821595
_symmetry_space_group_name_H-M "P 1"
_symmetry_group_IT_number 1
_symmetry_cell_setting 'triclinic'
loop_
_space_group_symop_operation_xyz
x,y,z
loop_
_atom_site_type_symbol
_atom_site_label
_atom_site_fract_x
_atom_site_fract_y
_atom_site_fract_z
Si Si1 0.670040 0.847670 0.647730
Si Si2 0.444624 0.192400 0.105251
Si Si3 0.591971 0.322134 0.387337
Si Si4 0.106681 0.809290 0.493923
Si Si5 0.371800 0.546323 0.302628
Si Si6 0.569544 0.037915 0.556924
Si Si7 0.181309 0.453774 0.106326
Si Si8 0.863420 0.984675 0.879673
O O1 0.660924 0.604506 0.501161
O O2 0.858375 0.047449 0.716784
O O3 0.691239 0.981433 0.519500
O O4 0.425934 0.700448 0.902846
O O5 0.621852 0.284939 0.124496
O O6 0.409300 0.391174 0.285535
O O7 0.201719 0.907567 0.248634
O O8 0.511901 0.165341 0.828418
O O9 0.675506 0.242720 0.396600
O O10 0.319761 0.067537 0.536163
O O11 0.083234 0.561223 0.376329
O O12 0.914803 0.799130 0.723348
O O13 0.224492 0.360421 0.178478
O O14 0.348474 0.726385 0.545548
O O15 0.615353 0.798724 0.107953
O O16 0.034336 0.237929 0.978389
#
# Coordination Sequence:
#
# PCOD9000069 Si02
#       8
#     1   1   1   1   1   1   1   1
#     4  11  22  45  75  99 144 190 231 292 352 422
#     4  10  22  41  75 102 136 190 234 290 352 418
#     4  10  21  42  76  99 139 184 233 292 346 413
#     4  10  21  44  69 101 139 183 230 296 351 406
#     4  11  24  43  72 103 144 190 236 288 356 426
#     4  12  21  42  75 105 132 189 242 276 358 425
#     4  11  21  45  72  98 141 192 231 288 353 420
#     4  11  26  42  70 109 145 180 235 298 354 416
#
# _framework density 25.989079
#
# number of rings (size 3 to 8) (size 9 to 14) (size 15 to 20)
#    0.750    0.500    5.000    1.500    1.750    2.000 
#    2.250    0.000    8.250    0.000    0.000    0.000 
#    0.000    0.000    0.000    0.000    0.000    0.000 
#
# Total GULP energy -44673.444975 kJ/mol
# GULP energy per Si atom -5584.180622 kJ/mol
# Density = 2.592993 g / cm^3
# Si number density = 25.989079 Si / 1000 Ang^3
#
#
#
# Elastic Constant Matrix: (Units=GPa)
#
#
# Indices 1 2 3 4 5 6 
#
# 1 160.6542 47.2270 34.2880 26.1994 33.7358 -3.4752
# 2 47.2270 85.6351 16.1955 31.6904 7.7111 -2.5845
# 3 34.2880 16.1955 89.0087 31.5453 -0.9919 4.7831
# 4 26.1994 31.6904 31.5453 38.4389 -1.9583 2.3745
# 5 33.7358 7.7111 -0.9919 -1.9583 49.5597 11.9331
# 6 -3.4752 -2.5845 4.7831 2.3745 11.9331 53.5899
#
#
#
# Elastic Compliance Matrix: (Units=1/GPa)
#
#
# Indices 1 2 3 4 5 6 
#
# 1 0.009533 -0.003298 -0.002481 -0.002221 -0.006658 0.002261
# 2 -0.003298 0.019199 0.003601 -0.016715 -0.001694 0.001508
# 3 -0.002481 0.003601 0.016943 -0.015058 0.001133 -0.001085
# 4 -0.002221 -0.016715 -0.015058 0.054232 0.006803 -0.003524
# 5 -0.006658 -0.001694 0.001133 0.006803 0.026929 -0.006912
# 6 0.002261 0.001508 -0.001085 -0.003524 -0.006912 0.020672
#
#
# Mechanical properties :
#
#
# Convention : Reuss Voigt Hill
#
# Bulk Modulus (GPa) = 24.20169 58.96877 41.58523
# Shear Modulus (GPa) = 30.18676 44.15685 37.17180
#
# Velocity S-wave (km/s) = 3.41180 4.12643 3.78601
# Velocity P-wave (km/s) = 4.98528 6.74109 5.92855
#
# Compressibility (1/GPa) = 0.04131943
#
# Stress axis : x y z
#
# Youngs Moduli (GPa) = 104.90057 52.08575 59.02265
#
# Poissons Ratio (x) = 0.17180 0.14641
# Poissons Ratio (y) = 0.34600 -0.21256
# Poissons Ratio (z) = 0.26021 -0.18758
#
# Static dielectric constant tensor:
#      x y z
#    x 2.094740 0.016490 0.024360 
#    y 0.016490 2.158840 0.011550 
#    z 0.024360 0.011550 2.079200 
# 
# From -- ./inp_files/5420.got.cif
#   From: 2010.05.17/outbox.cif.g08.bks.cpg/sg1_3_cif.got.tgz:5420.got - 2010.05.17 20:27:59.
