data_PCOD9000239
_publ_section_title
;
Structure prediction by ZEFSAII (Michael W. Deem and Ramdas Pophale) SiO2 
 PCOD9000239
Probable space group: P 1
;
_chemical_formula_sum "Si O2"
_cell_formula_units_Z 8
_cell_length_a 9.046061
_cell_length_b 7.695809
_cell_length_c 9.531634
_cell_angle_alpha 86.336568
_cell_angle_beta 137.027829
_cell_angle_gamma 68.931291
_cell_volume 362.058109
_symmetry_space_group_name_H-M "P 1"
_symmetry_group_IT_number 1
_symmetry_cell_setting 'triclinic'
loop_
_space_group_symop_operation_xyz
x,y,z
loop_
_atom_site_type_symbol
_atom_site_label
_atom_site_fract_x
_atom_site_fract_y
_atom_site_fract_z
Si Si1 0.446330 0.224480 0.438870
Si Si2 0.216302 0.971614 0.234666
Si Si3 0.282446 0.068405 0.975946
Si Si4 0.912065 0.780190 0.428715
Si Si5 0.337226 0.419707 0.935889
Si Si6 0.813491 0.195899 0.448803
Si Si7 0.656494 0.152350 0.897768
Si Si8 0.082388 0.673393 0.246480
O O1 0.410700 0.035269 0.407721
O O2 0.534537 0.230586 0.656467
O O3 0.166943 0.467761 0.225058
O O4 0.660985 0.191829 0.478713
O O5 0.276394 0.744452 0.334551
O O6 0.923852 0.144136 0.092658
O O7 0.183911 0.003092 0.042875
O O8 0.087219 0.145458 0.702224
O O9 0.271343 0.280728 0.989838
O O10 0.600469 0.871161 0.193701
O O11 0.899455 0.995069 0.419360
O O12 0.070215 0.643611 0.685035
O O13 0.072515 0.650035 0.407736
O O14 0.469674 0.280003 0.892599
O O15 0.575356 0.407850 0.185208
O O16 0.785790 0.896478 0.001681
#
# Coordination Sequence:
#
# PCOD9000239 Si02
#       8
#     1   1   1   1   1   1   1   1
#     4  12  22  44  72  96 135 182 225 281 341 394
#     4  10  22  44  67  99 135 173 229 280 330 405
#     4  11  22  44  66  97 137 175 222 284 335 397
#     4  11  23  45  65  99 139 177 222 278 342 404
#     4  11  23  42  70  95 138 176 221 278 339 402
#     4  11  23  42  69  98 138 174 224 284 336 400
#     4  10  22  44  64  97 140 170 228 287 322 411
#     4  10  23  45  67  97 138 175 225 280 335 403
#
# _framework density 22.095904000000001
#
# number of rings (size 3 to 8) (size 9 to 14) (size 15 to 20)
#    0.750    0.500    7.500    0.000    0.000    6.000 
#    4.500    0.000    0.000    0.000    0.000    0.000 
#    0.000    0.000    0.000    0.000    0.000    0.000 
#
# Total GULP energy -44568.660257 kJ/mol
# GULP energy per Si atom -5571.082532 kJ/mol
# Density = 2.204561 g / cm^3
# Si number density = 22.095904 Si / 1000 Ang^3
#
#
#
# Elastic Constant Matrix: (Units=GPa)
#
#
# Indices 1 2 3 4 5 6 
#
# 1 70.6305 9.6793 28.8132 1.0514 -10.3406 0.5167
# 2 9.6793 41.9116 13.0096 -0.0442 4.0799 -7.1672
# 3 28.8132 13.0096 149.8904 -2.6124 9.0152 3.2453
# 4 1.0514 -0.0442 -2.6124 32.9143 3.7053 -5.4059
# 5 -10.3406 4.0799 9.0152 3.7053 27.0524 2.7209
# 6 0.5167 -7.1672 3.2453 -5.4059 2.7209 23.1959
#
#
#
# Elastic Compliance Matrix: (Units=1/GPa)
#
#
# Indices 1 2 3 4 5 6 
#
# 1 0.017595 -0.004351 -0.003535 -0.002352 0.009170 -0.002866
# 2 -0.004351 0.027688 -0.001337 0.002510 -0.006765 0.010218
# 3 -0.003535 -0.001337 0.007729 0.001032 -0.003793 -0.000730
# 4 -0.002352 0.002510 0.001032 0.032840 -0.007041 0.009163
# 5 0.009170 -0.006765 -0.003793 -0.007041 0.044588 -0.008635
# 6 -0.002866 0.010218 -0.000730 0.009163 -0.008635 0.049583
#
#
# Mechanical properties :
#
#
# Convention : Reuss Voigt Hill
#
# Bulk Modulus (GPa) = 28.93108 40.60407 34.76758
# Shear Modulus (GPa) = 23.81039 30.69453 27.25246
#
# Velocity S-wave (km/s) = 3.28623 3.73117 3.51575
# Velocity P-wave (km/s) = 5.24604 6.08099 5.67888
#
# Compressibility (1/GPa) = 0.03456490
#
# Stress axis : x y z
#
# Youngs Moduli (GPa) = 56.83371 36.11627 129.38134
#
# Poissons Ratio (x) = 0.15716 0.45738
# Poissons Ratio (y) = 0.24731 0.17302
# Poissons Ratio (z) = 0.20091 0.04830
#
# Static dielectric constant tensor:
#      x y z
#    x 1.810000 0.024520 -0.003640 
#    y 0.024520 1.796520 -0.030100 
#    z -0.003640 -0.030100 1.909260 
# 
# From -- ./inp_files/4271.got.cif
#   From: 2010.05.17/outbox.cif.g08.bks.cpg/sg1_3_cif.got.tgz:4271.got - 2010.05.17 20:27:59.
