data_PCOD9000037
_publ_section_title
;
Structure prediction by ZEFSAII (Michael W. Deem and Ramdas Pophale) SiO2 
 PCOD9000037
Probable space group: P 1
;
_chemical_formula_sum "Si O2"
_cell_formula_units_Z 8
_cell_length_a 11.928509
_cell_length_b 12.264845
_cell_length_c 5.083400
_cell_angle_alpha 80.698549
_cell_angle_beta 101.611930
_cell_angle_gamma 155.378203
_cell_volume 303.091360
_symmetry_space_group_name_H-M "P 1"
_symmetry_group_IT_number 1
_symmetry_cell_setting 'triclinic'
loop_
_space_group_symop_operation_xyz
x,y,z
loop_
_atom_site_type_symbol
_atom_site_label
_atom_site_fract_x
_atom_site_fract_y
_atom_site_fract_z
Si Si1 0.355250 0.864040 0.090550
Si Si2 0.392339 0.699346 0.800749
Si Si3 0.929141 0.328509 0.372030
Si Si4 0.405523 0.307671 0.923595
Si Si5 0.844596 0.815431 0.719277
Si Si6 0.719437 0.921107 0.341828
Si Si7 0.833839 0.590304 0.433579
Si Si8 0.388711 0.088380 0.640179
O O1 0.619495 0.097189 0.308506
O O2 0.699659 0.363068 0.583579
O O3 0.439627 0.861582 0.882235
O O4 0.316910 0.947803 0.904198
O O5 0.550088 0.809812 0.564197
O O6 0.077120 0.427498 0.675619
O O7 0.514052 0.730191 0.076727
O O8 0.111145 0.582638 0.220178
O O9 0.918299 0.198576 0.275093
O O10 0.549949 0.547777 0.819746
O O11 0.374435 0.201278 0.696914
O O12 0.620936 0.438645 0.167946
O O13 0.090757 0.041625 0.955899
O O14 0.861872 0.933097 0.486202
O O15 0.851506 0.706638 0.603728
O O16 0.150861 0.853714 0.410444
#
# Coordination Sequence:
#
# PCOD9000037 Si02
#       8
#     1   1   1   1   1   1   1   1
#     4  11  25  43  70  98 140 179 228 277 342 396
#     4  11  25  47  66 101 136 179 230 278 329 403
#     4  11  24  45  64  99 134 181 225 283 323 407
#     4  10  22  42  65  94 134 164 222 271 330 400
#     4  10  24  40  63  97 125 175 218 271 332 396
#     4  11  27  45  71  99 140 180 227 279 338 397
#     4  10  21  41  64  97 131 167 216 275 327 403
#     4  10  22  41  65  99 128 169 218 270 335 394
#
# _framework density 26.394684000000002
#
# number of rings (size 3 to 8) (size 9 to 14) (size 15 to 20)
#    0.000    1.500    2.500    1.500    7.000    2.000 
#    0.000    0.000    0.000    0.000    0.000    0.000 
#    0.000    0.000    0.000    0.000    0.000    0.000 
#
# Total GULP energy -44704.800885 kJ/mol
# GULP energy per Si atom -5588.100111 kJ/mol
# Density = 2.633461 g / cm^3
# Si number density = 26.394684 Si / 1000 Ang^3
#
#
#
# Elastic Constant Matrix: (Units=GPa)
#
#
# Indices 1 2 3 4 5 6 
#
# 1 51.7497 36.0475 8.4507 5.3616 7.9062 -16.1499
# 2 36.0475 215.2484 51.4551 30.8609 28.3975 -1.7099
# 3 8.4507 51.4551 137.6018 27.7308 20.1102 10.6660
# 4 5.3616 30.8609 27.7308 50.6662 5.9054 13.8658
# 5 7.9062 28.3975 20.1102 5.9054 55.7516 -2.2449
# 6 -16.1499 -1.7099 10.6660 13.8658 -2.2449 35.3854
#
#
#
# Elastic Compliance Matrix: (Units=1/GPa)
#
#
# Indices 1 2 3 4 5 6 
#
# 1 0.026696 -0.003568 -0.000424 -0.004066 -0.000834 0.013680
# 2 -0.003568 0.006151 -0.001310 -0.002398 -0.001905 -0.000118
# 3 -0.000424 -0.001310 0.008907 -0.003283 -0.002210 -0.001796
# 4 -0.004066 -0.002398 -0.003283 0.026583 -0.000293 -0.011417
# 5 -0.000834 -0.001905 -0.002210 -0.000293 0.019917 0.001572
# 6 0.013680 -0.000118 -0.001796 -0.011417 0.001572 0.039613
#
#
# Mechanical properties :
#
#
# Convention : Reuss Voigt Hill
#
# Bulk Modulus (GPa) = 32.10331 66.27849 49.19090
# Shear Modulus (GPa) = 33.58975 48.93709 41.26342
#
# Velocity S-wave (km/s) = 3.57122 4.31054 3.95818
# Velocity P-wave (km/s) = 5.40314 7.06678 6.29021
#
# Compressibility (1/GPa) = 0.03114944
#
# Stress axis : x y z
#
# Youngs Moduli (GPa) = 37.45852 162.58569 112.26936
#
# Poissons Ratio (x) = 0.58004 0.04766
# Poissons Ratio (y) = 0.13364 0.14709
# Poissons Ratio (z) = 0.01590 0.21301
#
# Static dielectric constant tensor:
#      x y z
#    x 2.152430 0.117740 -0.010600 
#    y 0.117740 2.133860 -0.049100 
#    z -0.010600 -0.049100 2.079040 
# 
# From -- ./inp_files/2396.got.cif
#   From: 2010.05.17/outbox.cif.g08.bks.cpg/sg1_2_cif.got.tgz:2396.got - 2010.05.17 20:27:59.
