data_PCOD9000367
_publ_section_title
;
Structure prediction by ZEFSAII (Michael W. Deem and Ramdas Pophale) SiO2 
 PCOD9000367
Probable space group: P 1
;
_chemical_formula_sum "Si O2"
_cell_formula_units_Z 8
_cell_length_a 10.324717
_cell_length_b 5.414320
_cell_length_c 6.717914
_cell_angle_alpha 75.666078
_cell_angle_beta 74.304507
_cell_angle_gamma 108.510576
_cell_volume 319.143987
_symmetry_space_group_name_H-M "P 1"
_symmetry_group_IT_number 1
_symmetry_cell_setting 'triclinic'
loop_
_space_group_symop_operation_xyz
x,y,z
loop_
_atom_site_type_symbol
_atom_site_label
_atom_site_fract_x
_atom_site_fract_y
_atom_site_fract_z
Si Si1 0.511470 0.595050 0.351470
Si Si2 0.791870 0.014781 0.322052
Si Si3 0.583478 0.171390 0.671825
Si Si4 0.323010 0.656450 0.754210
Si Si5 0.836267 0.585870 0.694551
Si Si6 0.006745 0.601877 0.973345
Si Si7 0.105616 0.659228 0.344180
Si Si8 0.281112 0.297951 0.192286
O O1 0.526646 0.370847 0.538778
O O2 0.400803 0.690528 0.502853
O O3 0.436991 0.446129 0.210393
O O4 0.674586 0.837850 0.238247
O O5 0.700194 0.131646 0.482017
O O6 0.832785 0.819726 0.496626
O O7 0.924494 0.269156 0.115332
O O8 0.676619 0.330226 0.792932
O O9 0.441118 0.883316 0.807353
O O10 0.168948 0.681997 0.800665
O O11 0.293358 0.368954 0.938782
O O12 0.896955 0.684088 0.869528
O O13 0.965865 0.503230 0.574619
O O14 0.038278 0.724649 0.155867
O O15 0.182849 0.453893 0.293068
O O16 0.209573 0.966536 0.318827
#
# Coordination Sequence:
#
# PCOD9000367 Si02
#       8
#     1   1   1   1   1   1   1   1
#     4  10  24  44  72  97 144 195 225 302 362 419
#     4  10  23  49  65 107 145 182 248 296 346 447
#     4  10  23  46  65  99 149 177 243 293 352 432
#     4  10  24  44  67 107 137 179 243 296 346 439
#     4  11  23  44  74  99 145 194 231 297 369 419
#     4  11  24  46  75 102 140 190 236 300 363 422
#     4  11  25  46  68 115 144 181 245 303 345 447
#     4  11  26  43  76 102 148 186 237 295 367 419
#
# _framework density 25.067056000000001
#
# number of rings (size 3 to 8) (size 9 to 14) (size 15 to 20)
#    0.000    1.500    1.250    2.250   10.500    0.000 
#   13.500    0.000    0.000    0.000    0.000    0.000 
#    0.000    0.000    0.000    0.000    0.000    0.000 
#
# Total GULP energy -44760.065338 kJ/mol
# GULP energy per Si atom -5595.008167 kJ/mol
# Density = 2.501000 g / cm^3
# Si number density = 25.067056 Si / 1000 Ang^3
#
#
#
# Elastic Constant Matrix: (Units=GPa)
#
#
# Indices 1 2 3 4 5 6 
#
# 1 115.3888 53.8135 38.3034 10.2088 9.0899 26.8872
# 2 53.8135 110.7826 26.1022 -13.0316 -6.2146 23.2219
# 3 38.3034 26.1022 61.3472 -10.9452 -1.3815 10.4180
# 4 10.2088 -13.0316 -10.9452 39.2838 7.0414 -3.5998
# 5 9.0899 -6.2146 -1.3815 7.0414 42.0724 9.1508
# 6 26.8872 23.2219 10.4180 -3.5998 9.1508 57.2743
#
#
#
# Elastic Compliance Matrix: (Units=1/GPa)
#
#
# Indices 1 2 3 4 5 6 
#
# 1 0.016164 -0.006246 -0.008384 -0.008502 -0.002469 -0.003671
# 2 -0.006246 0.013485 -0.000397 0.005203 0.003027 -0.002620
# 3 -0.008384 -0.000397 0.023176 0.008334 0.001068 0.000234
# 4 -0.008502 0.005203 0.008334 0.032556 -0.003205 0.002924
# 5 -0.002469 0.003027 0.001068 -0.003205 0.026337 -0.004672
# 6 -0.003671 -0.002620 0.000234 0.002924 -0.004672 0.021133
#
#
# Mechanical properties :
#
#
# Convention : Reuss Voigt Hill
#
# Bulk Modulus (GPa) = 43.91387 58.21741 51.06564
# Shear Modulus (GPa) = 29.32639 39.01272 34.16955
#
# Velocity S-wave (km/s) = 3.42412 3.94932 3.69606
# Velocity P-wave (km/s) = 5.76102 6.63862 6.21533
#
# Compressibility (1/GPa) = 0.02277185
#
# Stress axis : x y z
#
# Youngs Moduli (GPa) = 61.86442 74.15577 43.14889
#
# Poissons Ratio (x) = 0.46315 0.36177
# Poissons Ratio (y) = 0.38638 0.01711
# Poissons Ratio (z) = 0.51869 0.02941
#
# Static dielectric constant tensor:
#      x y z
#    x 1.993560 0.013430 -0.010760 
#    y 0.013430 2.011370 0.054580 
#    z -0.010760 0.054580 2.011010 
# 
# From -- ./inp_files/1330.got.cif
#   From: 2010.05.17/outbox.cif.g08.bks.cpg/sg1_1_cif.got.tgz:1330.got - 2010.05.17 20:27:59.
