data_PCOD9000498
_publ_section_title
;
Structure prediction by ZEFSAII (Michael W. Deem and Ramdas Pophale) SiO2 
 PCOD9000498
Probable space group: P 1
;
_chemical_formula_sum "Si O2"
_cell_formula_units_Z 6
_cell_length_a 7.282548
_cell_length_b 8.196629
_cell_length_c 5.365258
_cell_angle_alpha 114.976378
_cell_angle_beta 59.041828
_cell_angle_gamma 126.157887
_cell_volume 218.458539
_symmetry_space_group_name_H-M "P 1"
_symmetry_group_IT_number 1
_symmetry_cell_setting 'triclinic'
loop_
_space_group_symop_operation_xyz
x,y,z
loop_
_atom_site_type_symbol
_atom_site_label
_atom_site_fract_x
_atom_site_fract_y
_atom_site_fract_z
Si Si1 0.482130 0.094500 0.212750
Si Si2 0.844275 0.337906 0.755242
Si Si3 0.047039 0.865402 0.600055
Si Si4 0.365731 0.708082 0.736232
Si Si5 0.856085 0.963166 0.303063
Si Si6 0.580832 0.471788 0.683493
O O1 0.462091 0.292360 0.449311
O O2 0.760149 0.214895 0.994803
O O3 0.334027 0.941947 0.446851
O O4 0.380353 0.918317 0.956811
O O5 0.620868 0.378051 0.850485
O O6 0.097627 0.544303 0.733095
O O7 0.857041 0.179702 0.448467
O O8 0.011188 0.970823 0.444257
O O9 0.863889 0.628223 0.523775
O O10 0.956693 0.924989 0.951491
O O11 0.590625 0.774243 0.431334
O O12 0.440642 0.602912 0.843389
#
# Coordination Sequence:
#
# PCOD9000498 Si02
#       6
#     1   1   1   1   1   1
#     4  11  26  49  75 113 158 201 259 325 391 466
#     4  11  26  49  80 116 149 208 265 318 394 468
#     4  11  26  49  78 114 162 202 263 323 395 468
#     4  10  25  53  76 115 158 199 265 325 387 468
#     4  10  26  48  79 116 156 208 259 327 392 466
#     4  11  27  46  80 110 153 206 259 318 393 460
#
# _framework density 27.465167999999998
#
# number of rings (size 3 to 8) (size 9 to 14) (size 15 to 20)
#    0.000    1.333    0.000    2.000   16.333    2.667 
#    9.000    0.000    0.000    0.000    0.000    0.000 
#    0.000    0.000    0.000    0.000    0.000    0.000 
#
# Total GULP energy -33503.854395 kJ/mol
# GULP energy per Si atom -5583.975732 kJ/mol
# Density = 2.740266 g / cm^3
# Si number density = 27.465168 Si / 1000 Ang^3
#
#
#
# Elastic Constant Matrix: (Units=GPa)
#
#
# Indices 1 2 3 4 5 6 
#
# 1 164.5490 46.7565 39.2724 2.0148 28.8286 -7.0347
# 2 46.7565 190.7222 64.8939 16.2204 3.8798 54.3741
# 3 39.2724 64.8939 212.1914 -9.2587 7.5786 22.5302
# 4 2.0148 16.2204 -9.2587 35.2919 0.8867 -7.8561
# 5 28.8286 3.8798 7.5786 0.8867 31.9499 -7.8654
# 6 -7.0347 54.3741 22.5302 -7.8561 -7.8654 59.1977
#
#
#
# Elastic Compliance Matrix: (Units=1/GPa)
#
#
# Indices 1 2 3 4 5 6 
#
# 1 0.008193 -0.002594 -0.000762 0.001349 -0.006196 0.003002
# 2 -0.002594 0.009859 -0.001789 -0.006995 -0.000625 -0.009695
# 3 -0.000762 -0.001789 0.005555 0.002262 -0.000559 -0.000336
# 4 0.001349 -0.006995 0.002262 0.034359 0.000697 0.010377
# 5 -0.006196 -0.000625 -0.000559 0.000697 0.038369 0.005241
# 6 0.003002 -0.009695 -0.000336 0.010377 0.005241 0.028355
#
#
# Mechanical properties :
#
#
# Convention : Reuss Voigt Hill
#
# Bulk Modulus (GPa) = 75.08070 96.58980 85.83525
# Shear Modulus (GPa) = 35.86310 53.05721 44.46016
#
# Velocity S-wave (km/s) = 3.61746 4.39999 4.02778
# Velocity P-wave (km/s) = 6.69657 7.81394 7.27674
#
# Compressibility (1/GPa) = 0.01331900
#
# Stress axis : x y z
#
# Youngs Moduli (GPa) = 122.04967 101.42694 180.01636
#
# Poissons Ratio (x) = 0.26310 0.13713
# Poissons Ratio (y) = 0.31659 0.32199
# Poissons Ratio (z) = 0.09297 0.18142
#
# Static dielectric constant tensor:
#      x y z
#    x 2.453210 -0.003900 0.018840 
#    y -0.003900 2.075230 -0.052470 
#    z 0.018840 -0.052470 2.070390 
# 
# From -- ./inp_files/1238.got.cif
#   From: 2010.05.17/outbox.cif.g08.bks.cpg/sg1_1_cif.got.tgz:1238.got - 2010.05.17 20:27:59.
