data_PCOD9000275
_publ_section_title
;
Structure prediction by ZEFSAII (Michael W. Deem and Ramdas Pophale) SiO2 
 PCOD9000275
Probable space group: P 1
;
_chemical_formula_sum "Si O2"
_cell_formula_units_Z 8
_cell_length_a 9.299139
_cell_length_b 7.825967
_cell_length_c 7.957761
_cell_angle_alpha 86.660874
_cell_angle_beta 65.754432
_cell_angle_gamma 130.390111
_cell_volume 355.625820
_symmetry_space_group_name_H-M "P 1"
_symmetry_group_IT_number 1
_symmetry_cell_setting 'triclinic'
loop_
_space_group_symop_operation_xyz
x,y,z
loop_
_atom_site_type_symbol
_atom_site_label
_atom_site_fract_x
_atom_site_fract_y
_atom_site_fract_z
Si Si1 0.663990 0.343490 0.024440
Si Si2 0.490647 0.980318 0.839042
Si Si3 0.308372 0.183710 0.780307
Si Si4 0.832198 0.935383 0.016271
Si Si5 0.402136 0.420885 0.360953
Si Si6 0.014308 0.399887 0.050436
Si Si7 0.705036 0.665505 0.753547
Si Si8 0.919551 0.131326 0.455884
O O1 0.492062 0.342305 0.196437
O O2 0.839098 0.409141 0.075108
O O3 0.530445 0.085773 0.002567
O O4 0.790782 0.555335 0.801978
O O5 0.422163 0.090785 0.754853
O O6 0.725358 0.086048 0.648624
O O7 0.272529 0.677825 0.940777
O O8 0.344923 0.286480 0.571743
O O9 0.445159 0.416265 0.830779
O O10 0.034071 0.961224 0.961488
O O11 0.732066 0.816188 0.887176
O O12 0.612058 0.726171 0.252861
O O13 0.970789 0.223628 0.937278
O O14 0.174483 0.331839 0.404902
O O15 0.939381 0.232792 0.259269
O O16 0.839195 0.867257 0.526887
#
# Coordination Sequence:
#
# PCOD9000275 Si02
#       8
#     1   1   1   1   1   1   1   1
#     4  10  25  48  71 101 145 186 232 290 349 416
#     4  11  26  48  71 102 147 184 234 288 356 414
#     4  11  23  46  76 100 141 190 230 291 351 417
#     4  11  24  43  73 102 144 181 237 286 352 412
#     4  11  25  45  73 106 139 186 238 286 348 420
#     4  12  27  44  73 104 143 187 231 293 350 412
#     4  10  22  46  70 102 134 186 232 282 346 415
#     4  12  26  44  71 107 141 182 238 286 348 418
#
# _framework density 22.495555
#
# number of rings (size 3 to 8) (size 9 to 14) (size 15 to 20)
#    0.000    1.000    1.250    4.500   10.500    0.000 
#    6.750    1.250    0.000    0.000    0.000    0.000 
#    0.000    0.000    0.000    0.000    0.000    0.000 
#
# Total GULP energy -44701.247684 kJ/mol
# GULP energy per Si atom -5587.655960 kJ/mol
# Density = 2.244435 g / cm^3
# Si number density = 22.495555 Si / 1000 Ang^3
#
#
#
# Elastic Constant Matrix: (Units=GPa)
#
#
# Indices 1 2 3 4 5 6 
#
# 1 173.0122 44.0166 64.3611 -15.1325 2.9841 20.1151
# 2 44.0166 163.0381 52.3935 -11.6398 -8.8081 5.2563
# 3 64.3611 52.3935 87.2459 -18.9032 4.6857 15.1827
# 4 -15.1325 -11.6398 -18.9032 33.6639 3.3083 0.7138
# 5 2.9841 -8.8081 4.6857 3.3083 50.4410 -2.9699
# 6 20.1151 5.2563 15.1827 0.7138 -2.9699 35.8871
#
#
#
# Elastic Compliance Matrix: (Units=1/GPa)
#
#
# Indices 1 2 3 4 5 6 
#
# 1 0.008156 -0.000423 -0.005194 0.000679 -0.000257 -0.002347
# 2 -0.000423 0.007826 -0.004803 -0.000399 0.001940 0.001291
# 3 -0.005194 -0.004803 0.021177 0.008352 -0.003387 -0.005791
# 4 0.000679 -0.000399 0.008352 0.035005 -0.003467 -0.004838
# 5 -0.000257 0.001940 -0.003387 -0.003467 0.020903 0.003092
# 6 -0.002347 0.001291 -0.005791 -0.004838 0.003092 0.031794
#
#
# Mechanical properties :
#
#
# Convention : Reuss Voigt Hill
#
# Bulk Modulus (GPa) = 61.27526 82.75986 72.01756
# Shear Modulus (GPa) = 33.08180 41.50006 37.29093
#
# Velocity S-wave (km/s) = 3.83899 4.29979 4.07591
# Velocity P-wave (km/s) = 6.85189 7.84348 7.36439
#
# Compressibility (1/GPa) = 0.01631980
#
# Stress axis : x y z
#
# Youngs Moduli (GPa) = 122.60556 127.78110 47.22132
#
# Poissons Ratio (x) = 0.05401 0.24525
# Poissons Ratio (y) = 0.05183 0.22681
# Poissons Ratio (z) = 0.63677 0.61376
#
# Static dielectric constant tensor:
#      x y z
#    x 1.877350 -0.034890 0.021940 
#    y -0.034890 1.891830 0.021650 
#    z 0.021940 0.021650 1.863210 
# 
# From -- ./inp_files/4245.got.cif
#   From: 2010.05.17/outbox.cif.g08.bks.cpg/sg1_3_cif.got.tgz:4245.got - 2010.05.17 20:27:59.
