data_PCOD9000103
_publ_section_title
;
Structure prediction by ZEFSAII (Michael W. Deem and Ramdas Pophale) SiO2 
 PCOD9000103
Probable space group: P 1
;
_chemical_formula_sum "Si O2"
_cell_formula_units_Z 8
_cell_length_a 14.491804
_cell_length_b 6.495896
_cell_length_c 11.685259
_cell_angle_alpha 133.164212
_cell_angle_beta 26.756804
_cell_angle_gamma 133.635457
_cell_volume 350.550696
_symmetry_space_group_name_H-M "P 1"
_symmetry_group_IT_number 1
_symmetry_cell_setting 'triclinic'
loop_
_space_group_symop_operation_xyz
x,y,z
loop_
_atom_site_type_symbol
_atom_site_label
_atom_site_fract_x
_atom_site_fract_y
_atom_site_fract_z
Si Si1 0.683120 0.099670 0.308880
Si Si2 0.391244 0.869182 0.948332
Si Si3 0.398725 0.134180 0.429825
Si Si4 0.022375 0.761987 0.856621
Si Si5 0.347588 0.599097 0.112974
Si Si6 0.296992 0.750182 0.746860
Si Si7 0.758447 0.672070 0.565776
Si Si8 0.116027 0.231250 0.421415
O O1 0.605903 0.152944 0.286725
O O2 0.807462 0.402420 0.342247
O O3 0.474835 0.985330 0.572637
O O4 0.813600 0.856601 0.087552
O O5 0.276664 0.621064 0.069534
O O6 0.345035 0.162977 0.162684
O O7 0.307674 0.824991 0.896718
O O8 0.628232 0.836200 0.685844
O O9 0.359323 0.440402 0.550266
O O10 0.206098 0.989778 0.672337
O O11 0.389230 0.904757 0.250977
O O12 0.081177 0.757828 0.923618
O O13 0.040258 0.449703 0.671440
O O14 0.165049 0.383987 0.302249
O O15 0.584288 0.552861 0.813459
O O16 0.951741 0.922942 0.487808
#
# Coordination Sequence:
#
# PCOD9000103 Si02
#       8
#     1   1   1   1   1   1   1   1
#     4  11  24  44  66 107 135 175 232 276 341 412
#     4  10  23  44  66  99 136 175 234 275 335 406
#     4  10  21  44  69  94 140 181 220 284 340 401
#     4  10  26  42  67 105 135 176 231 275 343 410
#     4   9  22  45  66 100 135 175 230 282 330 405
#     4  11  23  42  73  94 139 184 218 286 343 389
#     4  10  24  44  68 101 134 179 228 273 340 407
#     4  11  23  45  69  98 138 183 217 287 344 396
#
# _framework density 22.821235000000001
#
# number of rings (size 3 to 8) (size 9 to 14) (size 15 to 20)
#    0.750    1.000    1.250    1.500    3.500    4.000 
#    9.000    0.000    0.000    0.000    0.000    0.000 
#    0.000    0.000    0.000    0.000    0.000    0.000 
#
# Total GULP energy -44628.164577 kJ/mol
# GULP energy per Si atom -5578.520572 kJ/mol
# Density = 2.276929 g / cm^3
# Si number density = 22.821235 Si / 1000 Ang^3
#
#
#
# Elastic Constant Matrix: (Units=GPa)
#
#
# Indices 1 2 3 4 5 6 
#
# 1 78.4343 4.1612 17.7579 -6.5100 -0.3701 -15.3649
# 2 4.1612 77.7151 8.2976 13.7712 -3.8126 15.9549
# 3 17.7579 8.2976 65.0675 17.7300 2.7710 3.3120
# 4 -6.5100 13.7712 17.7300 44.1836 -7.7298 -1.4137
# 5 -0.3701 -3.8126 2.7710 -7.7298 26.4876 3.1198
# 6 -15.3649 15.9549 3.3120 -1.4137 3.1198 24.5476
#
#
#
# Elastic Compliance Matrix: (Units=1/GPa)
#
#
# Indices 1 2 3 4 5 6 
#
# 1 0.018497 -0.004860 -0.007421 0.007861 0.000733 0.016097
# 2 -0.004860 0.017408 0.001691 -0.006953 0.002027 -0.015242
# 3 -0.007421 0.001691 0.020789 -0.010978 -0.004221 -0.008644
# 4 0.007861 -0.006953 -0.010978 0.032185 0.008269 0.011724
# 5 0.000733 0.002027 -0.004221 0.008269 0.041510 -0.005088
# 6 0.016097 -0.015242 -0.008644 0.011724 -0.005088 0.063208
#
#
# Mechanical properties :
#
#
# Convention : Reuss Voigt Hill
#
# Bulk Modulus (GPa) = 28.15807 31.29448 29.72627
# Shear Modulus (GPa) = 22.06387 31.77711 26.92049
#
# Velocity S-wave (km/s) = 3.11274 3.73558 3.43829
# Velocity P-wave (km/s) = 5.02833 5.68760 5.36810
#
# Compressibility (1/GPa) = 0.03551380
#
# Stress axis : x y z
#
# Youngs Moduli (GPa) = 54.06353 57.44470 48.10153
#
# Poissons Ratio (x) = 0.27917 0.35696
# Poissons Ratio (y) = 0.26274 -0.08132
# Poissons Ratio (z) = 0.40120 -0.09711
#
# Static dielectric constant tensor:
#      x y z
#    x 1.867930 -0.017630 -0.035550 
#    y -0.017630 1.872440 0.020390 
#    z -0.035550 0.020390 1.906750 
# 
# From -- ./inp_files/6803.got.cif
#   From: 2010.05.17/outbox.cif.g08.bks.cpg/sg1_4_cif.got.tgz:6803.got - 2010.05.17 20:27:59.
