data_PCOD9000892
_publ_section_title
;
Structure prediction by ZEFSAII (Michael W. Deem and Ramdas Pophale) SiO2 
 PCOD9000892
Probable space group: P 1
;
_chemical_formula_sum "Si O2"
_cell_formula_units_Z 8
_cell_length_a 10.327485
_cell_length_b 5.663090
_cell_length_c 9.592208
_cell_angle_alpha 60.472198
_cell_angle_beta 36.692426
_cell_angle_gamma 74.073408
_cell_volume 283.692549
_symmetry_space_group_name_H-M "P 1"
_symmetry_group_IT_number 1
_symmetry_cell_setting 'triclinic'
loop_
_space_group_symop_operation_xyz
x,y,z
loop_
_atom_site_type_symbol
_atom_site_label
_atom_site_fract_x
_atom_site_fract_y
_atom_site_fract_z
Si Si1 0.897300 0.091590 0.772620
Si Si2 0.092164 0.580887 0.793857
Si Si3 0.272839 0.649365 0.329520
Si Si4 0.312634 0.105633 0.762752
Si Si5 0.635662 0.134358 0.230951
Si Si6 0.067039 0.150035 0.308922
Si Si7 0.490133 0.638379 0.885475
Si Si8 0.847984 0.858281 0.335038
O O1 0.907093 0.066366 0.605203
O O2 0.081470 0.372954 0.556754
O O3 0.671186 0.105961 0.043748
O O4 0.992285 0.846979 0.835126
O O5 0.259764 0.704802 0.486627
O O6 0.246693 0.391259 0.786058
O O7 0.861768 0.362188 0.012854
O O8 0.483176 0.618322 0.065627
O O9 0.188882 0.897831 0.257049
O O10 0.423349 0.173780 0.492687
O O11 0.467178 0.945117 0.762948
O O12 0.078015 0.876864 0.049646
O O13 0.678325 0.865550 0.354100
O O14 0.916505 0.119655 0.309724
O O15 0.269839 0.412506 0.091112
O O16 0.717600 0.611806 0.620717
#
# Coordination Sequence:
#
# PCOD9000892 Si02
#       8
#     1   1   1   1   1   1   1   1
#     4   9  19  40  70  93 132 185 219 275 339 394
#     4   9  19  39  64  94 129 183 220 272 338 396
#     4   9  18  40  63  89 139 168 222 283 322 400
#     4  10  20  42  63  95 138 172 218 278 331 396
#     4   9  20  41  64  94 139 175 219 281 331 401
#     4  10  20  41  71  98 132 178 222 277 341 391
#     4  10  21  41  66  97 136 176 218 278 339 398
#     4  10  21  42  65  98 137 173 220 280 329 400
#
# _framework density 28.199545000000001
#
# number of rings (size 3 to 8) (size 9 to 14) (size 15 to 20)
#    0.000    2.500    1.250    0.000    0.000    0.000 
#   27.000    0.000   11.000    0.000    0.000    0.000 
#    0.000    0.000    0.000    0.000    0.000    0.000 
#
# Total GULP energy -44585.984164 kJ/mol
# GULP energy per Si atom -5573.248020 kJ/mol
# Density = 2.813536 g / cm^3
# Si number density = 28.199545 Si / 1000 Ang^3
#
#
#
# Elastic Constant Matrix: (Units=GPa)
#
#
# Indices 1 2 3 4 5 6 
#
# 1 52.3030 8.7023 51.1031 6.0580 -1.8947 6.1090
# 2 8.7023 124.4784 35.8895 -0.4056 -6.3891 -26.2176
# 3 51.1031 35.8895 291.1634 32.9227 8.9978 33.0248
# 4 6.0580 -0.4056 32.9227 55.6906 23.2433 1.9114
# 5 -1.8947 -6.3891 8.9978 23.2433 64.3456 6.7435
# 6 6.1090 -26.2176 33.0248 1.9114 6.7435 37.0475
#
#
#
# Elastic Compliance Matrix: (Units=1/GPa)
#
#
# Indices 1 2 3 4 5 6 
#
# 1 0.023258 -0.000696 -0.003809 -0.000911 0.001601 -0.001177
# 2 -0.000696 0.010916 -0.002509 0.001346 -0.000123 0.010030
# 3 -0.003809 -0.002509 0.005381 -0.002798 0.000514 -0.005894
# 4 -0.000911 0.001346 -0.002798 0.023018 -0.008226 0.003906
# 5 0.001601 -0.000123 0.000514 -0.008226 0.018876 -0.003821
# 6 -0.001177 0.010030 -0.005894 0.003906 -0.003821 0.040032
#
#
# Mechanical properties :
#
#
# Convention : Reuss Voigt Hill
#
# Bulk Modulus (GPa) = 39.17617 73.25939 56.21778
# Shear Modulus (GPa) = 34.71724 56.23339 45.47531
#
# Velocity S-wave (km/s) = 3.51255 4.47041 4.02011
# Velocity P-wave (km/s) = 5.51120 7.25819 6.44417
#
# Compressibility (1/GPa) = 0.02552572
#
# Stress axis : x y z
#
# Youngs Moduli (GPa) = 42.99594 91.60661 185.82718
#
# Poissons Ratio (x) = 0.06379 0.70787
# Poissons Ratio (y) = 0.02994 0.46630
# Poissons Ratio (z) = 0.16378 0.22987
#
# Static dielectric constant tensor:
#      x y z
#    x 2.224780 -0.024320 0.065040 
#    y -0.024320 2.245030 0.039800 
#    z 0.065040 0.039800 2.207690 
# 
# From -- ./inp_files/6782.got.cif
#   From: 2010.05.17/outbox.cif.g08.bks.cpg/sg1_4_cif.got.tgz:6782.got - 2010.05.17 20:27:59.
