data_PCOD9000231
_publ_section_title
;
Structure prediction by ZEFSAII (Michael W. Deem and Ramdas Pophale) SiO2 
 PCOD9000231
Probable space group: P 1
;
_chemical_formula_sum "Si O2"
_cell_formula_units_Z 8
_cell_length_a 7.704920
_cell_length_b 9.033087
_cell_length_c 7.778173
_cell_angle_alpha 69.080254
_cell_angle_beta 100.276767
_cell_angle_gamma 53.059599
_cell_volume 343.635596
_symmetry_space_group_name_H-M "P 1"
_symmetry_group_IT_number 1
_symmetry_cell_setting 'triclinic'
loop_
_space_group_symop_operation_xyz
x,y,z
loop_
_atom_site_type_symbol
_atom_site_label
_atom_site_fract_x
_atom_site_fract_y
_atom_site_fract_z
Si Si1 0.995270 0.639080 0.404040
Si Si2 0.768354 0.331584 0.612541
Si Si3 0.489856 0.832306 0.395890
Si Si4 0.654865 0.923746 0.940451
Si Si5 0.302655 0.884403 0.979171
Si Si6 0.465645 0.352088 0.825189
Si Si7 0.364818 0.183438 0.461444
Si Si8 0.477573 0.431497 0.176983
O O1 0.731113 0.780093 0.395588
O O2 0.198795 0.581561 0.595989
O O3 0.134364 0.391433 0.456831
O O4 0.913186 0.779391 0.154682
O O5 0.632514 0.574939 0.567932
O O6 0.671506 0.259103 0.754920
O O7 0.669409 0.366460 0.387476
O O8 0.069625 0.127738 0.754220
O O9 0.338850 0.033790 0.423238
O O10 0.307539 0.910278 0.172730
O O11 0.458265 0.166089 0.907416
O O12 0.613544 0.995165 0.705307
O O13 0.562135 0.801992 0.993599
O O14 0.293077 0.704322 0.017231
O O15 0.549144 0.359426 0.021182
O O16 0.394294 0.312771 0.282875
#
# Coordination Sequence:
#
# PCOD9000231 Si02
#       8
#     1   1   1   1   1   1   1   1
#     4  10  22  44  70  94 137 173 226 285 321 402
#     4  11  23  45  64  99 141 172 219 286 330 398
#     4  10  24  44  66  99 133 177 228 274 339 396
#     4  10  22  43  70  96 133 180 225 273 331 406
#     4  10  24  44  67  95 136 175 223 279 331 400
#     4  11  24  42  68 101 131 176 228 274 340 397
#     4  11  23  42  69 104 132 177 230 270 341 402
#     4  11  24  42  66 104 135 172 225 275 345 397
#
# _framework density 23.280477000000001
#
# number of rings (size 3 to 8) (size 9 to 14) (size 15 to 20)
#    0.000    1.500    2.500    3.000    3.500    4.000 
#    6.750    0.000    0.000    0.000    0.000    0.000 
#    0.000    0.000    0.000    0.000    0.000    0.000 
#
# Total GULP energy -44597.651497 kJ/mol
# GULP energy per Si atom -5574.706437 kJ/mol
# Density = 2.322749 g / cm^3
# Si number density = 23.280477 Si / 1000 Ang^3
#
#
#
# Elastic Constant Matrix: (Units=GPa)
#
#
# Indices 1 2 3 4 5 6 
#
# 1 36.4237 -5.6541 7.8320 1.0840 -10.6069 4.1792
# 2 -5.6541 109.1510 43.6991 13.1665 -1.6885 19.2640
# 3 7.8320 43.6991 131.7612 -3.6854 -11.0319 -0.5697
# 4 1.0840 13.1665 -3.6854 36.9694 -0.5768 -5.7953
# 5 -10.6069 -1.6885 -11.0319 -0.5768 27.6959 -8.7046
# 6 4.1792 19.2640 -0.5697 -5.7953 -8.7046 27.9028
#
#
#
# Elastic Compliance Matrix: (Units=1/GPa)
#
#
# Indices 1 2 3 4 5 6 
#
# 1 0.032259 0.004259 -0.002632 -0.003434 0.009768 -0.005492
# 2 0.004259 0.015314 -0.006017 -0.008528 -0.004577 -0.014532
# 3 -0.002632 -0.006017 0.010327 0.004471 0.005121 0.007285
# 4 -0.003434 -0.008528 0.004471 0.033074 0.005360 0.015035
# 5 0.009768 -0.004577 0.005121 0.005360 0.047271 0.017661
# 6 -0.005492 -0.014532 0.007285 0.015035 0.017661 0.055475
#
#
# Mechanical properties :
#
#
# Convention : Reuss Voigt Hill
#
# Bulk Modulus (GPa) = 20.35807 41.00998 30.68402
# Shear Modulus (GPa) = 22.84453 33.94421 28.39437
#
# Velocity S-wave (km/s) = 3.13593 3.82259 3.49616
# Velocity P-wave (km/s) = 4.67715 6.09400 5.43197
#
# Compressibility (1/GPa) = 0.04912057
#
# Stress axis : x y z
#
# Youngs Moduli (GPa) = 30.99939 65.30072 96.83606
#
# Poissons Ratio (x) = -0.27814 0.25488
# Poissons Ratio (y) = -0.13204 0.58262
# Poissons Ratio (z) = 0.08159 0.39289
#
# Static dielectric constant tensor:
#      x y z
#    x 1.939400 0.036800 -0.021740 
#    y 0.036800 1.869940 -0.032370 
#    z -0.021740 -0.032370 1.915470 
# 
# From -- ./inp_files/4216.got.cif
#   From: 2010.05.17/outbox.cif.g08.bks.cpg/sg1_3_cif.got.tgz:4216.got - 2010.05.17 20:27:59.
