data_PCOD9000110
_publ_section_title
;
Structure prediction by ZEFSAII (Michael W. Deem and Ramdas Pophale) SiO2 
 PCOD9000110
Probable space group: P 1
;
_chemical_formula_sum "Si O2"
_cell_formula_units_Z 8
_cell_length_a 7.708800
_cell_length_b 8.822601
_cell_length_c 11.579089
_cell_angle_alpha 126.450358
_cell_angle_beta 141.756909
_cell_angle_gamma 74.868156
_cell_volume 357.123649
_symmetry_space_group_name_H-M "P 1"
_symmetry_group_IT_number 1
_symmetry_cell_setting 'triclinic'
loop_
_space_group_symop_operation_xyz
x,y,z
loop_
_atom_site_type_symbol
_atom_site_label
_atom_site_fract_x
_atom_site_fract_y
_atom_site_fract_z
Si Si1 0.369270 0.041810 0.182520
Si Si2 0.186899 0.651984 0.565100
Si Si3 0.813945 0.831388 0.126143
Si Si4 0.890818 0.266272 0.389536
Si Si5 0.254041 0.416433 0.274848
Si Si6 0.706833 0.808900 0.333187
Si Si7 0.928654 0.564961 0.717551
Si Si8 0.095044 0.551228 0.034772
O O1 0.545485 0.136654 0.198012
O O2 0.217379 0.196571 0.208539
O O3 0.626461 0.010126 0.382660
O O4 0.129640 0.807398 0.933724
O O5 0.224541 0.576444 0.423012
O O6 0.955310 0.434203 0.400990
O O7 0.018579 0.807253 0.545054
O O8 0.505610 0.746181 0.846286
O O9 0.724095 0.772611 0.187149
O O10 0.038478 0.734320 0.151176
O O11 0.983391 0.080771 0.323254
O O12 0.057051 0.418030 0.652470
O O13 0.610668 0.526652 0.473592
O O14 0.062520 0.392382 0.047400
O O15 0.419967 0.637849 0.175070
O O16 0.857009 0.485497 0.774989
#
# Coordination Sequence:
#
# PCOD9000110 Si02
#       8
#     1   1   1   1   1   1   1   1
#     4   9  21  42  67  93 132 173 223 270 332 397
#     4  12  23  41  69 100 140 175 222 281 336 394
#     4  11  24  46  68 101 137 179 224 279 336 402
#     4  10  22  40  68  96 131 176 220 274 334 394
#     4  11  23  40  69 102 133 177 226 272 335 405
#     4  10  22  42  69  98 135 174 224 281 332 392
#     4  10  21  45  67  95 133 178 220 280 334 391
#     4  11  22  42  73  97 137 178 225 279 333 401
#
# _framework density 22.401205000000001
#
# number of rings (size 3 to 8) (size 9 to 14) (size 15 to 20)
#    0.000    1.500    2.500    3.750    3.500    0.000 
#    0.000   32.500    0.000    0.000    0.000    0.000 
#    0.000    0.000    0.000    0.000    0.000    0.000 
#
# Total GULP energy -44563.280359 kJ/mol
# GULP energy per Si atom -5570.410045 kJ/mol
# Density = 2.235022 g / cm^3
# Si number density = 22.401205 Si / 1000 Ang^3
#
#
#
# Elastic Constant Matrix: (Units=GPa)
#
#
# Indices 1 2 3 4 5 6 
#
# 1 66.1440 33.0847 14.4424 -5.3253 -18.5066 0.8079
# 2 33.0847 136.0465 46.2358 8.3736 -6.9078 -9.5101
# 3 14.4424 46.2358 64.8856 10.9109 -2.0246 6.7888
# 4 -5.3253 8.3736 10.9109 39.7719 4.7298 -6.3171
# 5 -18.5066 -6.9078 -2.0246 4.7298 31.9222 1.1513
# 6 0.8079 -9.5101 6.7888 -6.3171 1.1513 37.5681
#
#
#
# Elastic Compliance Matrix: (Units=1/GPa)
#
#
# Indices 1 2 3 4 5 6 
#
# 1 0.020795 -0.004198 -0.001639 0.002674 0.010686 -0.001092
# 2 -0.004198 0.011190 -0.007488 -0.000110 -0.000625 0.004277
# 3 -0.001639 -0.007488 0.022860 -0.006030 0.000026 -0.007006
# 4 0.002674 -0.000110 -0.006030 0.028507 -0.003293 0.005899
# 5 0.010686 -0.000625 0.000026 -0.003293 0.037952 -0.002109
# 6 -0.001092 0.004277 -0.007006 0.005899 -0.002109 0.030047
#
#
# Mechanical properties :
#
#
# Convention : Reuss Voigt Hill
#
# Bulk Modulus (GPa) = 35.46715 50.51130 42.98923
# Shear Modulus (GPa) = 26.68097 33.40665 30.04381
#
# Velocity S-wave (km/s) = 3.45490 3.86591 3.66617
# Velocity P-wave (km/s) = 5.63757 6.52108 6.09535
#
# Compressibility (1/GPa) = 0.02819510
#
# Stress axis : x y z
#
# Youngs Moduli (GPa) = 48.08858 89.36445 43.74476
#
# Poissons Ratio (x) = 0.37518 0.07169
# Poissons Ratio (y) = 0.20189 0.32755
# Poissons Ratio (z) = 0.07881 0.66914
#
# Static dielectric constant tensor:
#      x y z
#    x 1.909300 -0.027100 -0.021110 
#    y -0.027100 1.884280 -0.007230 
#    z -0.021110 -0.007230 1.828510 
# 
# From -- ./inp_files/6483.got.cif
#   From: 2010.05.17/outbox.cif.g08.bks.cpg/sg1_4_cif.got.tgz:6483.got - 2010.05.17 20:27:59.
