data_PCOD9000438
_publ_section_title
;
Structure prediction by ZEFSAII (Michael W. Deem and Ramdas Pophale) SiO2 
 PCOD9000438
Probable space group: P 1
;
_chemical_formula_sum "Si O2"
_cell_formula_units_Z 6
_cell_length_a 10.532342
_cell_length_b 6.017480
_cell_length_c 4.954525
_cell_angle_alpha 90.002012
_cell_angle_beta 86.414466
_cell_angle_gamma 55.157120
_cell_volume 256.964016
_symmetry_space_group_name_H-M "P 1"
_symmetry_group_IT_number 1
_symmetry_cell_setting 'triclinic'
loop_
_space_group_symop_operation_xyz
x,y,z
loop_
_atom_site_type_symbol
_atom_site_label
_atom_site_fract_x
_atom_site_fract_y
_atom_site_fract_z
Si Si1 0.244290 0.192430 0.902850
Si Si2 0.035812 0.779214 0.092882
Si Si3 0.230185 0.922357 0.416770
Si Si4 0.841430 0.311106 0.769049
Si Si5 0.827328 0.609428 0.283027
Si Si6 0.535809 0.736177 0.592917
O O1 0.176453 0.066837 0.716037
O O2 0.423508 0.002316 0.789650
O O3 0.151495 0.512124 0.897774
O O4 0.224672 0.133906 0.210920
O O5 0.145174 0.809026 0.279319
O O6 0.920115 0.743551 0.288005
O O7 0.926457 0.027732 0.906441
O O8 0.415114 0.705912 0.442427
O O9 0.895183 0.348167 0.469828
O O10 0.656508 0.464477 0.743331
O O11 0.846915 0.511622 0.974971
O O12 0.648112 0.777763 0.396266
#
# Coordination Sequence:
#
# PCOD9000438 Si02
#       6
#     1   1   1   1   1   1
#     4  10  24  46  78 105 153 192 250 309 373 440
#     4  12  26  46  82 116 140 204 254 306 384 444
#     4  10  24  46  78 105 153 192 250 309 373 440
#     4  10  24  46  78 105 153 192 250 309 373 440
#     4  10  24  46  78 105 153 192 250 309 373 440
#     4   8  22  52  74 100 160 198 234 326 362 440
#
# _framework density 23.349574
#
# number of rings (size 3 to 8) (size 9 to 14) (size 15 to 20)
#    2.000    0.000    0.000    2.000    0.000   10.667 
#    0.000   10.000   14.667    0.000    0.000    0.000 
#    0.000    0.000    0.000    0.000    0.000    0.000 
#
# Total GULP energy -33475.382829 kJ/mol
# GULP energy per Si atom -5579.230471 kJ/mol
# Density = 2.329643 g / cm^3
# Si number density = 23.349574 Si / 1000 Ang^3
#
#
#
# Elastic Constant Matrix: (Units=GPa)
#
#
# Indices 1 2 3 4 5 6 
#
# 1 164.7054 85.9553 43.1904 -4.2069 11.9554 -20.9507
# 2 85.9553 132.6259 34.8854 -10.1975 9.1451 -21.0228
# 3 43.1904 34.8854 99.2949 -4.7732 6.8846 -10.8032
# 4 -4.2069 -10.1975 -4.7732 38.3652 -17.5062 0.3107
# 5 11.9554 9.1451 6.8846 -17.5062 51.8232 1.7385
# 6 -20.9507 -21.0228 -10.8032 0.3107 1.7385 31.2594
#
#
#
# Elastic Compliance Matrix: (Units=1/GPa)
#
#
# Indices 1 2 3 4 5 6 
#
# 1 0.009836 -0.005463 -0.002065 -0.001365 -0.001569 0.002306
# 2 -0.005463 0.012282 -0.001373 0.002445 -0.000036 0.004102
# 3 -0.002065 -0.001373 0.011720 0.000523 -0.000721 0.001778
# 4 -0.001365 0.002445 0.000523 0.031383 0.010415 0.000019
# 5 -0.001569 -0.000036 -0.000721 0.010415 0.023370 -0.002729
# 6 0.002306 0.004102 0.001778 0.000019 -0.002729 0.037061
#
#
# Mechanical properties :
#
#
# Convention : Reuss Voigt Hill
#
# Bulk Modulus (GPa) = 62.35430 80.52095 71.43763
# Shear Modulus (GPa) = 33.60223 39.79590 36.69907
#
# Velocity S-wave (km/s) = 3.79765 4.13286 3.96880
# Velocity P-wave (km/s) = 6.78176 7.57191 7.18770
#
# Compressibility (1/GPa) = 0.01603739
#
# Stress axis : x y z
#
# Youngs Moduli (GPa) = 101.66414 81.41727 85.32324
#
# Poissons Ratio (x) = 0.44479 0.17621
# Poissons Ratio (y) = 0.55539 0.11711
# Poissons Ratio (z) = 0.20995 0.11175
#
# Static dielectric constant tensor:
#      x y z
#    x 1.961300 -0.067910 -0.001980 
#    y -0.067910 1.909170 0.001330 
#    z -0.001980 0.001330 1.865330 
# 
# From -- ./inp_files/251.got.cif
#   From: 2010.05.17/outbox.cif.g08.bks.cpg/sg1_1_cif.got.tgz:251.got - 2010.05.17 20:27:59.
