data_PCOD9000901
_publ_section_title
;
Structure prediction by ZEFSAII (Michael W. Deem and Ramdas Pophale) SiO2 
 PCOD9000901
Probable space group: P 1
;
_chemical_formula_sum "Si O2"
_cell_formula_units_Z 6
_cell_length_a 5.224712
_cell_length_b 12.431043
_cell_length_c 9.434092
_cell_angle_alpha 39.136141
_cell_angle_beta 123.676258
_cell_angle_gamma 116.490676
_cell_volume 321.685844
_symmetry_space_group_name_H-M "P 1"
_symmetry_group_IT_number 1
_symmetry_cell_setting 'triclinic'
loop_
_space_group_symop_operation_xyz
x,y,z
loop_
_atom_site_type_symbol
_atom_site_label
_atom_site_fract_x
_atom_site_fract_y
_atom_site_fract_z
Si Si1 0.166750 0.673400 0.026900
Si Si2 0.509440 0.477641 0.553979
Si Si3 0.257975 0.980047 0.229761
Si Si4 0.438559 0.669566 0.802959
Si Si5 0.573172 0.865651 0.164958
Si Si6 0.178875 0.357820 0.855601
O O1 0.323181 0.512744 0.316787
O O2 0.324184 0.832953 0.997725
O O3 0.260558 0.680503 0.885437
O O4 0.803548 0.665675 0.944386
O O5 0.622520 0.671045 0.433006
O O6 0.289780 0.407000 0.681364
O O7 0.810847 0.369712 0.738979
O O8 0.370141 0.833309 0.518353
O O9 0.440974 0.968322 0.150634
O O10 0.896193 0.939387 0.133514
O O11 0.285209 0.167799 0.111707
O O12 0.326840 0.499306 0.860311
#
# Coordination Sequence:
#
# PCOD9000901 Si02
#       6
#     1   1   1   1   1   1
#     4  10  22  36  68  82 120 166 190 244 308 350
#     4  10  20  42  62  89 113 161 209 233 298 350
#     4  12  23  39  65  91 119 158 204 248 292 356
#     4  12  20  40  60  90 126 154 192 248 306 358
#     4  10  20  42  62  89 113 161 209 233 298 350
#     4  12  23  39  65  91 119 158 204 248 292 356
#
# _framework density 18.651738999999999
#
# number of rings (size 3 to 8) (size 9 to 14) (size 15 to 20)
#    1.000    0.000    3.333    5.000    0.000    0.000 
#    0.000   10.000    0.000    0.000    0.000    0.000 
#    0.000    0.000    0.000    0.000    0.000    0.000 
#
# Total GULP energy -33485.503062 kJ/mol
# GULP energy per Si atom -5580.917177 kJ/mol
# Density = 1.860929 g / cm^3
# Si number density = 18.651739 Si / 1000 Ang^3
#
#
#
# Elastic Constant Matrix: (Units=GPa)
#
#
# Indices 1 2 3 4 5 6 
#
# 1 63.7713 -16.9506 -15.5774 -0.7697 3.0331 -9.0223
# 2 -16.9506 56.5641 42.3015 -16.9409 5.9920 -10.5716
# 3 -15.5774 42.3015 39.2743 -8.4541 6.0063 -7.3196
# 4 -0.7697 -16.9409 -8.4541 29.2569 -5.4790 6.7360
# 5 3.0331 5.9920 6.0063 -5.4790 31.5910 5.7550
# 6 -9.0223 -10.5716 -7.3196 6.7360 5.7550 30.9337
#
#
#
# Elastic Compliance Matrix: (Units=1/GPa)
#
#
# Indices 1 2 3 4 5 6 
#
# 1 0.019911 0.003336 0.007161 0.001368 -0.005371 0.009343
# 2 0.003336 0.116190 -0.116406 0.033456 0.004668 0.004983
# 3 0.007161 -0.116406 0.150991 -0.027571 -0.013283 0.006510
# 4 0.001368 0.033456 -0.027571 0.048798 0.008484 -0.006896
# 5 -0.005371 0.004668 -0.013283 0.008484 0.037455 -0.011930
# 6 0.009343 0.004983 0.006510 -0.006896 -0.011930 0.042017
#
#
# Mechanical properties :
#
#
# Convention : Reuss Voigt Hill
#
# Bulk Modulus (GPa) = 13.28483 19.90631 16.59557
# Shear Modulus (GPa) = 7.66553 28.34539 18.00546
#
# Velocity S-wave (km/s) = 2.02947 3.90259 3.11038
# Velocity P-wave (km/s) = 3.55383 5.56801 4.67078
#
# Compressibility (1/GPa) = 0.07527380
#
# Stress axis : x y z
#
# Youngs Moduli (GPa) = 50.22382 8.60658 6.62292
#
# Poissons Ratio (x) = -0.02871 -0.04743
# Poissons Ratio (y) = -0.16755 0.77095
# Poissons Ratio (z) = -0.35967 1.00186
#
# Static dielectric constant tensor:
#      x y z
#    x 1.618080 0.005580 0.012070 
#    y 0.005580 1.645630 -0.016730 
#    z 0.012070 -0.016730 1.640540 
# 
# From -- ./inp_files/100.got.cif
#   From: 2010.05.17/outbox.cif.g08.bks.cpg/sg1_1_cif.got.tgz:100.got - 2010.05.17 20:27:59.
