data_PCOD9000304
_publ_section_title
;
Structure prediction by ZEFSAII (Michael W. Deem and Ramdas Pophale) SiO2 
 PCOD9000304
Probable space group: P 1
;
_chemical_formula_sum "Si O2"
_cell_formula_units_Z 8
_cell_length_a 8.017742
_cell_length_b 8.692095
_cell_length_c 7.776172
_cell_angle_alpha 78.480064
_cell_angle_beta 134.036314
_cell_angle_gamma 79.535837
_cell_volume 339.959025
_symmetry_space_group_name_H-M "P 1"
_symmetry_group_IT_number 1
_symmetry_cell_setting 'triclinic'
loop_
_space_group_symop_operation_xyz
x,y,z
loop_
_atom_site_type_symbol
_atom_site_label
_atom_site_fract_x
_atom_site_fract_y
_atom_site_fract_z
Si Si1 0.094350 0.401200 0.389150
Si Si2 0.827800 0.173861 0.239806
Si Si3 0.287682 0.482176 0.868328
Si Si4 0.607966 0.930587 0.218509
Si Si5 0.120346 0.241322 0.942374
Si Si6 0.538967 0.715663 0.905306
Si Si7 0.498081 0.942742 0.508362
Si Si8 0.647047 0.214018 0.704947
O O1 0.154442 0.464780 0.599778
O O2 0.346348 0.357619 0.464321
O O3 0.061926 0.222630 0.423189
O O4 0.814221 0.547415 0.091917
O O5 0.828954 0.995769 0.346467
O O6 0.583406 0.328140 0.126932
O O7 0.738821 0.192057 0.973359
O O8 0.138168 0.423500 0.914771
O O9 0.335309 0.651953 0.848716
O O10 0.619064 0.848892 0.434053
O O11 0.603343 0.817888 0.079907
O O12 0.329476 0.109598 0.983787
O O13 0.829747 0.269356 0.711269
O O14 0.240968 0.114648 0.221629
O O15 0.445816 0.829833 0.639520
O O16 0.669812 0.029492 0.693659
#
# Coordination Sequence:
#
# PCOD9000304 Si02
#       8
#     1   1   1   1   1   1   1   1
#     4  10  23  40  70 104 135 192 222 283 354 418
#     4   9  18  40  69  99 130 176 241 276 333 404
#     4   9  21  41  68  97 142 186 222 289 344 407
#     4   9  21  44  69 106 134 178 234 291 342 402
#     4   9  22  41  69 107 131 177 248 282 331 410
#     4  11  22  47  72 105 146 178 228 285 370 407
#     4  10  23  41  72 109 132 182 232 297 343 400
#     4  11  20  40  69 105 134 181 237 285 333 414
#
# _framework density 23.532247999999999
#
# number of rings (size 3 to 8) (size 9 to 14) (size 15 to 20)
#    0.750    1.500    1.250    0.750    1.750    1.000 
#    4.500   10.000    0.000    0.000    3.250    0.000 
#    0.000    0.000    0.000    0.000    0.000    0.000 
#
# Total GULP energy -44637.453336 kJ/mol
# GULP energy per Si atom -5579.681667 kJ/mol
# Density = 2.347869 g / cm^3
# Si number density = 23.532248 Si / 1000 Ang^3
#
#
#
# Elastic Constant Matrix: (Units=GPa)
#
#
# Indices 1 2 3 4 5 6 
#
# 1 112.4897 58.5416 37.9290 -7.6176 16.1984 28.5497
# 2 58.5416 105.4593 41.3057 5.3985 -5.2968 37.5531
# 3 37.9290 41.3057 83.9840 -2.8659 -5.6225 8.2497
# 4 -7.6176 5.3985 -2.8659 35.3091 1.4409 0.8324
# 5 16.1984 -5.2968 -5.6225 1.4409 46.0356 10.7997
# 6 28.5497 37.5531 8.2497 0.8324 10.7997 40.2269
#
#
#
# Elastic Compliance Matrix: (Units=1/GPa)
#
#
# Indices 1 2 3 4 5 6 
#
# 1 0.015491 -0.006953 -0.003638 0.004419 -0.006329 -0.002150
# 2 -0.006953 0.022310 -0.005794 -0.005328 0.008427 -0.016856
# 3 -0.003638 -0.005794 0.016130 0.001247 0.001549 0.004242
# 4 0.004419 -0.005328 0.001247 0.030285 -0.003402 0.001869
# 5 -0.006329 0.008427 0.001549 -0.003402 0.027816 -0.011090
# 6 -0.002150 -0.016856 0.004242 0.001869 -0.011090 0.044189
#
#
# Mechanical properties :
#
#
# Convention : Reuss Voigt Hill
#
# Bulk Modulus (GPa) = 47.26033 64.16507 55.71270
# Shear Modulus (GPa) = 25.50437 35.25808 30.38122
#
# Velocity S-wave (km/s) = 3.29569 3.87497 3.59701
# Velocity P-wave (km/s) = 5.88293 6.88089 6.40139
#
# Compressibility (1/GPa) = 0.02115940
#
# Stress axis : x y z
#
# Youngs Moduli (GPa) = 64.55365 44.82359 61.99784
#
# Poissons Ratio (x) = 0.31165 0.22556
# Poissons Ratio (y) = 0.44883 0.35924
# Poissons Ratio (z) = 0.23486 0.25973
#
# Static dielectric constant tensor:
#      x y z
#    x 1.935010 -0.006560 -0.001370 
#    y -0.006560 1.917010 -0.026850 
#    z -0.001370 -0.026850 1.905310 
# 
# From -- ./inp_files/4281.got.cif
#   From: 2010.05.17/outbox.cif.g08.bks.cpg/sg1_3_cif.got.tgz:4281.got - 2010.05.17 20:27:59.
