data_PCOD9000125
_publ_section_title
;
Structure prediction by ZEFSAII (Michael W. Deem and Ramdas Pophale) SiO2 
 PCOD9000125
Probable space group: P 1
;
_chemical_formula_sum "Si O2"
_cell_formula_units_Z 6
_cell_length_a 5.228182
_cell_length_b 7.919694
_cell_length_c 12.171606
_cell_angle_alpha 30.054838
_cell_angle_beta 72.950839
_cell_angle_gamma 76.876804
_cell_volume 240.935502
_symmetry_space_group_name_H-M "P 1"
_symmetry_group_IT_number 1
_symmetry_cell_setting 'triclinic'
loop_
_space_group_symop_operation_xyz
x,y,z
loop_
_atom_site_type_symbol
_atom_site_label
_atom_site_fract_x
_atom_site_fract_y
_atom_site_fract_z
Si Si1 0.062790 0.728520 0.529830
Si Si2 0.484635 0.896756 0.211611
Si Si3 0.290375 0.995943 0.947035
Si Si4 0.791500 0.360083 0.581484
Si Si5 0.141064 0.784358 0.860887
Si Si6 0.738828 0.593624 0.839735
O O1 0.186178 0.372412 0.745600
O O2 0.850273 0.633909 0.514792
O O3 0.911623 0.832972 0.598649
O O4 0.300070 0.937645 0.320212
O O5 0.646521 0.561807 0.392693
O O6 0.306694 0.877667 0.135664
O O7 0.681143 0.228666 0.996659
O O8 0.590331 0.067672 0.821432
O O9 0.136190 0.766189 0.004664
O O10 0.056411 0.166749 0.631599
O O11 0.443923 0.724576 0.821229
O O12 0.923469 0.564295 0.940974
#
# Coordination Sequence:
#
# PCOD9000125 Si02
#       6
#     1   1   1   1   1   1
#     4  10  24  43  76 106 145 191 251 292 360 434
#     4  11  25  44  83 107 138 196 260 289 351 444
#     4  10  21  48  75 106 142 200 242 296 354 445
#     4  10  22  46  75 108 139 197 250 285 358 445
#     4  11  25  46  77 105 155 194 227 309 383 411
#     4  12  25  47  76 110 151 188 236 313 368 419
#
# _framework density 24.902926999999998
#
# number of rings (size 3 to 8) (size 9 to 14) (size 15 to 20)
#    0.000    1.333    3.333    1.000    7.000    0.000 
#    0.000    8.333    0.000    0.000    0.000    0.000 
#    0.000    0.000    0.000    0.000    0.000    0.000 
#
# Total GULP energy -33556.831751 kJ/mol
# GULP energy per Si atom -5592.805292 kJ/mol
# Density = 2.484625 g / cm^3
# Si number density = 24.902927 Si / 1000 Ang^3
#
#
#
# Elastic Constant Matrix: (Units=GPa)
#
#
# Indices 1 2 3 4 5 6 
#
# 1 154.1342 47.7986 39.0157 16.2831 17.5320 -5.8200
# 2 47.7986 85.7467 32.7677 13.9967 13.4638 3.1414
# 3 39.0157 32.7677 97.1084 24.1687 11.6696 -8.4484
# 4 16.2831 13.9967 24.1687 19.8302 6.4654 4.2849
# 5 17.5320 13.4638 11.6696 6.4654 46.8600 3.5017
# 6 -5.8200 3.1414 -8.4484 4.2849 3.5017 55.1130
#
#
#
# Elastic Compliance Matrix: (Units=1/GPa)
#
#
# Indices 1 2 3 4 5 6 
#
# 1 0.008411 -0.003594 -0.001218 -0.002645 -0.001536 0.001210
# 2 -0.003594 0.015695 -0.002782 -0.003858 -0.001844 -0.001284
# 3 -0.001218 -0.002782 0.016624 -0.017934 -0.000711 0.004018
# 4 -0.002645 -0.003858 -0.017934 0.080343 -0.003863 -0.008810
# 5 -0.001536 -0.001844 -0.000711 -0.003863 0.023255 -0.001343
# 6 0.001210 -0.001284 0.004018 -0.008810 -0.001343 0.019732
#
#
# Mechanical properties :
#
#
# Convention : Reuss Voigt Hill
#
# Bulk Modulus (GPa) = 39.15231 64.01703 51.58467
# Shear Modulus (GPa) = 26.62931 38.85445 32.74188
#
# Velocity S-wave (km/s) = 3.27360 3.95427 3.62992
# Velocity P-wave (km/s) = 5.48131 6.82721 6.19094
#
# Compressibility (1/GPa) = 0.02554128
#
# Stress axis : x y z
#
# Youngs Moduli (GPa) = 118.89673 63.71374 60.15240
#
# Poissons Ratio (x) = 0.22900 0.07328
# Poissons Ratio (y) = 0.42734 0.16735
# Poissons Ratio (z) = 0.14484 0.17725
#
# Static dielectric constant tensor:
#      x y z
#    x 1.992320 -0.034510 -0.021010 
#    y -0.034510 2.031120 0.007210 
#    z -0.021010 0.007210 1.948560 
# 
# From -- ./inp_files/152.got.cif
#   From: 2010.05.17/outbox.cif.g08.bks.cpg/sg1_1_cif.got.tgz:152.got - 2010.05.17 20:27:59.
