data_PCOD9000588
_publ_section_title
;
Structure prediction by ZEFSAII (Michael W. Deem and Ramdas Pophale) SiO2 
 PCOD9000588
Probable space group: P 1
;
_chemical_formula_sum "Si O2"
_cell_formula_units_Z 6
_cell_length_a 9.841827
_cell_length_b 6.113625
_cell_length_c 4.992009
_cell_angle_alpha 95.561365
_cell_angle_beta 99.914253
_cell_angle_gamma 113.045666
_cell_volume 267.756132
_symmetry_space_group_name_H-M "P 1"
_symmetry_group_IT_number 1
_symmetry_cell_setting 'triclinic'
loop_
_space_group_symop_operation_xyz
x,y,z
loop_
_atom_site_type_symbol
_atom_site_label
_atom_site_fract_x
_atom_site_fract_y
_atom_site_fract_z
Si Si1 0.500000 0.765180 0.060030
Si Si2 0.799561 0.696043 0.249314
Si Si3 0.366143 0.457992 0.494050
Si Si4 0.596912 0.238270 0.483388
Si Si5 0.015363 0.211582 0.448953
Si Si6 0.878461 0.352495 0.901873
O O1 0.664588 0.759843 0.103810
O O2 0.402215 0.559572 0.217544
O O3 0.522942 0.018865 0.226588
O O4 0.419975 0.686723 0.739187
O O5 0.715357 0.471556 0.391796
O O6 0.985993 0.366630 0.692261
O O7 0.924966 0.930427 0.458043
O O8 0.470781 0.314980 0.571209
O O9 0.191138 0.293189 0.462698
O O10 0.705462 0.189580 0.728593
O O11 0.935508 0.248402 0.158141
O O12 0.874835 0.600395 0.031591
#
# Coordination Sequence:
#
# PCOD9000588 Si02
#       6
#     1   1   1   1   1   1
#     4  11  24  44  74  97 137 178 233 279 329 408
#     4  11  24  43  75 103 131 181 232 282 330 408
#     4  11  27  46  67 104 139 180 222 284 345 398
#     4  11  25  45  76 101 131 185 237 272 336 410
#     4  12  28  44  70 104 144 172 226 289 344 394
#     4  12  24  44  70 105 132 182 228 276 338 406
#
# _framework density 22.408453999999999
#
# number of rings (size 3 to 8) (size 9 to 14) (size 15 to 20)
#    0.000    0.667    5.000    1.000    7.000    2.667 
#    0.000    0.000    0.000    0.000    0.000    0.000 
#    0.000    0.000    0.000    0.000    0.000    0.000 
#
# Total GULP energy -33599.596037 kJ/mol
# GULP energy per Si atom -5599.932673 kJ/mol
# Density = 2.235745 g / cm^3
# Si number density = 22.408454 Si / 1000 Ang^3
#
#
#
# Elastic Constant Matrix: (Units=GPa)
#
#
# Indices 1 2 3 4 5 6 
#
# 1 175.7701 50.7990 40.5614 13.1500 -3.4678 8.9971
# 2 50.7990 72.4561 17.7239 15.8250 8.4182 5.4056
# 3 40.5614 17.7239 87.2840 -1.2559 -10.2280 -7.0489
# 4 13.1500 15.8250 -1.2559 41.3937 1.1483 -6.4886
# 5 -3.4678 8.4182 -10.2280 1.1483 30.2333 9.3917
# 6 8.9971 5.4056 -7.0489 -6.4886 9.3917 25.0162
#
#
#
# Elastic Compliance Matrix: (Units=1/GPa)
#
#
# Indices 1 2 3 4 5 6 
#
# 1 0.008057 -0.004590 -0.002865 -0.001604 0.002565 -0.004092
# 2 -0.004590 0.020116 -0.002988 -0.006632 -0.005947 -0.003025
# 3 -0.002865 -0.002988 0.014282 0.003197 0.003606 0.005176
# 4 -0.001604 -0.006632 0.003197 0.029098 -0.001822 0.011142
# 5 0.002565 -0.005947 0.003606 -0.001822 0.040791 -0.014408
# 6 -0.004092 -0.003025 0.005176 0.011142 -0.014408 0.051857
#
#
# Mechanical properties :
#
#
# Convention : Reuss Voigt Hill
#
# Bulk Modulus (GPa) = 46.36635 61.51986 53.94311
# Shear Modulus (GPa) = 26.00416 34.42368 30.21392
#
# Velocity S-wave (km/s) = 3.41025 3.92368 3.67594
# Velocity P-wave (km/s) = 6.02020 6.93112 6.49166
#
# Compressibility (1/GPa) = 0.02156736
#
# Stress axis : x y z
#
# Youngs Moduli (GPa) = 124.11315 49.71200 70.02035
#
# Poissons Ratio (x) = 0.22820 0.20061
# Poissons Ratio (y) = 0.56973 0.20923
# Poissons Ratio (z) = 0.35559 0.14855
#
# Static dielectric constant tensor:
#      x y z
#    x 1.780040 0.003400 -0.016270 
#    y 0.003400 1.850930 -0.029660 
#    z -0.016270 -0.029660 1.831890 
# 
# From -- ./inp_files/145.got.cif
#   From: 2010.05.17/outbox.cif.g08.bks.cpg/sg1_1_cif.got.tgz:145.got - 2010.05.17 20:27:59.
