data_PCOD9000711
_publ_section_title
;
Structure prediction by ZEFSAII (Michael W. Deem and Ramdas Pophale) SiO2 
 PCOD9000711
Probable space group: P 1
;
_chemical_formula_sum "Si O2"
_cell_formula_units_Z 8
_cell_length_a 8.172996
_cell_length_b 8.348927
_cell_length_c 4.961658
_cell_angle_alpha 91.993797
_cell_angle_beta 64.671299
_cell_angle_gamma 113.325802
_cell_volume 277.284701
_symmetry_space_group_name_H-M "P 1"
_symmetry_group_IT_number 1
_symmetry_cell_setting 'triclinic'
loop_
_space_group_symop_operation_xyz
x,y,z
loop_
_atom_site_type_symbol
_atom_site_label
_atom_site_fract_x
_atom_site_fract_y
_atom_site_fract_z
Si Si1 0.701830 0.336620 0.113370
Si Si2 0.787385 0.930280 0.409349
Si Si3 0.921429 0.155245 0.820656
Si Si4 0.625679 0.588113 0.821599
Si Si5 0.171615 0.452355 0.919701
Si Si6 0.467358 0.019487 0.918769
Si Si7 0.305650 0.677318 0.331013
Si Si8 0.391214 0.270984 0.626986
O O1 0.927294 0.338303 0.005491
O O2 0.746355 0.509393 0.911723
O O3 0.646692 0.353347 0.469743
O O4 0.678250 0.151738 0.934975
O O5 0.854043 0.991427 0.066154
O O6 0.756333 0.742073 0.534756
O O7 0.935913 0.086435 0.507500
O O8 0.575548 0.939761 0.620666
O O9 0.165749 0.269298 0.734862
O O10 0.517489 0.667843 0.119694
O O11 0.446354 0.254265 0.270613
O O12 0.157124 0.521164 0.232861
O O13 0.239000 0.616175 0.674205
O O14 0.414783 0.455862 0.805400
O O15 0.346693 0.098212 0.828634
O O16 0.336701 0.865526 0.205606
#
# Coordination Sequence:
#
# PCOD9000711 Si02
#       8
#     1   1   1   1   1   1   1   1
#     4  10  19  35  59  83 113 142 185 233 276 326
#     4  10  21  37  60  83 112 145 189 231 271 330
#     4  11  23  39  57  81 115 153 183 222 280 336
#     4   9  20  34  58  89 107 142 189 236 276 315
#     4  11  23  39  57  81 115 153 183 222 280 336
#     4   9  20  34  58  89 107 142 189 236 276 315
#     4  10  21  37  60  83 112 145 189 231 271 330
#     4  10  19  35  59  83 113 142 185 233 276 326
#
# _framework density 28.851210999999999
#
# number of rings (size 3 to 8) (size 9 to 14) (size 15 to 20)
#    0.000    2.000    2.500    0.750    3.500    3.000 
#    0.000    2.500    0.000    0.000    0.000    0.000 
#    0.000    0.000    0.000    0.000    0.000    0.000 
#
# Total GULP energy -44715.301119 kJ/mol
# GULP energy per Si atom -5589.412640 kJ/mol
# Density = 2.878554 g / cm^3
# Si number density = 28.851211 Si / 1000 Ang^3
#
#
#
# Elastic Constant Matrix: (Units=GPa)
#
#
# Indices 1 2 3 4 5 6 
#
# 1 191.3446 74.4524 51.3595 2.3710 -33.8524 -18.7095
# 2 74.4524 118.3908 -14.7931 -20.9365 11.1558 3.7858
# 3 51.3595 -14.7931 83.8185 -2.8551 10.4785 -20.8050
# 4 2.3710 -20.9365 -2.8551 38.8585 -19.5713 10.6566
# 5 -33.8524 11.1558 10.4785 -19.5713 49.0064 -2.6621
# 6 -18.7095 3.7858 -20.8050 10.6566 -2.6621 71.2125
#
#
#
# Elastic Compliance Matrix: (Units=1/GPa)
#
#
# Indices 1 2 3 4 5 6 
#
# 1 0.021971 -0.018789 -0.019126 -0.001988 0.022877 0.002336
# 2 -0.018789 0.025746 0.018105 0.007016 -0.020062 -0.002816
# 3 -0.019126 0.018105 0.030253 0.000877 -0.023352 0.001847
# 4 -0.001988 0.007016 0.000877 0.036964 0.011292 -0.005748
# 5 0.022877 -0.020062 -0.023352 0.011292 0.050302 0.000445
# 6 0.002336 -0.002816 0.001847 -0.005748 0.000445 0.016222
#
#
# Mechanical properties :
#
#
# Convention : Reuss Voigt Hill
#
# Bulk Modulus (GPa) = 26.07654 68.39905 47.23780
# Shear Modulus (GPa) = 21.38015 50.65115 36.01565
#
# Velocity S-wave (km/s) = 2.72517 4.19453 3.53700
# Velocity P-wave (km/s) = 4.35431 6.87152 5.75229
#
# Compressibility (1/GPa) = 0.03834864
#
# Stress axis : x y z
#
# Youngs Moduli (GPa) = 45.51450 38.84166 33.05451
#
# Poissons Ratio (x) = 0.72978 0.63222
# Poissons Ratio (y) = 0.85516 -0.59844
# Poissons Ratio (z) = 0.87053 -0.70321
#
# Static dielectric constant tensor:
#      x y z
#    x 2.264910 0.032440 -0.048790 
#    y 0.032440 2.461240 0.123700 
#    z -0.048790 0.123700 1.994070 
# 
# From -- ./inp_files/2048.got.cif
#   From: 2010.05.17/outbox.cif.g08.bks.cpg/sg1_2_cif.got.tgz:2048.got - 2010.05.17 20:27:59.
