data_PCOD9000869
_publ_section_title
;
Structure prediction by ZEFSAII (Michael W. Deem and Ramdas Pophale) SiO2 
 PCOD9000869
Probable space group: P 1
;
_chemical_formula_sum "Si O2"
_cell_formula_units_Z 8
_cell_length_a 7.380940
_cell_length_b 7.535026
_cell_length_c 10.744947
_cell_angle_alpha 134.443471
_cell_angle_beta 49.921451
_cell_angle_gamma 123.778661
_cell_volume 320.343680
_symmetry_space_group_name_H-M "P 1"
_symmetry_group_IT_number 1
_symmetry_cell_setting 'triclinic'
loop_
_space_group_symop_operation_xyz
x,y,z
loop_
_atom_site_type_symbol
_atom_site_label
_atom_site_fract_x
_atom_site_fract_y
_atom_site_fract_z
Si Si1 0.301750 0.274610 0.922590
Si Si2 0.632950 0.026385 0.316804
Si Si3 0.248217 0.604522 0.885578
Si Si4 0.901213 0.525670 0.346074
Si Si5 0.184245 0.826631 0.574569
Si Si6 0.230824 0.474689 0.567045
Si Si7 0.021019 0.960408 0.308331
Si Si8 0.774565 0.503159 0.914686
O O1 0.366302 0.468718 0.873749
O O2 0.552461 0.274721 0.880627
O O3 0.170663 0.019305 0.788563
O O4 0.130875 0.395513 0.148214
O O5 0.369427 0.979347 0.468718
O O6 0.822913 0.064190 0.366131
O O7 0.679362 0.764082 0.106302
O O8 0.693977 0.277210 0.329062
O O9 0.356657 0.594049 0.695866
O O10 0.965462 0.463333 0.918546
O O11 0.206000 0.870484 0.085381
O O12 0.957712 0.686166 0.526730
O O13 0.899875 0.725221 0.333034
O O14 0.320222 0.616122 0.471279
O O15 0.957676 0.531241 0.732040
O O16 0.174343 0.177391 0.430028
#
# Coordination Sequence:
#
# PCOD9000869 Si02
#       8
#     1   1   1   1   1   1   1   1
#     4  11  21  41  68  94 129 172 221 265 330 392
#     4  11  22  45  63  96 134 168 221 267 329 388
#     4   8  21  38  64  92 129 167 214 271 316 387
#     4  11  24  43  67  95 130 172 216 276 322 390
#     4  12  24  38  70  97 125 180 212 266 337 383
#     4  10  20  40  65  93 132 170 211 271 324 384
#     4  10  20  41  68  89 129 168 210 273 324 375
#     4   9  20  40  67  90 132 171 211 271 324 385
#
# _framework density 24.973178000000001
#
# number of rings (size 3 to 8) (size 9 to 14) (size 15 to 20)
#    0.750    1.000    2.500    2.250    0.000    0.000 
#    4.500    0.000    5.500    0.000    0.000    0.000 
#    0.000    0.000    0.000    0.000    0.000    0.000 
#
# Total GULP energy -44691.513449 kJ/mol
# GULP energy per Si atom -5586.439181 kJ/mol
# Density = 2.491634 g / cm^3
# Si number density = 24.973178 Si / 1000 Ang^3
#
#
#
# Elastic Constant Matrix: (Units=GPa)
#
#
# Indices 1 2 3 4 5 6 
#
# 1 72.1151 17.3969 27.7090 4.5485 14.6353 4.5491
# 2 17.3969 94.5377 2.9462 5.1737 14.6590 -4.9126
# 3 27.7090 2.9462 94.5729 20.2086 26.3736 13.9764
# 4 4.5485 5.1737 20.2086 24.8821 2.0561 5.2046
# 5 14.6353 14.6590 26.3736 2.0561 33.6672 -3.1062
# 6 4.5491 -4.9126 13.9764 5.2046 -3.1062 34.0323
#
#
#
# Elastic Compliance Matrix: (Units=1/GPa)
#
#
# Indices 1 2 3 4 5 6 
#
# 1 0.016682 -0.002591 -0.003962 0.001282 -0.003233 -0.001468
# 2 -0.002591 0.012172 0.002755 -0.004017 -0.005990 0.001039
# 3 -0.003962 0.002755 0.019429 -0.013099 -0.014485 -0.006370
# 4 0.001282 -0.004017 -0.013099 0.051278 0.008093 -0.002475
# 5 -0.003233 -0.005990 -0.014485 0.008093 0.045346 0.008417
# 6 -0.001468 0.001039 -0.006370 -0.002475 0.008417 0.033493
#
#
# Mechanical properties :
#
#
# Convention : Reuss Voigt Hill
#
# Bulk Modulus (GPa) = 24.57837 39.70332 32.14085
# Shear Modulus (GPa) = 25.05539 32.72790 28.89164
#
# Velocity S-wave (km/s) = 3.17092 3.62404 3.40502
# Velocity P-wave (km/s) = 4.82385 5.78312 5.32513
#
# Compressibility (1/GPa) = 0.04068618
#
# Stress axis : x y z
#
# Youngs Moduli (GPa) = 59.94397 82.15888 51.47002
#
# Poissons Ratio (x) = 0.21291 0.20394
# Poissons Ratio (y) = 0.15534 -0.14183
# Poissons Ratio (z) = 0.23751 -0.22639
#
# Static dielectric constant tensor:
#      x y z
#    x 1.991860 0.003460 -0.015410 
#    y 0.003460 1.972460 0.013860 
#    z -0.015410 0.013860 1.995180 
# 
# From -- ./inp_files/4061.got.cif
#   From: 2010.05.17/outbox.cif.g08.bks.cpg/sg1_3_cif.got.tgz:4061.got - 2010.05.17 20:27:59.
