data_PCOD9000968
_publ_section_title
;
Structure prediction by ZEFSAII (Michael W. Deem and Ramdas Pophale) SiO2 
 PCOD9000968
Probable space group: P 1
;
_chemical_formula_sum "Si O2"
_cell_formula_units_Z 8
_cell_length_a 5.253512
_cell_length_b 12.724918
_cell_length_c 5.316531
_cell_angle_alpha 116.681354
_cell_angle_beta 93.208799
_cell_angle_gamma 70.560642
_cell_volume 297.616255
_symmetry_space_group_name_H-M "P 1"
_symmetry_group_IT_number 1
_symmetry_cell_setting 'triclinic'
loop_
_space_group_symop_operation_xyz
x,y,z
loop_
_atom_site_type_symbol
_atom_site_label
_atom_site_fract_x
_atom_site_fract_y
_atom_site_fract_z
Si Si1 0.055340 0.553980 0.206660
Si Si2 0.504152 0.425964 0.406714
Si Si3 0.855928 0.036834 0.878362
Si Si4 0.764039 0.795773 0.773579
Si Si5 0.317283 0.881052 0.458000
Si Si6 0.282036 0.132761 0.807428
Si Si7 0.817836 0.362052 0.840780
Si Si8 0.292647 0.660162 0.933163
O O1 0.193138 0.454247 0.331365
O O2 0.899050 0.691110 0.450650
O O3 0.894666 0.487208 0.958299
O O4 0.294819 0.570766 0.070466
O O5 0.684945 0.372289 0.118736
O O6 0.466503 0.572198 0.629096
O O7 0.633099 0.351686 0.585199
O O8 0.813378 0.929383 0.932656
O O9 0.995324 0.945027 0.550884
O O10 0.560125 0.140238 0.937049
O O11 0.085119 0.102534 0.975130
O O12 0.454860 0.835948 0.691250
O O13 0.971277 0.719190 0.917668
O O14 0.391903 0.001416 0.518316
O O15 0.391351 0.770658 0.146648
O O16 0.095822 0.243949 0.747825
#
# Coordination Sequence:
#
# PCOD9000968 Si02
#       8
#     1   1   1   1   1   1   1   1
#     4  11  24  42  70 105 149 190 241 302 368 441
#     4  11  27  46  70 104 146 193 243 304 365 441
#     4   9  19  43  69 100 145 185 243 301 369 422
#     4  10  21  38  66 106 144 191 235 304 366 449
#     4   9  20  43  65  98 148 182 241 297 371 428
#     4   9  22  43  71 101 144 195 246 307 358 446
#     4  12  27  47  71 105 145 199 248 301 367 439
#     4  11  22  42  72 109 147 189 243 302 378 440
#
# _framework density 26.880253
#
# number of rings (size 3 to 8) (size 9 to 14) (size 15 to 20)
#    0.750    1.000    2.500    0.750    5.250    0.000 
#    4.500    2.500    0.000    0.000    0.000    0.000 
#    0.000    0.000    0.000    0.000    0.000    0.000 
#
# Total GULP energy -44584.479112 kJ/mol
# GULP energy per Si atom -5573.059889 kJ/mol
# Density = 2.681907 g / cm^3
# Si number density = 26.880253 Si / 1000 Ang^3
#
#
#
# Elastic Constant Matrix: (Units=GPa)
#
#
# Indices 1 2 3 4 5 6 
#
# 1 122.4139 50.3219 33.6525 -1.3332 13.1012 -33.4927
# 2 50.3219 127.5574 33.3727 -12.9204 4.2585 -22.7891
# 3 33.6525 33.3727 103.7776 -23.5147 13.9086 -7.7741
# 4 -1.3332 -12.9204 -23.5147 26.9459 -2.8118 17.4079
# 5 13.1012 4.2585 13.9086 -2.8118 27.8828 4.1760
# 6 -33.4927 -22.7891 -7.7741 17.4079 4.1760 51.7361
#
#
#
# Elastic Compliance Matrix: (Units=1/GPa)
#
#
# Indices 1 2 3 4 5 6 
#
# 1 0.015281 -0.003581 -0.005146 -0.014693 -0.007509 0.013092
# 2 -0.003581 0.010048 -0.001488 0.002927 0.001064 0.000813
# 3 -0.005146 -0.001488 0.015361 0.016827 -0.002248 -0.007159
# 4 -0.014693 0.002927 0.016827 0.073786 0.010198 -0.031344
# 5 -0.007509 0.001064 -0.002248 0.010198 0.043123 -0.011642
# 6 0.013092 0.000813 -0.007159 -0.031344 -0.011642 0.038573
#
#
# Mechanical properties :
#
#
# Convention : Reuss Voigt Hill
#
# Bulk Modulus (GPa) = 49.35788 65.38257 57.37023
# Shear Modulus (GPa) = 22.38568 37.07308 29.72938
#
# Velocity S-wave (km/s) = 2.88895 3.71778 3.32926
# Velocity P-wave (km/s) = 5.43415 6.54260 6.01397
#
# Compressibility (1/GPa) = 0.02026019
#
# Stress axis : x y z
#
# Youngs Moduli (GPa) = 65.43946 99.52267 65.09908
#
# Poissons Ratio (x) = 0.35637 0.33500
# Poissons Ratio (y) = 0.23432 0.09689
# Poissons Ratio (z) = 0.33675 0.14812
#
# Static dielectric constant tensor:
#      x y z
#    x 2.241890 0.046820 0.018730 
#    y 0.046820 2.235700 -0.047290 
#    z 0.018730 -0.047290 2.126530 
# 
# From -- ./inp_files/571.got.cif
#   From: 2010.05.17/outbox.cif.g08.bks.cpg/sg1_1_cif.got.tgz:571.got - 2010.05.17 20:27:59.
