data_PCOD9000266
_publ_section_title
;
Structure prediction by ZEFSAII (Michael W. Deem and Ramdas Pophale) SiO2 
 PCOD9000266
Probable space group: P 1
;
_chemical_formula_sum "Si O2"
_cell_formula_units_Z 8
_cell_length_a 8.798390
_cell_length_b 11.437958
_cell_length_c 15.195607
_cell_angle_alpha 153.306434
_cell_angle_beta 143.772050
_cell_angle_gamma 27.917680
_cell_volume 320.553000
_symmetry_space_group_name_H-M "P 1"
_symmetry_group_IT_number 1
_symmetry_cell_setting 'triclinic'
loop_
_space_group_symop_operation_xyz
x,y,z
loop_
_atom_site_type_symbol
_atom_site_label
_atom_site_fract_x
_atom_site_fract_y
_atom_site_fract_z
Si Si1 0.425350 0.266460 0.457060
Si Si2 0.095223 0.229127 0.921545
Si Si3 0.080353 0.763967 0.183699
Si Si4 0.667297 0.774700 0.783776
Si Si5 0.123169 0.030381 0.554302
Si Si6 0.355152 0.212148 0.198990
Si Si7 0.416732 0.554487 0.819210
Si Si8 0.182377 0.830295 0.079294
O O1 0.810925 0.090194 0.498933
O O2 0.281640 0.403002 0.383383
O O3 0.280615 0.506500 0.635543
O O4 0.326370 0.028220 0.268822
O O5 0.073638 0.459279 0.990837
O O6 0.088006 0.384844 0.114864
O O7 0.790792 0.236118 0.778246
O O8 0.436221 0.882000 0.832928
O O9 0.237298 0.798320 0.365688
O O10 0.700137 0.086837 0.234871
O O11 0.230441 0.731365 0.137635
O O12 0.962041 0.393521 0.683569
O O13 0.434647 0.867919 0.654449
O O14 0.802037 0.987188 0.993395
O O15 0.388220 0.883688 0.014460
O O16 0.314273 0.582218 0.890736
#
# Coordination Sequence:
#
# PCOD9000266 Si02
#       8
#     1   1   1   1   1   1   1   1
#     4  10  22  45  71 104 145 191 249 304 372 440
#     4  11  21  44  76 100 145 200 252 301 370 453
#     4  10  23  43  69 108 149 192 247 312 370 445
#     4  12  25  47  78 110 150 198 253 311 375 448
#     4  11  26  47  80 111 145 203 264 302 366 466
#     4   9  20  41  68 102 135 188 249 297 358 450
#     4  10  22  45  69 102 148 191 243 306 380 443
#     4  11  25  46  69 109 157 187 247 315 391 431
#
# _framework density 24.956872000000001
#
# number of rings (size 3 to 8) (size 9 to 14) (size 15 to 20)
#    0.000    1.500    2.500    2.250    5.250    0.000 
#    9.000    0.000    0.000    0.000    0.000    0.000 
#    0.000    0.000    0.000    0.000    0.000    0.000 
#
# Total GULP energy -44641.856998 kJ/mol
# GULP energy per Si atom -5580.232125 kJ/mol
# Density = 2.490007 g / cm^3
# Si number density = 24.956872 Si / 1000 Ang^3
#
#
#
# Elastic Constant Matrix: (Units=GPa)
#
#
# Indices 1 2 3 4 5 6 
#
# 1 170.7128 26.5697 65.3559 -8.6494 -21.6866 19.8347
# 2 26.5697 81.4248 33.4567 -16.6475 4.6886 21.9883
# 3 65.3559 33.4567 149.4202 -21.5574 -34.5825 16.3031
# 4 -8.6494 -16.6475 -21.5574 47.9359 7.1742 -11.3624
# 5 -21.6866 4.6886 -34.5825 7.1742 64.2345 -13.0310
# 6 19.8347 21.9883 16.3031 -11.3624 -13.0310 28.0051
#
#
#
# Elastic Compliance Matrix: (Units=1/GPa)
#
#
# Indices 1 2 3 4 5 6 
#
# 1 0.007413 -0.000611 -0.002771 -0.000983 0.000490 -0.003328
# 2 -0.000611 0.018664 -0.003547 0.002386 -0.006641 -0.014279
# 3 -0.002771 -0.003547 0.009943 0.002547 0.004848 0.002248
# 4 -0.000983 0.002386 0.002547 0.024390 -0.000432 0.007035
# 5 0.000490 -0.006641 0.004848 -0.000432 0.021263 0.011764
# 6 -0.003328 -0.014279 0.002248 0.007035 0.011764 0.056295
#
#
# Mechanical properties :
#
#
# Convention : Reuss Voigt Hill
#
# Bulk Modulus (GPa) = 45.12030 72.48028 58.80029
# Shear Modulus (GPa) = 31.40458 46.44682 38.92570
#
# Velocity S-wave (km/s) = 3.55118 4.31871 3.95361
# Velocity P-wave (km/s) = 5.91042 7.34667 6.66733
#
# Compressibility (1/GPa) = 0.02216297
#
# Stress axis : x y z
#
# Youngs Moduli (GPa) = 134.90186 53.57886 100.57450
#
# Poissons Ratio (x) = 0.03272 0.27867
# Poissons Ratio (y) = 0.08239 0.35672
# Poissons Ratio (z) = 0.37379 0.19004
#
# Static dielectric constant tensor:
#      x y z
#    x 2.018530 -0.015670 -0.013050 
#    y -0.015670 2.025140 0.028990 
#    z -0.013050 0.028990 2.073630 
# 
# From -- ./inp_files/4953.got.cif
#   From: 2010.05.17/outbox.cif.g08.bks.cpg/sg1_3_cif.got.tgz:4953.got - 2010.05.17 20:27:59.
