data_PCOD9000747
_publ_section_title
;
Structure prediction by ZEFSAII (Michael W. Deem and Ramdas Pophale) SiO2 
 PCOD9000747
Probable space group: P 1
;
_chemical_formula_sum "Si O2"
_cell_formula_units_Z 8
_cell_length_a 9.013812
_cell_length_b 9.863753
_cell_length_c 10.377973
_cell_angle_alpha 138.774240
_cell_angle_beta 73.789509
_cell_angle_gamma 135.217350
_cell_volume 358.138055
_symmetry_space_group_name_H-M "P 1"
_symmetry_group_IT_number 1
_symmetry_cell_setting 'triclinic'
loop_
_space_group_symop_operation_xyz
x,y,z
loop_
_atom_site_type_symbol
_atom_site_label
_atom_site_fract_x
_atom_site_fract_y
_atom_site_fract_z
Si Si1 0.977380 0.641480 0.441860
Si Si2 0.192873 0.039607 0.069158
Si Si3 0.847897 0.296898 0.588246
Si Si4 0.466391 0.272688 0.651013
Si Si5 0.609341 0.948825 0.651223
Si Si6 0.011733 0.264300 0.264280
Si Si7 0.459209 0.237687 0.909714
Si Si8 0.558961 0.527517 0.538533
O O1 0.746324 0.545912 0.457122
O O2 0.910956 0.330650 0.237847
O O3 0.167184 0.904993 0.470570
O O4 0.167714 0.871735 0.683075
O O5 0.081058 0.694475 0.845156
O O6 0.425812 0.307430 0.104239
O O7 0.992351 0.003047 0.051613
O O8 0.293411 0.200788 0.300317
O O9 0.617755 0.215685 0.559754
O O10 0.903325 0.213998 0.393392
O O11 0.778958 0.098291 0.590848
O O12 0.530997 0.417707 0.885339
O O13 0.518022 0.470552 0.659467
O O14 0.315875 0.612804 0.443230
O O15 0.656150 0.843589 0.681320
O O16 0.623610 0.206089 0.864529
#
# Coordination Sequence:
#
# PCOD9000747 Si02
#       8
#     1   1   1   1   1   1   1   1
#     4   9  18  39  64  81 125 163 191 248 302 355
#     4  11  22  36  66  98 117 150 212 255 293 354
#     4  11  18  42  64  85 123 164 205 240 294 373
#     4   9  19  38  67  82 119 171 194 242 305 356
#     4   9  20  36  62  88 118 165 195 242 303 359
#     4  10  19  38  66  87 117 166 205 238 299 364
#     4   8  17  41  60  81 119 165 199 237 285 372
#     4  11  21  36  63  96 122 154 199 256 309 343
#
# _framework density 22.337755999999999
#
# number of rings (size 3 to 8) (size 9 to 14) (size 15 to 20)
#    0.750    1.500    5.000    0.000    0.000    2.000 
#   13.500    2.500    2.750    0.000    0.000    0.000 
#    0.000    0.000    0.000    0.000    0.000    0.000 
#
# Total GULP energy -44583.318987 kJ/mol
# GULP energy per Si atom -5572.914873 kJ/mol
# Density = 2.228691 g / cm^3
# Si number density = 22.337756 Si / 1000 Ang^3
#
#
#
# Elastic Constant Matrix: (Units=GPa)
#
#
# Indices 1 2 3 4 5 6 
#
# 1 66.3670 39.1869 3.6672 8.0240 -15.3449 -19.0131
# 2 39.1869 205.3756 32.6070 -2.2213 -13.9598 -28.3786
# 3 3.6672 32.6070 45.1001 0.2637 -6.8920 -8.5707
# 4 8.0240 -2.2213 0.2637 19.8387 0.3456 -5.2078
# 5 -15.3449 -13.9598 -6.8920 0.3456 22.6192 1.7683
# 6 -19.0131 -28.3786 -8.5707 -5.2078 1.7683 43.3431
#
#
#
# Elastic Compliance Matrix: (Units=1/GPa)
#
#
# Indices 1 2 3 4 5 6 
#
# 1 0.023142 -0.003146 0.004055 -0.008096 0.014545 0.007328
# 2 -0.003146 0.006482 -0.003924 0.002670 0.000443 0.002391
# 3 0.004055 -0.003924 0.026693 -0.001535 0.008176 0.003970
# 4 -0.008096 0.002670 -0.001535 0.055349 -0.005531 0.004769
# 5 0.014545 0.000443 0.008176 -0.005531 0.056511 0.005317
# 6 0.007328 0.002391 0.003970 0.004769 0.005317 0.028993
#
#
# Mechanical properties :
#
#
# Convention : Reuss Voigt Hill
#
# Bulk Modulus (GPa) = 19.88570 51.97388 35.92979
# Shear Modulus (GPa) = 22.73133 33.25230 27.99182
#
# Velocity S-wave (km/s) = 3.19348 3.86244 3.54378
# Velocity P-wave (km/s) = 4.74545 6.57336 5.73273
#
# Compressibility (1/GPa) = 0.05028740
#
# Stress axis : x y z
#
# Youngs Moduli (GPa) = 43.21115 154.28014 37.46300
#
# Poissons Ratio (x) = 0.48535 -0.15192
# Poissons Ratio (y) = 0.13594 0.14701
# Poissons Ratio (z) = -0.17523 0.60540
#
# Static dielectric constant tensor:
#      x y z
#    x 1.821730 -0.002840 -0.014900 
#    y -0.002840 1.856550 0.030120 
#    z -0.014900 0.030120 1.890390 
# 
# From -- ./inp_files/6492.got.cif
#   From: 2010.05.17/outbox.cif.g08.bks.cpg/sg1_4_cif.got.tgz:6492.got - 2010.05.17 20:27:59.
