data_PCOD9001644
_publ_section_title
;
Structure prediction by ZEFSAII (Michael W. Deem and Ramdas Pophale) SiO2 
 PCOD9001644
Probable space group: P -1
;
_chemical_formula_sum "Si O2"
_cell_formula_units_Z 16
_cell_length_a 8.802511
_cell_length_b 12.524938
_cell_length_c 13.799638
_cell_angle_alpha 37.656386
_cell_angle_beta 120.898049
_cell_angle_gamma 136.657870
_cell_volume 630.876704
_symmetry_space_group_name_H-M "P -1"
_symmetry_group_IT_number 2
_symmetry_cell_setting 'triclinic'
loop_
_space_group_symop_operation_xyz
x,y,z
-x,-y,-z
loop_
_atom_site_type_symbol
_atom_site_label
_atom_site_fract_x
_atom_site_fract_y
_atom_site_fract_z
Si Si1 0.718553 0.862535 0.101907
Si Si2 0.768159 0.475159 0.848647
Si Si3 0.908191 0.279148 0.394489
Si Si4 0.201283 0.026864 0.175331
Si Si5 0.760738 0.331351 0.487901
Si Si6 0.627505 0.412959 0.562167
Si Si7 0.721599 0.054704 0.149101
Si Si8 0.830502 0.845920 0.728663
O O1 0.465369 0.660015 0.189182
O O2 0.756496 0.055432 0.043787
O O3 0.724341 0.890514 0.968436
O O4 0.928194 0.865237 0.194249
O O5 0.985875 0.619070 0.747911
O O6 0.747267 0.625405 0.805244
O O7 0.766523 0.279276 0.033143
O O8 0.124712 0.409718 0.442234
O O9 0.763692 0.333160 0.370469
O O10 0.801403 0.020713 0.547094
O O11 0.251083 0.191493 0.159929
O O12 0.297356 0.902223 0.333941
O O13 0.613175 0.377556 0.466610
O O14 0.000000 0.500000 0.500000
O O15 0.500000 0.500000 0.500000
O O16 0.516752 0.166115 0.741070
O O17 0.902356 0.031317 0.269587
#
# Coordination Sequence:
#
# PCOD9001644 Si02
#       8
#     2   2   2   2   2   2   2   2
#     4  10  21  35  60  88 118 155 203 264 301 353
#     4  12  23  35  62  92 123 164 210 252 302 366
#     4  10  21  38  59  88 121 164 205 250 298 361
#     4   9  20  40  57  85 124 157 201 254 311 359
#     4   9  20  32  58  87 118 157 194 251 305 355
#     4  11  20  37  64  92 119 156 211 254 304 361
#     4  11  22  37  59  88 122 153 210 260 304 354
#     4  10  22  41  57  84 126 174 203 241 309 375
#
# _framework density 25.361533999999999
#
# number of rings (size 3 to 8) (size 9 to 14) (size 15 to 20)
#    0.000    1.750    2.500    1.875    5.250    0.500 
#    0.000    0.000    0.000    0.750    0.000    0.000 
#    0.000    0.000    0.000    0.000    0.000    0.000 
#
# Total GULP energy -89356.082184 kJ/mol
# GULP energy per Si atom -5584.755137 kJ/mol
# Density = 2.530381 g / cm^3
# Si number density = 25.361534 Si / 1000 Ang^3
#
#
#
# Elastic Constant Matrix: (Units=GPa)
#
#
# Indices 1 2 3 4 5 6 
#
# 1 118.6868 28.4045 24.7883 -5.7620 2.7886 -46.4024
# 2 28.4045 86.3374 23.6411 -20.2509 -4.5634 -45.8961
# 3 24.7883 23.6411 88.2716 -13.7289 -4.0750 -27.8643
# 4 -5.7620 -20.2509 -13.7289 33.4024 -6.9702 9.9279
# 5 2.7886 -4.5634 -4.0750 -6.9702 30.5642 1.3943
# 6 -46.4024 -45.8961 -27.8643 9.9279 1.3943 57.5530
#
#
#
# Elastic Compliance Matrix: (Units=1/GPa)
#
#
# Indices 1 2 3 4 5 6 
#
# 1 0.012621 0.001917 -0.000584 -0.000681 -0.001627 0.011578
# 2 0.001917 0.023314 0.000955 0.010330 0.004936 0.018698
# 3 -0.000584 0.000955 0.014110 0.005056 0.002948 0.006178
# 4 -0.000681 0.010330 0.005056 0.039590 0.011169 0.003037
# 5 -0.001627 0.004936 0.002948 0.011169 0.036487 0.001242
# 6 0.011578 0.018698 0.006178 0.003037 0.001242 0.044059
#
#
# Mechanical properties :
#
#
# Convention : Reuss Voigt Hill
#
# Bulk Modulus (GPa) = 18.30832 49.66262 33.98547
# Shear Modulus (GPa) = 27.20190 38.73470 32.96830
#
# Velocity S-wave (km/s) = 3.27856 3.91231 3.60937
# Velocity P-wave (km/s) = 4.64398 6.32713 5.54973
#
# Compressibility (1/GPa) = 0.05461998
#
# Stress axis : x y z
#
# Youngs Moduli (GPa) = 79.23567 42.89246 70.87331
#
# Poissons Ratio (x) = -0.08222 0.04136
# Poissons Ratio (y) = -0.15188 -0.06765
# Poissons Ratio (z) = 0.04625 -0.04094
#
# Static dielectric constant tensor:
#      x y z
#    x 2.100550 0.024260 -0.053200 
#    y 0.024260 2.020700 0.029380 
#    z -0.053200 0.029380 2.057970 
# 
# From -- ./inp_files/273590.got.cif
#   From: 2010.05.17/outbox.cif.g08.bks.cpg/sg2_137_cif.got.tgz:273590.got - 2010.06.03 11:33:40.
