data_PCOD9001084
_publ_section_title
;
Structure prediction by ZEFSAII (Michael W. Deem and Ramdas Pophale) SiO2 
 PCOD9001084
Probable space group: P -1
;
_chemical_formula_sum "Si O2"
_cell_formula_units_Z 16
_cell_length_a 5.037766
_cell_length_b 14.626741
_cell_length_c 27.473041
_cell_angle_alpha 18.799623
_cell_angle_beta 94.186696
_cell_angle_gamma 93.977286
_cell_volume 650.634917
_symmetry_space_group_name_H-M "P -1"
_symmetry_group_IT_number 2
_symmetry_cell_setting 'triclinic'
loop_
_space_group_symop_operation_xyz
x,y,z
-x,-y,-z
loop_
_atom_site_type_symbol
_atom_site_label
_atom_site_fract_x
_atom_site_fract_y
_atom_site_fract_z
Si Si1 0.576532 0.852303 0.471219
Si Si2 0.683180 0.434316 0.222245
Si Si3 0.787956 0.748859 0.886612
Si Si4 0.772280 0.741500 0.432416
Si Si5 0.172152 0.297282 0.351806
Si Si6 0.825087 0.761664 0.317510
Si Si7 0.566470 0.255811 0.021148
Si Si8 0.843219 0.821764 0.747731
O O1 0.608752 0.672762 0.512942
O O2 0.688658 0.678920 0.605660
O O3 0.728513 0.157244 0.327977
O O4 0.278235 0.974935 0.397921
O O5 0.427443 0.335733 0.300525
O O6 0.614650 0.682793 0.058713
O O7 0.937077 0.496546 0.227994
O O8 0.672965 0.847086 0.783353
O O9 0.578101 0.682578 0.959842
O O10 0.949955 0.010276 0.779245
O O11 0.000000 0.500000 0.000000
O O12 0.665763 0.735084 0.379593
O O13 0.023850 0.527528 0.544633
O O14 0.888043 0.048558 0.293576
O O15 0.000000 0.000000 0.500000
O O16 0.665751 0.934623 0.187906
O O17 0.800877 0.493988 0.898465
#
# Coordination Sequence:
#
# PCOD9001084 Si02
#       8
#     2   2   2   2   2   2   2   2
#     4  10  21  33  62  84 126 159 210 253 328 374
#     4  10  24  35  63  97 131 161 214 274 329 385
#     4  11  22  35  61  87 124 162 209 263 314 379
#     4  10  23  39  60  89 125 172 208 259 306 397
#     4  10  21  39  60  95 133 162 206 278 336 379
#     4  10  23  41  58  87 132 166 212 251 320 376
#     4  11  23  35  62  89 126 165 206 265 327 377
#     4  10  22  33  59  92 118 152 214 258 311 374
#
# _framework density 24.591365
#
# number of rings (size 3 to 8) (size 9 to 14) (size 15 to 20)
#    0.000    1.750    1.250    2.625   17.500    1.000 
#    0.000    3.750    0.000    1.500    0.000    0.000 
#    0.000    0.000    0.000    0.000    0.000    0.000 
#
# Total GULP energy -89235.997613 kJ/mol
# GULP energy per Si atom -5577.249851 kJ/mol
# Density = 2.453539 g / cm^3
# Si number density = 24.591365 Si / 1000 Ang^3
#
#
#
# Elastic Constant Matrix: (Units=GPa)
#
#
# Indices 1 2 3 4 5 6 
#
# 1 102.0016 16.9680 38.9413 6.9906 8.9269 5.3198
# 2 16.9680 55.9690 37.9314 33.6999 19.6972 -7.7132
# 3 38.9413 37.9314 118.7491 26.4780 21.3813 10.8949
# 4 6.9906 33.6999 26.4780 40.8066 25.3161 9.0891
# 5 8.9269 19.6972 21.3813 25.3161 47.8557 8.3278
# 6 5.3198 -7.7132 10.8949 9.0891 8.3278 41.7011
#
#
#
# Elastic Compliance Matrix: (Units=1/GPa)
#
#
# Indices 1 2 3 4 5 6 
#
# 1 0.011567 -0.004053 -0.003114 0.004581 -0.001142 -0.002182
# 2 -0.004053 0.053872 -0.008328 -0.044556 0.002053 0.021959
# 3 -0.003114 -0.008328 0.012503 0.001160 -0.001430 -0.004377
# 4 0.004581 -0.044556 0.001160 0.077040 -0.019972 -0.021932
# 5 -0.001142 0.002053 -0.001430 -0.019972 0.031654 -0.001069
# 6 -0.002182 0.021959 -0.004377 -0.021932 -0.001069 0.034458
#
#
# Mechanical properties :
#
#
# Convention : Reuss Voigt Hill
#
# Bulk Modulus (GPa) = 21.29923 51.60012 36.44968
# Shear Modulus (GPa) = 18.67524 38.26463 28.46993
#
# Velocity S-wave (km/s) = 2.75875 3.94892 3.40622
# Velocity P-wave (km/s) = 4.33909 6.46688 5.50673
#
# Compressibility (1/GPa) = 0.04695005
#
# Stress axis : x y z
#
# Youngs Moduli (GPa) = 86.45548 18.56261 79.98268
#
# Poissons Ratio (x) = 0.07524 0.24906
# Poissons Ratio (y) = 0.35044 0.66611
# Poissons Ratio (z) = 0.26922 0.15459
#
# Static dielectric constant tensor:
#      x y z
#    x 2.085570 -0.063800 -0.015120 
#    y -0.063800 1.994230 0.090350 
#    z -0.015120 0.090350 2.033490 
# 
# From -- ./inp_files/615639.got.cif
#   From: 2010.05.17/outbox.cif.g08.bks.cpg/sg2_308_cif.got.tgz:615639.got - 2010.06.03 11:33:40.
