data_PCOD9001070
_publ_section_title
;
Structure prediction by ZEFSAII (Michael W. Deem and Ramdas Pophale) SiO2 
 PCOD9001070
Probable space group: P -1
;
_chemical_formula_sum "Si O2"
_cell_formula_units_Z 16
_cell_length_a 17.790574
_cell_length_b 12.129539
_cell_length_c 20.201969
_cell_angle_alpha 20.597727
_cell_angle_beta 28.830726
_cell_angle_gamma 40.990237
_cell_volume 682.723471
_symmetry_space_group_name_H-M "P -1"
_symmetry_group_IT_number 2
_symmetry_cell_setting 'triclinic'
loop_
_space_group_symop_operation_xyz
x,y,z
-x,-y,-z
loop_
_atom_site_type_symbol
_atom_site_label
_atom_site_fract_x
_atom_site_fract_y
_atom_site_fract_z
Si Si1 0.134672 0.726288 0.213672
Si Si2 0.777523 0.811164 0.631001
Si Si3 0.144607 0.409713 0.591478
Si Si4 0.582939 0.781280 0.934029
Si Si5 0.095127 0.948331 0.392156
Si Si6 0.190868 0.649743 0.797552
Si Si7 0.335897 0.093333 0.970496
Si Si8 0.659668 0.914019 0.442337
O O1 0.228347 0.519047 0.219080
O O2 0.000000 0.500000 0.500000
O O3 0.019944 0.803715 0.204085
O O4 0.259778 0.020653 0.996137
O O5 0.671428 0.773578 0.800736
O O6 0.725852 0.040173 0.491708
O O7 0.975983 0.974479 0.409486
O O8 0.259292 0.192813 0.623937
O O9 0.091558 0.565181 0.608649
O O10 0.239973 0.770341 0.275038
O O11 0.712944 0.804447 0.879987
O O12 0.521486 0.089265 0.821752
O O13 0.418700 0.437223 0.258916
O O14 0.000000 0.000000 0.500000
O O15 0.294296 0.406913 0.850892
O O16 0.208302 0.806744 0.769395
O O17 0.000000 0.500000 0.000000
O O18 0.500000 0.000000 0.500000
#
# Coordination Sequence:
#
# PCOD9001070 Si02
#       8
#     2   2   2   2   2   2   2   2
#     4   9  16  34  58  86 113 155 208 244 301 370
#     4  10  21  39  66  87 124 167 206 256 307 377
#     4   9  18  36  60  82 120 162 204 251 298 378
#     4  10  23  41  60  89 127 167 209 250 319 376
#     4   9  19  36  64  89 114 166 211 251 302 374
#     4  12  24  39  62  97 127 160 209 258 309 367
#     4  10  21  33  59  90 119 157 202 255 311 362
#     4  11  26  39  62  96 127 163 205 263 315 362
#
# _framework density 23.435549999999999
#
# number of rings (size 3 to 8) (size 9 to 14) (size 15 to 20)
#    0.000    2.000    0.000    5.250    5.250    3.500 
#    0.000    0.000    0.000    2.250    0.000    0.000 
#    0.000    0.000    0.000    0.000    0.000    0.000 
#
# Total GULP energy -89277.646885 kJ/mol
# GULP energy per Si atom -5579.852930 kJ/mol
# Density = 2.338221 g / cm^3
# Si number density = 23.435550 Si / 1000 Ang^3
#
#
#
# Elastic Constant Matrix: (Units=GPa)
#
#
# Indices 1 2 3 4 5 6 
#
# 1 56.3916 40.2975 3.8372 -13.8796 -15.7053 8.6043
# 2 40.2975 220.1463 24.6100 -21.4316 1.1658 -0.3947
# 3 3.8372 24.6100 19.1745 -8.0603 -14.5286 -0.8743
# 4 -13.8796 -21.4316 -8.0603 30.0882 1.1011 -3.8968
# 5 -15.7053 1.1658 -14.5286 1.1011 31.4332 -5.0100
# 6 8.6043 -0.3947 -0.8743 -3.8968 -5.0100 40.8222
#
#
#
# Elastic Compliance Matrix: (Units=1/GPa)
#
#
# Indices 1 2 3 4 5 6 
#
# 1 0.037403 -0.009796 0.042094 0.020104 0.037719 -0.000528
# 2 -0.009796 0.008546 -0.022509 -0.003972 -0.015576 -0.000625
# 3 0.042094 -0.022509 0.168128 0.046221 0.099737 0.011163
# 4 0.020104 -0.003972 0.046221 0.051642 0.030608 0.005400
# 5 0.037719 -0.015576 0.099737 0.030608 0.097690 0.008946
# 6 -0.000528 -0.000625 0.011163 0.005400 0.008946 0.026454
#
#
# Mechanical properties :
#
#
# Convention : Reuss Voigt Hill
#
# Bulk Modulus (GPa) = 4.27978 48.13355 26.20667
# Shear Modulus (GPa) = 11.15653 35.59989 23.37821
#
# Velocity S-wave (km/s) = 2.18423 3.90173 3.16183
# Velocity P-wave (km/s) = 2.86204 6.39385 4.95341
#
# Compressibility (1/GPa) = 0.23365667
#
# Stress axis : x y z
#
# Youngs Moduli (GPa) = 26.73613 117.00789 5.94786
#
# Poissons Ratio (x) = 1.14618 -0.25037
# Poissons Ratio (y) = 0.26190 0.13388
# Poissons Ratio (z) = -1.12544 2.63369
#
# Static dielectric constant tensor:
#      x y z
#    x 1.902690 0.000040 0.007700 
#    y 0.000040 1.967830 -0.013980 
#    z 0.007700 -0.013980 1.970270 
# 
# From -- ./inp_files/279408.got.cif
#   From: 2010.05.17/outbox.cif.g08.bks.cpg/sg2_140_cif.got.tgz:279408.got - 2010.06.03 11:33:40.
