data_PCOD9001906
_publ_section_title
;
Structure prediction by ZEFSAII (Michael W. Deem and Ramdas Pophale) SiO2 
 PCOD9001906
Probable space group: P -1
;
_chemical_formula_sum "Si O2"
_cell_formula_units_Z 14
_cell_length_a 7.733182
_cell_length_b 9.170850
_cell_length_c 13.627249
_cell_angle_alpha 89.726625
_cell_angle_beta 90.621483
_cell_angle_gamma 130.926296
_cell_volume 730.151976
_symmetry_space_group_name_H-M "P -1"
_symmetry_group_IT_number 2
_symmetry_cell_setting 'triclinic'
loop_
_space_group_symop_operation_xyz
x,y,z
-x,-y,-z
loop_
_atom_site_type_symbol
_atom_site_label
_atom_site_fract_x
_atom_site_fract_y
_atom_site_fract_z
Si Si1 0.761489 0.791327 0.720403
Si Si2 0.817486 0.257444 0.611616
Si Si3 0.010463 0.199630 0.795056
Si Si4 0.935471 0.639802 0.585304
Si Si5 0.586240 0.140236 0.310594
Si Si6 0.543758 0.936581 0.902457
Si Si7 0.475570 0.559490 0.894369
O O1 0.543176 0.774967 0.695250
O O2 0.688688 0.665883 0.819449
O O3 0.819857 0.713745 0.634760
O O4 0.967078 0.018788 0.743258
O O5 0.975323 0.285894 0.524346
O O6 0.941533 0.283576 0.714236
O O7 0.785319 0.410645 0.590692
O O8 0.573950 0.045222 0.620293
O O9 0.255579 0.369818 0.839878
O O10 0.813915 0.089360 0.877747
O O11 0.160877 0.720674 0.648320
O O12 0.573275 0.072591 0.199206
O O13 0.457831 0.723210 0.912468
O O14 0.500000 0.000000 0.000000
O O15 0.500000 0.500000 0.000000
#
# Coordination Sequence:
#
# PCOD9001906 Si02
#       7
#     2   2   2   2   2   2   2
#     4   9  22  37  55  83 110 144 185 221 271 326
#     4   9  20  36  55  82 110 141 183 223 273 327
#     4   9  20  39  54  74 116 148 174 230 275 317
#     4  11  20  35  59  83 109 143 184 228 267 320
#     4   9  20  38  54  78 116 143 178 228 267 323
#     4   9  20  35  54  80 107 144 184 219 272 326
#     4  10  21  36  54  78 109 142 183 226 269 324
#
# _framework density 19.17409
#
# number of rings (size 3 to 8) (size 9 to 14) (size 15 to 20)
#    0.000    3.143    0.000    2.143    0.000   10.857 
#    0.000    6.429    0.000    0.000    0.000    0.000 
#    0.000    0.000    0.000    0.000    0.000    0.000 
#
# Total GULP energy -78047.595181 kJ/mol
# GULP energy per Si atom -5574.828227 kJ/mol
# Density = 1.913045 g / cm^3
# Si number density = 19.174090 Si / 1000 Ang^3
#
#
#
# Elastic Constant Matrix: (Units=GPa)
#
#
# Indices 1 2 3 4 5 6 
#
# 1 35.9225 10.1694 21.7611 12.3295 -12.3653 -6.0509
# 2 10.1694 54.3979 15.3030 -14.2864 -8.1388 2.2845
# 3 21.7611 15.3030 77.9922 -4.4301 -18.5012 -13.0850
# 4 12.3295 -14.2864 -4.4301 30.3302 -6.2639 -3.4611
# 5 -12.3653 -8.1388 -18.5012 -6.2639 33.7245 16.6492
# 6 -6.0509 2.2845 -13.0850 -3.4611 16.6492 15.6191
#
#
#
# Elastic Compliance Matrix: (Units=1/GPa)
#
#
# Indices 1 2 3 4 5 6 
#
# 1 0.048937 -0.012720 -0.011717 -0.026847 0.002035 0.002885
# 2 -0.012720 0.030122 -0.001144 0.020064 0.018134 -0.025175
# 3 -0.011717 -0.001144 0.019207 0.008740 0.001787 0.011751
# 4 -0.026847 0.020064 0.008740 0.056626 0.014955 -0.009407
# 5 0.002035 0.018134 0.001787 0.014955 0.078263 -0.080477
# 6 0.002885 -0.025175 0.011751 -0.009407 -0.080477 0.162369
#
#
# Mechanical properties :
#
#
# Convention : Reuss Voigt Hill
#
# Bulk Modulus (GPa) = 21.22856 29.19773 25.21315
# Shear Modulus (GPa) = 10.81345 24.00671 17.41008
#
# Velocity S-wave (km/s) = 2.37736 3.54225 3.01657
# Velocity P-wave (km/s) = 4.31640 5.65605 5.03101
#
# Compressibility (1/GPa) = 0.04710634
#
# Stress axis : x y z
#
# Youngs Moduli (GPa) = 20.43438 33.19781 52.06384
#
# Poissons Ratio (x) = 0.42227 0.61002
# Poissons Ratio (y) = 0.25992 0.05955
# Poissons Ratio (z) = 0.23942 0.03797
#
# Static dielectric constant tensor:
#      x y z
#    x 1.661150 0.000870 0.010540 
#    y 0.000870 1.693570 0.003420 
#    z 0.010540 0.003420 1.678230 
# 
# From -- ./inp_files/317299.got.cif
#   From: 2010.05.17/outbox.cif.g08.bks.cpg/sg2_159_cif.got.tgz:317299.got - 2010.06.03 11:33:40.
