data_PCOD9001286
_publ_section_title
;
Structure prediction by ZEFSAII (Michael W. Deem and Ramdas Pophale) SiO2 
 PCOD9001286
Probable space group: P -1
;
_chemical_formula_sum "Si O2"
_cell_formula_units_Z 16
_cell_length_a 12.731310
_cell_length_b 21.232786
_cell_length_c 11.305791
_cell_angle_alpha 38.418077
_cell_angle_beta 59.457449
_cell_angle_gamma 30.891366
_cell_volume 836.013215
_symmetry_space_group_name_H-M "P -1"
_symmetry_group_IT_number 2
_symmetry_cell_setting 'triclinic'
loop_
_space_group_symop_operation_xyz
x,y,z
-x,-y,-z
loop_
_atom_site_type_symbol
_atom_site_label
_atom_site_fract_x
_atom_site_fract_y
_atom_site_fract_z
Si Si1 0.907930 0.636831 0.026399
Si Si2 0.186813 0.430382 0.411380
Si Si3 0.128705 0.559269 0.775544
Si Si4 0.609891 0.546145 0.584194
Si Si5 0.358505 0.704705 0.117586
Si Si6 0.063657 0.207567 0.674820
Si Si7 0.466246 0.046495 0.811970
Si Si8 0.831424 0.088533 0.839315
O O1 0.861109 0.555567 0.129850
O O2 0.085096 0.508669 0.223893
O O3 0.011400 0.622295 0.876727
O O4 0.675871 0.854101 0.894992
O O5 0.253488 0.491678 0.335678
O O6 0.427013 0.193839 0.614936
O O7 0.000000 0.500000 0.500000
O O8 0.399425 0.404661 0.864620
O O9 0.957372 0.755432 0.506934
O O10 0.586542 0.441971 0.759299
O O11 0.358388 0.775722 0.356735
O O12 0.793992 0.424276 0.549647
O O13 0.282882 0.755074 0.226557
O O14 0.101320 0.925681 0.888886
O O15 0.232982 0.162450 0.716320
O O16 0.143034 0.039755 0.922614
O O17 0.500000 0.000000 0.000000
#
# Coordination Sequence:
#
# PCOD9001286 Si02
#       8
#     2   2   2   2   2   2   2   2
#     4  11  25  44  62  93 124 166 207 254 314 376
#     4  12  22  41  64  91 123 161 205 260 314 358
#     4  11  23  44  63  87 134 164 202 257 313 378
#     4  11  21  38  62  94 125 157 207 256 306 363
#     4  10  22  37  60  93 123 165 203 254 309 362
#     4  11  21  34  60  94 124 160 197 253 316 358
#     4  12  22  36  64  93 122 160 205 256 308 365
#     4  10  21  34  60  97 125 155 207 255 308 366
#
# _framework density 19.138453999999999
#
# number of rings (size 3 to 8) (size 9 to 14) (size 15 to 20)
#    0.000    1.000    5.000    1.875    3.500    1.500 
#    2.250    0.625    0.000    1.500    0.000    0.000 
#    0.000    0.000    0.000    0.000    0.000    0.000 
#
# Total GULP energy -89223.473748 kJ/mol
# GULP energy per Si atom -5576.467109 kJ/mol
# Density = 1.909489 g / cm^3
# Si number density = 19.138454 Si / 1000 Ang^3
#
#
#
# Elastic Constant Matrix: (Units=GPa)
#
#
# Indices 1 2 3 4 5 6 
#
# 1 147.2525 56.7691 47.8312 3.9327 10.7005 -3.0568
# 2 56.7691 85.7421 50.3975 -7.5606 14.1125 2.4337
# 3 47.8312 50.3975 95.7692 -11.0651 16.4861 -0.3746
# 4 3.9327 -7.5606 -11.0651 25.9656 3.6730 3.0968
# 5 10.7005 14.1125 16.4861 3.6730 32.0707 -6.5860
# 6 -3.0568 2.4337 -0.3746 3.0968 -6.5860 29.8766
#
#
#
# Elastic Compliance Matrix: (Units=1/GPa)
#
#
# Indices 1 2 3 4 5 6 
#
# 1 0.009966 -0.005718 -0.002812 -0.004887 0.001674 0.002326
# 2 -0.005718 0.020763 -0.006553 0.005358 -0.005313 -0.004085
# 3 -0.002812 -0.006553 0.017133 0.006872 -0.006100 -0.001596
# 4 -0.004887 0.005358 0.006872 0.046299 -0.011231 -0.008125
# 5 0.001674 -0.005313 -0.006100 -0.011231 0.039519 0.010403
# 6 0.002326 -0.004085 -0.001596 -0.008125 0.010403 0.037157
#
#
# Mechanical properties :
#
#
# Convention : Reuss Voigt Hill
#
# Bulk Modulus (GPa) = 56.51078 70.97325 63.74202
# Shear Modulus (GPa) = 24.16603 29.16698 26.66651
#
# Velocity S-wave (km/s) = 3.55730 3.90808 3.73681
# Velocity P-wave (km/s) = 6.81645 7.58477 7.21085
#
# Compressibility (1/GPa) = 0.01769574
#
# Stress axis : x y z
#
# Youngs Moduli (GPa) = 100.34042 48.16193 58.36850
#
# Poissons Ratio (x) = 0.27539 0.16414
# Poissons Ratio (y) = 0.57374 0.38249
# Poissons Ratio (z) = 0.28217 0.31560
#
# Static dielectric constant tensor:
#      x y z
#    x 1.715270 0.011020 -0.018190 
#    y 0.011020 1.593800 0.050080 
#    z -0.018190 0.050080 1.682570 
# 
# From -- ./inp_files/438379.got.cif
#   From: 2010.05.17/outbox.cif.g08.bks.cpg/sg2_220_cif.got.tgz:438379.got - 2010.06.03 11:33:40.
