data_PCOD9001790
_publ_section_title
;
Structure prediction by ZEFSAII (Michael W. Deem and Ramdas Pophale) SiO2 
 PCOD9001790
Probable space group: P -1
;
_chemical_formula_sum "Si O2"
_cell_formula_units_Z 16
_cell_length_a 8.526826
_cell_length_b 9.668577
_cell_length_c 13.961407
_cell_angle_alpha 138.247942
_cell_angle_beta 107.162514
_cell_angle_gamma 84.848363
_cell_volume 716.804378
_symmetry_space_group_name_H-M "P -1"
_symmetry_group_IT_number 2
_symmetry_cell_setting 'triclinic'
loop_
_space_group_symop_operation_xyz
x,y,z
-x,-y,-z
loop_
_atom_site_type_symbol
_atom_site_label
_atom_site_fract_x
_atom_site_fract_y
_atom_site_fract_z
Si Si1 0.531290 0.514370 0.323682
Si Si2 0.685646 0.909233 0.654798
Si Si3 0.407779 0.152135 0.668449
Si Si4 0.682431 0.119285 0.130169
Si Si5 0.892057 0.081791 0.606648
Si Si6 0.785144 0.718508 0.963945
Si Si7 0.204710 0.406836 0.891786
Si Si8 0.161844 0.826750 0.015343
O O1 0.568000 0.679348 0.502422
O O2 0.575695 0.670130 0.319763
O O3 0.652398 0.346962 0.273943
O O4 0.348318 0.383035 0.193386
O O5 0.574211 0.079129 0.692304
O O6 0.838989 0.945363 0.623766
O O7 0.753448 0.967372 0.802620
O O8 0.320106 0.254285 0.791173
O O9 0.285235 0.942817 0.492954
O O10 0.744564 0.941093 0.111265
O O11 0.806939 0.148212 0.077609
O O12 0.500000 0.000000 0.000000
O O13 0.011949 0.296758 0.774507
O O14 0.000000 0.000000 0.500000
O O15 0.774451 0.573205 0.980697
O O16 0.969285 0.765969 0.978562
O O17 0.244683 0.632229 0.963981
#
# Coordination Sequence:
#
# PCOD9001790 Si02
#       8
#     2   2   2   2   2   2   2   2
#     4  10  21  42  62  92 127 172 208 257 317 384
#     4  11  23  37  63  99 130 165 213 265 316 378
#     4  10  21  35  63  93 137 164 212 255 330 367
#     4  10  24  46  67  89 128 176 213 258 320 386
#     4   9  19  36  55  92 138 165 192 262 328 373
#     4  11  24  40  68  92 131 164 219 257 324 378
#     4  11  22  37  64 102 128 162 213 271 319 371
#     4  12  24  41  68  98 128 162 219 270 312 378
#
# _framework density 22.321290999999999
#
# number of rings (size 3 to 8) (size 9 to 14) (size 15 to 20)
#    0.000    1.500    2.500    3.000    7.000    1.000 
#    0.000    3.125    0.000    0.000    0.000    0.000 
#    0.000    0.000    0.000    0.000    0.000    0.000 
#
# Total GULP energy -89328.241933 kJ/mol
# GULP energy per Si atom -5583.015121 kJ/mol
# Density = 2.227049 g / cm^3
# Si number density = 22.321291 Si / 1000 Ang^3
#
#
#
# Elastic Constant Matrix: (Units=GPa)
#
#
# Indices 1 2 3 4 5 6 
#
# 1 64.0044 -0.0406 18.5029 0.8255 -11.2219 -8.0601
# 2 -0.0406 53.1505 9.8642 18.1884 -7.9589 -1.7550
# 3 18.5029 9.8642 132.6064 6.8095 3.7014 -14.5321
# 4 0.8255 18.1884 6.8095 27.8931 -7.2795 -5.1565
# 5 -11.2219 -7.9589 3.7014 -7.2795 25.6272 4.4867
# 6 -8.0601 -1.7550 -14.5321 -5.1565 4.4867 14.8184
#
#
#
# Elastic Compliance Matrix: (Units=1/GPa)
#
#
# Indices 1 2 3 4 5 6 
#
# 1 0.018541 0.000979 -0.002346 0.002753 0.008441 0.006302
# 2 0.000979 0.025081 -0.001925 -0.015594 0.004999 -0.005324
# 3 -0.002346 -0.001925 0.009114 -0.000501 -0.004598 0.008651
# 4 0.002753 -0.015594 -0.000501 0.050898 0.008384 0.014332
# 5 0.008441 0.004999 -0.004598 0.008384 0.049300 -0.011336
# 6 0.006302 -0.005324 0.008651 0.014332 -0.011336 0.087185
#
#
# Mechanical properties :
#
#
# Convention : Reuss Voigt Hill
#
# Bulk Modulus (GPa) = 21.66691 34.04603 27.85647
# Shear Modulus (GPa) = 19.07771 28.43006 23.75388
#
# Velocity S-wave (km/s) = 2.92667 3.57273 3.26572
# Velocity P-wave (km/s) = 4.59875 5.68375 5.16979
#
# Compressibility (1/GPa) = 0.04615332
#
# Stress axis : x y z
#
# Youngs Moduli (GPa) = 53.93492 39.87012 109.72318
#
# Poissons Ratio (x) = -0.03905 0.25743
# Poissons Ratio (y) = -0.05282 0.21117
# Poissons Ratio (z) = 0.12654 0.07673
#
# Static dielectric constant tensor:
#      x y z
#    x 1.836550 0.004890 0.004620 
#    y 0.004890 1.855150 0.035310 
#    z 0.004620 0.035310 1.866340 
# 
# From -- ./inp_files/338058.got.cif
#   From: 2010.05.17/outbox.cif.g08.bks.cpg/sg2_170_cif.got.tgz:338058.got - 2010.06.03 11:33:40.
