data_PCOD9001468
_publ_section_title
;
Structure prediction by ZEFSAII (Michael W. Deem and Ramdas Pophale) SiO2 
 PCOD9001468
Probable space group: P -1
;
_chemical_formula_sum "Si O2"
_cell_formula_units_Z 10
_cell_length_a 12.301987
_cell_length_b 6.337435
_cell_length_c 7.168972
_cell_angle_alpha 119.630327
_cell_angle_beta 62.923877
_cell_angle_gamma 91.541024
_cell_volume 418.165435
_symmetry_space_group_name_H-M "P -1"
_symmetry_group_IT_number 2
_symmetry_cell_setting 'triclinic'
loop_
_space_group_symop_operation_xyz
x,y,z
-x,-y,-z
loop_
_atom_site_type_symbol
_atom_site_label
_atom_site_fract_x
_atom_site_fract_y
_atom_site_fract_z
Si Si1 0.409430 0.284781 0.162604
Si Si2 0.545463 0.700453 0.305168
Si Si3 0.012887 0.887122 0.146898
Si Si4 0.865762 0.704147 0.709059
Si Si5 0.813506 0.656325 0.171121
O O1 0.459602 0.505743 0.319443
O O2 0.258708 0.311843 0.315023
O O3 0.422321 0.330522 0.952114
O O4 0.500000 0.000000 0.000000
O O5 0.672095 0.642183 0.302555
O O6 0.500000 0.000000 0.500000
O O7 0.872919 0.870330 0.306577
O O8 0.092176 0.044877 0.264149
O O9 0.098056 0.606835 0.951210
O O10 0.000000 0.000000 0.000000
O O11 0.000000 0.500000 0.500000
O O12 0.828998 0.694187 0.952215
#
# Coordination Sequence:
#
# PCOD9001468 Si02
#       5
#     2   2   2   2   2
#     4  10  22  42  59  86 124 154 196 250 291 350
#     4  10  22  39  62  87 116 158 200 239 296 354
#     4   9  18  35  56  80 112 145 183 236 290 338
#     4  10  21  35  56  84 114 149 190 231 293 348
#     4   9  19  37  56  81 116 146 186 242 285 342
#
# _framework density 23.913981
#
# number of rings (size 3 to 8) (size 9 to 14) (size 15 to 20)
#    0.000    2.400    0.000    1.200    2.800    1.600 
#   10.800    0.000    0.000    0.000    0.000    0.000 
#    0.000    0.000    0.000    0.000    0.000    0.000 
#
# Total GULP energy -55770.066654 kJ/mol
# GULP energy per Si atom -5577.006665 kJ/mol
# Density = 2.385955 g / cm^3
# Si number density = 23.913981 Si / 1000 Ang^3
#
#
#
# Elastic Constant Matrix: (Units=GPa)
#
#
# Indices 1 2 3 4 5 6 
#
# 1 269.8659 109.6585 68.4376 14.1484 -24.4112 54.0140
# 2 109.6585 134.8275 31.0768 14.7340 -7.6344 40.6485
# 3 68.4376 31.0768 57.0559 6.0776 -6.7512 29.0835
# 4 14.1484 14.7340 6.0776 43.4021 -8.1087 8.4417
# 5 -24.4112 -7.6344 -6.7512 -8.1087 42.0567 -5.2041
# 6 54.0140 40.6485 29.0835 8.4417 -5.2041 64.8863
#
#
#
# Elastic Compliance Matrix: (Units=1/GPa)
#
#
# Indices 1 2 3 4 5 6 
#
# 1 0.007237 -0.004278 -0.005795 0.000493 0.002513 -0.000609
# 2 -0.004278 0.012170 0.000749 -0.002232 -0.001103 -0.004197
# 3 -0.005795 0.000749 0.028374 -0.000700 0.000170 -0.008258
# 4 0.000493 -0.002232 -0.000700 0.024859 0.004366 -0.001582
# 5 0.002513 -0.001103 0.000170 0.004366 0.025909 0.000033
# 6 -0.000609 -0.004197 -0.008258 -0.001582 0.000033 0.022458
#
#
# Mechanical properties :
#
#
# Convention : Reuss Voigt Hill
#
# Bulk Modulus (GPa) = 34.32473 97.78836 66.05654
# Shear Modulus (GPa) = 33.47468 46.90743 40.19105
#
# Velocity S-wave (km/s) = 3.74544 4.43369 4.10402
# Velocity P-wave (km/s) = 5.75231 8.19699 7.08095
#
# Compressibility (1/GPa) = 0.02913351
#
# Stress axis : x y z
#
# Youngs Moduli (GPa) = 138.17799 82.16620 35.24354
#
# Poissons Ratio (x) = 0.35152 0.20424
# Poissons Ratio (y) = 0.59115 -0.02640
# Poissons Ratio (z) = 0.80074 -0.06155
#
# Static dielectric constant tensor:
#      x y z
#    x 2.018430 0.092180 0.067420 
#    y 0.092180 1.929520 0.043960 
#    z 0.067420 0.043960 2.039000 
# 
# From -- ./inp_files/15688.got.cif
#   From: 2010.05.17/outbox.cif.g08.bks.cpg/sg2_8_cif.got.tgz:15688.got - 2010.06.03 11:33:40.
