data_PCOD9001333
_publ_section_title
;
Structure prediction by ZEFSAII (Michael W. Deem and Ramdas Pophale) SiO2 
 PCOD9001333
Probable space group: P -1
;
_chemical_formula_sum "Si O2"
_cell_formula_units_Z 16
_cell_length_a 11.100430
_cell_length_b 17.720885
_cell_length_c 7.027164
_cell_angle_alpha 56.397765
_cell_angle_beta 60.513859
_cell_angle_gamma 33.981268
_cell_volume 641.852040
_symmetry_space_group_name_H-M "P -1"
_symmetry_group_IT_number 2
_symmetry_cell_setting 'triclinic'
loop_
_space_group_symop_operation_xyz
x,y,z
-x,-y,-z
loop_
_atom_site_type_symbol
_atom_site_label
_atom_site_fract_x
_atom_site_fract_y
_atom_site_fract_z
Si Si1 0.545908 0.554259 0.037485
Si Si2 0.059653 0.853758 0.986409
Si Si3 0.951919 0.095476 0.642931
Si Si4 0.209406 0.453226 0.440088
Si Si5 0.169419 0.551504 0.731204
Si Si6 0.489167 0.248588 0.811880
Si Si7 0.213037 0.135907 0.337614
Si Si8 0.339548 0.033945 0.817475
O O1 0.702562 0.544315 0.819050
O O2 0.500000 0.500000 0.000000
O O3 0.308239 0.711551 0.027272
O O4 0.663246 0.467552 0.262021
O O5 0.982592 0.919728 0.166141
O O6 0.895946 0.855288 0.053415
O O7 0.040925 0.950529 0.731614
O O8 0.693497 0.213228 0.676293
O O9 0.064426 0.124467 0.418514
O O10 0.168244 0.549477 0.504709
O O11 0.385221 0.297335 0.615313
O O12 0.000000 0.500000 0.500000
O O13 0.294336 0.392327 0.884548
O O14 0.937778 0.698275 0.786677
O O15 0.572091 0.114023 0.023026
O O16 0.444785 0.019774 0.216552
O O17 0.279461 0.096351 0.564456
#
# Coordination Sequence:
#
# PCOD9001333 Si02
#       8
#     2   2   2   2   2   2   2   2
#     4  12  27  43  73 110 144 188 238 292 362 419
#     4   9  18  39  63  94 137 181 235 283 336 422
#     4   9  17  35  65  96 133 183 229 283 347 418
#     4  10  26  46  67 108 141 184 238 293 352 428
#     4  10  25  43  75 102 147 184 233 304 351 420
#     4   9  20  40  69  93 138 182 229 284 353 406
#     4  10  21  34  67 107 133 180 241 277 367 413
#     4   9  20  38  62 100 136 182 236 286 344 429
#
# _framework density 24.927862000000001
#
# number of rings (size 3 to 8) (size 9 to 14) (size 15 to 20)
#    0.750    1.500    1.250    0.750    7.000    3.000 
#    2.250    2.500    0.000    1.500    0.000    0.000 
#    0.000    0.000    0.000    0.000    0.000    0.000 
#
# Total GULP energy -89178.020753 kJ/mol
# GULP energy per Si atom -5573.626297 kJ/mol
# Density = 2.487112 g / cm^3
# Si number density = 24.927862 Si / 1000 Ang^3
#
#
#
# Elastic Constant Matrix: (Units=GPa)
#
#
# Indices 1 2 3 4 5 6 
#
# 1 106.5615 59.1220 43.2234 -1.5855 -3.7466 -35.2805
# 2 59.1220 92.5140 33.2504 -6.6926 -4.7812 -48.2793
# 3 43.2234 33.2504 74.2389 0.4029 10.2482 -14.5154
# 4 -1.5855 -6.6926 0.4029 30.4781 -3.5163 12.2888
# 5 -3.7466 -4.7812 10.2482 -3.5163 34.5102 6.6468
# 6 -35.2805 -48.2793 -14.5154 12.2888 6.6468 40.3700
#
#
#
# Elastic Compliance Matrix: (Units=1/GPa)
#
#
# Indices 1 2 3 4 5 6 
#
# 1 0.017258 -0.004839 -0.006566 -0.002990 0.001381 0.007617
# 2 -0.004839 0.035615 -0.004973 -0.008653 -0.002631 0.039643
# 3 -0.006566 -0.004973 0.019882 -0.001269 -0.006853 -0.003022
# 4 -0.002990 -0.008653 -0.001269 0.043029 0.008618 -0.027935
# 5 0.001381 -0.002631 -0.006853 0.008618 0.034111 -0.012643
# 6 0.007617 0.039643 -0.003022 -0.027935 -0.012643 0.088337
#
#
# Mechanical properties :
#
#
# Convention : Reuss Voigt Hill
#
# Bulk Modulus (GPa) = 24.99977 60.50067 42.75022
# Shear Modulus (GPa) = 17.58579 30.25290 23.91934
#
# Velocity S-wave (km/s) = 2.65894 3.48748 3.10101
# Velocity P-wave (km/s) = 4.41331 6.36708 5.47800
#
# Compressibility (1/GPa) = 0.04000037
#
# Stress axis : x y z
#
# Youngs Moduli (GPa) = 57.94317 28.07807 50.29636
#
# Poissons Ratio (x) = 0.13587 0.33024
# Poissons Ratio (y) = 0.28038 0.25011
# Poissons Ratio (z) = 0.38045 0.13962
#
# Static dielectric constant tensor:
#      x y z
#    x 2.047660 -0.017190 -0.029990 
#    y -0.017190 1.949140 0.005600 
#    z -0.029990 0.005600 1.961540 
# 
# From -- ./inp_files/282875.got.cif
#   From: 2010.05.17/outbox.cif.g08.bks.cpg/sg2_142_cif.got.tgz:282875.got - 2010.06.03 11:33:40.
