data_PCOD9001051
_publ_section_title
;
Structure prediction by ZEFSAII (Michael W. Deem and Ramdas Pophale) SiO2 
 PCOD9001051
Probable space group: P -1
;
_chemical_formula_sum "Si O2"
_cell_formula_units_Z 16
_cell_length_a 11.898559
_cell_length_b 22.395168
_cell_length_c 13.242613
_cell_angle_alpha 147.016294
_cell_angle_beta 52.689438
_cell_angle_gamma 149.998213
_cell_volume 861.696343
_symmetry_space_group_name_H-M "P -1"
_symmetry_group_IT_number 2
_symmetry_cell_setting 'triclinic'
loop_
_space_group_symop_operation_xyz
x,y,z
-x,-y,-z
loop_
_atom_site_type_symbol
_atom_site_label
_atom_site_fract_x
_atom_site_fract_y
_atom_site_fract_z
Si Si1 0.770414 0.911923 0.206506
Si Si2 0.418877 0.550407 0.751542
Si Si3 0.624733 0.273120 0.469786
Si Si4 0.220123 0.045283 0.211776
Si Si5 0.456347 0.843514 0.422581
Si Si6 0.375216 0.557656 0.550217
Si Si7 0.120281 0.778392 0.383699
Si Si8 0.972036 0.315650 0.257885
O O1 0.560572 0.803244 0.251086
O O2 0.858887 0.091330 0.383461
O O3 0.647963 0.768226 0.977652
O O4 0.996408 0.988333 0.239113
O O5 0.352922 0.535723 0.651019
O O6 0.496475 0.472883 0.601814
O O7 0.169450 0.417192 0.761792
O O8 0.357258 0.134029 0.371176
O O9 0.601098 0.218656 0.519626
O O10 0.824718 0.499267 0.665512
O O11 0.739877 0.248511 0.304665
O O12 0.440732 0.225528 0.271960
O O13 0.116112 0.859228 0.977724
O O14 0.226567 0.749262 0.352783
O O15 0.686433 0.077491 0.609503
O O16 0.117764 0.403530 0.410484
#
# Coordination Sequence:
#
# PCOD9001051 Si02
#       8
#     2   2   2   2   2   2   2   2
#     4  10  21  37  58  85 119 150 190 233 281 342
#     4  11  20  34  57  86 116 153 184 232 289 340
#     4  10  22  39  61  84 115 152 196 231 285 338
#     4  11  21  39  59  86 117 151 190 239 286 335
#     4   9  20  42  59  84 117 154 187 236 283 341
#     4  10  21  33  57  87 116 148 187 233 292 338
#     4   9  20  40  58  81 122 149 183 239 284 333
#     4  10  21  40  59  85 115 150 189 246 280 335
#
# _framework density 18.568027000000001
#
# number of rings (size 3 to 8) (size 9 to 14) (size 15 to 20)
#    0.750    1.250    2.500    1.125    0.000    3.500 
#    2.250    0.625    0.000    0.000    0.000    0.000 
#    0.000    0.000    0.000    0.000    0.000    0.000 
#
# Total GULP energy -89179.163293 kJ/mol
# GULP energy per Si atom -5573.697706 kJ/mol
# Density = 1.852577 g / cm^3
# Si number density = 18.568027 Si / 1000 Ang^3
#
#
#
# Elastic Constant Matrix: (Units=GPa)
#
#
# Indices 1 2 3 4 5 6 
#
# 1 74.0028 25.0431 14.2787 6.9264 6.8242 -2.8839
# 2 25.0431 36.6388 17.5987 1.6027 7.7695 4.1475
# 3 14.2787 17.5987 69.6999 11.3934 -8.1193 -5.2589
# 4 6.9264 1.6027 11.3934 13.8781 2.9367 -0.1541
# 5 6.8242 7.7695 -8.1193 2.9367 24.3767 0.4785
# 6 -2.8839 4.1475 -5.2589 -0.1541 0.4785 36.9918
#
#
#
# Elastic Compliance Matrix: (Units=1/GPa)
#
#
# Indices 1 2 3 4 5 6 
#
# 1 0.018746 -0.013530 0.001340 -0.008971 0.000530 0.003125
# 2 -0.013530 0.047720 -0.014836 0.017198 -0.018274 -0.008206
# 3 0.001340 -0.014836 0.023336 -0.021145 0.014579 0.004809
# 4 -0.008971 0.017198 -0.021145 0.096408 -0.021530 -0.004953
# 5 0.000530 -0.018274 0.014579 -0.021530 0.054082 0.003374
# 6 0.003125 -0.008206 0.004809 -0.004953 0.003374 0.028816
#
#
# Mechanical properties :
#
#
# Convention : Reuss Voigt Hill
#
# Bulk Modulus (GPa) = 27.97290 32.68694 30.32992
# Shear Modulus (GPa) = 14.92196 23.27740 19.09968
#
# Velocity S-wave (km/s) = 2.83792 3.54450 3.21071
# Velocity P-wave (km/s) = 5.08293 5.86459 5.48770
#
# Compressibility (1/GPa) = 0.03574888
#
# Stress axis : x y z
#
# Youngs Moduli (GPa) = 53.34554 20.95577 42.85153
#
# Poissons Ratio (x) = 0.28354 -0.05742
# Poissons Ratio (y) = 0.72178 0.63575
# Poissons Ratio (z) = -0.07148 0.31090
#
# Static dielectric constant tensor:
#      x y z
#    x 1.636730 0.010140 -0.010200 
#    y 0.010140 1.648590 0.014390 
#    z -0.010200 0.014390 1.625070 
# 
# From -- ./inp_files/78567.got.cif
#   From: 2010.05.17/outbox.cif.g08.bks.cpg/sg2_40_cif.got.tgz:78567.got - 2010.06.03 11:33:40.
