data_PCOD9001220
_publ_section_title
;
Structure prediction by ZEFSAII (Michael W. Deem and Ramdas Pophale) SiO2 
 PCOD9001220
Probable space group: P -1
;
_chemical_formula_sum "Si O2"
_cell_formula_units_Z 16
_cell_length_a 9.111841
_cell_length_b 17.256505
_cell_length_c 5.987116
_cell_angle_alpha 48.517188
_cell_angle_beta 85.207834
_cell_angle_gamma 74.306468
_cell_volume 672.972550
_symmetry_space_group_name_H-M "P -1"
_symmetry_group_IT_number 2
_symmetry_cell_setting 'triclinic'
loop_
_space_group_symop_operation_xyz
x,y,z
-x,-y,-z
loop_
_atom_site_type_symbol
_atom_site_label
_atom_site_fract_x
_atom_site_fract_y
_atom_site_fract_z
Si Si1 0.329263 0.905785 0.754465
Si Si2 0.133163 0.794385 0.750831
Si Si3 0.863334 0.530586 0.692309
Si Si4 0.651944 0.691770 0.728304
Si Si5 0.336637 0.731261 0.457846
Si Si6 0.325132 0.575223 0.392408
Si Si7 0.897439 0.675790 0.056530
Si Si8 0.413571 0.080972 0.666977
O O1 0.177200 0.889967 0.689859
O O2 0.459969 0.896994 0.564528
O O3 0.313631 0.018366 0.664322
O O4 0.376288 0.809659 0.116296
O O5 0.184098 0.794559 0.488032
O O6 0.253424 0.684034 0.047244
O O7 0.968463 0.775003 0.840103
O O8 0.750033 0.584524 0.798428
O O9 0.770702 0.499066 0.556915
O O10 0.922935 0.625195 0.396589
O O11 0.995279 0.420166 0.930836
O O12 0.478256 0.698996 0.674498
O O13 0.671752 0.805739 0.422414
O O14 0.723738 0.695630 0.957042
O O15 0.311161 0.626264 0.543345
O O16 0.500000 0.500000 0.500000
O O17 0.500000 0.000000 0.000000
#
# Coordination Sequence:
#
# PCOD9001220 Si02
#       8
#     2   2   2   2   2   2   2   2
#     4  10  21  39  65  90 130 154 196 253 322 362
#     4  10  22  41  59  86 123 169 204 250 308 368
#     4  10  23  43  60  86 129 166 215 250 305 363
#     4  12  23  36  66  93 121 160 207 257 305 366
#     4  11  22  37  62  94 120 158 208 257 307 364
#     4  10  21  34  57  89 119 158 204 262 306 352
#     4  10  25  42  60  86 126 175 206 249 305 368
#     4  11  22  38  64 103 123 153 197 263 320 364
#
# _framework density 23.775116000000001
#
# number of rings (size 3 to 8) (size 9 to 14) (size 15 to 20)
#    0.000    1.500    3.750    0.375    3.500    6.500 
#    0.000    0.625    0.000    3.750    0.000    0.000 
#    0.000    0.000    0.000    0.000    0.000    0.000 
#
# Total GULP energy -89259.585205 kJ/mol
# GULP energy per Si atom -5578.724075 kJ/mol
# Density = 2.372100 g / cm^3
# Si number density = 23.775116 Si / 1000 Ang^3
#
#
#
# Elastic Constant Matrix: (Units=GPa)
#
#
# Indices 1 2 3 4 5 6 
#
# 1 83.4268 26.2190 31.3194 10.5149 -0.8421 36.3195
# 2 26.2190 100.4559 0.1409 -6.3559 -2.0191 42.0658
# 3 31.3194 0.1409 79.3059 -8.6168 -5.3679 12.3313
# 4 10.5149 -6.3559 -8.6168 26.5787 -0.0186 6.2451
# 5 -0.8421 -2.0191 -5.3679 -0.0186 35.4731 -6.5529
# 6 36.3195 42.0658 12.3313 6.2451 -6.5529 35.7920
#
#
#
# Elastic Compliance Matrix: (Units=1/GPa)
#
#
# Indices 1 2 3 4 5 6 
#
# 1 0.027541 0.006983 -0.006276 -0.003136 -0.006291 -0.034596
# 2 0.006983 0.028791 0.005962 0.017108 -0.005977 -0.047057
# 3 -0.006276 0.005962 0.017766 0.011680 0.001304 -0.008559
# 4 -0.003136 0.017108 0.011680 0.054007 -0.003017 -0.030924
# 5 -0.006291 -0.005977 0.001304 -0.003017 0.031451 0.019244
# 6 -0.034596 -0.047057 -0.008559 -0.030924 0.019244 0.130218
#
#
# Mechanical properties :
#
#
# Convention : Reuss Voigt Hill
#
# Bulk Modulus (GPa) = 11.43696 42.06080 26.74888
# Shear Modulus (GPa) = 16.36224 33.26936 24.81580
#
# Velocity S-wave (km/s) = 2.62622 3.74483 3.23425
# Velocity P-wave (km/s) = 3.74392 6.03555 5.02219
#
# Compressibility (1/GPa) = 0.08743585
#
# Stress axis : x y z
#
# Youngs Moduli (GPa) = 36.30907 34.73306 56.28868
#
# Poissons Ratio (x) = -0.24253 0.35328
# Poissons Ratio (y) = -0.25354 -0.33562
# Poissons Ratio (z) = 0.22788 -0.20709
#
# Static dielectric constant tensor:
#      x y z
#    x 1.941950 0.001950 -0.010860 
#    y 0.001950 1.943950 -0.015080 
#    z -0.010860 -0.015080 1.966820 
# 
# From -- ./inp_files/46253.got.cif
#   From: 2010.05.17/outbox.cif.g08.bks.cpg/sg2_24_cif.got.tgz:46253.got - 2010.06.03 11:33:40.
