data_PCOD9001634
_publ_section_title
;
Structure prediction by ZEFSAII (Michael W. Deem and Ramdas Pophale) SiO2 
 PCOD9001634
Probable space group: P -1
;
_chemical_formula_sum "Si O2"
_cell_formula_units_Z 16
_cell_length_a 18.479894
_cell_length_b 9.089109
_cell_length_c 8.461376
_cell_angle_alpha 50.075139
_cell_angle_beta 86.515101
_cell_angle_gamma 121.693271
_cell_volume 734.943829
_symmetry_space_group_name_H-M "P -1"
_symmetry_group_IT_number 2
_symmetry_cell_setting 'triclinic'
loop_
_space_group_symop_operation_xyz
x,y,z
-x,-y,-z
loop_
_atom_site_type_symbol
_atom_site_label
_atom_site_fract_x
_atom_site_fract_y
_atom_site_fract_z
Si Si1 0.394133 0.543000 0.789018
Si Si2 0.953723 0.318197 0.972233
Si Si3 0.931310 0.861482 0.441555
Si Si4 0.776735 0.289158 0.998436
Si Si5 0.239098 0.559204 0.770192
Si Si6 0.346853 0.031726 0.034927
Si Si7 0.542174 0.974943 0.729766
Si Si8 0.108300 0.478163 0.584611
O O1 0.277223 0.416963 0.894379
O O2 0.445787 0.678733 0.860711
O O3 0.460030 0.807179 0.474288
O O4 0.390326 0.319876 0.887958
O O5 0.854192 0.258592 0.983710
O O6 0.037027 0.475154 0.707066
O O7 0.000000 0.500000 0.000000
O O8 0.927141 0.051041 0.217053
O O9 0.815382 0.558578 0.719298
O O10 0.961245 0.755247 0.383637
O O11 0.000000 0.000000 0.500000
O O12 0.666494 0.016904 0.117703
O O13 0.788688 0.375450 0.117351
O O14 0.150014 0.399557 0.758501
O O15 0.348054 0.873164 0.478921
O O16 0.222627 0.776343 0.294264
O O17 0.425642 0.022521 0.100985
#
# Coordination Sequence:
#
# PCOD9001634 Si02
#       8
#     2   2   2   2   2   2   2   2
#     4   9  18  36  65  83 108 153 184 228 288 346
#     4  12  23  40  57  79 116 155 194 236 283 334
#     4  11  23  40  57  80 112 150 193 246 283 328
#     4  11  24  39  52  86 119 147 192 242 275 335
#     4   9  18  38  57  81 119 146 185 233 282 334
#     4  10  21  35  60  85 113 144 193 235 279 340
#     4   8  18  37  62  84 115 140 193 226 282 348
#     4  10  22  39  58  83 115 153 193 237 282 336
#
# _framework density 21.77037
#
# number of rings (size 3 to 8) (size 9 to 14) (size 15 to 20)
#    0.750    1.250    2.500    0.750    1.750    3.000 
#    2.250    1.250    0.000    0.000    0.000    0.000 
#    0.000    0.000    0.000    0.000    0.000    0.000 
#
# Total GULP energy -89080.745280 kJ/mol
# GULP energy per Si atom -5567.546580 kJ/mol
# Density = 2.172082 g / cm^3
# Si number density = 21.770370 Si / 1000 Ang^3
#
#
#
# Elastic Constant Matrix: (Units=GPa)
#
#
# Indices 1 2 3 4 5 6 
#
# 1 69.6514 24.1824 14.6976 11.8362 12.1988 8.8610
# 2 24.1824 127.3566 29.1018 12.5694 13.8338 9.1825
# 3 14.6976 29.1018 40.0474 -5.6708 13.5359 -6.3905
# 4 11.8362 12.5694 -5.6708 30.9769 -3.8377 5.9668
# 5 12.1988 13.8338 13.5359 -3.8377 27.1108 9.5981
# 6 8.8610 9.1825 -6.3905 5.9668 9.5981 35.8845
#
#
#
# Elastic Compliance Matrix: (Units=1/GPa)
#
#
# Indices 1 2 3 4 5 6 
#
# 1 0.018488 -0.000518 -0.006309 -0.008080 -0.005034 -0.002866
# 2 -0.000518 0.010729 -0.008665 -0.005201 -0.000535 -0.003153
# 3 -0.006309 -0.008665 0.043478 0.008694 -0.018538 0.015031
# 4 -0.008080 -0.005201 0.008694 0.041088 0.009343 -0.004456
# 5 -0.005034 -0.000535 -0.018538 0.009343 0.056591 -0.018611
# 6 -0.002866 -0.003153 0.015031 -0.004456 -0.018611 0.037778
#
#
# Mechanical properties :
#
#
# Convention : Reuss Voigt Hill
#
# Bulk Modulus (GPa) = 23.97465 41.44657 32.71061
# Shear Modulus (GPa) = 19.75980 30.06600 24.91290
#
# Velocity S-wave (km/s) = 3.01599 3.72028 3.38649
# Velocity P-wave (km/s) = 4.81297 6.12645 5.50899
#
# Compressibility (1/GPa) = 0.04171073
#
# Stress axis : x y z
#
# Youngs Moduli (GPa) = 54.08996 93.20407 23.00008
#
# Poissons Ratio (x) = 0.04827 0.14511
# Poissons Ratio (y) = 0.02801 0.19930
# Poissons Ratio (z) = 0.34126 0.80764
#
# Static dielectric constant tensor:
#      x y z
#    x 1.830180 0.012480 -0.002000 
#    y 0.012480 1.820410 0.035460 
#    z -0.002000 0.035460 1.869570 
# 
# From -- ./inp_files/328442.got.cif
#   From: 2010.05.17/outbox.cif.g08.bks.cpg/sg2_165_cif.got.tgz:328442.got - 2010.06.03 11:33:40.
