data_PCOD9001692
_publ_section_title
;
Structure prediction by ZEFSAII (Michael W. Deem and Ramdas Pophale) SiO2 
 PCOD9001692
Probable space group: P -1
;
_chemical_formula_sum "Si O2"
_cell_formula_units_Z 16
_cell_length_a 8.103589
_cell_length_b 12.206439
_cell_length_c 19.684574
_cell_angle_alpha 46.212526
_cell_angle_beta 146.890534
_cell_angle_gamma 123.256666
_cell_volume 765.408689
_symmetry_space_group_name_H-M "P -1"
_symmetry_group_IT_number 2
_symmetry_cell_setting 'triclinic'
loop_
_space_group_symop_operation_xyz
x,y,z
-x,-y,-z
loop_
_atom_site_type_symbol
_atom_site_label
_atom_site_fract_x
_atom_site_fract_y
_atom_site_fract_z
Si Si1 0.950071 0.156817 0.337195
Si Si2 0.432934 0.397641 0.084814
Si Si3 0.653184 0.392072 0.306220
Si Si4 0.735056 0.341203 0.888128
Si Si5 0.309963 0.915828 0.914647
Si Si6 0.325304 0.915529 0.136257
Si Si7 0.273455 0.120098 0.331675
Si Si8 0.201275 0.184398 0.553380
O O1 0.615917 0.233507 0.204881
O O2 0.065948 0.201314 0.284523
O O3 0.169577 0.206667 0.451982
O O4 0.951203 0.974566 0.418522
O O5 0.591941 0.455779 0.182167
O O6 0.500000 0.500000 0.000000
O O7 0.076791 0.389610 0.978282
O O8 0.515426 0.516735 0.257825
O O9 0.452855 0.246723 0.303270
O O10 0.997465 0.321225 0.460411
O O11 0.688762 0.221658 0.863440
O O12 0.699753 0.252078 0.985562
O O13 0.953099 0.962357 0.760331
O O14 0.469454 0.960527 0.880697
O O15 0.500000 0.000000 0.000000
O O16 0.476440 0.846604 0.286671
O O17 0.000000 0.000000 0.000000
O O18 0.500000 0.000000 0.500000
#
# Coordination Sequence:
#
# PCOD9001692 Si02
#       8
#     2   2   2   2   2   2   2   2
#     4  10  21  35  61  88 124 162 214 269 319 368
#     4  11  23  38  62  94 131 166 213 272 323 383
#     4  11  23  39  62  96 128 171 216 272 326 383
#     4  11  24  39  64  94 131 170 216 264 333 395
#     4  10  23  40  60  94 132 168 219 271 329 394
#     4  11  23  42  67  93 127 174 218 268 329 398
#     4  12  21  38  67  93 130 172 223 274 326 389
#     4  10  21  40  58  91 125 164 215 269 321 381
#
# _framework density 20.903866000000001
#
# number of rings (size 3 to 8) (size 9 to 14) (size 15 to 20)
#    0.000    1.250    3.750    1.875    1.750    2.500 
#    0.000    0.000    0.000   10.500    0.000    0.000 
#    0.000    0.000    0.000    0.000    0.000    0.000 
#
# Total GULP energy -89291.269521 kJ/mol
# GULP energy per Si atom -5580.704345 kJ/mol
# Density = 2.085629 g / cm^3
# Si number density = 20.903866 Si / 1000 Ang^3
#
#
#
# Elastic Constant Matrix: (Units=GPa)
#
#
# Indices 1 2 3 4 5 6 
#
# 1 58.2816 19.6069 26.5981 -11.0983 0.2192 -3.9604
# 2 19.6069 57.5007 52.3319 -10.8979 12.0180 -11.6848
# 3 26.5981 52.3319 142.9448 2.9811 12.8698 -15.8651
# 4 -11.0983 -10.8979 2.9811 31.3032 -7.6298 3.7260
# 5 0.2192 12.0180 12.8698 -7.6298 37.0212 -8.6527
# 6 -3.9604 -11.6848 -15.8651 3.7260 -8.6527 38.7574
#
#
#
# Elastic Compliance Matrix: (Units=1/GPa)
#
#
# Indices 1 2 3 4 5 6 
#
# 1 0.021227 -0.003878 -0.003029 0.007376 0.003676 -0.000128
# 2 -0.003878 0.031152 -0.010176 0.009110 -0.003957 0.003071
# 3 -0.003029 -0.010176 0.011754 -0.006345 -0.001682 0.001668
# 4 0.007376 0.009110 -0.006345 0.040249 0.007181 -0.001363
# 5 0.003676 -0.003957 -0.001682 0.007181 0.031468 0.004829
# 6 -0.000128 0.003071 0.001668 -0.001363 0.004829 0.028606
#
#
# Mechanical properties :
#
#
# Convention : Reuss Voigt Hill
#
# Bulk Modulus (GPa) = 33.37013 50.64453 42.00733
# Shear Modulus (GPa) = 23.96803 32.09571 28.03187
#
# Velocity S-wave (km/s) = 3.38980 3.92266 3.66593
# Velocity P-wave (km/s) = 5.59636 6.69301 6.16910
#
# Compressibility (1/GPa) = 0.02996692
#
# Stress axis : x y z
#
# Youngs Moduli (GPa) = 47.10978 32.10022 85.07915
#
# Poissons Ratio (x) = 0.12448 0.25772
# Poissons Ratio (y) = 0.18268 0.86578
# Poissons Ratio (z) = 0.14270 0.32666
#
# Static dielectric constant tensor:
#      x y z
#    x 1.767760 -0.028790 -0.013300 
#    y -0.028790 1.768920 0.014400 
#    z -0.013300 0.014400 1.788520 
# 
# From -- ./inp_files/589547.got.cif
#   From: 2010.05.17/outbox.cif.g08.bks.cpg/sg2_295_cif.got.tgz:589547.got - 2010.06.03 11:33:40.
