data_PCOD9001708
_publ_section_title
;
Structure prediction by ZEFSAII (Michael W. Deem and Ramdas Pophale) SiO2 
 PCOD9001708
Probable space group: P -1
;
_chemical_formula_sum "Si O2"
_cell_formula_units_Z 14
_cell_length_a 31.352865
_cell_length_b 9.846577
_cell_length_c 13.543205
_cell_angle_alpha 148.264297
_cell_angle_beta 162.485147
_cell_angle_gamma 28.188988
_cell_volume 592.937327
_symmetry_space_group_name_H-M "P -1"
_symmetry_group_IT_number 2
_symmetry_cell_setting 'triclinic'
loop_
_space_group_symop_operation_xyz
x,y,z
-x,-y,-z
loop_
_atom_site_type_symbol
_atom_site_label
_atom_site_fract_x
_atom_site_fract_y
_atom_site_fract_z
Si Si1 0.510052 0.052784 0.296326
Si Si2 0.986721 0.139189 0.165349
Si Si3 0.599305 0.710701 0.102577
Si Si4 0.948233 0.638573 0.864478
Si Si5 0.770647 0.817833 0.127429
Si Si6 0.037399 0.201745 0.633958
Si Si7 0.696184 0.367575 0.922657
O O1 0.673844 0.081694 0.676839
O O2 0.398246 0.363090 0.190963
O O3 0.527725 0.789944 0.102409
O O4 0.415257 0.055716 0.186387
O O5 0.857151 0.472247 0.086316
O O6 0.147122 0.128163 0.559469
O O7 0.941097 0.947835 0.021413
O O8 0.000000 0.000000 0.000000
O O9 0.778227 0.659981 0.477065
O O10 0.613735 0.459796 0.905972
O O11 0.500000 0.000000 0.000000
O O12 0.059538 0.428721 0.894271
O O13 0.000000 0.500000 0.000000
O O14 0.822846 0.941499 0.224016
O O15 0.872294 0.339141 0.294769
O O16 0.000000 0.000000 0.500000
#
# Coordination Sequence:
#
# PCOD9001708 Si02
#       7
#     2   2   2   2   2   2   2
#     4  10  21  35  61  91 127 156 211 261 327 372
#     4  11  23  39  63  95 136 168 220 275 326 384
#     4   9  21  37  61  93 128 168 221 261 315 399
#     4  11  24  41  68  98 130 177 222 272 333 392
#     4  11  24  38  63  99 128 169 221 278 323 389
#     4  11  23  43  65  91 130 169 223 271 328 396
#     4   9  20  37  59  90 119 169 205 260 312 389
#
# _framework density 23.611263000000001
#
# number of rings (size 3 to 8) (size 9 to 14) (size 15 to 20)
#    0.000    1.714    1.429    2.571   14.000    0.000 
#    0.000    0.714    0.000    2.571    0.000    0.000 
#    0.000    0.000    0.000    0.000    0.000    0.000 
#
# Total GULP energy -78197.874558 kJ/mol
# GULP energy per Si atom -5585.562468 kJ/mol
# Density = 2.355752 g / cm^3
# Si number density = 23.611263 Si / 1000 Ang^3
#
#
#
# Elastic Constant Matrix: (Units=GPa)
#
#
# Indices 1 2 3 4 5 6 
#
# 1 151.3322 19.3630 35.5869 14.4412 7.5630 -14.6007
# 2 19.3630 32.4299 -0.3405 10.1456 -6.1981 9.9574
# 3 35.5869 -0.3405 49.4312 -1.1857 -2.2924 5.9429
# 4 14.4412 10.1456 -1.1857 32.2240 -4.0879 -4.0999
# 5 7.5630 -6.1981 -2.2924 -4.0879 44.4060 6.8703
# 6 -14.6007 9.9574 5.9429 -4.0999 6.8703 46.0404
#
#
#
# Elastic Compliance Matrix: (Units=1/GPa)
#
#
# Indices 1 2 3 4 5 6 
#
# 1 0.011112 -0.009255 -0.009219 -0.002112 -0.004979 0.007271
# 2 -0.009255 0.047069 0.009214 -0.011180 0.010195 -0.016821
# 3 -0.009219 0.009214 0.028368 0.001844 0.005929 -0.009299
# 4 -0.002112 -0.011180 0.001844 0.036337 0.001541 0.004516
# 5 -0.004979 0.010195 0.005929 0.001541 0.026534 -0.008372
# 6 0.007271 -0.016821 -0.009299 0.004516 -0.008372 0.030515
#
#
# Mechanical properties :
#
#
# Convention : Reuss Voigt Hill
#
# Bulk Modulus (GPa) = 14.69962 38.04579 26.37270
# Shear Modulus (GPa) = 22.61095 36.43967 29.52531
#
# Velocity S-wave (km/s) = 3.09792 3.93277 3.54004
# Velocity P-wave (km/s) = 4.36295 6.06388 5.28233
#
# Compressibility (1/GPa) = 0.06802899
#
# Stress axis : x y z
#
# Youngs Moduli (GPa) = 89.99312 21.24530 35.25109
#
# Poissons Ratio (x) = 0.19662 0.32499
# Poissons Ratio (y) = 0.83287 -0.32480
# Poissons Ratio (z) = 0.82967 -0.19575
#
# Static dielectric constant tensor:
#      x y z
#    x 1.968970 -0.031910 -0.044040 
#    y -0.031910 1.921300 -0.011860 
#    z -0.044040 -0.011860 1.923330 
# 
# From -- ./inp_files/466687.got.cif
#   From: 2010.05.17/outbox.cif.g08.bks.cpg/sg2_234_cif.got.tgz:466687.got - 2010.06.03 11:33:40.
