data_PCOD9001400
_publ_section_title
;
Structure prediction by ZEFSAII (Michael W. Deem and Ramdas Pophale) SiO2 
 PCOD9001400
Probable space group: P -1
;
_chemical_formula_sum "Si O2"
_cell_formula_units_Z 16
_cell_length_a 11.698047
_cell_length_b 29.352826
_cell_length_c 14.849613
_cell_angle_alpha 158.910395
_cell_angle_beta 150.337922
_cell_angle_gamma 28.371742
_cell_volume 836.771426
_symmetry_space_group_name_H-M "P -1"
_symmetry_group_IT_number 2
_symmetry_cell_setting 'triclinic'
loop_
_space_group_symop_operation_xyz
x,y,z
-x,-y,-z
loop_
_atom_site_type_symbol
_atom_site_label
_atom_site_fract_x
_atom_site_fract_y
_atom_site_fract_z
Si Si1 0.775804 0.449618 0.640059
Si Si2 0.625865 0.375613 0.065820
Si Si3 0.070279 0.909077 0.291291
Si Si4 0.137490 0.814326 0.441446
Si Si5 0.208836 0.577696 0.918748
Si Si6 0.893889 0.383778 0.798593
Si Si7 0.004803 0.361616 0.450764
Si Si8 0.639467 0.838449 0.805722
O O1 0.500000 0.500000 0.500000
O O2 0.817695 0.372663 0.622567
O O3 0.955895 0.360434 0.520055
O O4 0.867493 0.573682 0.952891
O O5 0.344683 0.487388 0.086831
O O6 0.764893 0.363299 0.233490
O O7 0.771556 0.425345 0.181123
O O8 0.666069 0.220278 0.776743
O O9 0.011148 0.024132 0.384258
O O10 0.877650 0.831662 0.012957
O O11 0.000000 0.000000 0.500000
O O12 0.120784 0.725364 0.179155
O O13 0.060963 0.749038 0.354887
O O14 0.432063 0.786508 0.603363
O O15 0.500000 0.500000 0.000000
O O16 0.050088 0.497096 0.702341
O O17 0.245788 0.237148 0.347874
O O18 0.500000 0.000000 0.000000
#
# Coordination Sequence:
#
# PCOD9001400 Si02
#       8
#     2   2   2   2   2   2   2   2
#     4  11  23  41  60  89 118 157 211 259 297 346
#     4  11  21  35  57  90 121 156 195 242 311 371
#     4  10  21  35  54  85 128 162 189 229 299 377
#     4  11  20  37  56  90 128 153 197 244 303 366
#     4  12  19  30  56  89 121 150 191 247 308 366
#     4  11  23  39  64  89 116 161 204 258 301 346
#     4  11  20  35  56  89 119 156 196 255 297 351
#     4   9  20  34  56  85 122 158 186 234 301 370
#
# _framework density 19.121113000000001
#
# number of rings (size 3 to 8) (size 9 to 14) (size 15 to 20)
#    0.000    1.250    6.250    0.375    0.000    1.000 
#    2.250    0.000    0.000    9.750    0.000    0.000 
#    0.000    0.000    0.000    0.000    0.000    0.000 
#
# Total GULP energy -89188.999750 kJ/mol
# GULP energy per Si atom -5574.312484 kJ/mol
# Density = 1.907759 g / cm^3
# Si number density = 19.121113 Si / 1000 Ang^3
#
#
#
# Elastic Constant Matrix: (Units=GPa)
#
#
# Indices 1 2 3 4 5 6 
#
# 1 101.4394 16.2892 24.3699 -1.5637 -5.7659 25.8731
# 2 16.2892 64.2529 16.1613 4.8355 7.4376 9.9232
# 3 24.3699 16.1613 81.1133 0.1071 -3.1339 2.4404
# 4 -1.5637 4.8355 0.1071 33.0807 3.6494 -3.1463
# 5 -5.7659 7.4376 -3.1339 3.6494 28.4457 -5.0946
# 6 25.8731 9.9232 2.4404 -3.1463 -5.0946 27.7841
#
#
#
# Elastic Compliance Matrix: (Units=1/GPa)
#
#
# Indices 1 2 3 4 5 6 
#
# 1 0.014063 -0.000730 -0.003686 -0.000454 0.000459 -0.012478
# 2 -0.000730 0.018683 -0.003530 -0.002734 -0.006353 -0.007158
# 3 -0.003686 -0.003530 0.014112 0.000408 0.002383 0.003937
# 4 -0.000454 -0.002734 0.000408 0.031310 -0.002554 0.004441
# 5 0.000459 -0.006353 0.002383 -0.002554 0.039021 0.008498
# 6 -0.012478 -0.007158 0.003937 0.004441 0.008498 0.051884
#
#
# Mechanical properties :
#
#
# Convention : Reuss Voigt Hill
#
# Bulk Modulus (GPa) = 32.29243 40.04959 36.17101
# Shear Modulus (GPa) = 25.60359 30.52778 28.06569
#
# Velocity S-wave (km/s) = 3.66323 4.00002 3.83532
# Velocity P-wave (km/s) = 5.90063 6.50571 6.21054
#
# Compressibility (1/GPa) = 0.03096701
#
# Stress axis : x y z
#
# Youngs Moduli (GPa) = 71.11091 53.52498 70.86079
#
# Poissons Ratio (x) = 0.03906 0.26118
# Poissons Ratio (y) = 0.05190 0.25011
# Poissons Ratio (z) = 0.26210 0.18893
#
# Static dielectric constant tensor:
#      x y z
#    x 1.687510 -0.180920 0.005890 
#    y -0.180920 -4.305240 0.585420 
#    z 0.005890 0.585420 1.634850 
# 
# From -- ./inp_files/396327.got.cif
#   From: 2010.05.17/outbox.cif.g08.bks.cpg/sg2_199_cif.got.tgz:396327.got - 2010.06.03 11:33:40.
