data_PCOD9001534
_publ_section_title
;
Structure prediction by ZEFSAII (Michael W. Deem and Ramdas Pophale) SiO2 
 PCOD9001534
Probable space group: P -1
;
_chemical_formula_sum "Si O2"
_cell_formula_units_Z 14
_cell_length_a 13.355949
_cell_length_b 12.518855
_cell_length_c 11.748670
_cell_angle_alpha 38.029073
_cell_angle_beta 147.947998
_cell_angle_gamma 144.782694
_cell_volume 571.310655
_symmetry_space_group_name_H-M "P -1"
_symmetry_group_IT_number 2
_symmetry_cell_setting 'triclinic'
loop_
_space_group_symop_operation_xyz
x,y,z
-x,-y,-z
loop_
_atom_site_type_symbol
_atom_site_label
_atom_site_fract_x
_atom_site_fract_y
_atom_site_fract_z
Si Si1 0.199058 0.413930 0.185515
Si Si2 0.033093 0.549469 0.294837
Si Si3 0.835157 0.017039 0.913033
Si Si4 0.381902 0.798037 0.733373
Si Si5 0.817245 0.951999 0.606722
Si Si6 0.472074 0.170166 0.890211
Si Si7 0.910011 0.739409 0.548066
O O1 0.292486 0.269655 0.352692
O O2 0.378799 0.629010 0.197743
O O3 0.073971 0.330632 0.251496
O O4 0.065737 0.428418 0.938859
O O5 0.834806 0.407846 0.303467
O O6 0.156927 0.770169 0.272224
O O7 0.157337 0.430605 0.470707
O O8 0.592996 0.849238 0.820610
O O9 0.959422 0.015072 0.150651
O O10 0.000000 0.000000 0.000000
O O11 0.312732 0.969987 0.505785
O O12 0.465387 0.813913 0.930099
O O13 0.875380 0.094793 0.435340
O O14 0.245453 0.164935 0.672634
O O15 0.500000 0.000000 0.000000
#
# Coordination Sequence:
#
# PCOD9001534 Si02
#       7
#     2   2   2   2   2   2   2
#     4  10  21  35  57  91 128 168 205 248 307 375
#     4   9  23  40  61  94 124 167 209 256 318 372
#     4  11  24  44  69  92 121 164 212 271 323 367
#     4  10  22  43  62  90 135 158 209 266 304 378
#     4  10  22  41  63  92 125 165 209 258 319 370
#     4  11  23  35  57  94 128 173 208 244 307 372
#     4  11  20  36  60  88 129 168 207 254 303 372
#
# _framework density 24.505056
#
# number of rings (size 3 to 8) (size 9 to 14) (size 15 to 20)
#    0.000    1.714    1.429    2.143    4.000    3.429 
#    0.000    2.857    0.000    0.000    0.000    0.000 
#    0.000    0.000    0.000    0.000    0.000    0.000 
#
# Total GULP energy -78253.802739 kJ/mol
# GULP energy per Si atom -5589.557339 kJ/mol
# Density = 2.444928 g / cm^3
# Si number density = 24.505056 Si / 1000 Ang^3
#
#
#
# Elastic Constant Matrix: (Units=GPa)
#
#
# Indices 1 2 3 4 5 6 
#
# 1 113.6995 47.0205 31.0360 -15.7102 13.6939 26.0579
# 2 47.0205 74.0322 18.5179 -20.7910 -1.8636 6.6083
# 3 31.0360 18.5179 71.2287 -12.8381 15.1275 9.2455
# 4 -15.7102 -20.7910 -12.8381 39.3677 1.9400 6.9603
# 5 13.6939 -1.8636 15.1275 1.9400 38.8519 -3.2326
# 6 26.0579 6.6083 9.2455 6.9603 -3.2326 32.7003
#
#
#
# Elastic Compliance Matrix: (Units=1/GPa)
#
#
# Indices 1 2 3 4 5 6 
#
# 1 0.017147 -0.008222 -0.001152 0.004863 -0.007350 -0.013438
# 2 -0.008222 0.021014 -0.001867 0.006660 0.004455 0.001856
# 3 -0.001152 -0.001867 0.018526 0.006034 -0.007696 -0.005988
# 4 0.004863 0.006660 0.006034 0.035855 -0.006801 -0.015231
# 5 -0.007350 0.004455 -0.007696 -0.006801 0.032864 0.011829
# 6 -0.013438 0.001856 -0.005988 -0.015231 0.011829 0.047018
#
#
# Mechanical properties :
#
#
# Convention : Reuss Voigt Hill
#
# Bulk Modulus (GPa) = 29.23649 50.23435 39.73542
# Shear Modulus (GPa) = 24.23566 33.00970 28.62268
#
# Velocity S-wave (km/s) = 3.14826 3.67421 3.42136
# Velocity P-wave (km/s) = 5.01718 6.20837 5.64429
#
# Compressibility (1/GPa) = 0.03420383
#
# Stress axis : x y z
#
# Youngs Moduli (GPa) = 58.31973 47.58774 53.97877
#
# Poissons Ratio (x) = 0.39128 0.06218
# Poissons Ratio (y) = 0.47952 0.10079
# Poissons Ratio (z) = 0.06718 0.08885
#
# Static dielectric constant tensor:
#      x y z
#    x 2.014010 -0.022540 -0.031470 
#    y -0.022540 1.985690 0.015580 
#    z -0.031470 0.015580 1.997460 
# 
# From -- ./inp_files/342152.got.cif
#   From: 2010.05.17/outbox.cif.g08.bks.cpg/sg2_172_cif.got.tgz:342152.got - 2010.06.03 11:33:40.
