data_PCOD9001085
_publ_section_title
;
Structure prediction by ZEFSAII (Michael W. Deem and Ramdas Pophale) SiO2 
 PCOD9001085
Probable space group: P -1
;
_chemical_formula_sum "Si O2"
_cell_formula_units_Z 16
_cell_length_a 10.829607
_cell_length_b 17.913523
_cell_length_c 12.683958
_cell_angle_alpha 50.636446
_cell_angle_beta 40.234842
_cell_angle_gamma 28.791353
_cell_volume 760.678550
_symmetry_space_group_name_H-M "P -1"
_symmetry_group_IT_number 2
_symmetry_cell_setting 'triclinic'
loop_
_space_group_symop_operation_xyz
x,y,z
-x,-y,-z
loop_
_atom_site_type_symbol
_atom_site_label
_atom_site_fract_x
_atom_site_fract_y
_atom_site_fract_z
Si Si1 0.840793 0.255665 0.561564
Si Si2 0.488368 0.911729 0.196492
Si Si3 0.008820 0.730153 0.755420
Si Si4 0.335287 0.167445 0.440207
Si Si5 0.708436 0.557203 0.095737
Si Si6 0.474496 0.819649 0.904903
Si Si7 0.150401 0.041059 0.102573
Si Si8 0.348331 0.882532 0.533055
O O1 0.760126 0.325632 0.435567
O O2 0.545808 0.338298 0.741304
O O3 0.004947 0.271984 0.512663
O O4 0.095365 0.069742 0.545298
O O5 0.426997 0.896662 0.132599
O O6 0.456093 0.850093 0.369784
O O7 0.189673 0.100654 0.230274
O O8 0.768846 0.878110 0.047313
O O9 0.176070 0.598224 0.850308
O O10 0.760439 0.765128 0.820157
O O11 0.528152 0.146211 0.243685
O O12 0.500000 0.000000 0.500000
O O13 0.365661 0.209057 0.494058
O O14 0.556486 0.674880 0.993233
O O15 0.000000 0.500000 0.000000
O O16 0.195250 0.964890 0.032010
O O17 0.835618 0.135743 0.282263
#
# Coordination Sequence:
#
# PCOD9001085 Si02
#       8
#     2   2   2   2   2   2   2   2
#     4   9  16  29  43  66  95 126 152 191 236 281
#     4   9  19  31  46  72  98 124 160 195 234 284
#     4   8  16  28  45  62  94 123 152 191 232 282
#     4   9  18  31  45  66 102 128 156 185 233 297
#     4  10  17  27  44  68  96 121 153 193 241 285
#     4   9  17  29  43  72  99 117 154 193 233 287
#     4  10  17  30  48  67 102 125 152 199 240 275
#     4  10  18  31  48  69  99 131 156 189 236 290
#
# _framework density 21.033853000000001
#
# number of rings (size 3 to 8) (size 9 to 14) (size 15 to 20)
#    0.000    2.750    1.250    3.000    0.000    0.500 
#    2.250    0.000    0.000    0.000    0.000    1.750 
#    0.000    0.250    0.000    0.000    0.000    0.000 
#
# Total GULP energy -89100.503174 kJ/mol
# GULP energy per Si atom -5568.781448 kJ/mol
# Density = 2.098598 g / cm^3
# Si number density = 21.033853 Si / 1000 Ang^3
#
#
#
# Elastic Constant Matrix: (Units=GPa)
#
#
# Indices 1 2 3 4 5 6 
#
# 1 40.8714 -0.0016 18.8170 4.4324 -4.0420 -7.5269
# 2 -0.0016 39.3313 21.9941 -13.4004 2.8585 3.1979
# 3 18.8170 21.9941 156.6403 -8.2474 4.5666 -12.9585
# 4 4.4324 -13.4004 -8.2474 29.4844 -7.4520 -2.5849
# 5 -4.0420 2.8585 4.5666 -7.4520 32.7714 1.5640
# 6 -7.5269 3.1979 -12.9585 -2.5849 1.5640 11.6503
#
#
#
# Elastic Compliance Matrix: (Units=1/GPa)
#
#
# Indices 1 2 3 4 5 6 
#
# 1 0.028998 -0.001411 -0.002271 -0.003663 0.002446 0.015455
# 2 -0.001411 0.033697 -0.004963 0.013318 0.001222 -0.012890
# 3 -0.002271 -0.004963 0.008214 0.000895 -0.001237 0.009396
# 4 -0.003663 0.013318 0.000895 0.043068 0.007890 0.003470
# 5 0.002446 0.001222 -0.001237 0.007890 0.032809 -0.002785
# 6 0.015455 -0.012890 0.009396 0.003470 -0.002785 0.110953
#
#
# Mechanical properties :
#
#
# Convention : Reuss Voigt Hill
#
# Bulk Modulus (GPa) = 18.65006 35.38465 27.01736
# Shear Modulus (GPa) = 17.07059 27.85012 22.46036
#
# Velocity S-wave (km/s) = 2.85191 3.64271 3.27130
# Velocity P-wave (km/s) = 4.44190 5.87807 5.20971
#
# Compressibility (1/GPa) = 0.05361913
#
# Stress axis : x y z
#
# Youngs Moduli (GPa) = 34.48545 29.67637 121.74100
#
# Poissons Ratio (x) = 0.04188 0.27646
# Poissons Ratio (y) = 0.04867 0.60416
# Poissons Ratio (z) = 0.07831 0.14728
#
# Static dielectric constant tensor:
#      x y z
#    x 1.827130 0.023470 -0.016510 
#    y 0.023470 1.766100 -0.015280 
#    z -0.016510 -0.015280 1.842180 
# 
# From -- ./inp_files/249301.got.cif
#   From: 2010.05.17/outbox.cif.g08.bks.cpg/sg2_125_cif.got.tgz:249301.got - 2010.06.03 11:33:40.
