data_PCOD9001538
_publ_section_title
;
Structure prediction by ZEFSAII (Michael W. Deem and Ramdas Pophale) SiO2 
 PCOD9001538
Probable space group: P -1
;
_chemical_formula_sum "Si O2"
_cell_formula_units_Z 16
_cell_length_a 8.967490
_cell_length_b 8.606221
_cell_length_c 14.272881
_cell_angle_alpha 96.985223
_cell_angle_beta 43.589947
_cell_angle_gamma 73.346955
_cell_volume 630.857845
_symmetry_space_group_name_H-M "P -1"
_symmetry_group_IT_number 2
_symmetry_cell_setting 'triclinic'
loop_
_space_group_symop_operation_xyz
x,y,z
-x,-y,-z
loop_
_atom_site_type_symbol
_atom_site_label
_atom_site_fract_x
_atom_site_fract_y
_atom_site_fract_z
Si Si1 0.513776 0.457626 0.102087
Si Si2 0.756202 0.282161 0.302483
Si Si3 0.009612 0.261321 0.547846
Si Si4 0.136591 0.041555 0.648806
Si Si5 0.904993 0.688999 0.159691
Si Si6 0.814873 0.455522 0.466281
Si Si7 0.859065 0.730193 0.986061
Si Si8 0.444084 0.844431 0.034771
O O1 0.285079 0.628292 0.273221
O O2 0.500000 0.500000 0.000000
O O3 0.799793 0.375094 0.999680
O O4 0.468045 0.289561 0.105398
O O5 0.849112 0.378658 0.340355
O O6 0.497297 0.425793 0.374544
O O7 0.999655 0.174322 0.114284
O O8 0.699656 0.156074 0.386633
O O9 0.158096 0.075633 0.531518
O O10 0.973466 0.282380 0.453769
O O11 0.108841 0.395262 0.540567
O O12 0.170018 0.189608 0.703592
O O13 0.846562 0.090517 0.803632
O O14 0.924134 0.494125 0.134748
O O15 0.759091 0.798892 0.140892
O O16 0.629670 0.747912 0.031721
O O17 0.500000 0.000000 0.000000
#
# Coordination Sequence:
#
# PCOD9001538 Si02
#       8
#     2   2   2   2   2   2   2   2
#     4  11  18  35  62  86 117 153 188 235 302 361
#     4  11  23  41  59  86 117 162 198 259 293 340
#     4  11  21  42  64  87 115 159 208 247 286 361
#     4  11  22  38  64  88 125 153 198 255 301 349
#     4  10  21  35  57  95 119 160 189 237 307 371
#     4  10  25  42  62  83 115 166 213 240 295 348
#     4  11  20  36  60  85 128 155 196 235 300 374
#     4  11  20  34  54  92 118 156 183 233 305 364
#
# _framework density 25.362289000000001
#
# number of rings (size 3 to 8) (size 9 to 14) (size 15 to 20)
#    0.000    1.250    5.000    2.250    0.000    2.500 
#    2.250    0.000    0.000    0.000    0.000    0.000 
#    0.000    0.000    0.000    0.000    0.000    0.000 
#
# Total GULP energy -89410.681153 kJ/mol
# GULP energy per Si atom -5588.167572 kJ/mol
# Density = 2.530456 g / cm^3
# Si number density = 25.362289 Si / 1000 Ang^3
#
#
#
# Elastic Constant Matrix: (Units=GPa)
#
#
# Indices 1 2 3 4 5 6 
#
# 1 103.7121 26.2279 17.6088 -14.9290 2.4045 -16.4390
# 2 26.2279 91.5285 -1.9496 -24.7634 11.1324 -5.0568
# 3 17.6088 -1.9496 56.6551 -17.7922 -3.5397 -5.1755
# 4 -14.9290 -24.7634 -17.7922 30.7841 -3.9886 4.6918
# 5 2.4045 11.1324 -3.5397 -3.9886 22.0464 -7.8950
# 6 -16.4390 -5.0568 -5.1755 4.6918 -7.8950 32.3032
#
#
#
# Elastic Compliance Matrix: (Units=1/GPa)
#
#
# Indices 1 2 3 4 5 6 
#
# 1 0.011881 -0.003128 -0.002863 0.001016 0.001951 0.005427
# 2 -0.003128 0.016389 0.005658 0.014518 -0.004911 -0.001429
# 3 -0.002863 0.005658 0.024907 0.017939 0.005470 0.002150
# 4 0.001016 0.014518 0.017939 0.055870 0.005117 -0.001200
# 5 0.001951 -0.004911 0.005470 0.005117 0.054311 0.013631
# 6 0.005427 -0.001429 0.002150 -0.001200 0.013631 0.037345
#
#
# Mechanical properties :
#
#
# Convention : Reuss Voigt Hill
#
# Bulk Modulus (GPa) = 19.04400 37.29667 28.17033
# Shear Modulus (GPa) = 22.84432 31.02732 26.93582
#
# Velocity S-wave (km/s) = 3.00446 3.50146 3.26243
# Velocity P-wave (km/s) = 4.42275 5.57534 5.03216
#
# Compressibility (1/GPa) = 0.05250997
#
# Stress axis : x y z
#
# Youngs Moduli (GPa) = 84.17151 61.01755 40.14882
#
# Poissons Ratio (x) = 0.19086 0.11496
# Poissons Ratio (y) = 0.26329 -0.22717
# Poissons Ratio (z) = 0.24102 -0.34525
#
# Static dielectric constant tensor:
#      x y z
#    x 1.959510 -0.044530 0.006460 
#    y -0.044530 2.238910 -0.011520 
#    z 0.006460 -0.011520 1.975960 
# 
# From -- ./inp_files/177955.got.cif
#   From: 2010.05.17/outbox.cif.g08.bks.cpg/sg2_89_cif.got.tgz:177955.got - 2010.06.03 11:33:40.
