data_PCOD9001643
_publ_section_title
;
Structure prediction by ZEFSAII (Michael W. Deem and Ramdas Pophale) SiO2 
 PCOD9001643
Probable space group: P -1
;
_chemical_formula_sum "Si O2"
_cell_formula_units_Z 16
_cell_length_a 14.594422
_cell_length_b 11.880534
_cell_length_c 14.090072
_cell_angle_alpha 149.847295
_cell_angle_beta 142.430717
_cell_angle_gamma 29.092583
_cell_volume 589.782951
_symmetry_space_group_name_H-M "P -1"
_symmetry_group_IT_number 2
_symmetry_cell_setting 'triclinic'
loop_
_space_group_symop_operation_xyz
x,y,z
-x,-y,-z
loop_
_atom_site_type_symbol
_atom_site_label
_atom_site_fract_x
_atom_site_fract_y
_atom_site_fract_z
Si Si1 0.418167 0.401066 0.681986
Si Si2 0.062509 0.747126 0.157903
Si Si3 0.606912 0.698060 0.762829
Si Si4 0.859666 0.577647 0.303115
Si Si5 0.136729 0.381896 0.226820
Si Si6 0.337486 0.839060 0.788265
Si Si7 0.011587 0.158452 0.270460
Si Si8 0.442739 0.894191 0.232870
O O1 0.445335 0.565583 0.745922
O O2 0.202872 0.619154 0.703097
O O3 0.545246 0.283060 0.796350
O O4 0.428354 0.151607 0.457853
O O5 0.886153 0.998586 0.259036
O O6 0.088254 0.864148 0.167142
O O7 0.595927 0.208422 0.301380
O O8 0.989047 0.574727 0.934498
O O9 0.701464 0.598126 0.663649
O O10 0.750791 0.445451 0.768515
O O11 0.613036 0.958665 0.981683
O O12 0.979974 0.255852 0.206713
O O13 0.641804 0.711120 0.205484
O O14 0.981799 0.579941 0.322727
O O15 0.860244 0.761097 0.521173
O O16 0.262963 0.057293 0.134377
#
# Coordination Sequence:
#
# PCOD9001643 Si02
#       8
#     2   2   2   2   2   2   2   2
#     4   9  18  37  61  86 112 153 192 237 289 351
#     4  10  22  39  64  82 116 156 198 238 292 342
#     4  10  22  39  60  83 113 163 196 234 293 340
#     4  10  21  36  61  86 123 149 189 243 290 349
#     4  11  22  38  56  89 122 149 190 251 281 337
#     4   9  19  37  61  83 110 152 199 238 275 352
#     4   9  19  39  61  89 112 157 196 230 293 359
#     4  10  21  35  60  88 117 152 187 236 301 344
#
# _framework density 27.128625
#
# number of rings (size 3 to 8) (size 9 to 14) (size 15 to 20)
#    0.000    2.250    1.250    1.500    3.500    4.500 
#    0.000   11.250    2.750    0.000    0.000    0.000 
#    0.000    0.000    0.000    0.000    0.000    0.000 
#
# Total GULP energy -89546.922059 kJ/mol
# GULP energy per Si atom -5596.682629 kJ/mol
# Density = 2.706688 g / cm^3
# Si number density = 27.128625 Si / 1000 Ang^3
#
#
#
# Elastic Constant Matrix: (Units=GPa)
#
#
# Indices 1 2 3 4 5 6 
#
# 1 192.3353 28.1290 11.2170 13.6852 -0.3788 3.7976
# 2 28.1290 99.5565 13.8393 -10.1676 3.0223 14.8989
# 3 11.2170 13.8393 61.1572 2.7223 9.4187 -0.1956
# 4 13.6852 -10.1676 2.7223 30.0651 13.1401 3.5989
# 5 -0.3788 3.0223 9.4187 13.1401 36.9201 6.6306
# 6 3.7976 14.8989 -0.1956 3.5989 6.6306 40.9551
#
#
#
# Elastic Compliance Matrix: (Units=1/GPa)
#
#
# Indices 1 2 3 4 5 6 
#
# 1 0.005834 -0.002069 -0.000699 -0.004123 0.001825 0.000275
# 2 -0.002069 0.012411 -0.002437 0.006787 -0.002004 -0.004607
# 3 -0.000699 -0.002437 0.017751 -0.000347 -0.004536 0.001801
# 4 -0.004123 0.006787 -0.000347 0.044798 -0.015832 -0.003462
# 5 0.001825 -0.002004 -0.004536 -0.015832 0.034723 -0.003693
# 6 0.000275 -0.004607 0.001801 -0.003462 -0.003693 0.026978
#
#
# Mechanical properties :
#
#
# Convention : Reuss Voigt Hill
#
# Bulk Modulus (GPa) = 39.08319 51.04662 45.06491
# Shear Modulus (GPa) = 30.97239 41.57896 36.27567
#
# Velocity S-wave (km/s) = 3.38255 3.91917 3.66071
# Velocity P-wave (km/s) = 5.44917 6.27194 5.87497
#
# Compressibility (1/GPa) = 0.02558645
#
# Stress axis : x y z
#
# Youngs Moduli (GPa) = 171.40675 80.57160 56.33557
#
# Poissons Ratio (x) = 0.16669 0.03936
# Poissons Ratio (y) = 0.35462 0.13731
# Poissons Ratio (z) = 0.11974 0.19638
#
# Static dielectric constant tensor:
#      x y z
#    x 2.174840 0.008180 -0.031380 
#    y 0.008180 2.105760 0.051600 
#    z -0.031380 0.051600 2.157210 
# 
# From -- ./inp_files/532064.got.cif
#   From: 2010.05.17/outbox.cif.g08.bks.cpg/sg2_267_cif.got.tgz:532064.got - 2010.06.03 11:33:40.
