data_PCOD9001463
_publ_section_title
;
Structure prediction by ZEFSAII (Michael W. Deem and Ramdas Pophale) SiO2 
 PCOD9001463
Probable space group: P -1
;
_chemical_formula_sum "Si O2"
_cell_formula_units_Z 16
_cell_length_a 15.163891
_cell_length_b 7.403266
_cell_length_c 11.919655
_cell_angle_alpha 112.934566
_cell_angle_beta 56.972927
_cell_angle_gamma 68.174992
_cell_volume 675.655374
_symmetry_space_group_name_H-M "P -1"
_symmetry_group_IT_number 2
_symmetry_cell_setting 'triclinic'
loop_
_space_group_symop_operation_xyz
x,y,z
-x,-y,-z
loop_
_atom_site_type_symbol
_atom_site_label
_atom_site_fract_x
_atom_site_fract_y
_atom_site_fract_z
Si Si1 0.317182 0.790200 0.156366
Si Si2 0.209532 0.288044 0.028757
Si Si3 0.825213 0.420798 0.427435
Si Si4 0.804355 0.146620 0.978251
Si Si5 0.184127 0.172799 0.798016
Si Si6 0.337894 0.597510 0.640587
Si Si7 0.841417 0.842903 0.432974
Si Si8 0.686814 0.762362 0.822806
O O1 0.219596 0.925071 0.373194
O O2 0.283548 0.057603 0.197015
O O3 0.500000 0.500000 0.000000
O O4 0.264397 0.737651 0.072164
O O5 0.280197 0.310700 0.086809
O O6 0.027353 0.618653 0.225610
O O7 0.272682 0.184419 0.832044
O O8 0.215311 0.055370 0.017501
O O9 0.685275 0.526801 0.471983
O O10 0.836916 0.629344 0.431873
O O11 0.778201 0.492302 0.607857
O O12 0.004690 0.081180 0.206823
O O13 0.704454 0.406472 0.204704
O O14 0.248475 0.046146 0.597551
O O15 0.192532 0.949251 0.794418
O O16 0.000000 0.500000 0.000000
O O17 0.500000 0.500000 0.500000
O O18 0.500000 0.000000 0.000000
#
# Coordination Sequence:
#
# PCOD9001463 Si02
#       8
#     2   2   2   2   2   2   2   2
#     4  10  21  35  56  82 118 152 188 235 291 337
#     4   8  16  34  59  82 106 150 193 226 279 346
#     4  10  21  38  61  86 114 151 200 238 287 350
#     4   9  19  37  59  82 114 153 194 233 281 351
#     4   9  19  36  60  85 115 153 188 234 292 350
#     4  11  24  37  63  90 115 154 197 246 293 342
#     4   9  18  36  59  84 112 150 190 235 285 344
#     4  10  21  35  57  84 115 149 192 242 281 337
#
# _framework density 23.680712
#
# number of rings (size 3 to 8) (size 9 to 14) (size 15 to 20)
#    0.000    2.500    0.000    1.875    7.000    3.000 
#    0.000    4.375    0.000    5.250    0.000    0.000 
#    0.000    0.000    0.000    0.000    0.000    0.000 
#
# Total GULP energy -89194.735362 kJ/mol
# GULP energy per Si atom -5574.670960 kJ/mol
# Density = 2.362681 g / cm^3
# Si number density = 23.680712 Si / 1000 Ang^3
#
#
#
# Elastic Constant Matrix: (Units=GPa)
#
#
# Indices 1 2 3 4 5 6 
#
# 1 124.2324 41.3102 35.9920 -23.5892 11.5917 -58.1023
# 2 41.3102 100.4466 25.5178 -19.9971 19.4041 -28.8957
# 3 35.9920 25.5178 57.4758 -20.6603 20.5180 -34.8825
# 4 -23.5892 -19.9971 -20.6603 33.0590 -18.0861 18.4752
# 5 11.5917 19.4041 20.5180 -18.0861 31.3150 -14.2385
# 6 -58.1023 -28.8957 -34.8825 18.4752 -14.2385 56.3406
#
#
#
# Elastic Compliance Matrix: (Units=1/GPa)
#
#
# Indices 1 2 3 4 5 6 
#
# 1 0.016521 -0.002394 -0.000016 0.004313 0.004983 0.015645
# 2 -0.002394 0.012975 -0.000709 0.002124 -0.004605 0.001887
# 3 -0.000016 -0.000709 0.033021 0.005561 -0.010942 0.015474
# 4 0.004313 0.002124 0.005561 0.051483 0.022128 -0.002310
# 5 0.004983 -0.004605 -0.010942 0.022128 0.053977 0.002388
# 6 0.015645 0.001887 0.015474 -0.002310 0.002388 0.045792
#
#
# Mechanical properties :
#
#
# Convention : Reuss Voigt Hill
#
# Bulk Modulus (GPa) = 17.76902 54.19943 35.98422
# Shear Modulus (GPa) = 20.94075 36.09857 28.51966
#
# Velocity S-wave (km/s) = 2.97694 3.90858 3.47413
# Velocity P-wave (km/s) = 4.39728 6.58077 5.59654
#
# Compressibility (1/GPa) = 0.05627774
#
# Stress axis : x y z
#
# Youngs Moduli (GPa) = 60.52850 77.06937 30.28410
#
# Poissons Ratio (x) = 0.18449 0.00050
# Poissons Ratio (y) = 0.14489 0.02148
# Poissons Ratio (z) = 0.00100 0.05468
#
# Static dielectric constant tensor:
#      x y z
#    x 2.003670 -0.004190 0.098940 
#    y -0.004190 1.906610 -0.039720 
#    z 0.098940 -0.039720 1.936780 
# 
# From -- ./inp_files/237656.got.cif
#   From: 2010.05.17/outbox.cif.g08.bks.cpg/sg2_119_cif.got.tgz:237656.got - 2010.06.03 11:33:40.
