data_PCOD9001995
_publ_section_title
;
Structure prediction by ZEFSAII (Michael W. Deem and Ramdas Pophale) SiO2 
 PCOD9001995
Probable space group: P -1
;
_chemical_formula_sum "Si O2"
_cell_formula_units_Z 16
_cell_length_a 8.305169
_cell_length_b 15.412322
_cell_length_c 13.667349
_cell_angle_alpha 27.729630
_cell_angle_beta 118.852671
_cell_angle_gamma 118.477357
_cell_volume 707.652487
_symmetry_space_group_name_H-M "P -1"
_symmetry_group_IT_number 2
_symmetry_cell_setting 'triclinic'
loop_
_space_group_symop_operation_xyz
x,y,z
-x,-y,-z
loop_
_atom_site_type_symbol
_atom_site_label
_atom_site_fract_x
_atom_site_fract_y
_atom_site_fract_z
Si Si1 0.339443 0.310140 0.846870
Si Si2 0.116571 0.849357 0.789257
Si Si3 0.986658 0.827873 0.983515
Si Si4 0.040192 0.764368 0.644932
Si Si5 0.482070 0.942802 0.253998
Si Si6 0.847554 0.221462 0.541464
Si Si7 0.840745 0.477335 0.588022
Si Si8 0.344258 0.405036 0.393661
O O1 0.220437 0.256578 0.962201
O O2 0.228718 0.426766 0.623333
O O3 0.529336 0.443151 0.784717
O O4 0.381750 0.111658 0.011736
O O5 0.088671 0.720820 0.813666
O O6 0.983059 0.013755 0.580059
O O7 0.326604 0.950617 0.752529
O O8 0.059038 0.763997 0.963714
O O9 0.118227 0.738297 0.189313
O O10 0.977422 0.050716 0.758939
O O11 0.844194 0.662984 0.650750
O O12 0.178288 0.741648 0.618277
O O13 0.341423 0.842512 0.393439
O O14 0.548849 0.776640 0.375515
O O15 0.968112 0.400007 0.445387
O O16 0.699506 0.504647 0.606641
#
# Coordination Sequence:
#
# PCOD9001995 Si02
#       8
#     2   2   2   2   2   2   2   2
#     4  11  23  37  56  82 112 147 185 227 273 321
#     4   9  17  35  59  81 109 146 180 221 276 327
#     4  10  21  37  57  81 112 145 184 228 268 324
#     4   8  17  35  59  81 108 146 181 219 275 330
#     4  10  21  36  56  82 115 143 180 230 270 322
#     4   9  20  37  56  84 113 142 182 227 271 323
#     4  11  22  37  58  80 110 150 186 223 273 325
#     4  10  21  37  56  82 112 142 184 230 269 323
#
# _framework density 22.609967000000001
#
# number of rings (size 3 to 8) (size 9 to 14) (size 15 to 20)
#    0.000    2.250    0.000    3.000    0.000    4.000 
#    0.000    7.500    0.000    0.000    0.000    0.000 
#    0.000    0.000    0.000    0.000    0.000    0.000 
#
# Total GULP energy -89355.084745 kJ/mol
# GULP energy per Si atom -5584.692797 kJ/mol
# Density = 2.255851 g / cm^3
# Si number density = 22.609967 Si / 1000 Ang^3
#
#
#
# Elastic Constant Matrix: (Units=GPa)
#
#
# Indices 1 2 3 4 5 6 
#
# 1 103.2074 19.7097 17.9420 -3.5148 -11.4585 -6.6737
# 2 19.7097 44.6770 10.0231 -8.9052 -3.5462 -5.8294
# 3 17.9420 10.0231 75.1221 -15.8352 8.4367 -10.9793
# 4 -3.5148 -8.9052 -15.8352 29.0327 -5.0137 1.8323
# 5 -11.4585 -3.5462 8.4367 -5.0137 31.5161 -17.3713
# 6 -6.6737 -5.8294 -10.9793 1.8323 -17.3713 20.8506
#
#
#
# Elastic Compliance Matrix: (Units=1/GPa)
#
#
# Indices 1 2 3 4 5 6 
#
# 1 0.012576 -0.002479 -0.002064 0.000872 0.011428 0.011689
# 2 -0.002479 0.028858 -0.000153 0.009717 0.013735 0.017783
# 3 -0.002064 -0.000153 0.016662 0.008360 0.000269 0.007559
# 4 0.000872 0.009717 0.008360 0.043660 0.014944 0.016011
# 5 0.011428 0.013735 0.000269 0.014944 0.079925 0.072914
# 6 0.011689 0.017783 0.007559 0.016011 0.072914 0.119994
#
#
# Mechanical properties :
#
#
# Convention : Reuss Voigt Hill
#
# Bulk Modulus (GPa) = 20.53232 35.37290 27.95261
# Shear Modulus (GPa) = 15.27644 27.96866 21.62255
#
# Velocity S-wave (km/s) = 2.60215 3.52092 3.09581
# Velocity P-wave (km/s) = 4.25782 5.67521 5.01682
#
# Compressibility (1/GPa) = 0.04870371
#
# Stress axis : x y z
#
# Youngs Moduli (GPa) = 79.51835 34.65214 60.01673
#
# Poissons Ratio (x) = 0.08589 0.12387
# Poissons Ratio (y) = 0.19710 0.00921
# Poissons Ratio (z) = 0.16412 0.00532
#
# Static dielectric constant tensor:
#      x y z
#    x 1.881230 -0.032960 0.019870 
#    y -0.032960 1.841950 -0.001940 
#    z 0.019870 -0.001940 1.900030 
# 
# From -- ./inp_files/313309.got.cif
#   From: 2010.05.17/outbox.cif.g08.bks.cpg/sg2_157_cif.got.tgz:313309.got - 2010.06.03 11:33:40.
