data_PCOD9001309
_publ_section_title
;
Structure prediction by ZEFSAII (Michael W. Deem and Ramdas Pophale) SiO2 
 PCOD9001309
Probable space group: P -1
;
_chemical_formula_sum "Si O2"
_cell_formula_units_Z 16
_cell_length_a 8.607762
_cell_length_b 17.945211
_cell_length_c 11.665853
_cell_angle_alpha 64.541466
_cell_angle_beta 85.130999
_cell_angle_gamma 139.602510
_cell_volume 748.345449
_symmetry_space_group_name_H-M "P -1"
_symmetry_group_IT_number 2
_symmetry_cell_setting 'triclinic'
loop_
_space_group_symop_operation_xyz
x,y,z
-x,-y,-z
loop_
_atom_site_type_symbol
_atom_site_label
_atom_site_fract_x
_atom_site_fract_y
_atom_site_fract_z
Si Si1 0.464318 0.886883 0.601518
Si Si2 0.277394 0.307895 0.891922
Si Si3 0.902542 0.504130 0.817108
Si Si4 0.554393 0.842033 0.859498
Si Si5 0.860810 0.018101 0.268084
Si Si6 0.757950 0.617887 0.511324
Si Si7 0.177681 0.644909 0.478651
Si Si8 0.757760 0.056201 0.886567
O O1 0.564207 0.908730 0.708490
O O2 0.699953 0.957771 0.441754
O O3 0.093907 0.672458 0.746932
O O4 0.500000 0.000000 0.500000
O O5 0.561520 0.374495 0.861399
O O6 0.502261 0.493499 0.719066
O O7 0.046243 0.175304 0.884952
O O8 0.028243 0.181097 0.099738
O O9 0.141949 0.587471 0.644248
O O10 0.778705 0.371436 0.990069
O O11 0.555630 0.885831 0.955454
O O12 0.872040 0.929891 0.774448
O O13 0.568252 0.852378 0.307368
O O14 0.500000 0.500000 0.500000
O O15 0.971390 0.633645 0.494084
O O16 0.038169 0.814703 0.323830
O O17 0.000000 0.500000 0.500000
O O18 0.500000 0.000000 0.000000
#
# Coordination Sequence:
#
# PCOD9001309 Si02
#       8
#     2   2   2   2   2   2   2   2
#     4  11  25  46  73  94 130 171 231 283 336 389
#     4   9  20  39  64  90 137 160 218 261 341 384
#     4   9  22  42  64  94 128 175 216 276 323 405
#     4  11  25  42  71  94 137 177 222 273 339 398
#     4  10  23  42  67  96 128 177 226 271 334 406
#     4   9  20  37  55  87 138 171 210 265 314 390
#     4  10  21  34  62  92 132 169 217 263 331 399
#     4  11  24  37  66 101 140 174 215 273 335 404
#
# _framework density 21.380500000000001
#
# number of rings (size 3 to 8) (size 9 to 14) (size 15 to 20)
#    0.000    2.000    0.000    1.500   15.750    1.000 
#    0.000    2.500    5.500    0.000    0.000    0.000 
#    0.000    0.000    0.000    0.000    0.000    0.000 
#
# Total GULP energy -89083.500942 kJ/mol
# GULP energy per Si atom -5567.718809 kJ/mol
# Density = 2.133184 g / cm^3
# Si number density = 21.380500 Si / 1000 Ang^3
#
#
#
# Elastic Constant Matrix: (Units=GPa)
#
#
# Indices 1 2 3 4 5 6 
#
# 1 68.9924 43.2706 28.6113 -2.9329 7.4064 7.9466
# 2 43.2706 112.6460 33.1770 -7.4440 -2.7998 -1.6662
# 3 28.6113 33.1770 118.9453 -16.5822 16.5575 10.9141
# 4 -2.9329 -7.4440 -16.5822 31.0118 2.0058 5.4638
# 5 7.4064 -2.7998 16.5575 2.0058 27.4479 6.7918
# 6 7.9466 -1.6662 10.9141 5.4638 6.7918 25.3722
#
#
#
# Elastic Compliance Matrix: (Units=1/GPa)
#
#
# Indices 1 2 3 4 5 6 
#
# 1 0.021188 -0.007761 -0.001816 0.000378 -0.004119 -0.005344
# 2 -0.007761 0.012768 -0.002546 0.000133 0.004123 0.003232
# 3 -0.001816 -0.002546 0.011765 0.006692 -0.006261 -0.004424
# 4 0.000378 0.000133 0.006692 0.037935 -0.004430 -0.009972
# 5 -0.004119 0.004123 -0.006261 -0.004430 0.043669 -0.006482
# 6 -0.005344 0.003232 -0.004424 -0.009972 -0.006482 0.047085
#
#
# Mechanical properties :
#
#
# Convention : Reuss Voigt Hill
#
# Bulk Modulus (GPa) = 46.56542 56.74459 51.65501
# Shear Modulus (GPa) = 24.29381 29.80136 27.04758
#
# Velocity S-wave (km/s) = 3.37450 3.73749 3.56062
# Velocity P-wave (km/s) = 6.08356 6.72481 6.41221
#
# Compressibility (1/GPa) = 0.02147516
#
# Stress axis : x y z
#
# Youngs Moduli (GPa) = 47.19555 78.32352 85.00016
#
# Poissons Ratio (x) = 0.60785 0.15433
# Poissons Ratio (y) = 0.36627 0.21644
# Poissons Ratio (z) = 0.08569 0.19944
#
# Static dielectric constant tensor:
#      x y z
#    x 1.763250 -0.003190 0.044550 
#    y -0.003190 1.735050 0.012190 
#    z 0.044550 0.012190 1.887430 
# 
# From -- ./inp_files/319276.got.cif
#   From: 2010.05.17/outbox.cif.g08.bks.cpg/sg2_160_cif.got.tgz:319276.got - 2010.06.03 11:33:40.
