data_PCOD9001321
_publ_section_title
;
Structure prediction by ZEFSAII (Michael W. Deem and Ramdas Pophale) SiO2 
 PCOD9001321
Probable space group: P -1
;
_chemical_formula_sum "Si O2"
_cell_formula_units_Z 14
_cell_length_a 5.571129
_cell_length_b 15.043912
_cell_length_c 7.070942
_cell_angle_alpha 114.413010
_cell_angle_beta 106.727940
_cell_angle_gamma 76.856559
_cell_volume 512.793312
_symmetry_space_group_name_H-M "P -1"
_symmetry_group_IT_number 2
_symmetry_cell_setting 'triclinic'
loop_
_space_group_symop_operation_xyz
x,y,z
-x,-y,-z
loop_
_atom_site_type_symbol
_atom_site_label
_atom_site_fract_x
_atom_site_fract_y
_atom_site_fract_z
Si Si1 0.573812 0.487252 0.727439
Si Si2 0.846099 0.960992 0.255503
Si Si3 0.440799 0.089435 0.416861
Si Si4 0.594863 0.771933 0.957895
Si Si5 0.014402 0.829194 0.847955
Si Si6 0.925020 0.520331 0.285498
Si Si7 0.563280 0.694357 0.279465
O O1 0.500000 0.500000 0.500000
O O2 0.332860 0.527156 0.833114
O O3 0.604602 0.373085 0.697851
O O4 0.845311 0.520959 0.827081
O O5 0.694608 0.865941 0.167352
O O6 0.616886 0.047544 0.243709
O O7 0.022222 0.915011 0.084378
O O8 0.000000 0.000000 0.500000
O O9 0.150942 0.118987 0.315004
O O10 0.521123 0.193500 0.586068
O O11 0.500000 0.000000 0.500000
O O12 0.816690 0.758212 0.835149
O O13 0.302327 0.786057 0.835586
O O14 0.577999 0.696509 0.058193
O O15 0.838565 0.637099 0.347418
O O16 0.000000 0.500000 0.500000
#
# Coordination Sequence:
#
# PCOD9001321 Si02
#       7
#     2   2   2   2   2   2   2
#     4   8  16  31  54  86 120 144 193 257 315 361
#     4  10  23  39  63  85 124 162 215 250 308 358
#     4  12  23  42  60  93 124 174 210 260 305 375
#     4  10  23  42  61  88 120 164 213 253 316 360
#     4  10  25  43  59  83 127 169 213 261 306 363
#     4   8  16  31  52  85 120 144 190 254 313 361
#     4  10  21  34  64  91 119 157 208 255 317 371
#
# _framework density 27.301447
#
# number of rings (size 3 to 8) (size 9 to 14) (size 15 to 20)
#    1.714    0.571    1.429    1.286    2.000    1.714 
#    2.571    0.000    0.000    0.000    0.000    6.000 
#    0.000    0.000    0.000    0.000    0.000    0.000 
#
# Total GULP energy -78030.965082 kJ/mol
# GULP energy per Si atom -5573.640363 kJ/mol
# Density = 2.723931 g / cm^3
# Si number density = 27.301447 Si / 1000 Ang^3
#
#
#
# Elastic Constant Matrix: (Units=GPa)
#
#
# Indices 1 2 3 4 5 6 
#
# 1 199.1417 36.5430 37.8232 2.2397 28.4188 26.6570
# 2 36.5430 164.8048 53.2615 -26.0552 -6.1276 14.4728
# 3 37.8232 53.2615 127.0491 -33.5332 22.3912 3.9628
# 4 2.2397 -26.0552 -33.5332 57.0811 -6.7460 -9.8823
# 5 28.4188 -6.1276 22.3912 -6.7460 43.0450 -0.0652
# 6 26.6570 14.4728 3.9628 -9.8823 -0.0652 43.5072
#
#
#
# Elastic Compliance Matrix: (Units=1/GPa)
#
#
# Indices 1 2 3 4 5 6 
#
# 1 0.006742 -0.001323 -0.001304 -0.002890 -0.004421 -0.004235
# 2 -0.001323 0.007913 -0.003003 0.002179 0.003902 -0.001047
# 3 -0.001304 -0.003003 0.011714 0.005327 -0.004822 0.001934
# 4 -0.002890 0.002179 0.005327 0.023128 0.003081 0.005819
# 5 -0.004421 0.003902 -0.004822 0.003081 0.029701 0.002594
# 6 -0.004235 -0.001047 0.001934 0.005819 0.002594 0.027077
#
#
# Mechanical properties :
#
#
# Convention : Reuss Voigt Hill
#
# Bulk Modulus (GPa) = 66.18897 82.91677 74.55287
# Shear Modulus (GPa) = 40.79210 52.95120 46.87165
#
# Velocity S-wave (km/s) = 3.86960 4.40876 4.14795
# Velocity P-wave (km/s) = 6.65293 7.50686 7.09276
#
# Compressibility (1/GPa) = 0.01510826
#
# Stress axis : x y z
#
# Youngs Moduli (GPa) = 148.31715 126.36804 85.36941
#
# Poissons Ratio (x) = 0.16717 0.11135
# Poissons Ratio (y) = 0.19620 0.25640
# Poissons Ratio (z) = 0.19346 0.37954
#
# Static dielectric constant tensor:
#      x y z
#    x 2.296740 0.105810 -0.067170 
#    y 0.105810 2.209310 -0.007660 
#    z -0.067170 -0.007660 2.127780 
# 
# From -- ./inp_files/137744.got.cif
#   From: 2010.05.17/outbox.cif.g08.bks.cpg/sg2_69_cif.got.tgz:137744.got - 2010.06.03 11:33:40.
