data_PCOD9001209
_publ_section_title
;
Structure prediction by ZEFSAII (Michael W. Deem and Ramdas Pophale) SiO2 
 PCOD9001209
Probable space group: P -1
;
_chemical_formula_sum "Si O2"
_cell_formula_units_Z 12
_cell_length_a 7.940154
_cell_length_b 8.966575
_cell_length_c 7.116655
_cell_angle_alpha 92.775772
_cell_angle_beta 101.124791
_cell_angle_gamma 121.056905
_cell_volume 419.241069
_symmetry_space_group_name_H-M "P -1"
_symmetry_group_IT_number 2
_symmetry_cell_setting 'triclinic'
loop_
_space_group_symop_operation_xyz
x,y,z
-x,-y,-z
loop_
_atom_site_type_symbol
_atom_site_label
_atom_site_fract_x
_atom_site_fract_y
_atom_site_fract_z
Si Si1 0.981970 0.034128 0.783602
Si Si2 0.802913 0.491194 0.614866
Si Si3 0.610060 0.711218 0.608704
Si Si4 0.626584 0.668976 0.163980
Si Si5 0.614330 0.166142 0.837787
Si Si6 0.202802 0.843576 0.738675
O O1 0.132540 0.240839 0.802939
O O2 0.083835 0.944458 0.684914
O O3 0.745975 0.918669 0.684863
O O4 0.000000 0.000000 0.000000
O O5 0.729944 0.619237 0.702389
O O6 0.629652 0.393201 0.407815
O O7 0.752378 0.327424 0.731772
O O8 0.037028 0.641046 0.629796
O O9 0.609704 0.685255 0.383711
O O10 0.530195 0.780825 0.080160
O O11 0.500000 0.500000 0.000000
O O12 0.429755 0.973883 0.712703
O O13 0.754913 0.163544 0.030379
#
# Coordination Sequence:
#
# PCOD9001209 Si02
#       6
#     2   2   2   2   2   2
#     4  10  21  34  57  84 109 142 182 229 277 321
#     4   9  17  30  56  76 105 139 182 217 272 314
#     4   9  19  34  53  80 113 143 180 224 272 328
#     4  10  21  34  57  84 109 142 182 229 277 321
#     4   9  18  33  53  83 110 145 183 221 269 331
#     4   9  18  33  53  83 110 145 183 221 269 331
#
# _framework density 28.623151
#
# number of rings (size 3 to 8) (size 9 to 14) (size 15 to 20)
#    0.000    2.667    0.000    1.000   11.667    1.333 
#    0.000    2.500    0.000    8.000    8.667    0.000 
#    0.000    0.000    0.000    0.000    0.000    0.000 
#
# Total GULP energy -66944.861567 kJ/mol
# GULP energy per Si atom -5578.738464 kJ/mol
# Density = 2.855800 g / cm^3
# Si number density = 28.623151 Si / 1000 Ang^3
#
#
#
# Elastic Constant Matrix: (Units=GPa)
#
#
# Indices 1 2 3 4 5 6 
#
# 1 131.8016 41.5578 24.0050 22.5772 32.5724 15.4640
# 2 41.5578 212.3931 80.2149 60.8313 18.3217 35.7931
# 3 24.0050 80.2149 143.2495 38.7641 16.0300 11.7878
# 4 22.5772 60.8313 38.7641 86.9311 6.9321 22.6474
# 5 32.5724 18.3217 16.0300 6.9321 37.1686 0.4047
# 6 15.4640 35.7931 11.7878 22.6474 0.4047 39.8730
#
#
#
# Elastic Compliance Matrix: (Units=1/GPa)
#
#
# Indices 1 2 3 4 5 6 
#
# 1 0.010390 -0.000544 0.000008 -0.000858 -0.008648 -0.002968
# 2 -0.000544 0.007474 -0.002887 -0.002606 -0.001431 -0.004150
# 3 0.000008 -0.002887 0.009367 -0.002278 -0.002211 0.001136
# 4 -0.000858 -0.002606 -0.002278 0.016065 0.000086 -0.005780
# 5 -0.008648 -0.001431 -0.002211 0.000086 0.036073 0.004877
# 6 -0.002968 -0.004150 0.001136 -0.005780 0.004877 0.032854
#
#
# Mechanical properties :
#
#
# Convention : Reuss Voigt Hill
#
# Bulk Modulus (GPa) = 49.05822 86.55552 67.80687
# Shear Modulus (GPa) = 39.72560 55.57230 47.64895
#
# Velocity S-wave (km/s) = 3.72947 4.41104 4.08450
# Velocity P-wave (km/s) = 5.97678 7.49989 6.78123
#
# Compressibility (1/GPa) = 0.02038394
#
# Stress axis : x y z
#
# Youngs Moduli (GPa) = 96.24967 133.78868 106.76127
#
# Poissons Ratio (x) = 0.07275 -0.00082
# Poissons Ratio (y) = 0.05233 0.30826
# Poissons Ratio (z) = -0.00074 0.38630
#
# Static dielectric constant tensor:
#      x y z
#    x 2.396530 -0.026660 0.032530 
#    y -0.026660 2.580970 -0.037690 
#    z 0.032530 -0.037690 2.218570 
# 
# From -- ./inp_files/165990.got.cif
#   From: 2010.05.17/outbox.cif.g08.bks.cpg/sg2_83_cif.got.tgz:165990.got - 2010.06.03 11:33:40.
