data_PCOD9001926
_publ_section_title
;
Structure prediction by ZEFSAII (Michael W. Deem and Ramdas Pophale) SiO2 
 PCOD9001926
Probable space group: P -1
;
_chemical_formula_sum "Si O2"
_cell_formula_units_Z 16
_cell_length_a 14.042498
_cell_length_b 11.538491
_cell_length_c 5.201311
_cell_angle_alpha 98.775585
_cell_angle_beta 58.382716
_cell_angle_gamma 80.902777
_cell_volume 680.295746
_symmetry_space_group_name_H-M "P -1"
_symmetry_group_IT_number 2
_symmetry_cell_setting 'triclinic'
loop_
_space_group_symop_operation_xyz
x,y,z
-x,-y,-z
loop_
_atom_site_type_symbol
_atom_site_label
_atom_site_fract_x
_atom_site_fract_y
_atom_site_fract_z
Si Si1 0.618956 0.080716 0.766037
Si Si2 0.963650 0.909885 0.818949
Si Si3 0.691470 0.798481 0.622530
Si Si4 0.813676 0.117061 0.813199
Si Si5 0.101385 0.510188 0.162788
Si Si6 0.341691 0.345541 0.884970
Si Si7 0.942677 0.706032 0.161743
Si Si8 0.578348 0.227608 0.367766
O O1 0.748740 0.093616 0.639196
O O2 0.578667 0.130180 0.559413
O O3 0.626575 0.941704 0.765171
O O4 0.552259 0.171638 0.115477
O O5 0.061204 0.873384 0.445681
O O6 0.843419 0.994201 0.900858
O O7 0.961756 0.788819 0.930198
O O8 0.000000 0.000000 0.000000
O O9 0.683802 0.745506 0.329189
O O10 0.827746 0.785153 0.492944
O O11 0.657040 0.715822 0.860798
O O12 0.714191 0.223318 0.133614
O O13 0.000000 0.500000 0.500000
O O14 0.056699 0.642605 0.142673
O O15 0.232694 0.467413 0.071122
O O16 0.097596 0.409438 0.920928
O O17 0.473786 0.346278 0.628319
#
# Coordination Sequence:
#
# PCOD9001926 Si02
#       8
#     2   2   2   2   2   2   2   2
#     4  10  21  36  54  82 123 158 189 250 293 367
#     4  11  21  38  62  90 120 161 197 248 311 365
#     4  11  21  34  55  86 118 155 204 240 302 363
#     4   9  22  35  55  85 120 152 197 239 296 367
#     4  10  21  40  56  86 120 161 207 251 299 353
#     4  11  23  35  58  82 114 164 199 251 297 357
#     4  10  22  36  61  87 124 156 202 255 301 359
#     4  10  21  37  53  81 120 160 199 243 300 354
#
# _framework density 23.519185
#
# number of rings (size 3 to 8) (size 9 to 14) (size 15 to 20)
#    0.750    1.000    1.250    3.750    3.500    5.000 
#    0.000    0.000    0.000    0.750    0.000    2.625 
#    0.000    0.000    0.000    0.000    0.000    0.000 
#
# Total GULP energy -89271.390556 kJ/mol
# GULP energy per Si atom -5579.461910 kJ/mol
# Density = 2.346565 g / cm^3
# Si number density = 23.519185 Si / 1000 Ang^3
#
#
#
# Elastic Constant Matrix: (Units=GPa)
#
#
# Indices 1 2 3 4 5 6 
#
# 1 53.0058 29.4256 20.0208 8.0713 -4.1310 -30.9765
# 2 29.4256 87.5991 36.5966 -0.8171 -11.5198 -35.3912
# 3 20.0208 36.5966 117.4529 4.0400 -23.7169 -33.3932
# 4 8.0713 -0.8171 4.0400 33.9884 -16.9166 -2.5629
# 5 -4.1310 -11.5198 -23.7169 -16.9166 58.0671 12.8828
# 6 -30.9765 -35.3912 -33.3932 -2.5629 12.8828 41.8001
#
#
#
# Elastic Compliance Matrix: (Units=1/GPa)
#
#
# Indices 1 2 3 4 5 6 
#
# 1 0.037052 -0.002862 0.001467 -0.010152 -0.006404 0.027558
# 2 -0.002862 0.017902 -0.001724 0.002604 0.000838 0.011561
# 3 0.001467 -0.001724 0.011659 0.000225 0.002794 0.008094
# 4 -0.010152 0.002604 0.000225 0.037478 0.012274 -0.006624
# 5 -0.006404 0.000838 0.002794 0.012274 0.023489 -0.008291
# 6 0.027558 0.011561 0.008094 -0.006624 -0.008291 0.062750
#
#
# Mechanical properties :
#
#
# Convention : Reuss Voigt Hill
#
# Bulk Modulus (GPa) = 16.56301 47.79377 32.17839
# Shear Modulus (GPa) = 23.07413 38.23879 30.65646
#
# Velocity S-wave (km/s) = 3.13561 4.03656 3.61427
# Velocity P-wave (km/s) = 4.49077 6.48771 5.57931
#
# Compressibility (1/GPa) = 0.06037550
#
# Stress axis : x y z
#
# Youngs Moduli (GPa) = 26.98893 55.85831 85.77154
#
# Poissons Ratio (x) = 0.15988 -0.12583
# Poissons Ratio (y) = 0.07725 0.14785
# Poissons Ratio (z) = -0.03959 0.09629
#
# Static dielectric constant tensor:
#      x y z
#    x 2.136470 -0.071350 0.042600 
#    y -0.071350 1.854390 0.029100 
#    z 0.042600 0.029100 2.068390 
# 
# From -- ./inp_files/77209.got.cif
#   From: 2010.05.17/outbox.cif.g08.bks.cpg/sg2_39_cif.got.tgz:77209.got - 2010.06.03 11:33:40.
