data_PCOD9001597
_publ_section_title
;
Structure prediction by ZEFSAII (Michael W. Deem and Ramdas Pophale) SiO2 
 PCOD9001597
Probable space group: P -1
;
_chemical_formula_sum "Si O2"
_cell_formula_units_Z 14
_cell_length_a 17.349840
_cell_length_b 11.484506
_cell_length_c 9.184689
_cell_angle_alpha 96.710735
_cell_angle_beta 111.367118
_cell_angle_gamma 28.764762
_cell_volume 731.603008
_symmetry_space_group_name_H-M "P -1"
_symmetry_group_IT_number 2
_symmetry_cell_setting 'triclinic'
loop_
_space_group_symop_operation_xyz
x,y,z
-x,-y,-z
loop_
_atom_site_type_symbol
_atom_site_label
_atom_site_fract_x
_atom_site_fract_y
_atom_site_fract_z
Si Si1 0.929717 0.777377 0.204354
Si Si2 0.719893 0.217655 0.584874
Si Si3 0.994124 0.969485 0.325336
Si Si4 0.874528 0.670671 0.583865
Si Si5 0.186751 0.692830 0.013546
Si Si6 0.029882 0.256921 0.107628
Si Si7 0.368179 0.862528 0.700449
O O1 0.961694 0.874988 0.261251
O O2 0.108977 0.476064 0.349530
O O3 0.741938 0.978801 0.198203
O O4 0.916486 0.772462 0.021854
O O5 0.500000 0.500000 0.500000
O O6 0.805447 0.236469 0.626937
O O7 0.741533 0.109938 0.440311
O O8 0.814805 0.028966 0.756613
O O9 0.000000 0.000000 0.500000
O O10 0.839101 0.240765 0.164684
O O11 0.970595 0.636410 0.762249
O O12 0.000000 0.500000 0.500000
O O13 0.680211 0.974712 0.428956
O O14 0.404184 0.446203 0.171157
O O15 0.152242 0.598057 0.001294
O O16 0.000000 0.000000 0.000000
#
# Coordination Sequence:
#
# PCOD9001597 Si02
#       7
#     2   2   2   2   2   2   2
#     4  11  21  38  63  87 123 156 205 249 293 353
#     4  10  21  35  59  84 121 157 196 238 303 359
#     4  11  22  37  57  89 121 156 191 247 305 348
#     4   9  21  41  64  84 118 163 205 242 297 353
#     4  11  22  39  62  90 124 154 196 250 305 356
#     4  10  21  38  62  85 118 159 199 250 297 349
#     4  10  21  39  61  88 118 162 202 244 295 361
#
# _framework density 19.136061000000002
#
# number of rings (size 3 to 8) (size 9 to 14) (size 15 to 20)
#    0.000    1.714    2.857    2.143    2.000    1.714 
#    0.000    3.571    3.143    0.000    0.000    0.000 
#    0.000    0.000    0.000    0.000    0.000    0.000 
#
# Total GULP energy -77934.994461 kJ/mol
# GULP energy per Si atom -5566.785319 kJ/mol
# Density = 1.909251 g / cm^3
# Si number density = 19.136061 Si / 1000 Ang^3
#
#
#
# Elastic Constant Matrix: (Units=GPa)
#
#
# Indices 1 2 3 4 5 6 
#
# 1 70.1103 24.9528 36.7924 -6.7673 -15.8463 -11.0438
# 2 24.9528 66.1571 46.2360 11.5154 -8.3732 -4.3620
# 3 36.7924 46.2360 126.2659 18.5600 -7.8622 -19.9789
# 4 -6.7673 11.5154 18.5600 39.1270 -12.7659 2.4564
# 5 -15.8463 -8.3732 -7.8622 -12.7659 26.8141 -0.4886
# 6 -11.0438 -4.3620 -19.9789 2.4564 -0.4886 15.8164
#
#
#
# Elastic Compliance Matrix: (Units=1/GPa)
#
#
# Indices 1 2 3 4 5 6 
#
# 1 0.025974 -0.005817 -0.004983 0.014228 0.019003 0.008614
# 2 -0.005817 0.022363 -0.006857 -0.004140 -0.000545 -0.005930
# 3 -0.004983 -0.006857 0.015232 -0.008437 -0.004363 0.015046
# 4 0.014228 -0.004140 -0.008437 0.041655 0.024335 -0.007583
# 5 0.019003 -0.000545 -0.004363 0.024335 0.058763 0.005643
# 6 0.008614 -0.005930 0.015046 -0.007583 0.005643 0.087962
#
#
# Mechanical properties :
#
#
# Convention : Reuss Voigt Hill
#
# Bulk Modulus (GPa) = 35.39474 53.16620 44.28047
# Shear Modulus (GPa) = 16.85298 26.65496 21.75397
#
# Velocity S-wave (km/s) = 2.97087 3.73623 3.37531
# Velocity P-wave (km/s) = 5.50496 6.81587 6.19519
#
# Compressibility (1/GPa) = 0.02825278
#
# Stress axis : x y z
#
# Youngs Moduli (GPa) = 38.49984 44.71681 65.65082
#
# Poissons Ratio (x) = 0.26014 0.32716
# Poissons Ratio (y) = 0.22397 0.45020
# Poissons Ratio (z) = 0.19186 0.30664
#
# Static dielectric constant tensor:
#      x y z
#    x 1.708680 0.026270 0.008680 
#    y 0.026270 1.741470 0.063720 
#    z 0.008680 0.063720 1.746430 
# 
# From -- ./inp_files/165769.got.cif
#   From: 2010.05.17/outbox.cif.g08.bks.cpg/sg2_83_cif.got.tgz:165769.got - 2010.06.03 11:33:40.
