data_PCOD9001951
_publ_section_title
;
Structure prediction by ZEFSAII (Michael W. Deem and Ramdas Pophale) SiO2 
 PCOD9001951
Probable space group: P -1
;
_chemical_formula_sum "Si O2"
_cell_formula_units_Z 16
_cell_length_a 7.680953
_cell_length_b 23.421155
_cell_length_c 8.493169
_cell_angle_alpha 56.655813
_cell_angle_beta 143.538237
_cell_angle_gamma 116.001189
_cell_volume 758.512730
_symmetry_space_group_name_H-M "P -1"
_symmetry_group_IT_number 2
_symmetry_cell_setting 'triclinic'
loop_
_space_group_symop_operation_xyz
x,y,z
-x,-y,-z
loop_
_atom_site_type_symbol
_atom_site_label
_atom_site_fract_x
_atom_site_fract_y
_atom_site_fract_z
Si Si1 0.646187 0.785776 0.775010
Si Si2 0.392180 0.926366 0.895253
Si Si3 0.792455 0.441287 0.505054
Si Si4 0.172249 0.296122 0.493274
Si Si5 0.847870 0.296602 0.596340
Si Si6 0.281517 0.071277 0.548752
Si Si7 0.328346 0.785410 0.882220
Si Si8 0.876981 0.559118 0.932799
O O1 0.474576 0.732019 0.624083
O O2 0.622265 0.861030 0.572802
O O3 0.485976 0.786098 0.826503
O O4 0.971772 0.757771 0.084947
O O5 0.371568 0.859314 0.876858
O O6 0.067026 0.933590 0.722519
O O7 0.428630 0.998437 0.721711
O O8 0.630858 0.920318 0.216104
O O9 0.843489 0.370743 0.556967
O O10 0.449192 0.459945 0.217655
O O11 0.000000 0.500000 0.500000
O O12 0.896928 0.431814 0.774435
O O13 0.156830 0.369525 0.291349
O O14 0.009652 0.300304 0.538527
O O15 0.998344 0.240434 0.347432
O O16 0.498593 0.269584 0.802642
O O17 0.000000 0.500000 0.000000
#
# Coordination Sequence:
#
# PCOD9001951 Si02
#       8
#     2   2   2   2   2   2   2   2
#     4  10  21  37  59  85 115 152 192 239 292 345
#     4  10  21  36  55  81 114 151 191 238 289 342
#     4  12  26  43  65  92 122 159 201 244 297 355
#     4  10  22  40  60  86 119 152 192 242 293 347
#     4  10  22  40  60  86 119 152 192 242 293 347
#     4  10  21  36  55  81 114 151 191 238 289 342
#     4  10  21  37  59  85 115 152 192 239 292 345
#     4  12  26  43  65  92 122 159 201 244 297 355
#
# _framework density 21.093912
#
# number of rings (size 3 to 8) (size 9 to 14) (size 15 to 20)
#    0.000    1.500    0.000    4.500    0.000    9.500 
#    0.000    0.000    0.000    9.000    0.000    0.000 
#    0.000    0.000    0.000    0.000    0.000    0.000 
#
# Total GULP energy -89499.443373 kJ/mol
# GULP energy per Si atom -5593.715211 kJ/mol
# Density = 2.104590 g / cm^3
# Si number density = 21.093912 Si / 1000 Ang^3
#
#
#
# Elastic Constant Matrix: (Units=GPa)
#
#
# Indices 1 2 3 4 5 6 
#
# 1 20.7348 24.4163 10.7295 -1.8780 2.4053 -4.8594
# 2 24.4163 152.7860 30.6830 -12.8823 -19.1798 -17.0248
# 3 10.7295 30.6830 80.4382 4.8121 -9.5412 -6.8849
# 4 -1.8780 -12.8823 4.8121 47.9742 7.5916 -1.0115
# 5 2.4053 -19.1798 -9.5412 7.5916 24.9731 -2.0200
# 6 -4.8594 -17.0248 -6.8849 -1.0115 -2.0200 33.7297
#
#
#
# Elastic Compliance Matrix: (Units=1/GPa)
#
#
# Indices 1 2 3 4 5 6 
#
# 1 0.068154 -0.011387 -0.007051 0.003340 -0.018889 0.001601
# 2 -0.011387 0.010166 -0.001099 0.001138 0.008446 0.003806
# 3 -0.007051 -0.001099 0.014912 -0.003076 0.006611 0.001777
# 4 0.003340 0.001138 -0.003076 0.022790 -0.007497 0.000662
# 5 -0.018889 0.008446 0.006611 -0.007497 0.053629 0.005878
# 6 0.001601 0.003806 0.001777 0.000662 0.005878 0.032534
#
#
# Mechanical properties :
#
#
# Convention : Reuss Voigt Hill
#
# Bulk Modulus (GPa) = 18.46442 42.84629 30.65536
# Shear Modulus (GPa) = 19.28183 33.87742 26.57962
#
# Velocity S-wave (km/s) = 3.02668 4.01188 3.55359
# Velocity P-wave (km/s) = 4.58114 6.46656 5.60372
#
# Compressibility (1/GPa) = 0.05415822
#
# Stress axis : x y z
#
# Youngs Moduli (GPa) = 14.67262 98.36771 67.06034
#
# Poissons Ratio (x) = 1.12009 0.47283
# Poissons Ratio (y) = 0.16707 0.07372
# Poissons Ratio (z) = 0.10345 0.10814
#
# Static dielectric constant tensor:
#      x y z
#    x 1.759200 0.008570 -0.010020 
#    y 0.008570 1.733260 -0.002860 
#    z -0.010020 -0.002860 1.738930 
# 
# From -- ./inp_files/226217.got.cif
#   From: 2010.05.17/outbox.cif.g08.bks.cpg/sg2_114_cif.got.tgz:226217.got - 2010.06.03 11:33:40.
