data_PCOD9001963
_publ_section_title
;
Structure prediction by ZEFSAII (Michael W. Deem and Ramdas Pophale) SiO2 
 PCOD9001963
Probable space group: P -1
;
_chemical_formula_sum "Si O2"
_cell_formula_units_Z 16
_cell_length_a 13.370302
_cell_length_b 11.925550
_cell_length_c 5.349141
_cell_angle_alpha 87.919389
_cell_angle_beta 106.056767
_cell_angle_gamma 87.447546
_cell_volume 817.773216
_symmetry_space_group_name_H-M "P -1"
_symmetry_group_IT_number 2
_symmetry_cell_setting 'triclinic'
loop_
_space_group_symop_operation_xyz
x,y,z
-x,-y,-z
loop_
_atom_site_type_symbol
_atom_site_label
_atom_site_fract_x
_atom_site_fract_y
_atom_site_fract_z
Si Si1 0.320272 0.740887 0.131646
Si Si2 0.156858 0.567206 0.190930
Si Si3 0.315981 0.883107 0.630400
Si Si4 0.759627 0.643443 0.420465
Si Si5 0.528067 0.627003 0.054821
Si Si6 0.448633 0.153732 0.164900
Si Si7 0.952108 0.590193 0.262812
Si Si8 0.679681 0.877244 0.436256
O O1 0.243293 0.641789 0.130688
O O2 0.315895 0.816595 0.373117
O O3 0.437293 0.687902 0.159138
O O4 0.284023 0.809986 0.851891
O O5 0.209358 0.476170 0.423622
O O6 0.056844 0.640853 0.224996
O O7 0.104529 0.485715 0.967747
O O8 0.436843 0.904003 0.776178
O O9 0.262291 0.007469 0.558292
O O10 0.645490 0.624924 0.235378
O O11 0.857148 0.665079 0.305457
O O12 0.744598 0.760222 0.550034
O O13 0.500000 0.500000 0.000000
O O14 0.532049 0.712314 0.815371
O O15 0.396336 0.109897 0.379734
O O16 0.379971 0.139853 0.868521
O O17 0.000000 0.500000 0.500000
#
# Coordination Sequence:
#
# PCOD9001963 Si02
#       8
#     2   2   2   2   2   2   2   2
#     4  11  25  38  61  88 128 165 198 237 299 368
#     4  10  22  38  63  89 117 154 199 248 306 366
#     4  11  22  40  56  84 119 168 208 243 288 347
#     4  10  22  35  60  90 119 154 198 251 303 347
#     4  10  22  36  55  90 133 163 188 239 306 369
#     4  10  21  36  55  84 115 170 210 242 284 341
#     4   9  20  40  62  88 112 152 199 252 304 354
#     4  11  22  37  60  83 120 159 212 253 283 342
#
# _framework density 19.565325999999999
#
# number of rings (size 3 to 8) (size 9 to 14) (size 15 to 20)
#    0.000    1.750    0.000    4.500   12.250    0.500 
#    0.000    0.000    0.000    1.500    0.000    0.000 
#    0.000    0.000    0.000    0.000    0.000    0.000 
#
# Total GULP energy -89139.576189 kJ/mol
# GULP energy per Si atom -5571.223512 kJ/mol
# Density = 1.952079 g / cm^3
# Si number density = 19.565326 Si / 1000 Ang^3
#
#
#
# Elastic Constant Matrix: (Units=GPa)
#
#
# Indices 1 2 3 4 5 6 
#
# 1 106.0707 26.7969 17.9185 -20.8925 -0.2151 -2.8329
# 2 26.7969 114.6949 22.0953 -15.9639 -5.6070 1.8091
# 3 17.9185 22.0953 68.6193 -10.2887 -14.5010 10.8569
# 4 -20.8925 -15.9639 -10.2887 16.3135 7.3995 -13.4659
# 5 -0.2151 -5.6070 -14.5010 7.3995 22.9652 -1.1458
# 6 -2.8329 1.8091 10.8569 -13.4659 -1.1458 3.0956
#
#
#
# Elastic Compliance Matrix: (Units=1/GPa)
#
#
# Indices 1 2 3 4 5 6 
#
# 1 0.008429 -0.002557 0.000617 -0.005550 0.000794 -0.016806
# 2 -0.002557 0.009613 -0.001176 -0.000774 0.001498 -0.006645
# 3 0.000617 -0.001176 0.016896 0.014853 0.006043 0.008842
# 4 -0.005550 -0.000774 0.014853 -0.005767 0.007044 -0.079197
# 5 0.000794 0.001498 0.006043 0.007044 0.046792 0.026621
# 6 -0.016806 -0.006645 0.008842 -0.079197 0.026621 -0.054121
#
#
# Mechanical properties :
#
#
# Convention : Reuss Voigt Hill
#
# Bulk Modulus (GPa) = 34.83557 47.00069 40.91813
# Shear Modulus (GPa) = 132.83191 23.31314 78.07253
#
# Velocity S-wave (km/s) = 8.24857 3.45563 6.32378
# Velocity P-wave (km/s) = 10.41930 6.32428 8.61854
#
# Compressibility (1/GPa) = 0.02870629
#
# Stress axis : x y z
#
# Youngs Moduli (GPa) = 118.63882 104.02577 59.18660
#
# Poissons Ratio (x) = 0.26597 -0.03650
# Poissons Ratio (y) = 0.30333 0.06959
# Poissons Ratio (z) = -0.07317 0.12230
#
# Static dielectric constant tensor:
#      x y z
#    x 1.681920 0.003930 -0.083550 
#    y 0.003930 1.678680 0.057800 
#    z -0.083550 0.057800 1.689230 
# 
# From -- ./inp_files/70680.got.cif
#   From: 2010.05.17/outbox.cif.g08.bks.cpg/sg2_36_cif.got.tgz:70680.got - 2010.06.03 11:33:40.
