data_PCOD9001320
_publ_section_title
;
Structure prediction by ZEFSAII (Michael W. Deem and Ramdas Pophale) SiO2 
 PCOD9001320
Probable space group: P -1
;
_chemical_formula_sum "Si O2"
_cell_formula_units_Z 16
_cell_length_a 7.521675
_cell_length_b 10.855716
_cell_length_c 17.766325
_cell_angle_alpha 54.840765
_cell_angle_beta 85.969768
_cell_angle_gamma 127.353712
_cell_volume 719.831362
_symmetry_space_group_name_H-M "P -1"
_symmetry_group_IT_number 2
_symmetry_cell_setting 'triclinic'
loop_
_space_group_symop_operation_xyz
x,y,z
-x,-y,-z
loop_
_atom_site_type_symbol
_atom_site_label
_atom_site_fract_x
_atom_site_fract_y
_atom_site_fract_z
Si Si1 0.692240 0.607937 0.290736
Si Si2 0.218286 0.930153 0.486025
Si Si3 0.237918 0.287475 0.911579
Si Si4 0.212555 0.741436 0.059114
Si Si5 0.838619 0.897170 0.431118
Si Si6 0.605339 0.388120 0.002986
Si Si7 0.963047 0.908908 0.806082
Si Si8 0.898339 0.428544 0.313490
O O1 0.585856 0.560564 0.224637
O O2 0.450520 0.388471 0.433993
O O3 0.909926 0.609993 0.275733
O O4 0.841806 0.861219 0.224259
O O5 0.064476 0.664916 0.587676
O O6 0.096771 0.951823 0.416845
O O7 0.140480 0.958612 0.557664
O O8 0.567506 0.167871 0.389010
O O9 0.438589 0.356781 0.947526
O O10 0.041463 0.304335 0.927523
O O11 0.000000 0.000000 0.000000
O O12 0.297355 0.709409 0.993023
O O13 0.096927 0.545354 0.193861
O O14 0.500000 0.000000 0.000000
O O15 0.871938 0.977551 0.318086
O O16 0.876958 0.680193 0.908986
O O17 0.357662 0.225088 0.132251
#
# Coordination Sequence:
#
# PCOD9001320 Si02
#       8
#     2   2   2   2   2   2   2   2
#     4  10  21  38  61  90 118 160 199 249 304 365
#     4   9  19  36  58  94 108 152 202 256 296 354
#     4  11  21  40  68  94 120 154 214 252 295 360
#     4  11  21  35  64  96 118 153 203 257 300 349
#     4  10  21  34  64  86 117 155 204 245 307 362
#     4  11  24  41  64  89 124 170 198 251 302 364
#     4  11  23  40  58  85 132 162 197 244 313 362
#     4   9  19  35  59  85 124 143 200 258 301 345
#
# _framework density 22.227428
#
# number of rings (size 3 to 8) (size 9 to 14) (size 15 to 20)
#    0.000    1.750    2.500    1.875    8.750    0.000 
#    0.000    3.125   11.000    0.000    0.000    0.000 
#    0.000    0.000    0.000    0.000    0.000    0.000 
#
# Total GULP energy -89331.387393 kJ/mol
# GULP energy per Si atom -5583.211712 kJ/mol
# Density = 2.217684 g / cm^3
# Si number density = 22.227428 Si / 1000 Ang^3
#
#
#
# Elastic Constant Matrix: (Units=GPa)
#
#
# Indices 1 2 3 4 5 6 
#
# 1 60.9041 10.4718 0.0827 -4.5996 0.0018 -7.5110
# 2 10.4718 62.1370 15.5388 -6.5600 6.6665 -13.7585
# 3 0.0827 15.5388 119.3571 5.8354 -11.6076 0.8913
# 4 -4.5996 -6.5600 5.8354 30.7685 -5.0729 4.7517
# 5 0.0018 6.6665 -11.6076 -5.0729 28.1325 3.4258
# 6 -7.5110 -13.7585 0.8913 4.7517 3.4258 29.1454
#
#
#
# Elastic Compliance Matrix: (Units=1/GPa)
#
#
# Indices 1 2 3 4 5 6 
#
# 1 0.017300 -0.002162 0.000215 0.001694 0.000529 0.003093
# 2 -0.002162 0.020472 -0.003529 0.002035 -0.007124 0.009720
# 3 0.000215 -0.003529 0.009381 -0.001375 0.004730 -0.002229
# 4 0.001694 0.002035 -0.001375 0.035193 0.005904 -0.004992
# 5 0.000529 -0.007124 0.004730 0.005904 0.041370 -0.009196
# 6 0.003093 0.009720 -0.002229 -0.004992 -0.009196 0.041659
#
#
# Mechanical properties :
#
#
# Convention : Reuss Voigt Hill
#
# Bulk Modulus (GPa) = 27.62332 32.73164 30.17748
# Shear Modulus (GPa) = 26.54001 32.02961 29.28481
#
# Velocity S-wave (km/s) = 3.45921 3.80016 3.63369
# Velocity P-wave (km/s) = 5.33005 5.83204 5.58669
#
# Compressibility (1/GPa) = 0.03620130
#
# Stress axis : x y z
#
# Youngs Moduli (GPa) = 57.80316 48.84802 106.59445
#
# Poissons Ratio (x) = 0.10563 -0.02292
# Poissons Ratio (y) = 0.12500 0.37612
# Poissons Ratio (z) = -0.01243 0.17236
#
# Static dielectric constant tensor:
#      x y z
#    x 1.867040 -0.011280 0.003270 
#    y -0.011280 1.825250 -0.009450 
#    z 0.003270 -0.009450 1.837370 
# 
# From -- ./inp_files/559829.got.cif
#   From: 2010.05.17/outbox.cif.g08.bks.cpg/sg2_280_cif.got.tgz:559829.got - 2010.06.03 11:33:40.
