data_PCOD9001844
_publ_section_title
;
Structure prediction by ZEFSAII (Michael W. Deem and Ramdas Pophale) SiO2 
 PCOD9001844
Probable space group: P -1
;
_chemical_formula_sum "Si O2"
_cell_formula_units_Z 15
_cell_length_a 12.883913
_cell_length_b 13.329255
_cell_length_c 16.691281
_cell_angle_alpha 32.268211
_cell_angle_beta 24.448750
_cell_angle_gamma 48.317698
_cell_volume 557.701798
_symmetry_space_group_name_H-M "P -1"
_symmetry_group_IT_number 2
_symmetry_cell_setting 'triclinic'
loop_
_space_group_symop_operation_xyz
x,y,z
-x,-y,-z
loop_
_atom_site_type_symbol
_atom_site_label
_atom_site_fract_x
_atom_site_fract_y
_atom_site_fract_z
Si Si1 0.651232 0.181113 0.977929
Si Si2 0.972264 0.491692 0.777772
Si Si3 0.264118 0.962439 0.258967
Si Si4 0.779231 0.590796 0.506265
Si Si5 0.981054 0.825355 0.811683
Si Si6 0.500000 0.500000 0.500000
Si Si7 0.409046 0.637970 0.605857
Si Si8 0.424798 0.259888 0.245406
O O1 0.674721 0.391907 0.773614
O O2 0.969407 0.225903 0.743323
O O3 0.522891 0.167665 0.164212
O O4 0.429408 0.004766 0.195776
O O5 0.004301 0.727367 0.595702
O O6 0.084546 0.465773 0.628785
O O7 0.193658 0.503185 0.680144
O O8 0.642628 0.313102 0.130498
O O9 0.141717 0.123353 0.216645
O O10 0.500000 0.000000 0.000000
O O11 0.554961 0.644044 0.583273
O O12 0.184329 0.720956 0.721922
O O13 0.117833 0.047463 0.614441
O O14 0.700707 0.611613 0.186002
O O15 0.602077 0.727653 0.332872
O O16 0.500000 0.500000 0.000000
#
# Coordination Sequence:
#
# PCOD9001844 Si02
#       8
#     2   2   2   2   2   1   2   2
#     4  10  21  35  67  97 122 172 223 273 336 391
#     4  10  21  40  65  93 134 169 220 277 327 400
#     4  12  21  39  70  99 127 173 226 283 336 393
#     4   9  18  41  62  94 128 167 214 277 334 390
#     4  11  24  42  65  94 138 179 217 277 341 389
#     4  10  22  44  70  94 132 178 224 274 336 396
#     4  10  22  45  68  96 136 177 224 281 329 407
#     4  11  24  43  62  95 139 175 218 278 337 397
#
# _framework density 26.896094999999999
#
# number of rings (size 3 to 8) (size 9 to 14) (size 15 to 20)
#    0.000    1.600    4.000    0.800    1.867    1.600 
#    2.400    2.667    0.000    0.000    0.000    0.000 
#    0.000    0.000    0.000    0.000    0.000    0.000 
#
# Total GULP energy -83636.341705 kJ/mol
# GULP energy per Si atom -5575.756114 kJ/mol
# Density = 2.683488 g / cm^3
# Si number density = 26.896095 Si / 1000 Ang^3
#
#
#
# Elastic Constant Matrix: (Units=GPa)
#
#
# Indices 1 2 3 4 5 6 
#
# 1 195.5832 56.0822 57.6685 -3.7686 -33.1196 -19.0295
# 2 56.0822 99.5042 29.2779 -5.6352 -14.1217 -26.3983
# 3 57.6685 29.2779 150.7036 -33.5411 -38.6486 -11.5095
# 4 -3.7686 -5.6352 -33.5411 35.9315 3.6161 -1.4447
# 5 -33.1196 -14.1217 -38.6486 3.6161 45.3687 2.6168
# 6 -19.0295 -26.3983 -11.5095 -1.4447 2.6168 63.2518
#
#
#
# Elastic Compliance Matrix: (Units=1/GPa)
#
#
# Indices 1 2 3 4 5 6 
#
# 1 0.006955 -0.003017 -0.001675 -0.001576 0.002815 0.000376
# 2 -0.003017 0.013346 -0.000480 0.001394 0.001169 0.004558
# 3 -0.001675 -0.000480 0.011644 0.009898 0.007681 0.001323
# 4 -0.001576 0.001394 0.009898 0.036760 0.004638 0.002557
# 5 0.002815 0.001169 0.007681 0.004638 0.030543 0.001575
# 6 0.000376 0.004558 0.001323 0.002557 0.001575 0.018059
#
#
# Mechanical properties :
#
#
# Convention : Reuss Voigt Hill
#
# Bulk Modulus (GPa) = 46.29773 81.31647 63.80710
# Shear Modulus (GPa) = 37.07778 49.09455 43.08616
#
# Velocity S-wave (km/s) = 3.71692 4.27704 4.00678
# Velocity P-wave (km/s) = 5.97257 7.39526 6.72166
#
# Compressibility (1/GPa) = 0.02159933
#
# Stress axis : x y z
#
# Youngs Moduli (GPa) = 143.78450 74.93098 85.88194
#
# Poissons Ratio (x) = 0.22606 0.14389
# Poissons Ratio (y) = 0.43379 0.04124
# Poissons Ratio (z) = 0.24089 0.03598
#
# Static dielectric constant tensor:
#      x y z
#    x 2.108230 -0.023870 0.051930 
#    y -0.023870 2.238080 0.022900 
#    z 0.051930 0.022900 2.380870 
# 
# From -- ./inp_files/569927.got.cif
#   From: 2010.05.17/outbox.cif.g08.bks.cpg/sg2_285_cif.got.tgz:569927.got - 2010.06.03 11:33:40.
