data_PCOD9001141
_publ_section_title
;
Structure prediction by ZEFSAII (Michael W. Deem and Ramdas Pophale) SiO2 
 PCOD9001141
Probable space group: P -1
;
_chemical_formula_sum "Si O2"
_cell_formula_units_Z 14
_cell_length_a 13.307530
_cell_length_b 5.384321
_cell_length_c 11.817266
_cell_angle_alpha 91.443398
_cell_angle_beta 60.288898
_cell_angle_gamma 66.554884
_cell_volume 647.892495
_symmetry_space_group_name_H-M "P -1"
_symmetry_group_IT_number 2
_symmetry_cell_setting 'triclinic'
loop_
_space_group_symop_operation_xyz
x,y,z
-x,-y,-z
loop_
_atom_site_type_symbol
_atom_site_label
_atom_site_fract_x
_atom_site_fract_y
_atom_site_fract_z
Si Si1 0.845526 0.117708 0.619277
Si Si2 0.909525 0.443315 0.263900
Si Si3 0.310513 0.650885 0.513427
Si Si4 0.570435 0.110820 0.374019
Si Si5 0.904730 0.562732 0.663127
Si Si6 0.785944 0.695006 0.098153
Si Si7 0.098497 0.919881 0.050047
O O1 0.763546 0.165952 0.551196
O O2 0.816175 0.411459 0.696814
O O3 0.826187 0.900207 0.706621
O O4 0.000000 0.000000 0.500000
O O5 0.776037 0.495814 0.398896
O O6 0.877741 0.575176 0.158337
O O7 0.996515 0.543129 0.288143
O O8 0.997325 0.101837 0.206513
O O9 0.456272 0.410234 0.398543
O O10 0.326923 0.823711 0.611265
O O11 0.500000 0.000000 0.500000
O O12 0.643009 0.879966 0.234752
O O13 0.000000 0.500000 0.500000
O O14 0.815082 0.416972 0.006697
O O15 0.818875 0.913142 0.016028
O O16 0.000000 0.000000 0.000000
#
# Coordination Sequence:
#
# PCOD9001141 Si02
#       7
#     2   2   2   2   2   2   2
#     4  10  21  35  53  82 123 146 188 235 295 350
#     4  11  20  37  62  85 126 153 187 250 298 354
#     4  11  23  37  55  88 124 153 194 239 297 357
#     4  11  24  36  58  84 116 167 195 235 296 348
#     4  10  21  34  53  88 117 151 185 230 308 348
#     4  11  23  39  55  83 122 153 206 228 285 362
#     4  10  22  37  56  85 114 161 192 240 292 345
#
# _framework density 21.608522000000001
#
# number of rings (size 3 to 8) (size 9 to 14) (size 15 to 20)
#    0.000    1.429    4.286    3.429    8.000    3.429 
#    0.000    0.000    0.000    0.000    0.000    6.000 
#    0.000    0.000    0.000    0.000    0.000    0.000 
#
# Total GULP energy -78194.379184 kJ/mol
# GULP energy per Si atom -5585.312799 kJ/mol
# Density = 2.155934 g / cm^3
# Si number density = 21.608522 Si / 1000 Ang^3
#
#
#
# Elastic Constant Matrix: (Units=GPa)
#
#
# Indices 1 2 3 4 5 6 
#
# 1 77.3865 34.6915 12.5816 2.9242 6.0029 -8.5543
# 2 34.6915 128.1662 20.1084 14.1852 -5.5977 23.2354
# 3 12.5816 20.1084 63.3579 23.7410 -10.2208 0.3067
# 4 2.9242 14.1852 23.7410 39.6226 0.9729 2.3772
# 5 6.0029 -5.5977 -10.2208 0.9729 24.2945 -4.2977
# 6 -8.5543 23.2354 0.3067 2.3772 -4.2977 39.4820
#
#
#
# Elastic Compliance Matrix: (Units=1/GPa)
#
#
# Indices 1 2 3 4 5 6 
#
# 1 0.017179 -0.005802 -0.003611 0.002742 -0.006089 0.006337
# 2 -0.005802 0.011281 -0.001033 -0.002602 0.002380 -0.007472
# 3 -0.003611 -0.001033 0.023989 -0.014128 0.011622 0.001755
# 4 0.002742 -0.002602 -0.014128 0.034695 -0.008753 -0.000807
# 5 -0.006089 0.002380 0.011622 -0.008753 0.048994 0.003050
# 6 0.006337 -0.007472 0.001755 -0.000807 0.003050 0.031465
#
#
# Mechanical properties :
#
#
# Convention : Reuss Voigt Hill
#
# Bulk Modulus (GPa) = 31.68766 44.85261 38.27014
# Shear Modulus (GPa) = 25.12374 34.11508 29.61941
#
# Velocity S-wave (km/s) = 3.41351 3.97770 3.70635
# Velocity P-wave (km/s) = 5.49839 6.47287 6.00543
#
# Compressibility (1/GPa) = 0.03155802
#
# Stress axis : x y z
#
# Youngs Moduli (GPa) = 58.20996 88.64085 41.68662
#
# Poissons Ratio (x) = 0.51427 0.15051
# Poissons Ratio (y) = 0.33772 0.04308
# Poissons Ratio (z) = 0.21017 0.09159
#
# Static dielectric constant tensor:
#      x y z
#    x 1.786880 -0.018930 0.014540 
#    y -0.018930 1.736100 -0.000960 
#    z 0.014540 -0.000960 1.823560 
# 
# From -- ./inp_files/410709.got.cif
#   From: 2010.05.17/outbox.cif.g08.bks.cpg/sg2_206_cif.got.tgz:410709.got - 2010.06.03 11:33:40.
