data_PCOD9001965
_publ_section_title
;
Structure prediction by ZEFSAII (Michael W. Deem and Ramdas Pophale) SiO2 
 PCOD9001965
Probable space group: P -1
;
_chemical_formula_sum "Si O2"
_cell_formula_units_Z 16
_cell_length_a 5.305619
_cell_length_b 31.900145
_cell_length_c 5.371277
_cell_angle_alpha 80.547607
_cell_angle_beta 59.522237
_cell_angle_gamma 109.338304
_cell_volume 674.779787
_symmetry_space_group_name_H-M "P -1"
_symmetry_group_IT_number 2
_symmetry_cell_setting 'triclinic'
loop_
_space_group_symop_operation_xyz
x,y,z
-x,-y,-z
loop_
_atom_site_type_symbol
_atom_site_label
_atom_site_fract_x
_atom_site_fract_y
_atom_site_fract_z
Si Si1 0.591408 0.959170 0.902301
Si Si2 0.627265 0.932523 0.413926
Si Si3 0.983667 0.746659 0.048223
Si Si4 0.019211 0.160693 0.167795
Si Si5 0.103385 0.138002 0.647408
Si Si6 0.463347 0.288433 0.193805
Si Si7 0.858951 0.404966 0.923711
Si Si8 0.310545 0.441637 0.161660
O O1 0.712918 0.971123 0.547950
O O2 0.777067 0.951947 0.050974
O O3 0.284907 0.903327 0.074250
O O4 0.500000 0.000000 0.000000
O O5 0.749533 0.895924 0.478011
O O6 0.234151 0.896704 0.609928
O O7 0.785259 0.732581 0.423453
O O8 0.734373 0.723901 0.958679
O O9 0.126143 0.804632 0.882002
O O10 0.260108 0.729500 0.924710
O O11 0.148761 0.174665 0.368945
O O12 0.245122 0.162564 0.820094
O O13 0.089497 0.424321 0.541799
O O14 0.661440 0.346648 0.068200
O O15 0.587415 0.423810 0.043627
O O16 0.080489 0.421755 0.048742
O O17 0.500000 0.500000 0.000000
#
# Coordination Sequence:
#
# PCOD9001965 Si02
#       8
#     2   2   2   2   2   2   2   2
#     4  10  21  36  55  85 115 147 194 241 296 383
#     4  10  21  37  57  81 112 153 191 243 313 372
#     4  12  26  44  69  99 134 174 235 285 338 423
#     4  10  23  37  59  83 115 153 197 265 314 379
#     4  10  21  39  57  84 114 152 198 244 321 378
#     4  12  26  47  68 103 136 186 232 282 354 413
#     4  12  24  44  69  96 144 185 227 295 348 411
#     4  12  24  42  69 105 138 186 239 289 346 411
#
# _framework density 23.711437
#
# number of rings (size 3 to 8) (size 9 to 14) (size 15 to 20)
#    0.000    1.000    0.000    6.750    3.500    1.000 
#    0.000    0.000    0.000    0.000    0.000    0.000 
#    0.000    0.000    0.000    0.000    0.000    0.000 
#
# Total GULP energy -89439.250436 kJ/mol
# GULP energy per Si atom -5589.953152 kJ/mol
# Density = 2.365747 g / cm^3
# Si number density = 23.711437 Si / 1000 Ang^3
#
#
#
# Elastic Constant Matrix: (Units=GPa)
#
#
# Indices 1 2 3 4 5 6 
#
# 1 148.5450 44.2495 68.8549 18.1209 15.0336 -2.4573
# 2 44.2495 134.5824 59.0805 5.6527 -2.4227 -10.5134
# 3 68.8549 59.0805 214.9614 17.3031 27.6251 -8.7605
# 4 18.1209 5.6527 17.3031 45.1979 -2.7974 -4.0268
# 5 15.0336 -2.4227 27.6251 -2.7974 37.7832 12.8420
# 6 -2.4573 -10.5134 -8.7605 -4.0268 12.8420 57.6613
#
#
#
# Elastic Compliance Matrix: (Units=1/GPa)
#
#
# Indices 1 2 3 4 5 6 
#
# 1 0.008721 -0.002059 -0.001661 -0.002754 -0.002639 0.000139
# 2 -0.002059 0.009175 -0.002273 0.000786 0.002907 0.000647
# 3 -0.001661 -0.002273 0.006655 -0.001772 -0.004997 0.001515
# 4 -0.002754 0.000786 -0.001772 0.024107 0.004043 0.000540
# 5 -0.002639 0.002907 -0.004997 0.004043 0.034270 -0.007692
# 6 0.000139 0.000647 0.001515 0.000540 -0.007692 0.019448
#
#
# Mechanical properties :
#
#
# Convention : Reuss Voigt Hill
#
# Bulk Modulus (GPa) = 79.58365 93.60652 86.59509
# Shear Modulus (GPa) = 42.17647 49.85540 46.01594
#
# Velocity S-wave (km/s) = 4.22209 4.59037 4.41008
# Velocity P-wave (km/s) = 7.57656 8.22548 7.90768
#
# Compressibility (1/GPa) = 0.01256539
#
# Stress axis : x y z
#
# Youngs Moduli (GPa) = 114.67228 108.99242 150.25899
#
# Poissons Ratio (x) = 0.22442 0.24957
# Poissons Ratio (y) = 0.23612 0.34148
# Poissons Ratio (z) = 0.19046 0.24770
#
# Static dielectric constant tensor:
#      x y z
#    x 1.990290 0.045380 -0.039030 
#    y 0.045380 1.867560 -0.006050 
#    z -0.039030 -0.006050 2.043280 
# 
# From -- ./inp_files/14475.got.cif
#   From: 2010.05.17/outbox.cif.g08.bks.cpg/sg2_8_cif.got.tgz:14475.got - 2010.06.03 11:33:40.
