data_PCOD9001894
_publ_section_title
;
Structure prediction by ZEFSAII (Michael W. Deem and Ramdas Pophale) SiO2 
 PCOD9001894
Probable space group: P -1
;
_chemical_formula_sum "Si O2"
_cell_formula_units_Z 16
_cell_length_a 24.578505
_cell_length_b 5.481925
_cell_length_c 5.369115
_cell_angle_alpha 59.508229
_cell_angle_beta 81.790386
_cell_angle_gamma 97.824877
_cell_volume 598.245802
_symmetry_space_group_name_H-M "P -1"
_symmetry_group_IT_number 2
_symmetry_cell_setting 'triclinic'
loop_
_space_group_symop_operation_xyz
x,y,z
-x,-y,-z
loop_
_atom_site_type_symbol
_atom_site_label
_atom_site_fract_x
_atom_site_fract_y
_atom_site_fract_z
Si Si1 0.546207 0.434647 0.187224
Si Si2 0.841320 0.293065 0.864887
Si Si3 0.815701 0.682911 0.319034
Si Si4 0.952442 0.238782 0.545439
Si Si5 0.288895 0.491472 0.825422
Si Si6 0.565826 0.862521 0.351412
Si Si7 0.672422 0.799231 0.553839
Si Si8 0.077287 0.361633 0.986537
O O1 0.579168 0.720734 0.160336
O O2 0.502708 0.241543 0.523700
O O3 0.579502 0.210179 0.175167
O O4 0.500000 0.500000 0.000000
O O5 0.797645 0.423104 0.665141
O O6 0.887822 0.184846 0.722429
O O7 0.881508 0.551765 0.854354
O O8 0.814010 0.015540 0.200458
O O9 0.778460 0.600389 0.138676
O O10 0.881513 0.684313 0.238743
O O11 0.945089 0.359287 0.214801
O O12 0.000000 0.500000 0.500000
O O13 0.966324 0.936431 0.764258
O O14 0.310550 0.360024 0.623534
O O15 0.306524 0.845268 0.644548
O O16 0.306379 0.336538 0.141257
O O17 0.604149 0.754984 0.588368
#
# Coordination Sequence:
#
# PCOD9001894 Si02
#       8
#     2   2   2   2   2   2   2   2
#     4  10  21  40  66  96 125 182 226 282 339 406
#     4  10  21  38  61  89 116 163 209 269 330 385
#     4  10  23  39  64  87 123 159 220 278 318 416
#     4  10  21  36  53  87 123 155 205 254 323 404
#     4  12  28  49  73 107 142 193 240 291 373 421
#     4  10  23  39  63  97 133 173 234 280 342 414
#     4  12  28  47  73 107 146 191 232 299 360 430
#     4  10  21  36  59  85 114 165 204 264 326 379
#
# _framework density 26.744862000000001
#
# number of rings (size 3 to 8) (size 9 to 14) (size 15 to 20)
#    0.000    1.500    0.000    3.750    7.000    1.000 
#    0.000    0.000    0.000    0.000    0.000    0.000 
#    0.000    0.000    0.000    0.000    0.000    0.000 
#
# Total GULP energy -89406.201857 kJ/mol
# GULP energy per Si atom -5587.887616 kJ/mol
# Density = 2.668399 g / cm^3
# Si number density = 26.744862 Si / 1000 Ang^3
#
#
#
# Elastic Constant Matrix: (Units=GPa)
#
#
# Indices 1 2 3 4 5 6 
#
# 1 121.1933 37.5325 47.8022 -9.7683 25.0230 -2.6375
# 2 37.5325 179.1826 70.8744 -16.1957 23.6526 -21.4655
# 3 47.8022 70.8744 146.8985 -15.5747 54.3932 -16.0861
# 4 -9.7683 -16.1957 -15.5747 52.0657 1.8669 15.0225
# 5 25.0230 23.6526 54.3932 1.8669 59.0211 0.4245
# 6 -2.6375 -21.4655 -16.0861 15.0225 0.4245 25.8476
#
#
#
# Elastic Compliance Matrix: (Units=1/GPa)
#
#
# Indices 1 2 3 4 5 6 
#
# 1 0.009872 -0.001121 -0.002028 0.001560 -0.001902 -0.002060
# 2 -0.001121 0.007420 -0.002734 0.000032 -0.000011 0.004328
# 3 -0.002028 -0.002734 0.013402 0.001697 -0.010486 0.005049
# 4 0.001560 0.000032 0.001697 0.023727 -0.002899 -0.012501
# 5 -0.001902 -0.000011 -0.010486 -0.002899 0.027548 -0.005497
# 6 -0.002060 0.004328 0.005049 -0.012501 -0.005497 0.052570
#
#
# Mechanical properties :
#
#
# Convention : Reuss Voigt Hill
#
# Bulk Modulus (GPa) = 52.82901 84.41028 68.61965
# Shear Modulus (GPa) = 32.76263 46.79125 39.77694
#
# Velocity S-wave (km/s) = 3.50381 4.18729 3.86070
# Velocity P-wave (km/s) = 6.01371 7.41672 6.75176
#
# Compressibility (1/GPa) = 0.01892899
#
# Stress axis : x y z
#
# Youngs Moduli (GPa) = 101.30002 134.77580 74.61777
#
# Poissons Ratio (x) = 0.15102 0.15130
# Poissons Ratio (y) = 0.11351 0.20399
# Poissons Ratio (z) = 0.20541 0.36845
#
# Static dielectric constant tensor:
#      x y z
#    x 2.115700 0.089280 -0.102720 
#    y 0.089280 1.676940 0.043860 
#    z -0.102720 0.043860 2.218540 
# 
# From -- ./inp_files/14585.got.cif
#   From: 2010.05.17/outbox.cif.g08.bks.cpg/sg2_8_cif.got.tgz:14585.got - 2010.06.03 11:33:40.
