data_PCOD9001886
_publ_section_title
;
Structure prediction by ZEFSAII (Michael W. Deem and Ramdas Pophale) SiO2 
 PCOD9001886
Probable space group: P -1
;
_chemical_formula_sum "Si O2"
_cell_formula_units_Z 12
_cell_length_a 5.238950
_cell_length_b 19.899713
_cell_length_c 5.507096
_cell_angle_alpha 76.498597
_cell_angle_beta 118.635456
_cell_angle_gamma 107.778623
_cell_volume 477.229937
_symmetry_space_group_name_H-M "P -1"
_symmetry_group_IT_number 2
_symmetry_cell_setting 'triclinic'
loop_
_space_group_symop_operation_xyz
x,y,z
-x,-y,-z
loop_
_atom_site_type_symbol
_atom_site_label
_atom_site_fract_x
_atom_site_fract_y
_atom_site_fract_z
Si Si1 0.624577 0.584321 0.470411
Si Si2 0.180356 0.903790 0.950947
Si Si3 0.354792 0.059761 0.507629
Si Si4 0.002657 0.366758 0.900591
Si Si5 0.112585 0.234180 0.840848
Si Si6 0.682654 0.202132 0.282548
O O1 0.500000 0.500000 0.500000
O O2 0.808458 0.601905 0.284565
O O3 0.327533 0.617342 0.290492
O O4 0.824793 0.605925 0.790593
O O5 0.195544 0.850262 0.789352
O O6 0.983016 0.955622 0.724190
O O7 0.510988 0.934389 0.168059
O O8 0.008034 0.851270 0.123699
O O9 0.467206 0.143162 0.407030
O O10 0.500000 0.000000 0.500000
O O11 0.000892 0.283098 0.945209
O O12 0.954900 0.250168 0.510655
O O13 0.462731 0.244634 0.022440
#
# Coordination Sequence:
#
# PCOD9001886 Si02
#       6
#     2   2   2   2   2   2
#     4  12  26  47  71 105 143 185 232 285 342 405
#     4  10  21  36  57  79 115 153 193 260 312 373
#     4  10  21  36  53  83 111 150 200 246 311 388
#     4  12  26  44  74 103 140 188 232 285 342 414
#     4  10  23  37  59  88 119 157 209 260 321 387
#     4  10  21  38  57  82 119 153 200 262 316 379
#
# _framework density 25.145116000000002
#
# number of rings (size 3 to 8) (size 9 to 14) (size 15 to 20)
#    0.000    1.333    0.000    5.000    4.667    1.333 
#    0.000    0.000    0.000    0.000    0.000    0.000 
#    0.000    0.000    0.000    0.000    0.000    0.000 
#
# Total GULP energy -67018.403125 kJ/mol
# GULP energy per Si atom -5584.866927 kJ/mol
# Density = 2.508788 g / cm^3
# Si number density = 25.145116 Si / 1000 Ang^3
#
#
#
# Elastic Constant Matrix: (Units=GPa)
#
#
# Indices 1 2 3 4 5 6 
#
# 1 10.3358 -46.3564 115.5994 -93.8106 -15.6825 -67.1770
# 2 -46.3564 64.7237 74.1815 -53.1435 -14.8809 -35.3342
# 3 115.5994 74.1815 218.3368 54.1133 53.9357 18.0339
# 4 -93.8106 -53.1435 54.1133 2.8476 -35.8991 -50.5694
# 5 -15.6825 -14.8809 53.9357 -35.8991 43.6311 -41.5264
# 6 -67.1770 -35.3342 18.0339 -50.5694 -41.5264 11.3019
#
#
#
# Elastic Compliance Matrix: (Units=1/GPa)
#
#
# Indices 1 2 3 4 5 6 
#
# 1 0.006990 -0.002490 0.000087 -0.003339 -0.006644 -0.005729
# 2 -0.002490 0.009538 -0.000386 -0.002143 -0.002733 -0.003998
# 3 0.000087 -0.000386 0.003730 0.001886 0.000580 0.003929
# 4 -0.003339 -0.002143 0.001886 0.008133 -0.003578 -0.006312
# 5 -0.006644 -0.002733 0.000580 -0.003578 0.018382 0.002568
# 6 -0.005729 -0.003998 0.003929 -0.006312 0.002568 0.016854
#
#
# Mechanical properties :
#
#
# Convention : Reuss Voigt Hill
#
# Bulk Modulus (GPa) = 68.11616 64.47169 66.29392
# Shear Modulus (GPa) = 67.47807 21.55425 44.51616
#
# Velocity S-wave (km/s) = 5.18592 2.93096 4.21214
# Velocity P-wave (km/s) = 7.93765 6.09505 7.07658
#
# Compressibility (1/GPa) = 0.01468080
#
# Stress axis : x y z
#
# Youngs Moduli (GPa) = 143.06231 104.84087 268.11061
#
# Poissons Ratio (x) = 0.26105 -0.02335
# Poissons Ratio (y) = 0.35622 0.10342
# Poissons Ratio (z) = -0.01246 0.04044
#
# Static dielectric constant tensor:
#      x y z
#    x 2.168400 0.207630 -0.068840 
#    y 0.207630 2.065410 -0.057570 
#    z -0.068840 -0.057570 2.057100 
# 
# From -- ./inp_files/5674.got.cif
#   From: 2010.05.17/outbox.cif.g08.bks.cpg/sg2_3_cif.got.tgz:5674.got - 2010.06.03 11:33:40.
