data_PCOD9001835
_publ_section_title
;
Structure prediction by ZEFSAII (Michael W. Deem and Ramdas Pophale) SiO2 
 PCOD9001835
Probable space group: P -1
;
_chemical_formula_sum "Si O2"
_cell_formula_units_Z 14
_cell_length_a 11.377733
_cell_length_b 9.371033
_cell_length_c 7.853861
_cell_angle_alpha 100.965358
_cell_angle_beta 52.023927
_cell_angle_gamma 81.502909
_cell_volume 608.914947
_symmetry_space_group_name_H-M "P -1"
_symmetry_group_IT_number 2
_symmetry_cell_setting 'triclinic'
loop_
_space_group_symop_operation_xyz
x,y,z
-x,-y,-z
loop_
_atom_site_type_symbol
_atom_site_label
_atom_site_fract_x
_atom_site_fract_y
_atom_site_fract_z
Si Si1 0.045204 0.367759 0.290041
Si Si2 0.258483 0.787698 0.915685
Si Si3 0.500910 0.171807 0.005043
Si Si4 0.820434 0.524932 0.102676
Si Si5 0.636286 0.246897 0.565593
Si Si6 0.006899 0.931428 0.665367
Si Si7 0.693292 0.547052 0.556880
O O1 0.000000 0.500000 0.500000
O O2 0.076357 0.197873 0.291151
O O3 0.870521 0.420768 0.370447
O O4 0.178375 0.383314 0.049676
O O5 0.361036 0.805568 0.990614
O O6 0.212056 0.633742 0.939129
O O7 0.350250 0.785266 0.656138
O O8 0.094795 0.930700 0.092503
O O9 0.348764 0.311939 0.243612
O O10 0.530678 0.197171 0.786055
O O11 0.500000 0.000000 0.000000
O O12 0.693195 0.609309 0.379474
O O13 0.000000 0.500000 0.000000
O O14 0.813267 0.150250 0.454883
O O15 0.593948 0.434251 0.656785
O O16 0.000000 0.000000 0.500000
#
# Coordination Sequence:
#
# PCOD9001835 Si02
#       7
#     2   2   2   2   2   2   2
#     4  10  21  35  65  99 124 167 217 269 327 385
#     4  11  24  43  69  97 133 175 217 273 343 384
#     4  12  27  43  64  95 137 178 222 269 325 400
#     4   9  20  41  66  95 127 162 217 274 324 389
#     4  10  23  44  67  93 128 175 224 272 328 391
#     4  11  21  39  67  97 135 168 213 278 337 383
#     4   9  22  43  63  91 131 171 215 268 325 392
#
# _framework density 22.991716
#
# number of rings (size 3 to 8) (size 9 to 14) (size 15 to 20)
#    0.000    1.714    1.429    2.571    4.000    6.286 
#    2.571    0.000    0.000    0.000    0.000    0.000 
#    0.000    0.000    0.000    0.000    0.000    0.000 
#
# Total GULP energy -78156.810889 kJ/mol
# GULP energy per Si atom -5582.629349 kJ/mol
# Density = 2.293939 g / cm^3
# Si number density = 22.991716 Si / 1000 Ang^3
#
#
#
# Elastic Constant Matrix: (Units=GPa)
#
#
# Indices 1 2 3 4 5 6 
#
# 1 82.7425 19.7952 17.8543 -3.7976 -11.0220 -0.8384
# 2 19.7952 160.0755 110.5950 -28.1960 4.7461 6.0425
# 3 17.8543 110.5950 164.4650 -26.6756 14.6157 -11.6744
# 4 -3.7976 -28.1960 -26.6756 49.0879 -13.0266 0.6537
# 5 -11.0220 4.7461 14.6157 -13.0266 28.6163 4.9571
# 6 -0.8384 6.0425 -11.6744 0.6537 4.9571 30.3671
#
#
#
# Elastic Compliance Matrix: (Units=1/GPa)
#
#
# Indices 1 2 3 4 5 6 
#
# 1 0.013568 -0.000348 -0.001679 0.001878 0.007243 -0.001425
# 2 -0.000348 0.013759 -0.009553 0.004299 0.005710 -0.007445
# 3 -0.001679 -0.009553 0.013944 -0.000209 -0.007749 0.008485
# 4 0.001878 0.004299 -0.000209 0.026288 0.012694 -0.003522
# 5 0.007243 0.005710 -0.007749 0.012694 0.048625 -0.012126
# 6 -0.001425 -0.007445 0.008485 -0.003522 -0.012126 0.039690
#
#
# Mechanical properties :
#
#
# Convention : Reuss Voigt Hill
#
# Bulk Modulus (GPa) = 55.21700 78.19690 66.70695
# Shear Modulus (GPa) = 27.01656 38.88347 32.95001
#
# Velocity S-wave (km/s) = 3.43163 4.11688 3.78977
# Velocity P-wave (km/s) = 6.30631 7.52881 6.94451
#
# Compressibility (1/GPa) = 0.01811036
#
# Stress axis : x y z
#
# Youngs Moduli (GPa) = 73.70365 72.67708 71.71631
#
# Poissons Ratio (x) = 0.02528 0.12042
# Poissons Ratio (y) = 0.02563 0.68514
# Poissons Ratio (z) = 0.12376 0.69432
#
# Static dielectric constant tensor:
#      x y z
#    x 2.192100 -0.061730 -0.067790 
#    y -0.061730 1.830320 -0.038760 
#    z -0.067790 -0.038760 1.885810 
# 
# From -- ./inp_files/298641.got.cif
#   From: 2010.05.17/outbox.cif.g08.bks.cpg/sg2_150_cif.got.tgz:298641.got - 2010.06.03 11:33:40.
