data_PCOD9001914
_publ_section_title
;
Structure prediction by ZEFSAII (Michael W. Deem and Ramdas Pophale) SiO2 
 PCOD9001914
Probable space group: P -1
;
_chemical_formula_sum "Si O2"
_cell_formula_units_Z 16
_cell_length_a 12.319503
_cell_length_b 12.899271
_cell_length_c 15.165915
_cell_angle_alpha 89.238377
_cell_angle_beta 18.384727
_cell_angle_gamma 87.234328
_cell_volume 755.186437
_symmetry_space_group_name_H-M "P -1"
_symmetry_group_IT_number 2
_symmetry_cell_setting 'triclinic'
loop_
_space_group_symop_operation_xyz
x,y,z
-x,-y,-z
loop_
_atom_site_type_symbol
_atom_site_label
_atom_site_fract_x
_atom_site_fract_y
_atom_site_fract_z
Si Si1 0.868461 0.284941 0.275731
Si Si2 0.573613 0.877342 0.471279
Si Si3 0.539252 0.026945 0.108622
Si Si4 0.856276 0.123758 0.702215
Si Si5 0.704495 0.694990 0.891131
Si Si6 0.788851 0.071680 0.089899
Si Si7 0.703799 0.573713 0.176031
Si Si8 0.262150 0.564725 0.350719
O O1 0.678710 0.193281 0.381299
O O2 0.577198 0.372404 0.538931
O O3 0.105758 0.248736 0.177233
O O4 0.105381 0.337300 0.022002
O O5 0.522711 0.870843 0.614916
O O6 0.500000 0.000000 0.500000
O O7 0.966286 0.848069 0.138852
O O8 0.700451 0.998689 0.079191
O O9 0.240686 0.119585 0.366934
O O10 0.343909 0.939195 0.215175
O O11 0.811714 0.060529 0.827690
O O12 0.627480 0.233185 0.889265
O O13 0.999761 0.659605 0.593004
O O14 0.545330 0.599796 0.063736
O O15 0.000000 0.000000 0.000000
O O16 0.485363 0.523333 0.266247
O O17 0.000000 0.500000 0.000000
O O18 0.000000 0.500000 0.500000
#
# Coordination Sequence:
#
# PCOD9001914 Si02
#       8
#     2   2   2   2   2   2   2   2
#     4  10  21  38  60  89 122 151 213 246 284 374
#     4  10  21  36  55  87 117 161 197 243 300 334
#     4  10  21  38  54  82 116 156 199 246 284 353
#     4  10  21  37  59  81 113 154 199 242 298 333
#     4  10  21  37  62  88 112 155 198 250 292 358
#     4  10  21  36  54  79 113 158 200 237 299 342
#     4  10  21  40  64  89 122 159 195 251 316 367
#     4  10  21  40  62  91 118 147 200 246 306 376
#
# _framework density 21.186821999999999
#
# number of rings (size 3 to 8) (size 9 to 14) (size 15 to 20)
#    0.000    2.000    0.000    3.000    3.500    0.000 
#    9.000    7.500    0.000    0.000    0.000    0.000 
#    0.000    0.000    0.000    0.000    0.000    0.000 
#
# Total GULP energy -89194.020244 kJ/mol
# GULP energy per Si atom -5574.626265 kJ/mol
# Density = 2.113860 g / cm^3
# Si number density = 21.186822 Si / 1000 Ang^3
#
#
#
# Elastic Constant Matrix: (Units=GPa)
#
#
# Indices 1 2 3 4 5 6 
#
# 1 117.5083 20.9602 18.7706 -9.6363 -3.3314 25.4448
# 2 20.9602 21.7596 -0.2838 -1.9943 -8.2525 9.9445
# 3 18.7706 -0.2838 111.5446 -6.8563 8.9963 7.5311
# 4 -9.6363 -1.9943 -6.8563 35.6242 -2.1829 -17.2682
# 5 -3.3314 -8.2525 8.9963 -2.1829 37.7088 -1.7203
# 6 25.4448 9.9445 7.5311 -17.2682 -1.7203 27.0781
#
#
#
# Elastic Compliance Matrix: (Units=1/GPa)
#
#
# Indices 1 2 3 4 5 6 
#
# 1 0.011962 -0.007778 -0.001460 -0.002063 -0.000843 -0.009346
# 2 -0.007778 0.067570 0.001501 -0.008094 0.012256 -0.022307
# 3 -0.001460 0.001501 0.009529 0.000640 -0.002108 -0.001555
# 4 -0.002063 -0.008094 0.000640 0.042913 0.001847 0.032217
# 5 -0.000843 0.012256 -0.002108 0.001847 0.029734 -0.000056
# 6 -0.009346 -0.022307 -0.001555 0.032217 -0.000056 0.074879
#
#
# Mechanical properties :
#
#
# Convention : Reuss Voigt Hill
#
# Bulk Modulus (GPa) = 13.58980 36.63406 25.11193
# Shear Modulus (GPa) = 18.07724 34.17324 26.12524
#
# Velocity S-wave (km/s) = 2.92418 4.02051 3.51535
# Velocity P-wave (km/s) = 4.22247 6.23548 5.32496
#
# Compressibility (1/GPa) = 0.07358460
#
# Stress axis : x y z
#
# Youngs Moduli (GPa) = 83.60128 14.79944 104.94372
#
# Poissons Ratio (x) = 0.11512 0.15327
# Poissons Ratio (y) = 0.65029 -0.15751
# Poissons Ratio (z) = 0.12210 -0.02221
#
# Static dielectric constant tensor:
#      x y z
#    x 1.814840 0.003390 -0.014750 
#    y 0.003390 1.731220 0.012750 
#    z -0.014750 0.012750 1.835710 
# 
# From -- ./inp_files/127431.got.cif
#   From: 2010.05.17/outbox.cif.g08.bks.cpg/sg2_64_cif.got.tgz:127431.got - 2010.06.03 11:33:40.
