data_PCOD9001853
_publ_section_title
;
Structure prediction by ZEFSAII (Michael W. Deem and Ramdas Pophale) SiO2 
 PCOD9001853
Probable space group: P -1
;
_chemical_formula_sum "Si O2"
_cell_formula_units_Z 16
_cell_length_a 9.623518
_cell_length_b 31.634453
_cell_length_c 12.557313
_cell_angle_alpha 154.750984
_cell_angle_beta 134.181869
_cell_angle_gamma 29.610640
_cell_volume 729.632010
_symmetry_space_group_name_H-M "P -1"
_symmetry_group_IT_number 2
_symmetry_cell_setting 'triclinic'
loop_
_space_group_symop_operation_xyz
x,y,z
-x,-y,-z
loop_
_atom_site_type_symbol
_atom_site_label
_atom_site_fract_x
_atom_site_fract_y
_atom_site_fract_z
Si Si1 0.661119 0.595366 0.011718
Si Si2 0.197545 0.179657 0.709147
Si Si3 0.623574 0.342325 0.658025
Si Si4 0.567503 0.168305 0.733460
Si Si5 0.816697 0.971925 0.210989
Si Si6 0.139112 0.629580 0.629726
Si Si7 0.439531 0.236934 0.466548
Si Si8 0.704075 0.450374 0.236563
O O1 0.553364 0.682128 0.041009
O O2 0.480952 0.726352 0.306335
O O3 0.560586 0.524423 0.816794
O O4 0.000000 0.500000 0.000000
O O5 0.329491 0.222121 0.814476
O O6 0.986816 0.205920 0.569786
O O7 0.500000 0.000000 0.500000
O O8 0.974102 0.296191 0.954389
O O9 0.515959 0.282557 0.517227
O O10 0.486187 0.397427 0.591355
O O11 0.500000 0.500000 0.000000
O O12 0.901605 0.061137 0.714386
O O13 0.613110 0.076988 0.448065
O O14 0.632815 0.062222 0.207461
O O15 0.969821 0.803984 0.929615
O O16 0.500000 0.500000 0.500000
O O17 0.142345 0.583858 0.647040
O O18 0.917222 0.652898 0.488851
#
# Coordination Sequence:
#
# PCOD9001853 Si02
#       8
#     2   2   2   2   2   2   2   2
#     4  11  20  36  65  97 123 167 225 271 322 376
#     4  11  21  35  63 100 130 167 213 270 336 378
#     4  10  21  39  64  92 132 168 217 267 327 387
#     4  10  21  35  70  97 129 164 221 278 327 379
#     4  10  22  43  65  97 133 171 226 274 327 392
#     4  12  26  43  66  95 134 176 222 272 332 396
#     4  11  23  40  64  93 130 179 212 270 335 389
#     4  11  23  42  64  93 138 165 218 276 320 394
#
# _framework density 21.928861999999999
#
# number of rings (size 3 to 8) (size 9 to 14) (size 15 to 20)
#    0.000    1.250    3.750    3.375    3.500    1.500 
#    0.000    1.250    0.000    4.500    0.000    0.000 
#    0.000    0.000    0.000    0.000    0.000    0.000 
#
# Total GULP energy -89196.315930 kJ/mol
# GULP energy per Si atom -5574.769746 kJ/mol
# Density = 2.187895 g / cm^3
# Si number density = 21.928862 Si / 1000 Ang^3
#
#
#
# Elastic Constant Matrix: (Units=GPa)
#
#
# Indices 1 2 3 4 5 6 
#
# 1 137.9962 52.7533 13.6401 14.3019 1.1082 15.1355
# 2 52.7533 172.5662 28.2455 27.7612 4.0004 18.2613
# 3 13.6401 28.2455 44.1588 11.9635 4.3587 12.9108
# 4 14.3019 27.7612 11.9635 38.8484 1.7429 5.1709
# 5 1.1082 4.0004 4.3587 1.7429 25.0414 9.0300
# 6 15.1355 18.2613 12.9108 5.1709 9.0300 44.5347
#
#
#
# Elastic Compliance Matrix: (Units=1/GPa)
#
#
# Indices 1 2 3 4 5 6 
#
# 1 0.008431 -0.002126 -0.000438 -0.001235 0.000809 -0.001887
# 2 -0.002126 0.007623 -0.002908 -0.003619 0.000049 -0.001150
# 3 -0.000438 -0.002908 0.028011 -0.005536 -0.001935 -0.005744
# 4 -0.001235 -0.003619 -0.005536 0.030501 -0.000555 0.000079
# 5 0.000809 0.000049 -0.001935 -0.000555 0.043313 -0.008452
# 6 -0.001887 -0.001150 -0.005744 0.000079 -0.008452 0.026937
#
#
# Mechanical properties :
#
#
# Convention : Reuss Voigt Hill
#
# Bulk Modulus (GPa) = 30.19128 60.44434 45.31781
# Shear Modulus (GPa) = 29.97588 39.02373 34.49980
#
# Velocity S-wave (km/s) = 3.70125 4.22306 3.97074
# Velocity P-wave (km/s) = 5.66246 7.16956 6.46011
#
# Compressibility (1/GPa) = 0.03312214
#
# Stress axis : x y z
#
# Youngs Moduli (GPa) = 118.60832 131.17361 35.70046
#
# Poissons Ratio (x) = 0.27889 0.01563
# Poissons Ratio (y) = 0.25217 0.10381
# Poissons Ratio (z) = 0.05193 0.38141
#
# Static dielectric constant tensor:
#      x y z
#    x 1.961750 -0.034260 0.104220 
#    y -0.034260 1.866560 -0.025460 
#    z 0.104220 -0.025460 2.082410 
# 
# From -- ./inp_files/407530.got.cif
#   From: 2010.05.17/outbox.cif.g08.bks.cpg/sg2_204_cif.got.tgz:407530.got - 2010.06.03 11:33:40.
