data_PCOD9001722
_publ_section_title
;
Structure prediction by ZEFSAII (Michael W. Deem and Ramdas Pophale) SiO2 
 PCOD9001722
Probable space group: P -1
;
_chemical_formula_sum "Si O2"
_cell_formula_units_Z 16
_cell_length_a 15.069601
_cell_length_b 14.726571
_cell_length_c 14.891140
_cell_angle_alpha 46.234280
_cell_angle_beta 20.166468
_cell_angle_gamma 42.894913
_cell_volume 775.350440
_symmetry_space_group_name_H-M "P -1"
_symmetry_group_IT_number 2
_symmetry_cell_setting 'triclinic'
loop_
_space_group_symop_operation_xyz
x,y,z
-x,-y,-z
loop_
_atom_site_type_symbol
_atom_site_label
_atom_site_fract_x
_atom_site_fract_y
_atom_site_fract_z
Si Si1 0.469096 0.655032 0.606557
Si Si2 0.511574 0.202017 0.065711
Si Si3 0.631199 0.942376 0.010707
Si Si4 0.138416 0.543366 0.755343
Si Si5 0.049208 0.689420 0.362906
Si Si6 0.830376 0.586470 0.473320
Si Si7 0.740035 0.215573 0.452951
Si Si8 0.741993 0.572922 0.972343
O O1 0.719239 0.589762 0.345859
O O2 0.583215 0.670451 0.585994
O O3 0.274939 0.772877 0.649959
O O4 0.356507 0.533002 0.809465
O O5 0.217731 0.247139 0.363896
O O6 0.491360 0.305090 0.932403
O O7 0.573650 0.059603 0.059134
O O8 0.748694 0.224908 0.885525
O O9 0.483344 0.841345 0.256373
O O10 0.957272 0.873654 0.744071
O O11 0.500000 0.000000 0.000000
O O12 0.305236 0.636103 0.567152
O O13 0.916515 0.628764 0.835926
O O14 0.000000 0.500000 0.000000
O O15 0.933096 0.671696 0.388011
O O16 0.213644 0.537166 0.345475
O O17 0.072036 0.509480 0.228522
#
# Coordination Sequence:
#
# PCOD9001722 Si02
#       8
#     2   2   2   2   2   2   2   2
#     4  11  22  37  63  94 133 156 203 258 331 378
#     4  11  23  41  63  89 126 166 216 257 311 359
#     4  12  28  46  66  89 125 174 224 258 296 364
#     4  11  22  37  57  94 132 165 201 251 324 388
#     4  10  21  38  65  94 129 165 200 261 314 390
#     4   9  21  35  60 100 130 156 200 253 335 378
#     4  12  26  42  66  91 127 172 213 261 311 373
#     4  10  21  35  61  94 128 161 197 263 317 388
#
# _framework density 20.635829000000001
#
# number of rings (size 3 to 8) (size 9 to 14) (size 15 to 20)
#    0.000    1.250    2.500    3.000    7.000    1.500 
#    0.000    0.000    0.000    4.500    0.000    0.000 
#    0.000    0.000    0.000    0.000    0.000    0.000 
#
# Total GULP energy -89357.892800 kJ/mol
# GULP energy per Si atom -5584.868300 kJ/mol
# Density = 2.058886 g / cm^3
# Si number density = 20.635829 Si / 1000 Ang^3
#
#
#
# Elastic Constant Matrix: (Units=GPa)
#
#
# Indices 1 2 3 4 5 6 
#
# 1 139.6530 26.6374 3.5695 -5.7184 -19.7545 -3.3415
# 2 26.6374 49.5653 4.5278 -7.0852 -8.0982 4.4321
# 3 3.5695 4.5278 57.5950 -16.3353 -9.2804 1.9248
# 4 -5.7184 -7.0852 -16.3353 32.3398 -0.9431 -5.9616
# 5 -19.7545 -8.0982 -9.2804 -0.9431 34.4868 -3.5920
# 6 -3.3415 4.4321 1.9248 -5.9616 -3.5920 34.3426
#
#
#
# Elastic Compliance Matrix: (Units=1/GPa)
#
#
# Indices 1 2 3 4 5 6 
#
# 1 0.008645 -0.003939 0.000897 0.001630 0.004527 0.002056
# 2 -0.003939 0.023616 0.000182 0.004225 0.003206 -0.002372
# 3 0.000897 0.000182 0.021642 0.011623 0.006863 0.001586
# 4 0.001630 0.004225 0.011623 0.039406 0.006810 0.006515
# 5 0.004527 0.003206 0.006863 0.006810 0.034841 0.004468
# 6 0.002056 -0.002372 0.001586 0.006515 0.004468 0.031134
#
#
# Mechanical properties :
#
#
# Convention : Reuss Voigt Hill
#
# Bulk Modulus (GPa) = 20.75444 35.14251 27.94847
# Shear Modulus (GPa) = 27.61421 34.37243 30.99332
#
# Velocity S-wave (km/s) = 3.66207 4.08569 3.87966
# Velocity P-wave (km/s) = 5.28775 6.27088 5.80018
#
# Compressibility (1/GPa) = 0.04818245
#
# Stress axis : x y z
#
# Youngs Moduli (GPa) = 115.66876 42.34434 46.20610
#
# Poissons Ratio (x) = 0.16681 -0.04144
# Poissons Ratio (y) = 0.45566 -0.00841
# Poissons Ratio (z) = -0.10374 -0.00771
#
# Static dielectric constant tensor:
#      x y z
#    x 1.789380 -0.048770 -0.032270 
#    y -0.048770 1.759650 0.027930 
#    z -0.032270 0.027930 1.773340 
# 
# From -- ./inp_files/83131.got.cif
#   From: 2010.05.17/outbox.cif.g08.bks.cpg/sg2_42_cif.got.tgz:83131.got - 2010.06.03 11:33:40.
