data_PCOD9001540
_publ_section_title
;
Structure prediction by ZEFSAII (Michael W. Deem and Ramdas Pophale) SiO2 
 PCOD9001540
Probable space group: P -1
;
_chemical_formula_sum "Si O2"
_cell_formula_units_Z 16
_cell_length_a 9.224785
_cell_length_b 7.467365
_cell_length_c 21.863576
_cell_angle_alpha 97.261436
_cell_angle_beta 55.369155
_cell_angle_gamma 51.466184
_cell_volume 645.114267
_symmetry_space_group_name_H-M "P -1"
_symmetry_group_IT_number 2
_symmetry_cell_setting 'triclinic'
loop_
_space_group_symop_operation_xyz
x,y,z
-x,-y,-z
loop_
_atom_site_type_symbol
_atom_site_label
_atom_site_fract_x
_atom_site_fract_y
_atom_site_fract_z
Si Si1 0.474888 0.617607 0.162626
Si Si2 0.823846 0.650598 0.445854
Si Si3 0.481594 0.456787 0.721733
Si Si4 0.119437 0.291069 0.035069
Si Si5 0.232421 0.267541 0.758186
Si Si6 0.257558 0.826885 0.031657
Si Si7 0.241940 0.185196 0.211051
Si Si8 0.750965 0.501494 0.571842
O O1 0.325958 0.682323 0.265783
O O2 0.230388 0.975765 0.204566
O O3 0.621691 0.336571 0.071974
O O4 0.809222 0.440390 0.092640
O O5 0.785860 0.503931 0.490966
O O6 0.121246 0.355884 0.313468
O O7 0.934080 0.702577 0.472152
O O8 0.500000 0.000000 0.500000
O O9 0.427241 0.289552 0.719458
O O10 0.644421 0.403933 0.621251
O O11 0.122906 0.864404 0.840522
O O12 0.379299 0.101550 0.911771
O O13 0.967403 0.584206 0.123854
O O14 0.297912 0.006776 0.030426
O O15 0.992244 0.514212 0.769157
O O16 0.461523 0.897799 0.675329
O O17 0.500000 0.500000 0.000000
#
# Coordination Sequence:
#
# PCOD9001540 Si02
#       8
#     2   2   2   2   2   2   2   2
#     4  10  21  39  58  98 137 167 222 268 329 415
#     4  11  25  47  69 104 126 175 238 281 332 402
#     4  10  23  42  65  97 133 180 217 271 343 390
#     4  10  22  36  61  99 131 178 211 262 345 402
#     4  10  22  44  66 105 139 165 222 276 330 412
#     4  10  21  35  57  95 140 167 216 272 321 409
#     4  12  23  39  69  93 138 174 222 280 332 400
#     4  11  25  47  77  91 138 180 222 288 338 390
#
# _framework density 24.801807
#
# number of rings (size 3 to 8) (size 9 to 14) (size 15 to 20)
#    0.000    1.750    1.250    5.250    7.000    0.000 
#    2.250    6.250    0.000    0.000    0.000    0.000 
#    0.000    0.000    0.000    0.000    0.000    0.000 
#
# Total GULP energy -89469.900362 kJ/mol
# GULP energy per Si atom -5591.868773 kJ/mol
# Density = 2.474536 g / cm^3
# Si number density = 24.801807 Si / 1000 Ang^3
#
#
#
# Elastic Constant Matrix: (Units=GPa)
#
#
# Indices 1 2 3 4 5 6 
#
# 1 33.6005 9.0002 18.5446 -6.2797 9.2192 -3.3607
# 2 9.0002 124.3870 37.4083 -8.9321 -8.0323 -13.4203
# 3 18.5446 37.4083 160.5902 -25.9619 23.1094 -1.5040
# 4 -6.2797 -8.9321 -25.9619 55.1801 6.1176 3.6517
# 5 9.2192 -8.0323 23.1094 6.1176 34.9541 -4.3693
# 6 -3.3607 -13.4203 -1.5040 3.6517 -4.3693 33.8671
#
#
#
# Elastic Compliance Matrix: (Units=1/GPa)
#
#
# Indices 1 2 3 4 5 6 
#
# 1 0.034523 -0.002270 -0.001512 0.003812 -0.009187 0.000863
# 2 -0.002270 0.009845 -0.002937 -0.000946 0.005513 0.004359
# 3 -0.001512 -0.002937 0.008816 0.004450 -0.007174 -0.002328
# 4 0.003812 -0.000946 0.004450 0.021635 -0.008352 -0.003209
# 5 -0.009187 0.005513 -0.007174 -0.008352 0.039371 0.006934
# 6 0.000863 0.004359 -0.002328 -0.003209 0.006934 0.032477
#
#
# Mechanical properties :
#
#
# Convention : Reuss Voigt Hill
#
# Bulk Modulus (GPa) = 25.15869 49.83156 37.49512
# Shear Modulus (GPa) = 28.84298 41.70856 35.27577
#
# Velocity S-wave (km/s) = 3.41389 4.10527 3.77544
# Velocity P-wave (km/s) = 5.07005 6.52737 5.84431
#
# Compressibility (1/GPa) = 0.03974770
#
# Stress axis : x y z
#
# Youngs Moduli (GPa) = 28.96610 101.57219 113.43491
#
# Poissons Ratio (x) = 0.23055 0.17147
# Poissons Ratio (y) = 0.06575 0.33313
# Poissons Ratio (z) = 0.04379 0.29829
#
# Static dielectric constant tensor:
#      x y z
#    x 1.979190 -0.042940 -0.029050 
#    y -0.042940 2.049570 -0.033010 
#    z -0.029050 -0.033010 2.031820 
# 
# From -- ./inp_files/594113.got.cif
#   From: 2010.05.17/outbox.cif.g08.bks.cpg/sg2_298_cif.got.tgz:594113.got - 2010.06.03 11:33:40.
