data_PCOD9001239
_publ_section_title
;
Structure prediction by ZEFSAII (Michael W. Deem and Ramdas Pophale) SiO2 
 PCOD9001239
Probable space group: P -1
;
_chemical_formula_sum "Si O2"
_cell_formula_units_Z 12
_cell_length_a 9.602725
_cell_length_b 6.998727
_cell_length_c 12.409419
_cell_angle_alpha 143.514187
_cell_angle_beta 63.083499
_cell_angle_gamma 116.685580
_cell_volume 436.454392
_symmetry_space_group_name_H-M "P -1"
_symmetry_group_IT_number 2
_symmetry_cell_setting 'triclinic'
loop_
_space_group_symop_operation_xyz
x,y,z
-x,-y,-z
loop_
_atom_site_type_symbol
_atom_site_label
_atom_site_fract_x
_atom_site_fract_y
_atom_site_fract_z
Si Si1 0.327910 0.312775 0.930834
Si Si2 0.285615 0.935283 0.096424
Si Si3 0.992284 0.075946 0.360794
Si Si4 0.575028 0.231779 0.247909
Si Si5 0.097792 0.566879 0.262637
Si Si6 0.339244 0.043615 0.519685
O O1 0.295012 0.571376 0.968642
O O2 0.164326 0.287068 0.047015
O O3 0.500000 0.500000 0.000000
O O4 0.372966 0.950629 0.749620
O O5 0.115423 0.043102 0.209787
O O6 0.391203 0.169206 0.250787
O O7 0.355136 0.949708 0.959815
O O8 0.007927 0.400690 0.578188
O O9 0.025035 0.787694 0.300541
O O10 0.807834 0.996671 0.363459
O O11 0.640122 0.608947 0.387787
O O12 0.266615 0.768896 0.336024
O O13 0.500000 0.000000 0.500000
#
# Coordination Sequence:
#
# PCOD9001239 Si02
#       6
#     2   2   2   2   2   2
#     4   9  18  35  59  81 110 156 192 228 285 351
#     4   9  19  35  60  84 114 158 192 229 293 351
#     4   8  17  37  60  77 116 160 188 229 297 342
#     4  10  21  35  58  89 117 146 197 245 280 344
#     4   8  17  36  60  76 113 159 187 230 288 347
#     4  10  21  34  58  85 119 149 187 251 291 326
#
# _framework density 27.494281999999998
#
# number of rings (size 3 to 8) (size 9 to 14) (size 15 to 20)
#    1.000    2.000    0.000    0.000    7.000    0.667 
#    0.000   14.167    0.000    0.000    0.000    0.000 
#    0.000    0.000    0.000    0.000    0.000    0.000 
#
# Total GULP energy -66986.512928 kJ/mol
# GULP energy per Si atom -5582.209411 kJ/mol
# Density = 2.743170 g / cm^3
# Si number density = 27.494282 Si / 1000 Ang^3
#
#
#
# Elastic Constant Matrix: (Units=GPa)
#
#
# Indices 1 2 3 4 5 6 
#
# 1 156.5501 34.2254 21.8670 -7.3428 -40.8316 4.0592
# 2 34.2254 80.4259 31.0630 -8.8382 -14.4113 3.8218
# 3 21.8670 31.0630 65.8180 -12.7187 -27.3472 8.0431
# 4 -7.3428 -8.8382 -12.7187 52.8765 -5.5257 -14.8952
# 5 -40.8316 -14.4113 -27.3472 -5.5257 47.5642 -0.9301
# 6 4.0592 3.8218 8.0431 -14.8952 -0.9301 43.5826
#
#
#
# Elastic Compliance Matrix: (Units=1/GPa)
#
#
# Indices 1 2 3 4 5 6 
#
# 1 0.009019 -0.002991 0.002353 0.002176 0.008440 -0.000088
# 2 -0.002991 0.016269 -0.007408 0.000421 -0.001843 0.000324
# 3 0.002353 -0.007408 0.025694 0.006351 0.015251 -0.001815
# 4 0.002176 0.000421 0.006351 0.023632 0.008526 0.006847
# 5 0.008440 -0.001843 0.015251 0.008526 0.037475 0.000275
# 6 -0.000088 0.000324 -0.001815 0.006847 0.000275 0.025606
#
#
# Mechanical properties :
#
#
# Convention : Reuss Voigt Hill
#
# Bulk Modulus (GPa) = 28.66266 53.01163 40.83715
# Shear Modulus (GPa) = 30.22694 43.18057 36.70375
#
# Velocity S-wave (km/s) = 3.31930 3.96729 3.65767
# Velocity P-wave (km/s) = 5.01378 6.34891 5.72043
#
# Compressibility (1/GPa) = 0.03488859
#
# Stress axis : x y z
#
# Youngs Moduli (GPa) = 110.88220 61.46800 38.92026
#
# Poissons Ratio (x) = 0.18386 -0.09159
# Poissons Ratio (y) = 0.33167 0.28833
# Poissons Ratio (z) = -0.26095 0.45537
#
# Static dielectric constant tensor:
#      x y z
#    x 2.134640 -0.008540 0.125540 
#    y -0.008540 2.216070 -0.092880 
#    z 0.125540 -0.092880 2.340310 
# 
# From -- ./inp_files/325973.got.cif
#   From: 2010.05.17/outbox.cif.g08.bks.cpg/sg2_163_cif.got.tgz:325973.got - 2010.06.03 11:33:40.
