data_PCOD9001582
_publ_section_title
;
Structure prediction by ZEFSAII (Michael W. Deem and Ramdas Pophale) SiO2 
 PCOD9001582
Probable space group: P -1
;
_chemical_formula_sum "Si O2"
_cell_formula_units_Z 16
_cell_length_a 11.783442
_cell_length_b 7.643094
_cell_length_c 11.431507
_cell_angle_alpha 71.127841
_cell_angle_beta 86.832392
_cell_angle_gamma 39.496451
_cell_volume 586.425223
_symmetry_space_group_name_H-M "P -1"
_symmetry_group_IT_number 2
_symmetry_cell_setting 'triclinic'
loop_
_space_group_symop_operation_xyz
x,y,z
-x,-y,-z
loop_
_atom_site_type_symbol
_atom_site_label
_atom_site_fract_x
_atom_site_fract_y
_atom_site_fract_z
Si Si1 0.116722 0.096044 0.393712
Si Si2 0.548813 0.109953 0.700005
Si Si3 0.166162 0.255234 0.837088
Si Si4 0.294853 0.499854 0.419393
Si Si5 0.580762 0.694945 0.929513
Si Si6 0.945482 0.756333 0.380701
Si Si7 0.988851 0.203887 0.029926
Si Si8 0.400400 0.620222 0.205212
O O1 0.122776 0.050848 0.542664
O O2 0.928664 0.436395 0.277112
O O3 0.283141 0.015371 0.357379
O O4 0.168483 0.831564 0.399179
O O5 0.388653 0.290430 0.572349
O O6 0.503815 0.320696 0.759032
O O7 0.590117 0.859109 0.807248
O O8 0.187565 0.101665 0.751800
O O9 0.026048 0.334289 0.917472
O O10 0.375932 0.984810 0.937487
O O11 0.437982 0.405745 0.341363
O O12 0.141928 0.568425 0.354588
O O13 0.778210 0.462433 0.038242
O O14 0.581490 0.502380 0.895730
O O15 0.000000 0.500000 0.500000
O O16 0.000000 0.000000 0.000000
O O17 0.175715 0.959354 0.150039
#
# Coordination Sequence:
#
# PCOD9001582 Si02
#       8
#     2   2   2   2   2   2   2   2
#     4  10  21  39  60  94 138 171 212 277 325 396
#     4  11  23  42  69  98 135 174 222 272 336 397
#     4  11  23  42  66 102 130 172 228 267 334 396
#     4  11  23  41  64  95 134 175 221 270 336 397
#     4  11  24  43  72  96 136 175 219 279 328 395
#     4  10  21  35  58  93 129 170 212 263 328 389
#     4  10  22  45  70  95 135 173 224 276 328 391
#     4  10  24  42  69  99 127 180 222 271 336 393
#
# _framework density 27.283953
#
# number of rings (size 3 to 8) (size 9 to 14) (size 15 to 20)
#    0.000    1.500    1.250    4.875    5.250    3.000 
#    0.000    0.625    2.750    0.000    0.000    0.000 
#    0.000    0.000    0.000    0.000    0.000    0.000 
#
# Total GULP energy -89468.961819 kJ/mol
# GULP energy per Si atom -5591.810114 kJ/mol
# Density = 2.722185 g / cm^3
# Si number density = 27.283953 Si / 1000 Ang^3
#
#
#
# Elastic Constant Matrix: (Units=GPa)
#
#
# Indices 1 2 3 4 5 6 
#
# 1 58.5331 33.9281 0.5961 6.7361 9.2642 -15.0460
# 2 33.9281 89.7699 5.7401 -3.4589 8.2155 -10.8671
# 3 0.5961 5.7401 94.3769 -3.7286 19.1807 -8.4710
# 4 6.7361 -3.4589 -3.7286 46.9332 -18.3888 9.1846
# 5 9.2642 8.2155 19.1807 -18.3888 34.0670 -9.2902
# 6 -15.0460 -10.8671 -8.4710 9.1846 -9.2902 43.3996
#
#
#
# Elastic Compliance Matrix: (Units=1/GPa)
#
#
# Indices 1 2 3 4 5 6 
#
# 1 0.026767 -0.008852 0.002648 -0.009577 -0.009755 0.007519
# 2 -0.008852 0.014572 -0.000887 0.002578 0.000793 0.000031
# 3 0.002648 -0.000887 0.012457 -0.003266 -0.008753 0.001945
# 4 -0.009577 0.002578 -0.003266 0.031233 0.019089 -0.005836
# 5 -0.009755 0.000793 -0.008753 0.019089 0.047378 0.001210
# 6 0.007519 0.000031 0.001945 -0.005836 0.001210 0.027530
#
#
# Mechanical properties :
#
#
# Convention : Reuss Voigt Hill
#
# Bulk Modulus (GPa) = 25.24232 35.91207 30.57719
# Shear Modulus (GPa) = 26.69172 38.37432 32.53302
#
# Velocity S-wave (km/s) = 3.13116 3.75437 3.45684
# Velocity P-wave (km/s) = 4.72695 5.65550 5.21194
#
# Compressibility (1/GPa) = 0.03961601
#
# Stress axis : x y z
#
# Youngs Moduli (GPa) = 37.35931 68.62284 80.27337
#
# Poissons Ratio (x) = 0.60745 -0.21259
# Poissons Ratio (y) = 0.33070 0.07119
# Poissons Ratio (z) = -0.09894 0.06086
#
# Static dielectric constant tensor:
#      x y z
#    x 1.253850 -0.682320 -0.690290 
#    y -0.682320 1.736820 -0.479170 
#    z -0.690290 -0.479170 1.554820 
# 
# From -- ./inp_files/277592.got.cif
#   From: 2010.05.17/outbox.cif.g08.bks.cpg/sg2_139_cif.got.tgz:277592.got - 2010.06.03 11:33:40.
