data_PCOD9001042
_publ_section_title
;
Structure prediction by ZEFSAII (Michael W. Deem and Ramdas Pophale) SiO2 
 PCOD9001042
Probable space group: P -1
;
_chemical_formula_sum "Si O2"
_cell_formula_units_Z 16
_cell_length_a 12.734173
_cell_length_b 8.645336
_cell_length_c 13.746521
_cell_angle_alpha 32.352116
_cell_angle_beta 115.627726
_cell_angle_gamma 99.509712
_cell_volume 664.362750
_symmetry_space_group_name_H-M "P -1"
_symmetry_group_IT_number 2
_symmetry_cell_setting 'triclinic'
loop_
_space_group_symop_operation_xyz
x,y,z
-x,-y,-z
loop_
_atom_site_type_symbol
_atom_site_label
_atom_site_fract_x
_atom_site_fract_y
_atom_site_fract_z
Si Si1 0.338040 0.394754 0.748886
Si Si2 0.573984 0.358344 0.790174
Si Si3 0.931312 0.686537 0.655240
Si Si4 0.650774 0.213984 0.273657
Si Si5 0.166023 0.806519 0.059810
Si Si6 0.116713 0.558546 0.967749
Si Si7 0.068318 0.521655 0.611656
Si Si8 0.609838 0.658196 0.841781
O O1 0.423031 0.457032 0.665968
O O2 0.375705 0.498254 0.812962
O O3 0.186379 0.592416 0.585366
O O4 0.372023 0.018570 0.959318
O O5 0.683831 0.360673 0.762395
O O6 0.581259 0.571700 0.769229
O O7 0.912955 0.360701 0.831053
O O8 0.966975 0.734922 0.534878
O O9 0.049916 0.667584 0.778432
O O10 0.791567 0.946237 0.492174
O O11 0.530528 0.118558 0.290203
O O12 0.649872 0.355529 0.091264
O O13 0.146643 0.760176 0.959496
O O14 0.124724 0.174305 0.867438
O O15 0.260090 0.288843 0.145429
O O16 0.000000 0.500000 0.000000
O O17 0.000000 0.500000 0.500000
#
# Coordination Sequence:
#
# PCOD9001042 Si02
#       8
#     2   2   2   2   2   2   2   2
#     4   9  18  33  52  86 107 142 187 238 274 334
#     4   8  16  34  60  76 107 149 187 226 281 337
#     4  11  23  37  59  85 118 154 192 236 287 350
#     4  10  21  33  56  85 116 148 189 237 289 337
#     4   9  20  40  59  82 116 152 186 233 295 343
#     4   9  19  36  59  84 115 154 183 232 291 342
#     4  11  24  36  59  86 111 149 195 243 287 340
#     4   9  18  35  54  84 119 149 187 237 285 335
#
# _framework density 24.083227999999998
#
# number of rings (size 3 to 8) (size 9 to 14) (size 15 to 20)
#    0.000    2.500    0.000    1.125    7.000    1.000 
#    0.000   10.000    0.000    0.750    0.000    0.000 
#    0.000    0.000    0.000    0.000    0.000    0.000 
#
# Total GULP energy -89091.799771 kJ/mol
# GULP energy per Si atom -5568.237486 kJ/mol
# Density = 2.402841 g / cm^3
# Si number density = 24.083228 Si / 1000 Ang^3
#
#
#
# Elastic Constant Matrix: (Units=GPa)
#
#
# Indices 1 2 3 4 5 6 
#
# 1 188.8226 34.3636 27.8139 6.6614 51.8639 15.2985
# 2 34.3636 28.2951 7.3382 3.3593 5.7193 1.9053
# 3 27.8139 7.3382 41.6895 -3.9718 27.1158 7.3645
# 4 6.6614 3.3593 -3.9718 32.5615 1.1434 -0.2068
# 5 51.8639 5.7193 27.1158 1.1434 38.0754 5.5454
# 6 15.2985 1.9053 7.3645 -0.2068 5.5454 35.0101
#
#
#
# Elastic Compliance Matrix: (Units=1/GPa)
#
#
# Indices 1 2 3 4 5 6 
#
# 1 0.011993 -0.012401 0.007240 0.000364 -0.019197 -0.003046
# 2 -0.012401 0.050598 -0.013902 -0.005029 0.018971 0.002555
# 3 0.007240 -0.013902 0.052312 0.007851 -0.044340 -0.006341
# 4 0.000364 -0.005029 0.007851 0.032330 -0.006250 -0.000356
# 5 -0.019197 0.018971 -0.044340 -0.006250 0.080767 0.003853
# 6 -0.003046 0.002555 -0.006341 -0.000356 0.003853 0.030477
#
#
# Mechanical properties :
#
#
# Convention : Reuss Voigt Hill
#
# Bulk Modulus (GPa) = 13.02474 44.20429 28.61451
# Shear Modulus (GPa) = 15.51857 33.74883 24.63370
#
# Velocity S-wave (km/s) = 2.54120 3.74751 3.20168
# Velocity P-wave (km/s) = 3.74570 6.09260 5.05717
#
# Compressibility (1/GPa) = 0.07677699
#
# Stress axis : x y z
#
# Youngs Moduli (GPa) = 83.38153 19.76361 19.11622
#
# Poissons Ratio (x) = 0.24508 -0.13841
# Poissons Ratio (y) = 1.03399 0.26576
# Poissons Ratio (z) = -0.60371 0.27476
#
# Static dielectric constant tensor:
#      x y z
#    x 1.973640 0.016610 0.036170 
#    y 0.016610 1.921870 -0.046980 
#    z 0.036170 -0.046980 1.964220 
# 
# From -- ./inp_files/513970.got.cif
#   From: 2010.05.17/outbox.cif.g08.bks.cpg/sg2_257_cif.got.tgz:513970.got - 2010.06.03 11:33:40.
