data_PCOD9001207
_publ_section_title
;
Structure prediction by ZEFSAII (Michael W. Deem and Ramdas Pophale) SiO2 
 PCOD9001207
Probable space group: P -1
;
_chemical_formula_sum "Si O2"
_cell_formula_units_Z 14
_cell_length_a 7.520421
_cell_length_b 15.265666
_cell_length_c 8.845750
_cell_angle_alpha 142.367995
_cell_angle_beta 104.458698
_cell_angle_gamma 79.802611
_cell_volume 600.062929
_symmetry_space_group_name_H-M "P -1"
_symmetry_group_IT_number 2
_symmetry_cell_setting 'triclinic'
loop_
_space_group_symop_operation_xyz
x,y,z
-x,-y,-z
loop_
_atom_site_type_symbol
_atom_site_label
_atom_site_fract_x
_atom_site_fract_y
_atom_site_fract_z
Si Si1 0.680711 0.449122 0.882405
Si Si2 0.496533 0.887865 0.134820
Si Si3 0.422658 0.639015 0.595226
Si Si4 0.985786 0.338290 0.340768
Si Si5 0.921530 0.031556 0.860843
Si Si6 0.584746 0.188650 0.649222
Si Si7 0.180001 0.269933 0.601683
O O1 0.615728 0.395431 0.632748
O O2 0.734321 0.309466 0.797955
O O3 0.500000 0.500000 0.000000
O O4 0.817899 0.587496 0.099786
O O5 0.295926 0.947133 0.140511
O O6 0.465139 0.807782 0.179196
O O7 0.626675 0.027024 0.387294
O O8 0.544821 0.778675 0.863140
O O9 0.500000 0.500000 0.500000
O O10 0.223883 0.669524 0.660301
O O11 0.000000 0.500000 0.500000
O O12 0.112351 0.319959 0.490742
O O13 0.003559 0.189192 0.044295
O O14 0.931929 0.875545 0.569313
O O15 0.000000 0.000000 0.000000
O O16 0.392170 0.225945 0.580680
#
# Coordination Sequence:
#
# PCOD9001207 Si02
#       7
#     2   2   2   2   2   2   2
#     4  10  21  34  57  83 114 158 194 239 297 339
#     4   9  18  34  57  86 117 150 198 241 291 352
#     4  11  23  37  57  86 119 152 201 247 286 351
#     4  10  22  35  61  89 114 152 194 243 300 350
#     4   8  16  33  55  85 109 151 189 238 287 351
#     4   9  18  33  59  88 115 156 190 241 298 351
#     4   9  18  34  57  81 115 151 193 233 293 354
#
# _framework density 23.330887000000001
#
# number of rings (size 3 to 8) (size 9 to 14) (size 15 to 20)
#    0.000    2.571    0.000    1.714    8.000    1.143 
#    0.000    0.000    3.143    0.857    0.000    0.000 
#    0.000    0.000    0.000    0.000    0.000    0.000 
#
# Total GULP energy -77966.189079 kJ/mol
# GULP energy per Si atom -5569.013506 kJ/mol
# Density = 2.327778 g / cm^3
# Si number density = 23.330887 Si / 1000 Ang^3
#
#
#
# Elastic Constant Matrix: (Units=GPa)
#
#
# Indices 1 2 3 4 5 6 
#
# 1 39.9097 10.1517 12.8585 5.2443 4.5763 -4.8955
# 2 10.1517 124.9327 68.1630 27.7555 13.0536 -2.2837
# 3 12.8585 68.1630 229.9478 38.3990 18.5347 36.3828
# 4 5.2443 27.7555 38.3990 29.8037 1.3186 13.2505
# 5 4.5763 13.0536 18.5347 1.3186 18.4364 4.0169
# 6 -4.8955 -2.2837 36.3828 13.2505 4.0169 30.3778
#
#
#
# Elastic Compliance Matrix: (Units=1/GPa)
#
#
# Indices 1 2 3 4 5 6 
#
# 1 0.028937 0.001923 -0.001834 -0.009628 -0.008704 0.012355
# 2 0.001923 0.013914 -0.003073 -0.014523 -0.008936 0.012553
# 3 -0.001834 -0.003073 0.007238 -0.002597 -0.002783 -0.007694
# 4 -0.009628 -0.014523 -0.002597 0.064709 0.017199 -0.030033
# 5 -0.008704 -0.008936 -0.002783 0.017199 0.067604 -0.015182
# 6 0.012355 0.012553 -0.007694 -0.030033 -0.015182 0.060176
#
#
# Mechanical properties :
#
#
# Convention : Reuss Voigt Hill
#
# Bulk Modulus (GPa) = 22.66407 64.12630 43.39519
# Shear Modulus (GPa) = 18.99326 35.96473 27.47899
#
# Velocity S-wave (km/s) = 2.85631 3.93046 3.43562
# Velocity P-wave (km/s) = 4.54018 6.93854 5.86330
#
# Compressibility (1/GPa) = 0.04412271
#
# Stress axis : x y z
#
# Youngs Moduli (GPa) = 34.55799 71.86960 138.16872
#
# Poissons Ratio (x) = -0.13824 0.25336
# Poissons Ratio (y) = -0.06647 0.42455
# Poissons Ratio (z) = 0.06337 0.22083
#
# Static dielectric constant tensor:
#      x y z
#    x 1.906410 0.066190 0.068370 
#    y 0.066190 1.929520 0.066560 
#    z 0.068370 0.066560 2.118800 
# 
# From -- ./inp_files/204824.got.cif
#   From: 2010.05.17/outbox.cif.g08.bks.cpg/sg2_103_cif.got.tgz:204824.got - 2010.06.03 11:33:40.
