data_PCOD9001024
_publ_section_title
;
Structure prediction by ZEFSAII (Michael W. Deem and Ramdas Pophale) SiO2 
 PCOD9001024
Probable space group: P -1
;
_chemical_formula_sum "Si O2"
_cell_formula_units_Z 16
_cell_length_a 5.262245
_cell_length_b 20.650040
_cell_length_c 9.951095
_cell_angle_alpha 114.944150
_cell_angle_beta 77.120047
_cell_angle_gamma 123.927233
_cell_volume 813.432837
_symmetry_space_group_name_H-M "P -1"
_symmetry_group_IT_number 2
_symmetry_cell_setting 'triclinic'
loop_
_space_group_symop_operation_xyz
x,y,z
-x,-y,-z
loop_
_atom_site_type_symbol
_atom_site_label
_atom_site_fract_x
_atom_site_fract_y
_atom_site_fract_z
Si Si1 0.593239 0.309979 0.329915
Si Si2 0.215657 0.237329 0.557946
Si Si3 0.329459 0.701325 0.980878
Si Si4 0.805579 0.626832 0.172614
Si Si5 0.365703 0.907393 0.379614
Si Si6 0.286874 0.414663 0.370990
Si Si7 0.619548 0.451243 0.096140
Si Si8 0.772834 0.832180 0.232024
O O1 0.395920 0.243370 0.409006
O O2 0.398125 0.351474 0.344685
O O3 0.929341 0.376818 0.405681
O O4 0.664261 0.276949 0.155807
O O5 0.237281 0.325234 0.658511
O O6 0.356051 0.223226 0.664615
O O7 0.865168 0.160467 0.541616
O O8 0.653783 0.767723 0.066893
O O9 0.078790 0.696961 0.108703
O O10 0.258905 0.606586 0.915610
O O11 0.844393 0.551202 0.152004
O O12 0.522031 0.581911 0.063308
O O13 0.627443 0.889431 0.294113
O O14 0.134244 0.886406 0.263684
O O15 0.500000 0.000000 0.500000
O O16 0.500000 0.500000 0.500000
O O17 0.357205 0.433359 0.219772
#
# Coordination Sequence:
#
# PCOD9001024 Si02
#       8
#     2   2   2   2   2   2   2   2
#     4  11  25  37  61  82 122 154 202 246 305 348
#     4  10  23  37  62  93 116 158 198 249 298 354
#     4  11  20  39  56  86 119 160 202 247 297 349
#     4  11  19  36  55  80 117 155 208 251 286 341
#     4  10  21  39  65  94 119 148 191 243 297 362
#     4  11  23  40  53  79 117 166 204 253 298 345
#     4  10  21  33  54  81 111 163 208 250 285 335
#     4  10  21  36  66  88 119 150 198 236 295 354
#
# _framework density 19.669723000000001
#
# number of rings (size 3 to 8) (size 9 to 14) (size 15 to 20)
#    0.750    0.750    3.750    1.875    1.750    1.000 
#    2.250    0.000    0.000    1.500    0.000    0.000 
#    0.000    0.000    0.000    0.000    0.000    0.000 
#
# Total GULP energy -89242.506282 kJ/mol
# GULP energy per Si atom -5577.656643 kJ/mol
# Density = 1.962495 g / cm^3
# Si number density = 19.669723 Si / 1000 Ang^3
#
#
#
# Elastic Constant Matrix: (Units=GPa)
#
#
# Indices 1 2 3 4 5 6 
#
# 1 70.8007 9.4780 11.8279 11.9423 7.4730 -0.2943
# 2 9.4780 51.2570 26.2618 14.6103 2.1856 2.1747
# 3 11.8279 26.2618 59.0759 -5.2999 4.7616 1.5419
# 4 11.9423 14.6103 -5.2999 31.4590 6.0762 -5.7112
# 5 7.4730 2.1856 4.7616 6.0762 25.4729 2.1007
# 6 -0.2943 2.1747 1.5419 -5.7112 2.1007 20.5533
#
#
#
# Elastic Compliance Matrix: (Units=1/GPa)
#
#
# Indices 1 2 3 4 5 6 
#
# 1 0.016119 0.001510 -0.004350 -0.007396 -0.002162 -0.001437
# 2 0.001510 0.035271 -0.018294 -0.022927 0.006190 -0.009341
# 3 -0.004350 -0.018294 0.027885 0.017127 -0.006885 0.005244
# 4 -0.007396 -0.022927 0.017127 0.053858 -0.013344 0.017365
# 5 -0.002162 0.006190 -0.006885 -0.013344 0.044526 -0.008428
# 6 -0.001437 -0.009341 0.005244 0.017365 -0.008428 0.054915
#
#
# Mechanical properties :
#
#
# Convention : Reuss Voigt Hill
#
# Bulk Modulus (GPa) = 27.02232 30.69655 28.85944
# Shear Modulus (GPa) = 17.41086 24.40140 20.90613
#
# Velocity S-wave (km/s) = 2.97839 3.52597 3.26369
# Velocity P-wave (km/s) = 5.05921 5.67596 5.37644
#
# Compressibility (1/GPa) = 0.03700644
#
# Stress axis : x y z
#
# Youngs Moduli (GPa) = 62.04031 28.35207 35.86130
#
# Poissons Ratio (x) = -0.04280 0.15600
# Poissons Ratio (y) = -0.09365 0.65603
# Poissons Ratio (z) = 0.26987 0.51866
#
# Static dielectric constant tensor:
#      x y z
#    x 1.753980 0.002180 -0.004400 
#    y 0.002180 1.695360 -0.021600 
#    z -0.004400 -0.021600 1.704750 
# 
# From -- ./inp_files/142318.got.cif
#   From: 2010.05.17/outbox.cif.g08.bks.cpg/sg2_72_cif.got.tgz:142318.got - 2010.06.03 11:33:40.
