data_PCOD9001369
_publ_section_title
;
Structure prediction by ZEFSAII (Michael W. Deem and Ramdas Pophale) SiO2 
 PCOD9001369
Probable space group: P -1
;
_chemical_formula_sum "Si O2"
_cell_formula_units_Z 10
_cell_length_a 14.935545
_cell_length_b 5.174704
_cell_length_c 8.439254
_cell_angle_alpha 92.010816
_cell_angle_beta 139.280697
_cell_angle_gamma 69.505904
_cell_volume 369.183388
_symmetry_space_group_name_H-M "P -1"
_symmetry_group_IT_number 2
_symmetry_cell_setting 'triclinic'
loop_
_space_group_symop_operation_xyz
x,y,z
-x,-y,-z
loop_
_atom_site_type_symbol
_atom_site_label
_atom_site_fract_x
_atom_site_fract_y
_atom_site_fract_z
Si Si1 0.736380 0.449447 0.914516
Si Si2 0.092201 0.278503 0.307571
Si Si3 0.573981 0.186560 0.178614
Si Si4 0.326335 0.006151 0.348882
Si Si5 0.904216 0.340490 0.432652
O O1 0.747611 0.483608 0.118598
O O2 0.430598 0.824437 0.635896
O O3 0.684566 0.211048 0.796810
O O4 0.647095 0.745020 0.694486
O O5 0.108221 0.559709 0.399815
O O6 0.920644 0.318881 0.104363
O O7 0.234029 0.002723 0.590768
O O8 0.155704 0.194334 0.212760
O O9 0.500000 0.500000 0.000000
O O10 0.500000 0.000000 0.000000
O O11 0.000000 0.500000 0.500000
O O12 0.000000 0.000000 0.500000
#
# Coordination Sequence:
#
# PCOD9001369 Si02
#       5
#     2   2   2   2   2
#     4  11  19  36  55  90 114 136 175 232 290 329
#     4   9  22  35  60  82 114 148 182 221 279 331
#     4  10  22  37  56  79 108 148 194 225 261 320
#     4  10  22  33  60  81 115 139 183 234 276 314
#     4  10  21  35  53  82 119 148 171 214 284 348
#
# _framework density 27.086808999999999
#
# number of rings (size 3 to 8) (size 9 to 14) (size 15 to 20)
#    1.200    0.800    0.000    4.800    0.000    8.000 
#    0.000    0.000    0.000    7.200    0.000    0.000 
#    0.000    0.000    0.000    0.000    0.000    0.000 
#
# Total GULP energy -55993.097954 kJ/mol
# GULP energy per Si atom -5599.309795 kJ/mol
# Density = 2.702516 g / cm^3
# Si number density = 27.086809 Si / 1000 Ang^3
#
#
#
# Elastic Constant Matrix: (Units=GPa)
#
#
# Indices 1 2 3 4 5 6 
#
# 1 94.1372 21.0485 22.2008 -4.5569 -5.8851 5.3481
# 2 21.0485 189.8667 55.3562 9.9474 -7.1871 32.2059
# 3 22.2008 55.3562 168.3981 -6.0440 0.9078 9.9832
# 4 -4.5569 9.9474 -6.0440 74.8593 -3.6273 0.1666
# 5 -5.8851 -7.1871 0.9078 -3.6273 50.6402 2.1307
# 6 5.3481 32.2059 9.9832 0.1666 2.1307 45.1290
#
#
#
# Elastic Compliance Matrix: (Units=1/GPa)
#
#
# Indices 1 2 3 4 5 6 
#
# 1 0.011226 -0.000800 -0.001163 0.000760 0.001290 -0.000566
# 2 -0.000800 0.006736 -0.001894 -0.001038 0.001005 -0.004337
# 3 -0.001163 -0.001894 0.006741 0.000702 -0.000475 0.000018
# 4 0.000760 -0.001038 0.000702 0.013641 0.000888 0.000403
# 5 0.001290 0.001005 -0.000475 0.000888 0.020184 -0.001721
# 6 -0.000566 -0.004337 0.000018 0.000403 -0.001721 0.025396
#
#
# Mechanical properties :
#
#
# Convention : Reuss Voigt Hill
#
# Bulk Modulus (GPa) = 58.86823 72.17921 65.52372
# Shear Modulus (GPa) = 51.38622 57.71216 54.54919
#
# Velocity S-wave (km/s) = 4.36029 4.62089 4.49248
# Velocity P-wave (km/s) = 6.86512 7.42801 7.15211
#
# Compressibility (1/GPa) = 0.01698709
#
# Stress axis : x y z
#
# Youngs Moduli (GPa) = 89.08232 148.45729 148.34575
#
# Poissons Ratio (x) = 0.11883 0.17252
# Poissons Ratio (y) = 0.07130 0.28101
# Poissons Ratio (z) = 0.10360 0.28123
#
# Static dielectric constant tensor:
#      x y z
#    x 2.265130 -0.109970 0.016080 
#    y -0.109970 2.147080 -0.134360 
#    z 0.016080 -0.134360 2.238220 
# 
# From -- ./inp_files/18965.got.cif
#   From: 2010.05.17/outbox.cif.g08.bks.cpg/sg2_10_cif.got.tgz:18965.got - 2010.06.03 11:33:40.
