data_PCOD9001228
_publ_section_title
;
Structure prediction by ZEFSAII (Michael W. Deem and Ramdas Pophale) SiO2 
 PCOD9001228
Probable space group: P -1
;
_chemical_formula_sum "Si O2"
_cell_formula_units_Z 16
_cell_length_a 9.419244
_cell_length_b 11.360628
_cell_length_c 11.320457
_cell_angle_alpha 64.690157
_cell_angle_beta 113.820692
_cell_angle_gamma 61.324789
_cell_volume 615.504060
_symmetry_space_group_name_H-M "P -1"
_symmetry_group_IT_number 2
_symmetry_cell_setting 'triclinic'
loop_
_space_group_symop_operation_xyz
x,y,z
-x,-y,-z
loop_
_atom_site_type_symbol
_atom_site_label
_atom_site_fract_x
_atom_site_fract_y
_atom_site_fract_z
Si Si1 0.564254 0.997952 0.766956
Si Si2 0.228836 0.708769 0.766399
Si Si3 0.142264 0.246446 0.802715
Si Si4 0.767222 0.700292 0.754823
Si Si5 0.741785 0.105270 0.915173
Si Si6 0.648451 0.446264 0.458164
Si Si7 0.266054 0.870168 0.507063
Si Si8 0.991048 0.623527 0.607151
O O1 0.623202 0.110358 0.758299
O O2 0.274037 0.166206 0.638710
O O3 0.631214 0.900967 0.702778
O O4 0.757748 0.803732 0.007013
O O5 0.257391 0.827582 0.658729
O O6 0.148065 0.648603 0.674309
O O7 0.500000 0.500000 0.000000
O O8 0.988308 0.877018 0.701559
O O9 0.865543 0.398261 0.596628
O O10 0.150272 0.396532 0.708765
O O11 0.247531 0.022575 0.932063
O O12 0.542841 0.745912 0.639259
O O13 0.877923 0.660732 0.681487
O O14 0.000000 0.500000 0.000000
O O15 0.757381 0.242716 0.529009
O O16 0.556062 0.344893 0.781387
O O17 0.000000 0.000000 0.000000
O O18 0.500000 0.500000 0.500000
#
# Coordination Sequence:
#
# PCOD9001228 Si02
#       8
#     2   2   2   2   2   2   2   2
#     4  10  22  36  60  98 137 172 224 278 355 409
#     4  11  27  51  70  98 140 195 241 285 352 418
#     4  10  21  37  59  92 132 177 216 269 339 414
#     4  12  22  38  67 107 137 172 231 301 361 411
#     4  10  21  34  57  96 141 180 211 270 348 418
#     4  12  22  40  66 102 145 179 223 286 356 416
#     4  11  28  45  71 105 144 183 236 293 349 424
#     4  12  22  42  69  97 137 181 230 296 351 413
#
# _framework density 25.994952999999999
#
# number of rings (size 3 to 8) (size 9 to 14) (size 15 to 20)
#    0.750    0.250    5.000    1.875    1.750    1.000 
#    0.000    0.625    0.000    2.250    0.000    0.000 
#    0.000    0.000    0.000    0.000    0.000    0.000 
#
# Total GULP energy -89285.432167 kJ/mol
# GULP energy per Si atom -5580.339510 kJ/mol
# Density = 2.593579 g / cm^3
# Si number density = 25.994953 Si / 1000 Ang^3
#
#
#
# Elastic Constant Matrix: (Units=GPa)
#
#
# Indices 1 2 3 4 5 6 
#
# 1 118.1996 27.6895 30.6491 -5.3860 23.4878 15.6857
# 2 27.6895 118.6219 43.3863 -18.9383 26.5972 16.3728
# 3 30.6491 43.3863 159.8435 -16.6935 24.3789 8.3948
# 4 -5.3860 -18.9383 -16.6935 50.5691 9.2711 11.1493
# 5 23.4878 26.5972 24.3789 9.2711 48.2644 1.9096
# 6 15.6857 16.3728 8.3948 11.1493 1.9096 41.7129
#
#
#
# Elastic Compliance Matrix: (Units=1/GPa)
#
#
# Indices 1 2 3 4 5 6 
#
# 1 0.010329 -0.000009 -0.000706 0.002718 -0.005019 -0.004235
# 2 -0.000009 0.012500 -0.001211 0.006997 -0.007371 -0.006192
# 3 -0.000706 -0.001211 0.007606 0.002905 -0.003333 -0.001414
# 4 0.002718 0.006997 0.002905 0.028285 -0.011629 -0.011381
# 5 -0.005019 -0.007371 -0.003333 -0.011629 0.030858 0.007147
# 6 -0.004235 -0.006192 -0.001414 -0.011381 0.007147 0.030996
#
#
# Mechanical properties :
#
#
# Convention : Reuss Voigt Hill
#
# Bulk Modulus (GPa) = 37.61881 66.67943 52.14912
# Shear Modulus (GPa) = 37.51318 47.77194 42.64256
#
# Velocity S-wave (km/s) = 3.80293 4.29154 4.05460
# Velocity P-wave (km/s) = 5.81258 7.08964 6.48263
#
# Compressibility (1/GPa) = 0.02658244
#
# Stress axis : x y z
#
# Youngs Moduli (GPa) = 96.81755 80.00227 131.47169
#
# Poissons Ratio (x) = 0.00071 0.09286
# Poissons Ratio (y) = 0.00086 0.15919
# Poissons Ratio (z) = 0.06838 0.09687
#
# Static dielectric constant tensor:
#      x y z
#    x 2.088690 -0.046940 -0.060070 
#    y -0.046940 2.058150 -0.014700 
#    z -0.060070 -0.014700 2.079120 
# 
# From -- ./inp_files/561151.got.cif
#   From: 2010.05.17/outbox.cif.g08.bks.cpg/sg2_281_cif.got.tgz:561151.got - 2010.06.03 11:33:40.
