data_PCOD9001778
_publ_section_title
;
Structure prediction by ZEFSAII (Michael W. Deem and Ramdas Pophale) SiO2 
 PCOD9001778
Probable space group: P -1
;
_chemical_formula_sum "Si O2"
_cell_formula_units_Z 16
_cell_length_a 13.589324
_cell_length_b 23.661147
_cell_length_c 16.169001
_cell_angle_alpha 161.248250
_cell_angle_beta 27.488328
_cell_angle_gamma 158.190756
_cell_volume 619.537935
_symmetry_space_group_name_H-M "P -1"
_symmetry_group_IT_number 2
_symmetry_cell_setting 'triclinic'
loop_
_space_group_symop_operation_xyz
x,y,z
-x,-y,-z
loop_
_atom_site_type_symbol
_atom_site_label
_atom_site_fract_x
_atom_site_fract_y
_atom_site_fract_z
Si Si1 0.984608 0.885120 0.939117
Si Si2 0.195829 0.844776 0.491914
Si Si3 0.097498 0.112248 0.493595
Si Si4 0.527461 0.806424 0.898736
Si Si5 0.190560 0.385394 0.670871
Si Si6 0.627579 0.668427 0.211719
Si Si7 0.040048 0.599271 0.857681
Si Si8 0.323856 0.627415 0.534524
O O1 0.876867 0.987333 0.217854
O O2 0.791308 0.625203 0.715765
O O3 0.257537 0.970504 0.903011
O O4 0.000000 0.000000 0.000000
O O5 0.088847 0.723420 0.316628
O O6 0.043943 0.639892 0.385196
O O7 0.500000 0.000000 0.500000
O O8 0.135666 0.324818 0.723282
O O9 0.397557 0.192793 0.379614
O O10 0.000000 0.000000 0.500000
O O11 0.857559 0.909563 0.339939
O O12 0.386272 0.630969 0.835040
O O13 0.672271 0.725910 0.623548
O O14 0.293875 0.770254 0.964140
O O15 0.784941 0.599676 0.054461
O O16 0.500000 0.500000 0.000000
O O17 0.412428 0.664076 0.423199
O O18 0.121819 0.645847 0.763945
#
# Coordination Sequence:
#
# PCOD9001778 Si02
#       8
#     2   2   2   2   2   2   2   2
#     4  11  20  36  65 103 133 169 212 271 342 401
#     4  10  21  35  63 100 133 169 214 278 335 408
#     4  10  22  42  64  93 131 182 221 276 332 394
#     4   9  19  35  67  99 126 172 220 272 340 410
#     4   9  17  35  64  93 126 174 217 263 345 392
#     4  11  28  45  68  96 130 183 233 282 337 393
#     4  11  22  44  68  97 133 176 229 275 342 408
#     4  11  23  43  67  96 136 172 224 280 332 402
#
# _framework density 25.825699
#
# number of rings (size 3 to 8) (size 9 to 14) (size 15 to 20)
#    0.000    1.750    2.500    2.250    5.250    1.000 
#    0.000    6.250    0.000    9.000    0.000    0.000 
#    0.000    0.000    0.000    0.000    0.000    0.000 
#
# Total GULP energy -89281.646111 kJ/mol
# GULP energy per Si atom -5580.102882 kJ/mol
# Density = 2.576692 g / cm^3
# Si number density = 25.825699 Si / 1000 Ang^3
#
#
#
# Elastic Constant Matrix: (Units=GPa)
#
#
# Indices 1 2 3 4 5 6 
#
# 1 123.3492 68.5851 35.6512 -5.1453 6.9409 -0.1243
# 2 68.5851 126.9719 41.7968 21.0449 14.5976 -0.1670
# 3 35.6512 41.7968 70.5265 10.5636 -7.2681 -12.4056
# 4 -5.1453 21.0449 10.5636 41.6395 -1.9607 5.1387
# 5 6.9409 14.5976 -7.2681 -1.9607 37.0451 -0.6568
# 6 -0.1243 -0.1670 -12.4056 5.1387 -0.6568 36.3069
#
#
#
# Elastic Compliance Matrix: (Units=1/GPa)
#
#
# Indices 1 2 3 4 5 6 
#
# 1 0.013441 -0.006968 -0.004068 0.006486 -0.000268 -0.002299
# 2 -0.006968 0.015292 -0.005194 -0.007465 -0.006148 -0.000783
# 3 -0.004068 -0.005194 0.022116 -0.004172 0.007073 0.008237
# 4 0.006486 -0.007465 -0.004172 0.030467 0.002419 -0.005706
# 5 -0.000268 -0.006148 0.007073 0.002419 0.031029 0.002607
# 6 -0.002299 -0.000783 0.008237 -0.005706 0.002607 0.031201
#
#
# Mechanical properties :
#
#
# Convention : Reuss Voigt Hill
#
# Bulk Modulus (GPa) = 54.37869 68.10154 61.24011
# Shear Modulus (GPa) = 27.45209 34.65259 31.05234
#
# Velocity S-wave (km/s) = 3.26387 3.66702 3.47130
# Velocity P-wave (km/s) = 5.94185 6.66005 6.31117
#
# Compressibility (1/GPa) = 0.01838956
#
# Stress axis : x y z
#
# Youngs Moduli (GPa) = 74.40157 65.39169 45.21561
#
# Poissons Ratio (x) = 0.45565 0.18394
# Poissons Ratio (y) = 0.51844 0.23484
# Poissons Ratio (z) = 0.30267 0.33962
#
# Static dielectric constant tensor:
#      x y z
#    x 2.208480 -0.024910 0.143210 
#    y -0.024910 2.216560 -0.126630 
#    z 0.143210 -0.126630 2.209830 
# 
# From -- ./inp_files/574540.got.cif
#   From: 2010.05.17/outbox.cif.g08.bks.cpg/sg2_288_cif.got.tgz:574540.got - 2010.06.03 11:33:40.
