data_PCOD9001474
_publ_section_title
;
Structure prediction by ZEFSAII (Michael W. Deem and Ramdas Pophale) SiO2 
 PCOD9001474
Probable space group: P -1
;
_chemical_formula_sum "Si O2"
_cell_formula_units_Z 12
_cell_length_a 7.588718
_cell_length_b 14.071071
_cell_length_c 11.660264
_cell_angle_alpha 35.063545
_cell_angle_beta 140.611182
_cell_angle_gamma 136.757879
_cell_volume 437.932208
_symmetry_space_group_name_H-M "P -1"
_symmetry_group_IT_number 2
_symmetry_cell_setting 'triclinic'
loop_
_space_group_symop_operation_xyz
x,y,z
-x,-y,-z
loop_
_atom_site_type_symbol
_atom_site_label
_atom_site_fract_x
_atom_site_fract_y
_atom_site_fract_z
Si Si1 0.598645 0.476231 0.399842
Si Si2 0.059603 0.158959 0.738304
Si Si3 0.287879 0.720552 0.727026
Si Si4 0.728693 0.785327 0.684852
Si Si5 0.856795 0.371315 0.842723
Si Si6 0.506479 0.947140 0.811584
O O1 0.851861 0.652115 0.344083
O O2 0.456420 0.383667 0.306707
O O3 0.717498 0.348566 0.668947
O O4 0.351403 0.539279 0.280122
O O5 0.958369 0.191248 0.528738
O O6 0.338700 0.087040 0.960630
O O7 0.789396 0.041968 0.784016
O O8 0.557558 0.794759 0.706796
O O9 0.370265 0.771718 0.847173
O O10 0.154768 0.520770 0.836010
O O11 0.698494 0.931460 0.436875
O O12 0.042998 0.774261 0.893741
#
# Coordination Sequence:
#
# PCOD9001474 Si02
#       6
#     2   2   2   2   2   2
#     4  10  22  39  57  81 111 148 184 222 276 326
#     4   9  19  36  56  77 112 147 178 222 271 326
#     4  10  21  37  58  83 111 145 182 226 275 321
#     4  11  21  34  59  87 108 141 187 230 270 320
#     4  10  22  39  58  80 113 146 181 229 274 324
#     4  10  21  35  56  85 113 143 180 228 277 319
#
# _framework density 27.401501
#
# number of rings (size 3 to 8) (size 9 to 14) (size 15 to 20)
#    0.000    2.000    0.000    4.000    0.000   11.333 
#    0.000    3.333    0.000    9.000    0.000    0.000 
#    0.000    0.000    0.000    0.000    0.000    0.000 
#
# Total GULP energy -67209.824799 kJ/mol
# GULP energy per Si atom -5600.818733 kJ/mol
# Density = 2.733913 g / cm^3
# Si number density = 27.401501 Si / 1000 Ang^3
#
#
#
# Elastic Constant Matrix: (Units=GPa)
#
#
# Indices 1 2 3 4 5 6 
#
# 1 69.4946 15.5935 25.4161 19.1839 3.3375 -8.2745
# 2 15.5935 78.5884 26.5000 23.6176 6.9562 -8.6783
# 3 25.4161 26.5000 241.2589 49.0845 -19.0685 -9.0463
# 4 19.1839 23.6176 49.0845 51.5744 2.5071 -7.0024
# 5 3.3375 6.9562 -19.0685 2.5071 34.4586 10.1244
# 6 -8.2745 -8.6783 -9.0463 -7.0024 10.1244 31.9256
#
#
#
# Elastic Compliance Matrix: (Units=1/GPa)
#
#
# Indices 1 2 3 4 5 6 
#
# 1 0.016689 -0.001105 -0.000836 -0.004279 -0.002627 0.003683
# 2 -0.001105 0.015582 -0.000695 -0.005329 -0.004184 0.003911
# 3 -0.000836 -0.000695 0.005618 -0.005079 0.004056 -0.001214
# 4 -0.004279 -0.005329 -0.005079 0.028993 -0.004548 0.003805
# 5 -0.002627 -0.004184 0.004056 -0.004548 0.036594 -0.013271
# 6 0.003683 0.003911 -0.001214 0.003805 -0.013271 0.038039
#
#
# Mechanical properties :
#
#
# Convention : Reuss Voigt Hill
#
# Bulk Modulus (GPa) = 30.65846 58.26235 44.46041
# Shear Modulus (GPa) = 31.71407 45.04721 38.38064
#
# Velocity S-wave (km/s) = 3.40573 4.05899 3.74662
# Velocity P-wave (km/s) = 5.16509 6.57843 5.91413
#
# Compressibility (1/GPa) = 0.03261743
#
# Stress axis : x y z
#
# Youngs Moduli (GPa) = 59.91998 64.17802 178.00490
#
# Poissons Ratio (x) = 0.07089 0.14878
# Poissons Ratio (y) = 0.06618 0.12374
# Poissons Ratio (z) = 0.05008 0.04461
#
# Static dielectric constant tensor:
#      x y z
#    x 2.084320 0.083870 0.000210 
#    y 0.083870 2.104050 -0.061410 
#    z 0.000210 -0.061410 2.234010 
# 
# From -- ./inp_files/146975.got.cif
#   From: 2010.05.17/outbox.cif.g08.bks.cpg/sg2_74_cif.got.tgz:146975.got - 2010.06.03 11:33:40.
