data_PCOD9001773
_publ_section_title
;
Structure prediction by ZEFSAII (Michael W. Deem and Ramdas Pophale) SiO2 
 PCOD9001773
Probable space group: P -1
;
_chemical_formula_sum "Si O2"
_cell_formula_units_Z 16
_cell_length_a 10.962107
_cell_length_b 14.685128
_cell_length_c 9.144967
_cell_angle_alpha 53.318310
_cell_angle_beta 51.934417
_cell_angle_gamma 41.465676
_cell_volume 741.165437
_symmetry_space_group_name_H-M "P -1"
_symmetry_group_IT_number 2
_symmetry_cell_setting 'triclinic'
loop_
_space_group_symop_operation_xyz
x,y,z
-x,-y,-z
loop_
_atom_site_type_symbol
_atom_site_label
_atom_site_fract_x
_atom_site_fract_y
_atom_site_fract_z
Si Si1 0.307624 0.907234 0.592739
Si Si2 0.807309 0.267434 0.273110
Si Si3 0.143164 0.063442 0.015978
Si Si4 0.854236 0.178566 0.657764
Si Si5 0.349186 0.218503 0.322606
Si Si6 0.971821 0.277137 0.705344
Si Si7 0.326020 0.498802 0.062896
Si Si8 0.526200 0.997131 0.812727
O O1 0.307009 0.773373 0.703382
O O2 0.451336 0.889881 0.627591
O O3 0.387298 0.921346 0.369913
O O4 0.085624 0.046900 0.628459
O O5 0.802285 0.232802 0.478251
O O6 0.026652 0.152888 0.160612
O O7 0.730936 0.422187 0.128376
O O8 0.232276 0.900386 0.138238
O O9 0.009786 0.141862 0.897784
O O10 0.307412 0.080680 0.841039
O O11 0.827817 0.299812 0.661619
O O12 0.158260 0.256884 0.513783
O O13 0.354379 0.351763 0.170515
O O14 0.358026 0.146759 0.231215
O O15 0.857658 0.402684 0.786730
O O16 0.500000 0.500000 0.000000
O O17 0.500000 0.000000 0.000000
#
# Coordination Sequence:
#
# PCOD9001773 Si02
#       8
#     2   2   2   2   2   2   2   2
#     4  11  20  40  66  95 135 167 209 268 333 388
#     4  10  22  42  65  93 134 171 217 271 320 381
#     4  10  21  35  62  96 129 167 209 263 326 390
#     4  11  21  38  64  99 132 165 208 275 338 374
#     4  12  24  43  66  94 134 176 215 263 320 389
#     4  11  23  41  65  95 130 173 220 262 320 389
#     4  11  25  46  68  90 125 180 235 262 299 387
#     4  12  23  37  63 101 135 160 207 269 335 389
#
# _framework density 21.587624000000002
#
# number of rings (size 3 to 8) (size 9 to 14) (size 15 to 20)
#    0.000    1.000    3.750    4.875    1.750    0.000 
#    0.000    2.500    0.000    0.000    0.000    0.000 
#    0.000    0.000    0.000    0.000    0.000    0.000 
#
# Total GULP energy -89240.989475 kJ/mol
# GULP energy per Si atom -5577.561842 kJ/mol
# Density = 2.153849 g / cm^3
# Si number density = 21.587624 Si / 1000 Ang^3
#
#
#
# Elastic Constant Matrix: (Units=GPa)
#
#
# Indices 1 2 3 4 5 6 
#
# 1 56.3741 20.4487 27.9709 -4.2032 13.4509 8.6721
# 2 20.4487 48.1260 44.6397 -9.3076 6.1159 6.6175
# 3 27.9709 44.6397 121.9737 -5.5032 7.7292 12.2063
# 4 -4.2032 -9.3076 -5.5032 37.7824 1.7194 -3.1100
# 5 13.4509 6.1159 7.7292 1.7194 41.1235 3.9323
# 6 8.6721 6.6175 12.2063 -3.1100 3.9323 19.0770
#
#
#
# Elastic Compliance Matrix: (Units=1/GPa)
#
#
# Indices 1 2 3 4 5 6 
#
# 1 0.023391 -0.006406 -0.002047 0.000509 -0.005777 -0.005827
# 2 -0.006406 0.035165 -0.010936 0.006332 -0.001248 -0.000999
# 3 -0.002047 -0.010936 0.012977 -0.001362 0.000283 -0.003860
# 4 0.000509 0.006332 -0.001362 0.028285 -0.002374 0.003544
# 5 -0.005777 -0.001248 0.000283 -0.002374 0.026727 -0.003018
# 6 -0.005827 -0.000999 -0.003860 0.003544 -0.003018 0.059084
#
#
# Mechanical properties :
#
#
# Convention : Reuss Voigt Hill
#
# Bulk Modulus (GPa) = 30.52976 45.84360 38.18668
# Shear Modulus (GPa) = 21.24717 28.49088 24.86903
#
# Velocity S-wave (km/s) = 3.14065 3.63682 3.39780
# Velocity P-wave (km/s) = 5.22728 6.23838 5.75508
#
# Compressibility (1/GPa) = 0.03275493
#
# Stress axis : x y z
#
# Youngs Moduli (GPa) = 42.75156 28.43748 77.05883
#
# Poissons Ratio (x) = 0.18217 0.15777
# Poissons Ratio (y) = 0.27386 0.84270
# Poissons Ratio (z) = 0.08753 0.31099
#
# Static dielectric constant tensor:
#      x y z
#    x 1.860630 -0.030120 0.012900 
#    y -0.030120 1.827510 0.003530 
#    z 0.012900 0.003530 1.795200 
# 
# From -- ./inp_files/205634.got.cif
#   From: 2010.05.17/outbox.cif.g08.bks.cpg/sg2_103_cif.got.tgz:205634.got - 2010.06.03 11:33:40.
