data_PCOD9001291
_publ_section_title
;
Structure prediction by ZEFSAII (Michael W. Deem and Ramdas Pophale) SiO2 
 PCOD9001291
Probable space group: P -1
;
_chemical_formula_sum "Si O2"
_cell_formula_units_Z 16
_cell_length_a 12.029281
_cell_length_b 20.978139
_cell_length_c 11.650538
_cell_angle_alpha 149.666155
_cell_angle_beta 117.856951
_cell_angle_gamma 40.804901
_cell_volume 801.447230
_symmetry_space_group_name_H-M "P -1"
_symmetry_group_IT_number 2
_symmetry_cell_setting 'triclinic'
loop_
_space_group_symop_operation_xyz
x,y,z
-x,-y,-z
loop_
_atom_site_type_symbol
_atom_site_label
_atom_site_fract_x
_atom_site_fract_y
_atom_site_fract_z
Si Si1 0.121555 0.014661 0.711081
Si Si2 0.513870 0.725127 0.321916
Si Si3 0.875946 0.519708 0.607217
Si Si4 0.269554 0.150819 0.092657
Si Si5 0.697103 0.369693 0.686015
Si Si6 0.092337 0.589608 0.289772
Si Si7 0.692893 0.482723 0.267139
Si Si8 0.675123 0.805377 0.364039
O O1 0.267494 0.907284 0.502547
O O2 0.155708 0.849356 0.522445
O O3 0.222250 0.041342 0.884234
O O4 0.885898 0.244734 0.948156
O O5 0.611732 0.622962 0.335233
O O6 0.575330 0.809818 0.429286
O O7 0.608660 0.540976 0.000971
O O8 0.793404 0.725726 0.862756
O O9 0.852884 0.487539 0.673355
O O10 0.766937 0.516532 0.455907
O O11 0.115201 0.326580 0.387285
O O12 0.500000 0.000000 0.000000
O O13 0.818011 0.348974 0.614338
O O14 0.495158 0.453235 0.679992
O O15 0.847228 0.768693 0.430141
O O16 0.202648 0.397168 0.964834
O O17 0.500000 0.000000 0.500000
#
# Coordination Sequence:
#
# PCOD9001291 Si02
#       8
#     2   2   2   2   2   2   2   2
#     4  10  21  34  61  88 115 160 202 248 300 355
#     4  10  22  37  62  90 122 156 201 262 301 354
#     4  10  23  38  61  92 122 162 199 254 312 352
#     4  10  21  36  58  90 122 154 202 251 300 360
#     4  10  22  41  57  87 127 165 205 246 297 362
#     4  10  24  42  61  87 127 164 201 252 305 365
#     4  10  21  39  60  92 124 157 205 250 305 359
#     4  10  24  41  62  90 120 162 208 250 306 368
#
# _framework density 19.963884
#
# number of rings (size 3 to 8) (size 9 to 14) (size 15 to 20)
#    0.000    2.000    0.000    3.000    8.750    6.500 
#    0.000    2.500    0.000    0.000    0.000    0.000 
#    0.000    0.000    0.000    0.000    0.000    0.000 
#
# Total GULP energy -89382.385034 kJ/mol
# GULP energy per Si atom -5586.399065 kJ/mol
# Density = 1.991845 g / cm^3
# Si number density = 19.963884 Si / 1000 Ang^3
#
#
#
# Elastic Constant Matrix: (Units=GPa)
#
#
# Indices 1 2 3 4 5 6 
#
# 1 176.6698 54.2586 24.5448 11.7012 2.6718 16.2273
# 2 54.2586 64.2562 7.1944 5.5303 -5.4976 1.8443
# 3 24.5448 7.1944 56.0804 18.3447 3.3126 4.9614
# 4 11.7012 5.5303 18.3447 36.0096 -3.2082 -2.6504
# 5 2.6718 -5.4976 3.3126 -3.2082 19.1858 -3.9306
# 6 16.2273 1.8443 4.9614 -2.6504 -3.9306 31.4436
#
#
#
# Elastic Compliance Matrix: (Units=1/GPa)
#
#
# Indices 1 2 3 4 5 6 
#
# 1 0.008699 -0.007247 -0.001742 -0.001523 -0.004151 -0.004437
# 2 -0.007247 0.022333 -0.000568 0.000215 0.008275 0.003572
# 3 -0.001742 -0.000568 0.023517 -0.012296 -0.006998 -0.004690
# 4 -0.001523 0.000215 -0.012296 0.035884 0.009824 0.006966
# 5 -0.004151 0.008275 -0.006998 0.009824 0.060199 0.011114
# 6 -0.004437 0.003572 -0.004690 0.006966 0.011114 0.036600
#
#
# Mechanical properties :
#
#
# Convention : Reuss Voigt Hill
#
# Bulk Modulus (GPa) = 28.22090 52.11133 40.16612
# Shear Modulus (GPa) = 22.91911 31.39505 27.15708
#
# Velocity S-wave (km/s) = 3.39193 3.96989 3.69224
# Velocity P-wave (km/s) = 5.43203 6.86825 6.19192
#
# Compressibility (1/GPa) = 0.03543473
#
# Stress axis : x y z
#
# Youngs Moduli (GPa) = 114.95225 44.77666 42.52215
#
# Poissons Ratio (x) = 0.32452 0.07407
# Poissons Ratio (y) = 0.83311 0.02416
# Poissons Ratio (z) = 0.20023 0.02544
#
# Static dielectric constant tensor:
#      x y z
#    x 1.705480 -0.026190 0.002100 
#    y -0.026190 1.694730 -0.002580 
#    z 0.002100 -0.002580 1.727230 
# 
# From -- ./inp_files/427568.got.cif
#   From: 2010.05.17/outbox.cif.g08.bks.cpg/sg2_214_cif.got.tgz:427568.got - 2010.06.03 11:33:40.
