data_PCOD9001144
_publ_section_title
;
Structure prediction by ZEFSAII (Michael W. Deem and Ramdas Pophale) SiO2 
 PCOD9001144
Probable space group: P -1
;
_chemical_formula_sum "Si O2"
_cell_formula_units_Z 14
_cell_length_a 11.785772
_cell_length_b 11.890013
_cell_length_c 8.241455
_cell_angle_alpha 139.635651
_cell_angle_beta 127.754973
_cell_angle_gamma 72.452342
_cell_volume 559.815275
_symmetry_space_group_name_H-M "P -1"
_symmetry_group_IT_number 2
_symmetry_cell_setting 'triclinic'
loop_
_space_group_symop_operation_xyz
x,y,z
-x,-y,-z
loop_
_atom_site_type_symbol
_atom_site_label
_atom_site_fract_x
_atom_site_fract_y
_atom_site_fract_z
Si Si1 0.006098 0.290223 0.403561
Si Si2 0.912373 0.108770 0.445703
Si Si3 0.557962 0.238245 0.765869
Si Si4 0.713393 0.659344 0.503102
Si Si5 0.667256 0.493912 0.615457
Si Si6 0.682042 0.136166 0.051522
Si Si7 0.816529 0.369048 0.890987
O O1 0.121802 0.259763 0.343263
O O2 0.014817 0.187513 0.465642
O O3 0.826225 0.214674 0.141299
O O4 0.061651 0.504098 0.738179
O O5 0.746437 0.025257 0.119932
O O6 0.892848 0.263098 0.720203
O O7 0.000000 0.000000 0.500000
O O8 0.397384 0.230656 0.536071
O O9 0.673711 0.239197 0.721894
O O10 0.631684 0.450275 0.134122
O O11 0.548292 0.111791 0.778829
O O12 0.734649 0.637134 0.688495
O O13 0.500000 0.500000 0.500000
O O14 0.665362 0.299420 0.328146
O O15 0.750641 0.499907 0.865496
#
# Coordination Sequence:
#
# PCOD9001144 Si02
#       7
#     2   2   2   2   2   2   2
#     4   9  19  33  48  78 100 130 161 210 248 289
#     4   9  19  36  52  69  98 136 167 204 249 292
#     4   9  16  29  47  74 103 134 159 196 248 301
#     4   9  17  27  47  71 109 133 155 196 256 297
#     4  10  17  27  44  77 106 129 159 202 249 291
#     4   8  19  31  48  72 101 135 159 201 250 295
#     4  10  18  30  52  78 100 127 168 207 240 290
#
# _framework density 25.008247000000001
#
# number of rings (size 3 to 8) (size 9 to 14) (size 15 to 20)
#    0.857    2.000    1.429    0.429    2.000    5.143 
#    0.000    0.714    0.000    1.714    0.000    0.000 
#    0.000    0.000    0.000    0.000    0.000    0.000 
#
# Total GULP energy -78118.450040 kJ/mol
# GULP energy per Si atom -5579.889289 kJ/mol
# Density = 2.495133 g / cm^3
# Si number density = 25.008247 Si / 1000 Ang^3
#
#
#
# Elastic Constant Matrix: (Units=GPa)
#
#
# Indices 1 2 3 4 5 6 
#
# 1 130.6430 46.3930 -17.4899 -2.6319 -6.0322 11.7129
# 2 46.3930 181.3796 12.1455 -28.9597 -10.6041 -14.9704
# 3 -17.4899 12.1455 67.0502 -23.3058 4.0667 0.0426
# 4 -2.6319 -28.9597 -23.3058 26.0237 1.7084 0.7912
# 5 -6.0322 -10.6041 4.0667 1.7084 15.4399 -8.3031
# 6 11.7129 -14.9704 0.0426 0.7912 -8.3031 41.7037
#
#
#
# Elastic Compliance Matrix: (Units=1/GPa)
#
#
# Indices 1 2 3 4 5 6 
#
# 1 0.009459 -0.002904 0.003443 0.001028 -0.001479 -0.004017
# 2 -0.002904 0.008414 0.000436 0.008906 0.006177 0.004896
# 3 0.003443 0.000436 0.024409 0.023379 -0.009025 -0.003076
# 4 0.001028 0.008906 0.023379 0.069856 -0.007314 0.000103
# 5 -0.001479 0.006177 -0.009025 -0.007314 0.081880 0.019083
# 6 -0.004017 0.004896 -0.003076 0.000103 0.019083 0.030665
#
#
# Mechanical properties :
#
#
# Convention : Reuss Voigt Hill
#
# Bulk Modulus (GPa) = 22.60778 51.24112 36.92445
# Shear Modulus (GPa) = 21.05469 39.16842 30.11155
#
# Velocity S-wave (km/s) = 2.90472 3.96184 3.47373
# Velocity P-wave (km/s) = 4.50662 6.43913 5.55752
#
# Compressibility (1/GPa) = 0.04423257
#
# Stress axis : x y z
#
# Youngs Moduli (GPa) = 105.71842 118.84868 40.96855
#
# Poissons Ratio (x) = 0.34512 -0.14105
# Poissons Ratio (y) = 0.30700 -0.01787
# Poissons Ratio (z) = -0.36398 -0.05185
#
# Static dielectric constant tensor:
#      x y z
#    x 1.903830 0.004520 0.043160 
#    y 0.004520 2.035790 0.083380 
#    z 0.043160 0.083380 2.144270 
# 
# From -- ./inp_files/260744.got.cif
#   From: 2010.05.17/outbox.cif.g08.bks.cpg/sg2_131_cif.got.tgz:260744.got - 2010.06.03 11:33:40.
