data_PCOD9001565
_publ_section_title
;
Structure prediction by ZEFSAII (Michael W. Deem and Ramdas Pophale) SiO2 
 PCOD9001565
Probable space group: P -1
;
_chemical_formula_sum "Si O2"
_cell_formula_units_Z 16
_cell_length_a 11.617912
_cell_length_b 12.752128
_cell_length_c 7.872259
_cell_angle_alpha 134.737093
_cell_angle_beta 123.160041
_cell_angle_gamma 49.830355
_cell_volume 623.716051
_symmetry_space_group_name_H-M "P -1"
_symmetry_group_IT_number 2
_symmetry_cell_setting 'triclinic'
loop_
_space_group_symop_operation_xyz
x,y,z
-x,-y,-z
loop_
_atom_site_type_symbol
_atom_site_label
_atom_site_fract_x
_atom_site_fract_y
_atom_site_fract_z
Si Si1 0.308844 0.905625 0.013800
Si Si2 0.748657 0.871242 0.472696
Si Si3 0.158766 0.495553 0.738392
Si Si4 0.989329 0.153752 0.559800
Si Si5 0.602214 0.457206 0.205248
Si Si6 0.696118 0.430159 0.730654
Si Si7 0.135229 0.222130 0.071511
Si Si8 0.388576 0.209916 0.052517
O O1 0.431336 0.857039 0.904274
O O2 0.340152 0.997531 0.305638
O O3 0.327627 0.735117 0.913744
O O4 0.154932 0.053717 0.985464
O O5 0.797011 0.687824 0.372014
O O6 0.902691 0.887688 0.563325
O O7 0.655133 0.885353 0.241294
O O8 0.258860 0.497174 0.660028
O O9 0.224255 0.577996 0.031511
O O10 0.979374 0.619878 0.737644
O O11 0.062844 0.240546 0.846715
O O12 0.812246 0.279148 0.541854
O O13 0.000000 0.000000 0.500000
O O14 0.472724 0.553587 0.351163
O O15 0.500000 0.500000 0.000000
O O16 0.682174 0.599077 0.834956
O O17 0.305915 0.200046 0.146647
#
# Coordination Sequence:
#
# PCOD9001565 Si02
#       8
#     2   2   2   2   2   2   2   2
#     4  11  22  35  58  89 115 146 188 236 284 330
#     4  10  21  35  58  89 110 143 194 239 271 326
#     4   9  18  35  54  82 115 149 184 226 283 334
#     4  10  21  37  58  86 112 146 190 238 277 329
#     4   9  19  34  57  79 111 152 189 227 275 339
#     4   8  16  33  58  78 103 151 197 222 268 338
#     4  10  21  36  58  81 118 153 184 229 289 337
#     4   9  18  37  58  82 112 150 190 230 274 338
#
# _framework density 25.652697
#
# number of rings (size 3 to 8) (size 9 to 14) (size 15 to 20)
#    0.000    2.500    0.000    2.250    5.250    4.000 
#    2.250    0.000    0.000    1.500    0.000    0.000 
#    0.000    0.000    0.000    0.000    0.000    0.000 
#
# Total GULP energy -89474.614571 kJ/mol
# GULP energy per Si atom -5592.163411 kJ/mol
# Density = 2.559431 g / cm^3
# Si number density = 25.652697 Si / 1000 Ang^3
#
#
#
# Elastic Constant Matrix: (Units=GPa)
#
#
# Indices 1 2 3 4 5 6 
#
# 1 186.8322 41.6615 29.8812 37.5983 -2.5749 17.8158
# 2 41.6615 105.1554 31.1533 29.2264 -5.3678 5.7431
# 3 29.8812 31.1533 93.1232 3.4991 -17.7681 -6.7314
# 4 37.5983 29.2264 3.4991 50.6018 -6.9072 -4.1837
# 5 -2.5749 -5.3678 -17.7681 -6.9072 26.3164 -2.0081
# 6 17.8158 5.7431 -6.7314 -4.1837 -2.0081 16.8855
#
#
#
# Elastic Compliance Matrix: (Units=1/GPa)
#
#
# Indices 1 2 3 4 5 6 
#
# 1 0.009099 0.000897 -0.005068 -0.008951 -0.005830 -0.014836
# 2 0.000897 0.014223 -0.006419 -0.010043 -0.004851 -0.011408
# 3 -0.005068 -0.006419 0.018294 0.009764 0.014557 0.018974
# 4 -0.008951 -0.010043 0.009764 0.035879 0.015180 0.027447
# 5 -0.005830 -0.004851 0.014557 0.015180 0.052049 0.023555
# 6 -0.014836 -0.011408 0.018974 0.027447 0.023555 0.095922
#
#
# Mechanical properties :
#
#
# Convention : Reuss Voigt Hill
#
# Bulk Modulus (GPa) = 48.93395 65.61142 57.27268
# Shear Modulus (GPa) = 19.72720 37.58839 28.65780
#
# Velocity S-wave (km/s) = 2.77611 3.83205 3.34600
# Velocity P-wave (km/s) = 5.42150 6.72397 6.10756
#
# Compressibility (1/GPa) = 0.02043571
#
# Stress axis : x y z
#
# Youngs Moduli (GPa) = 109.90762 70.31075 54.66207
#
# Poissons Ratio (x) = -0.06308 0.27703
# Poissons Ratio (y) = -0.09860 0.35086
# Poissons Ratio (z) = 0.55703 0.45131
#
# Static dielectric constant tensor:
#      x y z
#    x 2.055940 -0.072340 0.044310 
#    y -0.072340 2.003820 -0.087410 
#    z 0.044310 -0.087410 2.088800 
# 
# From -- ./inp_files/263512.got.cif
#   From: 2010.05.17/outbox.cif.g08.bks.cpg/sg2_132_cif.got.tgz:263512.got - 2010.06.03 11:33:40.
