data_PCOD9001095
_publ_section_title
;
Structure prediction by ZEFSAII (Michael W. Deem and Ramdas Pophale) SiO2 
 PCOD9001095
Probable space group: P -1
;
_chemical_formula_sum "Si O2"
_cell_formula_units_Z 16
_cell_length_a 18.752963
_cell_length_b 8.308379
_cell_length_c 7.353062
_cell_angle_alpha 50.859630
_cell_angle_beta 43.026814
_cell_angle_gamma 60.440169
_cell_volume 605.208054
_symmetry_space_group_name_H-M "P -1"
_symmetry_group_IT_number 2
_symmetry_cell_setting 'triclinic'
loop_
_space_group_symop_operation_xyz
x,y,z
-x,-y,-z
loop_
_atom_site_type_symbol
_atom_site_label
_atom_site_fract_x
_atom_site_fract_y
_atom_site_fract_z
Si Si1 0.753764 0.185083 0.540723
Si Si2 0.246630 0.977443 0.738072
Si Si3 0.472372 0.689940 0.136933
Si Si4 0.303243 0.435122 0.155565
Si Si5 0.107040 0.238819 0.040360
Si Si6 0.104364 0.640954 0.551825
Si Si7 0.526115 0.134025 0.577486
Si Si8 0.305856 0.265249 0.877475
O O1 0.649783 0.339985 0.650138
O O2 0.850285 0.251867 0.430012
O O3 0.777214 0.145830 0.312561
O O4 0.720347 0.963211 0.836365
O O5 0.276448 0.209140 0.448725
O O6 0.150698 0.024697 0.019891
O O7 0.353955 0.881793 0.697037
O O8 0.472992 0.760637 0.298426
O O9 0.576027 0.536601 0.029732
O O10 0.497709 0.896981 0.832447
O O11 0.206815 0.595856 0.268676
O O12 0.306070 0.406874 0.953921
O O13 0.077016 0.403509 0.820762
O O14 0.209397 0.320349 0.888181
O O15 0.009035 0.244573 0.354550
O O16 0.423625 0.240921 0.597595
#
# Coordination Sequence:
#
# PCOD9001095 Si02
#       8
#     2   2   2   2   2   2   2   2
#     4   9  17  31  52  73  90 115 155 196 228 265
#     4   8  15  30  50  69  93 124 151 181 229 282
#     4   7  11  23  46  72  91 111 146 187 226 273
#     4   8  15  30  50  69  93 124 151 181 229 282
#     4  10  21  34  46  65  95 128 158 186 224 275
#     4  10  21  34  46  65  95 128 158 186 224 275
#     4   7  11  23  46  72  91 111 146 187 226 273
#     4   9  17  31  52  73  90 115 155 196 228 265
#
# _framework density 26.437187000000002
#
# number of rings (size 3 to 8) (size 9 to 14) (size 15 to 20)
#    0.000    3.500    0.000    3.000    0.000    2.500 
#    0.000    1.250    0.000    6.750    0.000    0.000 
#    0.000    0.000    0.000    0.000    0.000    0.000 
#
# Total GULP energy -89496.427258 kJ/mol
# GULP energy per Si atom -5593.526704 kJ/mol
# Density = 2.637702 g / cm^3
# Si number density = 26.437187 Si / 1000 Ang^3
#
#
#
# Elastic Constant Matrix: (Units=GPa)
#
#
# Indices 1 2 3 4 5 6 
#
# 1 58.2602 50.4460 -12.4905 18.6024 11.6811 29.8804
# 2 50.4460 120.5650 85.4403 43.8634 -35.6509 -39.3885
# 3 -12.4905 85.4403 82.5194 19.7433 27.7038 46.5295
# 4 18.6024 43.8634 19.7433 56.1730 -0.3036 3.0735
# 5 11.6811 -35.6509 27.7038 -0.3036 -4.6006 -31.6912
# 6 29.8804 -39.3885 46.5295 3.0735 -31.6912 17.8016
#
#
#
# Elastic Compliance Matrix: (Units=1/GPa)
#
#
# Indices 1 2 3 4 5 6 
#
# 1 0.014746 0.000606 -0.001832 -0.004742 0.010907 0.001614
# 2 0.000606 0.005477 0.000597 -0.004502 -0.008150 -0.004190
# 3 -0.001832 0.000597 0.006837 -0.002394 0.009200 0.003317
# 4 -0.004742 -0.004502 -0.002394 0.023680 0.000431 0.000935
# 5 0.010907 -0.008150 0.009200 0.000431 0.026037 -0.014108
# 6 0.001614 -0.004190 0.003317 0.000935 -0.014108 0.010247
#
#
# Mechanical properties :
#
#
# Convention : Reuss Voigt Hill
#
# Bulk Modulus (GPa) = 38.75859 56.45958 47.60908
# Shear Modulus (GPa) = 51.60778 23.07138 37.33958
#
# Velocity S-wave (km/s) = 4.42304 2.95733 3.76225
# Velocity P-wave (km/s) = 6.38567 5.75009 6.07620
#
# Compressibility (1/GPa) = 0.02580074
#
# Stress axis : x y z
#
# Youngs Moduli (GPa) = 67.81328 182.58412 146.26676
#
# Poissons Ratio (x) = -0.11066 0.26803
# Poissons Ratio (y) = -0.04110 -0.08728
# Poissons Ratio (z) = 0.12427 -0.10895
#
# Static dielectric constant tensor:
#      x y z
#    x 2.022810 -0.060510 0.045150 
#    y -0.060510 2.144200 -0.037290 
#    z 0.045150 -0.037290 2.069400 
# 
# From -- ./inp_files/195763.got.cif
#   From: 2010.05.17/outbox.cif.g08.bks.cpg/sg2_98_cif.got.tgz:195763.got - 2010.06.03 11:33:40.
