data_PCOD9001560
_publ_section_title
;
Structure prediction by ZEFSAII (Michael W. Deem and Ramdas Pophale) SiO2 
 PCOD9001560
Probable space group: P -1
;
_chemical_formula_sum "Si O2"
_cell_formula_units_Z 16
_cell_length_a 11.281465
_cell_length_b 24.270518
_cell_length_c 14.344845
_cell_angle_alpha 21.734831
_cell_angle_beta 150.790462
_cell_angle_gamma 150.015514
_cell_volume 675.652329
_symmetry_space_group_name_H-M "P -1"
_symmetry_group_IT_number 2
_symmetry_cell_setting 'triclinic'
loop_
_space_group_symop_operation_xyz
x,y,z
-x,-y,-z
loop_
_atom_site_type_symbol
_atom_site_label
_atom_site_fract_x
_atom_site_fract_y
_atom_site_fract_z
Si Si1 0.270324 0.247903 0.556476
Si Si2 0.542121 0.293035 0.391324
Si Si3 0.055587 0.300896 0.925291
Si Si4 0.316780 0.824509 0.675440
Si Si5 0.838316 0.211952 0.566560
Si Si6 0.220951 0.030004 0.683810
Si Si7 0.680620 0.493897 0.356798
Si Si8 0.641206 0.835357 0.053139
O O1 0.435012 0.425185 0.361535
O O2 0.978496 0.199385 0.467030
O O3 0.237793 0.148604 0.594777
O O4 0.415497 0.207043 0.810711
O O5 0.763297 0.305575 0.450477
O O6 0.600797 0.412309 0.328934
O O7 0.470807 0.117882 0.659326
O O8 0.289809 0.305284 0.146758
O O9 0.172196 0.331339 0.852269
O O10 0.898398 0.419413 0.655375
O O11 0.840786 0.135835 0.049784
O O12 0.294378 0.743867 0.686090
O O13 0.426047 0.773997 0.923617
O O14 0.500000 0.000000 0.500000
O O15 0.729577 0.024491 0.806193
O O16 0.133118 0.233895 0.715122
O O17 0.000000 0.000000 0.500000
#
# Coordination Sequence:
#
# PCOD9001560 Si02
#       8
#     2   2   2   2   2   2   2   2
#     4  10  21  35  58  88 116 149 195 237 289 341
#     4  10  21  36  61  87 120 148 193 242 289 343
#     4  10  22  39  55  81 121 161 193 229 285 350
#     4   9  19  34  55  83 120 146 184 238 296 344
#     4   9  19  33  52  89 115 148 187 235 297 343
#     4   9  21  34  55  91 117 147 189 241 290 339
#     4  10  23  39  56  84 120 159 194 228 287 352
#     4   9  19  33  54  83 122 148 180 243 295 342
#
# _framework density 23.680817999999999
#
# number of rings (size 3 to 8) (size 9 to 14) (size 15 to 20)
#    0.000    2.500    0.000    1.125   10.500    4.000 
#    0.000    0.000    0.000    3.000    0.000   15.750 
#    0.000    0.000    0.000    0.000    0.000    0.000 
#
# Total GULP energy -89189.402511 kJ/mol
# GULP energy per Si atom -5574.337657 kJ/mol
# Density = 2.362692 g / cm^3
# Si number density = 23.680818 Si / 1000 Ang^3
#
#
#
# Elastic Constant Matrix: (Units=GPa)
#
#
# Indices 1 2 3 4 5 6 
#
# 1 103.4588 25.6506 30.4327 7.0052 -33.1429 5.2990
# 2 25.6506 73.2392 50.7211 1.6969 -26.3072 9.3726
# 3 30.4327 50.7211 103.4228 15.3086 -31.6053 -3.0266
# 4 7.0052 1.6969 15.3086 51.0994 1.8780 -17.9701
# 5 -33.1429 -26.3072 -31.6053 1.8780 37.0633 4.5590
# 6 5.2990 9.3726 -3.0266 -17.9701 4.5590 36.0965
#
#
#
# Elastic Compliance Matrix: (Units=1/GPa)
#
#
# Indices 1 2 3 4 5 6 
#
# 1 0.015023 0.001137 0.000402 -0.005287 0.015723 -0.007085
# 2 0.001137 0.025345 -0.008738 -0.002500 0.012956 -0.010361
# 3 0.000402 -0.008738 0.017500 -0.005426 0.009380 -0.000209
# 4 -0.005287 -0.002500 -0.005426 0.028530 -0.014669 0.017026
# 5 0.015723 0.012956 0.009380 -0.014669 0.061433 -0.019947
# 6 -0.007085 -0.010361 -0.000209 0.017026 -0.019947 0.042412
#
#
# Mechanical properties :
#
#
# Convention : Reuss Voigt Hill
#
# Bulk Modulus (GPa) = 23.00469 54.85885 38.93177
# Shear Modulus (GPa) = 22.81736 36.40626 29.61181
#
# Velocity S-wave (km/s) = 3.10746 3.92519 3.54001
# Velocity P-wave (km/s) = 4.75506 6.61506 5.76063
#
# Compressibility (1/GPa) = 0.04346941
#
# Stress axis : x y z
#
# Youngs Moduli (GPa) = 66.56272 39.45571 57.14331
#
# Poissons Ratio (x) = -0.04486 -0.02297
# Poissons Ratio (y) = -0.07568 0.49933
# Poissons Ratio (z) = -0.02675 0.34477
#
# Static dielectric constant tensor:
#      x y z
#    x 1.919930 0.000120 -0.000960 
#    y 0.000120 1.948650 -0.033680 
#    z -0.000960 -0.033680 2.001680 
# 
# From -- ./inp_files/524616.got.cif
#   From: 2010.05.17/outbox.cif.g08.bks.cpg/sg2_263_cif.got.tgz:524616.got - 2010.06.03 11:33:40.
