data_PCOD9001195
_publ_section_title
;
Structure prediction by ZEFSAII (Michael W. Deem and Ramdas Pophale) SiO2 
 PCOD9001195
Probable space group: P -1
;
_chemical_formula_sum "Si O2"
_cell_formula_units_Z 14
_cell_length_a 13.012699
_cell_length_b 12.868060
_cell_length_c 13.405001
_cell_angle_alpha 157.956836
_cell_angle_beta 43.220160
_cell_angle_gamma 134.309156
_cell_volume 574.567140
_symmetry_space_group_name_H-M "P -1"
_symmetry_group_IT_number 2
_symmetry_cell_setting 'triclinic'
loop_
_space_group_symop_operation_xyz
x,y,z
-x,-y,-z
loop_
_atom_site_type_symbol
_atom_site_label
_atom_site_fract_x
_atom_site_fract_y
_atom_site_fract_z
Si Si1 0.522522 0.007038 0.151155
Si Si2 0.273891 0.971590 0.788087
Si Si3 0.862130 0.600483 0.626763
Si Si4 0.721164 0.278757 0.814447
Si Si5 0.356341 0.140204 0.679829
Si Si6 0.969418 0.687721 0.281689
Si Si7 0.702416 0.595852 0.532585
O O1 0.583848 0.962301 0.181605
O O2 0.351865 0.883363 0.180437
O O3 0.582457 0.325582 0.373349
O O4 0.606651 0.836713 0.857469
O O5 0.260204 0.149585 0.857259
O O6 0.265616 0.650016 0.476804
O O7 0.150542 0.083938 0.049242
O O8 0.832521 0.580351 0.511983
O O9 0.000000 0.500000 0.500000
O O10 0.896404 0.368810 0.787805
O O11 0.711866 0.069877 0.542007
O O12 0.632995 0.551760 0.098818
O O13 0.500000 0.000000 0.500000
O O14 0.801870 0.635093 0.398464
O O15 0.000000 0.000000 0.500000
O O16 0.000000 0.500000 0.000000
#
# Coordination Sequence:
#
# PCOD9001195 Si02
#       7
#     2   2   2   2   2   2   2
#     4  10  21  42  66 100 137 178 223 273 345 424
#     4  10  21  34  56  89 142 176 218 270 322 399
#     4  10  21  36  56  91 134 182 225 265 326 427
#     4  12  26  44  72 103 140 190 237 291 347 421
#     4  12  24  38  66 103 148 186 229 278 347 421
#     4  12  28  53  74 101 138 182 244 311 356 402
#     4  10  23  42  70  95 137 183 220 290 361 405
#
# _framework density 24.366171000000001
#
# number of rings (size 3 to 8) (size 9 to 14) (size 15 to 20)
#    0.000    1.143    1.429    4.286    8.000    0.000 
#    0.000    4.286    0.000    0.000    0.000    0.000 
#    0.000    0.000    0.000    0.000    0.000    0.000 
#
# Total GULP energy -78136.561197 kJ/mol
# GULP energy per Si atom -5581.182943 kJ/mol
# Density = 2.431071 g / cm^3
# Si number density = 24.366171 Si / 1000 Ang^3
#
#
#
# Elastic Constant Matrix: (Units=GPa)
#
#
# Indices 1 2 3 4 5 6 
#
# 1 59.8579 23.1304 35.6293 5.8735 -7.6546 -2.9413
# 2 23.1304 115.4041 43.7318 -3.3021 9.6953 -8.2699
# 3 35.6293 43.7318 163.1023 24.4402 21.0208 -6.5528
# 4 5.8735 -3.3021 24.4402 36.0040 -3.7584 0.4889
# 5 -7.6546 9.6953 21.0208 -3.7584 36.4560 0.7861
# 6 -2.9413 -8.2699 -6.5528 0.4889 0.7861 28.0326
#
#
#
# Elastic Compliance Matrix: (Units=1/GPa)
#
#
# Indices 1 2 3 4 5 6 
#
# 1 0.022016 -0.003173 -0.005126 0.000482 0.008473 -0.000070
# 2 -0.003173 0.010541 -0.002199 0.002741 -0.001968 0.002270
# 3 -0.005126 -0.002199 0.009793 -0.006749 -0.006865 0.001413
# 4 0.000482 0.002741 -0.006749 0.033251 0.006724 -0.001487
# 5 0.008473 -0.001968 -0.006865 0.006724 0.034436 -0.002379
# 6 -0.000070 0.002270 0.001413 -0.001487 -0.002379 0.036758
#
#
# Mechanical properties :
#
#
# Convention : Reuss Voigt Hill
#
# Bulk Modulus (GPa) = 46.82885 60.37191 53.60038
# Shear Modulus (GPa) = 28.58627 35.82337 32.20482
#
# Velocity S-wave (km/s) = 3.42891 3.83849 3.63947
# Velocity P-wave (km/s) = 5.91076 6.66904 6.30132
#
# Compressibility (1/GPa) = 0.02135436
#
# Stress axis : x y z
#
# Youngs Moduli (GPa) = 45.42094 94.86798 102.11183
#
# Poissons Ratio (x) = 0.30106 0.52339
# Poissons Ratio (y) = 0.14414 0.22453
# Poissons Ratio (z) = 0.23281 0.20861
#
# Static dielectric constant tensor:
#      x y z
#    x 2.038880 0.038630 -0.037410 
#    y 0.038630 2.193890 -0.086540 
#    z -0.037410 -0.086540 1.934670 
# 
# From -- ./inp_files/533959.got.cif
#   From: 2010.05.17/outbox.cif.g08.bks.cpg/sg2_267_cif.got.tgz:533959.got - 2010.06.03 11:33:40.
