data_PCOD9001517
_publ_section_title
;
Structure prediction by ZEFSAII (Michael W. Deem and Ramdas Pophale) SiO2 
 PCOD9001517
Probable space group: P -1
;
_chemical_formula_sum "Si O2"
_cell_formula_units_Z 16
_cell_length_a 13.767079
_cell_length_b 8.370658
_cell_length_c 21.231701
_cell_angle_alpha 106.854136
_cell_angle_beta 20.304642
_cell_angle_gamma 116.094369
_cell_volume 701.036829
_symmetry_space_group_name_H-M "P -1"
_symmetry_group_IT_number 2
_symmetry_cell_setting 'triclinic'
loop_
_space_group_symop_operation_xyz
x,y,z
-x,-y,-z
loop_
_atom_site_type_symbol
_atom_site_label
_atom_site_fract_x
_atom_site_fract_y
_atom_site_fract_z
Si Si1 0.042857 0.358270 0.504820
Si Si2 0.071791 0.964451 0.248053
Si Si3 0.244804 0.583254 0.587390
Si Si4 0.827620 0.287507 0.052402
Si Si5 0.648074 0.215757 0.851304
Si Si6 0.715126 0.037908 0.579355
Si Si7 0.872101 0.590740 0.241219
Si Si8 0.435011 0.259116 0.706708
O O1 0.356281 0.513742 0.371682
O O2 0.000000 0.500000 0.500000
O O3 0.744054 0.243595 0.722870
O O4 0.020182 0.194380 0.453078
O O5 0.814494 0.988675 0.447185
O O6 0.270444 0.935267 0.181166
O O7 0.290662 0.140139 0.087365
O O8 0.938504 0.772882 0.264942
O O9 0.528685 0.525220 0.409063
O O10 0.170200 0.579816 0.706439
O O11 0.407152 0.752688 0.457326
O O12 0.903886 0.422975 0.748213
O O13 0.489686 0.149749 0.275045
O O14 0.000000 0.500000 0.000000
O O15 0.843342 0.324986 0.972639
O O16 0.069353 0.205465 0.910889
O O17 0.498205 0.134155 0.704422
#
# Coordination Sequence:
#
# PCOD9001517 Si02
#       8
#     2   2   2   2   2   2   2   2
#     4   9  19  38  62  84 119 164 188 241 297 348
#     4  10  21  35  57  86 115 156 192 245 290 346
#     4   8  16  32  61  76 106 156 186 230 287 342
#     4  11  24  38  63  92 115 155 199 248 296 353
#     4   9  18  36  56  81 118 149 193 240 291 336
#     4  11  23  38  61  88 122 156 201 240 294 358
#     4   9  18  35  58  81 118 147 191 242 298 334
#     4   9  20  42  60  85 123 157 191 245 300 345
#
# _framework density 22.823336000000001
#
# number of rings (size 3 to 8) (size 9 to 14) (size 15 to 20)
#    0.000    2.500    0.000    1.125   10.500    0.500 
#    6.750    8.125    5.500    0.000    0.000    0.000 
#    0.000    0.000    0.000    0.000    0.000    0.000 
#
# Total GULP energy -89137.823727 kJ/mol
# GULP energy per Si atom -5571.113983 kJ/mol
# Density = 2.277139 g / cm^3
# Si number density = 22.823336 Si / 1000 Ang^3
#
#
#
# Elastic Constant Matrix: (Units=GPa)
#
#
# Indices 1 2 3 4 5 6 
#
# 1 90.0932 15.0861 19.8119 -1.3046 30.7429 1.7748
# 2 15.0861 61.5380 33.3094 -4.6267 19.5172 12.6560
# 3 19.8119 33.3094 99.5324 -14.6361 27.7697 5.9854
# 4 -1.3046 -4.6267 -14.6361 26.3594 -1.3319 6.9968
# 5 30.7429 19.5172 27.7697 -1.3319 37.2876 -1.3386
# 6 1.7748 12.6560 5.9854 6.9968 -1.3386 33.6611
#
#
#
# Elastic Compliance Matrix: (Units=1/GPa)
#
#
# Indices 1 2 3 4 5 6 
#
# 1 0.015587 0.000605 0.000846 0.001178 -0.013827 -0.001995
# 2 0.000605 0.023762 -0.004121 0.003912 -0.010067 -0.009447
# 3 0.000846 -0.004121 0.015425 0.008275 -0.009853 -0.003350
# 4 0.001178 0.003912 0.008275 0.046310 -0.007992 -0.012948
# 5 -0.013827 -0.010067 -0.009853 -0.007992 0.050898 0.009951
# 6 -0.001995 -0.009447 -0.003350 -0.012948 0.009951 0.037048
#
#
# Mechanical properties :
#
#
# Convention : Reuss Voigt Hill
#
# Bulk Modulus (GPa) = 20.22865 43.06428 31.64647
# Shear Modulus (GPa) = 23.71398 31.65869 27.68634
#
# Velocity S-wave (km/s) = 3.22689 3.72845 3.48670
# Velocity P-wave (km/s) = 4.77138 6.11920 5.48683
#
# Compressibility (1/GPa) = 0.04943483
#
# Stress axis : x y z
#
# Youngs Moduli (GPa) = 64.15602 42.08400 64.83098
#
# Poissons Ratio (x) = -0.02547 -0.05484
# Poissons Ratio (y) = -0.03883 0.26714
# Poissons Ratio (z) = -0.05427 0.17341
#
# Static dielectric constant tensor:
#      x y z
#    x 1.915710 0.007960 -0.000180 
#    y 0.007960 1.865680 0.015390 
#    z -0.000180 0.015390 1.935360 
# 
# From -- ./inp_files/217072.got.cif
#   From: 2010.05.17/outbox.cif.g08.bks.cpg/sg2_109_cif.got.tgz:217072.got - 2010.06.03 11:33:40.
