data_PCOD9001971
_publ_section_title
;
Structure prediction by ZEFSAII (Michael W. Deem and Ramdas Pophale) SiO2 
 PCOD9001971
Probable space group: P -1
;
_chemical_formula_sum "Si O2"
_cell_formula_units_Z 16
_cell_length_a 13.209518
_cell_length_b 14.950882
_cell_length_c 11.288990
_cell_angle_alpha 78.438730
_cell_angle_beta 31.450324
_cell_angle_gamma 56.058032
_cell_volume 743.582993
_symmetry_space_group_name_H-M "P -1"
_symmetry_group_IT_number 2
_symmetry_cell_setting 'triclinic'
loop_
_space_group_symop_operation_xyz
x,y,z
-x,-y,-z
loop_
_atom_site_type_symbol
_atom_site_label
_atom_site_fract_x
_atom_site_fract_y
_atom_site_fract_z
Si Si1 0.395068 0.432602 0.251095
Si Si2 0.363774 0.246203 0.314422
Si Si3 0.381890 0.185315 0.794194
Si Si4 0.319292 0.084109 0.539936
Si Si5 0.666503 0.591514 0.271393
Si Si6 0.161293 0.661572 0.889495
Si Si7 0.695448 0.711178 0.909067
Si Si8 0.654282 0.526968 0.985785
O O1 0.491345 0.295814 0.225219
O O2 0.463095 0.415835 0.048106
O O3 0.042305 0.565412 0.584272
O O4 0.510966 0.483246 0.179962
O O5 0.450893 0.123621 0.327322
O O6 0.420040 0.220111 0.123868
O O7 0.007242 0.384497 0.652820
O O8 0.463153 0.261241 0.661369
O O9 0.639041 0.021606 0.550073
O O10 0.331295 0.207810 0.979768
O O11 0.084779 0.262776 0.993615
O O12 0.500000 0.000000 0.500000
O O13 0.005227 0.227645 0.867761
O O14 0.442734 0.620131 0.576852
O O15 0.744981 0.476673 0.138550
O O16 0.000000 0.500000 0.000000
O O17 0.573165 0.655128 0.085662
#
# Coordination Sequence:
#
# PCOD9001971 Si02
#       8
#     2   2   2   2   2   2   2   2
#     4   8  15  30  53  81 113 147 186 241 300 342
#     4   9  18  34  54  83 113 154 199 240 290 351
#     4  10  21  36  55  85 122 160 191 243 296 352
#     4  10  22  40  59  80 119 164 205 243 285 354
#     4   9  19  38  62  88 112 143 203 256 302 344
#     4   9  20  39  60  84 113 156 201 248 298 348
#     4   9  18  31  54  85 120 148 190 243 295 354
#     4   8  15  30  52  82 113 145 191 241 292 350
#
# _framework density 21.517436
#
# number of rings (size 3 to 8) (size 9 to 14) (size 15 to 20)
#    0.000    3.000    0.000    1.500    3.500    2.000 
#    4.500    2.500    0.000    0.000    0.000   11.375 
#    0.000    0.000    0.000    0.000    0.000    0.000 
#
# Total GULP energy -89077.702746 kJ/mol
# GULP energy per Si atom -5567.356422 kJ/mol
# Density = 2.146846 g / cm^3
# Si number density = 21.517436 Si / 1000 Ang^3
#
#
#
# Elastic Constant Matrix: (Units=GPa)
#
#
# Indices 1 2 3 4 5 6 
#
# 1 110.4609 58.6161 26.3076 -4.8412 12.6245 29.6325
# 2 58.6161 178.9167 49.8455 -8.7174 12.2480 24.4390
# 3 26.3076 49.8455 61.4994 -3.2162 10.8148 19.6145
# 4 -4.8412 -8.7174 -3.2162 28.9947 17.3831 2.6280
# 5 12.6245 12.2480 10.8148 17.3831 35.5288 2.6642
# 6 29.6325 24.4390 19.6145 2.6280 2.6642 39.9219
#
#
#
# Elastic Compliance Matrix: (Units=1/GPa)
#
#
# Indices 1 2 3 4 5 6 
#
# 1 0.013731 -0.002713 0.000610 0.006258 -0.006531 -0.008807
# 2 -0.002713 0.008134 -0.004835 0.002415 -0.001501 -0.000649
# 3 0.000610 -0.004835 0.025064 0.007891 -0.009312 -0.009705
# 4 0.006258 0.002415 0.007891 0.057931 -0.032931 -0.011616
# 5 -0.006531 -0.001501 -0.009312 -0.032931 0.049239 0.009224
# 6 -0.008807 -0.000649 -0.009705 -0.011616 0.009224 0.036900
#
#
# Mechanical properties :
#
#
# Convention : Reuss Voigt Hill
#
# Bulk Modulus (GPa) = 30.25513 68.93502 49.59508
# Shear Modulus (GPa) = 23.15958 35.29630 29.22794
#
# Velocity S-wave (km/s) = 3.28429 4.05453 3.68956
# Velocity P-wave (km/s) = 5.33604 7.35019 6.42256
#
# Compressibility (1/GPa) = 0.03305225
#
# Stress axis : x y z
#
# Youngs Moduli (GPa) = 72.82950 122.93790 39.89833
#
# Poissons Ratio (x) = 0.33359 -0.02434
# Poissons Ratio (y) = 0.19762 0.19290
# Poissons Ratio (z) = -0.04444 0.59439
#
# Static dielectric constant tensor:
#      x y z
#    x 1.950390 -0.055700 0.025920 
#    y -0.055700 1.828530 -0.011880 
#    z 0.025920 -0.011880 1.777100 
# 
# From -- ./inp_files/454720.got.cif
#   From: 2010.05.17/outbox.cif.g08.bks.cpg/sg2_228_cif.got.tgz:454720.got - 2010.06.03 11:33:40.
