data_PCOD9001698
_publ_section_title
;
Structure prediction by ZEFSAII (Michael W. Deem and Ramdas Pophale) SiO2 
 PCOD9001698
Probable space group: P -1
;
_chemical_formula_sum "Si O2"
_cell_formula_units_Z 16
_cell_length_a 10.275486
_cell_length_b 9.788564
_cell_length_c 7.476035
_cell_angle_alpha 77.998618
_cell_angle_beta 66.727397
_cell_angle_gamma 60.757596
_cell_volume 602.637662
_symmetry_space_group_name_H-M "P -1"
_symmetry_group_IT_number 2
_symmetry_cell_setting 'triclinic'
loop_
_space_group_symop_operation_xyz
x,y,z
-x,-y,-z
loop_
_atom_site_type_symbol
_atom_site_label
_atom_site_fract_x
_atom_site_fract_y
_atom_site_fract_z
Si Si1 0.663271 0.839815 0.249123
Si Si2 0.916659 0.930609 0.919993
Si Si3 0.302435 0.481088 0.579423
Si Si4 0.746002 0.196369 0.373734
Si Si5 0.317586 0.070884 0.373617
Si Si6 0.313634 0.467760 0.143962
Si Si7 0.360967 0.770155 0.973418
Si Si8 0.051188 0.405334 0.309326
O O1 0.636025 0.684444 0.308503
O O2 0.676853 0.867839 0.445432
O O3 0.500557 0.985861 0.229285
O O4 0.823504 0.835974 0.075565
O O5 0.067976 0.848600 0.733952
O O6 0.768155 0.086698 0.887457
O O7 0.000000 0.000000 0.000000
O O8 0.343556 0.621544 0.572682
O O9 0.321844 0.459851 0.358853
O O10 0.113939 0.554069 0.698541
O O11 0.670180 0.181039 0.230276
O O12 0.731582 0.067537 0.537604
O O13 0.178592 0.223485 0.314794
O O14 0.457484 0.305785 0.049122
O O15 0.153370 0.481163 0.144960
O O16 0.327206 0.620731 0.042072
O O17 0.000000 0.500000 0.500000
#
# Coordination Sequence:
#
# PCOD9001698 Si02
#       8
#     2   2   2   2   2   2   2   2
#     4  11  21  38  65  92 122 167 218 257 300 375
#     4  10  21  35  61  89 124 161 206 256 304 368
#     4  11  25  40  65  95 129 162 207 263 319 369
#     4  11  25  40  65  95 129 162 207 263 319 369
#     4  11  21  38  65  92 122 167 218 257 300 375
#     4  10  21  38  63  90 123 164 209 255 307 373
#     4  10  21  38  63  90 123 164 209 255 307 373
#     4  10  21  35  61  89 124 161 206 256 304 368
#
# _framework density 26.549949999999999
#
# number of rings (size 3 to 8) (size 9 to 14) (size 15 to 20)
#    0.000    1.500    5.000    1.500    7.000    3.000 
#    0.000    0.000    0.000    1.500    0.000    0.000 
#    0.000    0.000    0.000    0.000    0.000    0.000 
#
# Total GULP energy -89488.187301 kJ/mol
# GULP energy per Si atom -5593.011706 kJ/mol
# Density = 2.648952 g / cm^3
# Si number density = 26.549950 Si / 1000 Ang^3
#
#
#
# Elastic Constant Matrix: (Units=GPa)
#
#
# Indices 1 2 3 4 5 6 
#
# 1 49.2087 14.9028 44.8344 11.1090 5.0918 -1.0508
# 2 14.9028 168.9240 31.4637 -2.4326 -5.6226 -1.0474
# 3 44.8344 31.4637 81.0834 -1.3669 -12.7762 1.0314
# 4 11.1090 -2.4326 -1.3669 41.8580 -4.7727 -13.3024
# 5 5.0918 -5.6226 -12.7762 -4.7727 50.5281 2.7026
# 6 -1.0508 -1.0474 1.0314 -13.3024 2.7026 45.7891
#
#
#
# Elastic Compliance Matrix: (Units=1/GPa)
#
#
# Indices 1 2 3 4 5 6 
#
# 1 0.058424 0.000603 -0.035427 -0.019293 -0.016468 -0.002480
# 2 0.000603 0.006395 -0.002825 0.000204 -0.000059 0.000286
# 3 -0.035427 -0.002825 0.035304 0.012256 0.013281 0.001104
# 4 -0.019293 0.000204 0.012256 0.032977 0.007731 0.008410
# 5 -0.016468 -0.000059 0.013281 0.007731 0.025529 0.000061
# 6 -0.002480 0.000286 0.001104 0.008410 0.000061 0.024204
#
#
# Mechanical properties :
#
#
# Convention : Reuss Voigt Hill
#
# Bulk Modulus (GPa) = 40.28264 53.51310 46.89787
# Shear Modulus (GPa) = 18.76842 41.50272 30.13557
#
# Velocity S-wave (km/s) = 2.66166 3.95801 3.37271
# Velocity P-wave (km/s) = 4.96500 6.40993 5.73317
#
# Compressibility (1/GPa) = 0.02482459
#
# Stress axis : x y z
#
# Youngs Moduli (GPa) = 17.11640 156.36027 28.32575
#
# Poissons Ratio (x) = -0.09430 1.00351
# Poissons Ratio (y) = -0.01032 0.08001
# Poissons Ratio (z) = 0.60639 0.44168
#
# Static dielectric constant tensor:
#      x y z
#    x 2.170370 0.169800 0.026700 
#    y 0.169800 2.338290 0.135620 
#    z 0.026700 0.135620 2.128220 
# 
# From -- ./inp_files/419296.got.cif
#   From: 2010.05.17/outbox.cif.g08.bks.cpg/sg2_210_cif.got.tgz:419296.got - 2010.06.03 11:33:40.
