data_PCOD9001519
_publ_section_title
;
Structure prediction by ZEFSAII (Michael W. Deem and Ramdas Pophale) SiO2 
 PCOD9001519
Probable space group: P -1
;
_chemical_formula_sum "Si O2"
_cell_formula_units_Z 14
_cell_length_a 6.546055
_cell_length_b 19.553743
_cell_length_c 15.257566
_cell_angle_alpha 152.796539
_cell_angle_beta 126.544152
_cell_angle_gamma 55.985635
_cell_volume 714.907147
_symmetry_space_group_name_H-M "P -1"
_symmetry_group_IT_number 2
_symmetry_cell_setting 'triclinic'
loop_
_space_group_symop_operation_xyz
x,y,z
-x,-y,-z
loop_
_atom_site_type_symbol
_atom_site_label
_atom_site_fract_x
_atom_site_fract_y
_atom_site_fract_z
Si Si1 0.768663 0.572712 0.645860
Si Si2 0.399300 0.844614 0.547221
Si Si3 0.724958 0.622392 0.496919
Si Si4 0.265748 0.405657 0.143893
Si Si5 0.529785 0.160724 0.645981
Si Si6 0.044440 0.375916 0.796020
Si Si7 0.091298 0.116526 0.731404
O O1 0.500000 0.500000 0.500000
O O2 0.763554 0.661600 0.653992
O O3 0.775344 0.648271 0.828680
O O4 0.008351 0.449393 0.555276
O O5 0.606143 0.764231 0.573240
O O6 0.499407 0.849331 0.478444
O O7 0.161582 0.742670 0.374454
O O8 0.268121 0.010843 0.720130
O O9 0.522554 0.492069 0.295225
O O10 0.039271 0.532697 0.208686
O O11 0.248723 0.258492 0.911361
O O12 0.320938 0.290889 0.768150
O O13 0.818555 0.191424 0.777545
O O14 0.500000 0.000000 0.500000
O O15 0.000000 0.500000 0.000000
O O16 0.000000 0.000000 0.500000
#
# Coordination Sequence:
#
# PCOD9001519 Si02
#       7
#     2   2   2   2   2   2   2
#     4   9  18  37  62  87 111 138 187 247 298 350
#     4  10  21  37  55  81 115 152 196 235 289 351
#     4   9  19  37  63  85 109 145 187 246 302 337
#     4  10  21  35  57  87 116 147 195 239 287 340
#     4  11  22  36  56  78 116 164 198 233 291 336
#     4  11  22  35  56  84 115 152 201 247 279 338
#     4  10  21  38  55  80 123 161 193 233 282 346
#
# _framework density 19.582961000000001
#
# number of rings (size 3 to 8) (size 9 to 14) (size 15 to 20)
#    0.000    2.000    1.429    2.571    2.000    4.571 
#    0.000    0.714    0.000    7.714    0.000    0.000 
#    0.000    0.000    0.000    0.000    0.000    0.000 
#
# Total GULP energy -77982.440382 kJ/mol
# GULP energy per Si atom -5570.174313 kJ/mol
# Density = 1.953839 g / cm^3
# Si number density = 19.582961 Si / 1000 Ang^3
#
#
#
# Elastic Constant Matrix: (Units=GPa)
#
#
# Indices 1 2 3 4 5 6 
#
# 1 95.0974 63.0796 24.0573 3.7998 -14.8727 -19.6661
# 2 63.0796 174.6594 38.2696 19.8821 -10.1261 -9.7940
# 3 24.0573 38.2696 69.0194 14.3915 -1.2746 -2.7029
# 4 3.7998 19.8821 14.3915 29.1591 1.4962 -5.9095
# 5 -14.8727 -10.1261 -1.2746 1.4962 22.5090 5.1679
# 6 -19.6661 -9.7940 -2.7029 -5.9095 5.1679 46.5568
#
#
#
# Elastic Compliance Matrix: (Units=1/GPa)
#
#
# Indices 1 2 3 4 5 6 
#
# 1 0.016844 -0.005010 -0.003518 0.003711 0.007160 0.005533
# 2 -0.005010 0.008478 -0.002068 -0.004381 0.000934 -0.001112
# 3 -0.003518 -0.002068 0.018324 -0.007441 -0.001343 -0.001653
# 4 0.003711 -0.004381 -0.007441 0.041894 -0.004099 0.005987
# 5 0.007160 0.000934 -0.001343 -0.004099 0.050458 -0.002979
# 6 0.005533 -0.001112 -0.001653 0.005987 -0.002979 0.024577
#
#
# Mechanical properties :
#
#
# Convention : Reuss Voigt Hill
#
# Bulk Modulus (GPa) = 44.53418 65.50991 55.02205
# Shear Modulus (GPa) = 26.41984 33.86962 30.14473
#
# Velocity S-wave (km/s) = 3.67703 4.16329 3.92769
# Velocity P-wave (km/s) = 6.38890 7.52568 6.98047
#
# Compressibility (1/GPa) = 0.02245466
#
# Stress axis : x y z
#
# Youngs Moduli (GPa) = 59.36721 117.94992 54.57432
#
# Poissons Ratio (x) = 0.59088 0.19202
# Poissons Ratio (y) = 0.29741 0.11284
# Poissons Ratio (z) = 0.20888 0.24388
#
# Static dielectric constant tensor:
#      x y z
#    x 1.729430 0.032300 -0.019030 
#    y 0.032300 1.747640 -0.046080 
#    z -0.019030 -0.046080 1.704970 
# 
# From -- ./inp_files/214251.got.cif
#   From: 2010.05.17/outbox.cif.g08.bks.cpg/sg2_108_cif.got.tgz:214251.got - 2010.06.03 11:33:40.
