data_PCOD9001719
_publ_section_title
;
Structure prediction by ZEFSAII (Michael W. Deem and Ramdas Pophale) SiO2 
 PCOD9001719
Probable space group: P -1
;
_chemical_formula_sum "Si O2"
_cell_formula_units_Z 15
_cell_length_a 15.221889
_cell_length_b 10.794294
_cell_length_c 11.065596
_cell_angle_alpha 118.935411
_cell_angle_beta 140.623914
_cell_angle_gamma 35.096861
_cell_volume 605.645352
_symmetry_space_group_name_H-M "P -1"
_symmetry_group_IT_number 2
_symmetry_cell_setting 'triclinic'
loop_
_space_group_symop_operation_xyz
x,y,z
-x,-y,-z
loop_
_atom_site_type_symbol
_atom_site_label
_atom_site_fract_x
_atom_site_fract_y
_atom_site_fract_z
Si Si1 0.403034 0.217303 0.146145
Si Si2 0.238604 0.041231 0.804236
Si Si3 0.072279 0.036316 0.211728
Si Si4 0.696691 0.199317 0.013323
Si Si5 0.974223 0.735133 0.936665
Si Si6 0.500000 0.500000 0.500000
Si Si7 0.301063 0.565811 0.574536
Si Si8 0.629099 0.796186 0.632938
O O1 0.486648 0.108780 0.315903
O O2 0.604802 0.089438 0.209424
O O3 0.270500 0.181835 0.944046
O O4 0.247520 0.488488 0.129256
O O5 0.973376 0.209432 0.585198
O O6 0.338904 0.847343 0.918131
O O7 0.306417 0.773621 0.378543
O O8 0.070698 0.188633 0.214551
O O9 0.000000 0.000000 0.000000
O O10 0.879884 0.176165 0.176323
O O11 0.469003 0.432640 0.807522
O O12 0.838352 0.957181 0.979682
O O13 0.876623 0.666260 0.842789
O O14 0.375635 0.598276 0.554282
O O15 0.345123 0.374264 0.478854
O O16 0.500000 0.000000 0.500000
#
# Coordination Sequence:
#
# PCOD9001719 Si02
#       8
#     2   2   2   2   2   1   2   2
#     4  11  24  39  63  88 128 171 202 257 322 368
#     4  11  23  43  59  89 131 170 206 249 314 388
#     4  10  21  35  61  94 124 155 210 259 311 363
#     4  11  21  40  63  92 124 163 208 258 309 371
#     4  11  20  38  61  93 119 156 210 267 306 354
#     4  12  20  36  64 100 122 164 204 268 308 360
#     4  12  23  36  67  94 124 163 208 259 315 370
#     4  12  21  38  62  97 123 151 212 273 310 363
#
# _framework density 24.766967999999999
#
# number of rings (size 3 to 8) (size 9 to 14) (size 15 to 20)
#    0.000    0.800    8.000    1.200    1.867    0.000 
#    2.400    2.667    0.000    1.600    0.000    0.000 
#    0.000    0.000    0.000    0.000    0.000    0.000 
#
# Total GULP energy -83640.339769 kJ/mol
# GULP energy per Si atom -5576.022651 kJ/mol
# Density = 2.471060 g / cm^3
# Si number density = 24.766968 Si / 1000 Ang^3
#
#
#
# Elastic Constant Matrix: (Units=GPa)
#
#
# Indices 1 2 3 4 5 6 
#
# 1 254.7812 41.3560 91.2865 -27.4512 -23.8646 -15.7974
# 2 41.3560 82.4783 26.8657 -16.0081 -12.5275 -1.9931
# 3 91.2865 26.8657 136.9998 -47.8870 -16.0573 -8.7887
# 4 -27.4512 -16.0081 -47.8870 30.8163 11.8095 6.2498
# 5 -23.8646 -12.5275 -16.0573 11.8095 49.3134 -4.1883
# 6 -15.7974 -1.9931 -8.7887 6.2498 -4.1883 44.3783
#
#
#
# Elastic Compliance Matrix: (Units=1/GPa)
#
#
# Indices 1 2 3 4 5 6 
#
# 1 0.005689 -0.001823 -0.004459 -0.003911 0.001927 0.001793
# 2 -0.001823 0.014252 0.000924 0.006833 0.001347 -0.000661
# 3 -0.004459 0.000924 0.019532 0.028189 -0.002474 -0.001881
# 4 -0.003911 0.006833 0.028189 0.082344 -0.011392 -0.008174
# 5 0.001927 0.001347 -0.002474 -0.011392 0.023825 0.004109
# 6 0.001793 -0.000661 -0.001881 -0.008174 0.004109 0.024308
#
#
# Mechanical properties :
#
#
# Convention : Reuss Voigt Hill
#
# Bulk Modulus (GPa) = 34.77528 88.14176 61.45852
# Shear Modulus (GPa) = 26.28086 45.88502 36.08294
#
# Velocity S-wave (km/s) = 3.26103 4.30894 3.82107
# Velocity P-wave (km/s) = 5.31512 7.77313 6.65853
#
# Compressibility (1/GPa) = 0.02875606
#
# Stress axis : x y z
#
# Youngs Moduli (GPa) = 175.78276 70.16353 51.19806
#
# Poissons Ratio (x) = 0.12791 0.22831
# Poissons Ratio (y) = 0.32046 -0.04729
# Poissons Ratio (z) = 0.78387 -0.06481
#
# Static dielectric constant tensor:
#      x y z
#    x 1.998250 -0.004770 0.109100 
#    y -0.004770 1.960990 0.029220 
#    z 0.109100 0.029220 2.133470 
# 
# From -- ./inp_files/251382.got.cif
#   From: 2010.05.17/outbox.cif.g08.bks.cpg/sg2_126_cif.got.tgz:251382.got - 2010.06.03 11:33:40.
