data_PCOD9001573
_publ_section_title
;
Structure prediction by ZEFSAII (Michael W. Deem and Ramdas Pophale) SiO2 
 PCOD9001573
Probable space group: P -1
;
_chemical_formula_sum "Si O2"
_cell_formula_units_Z 16
_cell_length_a 9.724469
_cell_length_b 11.617062
_cell_length_c 7.998391
_cell_angle_alpha 110.798249
_cell_angle_beta 47.401556
_cell_angle_gamma 109.981318
_cell_volume 615.009577
_symmetry_space_group_name_H-M "P -1"
_symmetry_group_IT_number 2
_symmetry_cell_setting 'triclinic'
loop_
_space_group_symop_operation_xyz
x,y,z
-x,-y,-z
loop_
_atom_site_type_symbol
_atom_site_label
_atom_site_fract_x
_atom_site_fract_y
_atom_site_fract_z
Si Si1 0.969851 0.615375 0.194539
Si Si2 0.290842 0.934898 0.085032
Si Si3 0.634340 0.647918 0.710923
Si Si4 0.508669 0.798721 0.622350
Si Si5 0.107521 0.238608 0.158378
Si Si6 0.532400 0.625279 0.200445
Si Si7 0.778520 0.266739 0.675880
Si Si8 0.072376 0.120237 0.786676
O O1 0.105841 0.627233 0.249452
O O2 0.992084 0.746614 0.145797
O O3 0.761365 0.603324 0.434878
O O4 0.000000 0.500000 0.000000
O O5 0.349070 0.883474 0.826844
O O6 0.237357 0.852497 0.253316
O O7 0.090792 0.977641 0.216015
O O8 0.500000 0.000000 0.000000
O O9 0.492586 0.722984 0.770953
O O10 0.772697 0.746229 0.759099
O O11 0.548464 0.518765 0.797595
O O12 0.489990 0.697645 0.440482
O O13 0.718646 0.875772 0.462620
O O14 0.901205 0.254699 0.401725
O O15 0.243843 0.348834 0.004283
O O16 0.095772 0.130602 0.973291
O O17 0.421445 0.697073 0.192807
#
# Coordination Sequence:
#
# PCOD9001573 Si02
#       8
#     2   2   2   2   2   2   2   2
#     4   9  20  33  55  86 125 170 205 237 296 357
#     4  11  24  44  70  89 111 158 209 260 316 360
#     4  10  21  35  58  90 126 175 206 233 293 359
#     4  10  22  42  60  89 128 158 207 256 293 361
#     4  10  21  38  56  86 129 159 201 244 297 358
#     4  11  22  37  61  92 127 169 201 243 296 358
#     4  10  23  38  60  86 124 158 200 257 300 357
#     4   9  21  40  60  88 123 162 197 256 303 356
#
# _framework density 26.015854000000001
#
# number of rings (size 3 to 8) (size 9 to 14) (size 15 to 20)
#    0.000    2.000    0.000    3.000    7.000    1.500 
#    2.250    2.500    0.000    5.250    0.000    0.000 
#    0.000    0.000    0.000    0.000    0.000    0.000 
#
# Total GULP energy -89367.635775 kJ/mol
# GULP energy per Si atom -5585.477236 kJ/mol
# Density = 2.595664 g / cm^3
# Si number density = 26.015854 Si / 1000 Ang^3
#
#
#
# Elastic Constant Matrix: (Units=GPa)
#
#
# Indices 1 2 3 4 5 6 
#
# 1 87.7100 7.2630 10.9253 -11.7812 9.3170 10.3094
# 2 7.2630 98.5384 36.2537 -10.0473 4.1646 20.2269
# 3 10.9253 36.2537 143.7558 -8.5783 -5.3488 5.0988
# 4 -11.7812 -10.0473 -8.5783 25.9034 11.5440 -6.0173
# 5 9.3170 4.1646 -5.3488 11.5440 48.3328 -7.7922
# 6 10.3094 20.2269 5.0988 -6.0173 -7.7922 26.8318
#
#
#
# Elastic Compliance Matrix: (Units=1/GPa)
#
#
# Indices 1 2 3 4 5 6 
#
# 1 0.013774 0.001677 -0.001002 0.007685 -0.005765 -0.006317
# 2 0.001677 0.014159 -0.003201 0.004778 -0.004818 -0.011037
# 3 -0.001002 -0.003201 0.007869 0.000688 0.001480 0.001886
# 4 0.007685 0.004778 0.000688 0.050464 -0.013768 0.000633
# 5 -0.005765 -0.004818 0.001480 -0.013768 0.027348 0.010420
# 6 -0.006317 -0.011037 0.001886 0.000633 0.010420 0.050827
#
#
# Mechanical properties :
#
#
# Convention : Reuss Voigt Hill
#
# Bulk Modulus (GPa) = 32.51913 48.76535 40.64224
# Shear Modulus (GPa) = 27.81767 38.58441 33.20104
#
# Velocity S-wave (km/s) = 3.27350 3.85530 3.57625
# Velocity P-wave (km/s) = 5.17828 6.21312 5.71916
#
# Compressibility (1/GPa) = 0.03075113
#
# Stress axis : x y z
#
# Youngs Moduli (GPa) = 72.59950 70.62757 127.08486
#
# Poissons Ratio (x) = -0.11845 0.12729
# Poissons Ratio (y) = -0.12176 0.40678
# Poissons Ratio (z) = 0.07272 0.22607
#
# Static dielectric constant tensor:
#      x y z
#    x 2.101720 -0.008000 0.045190 
#    y -0.008000 2.108140 0.003130 
#    z 0.045190 0.003130 2.078080 
# 
# From -- ./inp_files/270825.got.cif
#   From: 2010.05.17/outbox.cif.g08.bks.cpg/sg2_136_cif.got.tgz:270825.got - 2010.06.03 11:33:40.
