data_PCOD9001710
_publ_section_title
;
Structure prediction by ZEFSAII (Michael W. Deem and Ramdas Pophale) SiO2 
 PCOD9001710
Probable space group: P -1
;
_chemical_formula_sum "Si O2"
_cell_formula_units_Z 16
_cell_length_a 19.647968
_cell_length_b 11.496624
_cell_length_c 11.621468
_cell_angle_alpha 62.457089
_cell_angle_beta 39.876156
_cell_angle_gamma 32.490896
_cell_volume 762.728027
_symmetry_space_group_name_H-M "P -1"
_symmetry_group_IT_number 2
_symmetry_cell_setting 'triclinic'
loop_
_space_group_symop_operation_xyz
x,y,z
-x,-y,-z
loop_
_atom_site_type_symbol
_atom_site_label
_atom_site_fract_x
_atom_site_fract_y
_atom_site_fract_z
Si Si1 0.122955 0.648064 0.622485
Si Si2 0.404697 0.388414 0.156356
Si Si3 0.655671 0.723613 0.971813
Si Si4 0.804840 0.800294 0.869555
Si Si5 0.515489 0.605165 0.593175
Si Si6 0.616301 0.205260 0.582123
Si Si7 0.980490 0.676727 0.459275
Si Si8 0.268162 0.789706 0.039377
O O1 0.223011 0.553993 0.408913
O O2 0.320063 0.465898 0.533825
O O3 0.977759 0.669965 0.795124
O O4 0.956956 0.935394 0.743738
O O5 0.566875 0.308305 0.053533
O O6 0.325188 0.578119 0.078349
O O7 0.568128 0.094047 0.066116
O O8 0.539372 0.728350 0.180913
O O9 0.797978 0.653967 0.910385
O O10 0.784064 0.538292 0.778389
O O11 0.500000 0.000000 0.000000
O O12 0.868858 0.809748 0.665117
O O13 0.614928 0.353366 0.568097
O O14 0.447893 0.717938 0.502257
O O15 0.316032 0.792978 0.848184
O O16 0.839125 0.902010 0.449204
O O17 0.000000 0.500000 0.500000
#
# Coordination Sequence:
#
# PCOD9001710 Si02
#       8
#     2   2   2   2   2   2   2   2
#     4  10  21  37  58  89 126 158 205 250 307 366
#     4   9  18  32  56  87 122 162 193 257 305 356
#     4  11  23  40  63  92 122 157 203 260 306 355
#     4  10  21  35  61  92 122 152 200 260 311 355
#     4  10  24  41  61  88 130 171 199 244 301 374
#     4  11  23  43  63  89 126 166 208 246 302 369
#     4  10  21  38  64  95 120 156 206 260 308 357
#     4   9  18  34  54  85 123 159 207 243 302 363
#
# _framework density 20.977332000000001
#
# number of rings (size 3 to 8) (size 9 to 14) (size 15 to 20)
#    0.000    2.000    2.500    1.125    1.750    5.000 
#    0.000    3.125    0.000   12.750    0.000    0.000 
#    0.000    0.000    0.000    0.000    0.000    0.000 
#
# Total GULP energy -89083.967541 kJ/mol
# GULP energy per Si atom -5567.747971 kJ/mol
# Density = 2.092959 g / cm^3
# Si number density = 20.977332 Si / 1000 Ang^3
#
#
#
# Elastic Constant Matrix: (Units=GPa)
#
#
# Indices 1 2 3 4 5 6 
#
# 1 49.5203 -10.5002 -12.1829 -0.3487 -10.4206 6.6684
# 2 -10.5002 49.5001 15.8028 5.4785 6.2529 -0.3127
# 3 -12.1829 15.8028 101.1446 26.6361 16.3640 -13.8513
# 4 -0.3487 5.4785 26.6361 25.7930 0.0014 0.6669
# 5 -10.4206 6.2529 16.3640 0.0014 38.6027 1.1033
# 6 6.6684 -0.3127 -13.8513 0.6669 1.1033 20.8453
#
#
#
# Elastic Compliance Matrix: (Units=1/GPa)
#
#
# Indices 1 2 3 4 5 6 
#
# 1 0.023362 0.004141 0.000470 -0.000859 0.005647 -0.007370
# 2 0.004141 0.022277 -0.002630 -0.001892 -0.001301 -0.002609
# 3 0.000470 -0.002630 0.018249 -0.018615 -0.007552 0.012932
# 4 -0.000859 -0.001892 -0.018615 0.058757 0.008376 -0.014446
# 5 0.005647 -0.001301 -0.007552 0.008376 0.031091 -0.008758
# 6 -0.007370 -0.002609 0.012932 -0.014446 -0.008758 0.059810
#
#
# Mechanical properties :
#
#
# Convention : Reuss Voigt Hill
#
# Bulk Modulus (GPa) = 14.73840 20.71161 17.72501
# Shear Modulus (GPa) = 21.53298 30.85124 26.19211
#
# Velocity S-wave (km/s) = 3.20736 3.83912 3.53737
# Velocity P-wave (km/s) = 4.55602 5.43568 5.01517
#
# Compressibility (1/GPa) = 0.06784998
#
# Stress axis : x y z
#
# Youngs Moduli (GPa) = 42.80421 44.88870 54.79653
#
# Poissons Ratio (x) = -0.18587 -0.02577
# Poissons Ratio (y) = -0.17724 0.14414
# Poissons Ratio (z) = -0.02013 0.11808
#
# Static dielectric constant tensor:
#      x y z
#    x 1.933890 0.009240 -0.046440 
#    y 0.009240 1.705140 0.031280 
#    z -0.046440 0.031280 1.824200 
# 
# From -- ./inp_files/471174.got.cif
#   From: 2010.05.17/outbox.cif.g08.bks.cpg/sg2_236_cif.got.tgz:471174.got - 2010.06.03 11:33:40.
