data_PCOD9001008
_publ_section_title
;
Structure prediction by ZEFSAII (Michael W. Deem and Ramdas Pophale) SiO2 
 PCOD9001008
Probable space group: P -1
;
_chemical_formula_sum "Si O2"
_cell_formula_units_Z 16
_cell_length_a 15.274983
_cell_length_b 8.114818
_cell_length_c 9.750600
_cell_angle_alpha 48.426751
_cell_angle_beta 117.429196
_cell_angle_gamma 81.781560
_cell_volume 591.656909
_symmetry_space_group_name_H-M "P -1"
_symmetry_group_IT_number 2
_symmetry_cell_setting 'triclinic'
loop_
_space_group_symop_operation_xyz
x,y,z
-x,-y,-z
loop_
_atom_site_type_symbol
_atom_site_label
_atom_site_fract_x
_atom_site_fract_y
_atom_site_fract_z
Si Si1 0.485472 0.444481 0.243689
Si Si2 0.203337 0.862803 0.164830
Si Si3 0.329855 0.032304 0.001546
Si Si4 0.669714 0.631941 0.681299
Si Si5 0.129836 0.337689 0.279416
Si Si6 0.633616 0.559145 0.128322
Si Si7 0.847449 0.174201 0.307227
Si Si8 0.908102 0.346796 0.649652
O O1 0.431616 0.438426 0.060116
O O2 0.400289 0.750608 0.105171
O O3 0.472431 0.239352 0.435840
O O4 0.608984 0.410122 0.306349
O O5 0.282414 0.971751 0.137898
O O6 0.061809 0.110314 0.843660
O O7 0.302052 0.538902 0.343859
O O8 0.152080 0.808244 0.291304
O O9 0.416571 0.125121 0.034673
O O10 0.194919 0.328777 0.670705
O O11 0.733393 0.777147 0.628700
O O12 0.770828 0.371859 0.009343
O O13 0.085954 0.575535 0.231753
O O14 0.164435 0.062704 0.534310
O O15 0.000000 0.500000 0.000000
O O16 0.781898 0.386325 0.274971
O O17 0.000000 0.000000 0.500000
#
# Coordination Sequence:
#
# PCOD9001008 Si02
#       8
#     2   2   2   2   2   2   2   2
#     4   9  20  42  59  89 118 150 209 244 285 352
#     4   9  20  34  51  81 121 152 189 238 291 352
#     4  11  21  37  64  84 113 160 197 240 301 340
#     4   9  19  37  57  79 117 159 186 246 291 343
#     4  11  21  34  55  83 119 160 193 234 299 352
#     4  10  22  37  65  87 116 159 196 247 294 348
#     4  11  22  34  55  89 119 146 195 240 289 357
#     4  10  21  33  52  84 121 153 195 242 287 357
#
# _framework density 27.0427
#
# number of rings (size 3 to 8) (size 9 to 14) (size 15 to 20)
#    0.000    2.000    1.250    3.000    3.500    1.000 
#    0.000    0.625    0.000   19.500    0.000    0.000 
#    0.000    0.000    0.000    0.000    0.000    0.000 
#
# Total GULP energy -89363.728061 kJ/mol
# GULP energy per Si atom -5585.233004 kJ/mol
# Density = 2.698115 g / cm^3
# Si number density = 27.042700 Si / 1000 Ang^3
#
#
#
# Elastic Constant Matrix: (Units=GPa)
#
#
# Indices 1 2 3 4 5 6 
#
# 1 218.5156 47.8085 37.0220 -3.2243 -24.0880 32.5303
# 2 47.8085 122.7460 25.9253 -15.4365 1.5847 18.0188
# 3 37.0220 25.9253 91.6638 -9.1580 -16.4304 12.7669
# 4 -3.2243 -15.4365 -9.1580 39.7058 8.6033 -2.7981
# 5 -24.0880 1.5847 -16.4304 8.6033 53.3900 -6.2055
# 6 32.5303 18.0188 12.7669 -2.7981 -6.2055 46.0372
#
#
#
# Elastic Compliance Matrix: (Units=1/GPa)
#
#
# Indices 1 2 3 4 5 6 
#
# 1 0.005811 -0.001768 -0.001175 -0.001158 0.002166 -0.002866
# 2 -0.001768 0.010074 -0.001902 0.003725 -0.002547 -0.002283
# 3 -0.001175 -0.001902 0.012815 0.001349 0.003080 -0.001482
# 4 -0.001158 0.003725 0.001349 0.027873 -0.004704 0.000046
# 5 0.002166 -0.002547 0.003080 -0.004704 0.021633 0.001243
# 6 -0.002866 -0.002283 -0.001482 0.000046 0.001243 0.025222
#
#
# Mechanical properties :
#
#
# Convention : Reuss Voigt Hill
#
# Bulk Modulus (GPa) = 52.60204 72.71520 62.65862
# Shear Modulus (GPa) = 41.85731 49.30456 45.58094
#
# Velocity S-wave (km/s) = 3.93851 4.27454 4.10996
# Velocity P-wave (km/s) = 6.33847 7.16308 6.76335
#
# Compressibility (1/GPa) = 0.01901067
#
# Stress axis : x y z
#
# Youngs Moduli (GPa) = 172.09999 99.26920 78.03220
#
# Poissons Ratio (x) = 0.17548 0.09169
# Poissons Ratio (y) = 0.30423 0.14838
# Poissons Ratio (z) = 0.20223 0.18877
#
# Static dielectric constant tensor:
#      x y z
#    x 2.159540 0.051380 0.108800 
#    y 0.051380 2.200300 0.015430 
#    z 0.108800 0.015430 2.304820 
# 
# From -- ./inp_files/446658.got.cif
#   From: 2010.05.17/outbox.cif.g08.bks.cpg/sg2_224_cif.got.tgz:446658.got - 2010.06.03 11:33:40.
