data_PCOD9001646
_publ_section_title
;
Structure prediction by ZEFSAII (Michael W. Deem and Ramdas Pophale) SiO2 
 PCOD9001646
Probable space group: P -1
;
_chemical_formula_sum "Si O2"
_cell_formula_units_Z 16
_cell_length_a 11.636124
_cell_length_b 16.291880
_cell_length_c 23.642857
_cell_angle_alpha 32.072479
_cell_angle_beta 21.621415
_cell_angle_gamma 33.246067
_cell_volume 849.494520
_symmetry_space_group_name_H-M "P -1"
_symmetry_group_IT_number 2
_symmetry_cell_setting 'triclinic'
loop_
_space_group_symop_operation_xyz
x,y,z
-x,-y,-z
loop_
_atom_site_type_symbol
_atom_site_label
_atom_site_fract_x
_atom_site_fract_y
_atom_site_fract_z
Si Si1 0.617095 0.762287 0.467655
Si Si2 0.566682 0.661423 0.901112
Si Si3 0.228461 0.515862 0.744540
Si Si4 0.819990 0.379087 0.793341
Si Si5 0.467172 0.185121 0.400139
Si Si6 0.698884 0.864129 0.621749
Si Si7 0.840018 0.414487 0.076237
Si Si8 0.743888 0.396135 0.493051
O O1 0.390948 0.643081 0.626717
O O2 0.714007 0.740498 0.502766
O O3 0.921116 0.723004 0.309098
O O4 0.419183 0.945617 0.440301
O O5 0.526431 0.792779 0.793323
O O6 0.937224 0.613265 0.781328
O O7 0.500000 0.500000 0.000000
O O8 0.334599 0.705465 0.036352
O O9 0.520839 0.396666 0.648789
O O10 0.056560 0.414358 0.922722
O O11 0.517011 0.480305 0.837185
O O12 0.005469 0.497285 0.670033
O O13 0.350364 0.208388 0.375207
O O14 0.792917 0.245245 0.216412
O O15 0.500000 0.000000 0.500000
O O16 0.075845 0.779333 0.507914
O O17 0.000000 0.500000 0.000000
O O18 0.500000 0.500000 0.500000
#
# Coordination Sequence:
#
# PCOD9001646 Si02
#       8
#     2   2   2   2   2   2   2   2
#     4  10  23  39  58  91 123 162 203 253 305 368
#     4  11  19  37  61  85 118 157 204 255 300 363
#     4  10  21  35  60  88 122 147 207 259 294 362
#     4  10  22  37  60  91 122 156 211 254 301 365
#     4  10  21  39  62  88 124 159 205 247 307 362
#     4  11  21  37  64  83 124 166 198 246 321 350
#     4  11  20  37  64  90 116 162 202 253 310 356
#     4  11  19  36  59  92 115 161 205 251 295 375
#
# _framework density 18.83473
#
# number of rings (size 3 to 8) (size 9 to 14) (size 15 to 20)
#    0.000    1.500    5.000    0.750    0.000    2.500 
#    0.000    0.000   16.500    4.500    0.000    0.000 
#    0.000    0.000    0.000    0.000    0.000    0.000 
#
# Total GULP energy -89105.063816 kJ/mol
# GULP energy per Si atom -5569.066489 kJ/mol
# Density = 1.879186 g / cm^3
# Si number density = 18.834730 Si / 1000 Ang^3
#
#
#
# Elastic Constant Matrix: (Units=GPa)
#
#
# Indices 1 2 3 4 5 6 
#
# 1 84.1863 13.9149 37.7114 2.0888 5.7835 -0.9957
# 2 13.9149 72.9104 57.4726 5.7802 8.1223 12.6503
# 3 37.7114 57.4726 124.1855 6.7622 21.8750 2.0334
# 4 2.0888 5.7802 6.7622 34.9192 -0.4533 3.8585
# 5 5.7835 8.1223 21.8750 -0.4533 42.7396 3.8072
# 6 -0.9957 12.6503 2.0334 3.8585 3.8072 21.1837
#
#
#
# Elastic Compliance Matrix: (Units=1/GPa)
#
#
# Indices 1 2 3 4 5 6 
#
# 1 0.013810 0.000949 -0.004687 -0.000127 0.000304 0.000501
# 2 0.000949 0.025428 -0.012263 -0.000268 0.002594 -0.014381
# 3 -0.004687 -0.012263 0.016176 -0.001664 -0.005949 0.006922
# 4 -0.000127 -0.000268 -0.001664 0.029630 0.001715 -0.005391
# 5 0.000304 0.002594 -0.005949 0.001715 0.026464 -0.006032
# 6 0.000501 -0.014381 0.006922 -0.005391 -0.006032 0.057219
#
#
# Mechanical properties :
#
#
# Convention : Reuss Voigt Hill
#
# Bulk Modulus (GPa) = 42.71569 55.49776 49.10673
# Shear Modulus (GPa) = 23.97692 31.24739 27.61215
#
# Velocity S-wave (km/s) = 3.57181 4.07754 3.83302
# Velocity P-wave (km/s) = 6.30388 7.19014 6.76154
#
# Compressibility (1/GPa) = 0.02341060
#
# Stress axis : x y z
#
# Youngs Moduli (GPa) = 72.41366 39.32617 61.81857
#
# Poissons Ratio (x) = -0.03731 0.28977
# Poissons Ratio (y) = -0.06870 0.75808
# Poissons Ratio (z) = 0.33944 0.48226
#
# Static dielectric constant tensor:
#      x y z
#    x 1.754140 -0.022570 0.048720 
#    y -0.022570 1.668130 0.006820 
#    z 0.048720 0.006820 1.679460 
# 
# From -- ./inp_files/244680.got.cif
#   From: 2010.05.17/outbox.cif.g08.bks.cpg/sg2_123_cif.got.tgz:244680.got - 2010.06.03 11:33:40.
