data_PCOD9001177
_publ_section_title
;
Structure prediction by ZEFSAII (Michael W. Deem and Ramdas Pophale) SiO2 
 PCOD9001177
Probable space group: P -1
;
_chemical_formula_sum "Si O2"
_cell_formula_units_Z 16
_cell_length_a 5.382463
_cell_length_b 15.239198
_cell_length_c 20.411998
_cell_angle_alpha 155.033749
_cell_angle_beta 72.419752
_cell_angle_gamma 109.275034
_cell_volume 667.058555
_symmetry_space_group_name_H-M "P -1"
_symmetry_group_IT_number 2
_symmetry_cell_setting 'triclinic'
loop_
_space_group_symop_operation_xyz
x,y,z
-x,-y,-z
loop_
_atom_site_type_symbol
_atom_site_label
_atom_site_fract_x
_atom_site_fract_y
_atom_site_fract_z
Si Si1 0.458617 0.852713 0.569468
Si Si2 0.232409 0.876758 0.465555
Si Si3 0.172081 0.395913 0.133119
Si Si4 0.926276 0.196753 0.756268
Si Si5 0.767352 0.619513 0.026942
Si Si6 0.585606 0.406200 0.225929
Si Si7 0.295981 0.274359 0.294572
Si Si8 0.719160 0.244370 0.338342
O O1 0.265476 0.833849 0.511087
O O2 0.623990 0.657349 0.410808
O O3 0.319974 0.822387 0.629103
O O4 0.635462 0.077688 0.709424
O O5 0.190710 0.645196 0.284210
O O6 0.500000 0.000000 0.500000
O O7 0.034172 0.045065 0.593273
O O8 0.245705 0.305343 0.995733
O O9 0.383764 0.370913 0.156554
O O10 0.868725 0.336286 0.140058
O O11 0.950355 0.432828 0.888871
O O12 0.088858 0.210081 0.819618
O O13 0.500000 0.500000 0.000000
O O14 0.446568 0.302995 0.232723
O O15 0.473537 0.165462 0.257615
O O16 0.272524 0.502046 0.483898
O O17 0.991424 0.182504 0.247804
#
# Coordination Sequence:
#
# PCOD9001177 Si02
#       8
#     2   2   2   2   2   2   2   2
#     4  10  21  34  55  90 120 155 202 245 299 356
#     4  11  23  37  59  87 125 158 200 253 310 357
#     4  11  23  38  62  88 122 160 204 247 304 354
#     4  11  23  40  62  79 122 158 209 251 302 353
#     4  11  26  42  58  83 118 165 213 251 298 356
#     4  10  21  36  59  90 124 155 198 249 299 370
#     4   9  17  32  51  83 120 157 186 232 306 357
#     4   9  18  29  54  80 122 157 187 235 295 365
#
# _framework density 23.985900000000001
#
# number of rings (size 3 to 8) (size 9 to 14) (size 15 to 20)
#    0.000    1.750    1.250    3.000    8.750    4.000 
#    0.000    0.000    0.000    0.000    0.000    5.250 
#    0.000    0.000    0.000    0.000    0.000    0.000 
#
# Total GULP energy -89434.233368 kJ/mol
# GULP energy per Si atom -5589.639586 kJ/mol
# Density = 2.393131 g / cm^3
# Si number density = 23.985900 Si / 1000 Ang^3
#
#
#
# Elastic Constant Matrix: (Units=GPa)
#
#
# Indices 1 2 3 4 5 6 
#
# 1 126.4111 39.0842 29.7834 -30.0825 10.8094 7.4804
# 2 39.0842 67.0589 21.9067 -36.9225 2.2415 -10.0293
# 3 29.7834 21.9067 75.3123 -24.6422 14.8424 -12.7014
# 4 -30.0825 -36.9225 -24.6422 36.2409 -10.5668 4.1466
# 5 10.8094 2.2415 14.8424 -10.5668 33.4145 -13.2876
# 6 7.4804 -10.0293 -12.7014 4.1466 -13.2876 32.4156
#
#
#
# Elastic Compliance Matrix: (Units=1/GPa)
#
#
# Indices 1 2 3 4 5 6 
#
# 1 0.011657 -0.006736 -0.002912 0.000254 -0.005150 -0.008059
# 2 -0.006736 0.046048 0.004265 0.047847 0.020121 0.019600
# 3 -0.002912 0.004265 0.019099 0.013929 -0.000435 0.007515
# 4 0.000254 0.047847 0.013929 0.091748 0.027362 0.019682
# 5 -0.005150 0.020121 -0.000435 0.027362 0.048480 0.023616
# 6 -0.008059 0.019600 0.007515 0.019682 0.023616 0.048881
#
#
# Mechanical properties :
#
#
# Convention : Reuss Voigt Hill
#
# Bulk Modulus (GPa) = 15.14241 50.03676 32.58958
# Shear Modulus (GPa) = 16.73964 32.28141 24.51053
#
# Velocity S-wave (km/s) = 2.64464 3.67256 3.20014
# Velocity P-wave (km/s) = 3.95629 6.23617 5.22217
#
# Compressibility (1/GPa) = 0.06603971
#
# Stress axis : x y z
#
# Youngs Moduli (GPa) = 85.78443 21.71628 52.35765
#
# Poissons Ratio (x) = 0.14629 0.15244
# Poissons Ratio (y) = 0.57787 -0.22332
# Poissons Ratio (z) = 0.24977 -0.09263
#
# Static dielectric constant tensor:
#      x y z
#    x 2.045770 0.041640 -0.130430 
#    y 0.041640 1.926990 -0.013800 
#    z -0.130430 -0.013800 1.984460 
# 
# From -- ./inp_files/92929.got.cif
#   From: 2010.05.17/outbox.cif.g08.bks.cpg/sg2_47_cif.got.tgz:92929.got - 2010.06.03 11:33:40.
