data_PCOD9001977
_publ_section_title
;
Structure prediction by ZEFSAII (Michael W. Deem and Ramdas Pophale) SiO2 
 PCOD9001977
Probable space group: P -1
;
_chemical_formula_sum "Si O2"
_cell_formula_units_Z 14
_cell_length_a 9.267648
_cell_length_b 13.595283
_cell_length_c 14.568519
_cell_angle_alpha 150.553692
_cell_angle_beta 54.428676
_cell_angle_gamma 106.473094
_cell_volume 609.250754
_symmetry_space_group_name_H-M "P -1"
_symmetry_group_IT_number 2
_symmetry_cell_setting 'triclinic'
loop_
_space_group_symop_operation_xyz
x,y,z
-x,-y,-z
loop_
_atom_site_type_symbol
_atom_site_label
_atom_site_fract_x
_atom_site_fract_y
_atom_site_fract_z
Si Si1 0.912097 0.368759 0.867271
Si Si2 0.428127 0.669836 0.338372
Si Si3 0.803534 0.203851 0.145374
Si Si4 0.571530 0.284073 0.129735
Si Si5 0.783426 0.757904 0.787617
Si Si6 0.731029 0.999524 0.174516
Si Si7 0.000661 0.098457 0.436362
O O1 0.992655 0.280730 0.662420
O O2 0.653312 0.544738 0.101302
O O3 0.984879 0.123892 0.696522
O O4 0.000000 0.500000 0.000000
O O5 0.391953 0.885270 0.593109
O O6 0.215473 0.768044 0.436732
O O7 0.468487 0.469277 0.234387
O O8 0.653837 0.367757 0.252135
O O9 0.843323 0.945824 0.892786
O O10 0.738229 0.197842 0.269473
O O11 0.019589 0.190641 0.051365
O O12 0.391503 0.252160 0.212341
O O13 0.777762 0.041569 0.814743
O O14 0.000000 0.500000 0.500000
O O15 0.671649 0.864105 0.015344
#
# Coordination Sequence:
#
# PCOD9001977 Si02
#       7
#     2   2   2   2   2   2   2
#     4  10  24  44  70  97 117 161 205 254 321 382
#     4  11  22  42  63  91 122 165 199 254 322 359
#     4   9  19  38  54  82 122 166 202 250 287 354
#     4  11  22  37  62  87 123 166 205 250 308 361
#     4  10  21  36  55  87 122 165 209 252 300 351
#     4   9  20  37  59  83 124 162 207 250 301 357
#     4  10  23  45  65  91 133 154 204 262 310 379
#
# _framework density 22.979044999999999
#
# number of rings (size 3 to 8) (size 9 to 14) (size 15 to 20)
#    0.857    1.143    1.429    1.714    2.000    1.143 
#    2.571    0.000    0.000    0.000    0.000    0.000 
#    0.000    0.000    0.000    0.000    0.000    0.000 
#
# Total GULP energy -78025.547331 kJ/mol
# GULP energy per Si atom -5573.253381 kJ/mol
# Density = 2.292674 g / cm^3
# Si number density = 22.979045 Si / 1000 Ang^3
#
#
#
# Elastic Constant Matrix: (Units=GPa)
#
#
# Indices 1 2 3 4 5 6 
#
# 1 106.2066 14.4820 46.0747 2.8870 -12.5744 -22.3754
# 2 14.4820 25.4073 19.3792 -5.7191 -4.5686 -14.5841
# 3 46.0747 19.3792 114.4355 -17.6845 -9.4861 -21.6831
# 4 2.8870 -5.7191 -17.6845 29.0638 -10.4619 4.0318
# 5 -12.5744 -4.5686 -9.4861 -10.4619 51.8237 4.3497
# 6 -22.3754 -14.5841 -21.6831 4.0318 4.3497 34.3446
#
#
#
# Elastic Compliance Matrix: (Units=1/GPa)
#
#
# Indices 1 2 3 4 5 6 
#
# 1 0.013002 -0.001850 -0.004633 -0.004950 0.000703 0.005252
# 2 -0.001850 0.056657 -0.003703 0.007811 0.003841 0.019112
# 3 -0.004633 -0.003703 0.013176 0.008283 0.002428 0.002448
# 4 -0.004950 0.007811 0.008283 0.045353 0.010269 -0.001303
# 5 0.000703 0.003841 0.002428 0.010269 0.022358 -0.000415
# 6 0.005252 0.019112 0.002448 -0.001303 -0.000415 0.042405
#
#
# Mechanical properties :
#
#
# Convention : Reuss Voigt Hill
#
# Bulk Modulus (GPa) = 16.00943 45.10235 30.55589
# Shear Modulus (GPa) = 21.35418 34.12063 27.73740
#
# Velocity S-wave (km/s) = 3.05173 3.85757 3.47807
# Velocity P-wave (km/s) = 4.40449 6.28580 5.42728
#
# Compressibility (1/GPa) = 0.06246317
#
# Stress axis : x y z
#
# Youngs Moduli (GPa) = 76.90964 17.64993 75.89409
#
# Poissons Ratio (x) = 0.03266 0.35164
# Poissons Ratio (y) = 0.14231 0.28102
# Poissons Ratio (z) = 0.35634 0.06536
#
# Static dielectric constant tensor:
#      x y z
#    x 1.865900 -0.048150 0.006280 
#    y -0.048150 1.894960 0.012260 
#    z 0.006280 0.012260 1.911170 
# 
# From -- ./inp_files/504575.got.cif
#   From: 2010.05.17/outbox.cif.g08.bks.cpg/sg2_253_cif.got.tgz:504575.got - 2010.06.03 11:33:40.
