data_PCOD9001503
_publ_section_title
;
Structure prediction by ZEFSAII (Michael W. Deem and Ramdas Pophale) SiO2 
 PCOD9001503
Probable space group: P -1
;
_chemical_formula_sum "Si O2"
_cell_formula_units_Z 16
_cell_length_a 11.039641
_cell_length_b 9.620447
_cell_length_c 7.707148
_cell_angle_alpha 65.055850
_cell_angle_beta 55.811991
_cell_angle_gamma 62.385805
_cell_volume 585.267287
_symmetry_space_group_name_H-M "P -1"
_symmetry_group_IT_number 2
_symmetry_cell_setting 'triclinic'
loop_
_space_group_symop_operation_xyz
x,y,z
-x,-y,-z
loop_
_atom_site_type_symbol
_atom_site_label
_atom_site_fract_x
_atom_site_fract_y
_atom_site_fract_z
Si Si1 0.408279 0.366335 0.668929
Si Si2 0.511624 0.295004 0.981059
Si Si3 0.745811 0.081282 0.085933
Si Si4 0.703927 0.526844 0.650952
Si Si5 0.079369 0.813385 0.597333
Si Si6 0.108304 0.285486 0.474115
Si Si7 0.021601 0.777385 0.025572
Si Si8 0.658134 0.052588 0.550550
O O1 0.500000 0.500000 0.500000
O O2 0.387429 0.356212 0.897992
O O3 0.287266 0.420503 0.582608
O O4 0.495074 0.177638 0.660662
O O5 0.647368 0.371827 0.785345
O O6 0.619857 0.113970 0.018585
O O7 0.444914 0.349775 0.195898
O O8 0.671498 0.035869 0.341439
O O9 0.813864 0.220860 0.032509
O O10 0.906436 0.954421 0.971085
O O11 0.836164 0.557894 0.646422
O O12 0.036257 0.717048 0.523624
O O13 0.237836 0.839631 0.516994
O O14 0.042684 0.714389 0.846081
O O15 0.000000 0.000000 0.500000
O O16 0.067540 0.259113 0.719226
O O17 0.252553 0.132743 0.370789
#
# Coordination Sequence:
#
# PCOD9001503 Si02
#       8
#     2   2   2   2   2   2   2   2
#     4  10  21  36  56  79 105 147 192 228 264 323
#     4  10  21  36  62  76 101 155 193 232 264 334
#     4   9  16  33  58  81 107 140 184 226 270 326
#     4  10  22  41  52  81 112 145 193 229 280 319
#     4   9  18  32  56  86 112 144 179 220 274 336
#     4  10  21  35  57  81 119 146 171 236 284 332
#     4   9  19  32  53  86 115 138 175 229 278 327
#     4   9  18  34  57  85 109 142 183 226 274 332
#
# _framework density 27.337937
#
# number of rings (size 3 to 8) (size 9 to 14) (size 15 to 20)
#    0.000    2.500    1.250    2.250    5.250    1.500 
#    0.000    1.250    0.000    1.500    0.000    0.000 
#    0.000    0.000    0.000    0.000    0.000    0.000 
#
# Total GULP energy -89102.849888 kJ/mol
# GULP energy per Si atom -5568.928118 kJ/mol
# Density = 2.727571 g / cm^3
# Si number density = 27.337937 Si / 1000 Ang^3
#
#
#
# Elastic Constant Matrix: (Units=GPa)
#
#
# Indices 1 2 3 4 5 6 
#
# 1 114.8394 14.2349 28.6662 -9.1460 24.1110 20.9966
# 2 14.2349 90.9758 19.0848 -8.4331 9.7499 2.7739
# 3 28.6662 19.0848 113.2997 -3.7851 38.2725 6.4809
# 4 -9.1460 -8.4331 -3.7851 24.4928 -2.7444 9.6830
# 5 24.1110 9.7499 38.2725 -2.7444 38.1743 -7.6808
# 6 20.9966 2.7739 6.4809 9.6830 -7.6808 41.3351
#
#
#
# Elastic Compliance Matrix: (Units=1/GPa)
#
#
# Indices 1 2 3 4 5 6 
#
# 1 0.013509 -0.000052 0.001432 0.008376 -0.011606 -0.011202
# 2 -0.000052 0.011918 -0.001027 0.004504 -0.002070 -0.002052
# 3 0.001432 -0.001027 0.014722 0.003296 -0.016536 -0.006812
# 4 0.008376 0.004504 0.003296 0.052505 -0.009834 -0.019201
# 5 -0.011606 -0.002070 -0.016536 -0.009834 0.054150 0.020993
# 6 -0.011202 -0.002052 -0.006812 -0.019201 0.020993 0.039487
#
#
# Mechanical properties :
#
#
# Convention : Reuss Voigt Hill
#
# Bulk Modulus (GPa) = 24.47750 49.23184 36.85467
# Shear Modulus (GPa) = 25.09998 37.94239 31.52119
#
# Velocity S-wave (km/s) = 3.03337 3.72950 3.39930
# Velocity P-wave (km/s) = 4.60885 6.04924 5.37749
#
# Compressibility (1/GPa) = 0.04085385
#
# Stress axis : x y z
#
# Youngs Moduli (GPa) = 74.02666 83.90999 67.92349
#
# Poissons Ratio (x) = 0.00439 -0.09727
# Poissons Ratio (y) = 0.00387 0.06976
# Poissons Ratio (z) = -0.10601 0.08618
#
# Static dielectric constant tensor:
#      x y z
#    x 2.108860 0.028830 -0.018940 
#    y 0.028830 2.253460 0.033670 
#    z -0.018940 0.033670 2.224740 
# 
# From -- ./inp_files/347771.got.cif
#   From: 2010.05.17/outbox.cif.g08.bks.cpg/sg2_174_cif.got.tgz:347771.got - 2010.06.03 11:33:40.
