data_PCOD9001875
_publ_section_title
;
Structure prediction by ZEFSAII (Michael W. Deem and Ramdas Pophale) SiO2 
 PCOD9001875
Probable space group: P -1
;
_chemical_formula_sum "Si O2"
_cell_formula_units_Z 16
_cell_length_a 20.839290
_cell_length_b 5.257537
_cell_length_c 13.822510
_cell_angle_alpha 87.259667
_cell_angle_beta 135.573070
_cell_angle_gamma 116.695763
_cell_volume 852.082833
_symmetry_space_group_name_H-M "P -1"
_symmetry_group_IT_number 2
_symmetry_cell_setting 'triclinic'
loop_
_space_group_symop_operation_xyz
x,y,z
-x,-y,-z
loop_
_atom_site_type_symbol
_atom_site_label
_atom_site_fract_x
_atom_site_fract_y
_atom_site_fract_z
Si Si1 0.143361 0.575198 0.292506
Si Si2 0.483004 0.709923 0.047099
Si Si3 0.867933 0.523359 0.172175
Si Si4 0.918923 0.178680 0.479044
Si Si5 0.120137 0.946355 0.935109
Si Si6 0.240748 0.449922 0.775087
Si Si7 0.874481 0.914850 0.847085
Si Si8 0.719917 0.153246 0.370133
O O1 0.182844 0.418678 0.263246
O O2 0.228549 0.724116 0.471442
O O3 0.017894 0.288616 0.200556
O O4 0.126802 0.828679 0.222600
O O5 0.586462 0.864469 0.231586
O O6 0.500000 0.500000 0.000000
O O7 0.350658 0.494088 0.937112
O O8 0.500000 0.000000 0.000000
O O9 0.849795 0.263035 0.084024
O O10 0.791155 0.377909 0.188511
O O11 0.998870 0.758634 0.344848
O O12 0.841997 0.748123 0.090436
O O13 0.804414 0.099691 0.405907
O O14 0.000000 0.500000 0.500000
O O15 0.873365 0.899570 0.357889
O O16 0.165970 0.061435 0.091121
O O17 0.269498 0.588540 0.695204
O O18 0.000000 0.000000 0.000000
#
# Coordination Sequence:
#
# PCOD9001875 Si02
#       8
#     2   2   2   2   2   2   2   2
#     4  11  21  34  55  81 111 146 185 230 281 338
#     4  10  22  40  58  77 109 158 200 240 270 317
#     4  12  23  33  54  83 112 155 181 223 279 345
#     4  12  22  35  52  82 125 156 187 223 279 340
#     4  11  21  36  53  79 112 147 186 221 287 342
#     4  11  24  38  55  81 123 152 199 232 274 333
#     4  10  21  36  53  77 112 147 182 230 281 341
#     4  11  23  36  59  82 116 156 194 231 284 329
#
# _framework density 18.777519000000002
#
# number of rings (size 3 to 8) (size 9 to 14) (size 15 to 20)
#    0.000    1.000    3.750    5.625    1.750    0.000 
#    0.000    0.000    0.000    0.000    0.000    5.250 
#    0.000    0.000    0.000    0.000    0.000    0.000 
#
# Total GULP energy -89218.542829 kJ/mol
# GULP energy per Si atom -5576.158927 kJ/mol
# Density = 1.873478 g / cm^3
# Si number density = 18.777519 Si / 1000 Ang^3
#
#
#
# Elastic Constant Matrix: (Units=GPa)
#
#
# Indices 1 2 3 4 5 6 
#
# 1 99.0445 27.4193 57.5863 8.4089 -14.5023 -25.4122
# 2 27.4193 91.2349 37.4330 -3.5152 -14.2901 -16.2681
# 3 57.5863 37.4330 130.6288 -2.1390 -19.1341 -5.3465
# 4 8.4089 -3.5152 -2.1390 22.9236 -3.6903 -8.4349
# 5 -14.5023 -14.2901 -19.1341 -3.6903 36.4249 6.4763
# 6 -25.4122 -16.2681 -5.3465 -8.4349 6.4763 27.5302
#
#
#
# Elastic Compliance Matrix: (Units=1/GPa)
#
#
# Indices 1 2 3 4 5 6 
#
# 1 0.018546 0.000252 -0.007566 -0.001814 0.000641 0.015092
# 2 0.000252 0.014615 -0.003389 0.005721 0.002987 0.009261
# 3 -0.007566 -0.003389 0.012203 0.001371 0.003454 -0.007009
# 4 -0.001814 0.005721 0.001371 0.052247 0.004528 0.016915
# 5 0.000641 0.002987 0.003454 0.004528 0.031694 -0.003041
# 6 0.015092 0.009261 -0.007009 0.016915 -0.003041 0.060264
#
#
# Mechanical properties :
#
#
# Convention : Reuss Voigt Hill
#
# Bulk Modulus (GPa) = 41.73893 62.86506 52.30199
# Shear Modulus (GPa) = 22.83507 30.60705 26.72106
#
# Velocity S-wave (km/s) = 3.49102 4.04169 3.77641
# Velocity P-wave (km/s) = 6.20694 7.43854 6.85047
#
# Compressibility (1/GPa) = 0.02395845
#
# Stress axis : x y z
#
# Youngs Moduli (GPa) = 53.92044 68.42274 81.94478
#
# Poissons Ratio (x) = -0.01726 0.62000
# Poissons Ratio (y) = -0.01360 0.27772
# Poissons Ratio (z) = 0.40797 0.23189
#
# Static dielectric constant tensor:
#      x y z
#    x 1.688860 -0.017810 -0.012080 
#    y -0.017810 1.716810 -0.011770 
#    z -0.012080 -0.011770 1.691270 
# 
# From -- ./inp_files/109695.got.cif
#   From: 2010.05.17/outbox.cif.g08.bks.cpg/sg2_55_cif.got.tgz:109695.got - 2010.06.03 11:33:40.
