data_PCOD9001075
_publ_section_title
;
Structure prediction by ZEFSAII (Michael W. Deem and Ramdas Pophale) SiO2 
 PCOD9001075
Probable space group: P -1
;
_chemical_formula_sum "Si O2"
_cell_formula_units_Z 16
_cell_length_a 8.902982
_cell_length_b 9.419830
_cell_length_c 11.411577
_cell_angle_alpha 129.132632
_cell_angle_beta 65.358429
_cell_angle_gamma 93.858938
_cell_volume 648.198070
_symmetry_space_group_name_H-M "P -1"
_symmetry_group_IT_number 2
_symmetry_cell_setting 'triclinic'
loop_
_space_group_symop_operation_xyz
x,y,z
-x,-y,-z
loop_
_atom_site_type_symbol
_atom_site_label
_atom_site_fract_x
_atom_site_fract_y
_atom_site_fract_z
Si Si1 0.229964 0.068531 0.597108
Si Si2 0.703748 0.854919 0.924719
Si Si3 0.451662 0.622759 0.885156
Si Si4 0.023866 0.554171 0.355505
Si Si5 0.999537 0.109053 0.283878
Si Si6 0.279334 0.717380 0.241584
Si Si7 0.322600 0.409757 0.624092
Si Si8 0.341707 0.887484 0.704610
O O1 0.262084 0.264796 0.654838
O O2 0.267544 0.927643 0.400544
O O3 0.349739 0.984065 0.625699
O O4 0.049798 0.042331 0.692345
O O5 0.548553 0.776377 0.892074
O O6 0.806554 0.956103 0.857336
O O7 0.853016 0.658306 0.797608
O O8 0.648681 0.972399 0.121504
O O9 0.594842 0.427587 0.780895
O O10 0.346465 0.575138 0.786245
O O11 0.350988 0.683753 0.070639
O O12 0.030214 0.689839 0.534431
O O13 0.830884 0.546890 0.395683
O O14 0.100700 0.663263 0.286543
O O15 0.851646 0.135220 0.246906
O O16 0.503067 0.302420 0.449210
#
# Coordination Sequence:
#
# PCOD9001075 Si02
#       8
#     2   2   2   2   2   2   2   2
#     4   9  20  35  61  85 119 152 197 240 293 358
#     4  11  21  42  63  89 115 161 210 240 282 363
#     4  10  21  33  60  84 124 156 197 238 291 359
#     4  10  23  38  61  89 126 153 192 253 308 344
#     4   9  21  41  65  86 113 164 207 243 284 357
#     4   9  18  36  54  87 114 160 196 237 294 353
#     4  12  22  38  59  96 124 152 191 252 311 347
#     4  10  21  38  65  90 112 161 203 243 293 354
#
# _framework density 24.683812
#
# number of rings (size 3 to 8) (size 9 to 14) (size 15 to 20)
#    0.750    1.250    1.250    2.625    5.250    2.500 
#    0.000    4.375    0.000    0.000    0.000    0.000 
#    0.000    0.000    0.000    0.000    0.000    0.000 
#
# Total GULP energy -89539.547465 kJ/mol
# GULP energy per Si atom -5596.221717 kJ/mol
# Density = 2.462763 g / cm^3
# Si number density = 24.683812 Si / 1000 Ang^3
#
#
#
# Elastic Constant Matrix: (Units=GPa)
#
#
# Indices 1 2 3 4 5 6 
#
# 1 129.3156 29.6631 41.8084 10.4967 4.7743 28.3225
# 2 29.6631 99.6657 32.9464 5.0438 10.6779 23.2256
# 3 41.8084 32.9464 128.4472 0.8298 10.4537 28.2406
# 4 10.4967 5.0438 0.8298 25.5486 11.6695 1.6163
# 5 4.7743 10.6779 10.4537 11.6695 35.3845 3.3431
# 6 28.3225 23.2256 28.2406 1.6163 3.3431 44.3463
#
#
#
# Elastic Compliance Matrix: (Units=1/GPa)
#
#
# Indices 1 2 3 4 5 6 
#
# 1 0.009907 -0.001199 -0.002048 -0.004133 0.001404 -0.004350
# 2 -0.001199 0.012233 -0.001565 -0.000449 -0.002500 -0.004440
# 3 -0.002048 -0.001565 0.009947 0.002249 -0.002545 -0.004097
# 4 -0.004133 -0.000449 0.002249 0.048064 -0.015906 0.000890
# 5 0.001404 -0.002500 -0.002545 -0.015906 0.034825 -0.000013
# 6 -0.004350 -0.004440 -0.004097 0.000890 -0.000013 0.030230
#
#
# Mechanical properties :
#
#
# Convention : Reuss Voigt Hill
#
# Bulk Modulus (GPa) = 44.52008 62.91826 53.71917
# Shear Modulus (GPa) = 30.80402 37.92324 34.36363
#
# Velocity S-wave (km/s) = 3.53646 3.92390 3.73520
# Velocity P-wave (km/s) = 5.89497 6.78781 6.35708
#
# Compressibility (1/GPa) = 0.02246178
#
# Stress axis : x y z
#
# Youngs Moduli (GPa) = 100.94275 81.74713 100.53665
#
# Poissons Ratio (x) = 0.09801 0.20592
# Poissons Ratio (y) = 0.12103 0.15734
# Poissons Ratio (z) = 0.20675 0.12793
#
# Static dielectric constant tensor:
#      x y z
#    x 1.996120 -0.051740 -0.045070 
#    y -0.051740 2.039300 -0.034810 
#    z -0.045070 -0.034810 1.855510 
# 
# From -- ./inp_files/391283.got.cif
#   From: 2010.05.17/outbox.cif.g08.bks.cpg/sg2_196_cif.got.tgz:391283.got - 2010.06.03 11:33:40.
