data_PCOD9001554
_publ_section_title
;
Structure prediction by ZEFSAII (Michael W. Deem and Ramdas Pophale) SiO2 
 PCOD9001554
Probable space group: P -1
;
_chemical_formula_sum "Si O2"
_cell_formula_units_Z 16
_cell_length_a 12.218795
_cell_length_b 7.875953
_cell_length_c 8.506632
_cell_angle_alpha 112.660526
_cell_angle_beta 55.576038
_cell_angle_gamma 120.807756
_cell_volume 574.664198
_symmetry_space_group_name_H-M "P -1"
_symmetry_group_IT_number 2
_symmetry_cell_setting 'triclinic'
loop_
_space_group_symop_operation_xyz
x,y,z
-x,-y,-z
loop_
_atom_site_type_symbol
_atom_site_label
_atom_site_fract_x
_atom_site_fract_y
_atom_site_fract_z
Si Si1 0.075805 0.391035 0.279951
Si Si2 0.329428 0.073419 0.594953
Si Si3 0.593609 0.372404 0.353342
Si Si4 0.173178 0.832955 0.115863
Si Si5 0.171960 0.658374 0.723372
Si Si6 0.590591 0.233803 0.960441
Si Si7 0.669501 0.740705 0.995462
Si Si8 0.064978 0.054399 0.639175
O O1 0.241668 0.406483 0.148554
O O2 0.000000 0.500000 0.500000
O O3 0.997248 0.417433 0.194126
O O4 0.002111 0.151743 0.283186
O O5 0.490763 0.154449 0.428639
O O6 0.231016 0.119522 0.561035
O O7 0.255461 0.837209 0.599934
O O8 0.314380 0.178555 0.808805
O O9 0.500000 0.500000 0.500000
O O10 0.731425 0.469600 0.392133
O O11 0.599389 0.359313 0.155874
O O12 0.006388 0.789704 0.206879
O O13 0.247090 0.071691 0.120189
O O14 0.214795 0.749518 0.894398
O O15 0.245532 0.767580 0.182390
O O16 0.494558 0.296028 0.935506
O O17 0.500000 0.000000 0.000000
O O18 0.000000 0.000000 0.500000
#
# Coordination Sequence:
#
# PCOD9001554 Si02
#       8
#     2   2   2   2   2   2   2   2
#     4  10  21  35  58  85 122 157 191 238 298 348
#     4  10  21  38  61  86 116 153 202 245 291 352
#     4  11  24  38  61  89 121 156 194 252 306 347
#     4   8  16  34  57  84 113 148 200 240 281 344
#     4   9  19  38  58  85 113 159 200 235 287 357
#     4   9  19  35  61  86 114 160 198 239 292 355
#     4   9  18  35  60  85 113 156 195 238 290 350
#     4  10  21  35  58  90 115 153 199 246 284 346
#
# _framework density 27.842347
#
# number of rings (size 3 to 8) (size 9 to 14) (size 15 to 20)
#    0.000    2.500    0.000    1.875    7.000    3.000 
#    2.250    3.125    0.000    5.250    0.000    0.000 
#    0.000    0.000    0.000    0.000    0.000    0.000 
#
# Total GULP energy -89230.366530 kJ/mol
# GULP energy per Si atom -5576.897908 kJ/mol
# Density = 2.777898 g / cm^3
# Si number density = 27.842347 Si / 1000 Ang^3
#
#
#
# Elastic Constant Matrix: (Units=GPa)
#
#
# Indices 1 2 3 4 5 6 
#
# 1 285.5341 36.7216 41.5604 12.3089 -29.2010 -1.1139
# 2 36.7216 77.8441 -1.4218 5.1285 -15.0018 -10.1442
# 3 41.5604 -1.4218 89.5814 0.3851 6.0380 -8.6337
# 4 12.3089 5.1285 0.3851 33.9262 -1.4465 -26.0059
# 5 -29.2010 -15.0018 6.0380 -1.4465 41.5151 -8.4829
# 6 -1.1139 -10.1442 -8.6337 -26.0059 -8.4829 59.6122
#
#
#
# Elastic Compliance Matrix: (Units=1/GPa)
#
#
# Indices 1 2 3 4 5 6 
#
# 1 0.004395 -0.001626 -0.002329 -0.002016 0.002558 -0.001048
# 2 -0.001626 0.015031 0.001045 0.001689 0.005039 0.004132
# 3 -0.002329 0.001045 0.012678 0.002525 -0.002461 0.002722
# 4 -0.002016 0.001689 0.002525 0.046781 0.004893 0.021720
# 5 0.002558 0.005039 -0.002461 0.004893 0.029646 0.006902
# 6 -0.001048 0.004132 0.002722 0.021720 0.006902 0.028310
#
#
# Mechanical properties :
#
#
# Convention : Reuss Voigt Hill
#
# Bulk Modulus (GPa) = 38.05097 67.40888 52.72993
# Shear Modulus (GPa) = 33.01981 52.08400 42.55191
#
# Velocity S-wave (km/s) = 3.44751 4.32982 3.91361
# Velocity P-wave (km/s) = 5.43538 7.01854 6.27707
#
# Compressibility (1/GPa) = 0.02628054
#
# Stress axis : x y z
#
# Youngs Moduli (GPa) = 227.53744 66.52993 78.87887
#
# Poissons Ratio (x) = 0.10821 0.18375
# Poissons Ratio (y) = 0.37008 -0.08239
# Poissons Ratio (z) = 0.53005 -0.06949
#
# Static dielectric constant tensor:
#      x y z
#    x 2.593440 0.227760 -0.402440 
#    y 0.227760 2.416260 -0.182700 
#    z -0.402440 -0.182700 2.433230 
# 
# From -- ./inp_files/179336.got.cif
#   From: 2010.05.17/outbox.cif.g08.bks.cpg/sg2_90_cif.got.tgz:179336.got - 2010.06.03 11:33:40.
