data_PCOD9001186
_publ_section_title
;
Structure prediction by ZEFSAII (Michael W. Deem and Ramdas Pophale) SiO2 
 PCOD9001186
Probable space group: P -1
;
_chemical_formula_sum "Si O2"
_cell_formula_units_Z 16
_cell_length_a 19.245270
_cell_length_b 13.290884
_cell_length_c 6.043322
_cell_angle_alpha 92.963320
_cell_angle_beta 91.896355
_cell_angle_gamma 154.034722
_cell_volume 664.601468
_symmetry_space_group_name_H-M "P -1"
_symmetry_group_IT_number 2
_symmetry_cell_setting 'triclinic'
loop_
_space_group_symop_operation_xyz
x,y,z
-x,-y,-z
loop_
_atom_site_type_symbol
_atom_site_label
_atom_site_fract_x
_atom_site_fract_y
_atom_site_fract_z
Si Si1 0.440350 0.625094 0.144665
Si Si2 0.632213 0.153353 0.221014
Si Si3 0.909276 0.143279 0.984412
Si Si4 0.488020 0.826999 0.557335
Si Si5 0.334821 0.302745 0.337790
Si Si6 0.148566 0.306839 0.790132
Si Si7 0.257794 0.886193 0.998345
Si Si8 0.076272 0.994071 0.651616
O O1 0.424641 0.649384 0.393572
O O2 0.379945 0.433058 0.150935
O O3 0.324855 0.525884 0.940336
O O4 0.620577 0.886209 0.114197
O O5 0.648622 0.284676 0.346086
O O6 0.556066 0.986744 0.387891
O O7 0.500000 0.000000 0.000000
O O8 0.762372 0.249184 0.136222
O O9 0.755556 0.912594 0.791263
O O10 0.900063 0.251354 0.012231
O O11 0.890995 0.060580 0.203795
O O12 0.060372 0.283345 0.905108
O O13 0.636447 0.995160 0.755395
O O14 0.500000 0.500000 0.500000
O O15 0.211721 0.182390 0.496825
O O16 0.076993 0.099034 0.799678
O O17 0.090233 0.239437 0.523069
#
# Coordination Sequence:
#
# PCOD9001186 Si02
#       8
#     2   2   2   2   2   2   2   2
#     4  11  22  33  53  81 108 138 183 223 265 315
#     4   8  16  34  55  83 110 138 168 211 267 329
#     4  11  22  37  52  75 109 145 184 222 266 313
#     4   9  18  33  57  82 112 135 170 218 271 320
#     4  11  23  33  51  79 109 140 179 228 273 310
#     4  10  23  36  52  73 101 149 194 222 257 314
#     4  10  21  34  56  84 109 138 174 220 273 319
#     4  10  22  37  54  66 105 154 191 221 261 308
#
# _framework density 24.074577000000001
#
# number of rings (size 3 to 8) (size 9 to 14) (size 15 to 20)
#    0.000    2.000    1.250    1.875    7.000    4.000 
#    0.000    0.000    0.000    0.750    0.000   30.625 
#    0.000    0.000    0.000    0.000    0.000    0.000 
#
# Total GULP energy -89313.682277 kJ/mol
# GULP energy per Si atom -5582.105142 kJ/mol
# Density = 2.401978 g / cm^3
# Si number density = 24.074577 Si / 1000 Ang^3
#
#
#
# Elastic Constant Matrix: (Units=GPa)
#
#
# Indices 1 2 3 4 5 6 
#
# 1 148.7879 -0.0067 21.4694 -6.7240 1.8328 22.9171
# 2 -0.0067 54.8431 7.6989 -6.5488 3.4444 19.2289
# 3 21.4694 7.6989 86.3152 -5.2354 12.2711 10.9412
# 4 -6.7240 -6.5488 -5.2354 33.1052 -1.8267 3.9918
# 5 1.8328 3.4444 12.2711 -1.8267 45.5270 2.5058
# 6 22.9171 19.2289 10.9412 3.9918 2.5058 22.0619
#
#
#
# Elastic Compliance Matrix: (Units=1/GPa)
#
#
# Indices 1 2 3 4 5 6 
#
# 1 0.009491 0.006253 -0.000651 0.005005 0.000398 -0.015937
# 2 0.006253 0.032904 0.001145 0.012511 -0.000459 -0.037953
# 3 -0.000651 0.001145 0.013147 0.002846 -0.003104 -0.007004
# 4 0.005005 0.012511 0.002846 0.037134 0.000914 -0.024338
# 5 0.000398 -0.000459 -0.003104 0.000914 0.022925 -0.001244
# 6 -0.015937 -0.037953 -0.007004 -0.024338 -0.001244 0.102980
#
#
# Mechanical properties :
#
#
# Convention : Reuss Voigt Hill
#
# Bulk Modulus (GPa) = 14.48539 38.69660 26.59100
# Shear Modulus (GPa) = 21.92023 37.52447 29.72235
#
# Velocity S-wave (km/s) = 3.02075 3.95229 3.51749
# Velocity P-wave (km/s) = 4.26573 6.07750 5.25036
#
# Compressibility (1/GPa) = 0.06903509
#
# Stress axis : x y z
#
# Youngs Moduli (GPa) = 105.35996 30.39165 76.06245
#
# Poissons Ratio (x) = -0.19004 0.04955
# Poissons Ratio (y) = -0.65883 -0.08707
# Poissons Ratio (z) = 0.06863 -0.03479
#
# Static dielectric constant tensor:
#      x y z
#    x 2.009540 0.004650 -0.036930 
#    y 0.004650 1.936540 -0.050820 
#    z -0.036930 -0.050820 1.908820 
# 
# From -- ./inp_files/81321.got.cif
#   From: 2010.05.17/outbox.cif.g08.bks.cpg/sg2_41_cif.got.tgz:81321.got - 2010.06.03 11:33:40.
