data_PCOD9001323
_publ_section_title
;
Structure prediction by ZEFSAII (Michael W. Deem and Ramdas Pophale) SiO2 
 PCOD9001323
Probable space group: P -1
;
_chemical_formula_sum "Si O2"
_cell_formula_units_Z 14
_cell_length_a 9.491212
_cell_length_b 7.332824
_cell_length_c 11.864259
_cell_angle_alpha 111.229486
_cell_angle_beta 127.533091
_cell_angle_gamma 67.614160
_cell_volume 595.848105
_symmetry_space_group_name_H-M "P -1"
_symmetry_group_IT_number 2
_symmetry_cell_setting 'triclinic'
loop_
_space_group_symop_operation_xyz
x,y,z
-x,-y,-z
loop_
_atom_site_type_symbol
_atom_site_label
_atom_site_fract_x
_atom_site_fract_y
_atom_site_fract_z
Si Si1 0.678089 0.448228 0.808536
Si Si2 0.709514 0.501069 0.078961
Si Si3 0.888234 0.037262 0.771733
Si Si4 0.769108 0.875553 0.908876
Si Si5 0.359923 0.071689 0.797846
Si Si6 0.076658 0.158914 0.498432
Si Si7 0.734191 0.355592 0.298314
O O1 0.754589 0.252734 0.730339
O O2 0.743437 0.647094 0.848292
O O3 0.458626 0.505922 0.727720
O O4 0.762251 0.394109 0.963164
O O5 0.712370 0.734292 0.117379
O O6 0.794941 0.406955 0.214657
O O7 0.500000 0.500000 0.000000
O O8 0.811663 0.928713 0.813704
O O9 0.901851 0.914510 0.635523
O O10 0.075743 0.082184 0.922318
O O11 0.576348 0.017336 0.881760
O O12 0.267858 0.150979 0.650742
O O13 0.304936 0.868999 0.766438
O O14 0.906609 0.349113 0.461515
O O15 0.000000 0.000000 0.500000
#
# Coordination Sequence:
#
# PCOD9001323 Si02
#       7
#     2   2   2   2   2   2   2
#     4  10  22  38  64  98 125 160 212 263 316 368
#     4  10  21  34  64  96 126 156 210 262 310 365
#     4  11  24  41  65  90 133 161 211 268 306 376
#     4  10  23  39  66  96 122 170 211 257 324 360
#     4  10  22  42  64  94 128 170 211 256 312 382
#     4  10  24  44  65  92 128 172 209 255 318 377
#     4   9  21  40  64  92 127 167 207 254 315 368
#
# _framework density 23.495920999999999
#
# number of rings (size 3 to 8) (size 9 to 14) (size 15 to 20)
#    0.000    2.000    0.000    2.143   12.000    4.000 
#    0.000    9.286    0.000    0.000    0.000    0.000 
#    0.000    0.000    0.000    0.000    0.000    0.000 
#
# Total GULP energy -78285.034780 kJ/mol
# GULP energy per Si atom -5591.788199 kJ/mol
# Density = 2.344244 g / cm^3
# Si number density = 23.495921 Si / 1000 Ang^3
#
#
#
# Elastic Constant Matrix: (Units=GPa)
#
#
# Indices 1 2 3 4 5 6 
#
# 1 86.1143 44.6371 22.1603 -2.1130 -1.1487 11.5212
# 2 44.6371 100.4190 39.0384 -14.6461 15.7234 -2.2871
# 3 22.1603 39.0384 65.9161 -15.1283 0.0582 -15.2276
# 4 -2.1130 -14.6461 -15.1283 41.0730 -6.0524 5.5628
# 5 -1.1487 15.7234 0.0582 -6.0524 28.7100 -3.9110
# 6 11.5212 -2.2871 -15.2276 5.5628 -3.9110 48.3790
#
#
#
# Elastic Compliance Matrix: (Units=1/GPa)
#
#
# Indices 1 2 3 4 5 6 
#
# 1 0.016741 -0.007277 -0.002774 -0.001572 0.003686 -0.004725
# 2 -0.007277 0.018142 -0.008107 0.001771 -0.009969 -0.000971
# 3 -0.002774 -0.008107 0.023991 0.005723 0.006535 0.007699
# 4 -0.001572 0.001771 0.005723 0.027778 0.004736 -0.000552
# 5 0.003686 -0.009969 0.006535 0.004736 0.041907 0.003551
# 6 -0.004725 -0.000971 0.007699 -0.000552 0.003551 0.024523
#
#
# Mechanical properties :
#
#
# Convention : Reuss Voigt Hill
#
# Bulk Modulus (GPa) = 44.33035 51.56900 47.94968
# Shear Modulus (GPa) = 25.39126 33.40663 29.39894
#
# Velocity S-wave (km/s) = 3.29092 3.77477 3.54112
# Velocity P-wave (km/s) = 5.77481 6.40268 6.09683
#
# Compressibility (1/GPa) = 0.02255791
#
# Stress axis : x y z
#
# Youngs Moduli (GPa) = 59.73262 55.12140 41.68243
#
# Poissons Ratio (x) = 0.40113 0.11563
# Poissons Ratio (y) = 0.43469 0.33791
# Poissons Ratio (z) = 0.16570 0.44685
#
# Static dielectric constant tensor:
#      x y z
#    x 1.877440 0.015940 0.033320 
#    y 0.015940 1.935070 -0.023140 
#    z 0.033320 -0.023140 1.922030 
# 
# From -- ./inp_files/418277.got.cif
#   From: 2010.05.17/outbox.cif.g08.bks.cpg/sg2_210_cif.got.tgz:418277.got - 2010.06.03 11:33:40.
