data_PCOD9001059
_publ_section_title
;
Structure prediction by ZEFSAII (Michael W. Deem and Ramdas Pophale) SiO2 
 PCOD9001059
Probable space group: P -1
;
_chemical_formula_sum "Si O2"
_cell_formula_units_Z 12
_cell_length_a 12.762417
_cell_length_b 15.855952
_cell_length_c 15.568620
_cell_angle_alpha 145.271712
_cell_angle_beta 18.487528
_cell_angle_gamma 146.905892
_cell_volume 538.639368
_symmetry_space_group_name_H-M "P -1"
_symmetry_group_IT_number 2
_symmetry_cell_setting 'triclinic'
loop_
_space_group_symop_operation_xyz
x,y,z
-x,-y,-z
loop_
_atom_site_type_symbol
_atom_site_label
_atom_site_fract_x
_atom_site_fract_y
_atom_site_fract_z
Si Si1 0.305191 0.273523 0.135441
Si Si2 0.589325 0.902119 0.738917
Si Si3 0.778215 0.548162 0.900387
Si Si4 0.726849 0.825690 0.738239
Si Si5 0.472323 0.978589 0.717715
Si Si6 0.677533 0.283862 0.515725
O O1 0.348554 0.285354 0.214045
O O2 0.971809 0.308535 0.381930
O O3 0.659911 0.393332 0.920623
O O4 0.246086 0.092818 0.004091
O O5 0.558615 0.777019 0.734047
O O6 0.458902 0.860101 0.708395
O O7 0.000000 0.000000 0.500000
O O8 0.400138 0.026740 0.016261
O O9 0.138646 0.608116 0.618353
O O10 0.500000 0.500000 0.000000
O O11 0.656242 0.676991 0.155844
O O12 0.140759 0.899486 0.474230
O O13 0.414752 0.888046 0.597399
#
# Coordination Sequence:
#
# PCOD9001059 Si02
#       6
#     2   2   2   2   2   2
#     4  10  21  35  57  84 113 153 197 232 277 343
#     4   8  16  34  51  83 110 147 182 235 289 343
#     4  10  23  41  57  77 119 166 195 221 280 355
#     4   9  18  31  58  82 112 143 191 239 282 337
#     4  10  21  33  58  88 115 144 191 246 286 329
#     4  11  24  38  58  85 122 155 188 237 289 336
#
# _framework density 22.278355999999999
#
# number of rings (size 3 to 8) (size 9 to 14) (size 15 to 20)
#    0.000    2.333    0.000    2.500   11.667    0.667 
#    0.000    0.000    0.000    2.000    0.000    0.000 
#    0.000    0.000    0.000    0.000    0.000    0.000 
#
# Total GULP energy -66858.124362 kJ/mol
# GULP energy per Si atom -5571.510364 kJ/mol
# Density = 2.222765 g / cm^3
# Si number density = 22.278356 Si / 1000 Ang^3
#
#
#
# Elastic Constant Matrix: (Units=GPa)
#
#
# Indices 1 2 3 4 5 6 
#
# 1 115.7132 36.9185 36.2991 4.8273 5.8382 -42.2739
# 2 36.9185 44.6161 11.1096 11.5415 -2.9752 -21.7828
# 3 36.2991 11.1096 79.1485 8.3530 0.8094 -2.1173
# 4 4.8273 11.5415 8.3530 26.1945 0.9027 12.8730
# 5 5.8382 -2.9752 0.8094 0.9027 26.4837 -1.8826
# 6 -42.2739 -21.7828 -2.1173 12.8730 -1.8826 41.2403
#
#
#
# Elastic Compliance Matrix: (Units=1/GPa)
#
#
# Indices 1 2 3 4 5 6 
#
# 1 0.020875 0.000858 -0.007449 -0.014517 -0.001941 0.025912
# 2 0.000858 0.059468 -0.002323 -0.049722 0.011685 0.048225
# 3 -0.007449 -0.002323 0.015993 0.001458 0.000240 -0.008486
# 4 -0.014517 -0.049722 0.001458 0.098155 -0.010909 -0.072205
# 5 -0.001941 0.011685 0.000240 -0.010909 0.040536 0.009450
# 6 0.025912 0.048225 -0.008486 -0.072205 0.009450 0.098816
#
#
# Mechanical properties :
#
#
# Convention : Reuss Voigt Hill
#
# Bulk Modulus (GPa) = 12.73737 45.34801 29.04269
# Shear Modulus (GPa) = 13.23312 29.12708 21.18010
#
# Velocity S-wave (km/s) = 2.43983 3.61974 3.08669
# Velocity P-wave (km/s) = 3.69687 6.15381 5.07623
#
# Compressibility (1/GPa) = 0.07850916
#
# Stress axis : x y z
#
# Youngs Moduli (GPa) = 47.90404 16.81582 62.52550
#
# Poissons Ratio (x) = -0.01443 0.46576
# Poissons Ratio (y) = -0.04111 0.14523
# Poissons Ratio (z) = 0.35684 0.03906
#
# Static dielectric constant tensor:
#      x y z
#    x 1.891710 -0.103570 0.011450 
#    y -0.103570 1.933870 0.110610 
#    z 0.011450 0.110610 2.025040 
# 
# From -- ./inp_files/19327.got.cif
#   From: 2010.05.17/outbox.cif.g08.bks.cpg/sg2_10_cif.got.tgz:19327.got - 2010.06.03 11:33:40.
