data_PCOD9001785
_publ_section_title
;
Structure prediction by ZEFSAII (Michael W. Deem and Ramdas Pophale) SiO2 
 PCOD9001785
Probable space group: P -1
;
_chemical_formula_sum "Si O2"
_cell_formula_units_Z 14
_cell_length_a 11.789877
_cell_length_b 9.095143
_cell_length_c 9.932825
_cell_angle_alpha 84.398130
_cell_angle_beta 79.113724
_cell_angle_gamma 34.395818
_cell_volume 587.592567
_symmetry_space_group_name_H-M "P -1"
_symmetry_group_IT_number 2
_symmetry_cell_setting 'triclinic'
loop_
_space_group_symop_operation_xyz
x,y,z
-x,-y,-z
loop_
_atom_site_type_symbol
_atom_site_label
_atom_site_fract_x
_atom_site_fract_y
_atom_site_fract_z
Si Si1 0.414434 0.964220 0.120109
Si Si2 0.706015 0.427383 0.995275
Si Si3 0.935898 0.417461 0.454089
Si Si4 0.877592 0.953901 0.925232
Si Si5 0.403041 0.085505 0.660513
Si Si6 0.841738 0.085354 0.625716
Si Si7 0.396174 0.404961 0.303957
O O1 0.206631 0.117388 0.090631
O O2 0.448694 0.000300 0.253960
O O3 0.548753 0.672593 0.108015
O O4 0.500000 0.000000 0.000000
O O5 0.719964 0.234201 0.009073
O O6 0.659515 0.530472 0.845948
O O7 0.925700 0.254919 0.007802
O O8 0.808046 0.600986 0.333076
O O9 0.781400 0.493280 0.581481
O O10 0.000000 0.500000 0.500000
O O11 0.134910 0.107361 0.409675
O O12 0.920536 0.993068 0.770535
O O13 0.500000 0.000000 0.500000
O O14 0.401821 0.909434 0.700175
O O15 0.630492 0.400166 0.650372
O O16 0.000000 0.000000 0.500000
#
# Coordination Sequence:
#
# PCOD9001785 Si02
#       7
#     2   2   2   2   2   2   2
#     4  12  24  39  65  98 133 171 221 266 328 400
#     4  10  21  43  64  93 130 168 220 273 330 395
#     4  10  21  35  63  88 119 166 217 266 325 386
#     4  10  23  39  69  93 130 175 214 276 333 388
#     4  10  22  40  59  86 132 167 209 270 323 376
#     4   9  19  38  63  88 122 167 215 265 323 388
#     4   9  19  39  59  83 128 163 206 267 320 385
#
# _framework density 23.826034
#
# number of rings (size 3 to 8) (size 9 to 14) (size 15 to 20)
#    0.000    2.000    1.429    1.286    4.000    1.714 
#    0.000    0.714   12.571    0.000    0.000    0.000 
#    0.000    0.000    0.000    0.000    0.000    0.000 
#
# Total GULP energy -78121.636001 kJ/mol
# GULP energy per Si atom -5580.116857 kJ/mol
# Density = 2.377181 g / cm^3
# Si number density = 23.826034 Si / 1000 Ang^3
#
#
#
# Elastic Constant Matrix: (Units=GPa)
#
#
# Indices 1 2 3 4 5 6 
#
# 1 108.7361 41.0603 40.4160 -10.1451 11.5654 19.5213
# 2 41.0603 95.2094 22.4966 12.2047 7.2831 34.3643
# 3 40.4160 22.4966 104.6957 -7.0749 10.9711 8.5347
# 4 -10.1451 12.2047 -7.0749 40.3241 11.4104 9.7412
# 5 11.5654 7.2831 10.9711 11.4104 34.6785 6.9947
# 6 19.5213 34.3643 8.5347 9.7412 6.9947 35.1406
#
#
#
# Elastic Compliance Matrix: (Units=1/GPa)
#
#
# Indices 1 2 3 4 5 6 
#
# 1 0.013656 -0.004368 -0.003224 0.006141 -0.003942 -0.003449
# 2 -0.004368 0.018320 -0.001601 -0.004111 0.002380 -0.014434
# 3 -0.003224 -0.001601 0.011602 0.002492 -0.003176 0.000480
# 4 0.006141 -0.004111 0.002492 0.032911 -0.011421 -0.006846
# 5 -0.003942 0.002380 -0.003176 -0.011421 0.035055 -0.003178
# 6 -0.003449 -0.014434 0.000480 -0.006846 -0.003178 0.046902
#
#
# Mechanical properties :
#
#
# Convention : Reuss Voigt Hill
#
# Bulk Modulus (GPa) = 39.69521 57.39856 48.54689
# Shear Modulus (GPa) = 26.99378 35.67320 31.33349
#
# Velocity S-wave (km/s) = 3.36959 3.87361 3.63036
# Velocity P-wave (km/s) = 5.64229 6.64451 6.16380
#
# Compressibility (1/GPa) = 0.02519195
#
# Stress axis : x y z
#
# Youngs Moduli (GPa) = 73.22954 54.58541 86.19206
#
# Poissons Ratio (x) = 0.23845 0.27786
# Poissons Ratio (y) = 0.31989 0.13798
# Poissons Ratio (z) = 0.23607 0.08738
#
# Static dielectric constant tensor:
#      x y z
#    x 2.017400 -0.061640 -0.025300 
#    y -0.061640 2.106080 0.043180 
#    z -0.025300 0.043180 1.924960 
# 
# From -- ./inp_files/243995.got.cif
#   From: 2010.05.17/outbox.cif.g08.bks.cpg/sg2_122_cif.got.tgz:243995.got - 2010.06.03 11:33:40.
