data_PCOD9001020
_publ_section_title
;
Structure prediction by ZEFSAII (Michael W. Deem and Ramdas Pophale) SiO2 
 PCOD9001020
Probable space group: P -1
;
_chemical_formula_sum "Si O2"
_cell_formula_units_Z 10
_cell_length_a 9.742315
_cell_length_b 19.809990
_cell_length_c 12.797836
_cell_angle_alpha 25.329709
_cell_angle_beta 56.785248
_cell_angle_gamma 38.620213
_cell_volume 530.958249
_symmetry_space_group_name_H-M "P -1"
_symmetry_group_IT_number 2
_symmetry_cell_setting 'triclinic'
loop_
_space_group_symop_operation_xyz
x,y,z
-x,-y,-z
loop_
_atom_site_type_symbol
_atom_site_label
_atom_site_fract_x
_atom_site_fract_y
_atom_site_fract_z
Si Si1 0.442036 0.081269 0.236529
Si Si2 0.684490 0.461950 0.333403
Si Si3 0.181862 0.665290 0.314029
Si Si4 0.559828 0.062662 0.985978
Si Si5 0.901612 0.756640 0.675270
O O1 0.249999 0.104266 0.345194
O O2 0.529710 0.987335 0.212494
O O3 0.689864 0.917959 0.441936
O O4 0.305632 0.358648 0.901246
O O5 0.374065 0.641706 0.206717
O O6 0.808398 0.295609 0.621335
O O7 0.858853 0.310847 0.366772
O O8 0.871206 0.885602 0.100749
O O9 0.348383 0.372119 0.642203
O O10 0.500000 0.000000 0.000000
O O11 0.000000 0.500000 0.000000
#
# Coordination Sequence:
#
# PCOD9001020 Si02
#       5
#     2   2   2   2   2
#     4   9  18  30  52  78 104 134 172 208 267 299
#     4   9  18  30  53  79 110 125 167 223 270 305
#     4  10  21  33  54  80 105 137 169 215 267 301
#     4  11  22  37  53  75 108 143 177 205 247 318
#     4   9  16  30  49  79 103 132 164 219 264 304
#
# _framework density 18.833872
#
# number of rings (size 3 to 8) (size 9 to 14) (size 15 to 20)
#    0.000    2.400    2.000    0.600    2.800    2.400 
#    0.000    0.000    0.000    2.400    0.000    0.000 
#    0.000    0.000    0.000    0.000    0.000    0.000 
#
# Total GULP energy -55677.395863 kJ/mol
# GULP energy per Si atom -5567.739586 kJ/mol
# Density = 1.879101 g / cm^3
# Si number density = 18.833872 Si / 1000 Ang^3
#
#
#
# Elastic Constant Matrix: (Units=GPa)
#
#
# Indices 1 2 3 4 5 6 
#
# 1 74.5093 66.8319 10.0203 2.1648 10.7492 -2.3358
# 2 66.8319 196.3864 16.6949 24.4822 7.0202 -22.5187
# 3 10.0203 16.6949 43.7651 -3.1790 5.4232 -4.2418
# 4 2.1648 24.4822 -3.1790 27.6542 -2.0173 3.6210
# 5 10.7492 7.0202 5.4232 -2.0173 18.3734 -3.6239
# 6 -2.3358 -22.5187 -4.2418 3.6210 -3.6239 27.1690
#
#
#
# Elastic Compliance Matrix: (Units=1/GPa)
#
#
# Indices 1 2 3 4 5 6 
#
# 1 0.022627 -0.008947 -0.000773 0.006324 -0.010440 -0.007827
# 2 -0.008947 0.010519 -0.002102 -0.009881 0.002582 0.009283
# 3 -0.000773 -0.002102 0.024892 0.004282 -0.005468 0.000777
# 4 0.006324 -0.009881 0.004282 0.046711 0.001372 -0.013020
# 5 -0.010440 0.002582 -0.005468 0.001372 0.063011 0.008610
# 6 -0.007827 0.009283 0.000777 -0.013020 0.008610 0.046833
#
#
# Mechanical properties :
#
#
# Convention : Reuss Voigt Hill
#
# Bulk Modulus (GPa) = 29.07477 55.75056 42.41267
# Shear Modulus (GPa) = 20.02373 29.38024 24.70198
#
# Velocity S-wave (km/s) = 3.26418 3.95393 3.62549
# Velocity P-wave (km/s) = 5.44770 7.10705 6.33197
#
# Compressibility (1/GPa) = 0.03439409
#
# Stress axis : x y z
#
# Youngs Moduli (GPa) = 44.19406 95.06183 40.17314
#
# Poissons Ratio (x) = 0.85053 0.03106
# Poissons Ratio (y) = 0.39541 0.08445
# Poissons Ratio (z) = 0.03417 0.19985
#
# Static dielectric constant tensor:
#      x y z
#    x 1.614440 -0.029190 0.002580 
#    y -0.029190 1.787740 -0.015550 
#    z 0.002580 -0.015550 1.749390 
# 
# From -- ./inp_files/15676.got.cif
#   From: 2010.05.17/outbox.cif.g08.bks.cpg/sg2_8_cif.got.tgz:15676.got - 2010.06.03 11:33:40.
