data_PCOD9001942
_publ_section_title
;
Structure prediction by ZEFSAII (Michael W. Deem and Ramdas Pophale) SiO2 
 PCOD9001942
Probable space group: P -1
;
_chemical_formula_sum "Si O2"
_cell_formula_units_Z 16
_cell_length_a 8.817620
_cell_length_b 15.523956
_cell_length_c 14.971187
_cell_angle_alpha 24.846493
_cell_angle_beta 126.948659
_cell_angle_gamma 116.697822
_cell_volume 659.342692
_symmetry_space_group_name_H-M "P -1"
_symmetry_group_IT_number 2
_symmetry_cell_setting 'triclinic'
loop_
_space_group_symop_operation_xyz
x,y,z
-x,-y,-z
loop_
_atom_site_type_symbol
_atom_site_label
_atom_site_fract_x
_atom_site_fract_y
_atom_site_fract_z
Si Si1 0.013916 0.942238 0.801194
Si Si2 0.209386 0.901028 0.258292
Si Si3 0.594009 0.743095 0.037063
Si Si4 0.636568 0.753676 0.849243
Si Si5 0.777070 0.846287 0.456159
Si Si6 0.822221 0.454919 0.530717
Si Si7 0.603953 0.781022 0.622927
Si Si8 0.304754 0.509750 0.363167
O O1 0.832796 0.835958 0.830273
O O2 0.045015 0.096217 0.587620
O O3 0.208106 0.740575 0.068356
O O4 0.962518 0.068901 0.757575
O O5 0.182157 0.781894 0.271565
O O6 0.414320 0.778318 0.498207
O O7 0.246003 0.122903 0.035590
O O8 0.630481 0.636120 0.051919
O O9 0.386676 0.925132 0.802679
O O10 0.632362 0.598166 0.274223
O O11 0.623418 0.652048 0.843667
O O12 0.457598 0.971236 0.598104
O O13 0.789913 0.743975 0.656565
O O14 0.692519 0.687377 0.514466
O O15 0.839940 0.501642 0.595410
O O16 0.000000 0.500000 0.500000
O O17 0.500000 0.500000 0.500000
#
# Coordination Sequence:
#
# PCOD9001942 Si02
#       8
#     2   2   2   2   2   2   2   2
#     4  10  21  36  55  81 112 142 180 229 270 316
#     4   9  20  37  56  80 110 141 180 230 271 316
#     4   9  20  37  56  79 109 142 181 224 268 325
#     4   8  16  35  60  81 105 139 178 226 277 319
#     4  10  21  36  55  80 111 145 182 221 265 327
#     4  12  23  35  57  83 107 144 189 228 269 320
#     4   8  16  35  60  80 105 143 178 218 277 329
#     4  12  25  37  53  79 115 152 184 221 269 323
#
# _framework density 24.266591999999999
#
# number of rings (size 3 to 8) (size 9 to 14) (size 15 to 20)
#    0.000    2.750    0.000    4.500    0.000    6.500 
#    0.000    1.250    0.000    9.000    0.000    1.750 
#    0.000    0.000    0.000    0.000    0.000    0.000 
#
# Total GULP energy -89222.334613 kJ/mol
# GULP energy per Si atom -5576.395913 kJ/mol
# Density = 2.421136 g / cm^3
# Si number density = 24.266592 Si / 1000 Ang^3
#
#
#
# Elastic Constant Matrix: (Units=GPa)
#
#
# Indices 1 2 3 4 5 6 
#
# 1 118.1280 33.1138 16.3311 -5.3357 -13.3828 -37.3349
# 2 33.1138 104.8489 15.4518 6.0861 -17.2181 -27.5444
# 3 16.3311 15.4518 52.6843 8.9748 -16.6241 -8.7528
# 4 -5.3357 6.0861 8.9748 21.0037 -1.1476 -10.4825
# 5 -13.3828 -17.2181 -16.6241 -1.1476 32.5808 12.7220
# 6 -37.3349 -27.5444 -8.7528 -10.4825 12.7220 42.9966
#
#
#
# Elastic Compliance Matrix: (Units=1/GPa)
#
#
# Indices 1 2 3 4 5 6 
#
# 1 0.014435 -0.001144 -0.004689 0.013248 -0.002372 0.014778
# 2 -0.001144 0.012049 -0.001223 -0.000362 0.003128 0.005463
# 3 -0.004689 -0.001223 0.026274 -0.014835 0.013037 -0.006981
# 4 0.013248 -0.000362 -0.014835 0.071238 -0.011096 0.028902
# 5 -0.002372 0.003128 0.013037 -0.011096 0.042596 -0.012710
# 6 0.014778 0.005463 -0.006981 0.028902 -0.012710 0.048975
#
#
# Mechanical properties :
#
#
# Convention : Reuss Voigt Hill
#
# Bulk Modulus (GPa) = 25.87589 45.05051 35.46320
# Shear Modulus (GPa) = 20.61335 33.36719 26.99027
#
# Velocity S-wave (km/s) = 2.91770 3.71216 3.33864
# Velocity P-wave (km/s) = 4.69435 6.08100 5.43211
#
# Compressibility (1/GPa) = 0.03864601
#
# Stress axis : x y z
#
# Youngs Moduli (GPa) = 69.27750 82.99591 38.05984
#
# Poissons Ratio (x) = 0.09494 0.17846
# Poissons Ratio (y) = 0.07925 0.04655
# Poissons Ratio (z) = 0.32484 0.10151
#
# Static dielectric constant tensor:
#      x y z
#    x 2.039490 -0.020930 0.033830 
#    y -0.020930 1.978020 0.060750 
#    z 0.033830 0.060750 2.002070 
# 
# From -- ./inp_files/503722.got.cif
#   From: 2010.05.17/outbox.cif.g08.bks.cpg/sg2_252_cif.got.tgz:503722.got - 2010.06.03 11:33:40.
