data_PCOD9001825
_publ_section_title
;
Structure prediction by ZEFSAII (Michael W. Deem and Ramdas Pophale) SiO2 
 PCOD9001825
Probable space group: P -1
;
_chemical_formula_sum "Si O2"
_cell_formula_units_Z 16
_cell_length_a 15.581707
_cell_length_b 7.312226
_cell_length_c 9.195236
_cell_angle_alpha 49.858870
_cell_angle_beta 50.663670
_cell_angle_gamma 61.075759
_cell_volume 614.446036
_symmetry_space_group_name_H-M "P -1"
_symmetry_group_IT_number 2
_symmetry_cell_setting 'triclinic'
loop_
_space_group_symop_operation_xyz
x,y,z
-x,-y,-z
loop_
_atom_site_type_symbol
_atom_site_label
_atom_site_fract_x
_atom_site_fract_y
_atom_site_fract_z
Si Si1 0.580094 0.926094 0.168507
Si Si2 0.968769 0.349601 0.811008
Si Si3 0.233775 0.406244 0.978579
Si Si4 0.374926 0.615455 0.927696
Si Si5 0.336253 0.130946 0.360574
Si Si6 0.089484 0.991632 0.686335
Si Si7 0.845150 0.430130 0.340409
Si Si8 0.611450 0.600747 0.570440
O O1 0.583186 0.697285 0.390640
O O2 0.449086 0.992184 0.239314
O O3 0.675125 0.830690 0.998778
O O4 0.620192 0.146745 0.104412
O O5 0.086121 0.412352 0.713139
O O6 0.873291 0.575576 0.810140
O O7 0.995841 0.219022 0.695721
O O8 0.926280 0.166071 0.069611
O O9 0.303675 0.617245 0.854836
O O10 0.183819 0.442236 0.851025
O O11 0.327466 0.407646 0.175843
O O12 0.502411 0.517664 0.799851
O O13 0.365034 0.163731 0.483154
O O14 0.217807 0.039735 0.517352
O O15 0.078607 0.816883 0.652625
O O16 0.723200 0.414905 0.544027
#
# Coordination Sequence:
#
# PCOD9001825 Si02
#       8
#     2   2   2   2   2   2   2   2
#     4  10  23  38  64  91 125 157 203 256 300 353
#     4  10  21  40  62  93 123 151 210 261 298 350
#     4  10  23  36  62  93 118 158 205 246 308 353
#     4  11  24  40  58  91 133 163 192 249 305 377
#     4  11  22  41  60  91 129 164 200 236 316 373
#     4  10  21  35  65  90 117 163 199 250 306 350
#     4  10  21  37  64  94 121 151 210 263 296 349
#     4  10  21  38  65  92 124 157 204 255 302 351
#
# _framework density 26.039712999999999
#
# number of rings (size 3 to 8) (size 9 to 14) (size 15 to 20)
#    0.000    1.750    1.250    4.500    8.750    3.500 
#    2.250    0.625    0.000    3.750    0.000    0.000 
#    0.000    0.000    0.000    0.000    0.000    0.000 
#
# Total GULP energy -89491.410294 kJ/mol
# GULP energy per Si atom -5593.213143 kJ/mol
# Density = 2.598045 g / cm^3
# Si number density = 26.039713 Si / 1000 Ang^3
#
#
#
# Elastic Constant Matrix: (Units=GPa)
#
#
# Indices 1 2 3 4 5 6 
#
# 1 76.0406 13.7448 11.3487 -0.5984 -9.7894 -4.5127
# 2 13.7448 151.9282 35.2373 49.6080 -5.6921 -0.6119
# 3 11.3487 35.2373 89.4824 3.6807 -14.1766 -0.8237
# 4 -0.5984 49.6080 3.6807 46.2299 -4.0858 -10.7772
# 5 -9.7894 -5.6921 -14.1766 -4.0858 32.8020 -5.5390
# 6 -4.5127 -0.6119 -0.8237 -10.7772 -5.5390 24.6205
#
#
#
# Elastic Compliance Matrix: (Units=1/GPa)
#
#
# Indices 1 2 3 4 5 6 
#
# 1 0.014773 -0.002735 -0.000066 0.005045 0.005564 0.006098
# 2 -0.002735 0.012899 -0.004791 -0.015742 -0.003982 -0.008128
# 3 -0.000066 -0.004791 0.013922 0.005609 0.006586 0.004272
# 4 0.005045 -0.015742 0.005609 0.044313 0.010514 0.022484
# 5 0.005564 -0.003982 0.006586 0.010514 0.038026 0.014298
# 6 0.006098 -0.008128 0.004272 0.022484 0.014298 0.054734
#
#
# Mechanical properties :
#
#
# Convention : Reuss Voigt Hill
#
# Bulk Modulus (GPa) = 37.86544 48.67920 43.27232
# Shear Modulus (GPa) = 24.67256 37.87183 31.27220
#
# Velocity S-wave (km/s) = 3.08148 3.81778 3.46922
# Velocity P-wave (km/s) = 5.21859 6.17808 5.71850
#
# Compressibility (1/GPa) = 0.02640931
#
# Stress axis : x y z
#
# Youngs Moduli (GPa) = 67.69094 77.52621 71.82723
#
# Poissons Ratio (x) = 0.21206 0.00477
# Poissons Ratio (y) = 0.18516 0.34410
# Poissons Ratio (z) = 0.00449 0.37140
#
# Static dielectric constant tensor:
#      x y z
#    x 2.067330 -0.009570 0.062250 
#    y -0.009570 2.117050 0.009900 
#    z 0.062250 0.009900 2.017620 
# 
# From -- ./inp_files/460996.got.cif
#   From: 2010.05.17/outbox.cif.g08.bks.cpg/sg2_231_cif.got.tgz:460996.got - 2010.06.03 11:33:40.
