data_PCOD9001108
_publ_section_title
;
Structure prediction by ZEFSAII (Michael W. Deem and Ramdas Pophale) SiO2 
 PCOD9001108
Probable space group: P -1
;
_chemical_formula_sum "Si O2"
_cell_formula_units_Z 16
_cell_length_a 16.207025
_cell_length_b 13.255780
_cell_length_c 5.024248
_cell_angle_alpha 101.085322
_cell_angle_beta 135.464707
_cell_angle_gamma 84.552556
_cell_volume 741.513488
_symmetry_space_group_name_H-M "P -1"
_symmetry_group_IT_number 2
_symmetry_cell_setting 'triclinic'
loop_
_space_group_symop_operation_xyz
x,y,z
-x,-y,-z
loop_
_atom_site_type_symbol
_atom_site_label
_atom_site_fract_x
_atom_site_fract_y
_atom_site_fract_z
Si Si1 0.785569 0.114128 0.715424
Si Si2 0.361176 0.529266 0.392131
Si Si3 0.486438 0.634411 0.231392
Si Si4 0.059579 0.197039 0.346895
Si Si5 0.320869 0.794178 0.981563
Si Si6 0.112326 0.074844 0.885267
Si Si7 0.065802 0.426340 0.414288
Si Si8 0.173994 0.585279 0.390658
O O1 0.725566 0.124021 0.294350
O O2 0.704137 0.171646 0.761861
O O3 0.918337 0.169950 0.053043
O O4 0.800732 0.000727 0.810659
O O5 0.401749 0.572871 0.222539
O O6 0.388651 0.409712 0.431427
O O7 0.236846 0.554242 0.246146
O O8 0.449559 0.593010 0.834158
O O9 0.451100 0.752101 0.225650
O O10 0.137156 0.133656 0.697187
O O11 0.092589 0.316646 0.534279
O O12 0.080258 0.157116 0.076207
O O13 0.236583 0.692033 0.678748
O O14 0.000000 0.000000 0.500000
O O15 0.170873 0.489005 0.535686
O O16 0.000000 0.500000 0.500000
O O17 0.962831 0.396144 0.949249
#
# Coordination Sequence:
#
# PCOD9001108 Si02
#       8
#     2   2   2   2   2   2   2   2
#     4  11  19  31  50  72  98 126 165 204 259 301
#     4   9  18  33  48  68  99 136 167 206 245 302
#     4   9  18  30  49  73  98 129 168 202 256 305
#     4  11  21  35  49  68  99 136 170 212 244 295
#     4  11  19  30  51  75 101 131 162 206 251 305
#     4  10  21  34  51  69  94 129 173 208 260 303
#     4  11  24  34  50  72 104 143 184 211 236 286
#     4  10  22  33  48  71 103 141 176 203 246 288
#
# _framework density 21.577490999999998
#
# number of rings (size 3 to 8) (size 9 to 14) (size 15 to 20)
#    0.000    1.750    1.250    6.000    7.000    0.000 
#    0.000    0.000    0.000    0.000    0.000    0.000 
#    0.000    6.000    0.000    0.000    0.000    0.000 
#
# Total GULP energy -89241.495269 kJ/mol
# GULP energy per Si atom -5577.593454 kJ/mol
# Density = 2.152838 g / cm^3
# Si number density = 21.577491 Si / 1000 Ang^3
#
#
#
# Elastic Constant Matrix: (Units=GPa)
#
#
# Indices 1 2 3 4 5 6 
#
# 1 52.4122 -2.6703 4.2370 13.6664 -18.3546 -8.7035
# 2 -2.6703 68.8644 4.6814 -7.8576 4.5348 -1.0108
# 3 4.2370 4.6814 34.7596 -9.2584 -14.9157 5.7721
# 4 13.6664 -7.8576 -9.2584 28.7079 -7.5868 -9.5932
# 5 -18.3546 4.5348 -14.9157 -7.5868 27.5997 -5.8706
# 6 -8.7035 -1.0108 5.7721 -9.5932 -5.8706 32.4721
#
#
#
# Elastic Compliance Matrix: (Units=1/GPa)
#
#
# Indices 1 2 3 4 5 6 
#
# 1 0.029389 -0.000875 0.003716 -0.003540 0.022911 0.010286
# 2 -0.000875 0.015280 -0.002821 0.003088 -0.003553 0.001013
# 3 0.003716 -0.002821 0.051840 0.027001 0.039835 0.006872
# 4 -0.003540 0.003088 0.027001 0.060640 0.032248 0.018093
# 5 0.022911 -0.003553 0.039835 0.032248 0.087617 0.024317
# 6 0.010286 0.001013 0.006872 0.018093 0.024317 0.042104
#
#
# Mechanical properties :
#
#
# Convention : Reuss Voigt Hill
#
# Bulk Modulus (GPa) = 10.35739 18.72584 14.54162
# Shear Modulus (GPa) = 15.67327 27.74183 21.70755
#
# Velocity S-wave (km/s) = 2.69805 3.58953 3.17523
# Velocity P-wave (km/s) = 3.81005 5.08694 4.49407
#
# Compressibility (1/GPa) = 0.09654941
#
# Stress axis : x y z
#
# Youngs Moduli (GPa) = 34.02639 65.44334 19.29003
#
# Poissons Ratio (x) = 0.05724 -0.07168
# Poissons Ratio (y) = 0.02976 0.05443
# Poissons Ratio (z) = -0.12644 0.18465
#
# Static dielectric constant tensor:
#      x y z
#    x 1.781580 -0.004990 0.012400 
#    y -0.004990 1.901100 -0.074450 
#    z 0.012400 -0.074450 1.894250 
# 
# From -- ./inp_files/73915.got.cif
#   From: 2010.05.17/outbox.cif.g08.bks.cpg/sg2_37_cif.got.tgz:73915.got - 2010.06.03 11:33:40.
