data_PCOD9001065
_publ_section_title
;
Structure prediction by ZEFSAII (Michael W. Deem and Ramdas Pophale) SiO2 
 PCOD9001065
Probable space group: P -1
;
_chemical_formula_sum "Si O2"
_cell_formula_units_Z 16
_cell_length_a 5.483510
_cell_length_b 19.224091
_cell_length_c 6.964136
_cell_angle_alpha 90.229212
_cell_angle_beta 80.286879
_cell_angle_gamma 69.649571
_cell_volume 676.877043
_symmetry_space_group_name_H-M "P -1"
_symmetry_group_IT_number 2
_symmetry_cell_setting 'triclinic'
loop_
_space_group_symop_operation_xyz
x,y,z
-x,-y,-z
loop_
_atom_site_type_symbol
_atom_site_label
_atom_site_fract_x
_atom_site_fract_y
_atom_site_fract_z
Si Si1 0.645126 0.235295 0.820302
Si Si2 0.772097 0.965915 0.232608
Si Si3 0.904735 0.851680 0.509938
Si Si4 0.557332 0.494767 0.265499
Si Si5 0.500994 0.351805 0.151146
Si Si6 0.614302 0.090882 0.973563
Si Si7 0.056137 0.496573 0.264262
Si Si8 0.534562 0.216329 0.416611
O O1 0.596829 0.310513 0.939074
O O2 0.575496 0.177374 0.967768
O O3 0.481530 0.242078 0.646804
O O4 0.942213 0.195401 0.698531
O O5 0.770348 0.935298 0.447896
O O6 0.635978 0.049515 0.173367
O O7 0.613175 0.924607 0.122081
O O8 0.087369 0.946256 0.153269
O O9 0.692450 0.816392 0.605494
O O10 0.155769 0.840217 0.616760
O O11 0.500000 0.500000 0.500000
O O12 0.644206 0.407829 0.202470
O O13 0.780801 0.527831 0.195687
O O14 0.277611 0.532238 0.200047
O O15 0.529221 0.287064 0.297846
O O16 0.201326 0.409866 0.196830
O O17 0.000000 0.500000 0.500000
#
# Coordination Sequence:
#
# PCOD9001065 Si02
#       8
#     2   2   2   2   2   2   2   2
#     4   9  20  35  51  80 107 130 172 217 255 301
#     4   9  14  28  49  69  93 138 172 202 255 291
#     4   9  18  35  49  72 108 135 170 216 248 305
#     4   8  16  31  49  76  97 126 171 202 241 301
#     4  10  21  33  59  78 103 139 167 210 263 301
#     4   9  16  26  48  75  94 128 178 207 243 308
#     4   8  16  30  50  76  97 127 169 203 243 300
#     4  10  21  34  49  78 107 136 166 211 256 312
#
# _framework density 23.637968999999998
#
# number of rings (size 3 to 8) (size 9 to 14) (size 15 to 20)
#    1.500    1.500    1.250    0.000    1.750    1.000 
#    0.000    0.000    0.000    3.000    0.000    0.000 
#    0.000    0.000    0.000    0.000    0.000    0.000 
#
# Total GULP energy -89112.046056 kJ/mol
# GULP energy per Si atom -5569.502878 kJ/mol
# Density = 2.358417 g / cm^3
# Si number density = 23.637969 Si / 1000 Ang^3
#
#
#
# Elastic Constant Matrix: (Units=GPa)
#
#
# Indices 1 2 3 4 5 6 
#
# 1 197.6143 22.8918 24.9854 -6.0024 -17.7245 7.7301
# 2 22.8918 79.5921 45.0684 -4.2613 1.3368 6.9349
# 3 24.9854 45.0684 67.1837 -7.9688 -9.0677 -0.6751
# 4 -6.0024 -4.2613 -7.9688 51.8180 6.0016 4.2200
# 5 -17.7245 1.3368 -9.0677 6.0016 16.6719 -0.7571
# 6 7.7301 6.9349 -0.6751 4.2200 -0.7571 23.3578
#
#
#
# Elastic Compliance Matrix: (Units=1/GPa)
#
#
# Indices 1 2 3 4 5 6 
#
# 1 0.005877 -0.001452 -0.000412 -0.000104 0.006119 -0.001309
# 2 -0.001452 0.023597 -0.017034 0.001348 -0.013535 -0.007700
# 3 -0.000412 -0.017034 0.028849 0.000524 0.016725 0.006475
# 4 -0.000104 0.001348 0.000524 0.020709 -0.007586 -0.004338
# 5 0.006119 -0.013535 0.016725 -0.007586 0.079691 0.006430
# 6 -0.001309 -0.007700 0.006475 -0.004338 0.006430 0.046711
#
#
# Mechanical properties :
#
#
# Convention : Reuss Voigt Hill
#
# Bulk Modulus (GPa) = 48.71150 58.92014 53.81582
# Shear Modulus (GPa) = 19.99413 35.13249 27.56331
#
# Velocity S-wave (km/s) = 2.91150 3.85940 3.41847
# Velocity P-wave (km/s) = 5.65283 6.69628 6.19656
#
# Compressibility (1/GPa) = 0.02052903
#
# Stress axis : x y z
#
# Youngs Moduli (GPa) = 170.14207 42.37744 34.66314
#
# Poissons Ratio (x) = 0.06152 0.01427
# Poissons Ratio (y) = 0.24699 0.59046
# Poissons Ratio (z) = 0.07003 0.72187
#
# Static dielectric constant tensor:
#      x y z
#    x 1.944670 -0.016860 -0.003520 
#    y -0.016860 1.833020 0.024510 
#    z -0.003520 0.024510 1.946620 
# 
# From -- ./inp_files/140669.got.cif
#   From: 2010.05.17/outbox.cif.g08.bks.cpg/sg2_71_cif.got.tgz:140669.got - 2010.06.03 11:33:40.
