data_PCOD9001198
_publ_section_title
;
Structure prediction by ZEFSAII (Michael W. Deem and Ramdas Pophale) SiO2 
 PCOD9001198
Probable space group: P -1
;
_chemical_formula_sum "Si O2"
_cell_formula_units_Z 16
_cell_length_a 8.772013
_cell_length_b 17.975059
_cell_length_c 21.125011
_cell_angle_alpha 161.795560
_cell_angle_beta 47.258021
_cell_angle_gamma 124.191489
_cell_volume 712.785974
_symmetry_space_group_name_H-M "P -1"
_symmetry_group_IT_number 2
_symmetry_cell_setting 'triclinic'
loop_
_space_group_symop_operation_xyz
x,y,z
-x,-y,-z
loop_
_atom_site_type_symbol
_atom_site_label
_atom_site_fract_x
_atom_site_fract_y
_atom_site_fract_z
Si Si1 0.397588 0.801923 0.336535
Si Si2 0.488911 0.477378 0.794083
Si Si3 0.733386 0.811341 0.927277
Si Si4 0.965558 0.076502 0.739096
Si Si5 0.322380 0.099905 0.759386
Si Si6 0.281475 0.281533 0.424615
Si Si7 0.242950 0.191398 0.224675
Si Si8 0.003181 0.808517 0.966266
O O1 0.450347 0.587348 0.201946
O O2 0.500000 0.000000 0.500000
O O3 0.131809 0.945291 0.528460
O O4 0.521873 0.759517 0.200338
O O5 0.637645 0.617312 0.832295
O O6 0.537673 0.204672 0.525762
O O7 0.235956 0.668133 0.014899
O O8 0.795386 0.708010 0.754977
O O9 0.916326 0.848648 0.951559
O O10 0.534223 0.088119 0.202000
O O11 0.119341 0.134981 0.796218
O O12 0.865040 0.876976 0.635691
O O13 0.202400 0.192896 0.934393
O O14 0.222483 0.349508 0.422362
O O15 0.210673 0.541977 0.694031
O O16 0.500000 0.000000 0.000000
O O17 0.084423 0.028791 0.145199
#
# Coordination Sequence:
#
# PCOD9001198 Si02
#       8
#     2   2   2   2   2   2   2   2
#     4   8  17  31  54  89 119 153 206 242 291 359
#     4   9  18  36  60  84 123 157 200 251 290 355
#     4  10  23  40  61  93 119 157 206 250 300 358
#     4   9  16  35  61  83 118 165 197 243 302 344
#     4  10  21  34  56  91 120 158 201 243 302 358
#     4  10  22  42  63  88 124 162 201 246 303 359
#     4  10  23  44  64  91 118 160 209 242 306 364
#     4  12  23  41  63  89 128 156 199 256 300 358
#
# _framework density 22.447130000000001
#
# number of rings (size 3 to 8) (size 9 to 14) (size 15 to 20)
#    0.000    2.500    1.250    1.875    0.000    8.000 
#    2.250    2.500    0.000    3.000    0.000    0.000 
#    0.000    0.000    0.000    0.000    0.000    0.000 
#
# Total GULP energy -89374.580415 kJ/mol
# GULP energy per Si atom -5585.911276 kJ/mol
# Density = 2.239604 g / cm^3
# Si number density = 22.447130 Si / 1000 Ang^3
#
#
#
# Elastic Constant Matrix: (Units=GPa)
#
#
# Indices 1 2 3 4 5 6 
#
# 1 32.5328 3.7332 24.1167 0.8947 -6.4668 0.6513
# 2 3.7332 116.0826 43.9532 -15.0757 -1.1677 -15.5888
# 3 24.1167 43.9532 58.0749 -7.2417 -33.6779 -21.7136
# 4 0.8947 -15.0757 -7.2417 34.0756 -1.2720 -1.6861
# 5 -6.4668 -1.1677 -33.6779 -1.2720 20.9634 -8.6636
# 6 0.6513 -15.5888 -21.7136 -1.6861 -8.6636 25.3138
#
#
#
# Elastic Compliance Matrix: (Units=1/GPa)
#
#
# Indices 1 2 3 4 5 6 
#
# 1 0.031177 -0.001179 0.005342 0.001183 0.022714 0.010907
# 2 -0.001179 0.010327 0.001411 0.005681 0.007128 0.010418
# 3 0.005342 0.001411 -0.015671 -0.005337 -0.033980 -0.024697
# 4 0.001183 0.005681 -0.005337 0.030381 -0.006606 -0.001347
# 5 0.022714 0.007128 -0.033980 -0.006606 -0.012276 -0.029984
# 6 0.010907 0.010418 -0.024697 -0.001347 -0.029984 0.014103
#
#
# Mechanical properties :
#
#
# Convention : Reuss Voigt Hill
#
# Bulk Modulus (GPa) = 27.04107 38.92186 32.98146
# Shear Modulus (GPa) = 84.43137 25.06301 54.74719
#
# Velocity S-wave (km/s) = 6.13963 3.34508 4.94392
# Velocity P-wave (km/s) = 7.89511 5.68300 6.87856
#
# Compressibility (1/GPa) = 0.03698079
#
# Stress axis : x y z
#
# Youngs Moduli (GPa) = 32.07457 96.83468 -63.81016
#
# Poissons Ratio (x) = 0.11413 0.34088
# Poissons Ratio (y) = 0.03780 0.09001
# Poissons Ratio (z) = -0.17135 -0.13659
#
# Static dielectric constant tensor:
#      x y z
#    x 1.801310 -0.012850 0.017030 
#    y -0.012850 1.874880 -0.029500 
#    z 0.017030 -0.029500 1.871420 
# 
# From -- ./inp_files/591057.got.cif
#   From: 2010.05.17/outbox.cif.g08.bks.cpg/sg2_296_cif.got.tgz:591057.got - 2010.06.03 11:33:40.
