data_PCOD9001529
_publ_section_title
;
Structure prediction by ZEFSAII (Michael W. Deem and Ramdas Pophale) SiO2 
 PCOD9001529
Probable space group: P -1
;
_chemical_formula_sum "Si O2"
_cell_formula_units_Z 10
_cell_length_a 12.956737
_cell_length_b 14.392967
_cell_length_c 9.354936
_cell_angle_alpha 35.371325
_cell_angle_beta 149.698952
_cell_angle_gamma 148.622199
_cell_volume 437.475852
_symmetry_space_group_name_H-M "P -1"
_symmetry_group_IT_number 2
_symmetry_cell_setting 'triclinic'
loop_
_space_group_symop_operation_xyz
x,y,z
-x,-y,-z
loop_
_atom_site_type_symbol
_atom_site_label
_atom_site_fract_x
_atom_site_fract_y
_atom_site_fract_z
Si Si1 0.434208 0.851839 0.235366
Si Si2 0.898101 0.072172 0.910550
Si Si3 0.065990 0.191968 0.260199
Si Si4 0.387433 0.837141 0.728488
Si Si5 0.736444 0.447230 0.803780
O O1 0.427576 0.677075 0.369396
O O2 0.585694 0.979835 0.387294
O O3 0.167209 0.788637 0.040949
O O4 0.500000 0.000000 0.000000
O O5 0.645591 0.905434 0.882442
O O6 0.816755 0.210075 0.572074
O O7 0.083756 0.163444 0.148654
O O8 0.000000 0.000000 0.000000
O O9 0.247646 0.363189 0.362907
O O10 0.000000 0.000000 0.500000
O O11 0.322869 0.681682 0.965221
O O12 0.000000 0.500000 0.000000
#
# Coordination Sequence:
#
# PCOD9001529 Si02
#       5
#     2   2   2   2   2
#     4   8  16  33  58  80 108 153 188 234 289 342
#     4  10  22  37  62  84 120 163 189 246 299 343
#     4  10  21  35  57  89 117 149 199 245 292 348
#     4   9  19  39  61  85 119 156 203 232 295 364
#     4   9  18  34  63  89 113 158 196 240 298 348
#
# _framework density 22.858404
#
# number of rings (size 3 to 8) (size 9 to 14) (size 15 to 20)
#    0.000    2.800    0.000    0.000    8.400    0.800 
#    0.000   10.000    0.000    0.000    0.000    0.000 
#    0.000    0.000    0.000    0.000    0.000    0.000 
#
# Total GULP energy -55762.714335 kJ/mol
# GULP energy per Si atom -5576.271434 kJ/mol
# Density = 2.280638 g / cm^3
# Si number density = 22.858404 Si / 1000 Ang^3
#
#
#
# Elastic Constant Matrix: (Units=GPa)
#
#
# Indices 1 2 3 4 5 6 
#
# 1 167.3641 45.1453 33.9821 -10.0236 5.7584 -19.4620
# 2 45.1453 153.7431 52.8571 -8.8866 -6.5822 -39.1952
# 3 33.9821 52.8571 81.2215 8.9703 -10.7406 -7.5539
# 4 -10.0236 -8.8866 8.9703 40.5771 -8.7137 3.2127
# 5 5.7584 -6.5822 -10.7406 -8.7137 41.4078 -3.6116
# 6 -19.4620 -39.1952 -7.5539 3.2127 -3.6116 47.7072
#
#
#
# Elastic Compliance Matrix: (Units=1/GPa)
#
#
# Indices 1 2 3 4 5 6 
#
# 1 0.007054 -0.000648 -0.002738 0.001800 -0.001268 0.001694
# 2 -0.000648 0.011154 -0.006433 0.003432 0.001595 0.007770
# 3 -0.002738 -0.006433 0.018320 -0.005315 0.002735 -0.002937
# 4 0.001800 0.003432 -0.005315 0.027975 0.004908 0.001200
# 5 -0.001268 0.001595 0.002735 0.004908 0.026576 0.002907
# 6 0.001694 0.007770 -0.002937 0.001200 0.002907 0.027711
#
#
# Mechanical properties :
#
#
# Convention : Reuss Voigt Hill
#
# Bulk Modulus (GPa) = 59.21093 74.03308 66.62201
# Shear Modulus (GPa) = 34.70815 43.96137 39.33476
#
# Velocity S-wave (km/s) = 3.90089 4.39019 4.15275
# Velocity P-wave (km/s) = 6.80065 7.62603 7.22514
#
# Compressibility (1/GPa) = 0.01688877
#
# Stress axis : x y z
#
# Youngs Moduli (GPa) = 141.75729 89.65363 54.58560
#
# Poissons Ratio (x) = 0.05812 0.14948
# Poissons Ratio (y) = 0.09190 0.35115
# Poissons Ratio (z) = 0.38819 0.57675
#
# Static dielectric constant tensor:
#      x y z
#    x 1.878090 -0.026540 0.029870 
#    y -0.026540 1.929330 0.030360 
#    z 0.029870 0.030360 1.830850 
# 
# From -- ./inp_files/145038.got.cif
#   From: 2010.05.17/outbox.cif.g08.bks.cpg/sg2_73_cif.got.tgz:145038.got - 2010.06.03 11:33:40.
