data_PCOD9001150
_publ_section_title
;
Structure prediction by ZEFSAII (Michael W. Deem and Ramdas Pophale) SiO2 
 PCOD9001150
Probable space group: P -1
;
_chemical_formula_sum "Si O2"
_cell_formula_units_Z 14
_cell_length_a 6.891480
_cell_length_b 6.938648
_cell_length_c 16.942411
_cell_angle_alpha 119.826232
_cell_angle_beta 95.470787
_cell_angle_gamma 117.980362
_cell_volume 560.651993
_symmetry_space_group_name_H-M "P -1"
_symmetry_group_IT_number 2
_symmetry_cell_setting 'triclinic'
loop_
_space_group_symop_operation_xyz
x,y,z
-x,-y,-z
loop_
_atom_site_type_symbol
_atom_site_label
_atom_site_fract_x
_atom_site_fract_y
_atom_site_fract_z
Si Si1 0.307644 0.899600 0.163680
Si Si2 0.275232 0.313811 0.309559
Si Si3 0.912393 0.861171 0.575913
Si Si4 0.376582 0.109809 0.566631
Si Si5 0.780469 0.017832 0.148333
Si Si6 0.387009 0.157771 0.055718
Si Si7 0.101596 0.413043 0.792441
O O1 0.741179 0.003027 0.900998
O O2 0.074054 0.658948 0.154039
O O3 0.515067 0.861432 0.145777
O O4 0.411322 0.172581 0.276922
O O5 0.000016 0.081620 0.222739
O O6 0.243741 0.362764 0.408575
O O7 0.412377 0.599590 0.326282
O O8 0.756710 0.810641 0.482634
O O9 0.158491 0.897662 0.572669
O O10 0.990632 0.152666 0.676934
O O11 0.500000 0.000000 0.500000
O O12 0.759288 0.876227 0.034829
O O13 0.859399 0.327199 0.197385
O O14 0.374888 0.533831 0.854565
O O15 0.500000 0.000000 0.000000
#
# Coordination Sequence:
#
# PCOD9001150 Si02
#       7
#     2   2   2   2   2   2   2
#     4   9  19  36  56  77 112 150 181 225 272 312
#     4  11  23  38  57  83 112 145 180 223 276 325
#     4  10  23  40  58  84 111 139 183 227 269 330
#     4  11  23  40  62  83 107 142 180 225 279 327
#     4  10  21  34  54  84 113 144 187 224 262 323
#     4   8  17  32  53  82 111 143 186 226 262 315
#     4   9  17  36  59  77 109 150 181 223 275 316
#
# _framework density 24.970927
#
# number of rings (size 3 to 8) (size 9 to 14) (size 15 to 20)
#    0.000    2.571    0.000    3.000    0.000   10.857 
#    0.000    2.857    0.000    0.000    0.000    1.000 
#    0.000    0.000    0.000    0.000    0.000    0.000 
#
# Total GULP energy -78185.506794 kJ/mol
# GULP energy per Si atom -5584.679057 kJ/mol
# Density = 2.491409 g / cm^3
# Si number density = 24.970927 Si / 1000 Ang^3
#
#
#
# Elastic Constant Matrix: (Units=GPa)
#
#
# Indices 1 2 3 4 5 6 
#
# 1 87.9700 32.3901 -0.1596 -6.6825 3.4769 26.5586
# 2 32.3901 78.8051 -5.9866 -7.5945 -6.1885 29.4247
# 3 -0.1596 -5.9866 58.6744 0.8686 12.8764 1.3969
# 4 -6.6825 -7.5945 0.8686 36.1424 -0.2603 -13.8005
# 5 3.4769 -6.1885 12.8764 -0.2603 38.2910 -6.8348
# 6 26.5586 29.4247 1.3969 -13.8005 -6.8348 31.2955
#
#
#
# Elastic Compliance Matrix: (Units=1/GPa)
#
#
# Indices 1 2 3 4 5 6 
#
# 1 0.016444 -0.001858 0.001319 -0.003015 -0.004874 -0.014661
# 2 -0.001858 0.020616 0.002843 -0.003630 -0.001006 -0.019755
# 3 0.001319 0.002843 0.019183 -0.002488 -0.007444 -0.007371
# 4 -0.003015 -0.003630 -0.002488 0.035070 0.004795 0.022595
# 5 -0.004874 -0.001006 -0.007444 0.004795 0.031504 0.014410
# 6 -0.014661 -0.019755 -0.007371 0.022595 0.014410 0.076410
#
#
# Mechanical properties :
#
#
# Convention : Reuss Voigt Hill
#
# Bulk Modulus (GPa) = 16.43335 30.88193 23.65764
# Shear Modulus (GPa) = 23.26650 34.42615 28.84633
#
# Velocity S-wave (km/s) = 3.05576 3.71704 3.40251
# Velocity P-wave (km/s) = 4.36412 5.55121 4.99307
#
# Compressibility (1/GPa) = 0.06085185
#
# Stress axis : x y z
#
# Youngs Moduli (GPa) = 60.81341 48.50510 52.13005
#
# Poissons Ratio (x) = 0.09010 -0.06874
# Poissons Ratio (y) = 0.11296 -0.14823
# Poissons Ratio (z) = -0.08019 -0.13792
#
# Static dielectric constant tensor:
#      x y z
#    x 2.004280 0.006650 0.076260 
#    y 0.006650 2.036050 -0.058520 
#    z 0.076260 -0.058520 2.060240 
# 
# From -- ./inp_files/603585.got.cif
#   From: 2010.05.17/outbox.cif.g08.bks.cpg/sg2_302_cif.got.tgz:603585.got - 2010.06.03 11:33:40.
