data_PCOD9001091
_publ_section_title
;
Structure prediction by ZEFSAII (Michael W. Deem and Ramdas Pophale) SiO2 
 PCOD9001091
Probable space group: P -1
;
_chemical_formula_sum "Si O2"
_cell_formula_units_Z 14
_cell_length_a 6.571207
_cell_length_b 11.812296
_cell_length_c 9.887094
_cell_angle_alpha 111.289572
_cell_angle_beta 105.945177
_cell_angle_gamma 112.966115
_cell_volume 575.645357
_symmetry_space_group_name_H-M "P -1"
_symmetry_group_IT_number 2
_symmetry_cell_setting 'triclinic'
loop_
_space_group_symop_operation_xyz
x,y,z
-x,-y,-z
loop_
_atom_site_type_symbol
_atom_site_label
_atom_site_fract_x
_atom_site_fract_y
_atom_site_fract_z
Si Si1 0.275224 0.069985 0.694615
Si Si2 0.778731 0.197518 0.510544
Si Si3 0.419141 0.603526 0.088428
Si Si4 0.046082 0.304154 0.316681
Si Si5 0.307163 0.930096 0.056425
Si Si6 0.242698 0.122069 0.320925
Si Si7 0.035325 0.507755 0.218372
O O1 0.358648 0.234254 0.757860
O O2 0.534605 0.091958 0.810591
O O3 0.197963 0.939033 0.517981
O O4 0.034418 0.989936 0.715756
O O5 0.864348 0.243425 0.388840
O O6 0.492334 0.154197 0.456853
O O7 0.942263 0.340463 0.690709
O O8 0.235037 0.531320 0.151506
O O9 0.500000 0.500000 0.000000
O O10 0.244621 0.604940 0.937719
O O11 0.261602 0.273776 0.376554
O O12 0.096361 0.456600 0.345806
O O13 0.926982 0.209907 0.116400
O O14 0.246639 0.043510 0.151943
O O15 0.500000 0.000000 0.000000
#
# Coordination Sequence:
#
# PCOD9001091 Si02
#       7
#     2   2   2   2   2   2   2
#     4  10  22  40  64  90 123 161 212 259 300 362
#     4  10  23  42  64  97 128 160 200 253 320 377
#     4  11  27  45  66  90 117 169 221 256 303 361
#     4  11  21  36  64  95 129 162 197 252 315 373
#     4  11  18  33  58  96 128 157 204 254 305 365
#     4  10  21  33  63  97 128 159 201 247 314 372
#     4  11  26  45  63  89 133 165 202 261 311 360
#
# _framework density 24.320532
#
# number of rings (size 3 to 8) (size 9 to 14) (size 15 to 20)
#    0.000    1.429    5.714    0.857    2.000    5.714 
#    0.000    1.429    0.000    0.000    0.000    0.000 
#    0.000    0.000    0.000    0.000    0.000    0.000 
#
# Total GULP energy -78205.600706 kJ/mol
# GULP energy per Si atom -5586.114336 kJ/mol
# Density = 2.426518 g / cm^3
# Si number density = 24.320532 Si / 1000 Ang^3
#
#
#
# Elastic Constant Matrix: (Units=GPa)
#
#
# Indices 1 2 3 4 5 6 
#
# 1 138.3659 52.8682 33.2369 12.6889 -24.8465 -12.8012
# 2 52.8682 102.0853 17.7561 13.0708 -19.2420 -18.0723
# 3 33.2369 17.7561 96.2216 25.1901 -8.6200 -5.7144
# 4 12.6889 13.0708 25.1901 41.0142 -4.2869 -5.3040
# 5 -24.8465 -19.2420 -8.6200 -4.2869 41.3773 12.4801
# 6 -12.8012 -18.0723 -5.7144 -5.3040 12.4801 16.9644
#
#
#
# Elastic Compliance Matrix: (Units=1/GPa)
#
#
# Indices 1 2 3 4 5 6 
#
# 1 0.010012 -0.004141 -0.002393 0.000030 0.003705 -0.000379
# 2 -0.004141 0.014239 -0.000029 -0.001747 0.000621 0.011031
# 3 -0.002393 -0.000029 0.013180 -0.007299 0.000569 -0.000097
# 4 0.000030 -0.001747 -0.007299 0.030063 -0.000950 0.005801
# 5 0.003705 0.000621 0.000569 -0.000950 0.033017 -0.020938
# 6 -0.000379 0.011031 -0.000097 0.005801 -0.020938 0.087597
#
#
# Mechanical properties :
#
#
# Convention : Reuss Voigt Hill
#
# Bulk Modulus (GPa) = 41.14260 60.48835 50.81547
# Shear Modulus (GPa) = 23.88512 35.39195 29.63853
#
# Velocity S-wave (km/s) = 3.13724 3.81889 3.49472
# Velocity P-wave (km/s) = 5.48421 6.66112 6.10111
#
# Compressibility (1/GPa) = 0.02430571
#
# Stress axis : x y z
#
# Youngs Moduli (GPa) = 99.88215 70.22904 75.87022
#
# Poissons Ratio (x) = 0.29085 0.18152
# Poissons Ratio (y) = 0.41365 0.00219
# Poissons Ratio (z) = 0.23897 0.00203
#
# Static dielectric constant tensor:
#      x y z
#    x 1.905150 -0.045710 0.028430 
#    y -0.045710 1.998210 0.003770 
#    z 0.028430 0.003770 1.980430 
# 
# From -- ./inp_files/67368.got.cif
#   From: 2010.05.17/outbox.cif.g08.bks.cpg/sg2_34_cif.got.tgz:67368.got - 2010.06.03 11:33:40.
