data_PCOD9001164
_publ_section_title
;
Structure prediction by ZEFSAII (Michael W. Deem and Ramdas Pophale) SiO2 
 PCOD9001164
Probable space group: P -1
;
_chemical_formula_sum "Si O2"
_cell_formula_units_Z 16
_cell_length_a 11.867283
_cell_length_b 20.108998
_cell_length_c 10.703690
_cell_angle_alpha 152.716793
_cell_angle_beta 131.564593
_cell_angle_gamma 34.842438
_cell_volume 647.381118
_symmetry_space_group_name_H-M "P -1"
_symmetry_group_IT_number 2
_symmetry_cell_setting 'triclinic'
loop_
_space_group_symop_operation_xyz
x,y,z
-x,-y,-z
loop_
_atom_site_type_symbol
_atom_site_label
_atom_site_fract_x
_atom_site_fract_y
_atom_site_fract_z
Si Si1 0.182791 0.101941 0.423206
Si Si2 0.951728 0.792568 0.089432
Si Si3 0.383015 0.780307 0.819810
Si Si4 0.676645 0.807634 0.733047
Si Si5 0.805177 0.384121 0.467422
Si Si6 0.996995 0.939661 0.141427
Si Si7 0.618974 0.563643 0.151057
Si Si8 0.577882 0.049526 0.432469
O O1 0.329836 0.082872 0.598666
O O2 0.312779 0.928760 0.128581
O O3 0.003146 0.304697 0.559572
O O4 0.076868 0.043397 0.330038
O O5 0.878598 0.725785 0.816356
O O6 0.019878 0.884901 0.210351
O O7 0.149558 0.616943 0.018322
O O8 0.759785 0.937005 0.278081
O O9 0.624259 0.615647 0.698573
O O10 0.298956 0.677318 0.631074
O O11 0.244217 0.907938 0.811724
O O12 0.643562 0.656946 0.443449
O O13 0.620140 0.885009 0.676247
O O14 0.500000 0.000000 0.000000
O O15 0.890510 0.250899 0.183035
O O16 0.496531 0.735504 0.244529
O O17 0.500000 0.500000 0.000000
#
# Coordination Sequence:
#
# PCOD9001164 Si02
#       8
#     2   2   2   2   2   2   2   2
#     4   9  16  30  46  74 105 135 174 233 272 315
#     4  11  20  36  56  75 116 156 176 221 281 334
#     4   8  15  29  48  67 101 138 175 223 276 320
#     4   8  19  40  54  72 111 158 190 215 269 337
#     4   8  15  29  47  69  98 139 178 220 275 325
#     4   9  18  27  47  76 103 134 182 221 271 324
#     4  10  21  34  55  83 109 141 192 234 265 320
#     4   9  21  34  51  78 112 144 186 219 273 327
#
# _framework density 24.714963000000001
#
# number of rings (size 3 to 8) (size 9 to 14) (size 15 to 20)
#    0.750    2.250    0.000    2.625    0.000    4.000 
#    0.000    2.500    0.000    3.000    0.000    1.750 
#    0.000    0.000    0.000    0.000    0.000    0.000 
#
# Total GULP energy -89312.390088 kJ/mol
# GULP energy per Si atom -5582.024380 kJ/mol
# Density = 2.465871 g / cm^3
# Si number density = 24.714963 Si / 1000 Ang^3
#
#
#
# Elastic Constant Matrix: (Units=GPa)
#
#
# Indices 1 2 3 4 5 6 
#
# 1 73.6428 10.4181 19.3220 2.3775 0.6773 -17.2433
# 2 10.4181 164.4312 45.3026 22.2599 -20.4985 -17.7415
# 3 19.3220 45.3026 53.1241 19.8933 -8.0864 -7.7385
# 4 2.3775 22.2599 19.8933 47.2969 -14.8908 -6.2411
# 5 0.6773 -20.4985 -8.0864 -14.8908 23.9088 -8.3496
# 6 -17.2433 -17.7415 -7.7385 -6.2411 -8.3496 27.2628
#
#
#
# Elastic Compliance Matrix: (Units=1/GPa)
#
#
# Indices 1 2 3 4 5 6 
#
# 1 0.018496 0.002850 -0.007819 0.005504 0.007952 0.015029
# 2 0.002850 0.010184 -0.007633 0.003455 0.011965 0.010719
# 3 -0.007819 -0.007633 0.030905 -0.011126 -0.004576 -0.005089
# 4 0.005504 0.003455 -0.011126 0.035112 0.027566 0.019052
# 5 0.007952 0.011965 -0.004576 0.027566 0.082532 0.043104
# 6 0.015029 0.010719 -0.005089 0.019052 0.043104 0.069279
#
#
# Mechanical properties :
#
#
# Convention : Reuss Voigt Hill
#
# Bulk Modulus (GPa) = 29.08546 49.03149 39.05848
# Shear Modulus (GPa) = 17.65708 34.10406 25.88057
#
# Velocity S-wave (km/s) = 2.67578 3.71872 3.23950
# Velocity P-wave (km/s) = 4.61956 6.19035 5.46172
#
# Compressibility (1/GPa) = 0.03438144
#
# Stress axis : x y z
#
# Youngs Moduli (GPa) = 54.06707 98.19144 32.35714
#
# Poissons Ratio (x) = -0.27985 0.25301
# Poissons Ratio (y) = -0.15410 0.24697
# Poissons Ratio (z) = 0.42276 0.74946
#
# Static dielectric constant tensor:
#      x y z
#    x 1.992490 -0.015710 0.087870 
#    y -0.015710 2.047940 0.007750 
#    z 0.087870 0.007750 1.991930 
# 
# From -- ./inp_files/458130.got.cif
#   From: 2010.05.17/outbox.cif.g08.bks.cpg/sg2_230_cif.got.tgz:458130.got - 2010.06.03 11:33:40.
