data_PCOD9001605
_publ_section_title
;
Structure prediction by ZEFSAII (Michael W. Deem and Ramdas Pophale) SiO2 
 PCOD9001605
Probable space group: P -1
;
_chemical_formula_sum "Si O2"
_cell_formula_units_Z 16
_cell_length_a 8.294759
_cell_length_b 10.369545
_cell_length_c 14.110977
_cell_angle_alpha 59.036572
_cell_angle_beta 74.968313
_cell_angle_gamma 121.658188
_cell_volume 609.889855
_symmetry_space_group_name_H-M "P -1"
_symmetry_group_IT_number 2
_symmetry_cell_setting 'triclinic'
loop_
_space_group_symop_operation_xyz
x,y,z
-x,-y,-z
loop_
_atom_site_type_symbol
_atom_site_label
_atom_site_fract_x
_atom_site_fract_y
_atom_site_fract_z
Si Si1 0.970550 0.450582 0.878331
Si Si2 0.626261 0.430802 0.139971
Si Si3 0.097956 0.142316 0.200907
Si Si4 0.748881 0.821565 0.529831
Si Si5 0.998693 0.464307 0.657459
Si Si6 0.625654 0.913425 0.920375
Si Si7 0.697531 0.470447 0.567126
Si Si8 0.219946 0.032228 0.926191
O O1 0.219920 0.620852 0.850011
O O2 0.057271 0.560925 0.717718
O O3 0.673845 0.313355 0.995916
O O4 0.897075 0.219778 0.964078
O O5 0.355950 0.288610 0.176335
O O6 0.515898 0.367797 0.289850
O O7 0.839466 0.691365 0.952571
O O8 0.125404 0.004942 0.191326
O O9 0.854139 0.011529 0.359571
O O10 0.720788 0.655579 0.530144
O O11 0.000000 0.000000 0.500000
O O12 0.237145 0.534796 0.546961
O O13 0.924766 0.547292 0.568050
O O14 0.737041 0.162642 0.809878
O O15 0.580256 0.821667 0.067821
O O16 0.397236 0.199138 0.745184
O O17 0.000000 0.000000 0.000000
#
# Coordination Sequence:
#
# PCOD9001605 Si02
#       8
#     2   2   2   2   2   2   2   2
#     4  11  21  39  56  90 127 155 202 249 307 368
#     4  10  23  41  63  89 122 165 205 254 307 361
#     4  10  21  41  66  88 116 163 213 253 303 360
#     4  10  21  39  65  88 118 157 209 257 297 357
#     4  10  21  35  59  88 124 160 196 244 306 369
#     4  11  19  38  59  84 121 159 199 252 300 360
#     4  11  19  37  59  91 118 163 200 243 310 359
#     4  11  21  35  59  89 119 156 200 246 304 362
#
# _framework density 26.234245999999999
#
# number of rings (size 3 to 8) (size 9 to 14) (size 15 to 20)
#    0.000    1.500    3.750    3.000    0.000    0.500 
#    4.500    1.875    0.000    1.500    0.000    0.000 
#    0.000    0.000    0.000    0.000    0.000    0.000 
#
# Total GULP energy -89271.979590 kJ/mol
# GULP energy per Si atom -5579.498724 kJ/mol
# Density = 2.617454 g / cm^3
# Si number density = 26.234246 Si / 1000 Ang^3
#
#
#
# Elastic Constant Matrix: (Units=GPa)
#
#
# Indices 1 2 3 4 5 6 
#
# 1 88.8167 6.5739 15.5468 14.9134 -12.7739 19.5433
# 2 6.5739 43.5627 18.5243 15.5040 -5.6140 18.1352
# 3 15.5468 18.5243 175.7092 40.9821 -20.1815 4.7959
# 4 14.9134 15.5040 40.9821 37.6690 3.4108 3.7330
# 5 -12.7739 -5.6140 -20.1815 3.4108 32.6574 6.1077
# 6 19.5433 18.1352 4.7959 3.7330 6.1077 44.8211
#
#
#
# Elastic Compliance Matrix: (Units=1/GPa)
#
#
# Indices 1 2 3 4 5 6 
#
# 1 0.016543 0.006935 0.002318 -0.011961 0.012394 -0.010960
# 2 0.006935 0.038564 0.002734 -0.021193 0.016884 -0.019455
# 3 0.002318 0.002734 0.009269 -0.012620 0.009038 -0.003289
# 4 -0.011961 -0.021193 -0.012620 0.054567 -0.024424 0.013924
# 5 0.012394 0.016884 0.009038 -0.024424 0.049867 -0.017964
# 6 -0.010960 -0.019455 -0.003289 0.013924 -0.017964 0.036602
#
#
# Mechanical properties :
#
#
# Convention : Reuss Voigt Hill
#
# Bulk Modulus (GPa) = 11.31871 43.26430 27.29151
# Shear Modulus (GPa) = 23.70929 40.85908 32.28418
#
# Velocity S-wave (km/s) = 3.00951 3.95076 3.51181
# Velocity P-wave (km/s) = 4.04970 6.11054 5.18357
#
# Compressibility (1/GPa) = 0.08834927
#
# Stress axis : x y z
#
# Youngs Moduli (GPa) = 60.44939 25.93088 107.88484
#
# Poissons Ratio (x) = -0.17983 -0.25005
# Poissons Ratio (y) = -0.41921 -0.29496
# Poissons Ratio (z) = -0.14011 -0.07090
#
# Static dielectric constant tensor:
#      x y z
#    x 2.062830 0.048080 -0.040570 
#    y 0.048080 2.159950 -0.040970 
#    z -0.040570 -0.040970 2.165610 
# 
# From -- ./inp_files/169593.got.cif
#   From: 2010.05.17/outbox.cif.g08.bks.cpg/sg2_85_cif.got.tgz:169593.got - 2010.06.03 11:33:40.
