data_PCOD9001551
_publ_section_title
;
Structure prediction by ZEFSAII (Michael W. Deem and Ramdas Pophale) SiO2 
 PCOD9001551
Probable space group: P -1
;
_chemical_formula_sum "Si O2"
_cell_formula_units_Z 16
_cell_length_a 13.481853
_cell_length_b 14.381000
_cell_length_c 15.031242
_cell_angle_alpha 19.594849
_cell_angle_beta 131.365202
_cell_angle_gamma 129.193724
_cell_volume 733.012149
_symmetry_space_group_name_H-M "P -1"
_symmetry_group_IT_number 2
_symmetry_cell_setting 'triclinic'
loop_
_space_group_symop_operation_xyz
x,y,z
-x,-y,-z
loop_
_atom_site_type_symbol
_atom_site_label
_atom_site_fract_x
_atom_site_fract_y
_atom_site_fract_z
Si Si1 0.213469 0.178120 0.768388
Si Si2 0.146985 0.633464 0.671136
Si Si3 0.148543 0.267347 0.287169
Si Si4 0.067733 0.740694 0.196271
Si Si5 0.393883 0.302829 0.918981
Si Si6 0.756595 0.131583 0.655985
Si Si7 0.295957 0.704197 0.862175
Si Si8 0.081910 0.084439 0.606194
O O1 0.166971 0.493668 0.453792
O O2 0.201451 0.055232 0.772833
O O3 0.343968 0.178763 0.905893
O O4 0.106799 0.995116 0.926575
O O5 0.205178 0.858945 0.433063
O O6 0.256846 0.563338 0.871489
O O7 0.077858 0.386654 0.794759
O O8 0.027216 0.745309 0.558364
O O9 0.129254 0.244481 0.401938
O O10 0.245340 0.016868 0.546277
O O11 0.212686 0.542283 0.034987
O O12 0.005379 0.186140 0.232124
O O13 0.109766 0.815655 0.253848
O O14 0.550145 0.304450 0.019450
O O15 0.325142 0.120713 0.120514
O O16 0.335028 0.605115 0.620617
#
# Coordination Sequence:
#
# PCOD9001551 Si02
#       8
#     2   2   2   2   2   2   2   2
#     4   9  18  34  56  78 107 146 178 219 272 319
#     4  10  21  35  58  85 112 143 180 223 275 331
#     4  10  22  38  60  83 108 141 180 232 283 320
#     4   9  18  33  53  81 111 139 178 222 270 322
#     4  10  22  39  55  78 115 149 184 222 259 318
#     4  10  21  36  57  82 111 148 181 220 269 319
#     4  11  23  39  57  80 110 148 187 224 269 320
#     4   9  20  38  59  85 112 137 179 231 281 328
#
# _framework density 21.827742000000001
#
# number of rings (size 3 to 8) (size 9 to 14) (size 15 to 20)
#    0.000    2.250    0.000    1.875    0.000   11.500 
#    0.000    8.750    0.000    0.000    0.000    0.000 
#    0.000    0.000    0.000    0.000    0.000    0.000 
#
# Total GULP energy -89452.926612 kJ/mol
# GULP energy per Si atom -5590.807913 kJ/mol
# Density = 2.177806 g / cm^3
# Si number density = 21.827742 Si / 1000 Ang^3
#
#
#
# Elastic Constant Matrix: (Units=GPa)
#
#
# Indices 1 2 3 4 5 6 
#
# 1 81.4527 65.5677 20.7822 19.0212 -11.4764 1.8100
# 2 65.5677 135.2932 23.0511 39.1241 -11.4897 15.4203
# 3 20.7822 23.0511 52.5061 4.9764 8.4381 10.8657
# 4 19.0212 39.1241 4.9764 34.8565 -3.7121 -0.2810
# 5 -11.4764 -11.4897 8.4381 -3.7121 28.5745 8.0527
# 6 1.8100 15.4203 10.8657 -0.2810 8.0527 34.7657
#
#
#
# Elastic Compliance Matrix: (Units=1/GPa)
#
#
# Indices 1 2 3 4 5 6 
#
# 1 0.022498 -0.009855 -0.006353 0.000353 0.005919 0.003817
# 2 -0.009855 0.017695 -0.001566 -0.013893 0.004039 -0.007894
# 3 -0.006353 -0.001566 0.024578 0.000714 -0.009064 -0.004551
# 4 0.000353 -0.013893 0.000714 0.043846 -0.001848 0.006703
# 5 0.005919 0.004039 -0.009064 -0.001848 0.044111 -0.009499
# 6 0.003817 -0.007894 -0.004551 0.006703 -0.009499 0.035743
#
#
# Mechanical properties :
#
#
# Convention : Reuss Voigt Hill
#
# Bulk Modulus (GPa) = 34.22076 54.22821 44.22449
# Shear Modulus (GPa) = 21.38937 30.29607 25.84272
#
# Velocity S-wave (km/s) = 3.13376 3.72958 3.44457
# Velocity P-wave (km/s) = 5.36709 6.59120 6.01039
#
# Compressibility (1/GPa) = 0.02922202
#
# Stress axis : x y z
#
# Youngs Moduli (GPa) = 44.44815 56.51377 40.68634
#
# Poissons Ratio (x) = 0.55697 0.25847
# Poissons Ratio (y) = 0.43806 0.06373
# Poissons Ratio (z) = 0.28237 0.08852
#
# Static dielectric constant tensor:
#      x y z
#    x 1.765100 -0.055570 0.051550 
#    y -0.055570 1.859140 -0.014260 
#    z 0.051550 -0.014260 1.837290 
# 
# From -- ./inp_files/76087.got.cif
#   From: 2010.05.17/outbox.cif.g08.bks.cpg/sg2_39_cif.got.tgz:76087.got - 2010.06.03 11:33:40.
