data_PCOD9001737
_publ_section_title
;
Structure prediction by ZEFSAII (Michael W. Deem and Ramdas Pophale) SiO2 
 PCOD9001737
Probable space group: P -1
;
_chemical_formula_sum "Si O2"
_cell_formula_units_Z 14
_cell_length_a 18.244549
_cell_length_b 7.830567
_cell_length_c 9.003694
_cell_angle_alpha 133.344212
_cell_angle_beta 133.914290
_cell_angle_gamma 34.017457
_cell_volume 498.167867
_symmetry_space_group_name_H-M "P -1"
_symmetry_group_IT_number 2
_symmetry_cell_setting 'triclinic'
loop_
_space_group_symop_operation_xyz
x,y,z
-x,-y,-z
loop_
_atom_site_type_symbol
_atom_site_label
_atom_site_fract_x
_atom_site_fract_y
_atom_site_fract_z
Si Si1 0.088287 0.054835 0.744192
Si Si2 0.411007 0.311435 0.285841
Si Si3 0.022256 0.262335 0.107056
Si Si4 0.412504 0.920196 0.260807
Si Si5 0.764383 0.582153 0.131529
Si Si6 0.269511 0.125908 0.466979
Si Si7 0.662236 0.254522 0.294144
O O1 0.032937 0.396016 0.817241
O O2 0.242920 0.819333 0.755251
O O3 0.066032 0.073871 0.901548
O O4 0.000000 0.000000 0.500000
O O5 0.325892 0.584549 0.452817
O O6 0.394941 0.060180 0.158933
O O7 0.568627 0.153489 0.428142
O O8 0.351280 0.408869 0.094379
O O9 0.151181 0.117160 0.308636
O O10 0.899558 0.340864 0.077778
O O11 0.505773 0.548433 0.195744
O O12 0.500000 0.000000 0.500000
O O13 0.279868 0.127605 0.302576
O O14 0.775887 0.579233 0.323831
O O15 0.714704 0.928393 0.238987
#
# Coordination Sequence:
#
# PCOD9001737 Si02
#       7
#     2   2   2   2   2   2   2
#     4  10  21  35  62  87 117 156 195 245 296 346
#     4  10  22  40  63  87 120 154 200 248 289 351
#     4  10  23  38  58  89 122 152 198 243 292 351
#     4   8  19  35  59  83 117 147 192 248 285 341
#     4  11  22  39  62  84 122 164 194 237 296 355
#     4  10  21  39  61  87 121 161 191 241 302 346
#     4   9  20  37  57  88 117 150 199 245 294 344
#
# _framework density 28.102978
#
# number of rings (size 3 to 8) (size 9 to 14) (size 15 to 20)
#    0.000    2.571    0.000    1.714   12.000    2.857 
#    2.571    1.429    0.000    5.143    0.000    0.000 
#    0.000    0.000    0.000    0.000    0.000    0.000 
#
# Total GULP energy -78362.846352 kJ/mol
# GULP energy per Si atom -5597.346168 kJ/mol
# Density = 2.803901 g / cm^3
# Si number density = 28.102978 Si / 1000 Ang^3
#
#
#
# Elastic Constant Matrix: (Units=GPa)
#
#
# Indices 1 2 3 4 5 6 
#
# 1 137.6118 62.6340 31.0137 2.7685 -14.9721 -20.6661
# 2 62.6340 144.6256 65.9008 24.7466 -11.9913 -29.1526
# 3 31.0137 65.9008 156.3070 -6.0210 -29.4739 -22.5547
# 4 2.7685 24.7466 -6.0210 63.4529 -4.7064 3.4001
# 5 -14.9721 -11.9913 -29.4739 -4.7064 47.6325 10.0313
# 6 -20.6661 -29.1526 -22.5547 3.4001 10.0313 53.8812
#
#
#
# Elastic Compliance Matrix: (Units=1/GPa)
#
#
# Indices 1 2 3 4 5 6 
#
# 1 0.009404 -0.004126 0.000483 0.001343 0.002118 0.001098
# 2 -0.004126 0.012245 -0.004416 -0.005399 -0.002315 0.003966
# 3 0.000483 -0.004416 0.009295 0.002920 0.004958 0.000579
# 4 0.001343 -0.005399 0.002920 0.018489 0.003322 -0.002969
# 5 0.002118 -0.002315 0.004958 0.003322 0.025159 -0.003259
# 6 0.001098 0.003966 0.000579 -0.002969 -0.003259 0.022163
#
#
# Mechanical properties :
#
#
# Convention : Reuss Voigt Hill
#
# Bulk Modulus (GPa) = 67.45086 84.18239 75.81662
# Shear Modulus (GPa) = 42.43987 51.59304 47.01646
#
# Velocity S-wave (km/s) = 3.89029 4.28934 4.09468
# Velocity P-wave (km/s) = 6.65075 7.38588 7.02794
#
# Compressibility (1/GPa) = 0.01482561
#
# Stress axis : x y z
#
# Youngs Moduli (GPa) = 106.33778 81.66897 107.58797
#
# Poissons Ratio (x) = 0.33693 -0.05196
# Poissons Ratio (y) = 0.43870 0.47513
# Poissons Ratio (z) = -0.05136 0.36067
#
# Static dielectric constant tensor:
#      x y z
#    x 2.333970 0.130540 -0.116810 
#    y 0.130540 2.252070 -0.019710 
#    z -0.116810 -0.019710 2.237260 
# 
# From -- ./inp_files/470561.got.cif
#   From: 2010.05.17/outbox.cif.g08.bks.cpg/sg2_236_cif.got.tgz:470561.got - 2010.06.03 11:33:40.
