data_PCOD9001948
_publ_section_title
;
Structure prediction by ZEFSAII (Michael W. Deem and Ramdas Pophale) SiO2 
 PCOD9001948
Probable space group: P -1
;
_chemical_formula_sum "Si O2"
_cell_formula_units_Z 14
_cell_length_a 14.805912
_cell_length_b 15.344621
_cell_length_c 15.505232
_cell_angle_alpha 18.885567
_cell_angle_beta 38.098479
_cell_angle_gamma 38.975089
_cell_volume 693.953918
_symmetry_space_group_name_H-M "P -1"
_symmetry_group_IT_number 2
_symmetry_cell_setting 'triclinic'
loop_
_space_group_symop_operation_xyz
x,y,z
-x,-y,-z
loop_
_atom_site_type_symbol
_atom_site_label
_atom_site_fract_x
_atom_site_fract_y
_atom_site_fract_z
Si Si1 0.822587 0.077052 0.056973
Si Si2 0.174383 0.655460 0.366090
Si Si3 0.537559 0.785878 0.481747
Si Si4 0.443467 0.373586 0.073477
Si Si5 0.342585 0.700407 0.359538
Si Si6 0.527834 0.115810 0.753528
Si Si7 0.829461 0.648356 0.599149
O O1 0.795630 0.110583 0.942537
O O2 0.793811 0.384508 0.824226
O O3 0.781220 0.888672 0.342111
O O4 0.000000 0.000000 0.000000
O O5 0.300996 0.394887 0.491959
O O6 0.203540 0.734549 0.368254
O O7 0.005262 0.611801 0.520304
O O8 0.454317 0.859734 0.384563
O O9 0.536877 0.078103 0.255046
O O10 0.458073 0.590171 0.784939
O O11 0.276880 0.320864 0.267020
O O12 0.500000 0.500000 0.000000
O O13 0.402947 0.378583 0.625105
O O14 0.337486 0.842182 0.323981
O O15 0.464746 0.843210 0.081971
#
# Coordination Sequence:
#
# PCOD9001948 Si02
#       7
#     2   2   2   2   2   2   2
#     4  10  21  36  55  81 112 145 183 229 278 327
#     4  10  21  37  62  87 109 146 194 236 277 328
#     4  11  23  39  60  83 112 149 191 231 277 336
#     4  12  26  40  55  81 117 155 189 228 280 336
#     4   9  18  31  55  86 113 136 179 236 283 326
#     4   9  18  34  53  83 115 142 175 230 288 329
#     4  11  24  39  55  79 117 152 186 231 279 330
#
# _framework density 20.174251000000002
#
# number of rings (size 3 to 8) (size 9 to 14) (size 15 to 20)
#    0.000    1.714    0.000    5.571    0.000   14.857 
#    0.000    0.000    0.000    1.714    0.000    0.000 
#    0.000    0.000    0.000    0.000    0.000    2.143 
#
# Total GULP energy -78112.681109 kJ/mol
# GULP energy per Si atom -5579.477222 kJ/mol
# Density = 2.012833 g / cm^3
# Si number density = 20.174251 Si / 1000 Ang^3
#
#
#
# Elastic Constant Matrix: (Units=GPa)
#
#
# Indices 1 2 3 4 5 6 
#
# 1 155.0795 41.6865 46.4032 4.6786 19.9502 20.0690
# 2 41.6865 66.0786 29.6887 21.5610 3.5772 3.3712
# 3 46.4032 29.6887 151.6783 7.5908 15.9555 6.8375
# 4 4.6786 21.5610 7.5908 30.8647 3.8090 -5.0562
# 5 19.9502 3.5772 15.9555 3.8090 30.1009 3.1263
# 6 20.0690 3.3712 6.8375 -5.0562 3.1263 22.5939
#
#
#
# Elastic Compliance Matrix: (Units=1/GPa)
#
#
# Indices 1 2 3 4 5 6 
#
# 1 0.009707 -0.005828 -0.001170 0.002466 -0.004791 -0.006184
# 2 -0.005828 0.025529 -0.002742 -0.017235 0.004703 -0.002310
# 3 -0.001170 -0.002742 0.007802 0.000489 -0.003057 -0.000381
# 4 0.002466 -0.017235 0.000489 0.046713 -0.006966 0.011651
# 5 -0.004791 0.004703 -0.003057 -0.006966 0.038591 -0.002420
# 6 -0.006184 -0.002310 -0.000381 0.011651 -0.002420 0.053155
#
#
# Mechanical properties :
#
#
# Convention : Reuss Voigt Hill
#
# Bulk Modulus (GPa) = 42.44764 67.59925 55.02344
# Shear Modulus (GPa) = 23.94306 33.71578 28.82942
#
# Velocity S-wave (km/s) = 3.44875 4.09250 3.78434
# Velocity P-wave (km/s) = 6.07822 7.47742 6.81383
#
# Compressibility (1/GPa) = 0.02355844
#
# Stress axis : x y z
#
# Youngs Moduli (GPa) = 103.01747 39.17136 128.17774
#
# Poissons Ratio (x) = 0.22829 0.14992
# Poissons Ratio (y) = 0.60038 0.35146
# Poissons Ratio (z) = 0.12049 0.10741
#
# Static dielectric constant tensor:
#      x y z
#    x 2.408710 -0.528570 -0.197650 
#    y -0.528570 2.235220 0.154050 
#    z -0.197650 0.154050 1.807130 
# 
# From -- ./inp_files/533534.got.cif
#   From: 2010.05.17/outbox.cif.g08.bks.cpg/sg2_267_cif.got.tgz:533534.got - 2010.06.03 11:33:40.
