data_PCOD9001297
_publ_section_title
;
Structure prediction by ZEFSAII (Michael W. Deem and Ramdas Pophale) SiO2 
 PCOD9001297
Probable space group: P -1
;
_chemical_formula_sum "Si O2"
_cell_formula_units_Z 15
_cell_length_a 11.793685
_cell_length_b 7.197166
_cell_length_c 11.593548
_cell_angle_alpha 65.044753
_cell_angle_beta 119.665854
_cell_angle_gamma 71.116385
_cell_volume 571.364202
_symmetry_space_group_name_H-M "P -1"
_symmetry_group_IT_number 2
_symmetry_cell_setting 'triclinic'
loop_
_space_group_symop_operation_xyz
x,y,z
-x,-y,-z
loop_
_atom_site_type_symbol
_atom_site_label
_atom_site_fract_x
_atom_site_fract_y
_atom_site_fract_z
Si Si1 0.934509 0.141322 0.713308
Si Si2 0.443449 0.793908 0.153864
Si Si3 0.000000 0.500000 0.000000
Si Si4 0.752861 0.389415 0.874380
Si Si5 0.642921 0.693253 0.504151
Si Si6 0.879431 0.899659 0.397228
Si Si7 0.769697 0.962265 0.571539
Si Si8 0.249469 0.291039 0.781804
O O1 0.833981 0.461609 0.595951
O O2 0.059175 0.012454 0.696309
O O3 0.775192 0.147738 0.613183
O O4 0.064528 0.936658 0.934031
O O5 0.388467 0.620602 0.143263
O O6 0.497805 0.776739 0.317883
O O7 0.601693 0.702510 0.175474
O O8 0.287496 0.118764 0.959326
O O9 0.825528 0.529665 0.918533
O O10 0.918997 0.667611 0.789825
O O11 0.675674 0.513554 0.676534
O O12 0.622863 0.947010 0.472385
O O13 0.800896 0.037847 0.444277
O O14 0.748657 0.881886 0.272644
O O15 0.061317 0.595447 0.603420
#
# Coordination Sequence:
#
# PCOD9001297 Si02
#       8
#     2   2   1   2   2   2   2   2
#     4  11  21  38  61  94 116 158 212 254 288 360
#     4  11  20  36  59  92 126 159 196 249 310 364
#     4   8  20  40  56  86 120 152 200 260 284 348
#     4  10  21  36  64  88 120 163 205 248 304 353
#     4  11  21  39  62  87 125 161 200 248 305 364
#     4  11  18  38  60  86 120 158 207 252 292 356
#     4  10  21  36  63  88 119 155 205 256 298 346
#     4  10  21  34  61  93 123 155 204 250 300 363
#
# _framework density 26.252956999999999
#
# number of rings (size 3 to 8) (size 9 to 14) (size 15 to 20)
#    0.000    1.600    4.000    2.000    0.000    0.000 
#    0.000    0.000    5.867    9.600    0.000    0.000 
#    0.000    0.000    0.000    0.000    0.000    0.000 
#
# Total GULP energy -83506.686647 kJ/mol
# GULP energy per Si atom -5567.112443 kJ/mol
# Density = 2.619320 g / cm^3
# Si number density = 26.252957 Si / 1000 Ang^3
#
#
#
# Elastic Constant Matrix: (Units=GPa)
#
#
# Indices 1 2 3 4 5 6 
#
# 1 127.4783 49.7999 25.0023 7.8196 -2.9661 34.5189
# 2 49.7999 65.4948 34.9384 11.0192 6.6483 23.3554
# 3 25.0023 34.9384 177.4653 10.0024 -20.6849 3.8475
# 4 7.8196 11.0192 10.0024 24.1631 10.9457 5.8523
# 5 -2.9661 6.6483 -20.6849 10.9457 46.9280 6.8632
# 6 34.5189 23.3554 3.8475 5.8523 6.8632 33.6516
#
#
#
# Elastic Compliance Matrix: (Units=1/GPa)
#
#
# Indices 1 2 3 4 5 6 
#
# 1 0.013187 -0.007087 0.000148 -0.000372 0.003341 -0.009242
# 2 -0.007087 0.027675 -0.004442 -0.004342 -0.003868 -0.009886
# 3 0.000148 -0.004442 0.007141 -0.003370 0.004306 0.001822
# 4 -0.000372 -0.004342 -0.003370 0.051143 -0.012446 -0.002575
# 5 0.003341 -0.003868 0.004306 -0.012446 0.027555 -0.004691
# 6 -0.009242 -0.009886 0.001822 -0.002575 -0.004691 0.047254
#
#
# Mechanical properties :
#
#
# Convention : Reuss Voigt Hill
#
# Bulk Modulus (GPa) = 39.61673 65.54662 52.58167
# Shear Modulus (GPa) = 24.37478 38.32838 31.35158
#
# Velocity S-wave (km/s) = 3.05037 3.82509 3.45949
# Velocity P-wave (km/s) = 5.24685 6.67308 6.00248
#
# Compressibility (1/GPa) = 0.02524186
#
# Stress axis : x y z
#
# Youngs Moduli (GPa) = 75.83182 36.13360 140.03983
#
# Poissons Ratio (x) = 0.25607 -0.02075
# Poissons Ratio (y) = 0.53741 0.62204
# Poissons Ratio (z) = -0.01123 0.16050
#
# Static dielectric constant tensor:
#      x y z
#    x 2.144010 -0.078140 0.000120 
#    y -0.078140 2.047930 -0.043510 
#    z 0.000120 -0.043510 2.030810 
# 
# From -- ./inp_files/414362.got.cif
#   From: 2010.05.17/outbox.cif.g08.bks.cpg/sg2_208_cif.got.tgz:414362.got - 2010.06.03 11:33:40.
