data_PCOD9001735
_publ_section_title
;
Structure prediction by ZEFSAII (Michael W. Deem and Ramdas Pophale) SiO2 
 PCOD9001735
Probable space group: P -1
;
_chemical_formula_sum "Si O2"
_cell_formula_units_Z 16
_cell_length_a 12.521031
_cell_length_b 8.573392
_cell_length_c 7.003891
_cell_angle_alpha 104.196180
_cell_angle_beta 78.093065
_cell_angle_gamma 75.641313
_cell_volume 676.955008
_symmetry_space_group_name_H-M "P -1"
_symmetry_group_IT_number 2
_symmetry_cell_setting 'triclinic'
loop_
_space_group_symop_operation_xyz
x,y,z
-x,-y,-z
loop_
_atom_site_type_symbol
_atom_site_label
_atom_site_fract_x
_atom_site_fract_y
_atom_site_fract_z
Si Si1 0.267519 0.517349 0.192302
Si Si2 0.087369 0.175213 0.587733
Si Si3 0.483652 0.215626 0.870179
Si Si4 0.114310 0.101994 0.002690
Si Si5 0.600513 0.355259 0.524894
Si Si6 0.371532 0.942796 0.858090
Si Si7 0.855819 0.131123 0.766467
Si Si8 0.022393 0.466334 0.208647
O O1 0.304909 0.566704 0.400876
O O2 0.242988 0.692119 0.133513
O O3 0.149754 0.472557 0.209798
O O4 0.372583 0.368577 0.023469
O O5 0.116311 0.126929 0.782964
O O6 0.956580 0.170333 0.620763
O O7 0.073154 0.372310 0.614534
O O8 0.165774 0.025293 0.384495
O O9 0.546489 0.285335 0.703498
O O10 0.443119 0.056246 0.774445
O O11 0.561656 0.149422 0.007802
O O12 0.247935 0.070589 0.996788
O O13 0.029287 0.272937 0.178515
O O14 0.096913 0.939532 0.064685
O O15 0.500000 0.500000 0.500000
O O16 0.647088 0.197922 0.318259
O O17 0.000000 0.500000 0.000000
#
# Coordination Sequence:
#
# PCOD9001735 Si02
#       8
#     2   2   2   2   2   2   2   2
#     4  11  21  42  63  94 128 170 210 265 319 380
#     4   9  20  39  56  86 122 156 199 263 311 370
#     4  11  24  44  65  90 135 173 214 265 322 386
#     4  11  20  36  62  89 114 164 209 249 312 382
#     4  12  25  40  65  96 131 169 217 268 319 382
#     4  11  24  42  65  93 130 173 214 265 321 385
#     4  10  21  35  62  86 121 158 206 258 315 365
#     4   9  20  39  66  89 125 165 207 260 321 380
#
# _framework density 23.635249999999999
#
# number of rings (size 3 to 8) (size 9 to 14) (size 15 to 20)
#    0.000    1.500    2.500    2.625    1.750    0.500 
#    0.000    1.250    2.750    0.000    0.000    0.000 
#    0.000    0.000    0.000    0.000    0.000    0.000 
#
# Total GULP energy -89414.165451 kJ/mol
# GULP energy per Si atom -5588.385341 kJ/mol
# Density = 2.358145 g / cm^3
# Si number density = 23.635250 Si / 1000 Ang^3
#
#
#
# Elastic Constant Matrix: (Units=GPa)
#
#
# Indices 1 2 3 4 5 6 
#
# 1 63.3550 21.3866 24.2972 -6.9098 16.6642 4.3427
# 2 21.3866 164.5319 42.5978 6.7959 8.8901 -23.9026
# 3 24.2972 42.5978 98.5114 3.2567 15.6705 0.7046
# 4 -6.9098 6.7959 3.2567 34.9014 5.4346 3.3365
# 5 16.6642 8.8901 15.6705 5.4346 30.0940 -4.1900
# 6 4.3427 -23.9026 0.7046 3.3365 -4.1900 37.3320
#
#
#
# Elastic Compliance Matrix: (Units=1/GPa)
#
#
# Indices 1 2 3 4 5 6 
#
# 1 0.022271 -0.002833 -0.002490 0.007756 -0.012498 -0.006453
# 2 -0.002833 0.008134 -0.003110 -0.002768 0.002132 0.006083
# 3 -0.002490 -0.003110 0.012885 -0.000117 -0.004734 -0.002465
# 4 0.007756 -0.002768 -0.000117 0.032992 -0.010318 -0.006779
# 5 -0.012498 0.002132 -0.004734 -0.010318 0.045086 0.008891
# 6 -0.006453 0.006083 -0.002465 -0.006779 0.008891 0.033082
#
#
# Mechanical properties :
#
#
# Convention : Reuss Voigt Hill
#
# Bulk Modulus (GPa) = 37.84430 55.88461 46.86446
# Shear Modulus (GPa) = 27.75875 36.33992 32.04934
#
# Velocity S-wave (km/s) = 3.43076 3.92539 3.68638
# Velocity P-wave (km/s) = 5.63383 6.65138 6.16364
#
# Compressibility (1/GPa) = 0.02642406
#
# Stress axis : x y z
#
# Youngs Moduli (GPa) = 44.90172 122.94062 77.61253
#
# Poissons Ratio (x) = 0.34826 0.19327
# Poissons Ratio (y) = 0.12719 0.24135
# Poissons Ratio (z) = 0.11182 0.38231
#
# Static dielectric constant tensor:
#      x y z
#    x 1.955940 0.057000 0.036280 
#    y 0.057000 1.954160 0.002520 
#    z 0.036280 0.002520 1.899210 
# 
# From -- ./inp_files/90740.got.cif
#   From: 2010.05.17/outbox.cif.g08.bks.cpg/sg2_46_cif.got.tgz:90740.got - 2010.06.03 11:33:40.
