data_PCOD9001497
_publ_section_title
;
Structure prediction by ZEFSAII (Michael W. Deem and Ramdas Pophale) SiO2 
 PCOD9001497
Probable space group: P -1
;
_chemical_formula_sum "Si O2"
_cell_formula_units_Z 16
_cell_length_a 8.127449
_cell_length_b 8.469065
_cell_length_c 10.119079
_cell_angle_alpha 87.753328
_cell_angle_beta 62.264136
_cell_angle_gamma 71.170560
_cell_volume 578.350038
_symmetry_space_group_name_H-M "P -1"
_symmetry_group_IT_number 2
_symmetry_cell_setting 'triclinic'
loop_
_space_group_symop_operation_xyz
x,y,z
-x,-y,-z
loop_
_atom_site_type_symbol
_atom_site_label
_atom_site_fract_x
_atom_site_fract_y
_atom_site_fract_z
Si Si1 0.426506 0.250827 0.815762
Si Si2 0.893139 0.128689 0.922308
Si Si3 0.792443 0.982289 0.732906
Si Si4 0.267527 0.127255 0.639769
Si Si5 0.383300 0.610825 0.802408
Si Si6 0.744359 0.205358 0.430899
Si Si7 0.277703 0.333827 0.168203
Si Si8 0.864617 0.509692 0.422024
O O1 0.662931 0.157191 0.709568
O O2 0.335735 0.139673 0.764671
O O3 0.365306 0.435636 0.772837
O O4 0.360775 0.284921 0.990908
O O5 0.768164 0.034893 0.894009
O O6 0.036681 0.154704 0.755848
O O7 0.768326 0.303957 0.026099
O O8 0.000000 0.000000 0.000000
O O9 0.697433 0.839174 0.757922
O O10 0.022542 0.892750 0.621382
O O11 0.263936 0.296408 0.562106
O O12 0.340595 0.952667 0.535728
O O13 0.312238 0.738972 0.703628
O O14 0.593721 0.582152 0.795964
O O15 0.731262 0.390760 0.484888
O O16 0.041410 0.434780 0.249906
O O17 0.000000 0.500000 0.500000
#
# Coordination Sequence:
#
# PCOD9001497 Si02
#       8
#     2   2   2   2   2   2   2   2
#     4  12  23  34  62 103 139 165 206 255 331 406
#     4  11  20  34  59  96 135 174 206 246 316 408
#     4  10  21  35  56  91 137 171 204 247 315 408
#     4  11  23  39  69  93 134 173 206 259 341 374
#     4  12  22  36  58  97 141 164 212 256 315 405
#     4  10  23  43  66  97 129 171 217 258 324 396
#     4  11  24  37  62  95 132 176 210 259 330 379
#     4  11  26  49  67  92 125 171 234 280 311 374
#
# _framework density 27.664904
#
# number of rings (size 3 to 8) (size 9 to 14) (size 15 to 20)
#    0.000    1.000    5.000    3.000    5.250    1.500 
#    0.000    0.625    0.000    3.750    0.000    0.000 
#    0.000    0.000    0.000    0.000    0.000    0.000 
#
# Total GULP energy -89496.955469 kJ/mol
# GULP energy per Si atom -5593.559717 kJ/mol
# Density = 2.760194 g / cm^3
# Si number density = 27.664904 Si / 1000 Ang^3
#
#
#
# Elastic Constant Matrix: (Units=GPa)
#
#
# Indices 1 2 3 4 5 6 
#
# 1 86.6499 27.0725 37.6628 13.4576 22.4315 15.3550
# 2 27.0725 182.6799 30.7848 0.3690 9.8580 17.1468
# 3 37.6628 30.7848 98.2237 32.9341 6.5346 18.8129
# 4 13.4576 0.3690 32.9341 34.0892 5.5247 0.3908
# 5 22.4315 9.8580 6.5346 5.5247 43.9540 14.6740
# 6 15.3550 17.1468 18.8129 0.3908 14.6740 61.6276
#
#
#
# Elastic Compliance Matrix: (Units=1/GPa)
#
#
# Indices 1 2 3 4 5 6 
#
# 1 0.016064 -0.001081 -0.005223 -0.000142 -0.007016 -0.000436
# 2 -0.001081 0.006092 -0.002206 0.002597 -0.000605 -0.000625
# 3 -0.005223 -0.002206 0.019276 -0.017140 0.004060 -0.004828
# 4 -0.000142 0.002597 -0.017140 0.046784 -0.005715 0.005609
# 5 -0.007016 -0.000605 0.004060 -0.005715 0.028619 -0.006101
# 6 -0.000436 -0.000625 -0.004828 0.005609 -0.006101 0.019400
#
#
# Mechanical properties :
#
#
# Convention : Reuss Voigt Hill
#
# Bulk Modulus (GPa) = 40.96097 62.06598 51.51347
# Shear Modulus (GPa) = 30.98053 46.06973 38.52513
#
# Velocity S-wave (km/s) = 3.35005 4.08521 3.73575
# Velocity P-wave (km/s) = 5.45912 6.68846 6.10481
#
# Compressibility (1/GPa) = 0.02441348
#
# Stress axis : x y z
#
# Youngs Moduli (GPa) = 62.25064 164.15109 51.87694
#
# Poissons Ratio (x) = 0.17739 0.27096
# Poissons Ratio (y) = 0.06727 0.11443
# Poissons Ratio (z) = 0.32514 0.36208
#
# Static dielectric constant tensor:
#      x y z
#    x 2.172920 0.002830 -0.031800 
#    y 0.002830 2.152890 -0.054440 
#    z -0.031800 -0.054440 2.269890 
# 
# From -- ./inp_files/269833.got.cif
#   From: 2010.05.17/outbox.cif.g08.bks.cpg/sg2_135_cif.got.tgz:269833.got - 2010.06.03 11:33:40.
