data_PCOD9001779
_publ_section_title
;
Structure prediction by ZEFSAII (Michael W. Deem and Ramdas Pophale) SiO2 
 PCOD9001779
Probable space group: P -1
;
_chemical_formula_sum "Si O2"
_cell_formula_units_Z 14
_cell_length_a 12.095280
_cell_length_b 9.531118
_cell_length_c 8.905084
_cell_angle_alpha 57.162591
_cell_angle_beta 74.460104
_cell_angle_gamma 37.551332
_cell_volume 498.705407
_symmetry_space_group_name_H-M "P -1"
_symmetry_group_IT_number 2
_symmetry_cell_setting 'triclinic'
loop_
_space_group_symop_operation_xyz
x,y,z
-x,-y,-z
loop_
_atom_site_type_symbol
_atom_site_label
_atom_site_fract_x
_atom_site_fract_y
_atom_site_fract_z
Si Si1 0.602690 0.609001 0.657486
Si Si2 0.552747 0.533828 0.308914
Si Si3 0.181466 0.133379 0.985439
Si Si4 0.968905 0.623783 0.599766
Si Si5 0.831189 0.406901 0.125665
Si Si6 0.594377 0.900588 0.726291
Si Si7 0.056935 0.058552 0.784453
O O1 0.481419 0.582023 0.724864
O O2 0.539759 0.804892 0.700233
O O3 0.827629 0.308948 0.746386
O O4 0.558413 0.776070 0.429461
O O5 0.500000 0.500000 0.500000
O O6 0.753240 0.395420 0.303163
O O7 0.386821 0.855214 0.137161
O O8 0.035205 0.253870 0.103552
O O9 0.138437 0.067941 0.891266
O O10 0.137097 0.368862 0.798056
O O11 0.783052 0.760425 0.663012
O O12 0.933321 0.852152 0.428450
O O13 0.000000 0.500000 0.500000
O O14 0.844185 0.234715 0.103377
O O15 0.672569 0.725778 0.948721
#
# Coordination Sequence:
#
# PCOD9001779 Si02
#       7
#     2   2   2   2   2   2   2
#     4  11  21  38  62  98 136 155 206 265 317 392
#     4  12  28  44  62  88 128 183 226 254 301 375
#     4  10  21  40  62  95 132 152 214 265 313 392
#     4   9  17  32  57  94 131 158 187 249 332 388
#     4  11  22  40  65  92 125 168 211 267 323 364
#     4  10  21  35  63 102 129 156 202 264 340 380
#     4  11  19  37  66 103 130 161 195 268 347 371
#
# _framework density 28.072686999999998
#
# number of rings (size 3 to 8) (size 9 to 14) (size 15 to 20)
#    0.000    1.429    5.714    2.143    2.000    4.000 
#    0.000    0.714    0.000    2.571    0.000    0.000 
#    0.000    0.000    0.000    0.000    0.000    0.000 
#
# Total GULP energy -78428.710331 kJ/mol
# GULP energy per Si atom -5602.050738 kJ/mol
# Density = 2.800879 g / cm^3
# Si number density = 28.072687 Si / 1000 Ang^3
#
#
#
# Elastic Constant Matrix: (Units=GPa)
#
#
# Indices 1 2 3 4 5 6 
#
# 1 97.6583 31.2121 48.5897 8.4427 -13.1139 0.2556
# 2 31.2121 94.6932 57.1903 -6.0825 -6.9734 -3.6564
# 3 48.5897 57.1903 169.6929 -6.9550 -20.0488 -14.7993
# 4 8.4427 -6.0825 -6.9550 59.3022 -8.5412 -15.8640
# 5 -13.1139 -6.9734 -20.0488 -8.5412 62.8930 2.9257
# 6 0.2556 -3.6564 -14.7993 -15.8640 2.9257 47.6683
#
#
#
# Elastic Compliance Matrix: (Units=1/GPa)
#
#
# Indices 1 2 3 4 5 6 
#
# 1 0.012997 -0.002658 -0.003003 -0.002908 0.001168 -0.002245
# 2 -0.002658 0.013847 -0.003821 0.001442 -0.000058 0.000374
# 3 -0.003003 -0.003821 0.008605 0.002108 0.001841 0.002983
# 4 -0.002908 0.001442 0.002108 0.019993 0.002602 0.007274
# 5 0.001168 -0.000058 0.001841 0.002602 0.017060 0.000380
# 6 -0.002245 0.000374 0.002983 0.007274 0.000380 0.024343
#
#
# Mechanical properties :
#
#
# Convention : Reuss Voigt Hill
#
# Bulk Modulus (GPa) = 60.65952 70.66982 65.66467
# Shear Modulus (GPa) = 41.21930 48.97618 45.09774
#
# Velocity S-wave (km/s) = 3.83601 4.18140 4.01242
# Velocity P-wave (km/s) = 6.42455 6.96711 6.70132
#
# Compressibility (1/GPa) = 0.01648546
#
# Stress axis : x y z
#
# Youngs Moduli (GPa) = 76.93829 72.21833 116.21746
#
# Poissons Ratio (x) = 0.19196 0.34899
# Poissons Ratio (y) = 0.20450 0.44405
# Poissons Ratio (z) = 0.23104 0.27593
#
# Static dielectric constant tensor:
#      x y z
#    x 2.242260 0.085630 0.055580 
#    y 0.085630 2.191870 0.042420 
#    z 0.055580 0.042420 2.224480 
# 
# From -- ./inp_files/306471.got.cif
#   From: 2010.05.17/outbox.cif.g08.bks.cpg/sg2_154_cif.got.tgz:306471.got - 2010.06.03 11:33:40.
