data_PCOD9001203
_publ_section_title
;
Structure prediction by ZEFSAII (Michael W. Deem and Ramdas Pophale) SiO2 
 PCOD9001203
Probable space group: P -1
;
_chemical_formula_sum "Si O2"
_cell_formula_units_Z 14
_cell_length_a 11.371773
_cell_length_b 15.019491
_cell_length_c 11.821768
_cell_angle_alpha 25.426334
_cell_angle_beta 49.087895
_cell_angle_gamma 45.781212
_cell_volume 619.241326
_symmetry_space_group_name_H-M "P -1"
_symmetry_group_IT_number 2
_symmetry_cell_setting 'triclinic'
loop_
_space_group_symop_operation_xyz
x,y,z
-x,-y,-z
loop_
_atom_site_type_symbol
_atom_site_label
_atom_site_fract_x
_atom_site_fract_y
_atom_site_fract_z
Si Si1 0.064647 0.473038 0.674416
Si Si2 0.233775 0.841315 0.954525
Si Si3 0.165245 0.430719 0.095671
Si Si4 0.062841 0.826284 0.559747
Si Si5 0.245389 0.337546 0.510712
Si Si6 0.864082 0.097928 0.811019
Si Si7 0.529501 0.727789 0.748458
O O1 0.186245 0.289451 0.727792
O O2 0.150117 0.643979 0.466911
O O3 0.972146 0.420573 0.900322
O O4 0.913462 0.612102 0.529100
O O5 0.364697 0.875146 0.744679
O O6 0.260150 0.581838 0.238752
O O7 0.238377 0.922775 0.987621
O O8 0.051799 0.957392 0.887311
O O9 0.327751 0.329147 0.182307
O O10 0.089486 0.249147 0.304661
O O11 0.182918 0.597065 0.798187
O O12 0.145694 0.918298 0.299671
O O13 0.000000 0.000000 0.500000
O O14 0.404937 0.210567 0.482521
O O15 0.500000 0.500000 0.000000
#
# Coordination Sequence:
#
# PCOD9001203 Si02
#       7
#     2   2   2   2   2   2   2
#     4   8  14  27  46  68 100 126 169 214 250 304
#     4   9  17  30  50  75 109 132 165 223 268 319
#     4   9  19  36  51  81 106 138 186 224 259 314
#     4  10  21  34  57  77 103 144 187 224 256 311
#     4   8  14  25  45  72  97 132 163 200 260 316
#     4   9  18  31  48  77 101 134 178 216 265 312
#     4   9  17  29  54  79 110 140 168 216 281 319
#
# _framework density 22.608309999999999
#
# number of rings (size 3 to 8) (size 9 to 14) (size 15 to 20)
#    0.000    3.143    0.000    0.000    6.000    0.000 
#    0.000    7.143    0.000    0.857    0.000    0.000 
#    0.000    0.000    0.000    0.000    0.000    0.000 
#
# Total GULP energy -78051.102505 kJ/mol
# GULP energy per Si atom -5575.078750 kJ/mol
# Density = 2.255685 g / cm^3
# Si number density = 22.608310 Si / 1000 Ang^3
#
#
#
# Elastic Constant Matrix: (Units=GPa)
#
#
# Indices 1 2 3 4 5 6 
#
# 1 60.4965 28.2392 23.6600 6.0655 -2.5854 15.7574
# 2 28.2392 170.7615 43.9240 40.1906 -4.5571 21.3344
# 3 23.6600 43.9240 114.3006 40.6259 17.8001 2.6504
# 4 6.0655 40.1906 40.6259 51.9655 11.9701 -5.3651
# 5 -2.5854 -4.5571 17.8001 11.9701 25.4665 4.2943
# 6 15.7574 21.3344 2.6504 -5.3651 4.2943 36.9785
#
#
#
# Elastic Compliance Matrix: (Units=1/GPa)
#
#
# Indices 1 2 3 4 5 6 
#
# 1 0.021624 -0.000764 -0.004818 -0.000845 0.007410 -0.009411
# 2 -0.000764 0.009536 -0.001484 -0.008715 0.007987 -0.007262
# 3 -0.004818 -0.001484 0.014060 -0.007407 -0.007385 0.001684
# 4 -0.000845 -0.008715 -0.007407 0.036924 -0.016039 0.013139
# 5 0.007410 0.007987 -0.007385 -0.016039 0.056876 -0.016168
# 6 -0.009411 -0.007262 0.001684 0.013139 -0.016168 0.038906
#
#
# Mechanical properties :
#
#
# Convention : Reuss Voigt Hill
#
# Bulk Modulus (GPa) = 32.16765 59.68944 45.92855
# Shear Modulus (GPa) = 24.70113 39.53113 32.11613
#
# Velocity S-wave (km/s) = 3.30899 4.18607 3.77310
# Velocity P-wave (km/s) = 5.37200 7.05855 6.27222
#
# Compressibility (1/GPa) = 0.03108713
#
# Stress axis : x y z
#
# Youngs Moduli (GPa) = 46.24595 104.86738 71.12368
#
# Poissons Ratio (x) = 0.08015 0.34266
# Poissons Ratio (y) = 0.03534 0.10555
# Poissons Ratio (z) = 0.22280 0.15563
#
# Static dielectric constant tensor:
#      x y z
#    x 1.813670 0.054220 -0.060740 
#    y 0.054220 1.917570 0.003140 
#    z -0.060740 0.003140 1.974120 
# 
# From -- ./inp_files/269005.got.cif
#   From: 2010.05.17/outbox.cif.g08.bks.cpg/sg2_135_cif.got.tgz:269005.got - 2010.06.03 11:33:40.
