data_PCOD9001163
_publ_section_title
;
Structure prediction by ZEFSAII (Michael W. Deem and Ramdas Pophale) SiO2 
 PCOD9001163
Probable space group: P -1
;
_chemical_formula_sum "Si O2"
_cell_formula_units_Z 16
_cell_length_a 14.536550
_cell_length_b 9.359238
_cell_length_c 13.611743
_cell_angle_alpha 80.161783
_cell_angle_beta 135.973120
_cell_angle_gamma 66.443051
_cell_volume 819.646215
_symmetry_space_group_name_H-M "P -1"
_symmetry_group_IT_number 2
_symmetry_cell_setting 'triclinic'
loop_
_space_group_symop_operation_xyz
x,y,z
-x,-y,-z
loop_
_atom_site_type_symbol
_atom_site_label
_atom_site_fract_x
_atom_site_fract_y
_atom_site_fract_z
Si Si1 0.058215 0.645387 0.797340
Si Si2 0.936590 0.924009 0.852474
Si Si3 0.439274 0.388240 0.998819
Si Si4 0.644585 0.300453 0.714981
Si Si5 0.250283 0.672469 0.483018
Si Si6 0.161836 0.947095 0.562709
Si Si7 0.696701 0.751860 0.217758
Si Si8 0.934840 0.477670 0.608596
O O1 0.980932 0.756149 0.831981
O O2 0.007636 0.522864 0.745456
O O3 0.292480 0.492500 0.968934
O O4 0.939918 0.843555 0.604252
O O5 0.754031 0.069205 0.775916
O O6 0.855412 0.125695 0.698132
O O7 0.154399 0.778699 0.087235
O O8 0.657695 0.138725 0.223396
O O9 0.500000 0.500000 0.000000
O O10 0.327786 0.391206 0.827478
O O11 0.500000 0.500000 0.500000
O O12 0.480194 0.428544 0.660874
O O13 0.250545 0.755421 0.576812
O O14 0.113346 0.643741 0.382499
O O15 0.000000 0.000000 0.500000
O O16 0.740685 0.703159 0.372570
O O17 0.886319 0.667684 0.317911
O O18 0.500000 0.000000 0.000000
#
# Coordination Sequence:
#
# PCOD9001163 Si02
#       8
#     2   2   2   2   2   2   2   2
#     4  10  21  36  51  78 110 144 177 226 268 315
#     4   9  19  36  61  84 105 133 178 226 277 326
#     4  11  20  31  49  73 100 139 186 225 262 303
#     4   9  18  37  62  86 105 131 173 229 281 323
#     4  10  21  34  55  82 109 143 179 226 267 323
#     4  11  21  32  52  77 108 142 185 228 261 307
#     4  10  22  34  50  69 105 155 189 222 257 310
#     4  10  22  36  50  74 113 148 185 218 269 317
#
# _framework density 19.520617999999999
#
# number of rings (size 3 to 8) (size 9 to 14) (size 15 to 20)
#    0.000    2.000    1.250    2.250    5.250    1.000 
#    0.000    0.625    0.000    6.750    0.000    0.000 
#    0.000    0.000    0.000    0.000    0.000    0.000 
#
# Total GULP energy -89190.211216 kJ/mol
# GULP energy per Si atom -5574.388201 kJ/mol
# Density = 1.947619 g / cm^3
# Si number density = 19.520618 Si / 1000 Ang^3
#
#
#
# Elastic Constant Matrix: (Units=GPa)
#
#
# Indices 1 2 3 4 5 6 
#
# 1 40.3167 30.4771 7.5611 2.8563 20.5482 -8.9062
# 2 30.4771 80.5247 0.8151 8.3538 16.6508 -9.6900
# 3 7.5611 0.8151 91.1718 -2.3338 13.7260 -10.1453
# 4 2.8563 8.3538 -2.3338 22.2488 -1.2951 -0.1277
# 5 20.5482 16.6508 13.7260 -1.2951 29.1341 0.1504
# 6 -8.9062 -9.6900 -10.1453 -0.1277 0.1504 32.1833
#
#
#
# Elastic Compliance Matrix: (Units=1/GPa)
#
#
# Indices 1 2 3 4 5 6 
#
# 1 0.051721 -0.011389 0.001661 -0.003927 -0.030986 0.011537
# 2 -0.011389 0.018318 0.001464 -0.005443 -0.003382 0.002819
# 3 0.001661 0.001464 0.012562 0.000120 -0.007947 0.004898
# 4 -0.003927 -0.005443 0.000120 0.047956 0.007969 -0.002535
# 5 -0.030986 -0.003382 -0.007947 0.007969 0.062274 -0.012358
# 6 0.011537 0.002819 0.004898 -0.002535 -0.012358 0.036705
#
#
# Mechanical properties :
#
#
# Convention : Reuss Voigt Hill
#
# Bulk Modulus (GPa) = 15.13492 32.19110 23.66301
# Shear Modulus (GPa) = 18.65054 28.25723 23.45389
#
# Velocity S-wave (km/s) = 3.09435 3.80881 3.47002
# Velocity P-wave (km/s) = 4.53176 5.98910 5.31066
#
# Compressibility (1/GPa) = 0.06607238
#
# Stress axis : x y z
#
# Youngs Moduli (GPa) = 19.33436 54.59186 79.60539
#
# Poissons Ratio (x) = 0.62177 -0.13220
# Poissons Ratio (y) = 0.22021 -0.11658
# Poissons Ratio (z) = -0.03211 -0.07995
#
# Static dielectric constant tensor:
#      x y z
#    x 1.700840 -0.032200 -0.016340 
#    y -0.032200 1.745990 -0.007070 
#    z -0.016340 -0.007070 1.728530 
# 
# From -- ./inp_files/112315.got.cif
#   From: 2010.05.17/outbox.cif.g08.bks.cpg/sg2_57_cif.got.tgz:112315.got - 2010.06.03 11:33:40.
