data_PCOD9001603
_publ_section_title
;
Structure prediction by ZEFSAII (Michael W. Deem and Ramdas Pophale) SiO2 
 PCOD9001603
Probable space group: P -1
;
_chemical_formula_sum "Si O2"
_cell_formula_units_Z 14
_cell_length_a 5.476693
_cell_length_b 12.786735
_cell_length_c 13.526484
_cell_angle_alpha 36.893461
_cell_angle_beta 109.348796
_cell_angle_gamma 101.372219
_cell_volume 532.684560
_symmetry_space_group_name_H-M "P -1"
_symmetry_group_IT_number 2
_symmetry_cell_setting 'triclinic'
loop_
_space_group_symop_operation_xyz
x,y,z
-x,-y,-z
loop_
_atom_site_type_symbol
_atom_site_label
_atom_site_fract_x
_atom_site_fract_y
_atom_site_fract_z
Si Si1 0.765176 0.470204 0.260232
Si Si2 0.207568 0.119482 0.302448
Si Si3 0.734097 0.217640 0.286985
Si Si4 0.629716 0.180244 0.596721
Si Si5 0.287299 0.458383 0.423074
Si Si6 0.116814 0.085240 0.854907
Si Si7 0.448735 0.757394 0.084030
O O1 0.859670 0.370074 0.249046
O O2 0.612367 0.320046 0.400722
O O3 0.606633 0.661646 0.086657
O O4 0.977913 0.484972 0.364225
O O5 0.418564 0.259063 0.219190
O O6 0.906810 0.194290 0.227599
O O7 0.241738 0.971547 0.507861
O O8 0.295910 0.006246 0.302198
O O9 0.366936 0.251384 0.565042
O O10 0.870395 0.196031 0.689603
O O11 0.500000 0.500000 0.500000
O O12 0.317459 0.600809 0.233788
O O13 0.342908 0.188596 0.848750
O O14 0.247020 0.930265 0.918496
O O15 0.000000 0.000000 0.000000
#
# Coordination Sequence:
#
# PCOD9001603 Si02
#       7
#     2   2   2   2   2   2   2
#     4  10  21  35  59  88 115 157 185 248 299 357
#     4   9  19  34  54  90 119 156 190 254 295 362
#     4   9  19  33  58  84 126 149 199 240 308 356
#     4  10  22  34  58  87 118 150 199 240 305 344
#     4  11  21  35  56  86 119 149 192 246 297 354
#     4  11  22  40  57  82 114 161 195 243 286 360
#     4  10  22  37  56  81 114 152 199 233 294 355
#
# _framework density 26.281970999999999
#
# number of rings (size 3 to 8) (size 9 to 14) (size 15 to 20)
#    0.000    2.000    0.000    3.429   12.000    3.429 
#    0.000    0.000    0.000    1.714    0.000    0.000 
#    0.000    0.000    0.000    0.000    0.000    0.000 
#
# Total GULP energy -78027.215466 kJ/mol
# GULP energy per Si atom -5573.372533 kJ/mol
# Density = 2.622215 g / cm^3
# Si number density = 26.281971 Si / 1000 Ang^3
#
#
#
# Elastic Constant Matrix: (Units=GPa)
#
#
# Indices 1 2 3 4 5 6 
#
# 1 102.0117 26.7756 39.8275 -15.8436 23.0439 -7.3912
# 2 26.7756 97.7409 21.6281 -24.5999 11.5466 -7.8149
# 3 39.8275 21.6281 79.8554 -17.1370 11.4679 -12.6346
# 4 -15.8436 -24.5999 -17.1370 26.5678 -8.4615 11.5409
# 5 23.0439 11.5466 11.4679 -8.4615 44.3105 -9.4528
# 6 -7.3912 -7.8149 -12.6346 11.5409 -9.4528 32.3414
#
#
#
# Elastic Compliance Matrix: (Units=1/GPa)
#
#
# Indices 1 2 3 4 5 6 
#
# 1 0.013761 -0.001474 -0.005469 0.002391 -0.005272 -0.001742
# 2 -0.001474 0.013726 -0.000581 0.011973 -0.000744 -0.001737
# 3 -0.005469 -0.000581 0.017151 0.005956 0.000399 0.003301
# 4 0.002391 0.011973 0.005956 0.061512 0.002547 -0.015439
# 5 -0.005272 -0.000744 0.000399 0.002547 0.027122 0.005789
# 6 -0.001742 -0.001737 0.003301 -0.015439 0.005789 0.038593
#
#
# Mechanical properties :
#
#
# Convention : Reuss Voigt Hill
#
# Bulk Modulus (GPa) = 33.79609 50.67447 42.23528
# Shear Modulus (GPa) = 25.40944 33.40240 29.40592
#
# Velocity S-wave (km/s) = 3.11272 3.56887 3.34857
# Velocity P-wave (km/s) = 5.07992 6.02539 5.57275
#
# Compressibility (1/GPa) = 0.02958922
#
# Stress axis : x y z
#
# Youngs Moduli (GPa) = 72.66817 72.85478 58.30524
#
# Poissons Ratio (x) = 0.10740 0.31890
# Poissons Ratio (y) = 0.10713 0.03387
# Poissons Ratio (z) = 0.39745 0.04232
#
# Static dielectric constant tensor:
#      x y z
#    x 2.263400 -0.105800 0.018250 
#    y -0.105800 2.221890 0.021870 
#    z 0.018250 0.021870 1.997910 
# 
# From -- ./inp_files/38947.got.cif
#   From: 2010.05.17/outbox.cif.g08.bks.cpg/sg2_20_cif.got.tgz:38947.got - 2010.06.03 11:33:40.
