data_PCOD9001058
_publ_section_title
;
Structure prediction by ZEFSAII (Michael W. Deem and Ramdas Pophale) SiO2 
 PCOD9001058
Probable space group: P -1
;
_chemical_formula_sum "Si O2"
_cell_formula_units_Z 12
_cell_length_a 10.142740
_cell_length_b 12.293702
_cell_length_c 7.908767
_cell_angle_alpha 59.599237
_cell_angle_beta 46.325870
_cell_angle_gamma 91.988069
_cell_volume 484.726044
_symmetry_space_group_name_H-M "P -1"
_symmetry_group_IT_number 2
_symmetry_cell_setting 'triclinic'
loop_
_space_group_symop_operation_xyz
x,y,z
-x,-y,-z
loop_
_atom_site_type_symbol
_atom_site_label
_atom_site_fract_x
_atom_site_fract_y
_atom_site_fract_z
Si Si1 0.692884 0.873439 0.508961
Si Si2 0.994401 0.225264 0.038889
Si Si3 0.679654 0.983727 0.774031
Si Si4 0.249533 0.618501 0.881323
Si Si5 0.701939 0.625045 0.851517
Si Si6 0.583921 0.700736 0.248483
O O1 0.572307 0.874002 0.787503
O O2 0.492199 0.763817 0.639641
O O3 0.865910 0.062813 0.169525
O O4 0.811571 0.794025 0.529822
O O5 0.918190 0.334437 0.984405
O O6 0.262803 0.310879 0.744138
O O7 0.897510 0.149796 0.373400
O O8 0.719616 0.889038 0.943963
O O9 0.500000 0.000000 0.000000
O O10 0.168273 0.451025 0.164114
O O11 0.334760 0.626923 0.606776
O O12 0.500000 0.500000 0.000000
O O13 0.599448 0.633246 0.112122
#
# Coordination Sequence:
#
# PCOD9001058 Si02
#       6
#     2   2   2   2   2   2
#     4   8  19  35  56  79 111 144 177 218 270 316
#     4  10  21  33  58  84 110 134 183 227 262 315
#     4   9  17  34  54  80 107 145 173 216 272 313
#     4  11  20  36  57  81 110 144 178 220 267 318
#     4   9  20  37  57  75 109 149 177 217 270 323
#     4  11  20  35  59  81 107 142 182 220 272 314
#
# _framework density 24.756253999999998
#
# number of rings (size 3 to 8) (size 9 to 14) (size 15 to 20)
#    1.000    1.333    1.667    1.500    0.000    1.333 
#    0.000    0.000    0.000    6.000    0.000    0.000 
#    0.000    0.000    0.000    0.000    0.000    0.000 
#
# Total GULP energy -66992.306676 kJ/mol
# GULP energy per Si atom -5582.692223 kJ/mol
# Density = 2.469991 g / cm^3
# Si number density = 24.756254 Si / 1000 Ang^3
#
#
#
# Elastic Constant Matrix: (Units=GPa)
#
#
# Indices 1 2 3 4 5 6 
#
# 1 85.5779 72.3433 14.9088 -3.0290 5.8212 -15.6689
# 2 72.3433 178.7330 36.5990 -7.5685 3.9878 -32.0025
# 3 14.9088 36.5990 48.2859 4.4259 -0.8305 -8.5614
# 4 -3.0290 -7.5685 4.4259 29.0296 0.1481 6.6500
# 5 5.8212 3.9878 -0.8305 0.1481 13.9559 -7.8863
# 6 -15.6689 -32.0025 -8.5614 6.6500 -7.8863 63.8330
#
#
#
# Elastic Compliance Matrix: (Units=1/GPa)
#
#
# Indices 1 2 3 4 5 6 
#
# 1 0.018180 -0.007151 -0.000265 0.000064 -0.005466 0.000160
# 2 -0.007151 0.010054 -0.005133 0.002072 0.001212 0.002531
# 3 -0.000265 -0.005133 0.025621 -0.005734 0.004248 0.001920
# 4 0.000064 0.002072 -0.005734 0.036802 -0.003608 -0.003994
# 5 -0.005466 0.001212 0.004248 -0.003608 0.079552 0.010040
# 6 0.000160 0.002531 0.001920 -0.003994 0.010040 0.018888
#
#
# Mechanical properties :
#
#
# Convention : Reuss Voigt Hill
#
# Bulk Modulus (GPa) = 34.77271 62.25543 48.51407
# Shear Modulus (GPa) = 22.34332 33.94677 28.14505
#
# Velocity S-wave (km/s) = 3.00748 3.70704 3.37543
# Velocity P-wave (km/s) = 5.11238 6.59734 5.90175
#
# Compressibility (1/GPa) = 0.02875818
#
# Stress axis : x y z
#
# Youngs Moduli (GPa) = 55.00656 99.46074 39.02975
#
# Poissons Ratio (x) = 0.71123 0.01033
# Poissons Ratio (y) = 0.39334 0.20035
# Poissons Ratio (z) = 0.01455 0.51055
#
# Static dielectric constant tensor:
#      x y z
#    x 1.995400 0.011350 0.040680 
#    y 0.011350 1.994660 -0.050330 
#    z 0.040680 -0.050330 1.935220 
# 
# From -- ./inp_files/44910.got.cif
#   From: 2010.05.17/outbox.cif.g08.bks.cpg/sg2_23_cif.got.tgz:44910.got - 2010.06.03 11:33:40.
