data_PCOD9001546
_publ_section_title
;
Structure prediction by ZEFSAII (Michael W. Deem and Ramdas Pophale) SiO2 
 PCOD9001546
Probable space group: P -1
;
_chemical_formula_sum "Si O2"
_cell_formula_units_Z 14
_cell_length_a 9.387633
_cell_length_b 9.180186
_cell_length_c 14.677583
_cell_angle_alpha 105.904746
_cell_angle_beta 129.943404
_cell_angle_gamma 102.549218
_cell_volume 788.960807
_symmetry_space_group_name_H-M "P -1"
_symmetry_group_IT_number 2
_symmetry_cell_setting 'triclinic'
loop_
_space_group_symop_operation_xyz
x,y,z
-x,-y,-z
loop_
_atom_site_type_symbol
_atom_site_label
_atom_site_fract_x
_atom_site_fract_y
_atom_site_fract_z
Si Si1 0.853235 0.185219 0.664456
Si Si2 0.666927 0.715319 0.119328
Si Si3 0.769692 0.747646 0.794697
Si Si4 0.413846 0.876495 0.123726
Si Si5 0.238116 0.068688 0.990513
Si Si6 0.048260 0.477053 0.120429
Si Si7 0.455771 0.090868 0.361078
O O1 0.898502 0.351715 0.772588
O O2 0.692662 0.158850 0.511790
O O3 0.091763 0.231352 0.741209
O O4 0.719550 0.015782 0.648391
O O5 0.580108 0.811376 0.165722
O O6 0.500000 0.500000 0.000000
O O7 0.701897 0.809875 0.051967
O O8 0.778401 0.829434 0.911375
O O9 0.769897 0.570329 0.787831
O O10 0.579364 0.754214 0.664195
O O11 0.994946 0.888522 0.857789
O O12 0.418949 0.019263 0.079949
O O13 0.413410 0.955805 0.236550
O O14 0.180858 0.698324 0.977119
O O15 0.000000 0.500000 0.000000
#
# Coordination Sequence:
#
# PCOD9001546 Si02
#       7
#     2   2   2   2   2   2   2
#     4  11  22  36  57  82 118 144 193 232 270 340
#     4  12  22  34  56  88 117 145 178 239 284 330
#     4   9  18  33  60  79 113 145 186 239 273 321
#     4  10  21  35  58  80 112 151 184 230 280 333
#     4   9  18  34  54  86 109 143 190 228 278 330
#     4  11  19  33  57  89 112 139 189 240 274 320
#     4  10  21  39  57  81 109 157 188 228 279 327
#
# _framework density 17.744861
#
# number of rings (size 3 to 8) (size 9 to 14) (size 15 to 20)
#    0.000    1.714    4.286    2.143    0.000    1.143 
#    0.000    0.000    0.000    3.429    0.000    0.000 
#    0.000    0.000    0.000    0.000    0.000    0.000 
#
# Total GULP energy -77980.772221 kJ/mol
# GULP energy per Si atom -5570.055159 kJ/mol
# Density = 1.770447 g / cm^3
# Si number density = 17.744861 Si / 1000 Ang^3
#
#
#
# Elastic Constant Matrix: (Units=GPa)
#
#
# Indices 1 2 3 4 5 6 
#
# 1 56.1695 17.4729 1.2572 -9.0318 17.7288 -19.7358
# 2 17.4729 78.8009 4.7471 -19.7675 10.8202 -10.8070
# 3 1.2572 4.7471 53.8037 -15.8660 17.1103 -6.7889
# 4 -9.0318 -19.7675 -15.8660 25.4458 -4.5764 4.5788
# 5 17.7288 10.8202 17.1103 -4.5764 25.9671 -7.0779
# 6 -19.7358 -10.8070 -6.7889 4.5788 -7.0779 35.7766
#
#
#
# Elastic Compliance Matrix: (Units=1/GPa)
#
#
# Indices 1 2 3 4 5 6 
#
# 1 0.031787 0.000552 0.012311 0.012595 -0.024102 0.013658
# 2 0.000552 0.017678 0.006015 0.015653 -0.008080 0.003184
# 3 0.012311 0.006015 0.034587 0.024461 -0.027597 0.006581
# 4 0.012595 0.015653 0.024461 0.067154 -0.018285 0.004106
# 5 -0.024102 -0.008080 -0.027597 -0.018285 0.072103 -0.004368
# 6 0.013658 0.003184 0.006581 0.004106 -0.004368 0.036306
#
#
# Mechanical properties :
#
#
# Convention : Reuss Voigt Hill
#
# Bulk Modulus (GPa) = 8.20966 26.19204 17.20085
# Shear Modulus (GPa) = 19.05018 28.45771 23.75394
#
# Velocity S-wave (km/s) = 3.28008 4.00899 3.66271
# Velocity P-wave (km/s) = 4.35681 6.01845 5.25373
#
# Compressibility (1/GPa) = 0.12180772
#
# Stress axis : x y z
#
# Youngs Moduli (GPa) = 31.45919 56.56654 28.91223
#
# Poissons Ratio (x) = -0.03123 -0.35593
# Poissons Ratio (y) = -0.01737 -0.17390
# Poissons Ratio (z) = -0.38728 -0.34022
#
# Static dielectric constant tensor:
#      x y z
#    x 1.630560 -0.029040 0.023160 
#    y -0.029040 1.642350 -0.035680 
#    z 0.023160 -0.035680 1.585680 
# 
# From -- ./inp_files/153727.got.cif
#   From: 2010.05.17/outbox.cif.g08.bks.cpg/sg2_77_cif.got.tgz:153727.got - 2010.06.03 11:33:40.
