data_PCOD9001776
_publ_section_title
;
Structure prediction by ZEFSAII (Michael W. Deem and Ramdas Pophale) SiO2 
 PCOD9001776
Probable space group: P -1
;
_chemical_formula_sum "Si O2"
_cell_formula_units_Z 16
_cell_length_a 10.722130
_cell_length_b 10.856591
_cell_length_c 12.604500
_cell_angle_alpha 52.555542
_cell_angle_beta 37.559727
_cell_angle_gamma 62.299597
_cell_volume 709.666346
_symmetry_space_group_name_H-M "P -1"
_symmetry_group_IT_number 2
_symmetry_cell_setting 'triclinic'
loop_
_space_group_symop_operation_xyz
x,y,z
-x,-y,-z
loop_
_atom_site_type_symbol
_atom_site_label
_atom_site_fract_x
_atom_site_fract_y
_atom_site_fract_z
Si Si1 0.602686 0.666396 0.868644
Si Si2 0.858676 0.644451 0.518216
Si Si3 0.516236 0.975386 0.681920
Si Si4 0.816349 0.952385 0.287995
Si Si5 0.451319 0.783236 0.301331
Si Si6 0.069666 0.255807 0.003719
Si Si7 0.504034 0.571483 0.206868
Si Si8 0.795714 0.423048 0.261888
O O1 0.809540 0.688775 0.649850
O O2 0.463881 0.801290 0.846169
O O3 0.500000 0.500000 0.000000
O O4 0.618124 0.658809 0.987718
O O5 0.926245 0.793254 0.324813
O O6 0.645290 0.571065 0.653769
O O7 0.000000 0.500000 0.500000
O O8 0.672959 0.970772 0.479930
O O9 0.325717 0.060553 0.713536
O O10 0.603905 0.059810 0.683970
O O11 0.051724 0.888195 0.891766
O O12 0.696953 0.794174 0.115484
O O13 0.379924 0.706358 0.279242
O O14 0.365259 0.657064 0.509378
O O15 0.087795 0.425201 0.845863
O O16 0.948239 0.302597 0.168762
O O17 0.664397 0.494933 0.217395
#
# Coordination Sequence:
#
# PCOD9001776 Si02
#       8
#     2   2   2   2   2   2   2   2
#     4   9  21  39  59  87 124 171 210 255 322 378
#     4  10  22  42  63  96 128 167 214 265 315 394
#     4  10  21  39  65  93 130 169 211 277 315 379
#     4  10  21  39  66  94 128 168 214 268 332 359
#     4  11  22  41  64  94 128 167 221 266 320 383
#     4  10  21  35  62  98 126 166 212 269 311 384
#     4  10  21  40  62  85 124 180 208 256 332 381
#     4  10  21  41  60  94 136 165 215 266 318 378
#
# _framework density 22.545807
#
# number of rings (size 3 to 8) (size 9 to 14) (size 15 to 20)
#    0.000    2.000    1.250    2.250    5.250    3.000 
#   11.250    1.250    0.000    7.500    0.000    0.000 
#    0.000    0.000    0.000    0.000    0.000    0.000 
#
# Total GULP energy -89184.001368 kJ/mol
# GULP energy per Si atom -5574.000086 kJ/mol
# Density = 2.249449 g / cm^3
# Si number density = 22.545807 Si / 1000 Ang^3
#
#
#
# Elastic Constant Matrix: (Units=GPa)
#
#
# Indices 1 2 3 4 5 6 
#
# 1 30.5794 19.9862 35.8577 -7.2722 9.4565 5.2673
# 2 19.9862 106.4438 25.3757 -19.5617 12.5802 1.1072
# 3 35.8577 25.3757 80.1498 -8.1288 13.5450 -7.9110
# 4 -7.2722 -19.5617 -8.1288 41.8569 8.2606 -0.1134
# 5 9.4565 12.5802 13.5450 8.2606 30.1506 -2.7011
# 6 5.2673 1.1072 -7.9110 -0.1134 -2.7011 35.4568
#
#
#
# Elastic Compliance Matrix: (Units=1/GPa)
#
#
# Indices 1 2 3 4 5 6 
#
# 1 0.090801 -0.004392 -0.038216 0.009002 -0.013998 -0.022916
# 2 -0.004392 0.011967 -0.000411 0.005740 -0.005020 -0.000177
# 3 -0.038216 -0.000411 0.030944 -0.000704 -0.000426 0.012559
# 4 0.009002 0.005740 -0.000704 0.030665 -0.013537 -0.002607
# 5 -0.013998 -0.005020 -0.000426 -0.013537 0.044040 0.005453
# 6 -0.022916 -0.000177 0.012559 -0.002607 0.005453 0.034822
#
#
# Mechanical properties :
#
#
# Convention : Reuss Voigt Hill
#
# Bulk Modulus (GPa) = 20.97524 42.17912 31.57718
# Shear Modulus (GPa) = 14.48569 30.55645 22.52107
#
# Velocity S-wave (km/s) = 2.53751 3.68544 3.16397
# Velocity P-wave (km/s) = 4.23189 6.07114 5.23295
#
# Compressibility (1/GPa) = 0.04767527
#
# Stress axis : x y z
#
# Youngs Moduli (GPa) = 11.01313 83.56158 32.31639
#
# Poissons Ratio (x) = 0.36696 1.23499
# Poissons Ratio (y) = 0.04836 0.01329
# Poissons Ratio (z) = 0.42087 0.03436
#
# Static dielectric constant tensor:
#      x y z
#    x 1.898890 0.042990 -0.003950 
#    y 0.042990 1.916710 0.056550 
#    z -0.003950 0.056550 1.862540 
# 
# From -- ./inp_files/344747.got.cif
#   From: 2010.05.17/outbox.cif.g08.bks.cpg/sg2_173_cif.got.tgz:344747.got - 2010.06.03 11:33:40.
