data_PCOD9001481
_publ_section_title
;
Structure prediction by ZEFSAII (Michael W. Deem and Ramdas Pophale) SiO2 
 PCOD9001481
Probable space group: P -1
;
_chemical_formula_sum "Si O2"
_cell_formula_units_Z 14
_cell_length_a 12.391426
_cell_length_b 24.894903
_cell_length_c 5.535209
_cell_angle_alpha 92.180257
_cell_angle_beta 81.145790
_cell_angle_gamma 26.925160
_cell_volume 702.931981
_symmetry_space_group_name_H-M "P -1"
_symmetry_group_IT_number 2
_symmetry_cell_setting 'triclinic'
loop_
_space_group_symop_operation_xyz
x,y,z
-x,-y,-z
loop_
_atom_site_type_symbol
_atom_site_label
_atom_site_fract_x
_atom_site_fract_y
_atom_site_fract_z
Si Si1 0.341263 0.946307 0.102976
Si Si2 0.199231 0.602429 0.888063
Si Si3 0.153788 0.803849 0.993268
Si Si4 0.274746 0.145000 0.150108
Si Si5 0.843214 0.081220 0.816098
Si Si6 0.599507 0.523477 0.704679
Si Si7 0.760684 0.915621 0.474224
O O1 0.376349 0.867248 0.104939
O O2 0.339232 0.984563 0.347165
O O3 0.559780 0.876111 0.845254
O O4 0.050290 0.086773 0.123819
O O5 0.409041 0.556743 0.793731
O O6 0.241298 0.551445 0.613110
O O7 0.911250 0.756542 0.988378
O O8 0.238449 0.552443 0.113641
O O9 0.221378 0.826816 0.128599
O O10 0.980124 0.838201 0.204609
O O11 0.412176 0.659027 0.789081
O O12 0.105207 0.188197 0.410736
O O13 0.500000 0.000000 0.000000
O O14 0.000000 0.000000 0.500000
O O15 0.000000 0.000000 0.000000
O O16 0.500000 0.000000 0.500000
#
# Coordination Sequence:
#
# PCOD9001481 Si02
#       7
#     2   2   2   2   2   2   2
#     4  10  21  37  55  88 121 151 196 246 301 349
#     4  10  23  39  53  83 118 155 195 235 292 353
#     4  11  22  37  60  86 120 160 200 242 298 352
#     4  10  21  35  56  86 116 151 184 240 302 353
#     4  10  21  38  59  86 120 155 198 248 292 343
#     4  10  23  37  57  79 119 158 197 237 280 356
#     4  11  21  31  55  89 125 151 189 240 308 361
#
# _framework density 19.916578000000001
#
# number of rings (size 3 to 8) (size 9 to 14) (size 15 to 20)
#    0.000    1.714    2.857    1.714   10.000    0.000 
#    0.000    0.000    0.000    1.714    0.000    0.000 
#    0.000    0.000    0.000    0.000    0.000    0.000 
#
# Total GULP energy -78013.769951 kJ/mol
# GULP energy per Si atom -5572.412139 kJ/mol
# Density = 1.987125 g / cm^3
# Si number density = 19.916578 Si / 1000 Ang^3
#
#
#
# Elastic Constant Matrix: (Units=GPa)
#
#
# Indices 1 2 3 4 5 6 
#
# 1 124.7494 21.3660 30.8923 5.0104 11.4985 23.7057
# 2 21.3660 93.8085 38.3369 -3.9328 4.4793 -7.6731
# 3 30.8923 38.3369 106.1372 0.2355 14.6549 7.2845
# 4 5.0104 -3.9328 0.2355 26.6201 0.6179 5.8751
# 5 11.4985 4.4793 14.6549 0.6179 27.2365 -0.2767
# 6 23.7057 -7.6731 7.2845 5.8751 -0.2767 25.6776
#
#
#
# Elastic Compliance Matrix: (Units=1/GPa)
#
#
# Indices 1 2 3 4 5 6 
#
# 1 0.011176 -0.002878 -0.000929 -0.000014 -0.003856 -0.010953
# 2 -0.002878 0.013973 -0.004996 0.000829 0.001669 0.008078
# 3 -0.000929 -0.004996 0.012568 0.000417 -0.005602 -0.004356
# 4 -0.000014 0.000829 0.000417 0.039694 -0.001346 -0.008955
# 5 -0.003856 0.001669 -0.005602 -0.001346 0.041179 0.006400
# 6 -0.010953 0.008078 -0.004356 -0.008955 0.006400 0.054824
#
#
# Mechanical properties :
#
#
# Convention : Reuss Voigt Hill
#
# Bulk Modulus (GPa) = 49.72379 56.20950 52.96665
# Shear Modulus (GPa) = 25.28752 31.51351 28.40051
#
# Velocity S-wave (km/s) = 3.56711 3.98210 3.78030
# Velocity P-wave (km/s) = 6.47966 7.03040 6.76064
#
# Compressibility (1/GPa) = 0.02011110
#
# Stress axis : x y z
#
# Youngs Moduli (GPa) = 89.47370 71.56581 79.56441
#
# Poissons Ratio (x) = 0.20598 0.07393
# Poissons Ratio (y) = 0.25752 0.39751
# Poissons Ratio (z) = 0.08314 0.35755
#
# Static dielectric constant tensor:
#      x y z
#    x 1.730390 -0.002020 0.006700 
#    y -0.002020 1.762660 -0.060350 
#    z 0.006700 -0.060350 1.919910 
# 
# From -- ./inp_files/77595.got.cif
#   From: 2010.05.17/outbox.cif.g08.bks.cpg/sg2_39_cif.got.tgz:77595.got - 2010.06.03 11:33:40.
