data_PCOD9001725
_publ_section_title
;
Structure prediction by ZEFSAII (Michael W. Deem and Ramdas Pophale) SiO2 
 PCOD9001725
Probable space group: P -1
;
_chemical_formula_sum "Si O2"
_cell_formula_units_Z 12
_cell_length_a 12.391000
_cell_length_b 12.598282
_cell_length_c 13.863768
_cell_angle_alpha 134.638563
_cell_angle_beta 132.955653
_cell_angle_gamma 23.240915
_cell_volume 602.697094
_symmetry_space_group_name_H-M "P -1"
_symmetry_group_IT_number 2
_symmetry_cell_setting 'triclinic'
loop_
_space_group_symop_operation_xyz
x,y,z
-x,-y,-z
loop_
_atom_site_type_symbol
_atom_site_label
_atom_site_fract_x
_atom_site_fract_y
_atom_site_fract_z
Si Si1 0.503017 0.453667 0.745709
Si Si2 0.291354 0.769673 0.479289
Si Si3 0.924879 0.694193 0.778896
Si Si4 0.325108 0.071075 0.620532
Si Si5 0.992553 0.329906 0.398209
Si Si6 0.022272 0.043919 0.933126
O O1 0.661779 0.339371 0.668541
O O2 0.285653 0.505128 0.626532
O O3 0.745781 0.227891 0.827098
O O4 0.290756 0.757023 0.854718
O O5 0.500000 0.500000 0.500000
O O6 0.327975 0.917326 0.585683
O O7 0.000000 0.000000 0.500000
O O8 0.105606 0.391102 0.713804
O O9 0.003021 0.712944 0.738931
O O10 0.617097 0.900957 0.702253
O O11 0.960214 0.791011 0.942423
O O12 0.234299 0.096336 0.473215
O O13 0.000000 0.500000 0.500000
O O14 0.000000 0.000000 0.000000
#
# Coordination Sequence:
#
# PCOD9001725 Si02
#       6
#     2   2   2   2   2   2
#     4  12  25  42  64  98 133 170 226 262 320 393
#     4  12  25  45  72  94 122 166 224 295 337 363
#     4  11  23  38  63  94 140 178 207 252 321 401
#     4  11  23  41  63  97 128 170 220 273 330 381
#     4  10  21  35  61  94 137 169 204 257 323 392
#     4  12  25  40  65  94 143 185 211 245 309 407
#
# _framework density 19.910498
#
# number of rings (size 3 to 8) (size 9 to 14) (size 15 to 20)
#    0.000    0.667    1.667    8.000    4.667    0.000 
#    0.000    0.000    0.000   20.000    0.000    0.000 
#    0.000    0.000    0.000    0.000    0.000    0.000 
#
# Total GULP energy -66928.936343 kJ/mol
# GULP energy per Si atom -5577.411362 kJ/mol
# Density = 1.986518 g / cm^3
# Si number density = 19.910498 Si / 1000 Ang^3
#
#
#
# Elastic Constant Matrix: (Units=GPa)
#
#
# Indices 1 2 3 4 5 6 
#
# 1 80.1229 30.9975 20.9490 9.9435 -7.0078 8.8408
# 2 30.9975 156.1757 33.5076 12.0345 -2.7748 8.8611
# 3 20.9490 33.5076 98.8872 23.7433 8.7591 10.5964
# 4 9.9435 12.0345 23.7433 43.6203 0.0673 -2.9161
# 5 -7.0078 -2.7748 8.7591 0.0673 27.9172 4.5570
# 6 8.8408 8.8611 10.5964 -2.9161 4.5570 44.2745
#
#
#
# Elastic Compliance Matrix: (Units=1/GPa)
#
#
# Indices 1 2 3 4 5 6 
#
# 1 0.014762 -0.002109 -0.002101 -0.001821 0.004586 -0.002615
# 2 -0.002109 0.007331 -0.001909 -0.000552 0.000917 -0.000720
# 3 -0.002101 -0.001909 0.013405 -0.006442 -0.004521 -0.002366
# 4 -0.001821 -0.000552 -0.006442 0.027247 0.000836 0.003725
# 5 0.004586 0.000917 -0.004521 0.000836 0.039131 -0.003990
# 6 -0.002615 -0.000720 -0.002366 0.003725 -0.003990 0.024475
#
#
# Mechanical properties :
#
#
# Convention : Reuss Voigt Hill
#
# Bulk Modulus (GPa) = 42.99243 56.23264 49.61253
# Shear Modulus (GPa) = 34.16664 39.81118 36.98891
#
# Velocity S-wave (km/s) = 4.14697 4.47644 4.31485
# Velocity P-wave (km/s) = 6.67604 7.41768 7.05661
#
# Compressibility (1/GPa) = 0.02325991
#
# Stress axis : x y z
#
# Youngs Moduli (GPa) = 67.74240 136.41020 74.59737
#
# Poissons Ratio (x) = 0.28767 0.15676
# Poissons Ratio (y) = 0.14286 0.14238
# Poissons Ratio (z) = 0.14236 0.26037
#
# Static dielectric constant tensor:
#      x y z
#    x 1.718460 -0.005580 -0.008190 
#    y -0.005580 1.758960 0.072780 
#    z -0.008190 0.072780 1.810110 
# 
# From -- ./inp_files/428765.got.cif
#   From: 2010.05.17/outbox.cif.g08.bks.cpg/sg2_215_cif.got.tgz:428765.got - 2010.06.03 11:33:40.
