data_PCOD9001706
_publ_section_title
;
Structure prediction by ZEFSAII (Michael W. Deem and Ramdas Pophale) SiO2 
 PCOD9001706
Probable space group: P -1
;
_chemical_formula_sum "Si O2"
_cell_formula_units_Z 16
_cell_length_a 5.500807
_cell_length_b 11.054657
_cell_length_c 19.277310
_cell_angle_alpha 46.485354
_cell_angle_beta 94.010360
_cell_angle_gamma 114.796651
_cell_volume 727.847340
_symmetry_space_group_name_H-M "P -1"
_symmetry_group_IT_number 2
_symmetry_cell_setting 'triclinic'
loop_
_space_group_symop_operation_xyz
x,y,z
-x,-y,-z
loop_
_atom_site_type_symbol
_atom_site_label
_atom_site_fract_x
_atom_site_fract_y
_atom_site_fract_z
Si Si1 0.368081 0.570554 0.557002
Si Si2 0.378712 0.028567 0.798771
Si Si3 0.152381 0.192606 0.620125
Si Si4 0.435017 0.147969 0.252181
Si Si5 0.109639 0.279271 0.003143
Si Si6 0.187640 0.542461 0.325801
Si Si7 0.054358 0.529125 0.801270
Si Si8 0.293645 0.476156 0.072454
O O1 0.207404 0.401314 0.562536
O O2 0.591473 0.763958 0.443709
O O3 0.584194 0.519780 0.622379
O O4 0.117762 0.565538 0.598431
O O5 0.186158 0.095182 0.728090
O O6 0.662737 0.227613 0.745671
O O7 0.444828 0.913512 0.786878
O O8 0.184476 0.908278 0.907554
O O9 0.839885 0.041830 0.648621
O O10 0.658489 0.263352 0.271982
O O11 0.362045 0.307180 0.159597
O O12 0.158753 0.418984 0.016119
O O13 0.106243 0.357451 0.895537
O O14 0.423611 0.308870 0.002868
O O15 0.117125 0.509283 0.256535
O O16 0.894125 0.535273 0.863562
#
# Coordination Sequence:
#
# PCOD9001706 Si02
#       8
#     2   2   2   2   2   2   2   2
#     4  10  24  43  69  94 130 167 215 264 327 377
#     4  11  22  39  65  96 126 158 219 266 317 373
#     4  10  21  39  69  97 120 162 216 275 310 372
#     4  11  20  37  66  93 124 159 217 265 313 375
#     4  10  21  35  61  91 123 166 211 266 306 376
#     4  11  26  45  64  95 135 173 205 262 329 389
#     4  11  24  39  62  88 135 172 205 256 325 388
#     4  10  21  36  60  93 123 164 216 265 312 367
#
# _framework density 21.982633
#
# number of rings (size 3 to 8) (size 9 to 14) (size 15 to 20)
#    0.000    1.500    3.750    0.375    8.750    2.000 
#    0.000    1.875    0.000    0.000    0.000    0.000 
#    0.000    0.000    0.000    0.000    0.000    0.000 
#
# Total GULP energy -89210.350088 kJ/mol
# GULP energy per Si atom -5575.646880 kJ/mol
# Density = 2.193260 g / cm^3
# Si number density = 21.982633 Si / 1000 Ang^3
#
#
#
# Elastic Constant Matrix: (Units=GPa)
#
#
# Indices 1 2 3 4 5 6 
#
# 1 58.2668 13.8414 22.9151 -2.3541 -7.6428 13.4779
# 2 13.8414 73.5786 24.5803 6.8362 4.7801 28.7630
# 3 22.9151 24.5803 79.8259 -9.8265 -21.9962 27.9140
# 4 -2.3541 6.8362 -9.8265 32.9076 15.3845 -1.1754
# 5 -7.6428 4.7801 -21.9962 15.3845 40.3212 -5.5069
# 6 13.4779 28.7630 27.9140 -1.1754 -5.5069 27.6147
#
#
#
# Elastic Compliance Matrix: (Units=1/GPa)
#
#
# Indices 1 2 3 4 5 6 
#
# 1 0.020056 -0.000534 -0.003252 -0.000296 0.001429 -0.005673
# 2 -0.000534 0.024886 -0.000053 -0.003687 -0.005338 -0.026828
# 3 -0.003252 -0.000053 0.022983 0.001975 0.008468 -0.019818
# 4 -0.000296 -0.003687 0.001975 0.037744 -0.012801 0.001042
# 5 0.001429 -0.005338 0.008468 -0.012801 0.035598 0.002857
# 6 -0.005673 -0.026828 -0.019818 0.001042 0.002857 0.087571
#
#
# Mechanical properties :
#
#
# Convention : Reuss Voigt Hill
#
# Bulk Modulus (GPa) = 16.59836 37.14942 26.87389
# Shear Modulus (GPa) = 19.48571 30.19101 24.83836
#
# Velocity S-wave (km/s) = 2.98050 3.70997 3.36506
# Velocity P-wave (km/s) = 4.40586 5.94036 5.22970
#
# Compressibility (1/GPa) = 0.06024692
#
# Stress axis : x y z
#
# Youngs Moduli (GPa) = 49.86068 40.18361 43.50971
#
# Poissons Ratio (x) = 0.02147 0.14148
# Poissons Ratio (y) = 0.02664 0.00230
# Poissons Ratio (z) = 0.16213 0.00213
#
# Static dielectric constant tensor:
#      x y z
#    x 1.954010 0.004560 0.016960 
#    y 0.004560 1.780100 -0.074790 
#    z 0.016960 -0.074790 1.870870 
# 
# From -- ./inp_files/110685.got.cif
#   From: 2010.05.17/outbox.cif.g08.bks.cpg/sg2_56_cif.got.tgz:110685.got - 2010.06.03 11:33:40.
