data_PCOD9001447
_publ_section_title
;
Structure prediction by ZEFSAII (Michael W. Deem and Ramdas Pophale) SiO2 
 PCOD9001447
Probable space group: P -1
;
_chemical_formula_sum "Si O2"
_cell_formula_units_Z 14
_cell_length_a 8.830624
_cell_length_b 10.901186
_cell_length_c 10.818833
_cell_angle_alpha 50.422152
_cell_angle_beta 113.780154
_cell_angle_gamma 140.065146
_cell_volume 507.562997
_symmetry_space_group_name_H-M "P -1"
_symmetry_group_IT_number 2
_symmetry_cell_setting 'triclinic'
loop_
_space_group_symop_operation_xyz
x,y,z
-x,-y,-z
loop_
_atom_site_type_symbol
_atom_site_label
_atom_site_fract_x
_atom_site_fract_y
_atom_site_fract_z
Si Si1 0.774102 0.972109 0.693239
Si Si2 0.753955 0.714677 0.508992
Si Si3 0.284169 0.589257 0.653939
Si Si4 0.722259 0.794234 0.080084
Si Si5 0.716855 0.006936 0.185816
Si Si6 0.772789 0.247016 0.711461
Si Si7 0.778498 0.613176 0.863672
O O1 0.521556 0.827312 0.637410
O O2 0.780132 0.783711 0.828096
O O3 0.786007 0.091500 0.740041
O O4 0.010390 0.173942 0.560556
O O5 0.500000 0.500000 0.500000
O O6 0.756975 0.909183 0.375628
O O7 0.764280 0.647927 0.691005
O O8 0.307052 0.415480 0.770947
O O9 0.256032 0.639053 0.475910
O O10 0.032246 0.451379 0.726628
O O11 0.707548 0.892031 0.134576
O O12 0.467306 0.648049 0.019073
O O13 0.000000 0.000000 0.000000
O O14 0.461347 0.909876 0.181895
O O15 0.960780 0.277706 0.092526
#
# Coordination Sequence:
#
# PCOD9001447 Si02
#       7
#     2   2   2   2   2   2   2
#     4  10  21  35  55  89 129 158 188 235 300 379
#     4  11  20  34  62  90 125 153 198 249 304 357
#     4  10  22  38  60  89 125 161 197 239 309 360
#     4  11  24  43  64  85 115 164 219 258 286 342
#     4  11  22  37  60  91 121 155 205 248 307 361
#     4  11  23  34  61  94 127 155 187 244 319 379
#     4  10  21  38  64  88 120 159 202 255 300 353
#
# _framework density 27.582782000000002
#
# number of rings (size 3 to 8) (size 9 to 14) (size 15 to 20)
#    0.000    1.429    1.429    6.429    6.000    1.714 
#    0.000    0.714    0.000    4.286    0.000    0.000 
#    0.000    0.000    0.000    0.000    0.000    0.000 
#
# Total GULP energy -78464.639314 kJ/mol
# GULP energy per Si atom -5604.617094 kJ/mol
# Density = 2.752000 g / cm^3
# Si number density = 27.582782 Si / 1000 Ang^3
#
#
#
# Elastic Constant Matrix: (Units=GPa)
#
#
# Indices 1 2 3 4 5 6 
#
# 1 192.9250 82.0212 39.1779 -23.1783 -53.3457 43.2593
# 2 82.0212 220.2137 31.1021 -42.8121 -36.1796 61.2369
# 3 39.1779 31.1021 99.9073 -23.1778 -20.7669 8.8535
# 4 -23.1783 -42.8121 -23.1778 44.1387 5.7350 -12.5559
# 5 -53.3457 -36.1796 -20.7669 5.7350 55.3031 -16.5782
# 6 43.2593 61.2369 8.8535 -12.5559 -16.5782 66.8517
#
#
#
# Elastic Compliance Matrix: (Units=1/GPa)
#
#
# Indices 1 2 3 4 5 6 
#
# 1 0.008195 -0.000952 -0.001160 0.001269 0.005947 -0.002565
# 2 -0.000952 0.007598 0.000094 0.005268 0.002088 -0.004849
# 3 -0.001160 0.000094 0.012383 0.005824 0.003267 0.000929
# 4 0.001269 0.005268 0.005824 0.031105 0.003737 0.000350
# 5 0.005947 0.002088 0.003267 0.003737 0.026335 0.001039
# 6 -0.002565 -0.004849 0.000929 0.000350 0.001039 0.021261
#
#
# Mechanical properties :
#
#
# Convention : Reuss Voigt Hill
#
# Bulk Modulus (GPa) = 41.42304 90.84981 66.13642
# Shear Modulus (GPa) = 42.03135 57.30833 49.66984
#
# Velocity S-wave (km/s) = 3.90786 4.56311 4.24813
# Velocity P-wave (km/s) = 5.95081 7.79559 6.93482
#
# Compressibility (1/GPa) = 0.02414115
#
# Stress axis : x y z
#
# Youngs Moduli (GPa) = 122.01963 131.61375 80.75747
#
# Poissons Ratio (x) = 0.12526 0.09365
# Poissons Ratio (y) = 0.11613 -0.00758
# Poissons Ratio (z) = 0.14150 -0.01235
#
# Static dielectric constant tensor:
#      x y z
#    x 2.147210 0.040160 -0.008190 
#    y 0.040160 2.163550 0.047790 
#    z -0.008190 0.047790 2.327580 
# 
# From -- ./inp_files/500066.got.cif
#   From: 2010.05.17/outbox.cif.g08.bks.cpg/sg2_251_cif.got.tgz:500066.got - 2010.06.03 11:33:40.
