data_PCOD9001060
_publ_section_title
;
Structure prediction by ZEFSAII (Michael W. Deem and Ramdas Pophale) SiO2 
 PCOD9001060
Probable space group: P -1
;
_chemical_formula_sum "Si O2"
_cell_formula_units_Z 16
_cell_length_a 16.564369
_cell_length_b 16.584919
_cell_length_c 7.241206
_cell_angle_alpha 102.148732
_cell_angle_beta 126.394760
_cell_angle_gamma 34.790678
_cell_volume 729.043131
_symmetry_space_group_name_H-M "P -1"
_symmetry_group_IT_number 2
_symmetry_cell_setting 'triclinic'
loop_
_space_group_symop_operation_xyz
x,y,z
-x,-y,-z
loop_
_atom_site_type_symbol
_atom_site_label
_atom_site_fract_x
_atom_site_fract_y
_atom_site_fract_z
Si Si1 0.087037 0.719817 0.758311
Si Si2 0.181512 0.995175 0.787945
Si Si3 0.459631 0.936203 0.067277
Si Si4 0.074096 0.333078 0.333502
Si Si5 0.911219 0.146502 0.853259
Si Si6 0.625062 0.722276 0.857957
Si Si7 0.452587 0.681204 0.744068
Si Si8 0.707937 0.813693 0.798409
O O1 0.981148 0.840849 0.496342
O O2 0.958318 0.732044 0.651954
O O3 0.085658 0.783570 0.959066
O O4 0.332665 0.510867 0.964140
O O5 0.940753 0.940866 0.163473
O O6 0.293872 0.838362 0.754841
O O7 0.368049 0.925918 0.053181
O O8 0.703098 0.786251 0.367093
O O9 0.302844 0.126299 0.997509
O O10 0.470375 0.890828 0.855549
O O11 0.092992 0.312660 0.125204
O O12 0.858456 0.540676 0.181494
O O13 0.675829 0.294848 0.528482
O O14 0.000000 0.000000 0.000000
O O15 0.523377 0.705068 0.714162
O O16 0.672552 0.743295 0.755173
O O17 0.500000 0.000000 0.500000
#
# Coordination Sequence:
#
# PCOD9001060 Si02
#       8
#     2   2   2   2   2   2   2   2
#     4  11  25  45  68  99 133 170 222 270 325 395
#     4  11  25  45  68  98 134 170 219 270 327 391
#     4  10  22  37  62  91 121 169 207 249 317 377
#     4  10  22  39  61  89 129 167 207 261 314 378
#     4  12  25  46  73  97 130 172 219 273 335 390
#     4  10  21  38  60  91 126 164 212 260 312 381
#     4  10  24  45  70  95 131 174 218 277 329 381
#     4  10  21  33  58  88 124 167 208 252 312 375
#
# _framework density 21.946574999999999
#
# number of rings (size 3 to 8) (size 9 to 14) (size 15 to 20)
#    0.000    1.500    1.250    2.625    8.750    2.500 
#    2.250    0.000    5.500    0.000    0.000    0.000 
#    0.000    0.000    0.000    0.000    0.000    0.000 
#
# Total GULP energy -89388.852982 kJ/mol
# GULP energy per Si atom -5586.803311 kJ/mol
# Density = 2.189662 g / cm^3
# Si number density = 21.946575 Si / 1000 Ang^3
#
#
#
# Elastic Constant Matrix: (Units=GPa)
#
#
# Indices 1 2 3 4 5 6 
#
# 1 145.5615 38.7155 46.3767 -3.0411 -9.9354 -2.5462
# 2 38.7155 106.8180 32.9669 -12.6121 -17.3714 5.4261
# 3 46.3767 32.9669 101.1700 -3.6330 13.3904 10.8907
# 4 -3.0411 -12.6121 -3.6330 30.2652 4.8599 3.1904
# 5 -9.9354 -17.3714 13.3904 4.8599 28.9342 -2.3657
# 6 -2.5462 5.4261 10.8907 3.1904 -2.3657 24.5688
#
#
#
# Elastic Compliance Matrix: (Units=1/GPa)
#
#
# Indices 1 2 3 4 5 6 
#
# 1 0.009215 -0.001334 -0.004990 -0.001514 0.005267 0.004165
# 2 -0.001334 0.013193 -0.004701 0.003408 0.009022 -0.000542
# 3 -0.004990 -0.004701 0.016451 0.002526 -0.013258 -0.008376
# 4 -0.001514 0.003408 0.002526 0.036411 -0.006361 -0.007370
# 5 0.005267 0.009022 -0.013258 -0.006361 0.049812 0.010053
# 6 0.004165 -0.000542 -0.008376 -0.007370 0.010053 0.046891
#
#
# Mechanical properties :
#
#
# Convention : Reuss Voigt Hill
#
# Bulk Modulus (GPa) = 59.48786 65.51864 62.50325
# Shear Modulus (GPa) = 25.04696 32.45299 28.74997
#
# Velocity S-wave (km/s) = 3.38193 3.84959 3.62332
# Velocity P-wave (km/s) = 6.51265 7.04824 6.78573
#
# Compressibility (1/GPa) = 0.01681015
#
# Stress axis : x y z
#
# Youngs Moduli (GPa) = 108.51704 75.79753 60.78839
#
# Poissons Ratio (x) = 0.10109 0.30331
# Poissons Ratio (y) = 0.14473 0.28577
# Poissons Ratio (z) = 0.54145 0.35632
#
# Static dielectric constant tensor:
#      x y z
#    x 1.826290 -0.025190 -0.013030 
#    y -0.025190 1.829890 0.048070 
#    z -0.013030 0.048070 1.853300 
# 
# From -- ./inp_files/348546.got.cif
#   From: 2010.05.17/outbox.cif.g08.bks.cpg/sg2_175_cif.got.tgz:348546.got - 2010.06.03 11:33:40.
