data_PCOD9001669
_publ_section_title
;
Structure prediction by ZEFSAII (Michael W. Deem and Ramdas Pophale) SiO2 
 PCOD9001669
Probable space group: P -1
;
_chemical_formula_sum "Si O2"
_cell_formula_units_Z 15
_cell_length_a 8.282817
_cell_length_b 12.431569
_cell_length_c 8.162048
_cell_angle_alpha 94.696450
_cell_angle_beta 129.997211
_cell_angle_gamma 106.710353
_cell_volume 574.470918
_symmetry_space_group_name_H-M "P -1"
_symmetry_group_IT_number 2
_symmetry_cell_setting 'triclinic'
loop_
_space_group_symop_operation_xyz
x,y,z
-x,-y,-z
loop_
_atom_site_type_symbol
_atom_site_label
_atom_site_fract_x
_atom_site_fract_y
_atom_site_fract_z
Si Si1 0.296847 0.875959 0.038566
Si Si2 0.506794 0.565556 0.184709
Si Si3 0.923290 0.263020 0.791940
Si Si4 0.224185 0.206796 0.448772
Si Si5 0.075018 0.954271 0.377219
Si Si6 0.000000 0.500000 0.000000
Si Si7 0.564791 0.862187 0.909153
Si Si8 0.551106 0.650162 0.708677
O O1 0.050784 0.837647 0.775597
O O2 0.436357 0.020486 0.158462
O O3 0.222311 0.811138 0.154080
O O4 0.458087 0.844828 0.018149
O O5 0.691722 0.706698 0.327803
O O6 0.584391 0.490909 0.359395
O O7 0.500000 0.500000 0.000000
O O8 0.254171 0.555712 0.072454
O O9 0.874153 0.161667 0.609182
O O10 0.892171 0.384620 0.783299
O O11 0.197820 0.318301 0.034073
O O12 0.369541 0.297153 0.411790
O O13 0.259513 0.085394 0.448394
O O14 0.845194 0.906426 0.106143
O O15 0.000000 0.000000 0.500000
O O16 0.448835 0.734067 0.732476
#
# Coordination Sequence:
#
# PCOD9001669 Si02
#       8
#     2   2   2   2   2   1   2   2
#     4   9  18  35  59  87 118 153 202 258 299 371
#     4  11  25  42  65  88 126 169 208 258 318 373
#     4   9  19  37  61  83 122 160 203 249 311 359
#     4  10  21  39  61  88 120 160 207 256 315 365
#     4  10  21  35  60  92 128 164 202 255 312 377
#     4  10  24  42  60  90 122 170 208 246 308 390
#     4   9  18  34  58  89 119 156 202 247 312 365
#     4   9  19  38  62  83 116 161 205 252 304 373
#
# _framework density 26.110980999999999
#
# number of rings (size 3 to 8) (size 9 to 14) (size 15 to 20)
#    0.000    2.400    0.000    1.200    7.467    3.200 
#    2.400    4.667    0.000    0.000    0.000    0.000 
#    0.000    0.000    0.000    0.000    0.000    0.000 
#
# Total GULP energy -83540.493122 kJ/mol
# GULP energy per Si atom -5569.366208 kJ/mol
# Density = 2.605155 g / cm^3
# Si number density = 26.110981 Si / 1000 Ang^3
#
#
#
# Elastic Constant Matrix: (Units=GPa)
#
#
# Indices 1 2 3 4 5 6 
#
# 1 99.0084 34.7889 23.5500 20.6011 -0.1086 -0.5499
# 2 34.7889 124.4333 15.3041 31.2341 -11.2175 4.1306
# 3 23.5500 15.3041 75.3142 32.3931 23.8113 -8.6589
# 4 20.6011 31.2341 32.3931 43.0660 -0.5912 -11.5436
# 5 -0.1086 -11.2175 23.8113 -0.5912 34.6092 2.1917
# 6 -0.5499 4.1306 -8.6589 -11.5436 2.1917 34.7987
#
#
#
# Elastic Compliance Matrix: (Units=1/GPa)
#
#
# Indices 1 2 3 4 5 6 
#
# 1 0.012050 -0.002314 -0.002902 -0.002169 0.001315 -0.001059
# 2 -0.002314 0.011202 0.000571 -0.008546 0.003355 -0.004270
# 3 -0.002902 0.000571 0.030212 -0.021622 -0.021078 0.001559
# 4 -0.002169 -0.008546 -0.021622 0.049942 0.012231 0.011397
# 5 0.001315 0.003355 -0.021078 0.012231 0.044975 -0.004398
# 6 -0.001059 -0.004270 0.001559 0.011397 -0.004398 0.033672
#
#
# Mechanical properties :
#
#
# Convention : Reuss Voigt Hill
#
# Bulk Modulus (GPa) = 22.63728 49.56022 36.09875
# Shear Modulus (GPa) = 24.26356 37.50231 30.88293
#
# Velocity S-wave (km/s) = 3.05166 3.79392 3.44285
# Velocity P-wave (km/s) = 4.59405 6.18171 5.44605
#
# Compressibility (1/GPa) = 0.04417492
#
# Stress axis : x y z
#
# Youngs Moduli (GPa) = 82.98444 89.26588 33.09899
#
# Poissons Ratio (x) = 0.20656 0.09607
# Poissons Ratio (y) = 0.19202 -0.01890
# Poissons Ratio (z) = 0.24085 -0.05098
#
# Static dielectric constant tensor:
#      x y z
#    x 2.072730 -0.063870 0.002480 
#    y -0.063870 2.195410 -0.066320 
#    z 0.002480 -0.066320 2.141010 
# 
# From -- ./inp_files/181979.got.cif
#   From: 2010.05.17/outbox.cif.g08.bks.cpg/sg2_91_cif.got.tgz:181979.got - 2010.06.03 11:33:40.
