data_PCOD9001960
_publ_section_title
;
Structure prediction by ZEFSAII (Michael W. Deem and Ramdas Pophale) SiO2 
 PCOD9001960
Probable space group: P -1
;
_chemical_formula_sum "Si O2"
_cell_formula_units_Z 14
_cell_length_a 15.373236
_cell_length_b 8.349420
_cell_length_c 6.556646
_cell_angle_alpha 130.580957
_cell_angle_beta 68.035615
_cell_angle_gamma 109.543160
_cell_volume 587.797014
_symmetry_space_group_name_H-M "P -1"
_symmetry_group_IT_number 2
_symmetry_cell_setting 'triclinic'
loop_
_space_group_symop_operation_xyz
x,y,z
-x,-y,-z
loop_
_atom_site_type_symbol
_atom_site_label
_atom_site_fract_x
_atom_site_fract_y
_atom_site_fract_z
Si Si1 0.357465 0.099018 0.683550
Si Si2 0.304760 0.762905 0.145100
Si Si3 0.588373 0.882025 0.888180
Si Si4 0.814853 0.624273 0.933877
Si Si5 0.077003 0.528305 0.638829
Si Si6 0.525396 0.515411 0.231849
Si Si7 0.986477 0.791752 0.203353
O O1 0.322151 0.868129 0.438350
O O2 0.400302 0.081566 0.850854
O O3 0.272090 0.240641 0.885718
O O4 0.434884 0.234584 0.580333
O O5 0.211458 0.593975 0.093260
O O6 0.388391 0.620509 0.917879
O O7 0.319382 0.976081 0.171721
O O8 0.562027 0.622520 0.688827
O O9 0.500000 0.000000 0.000000
O O10 0.835933 0.546088 0.621684
O O11 0.899901 0.763751 0.094176
O O12 0.041210 0.376081 0.729766
O O13 0.000000 0.500000 0.500000
O O14 0.074387 0.752454 0.944351
O O15 0.500000 0.500000 0.000000
O O16 0.000000 0.000000 0.500000
#
# Coordination Sequence:
#
# PCOD9001960 Si02
#       7
#     2   2   2   2   2   2   2
#     4  10  21  36  57  85 119 163 205 249 310 358
#     4  10  21  36  55  83 118 159 203 249 308 360
#     4   9  19  36  58  84 116 157 209 257 296 351
#     4  10  23  40  58  88 130 162 197 254 308 366
#     4   9  21  41  63  89 121 155 194 247 305 366
#     4   8  17  35  54  79 112 149 203 254 292 349
#     4  10  22  41  67  94 117 156 209 249 299 370
#
# _framework density 23.817744999999999
#
# number of rings (size 3 to 8) (size 9 to 14) (size 15 to 20)
#    0.000    2.571    0.000    0.000    0.000   14.857 
#    0.000   10.000    0.000    0.000    0.000    0.000 
#    0.000    0.000    0.000    0.000    0.000    0.000 
#
# Total GULP energy -78032.535940 kJ/mol
# GULP energy per Si atom -5573.752567 kJ/mol
# Density = 2.376353 g / cm^3
# Si number density = 23.817745 Si / 1000 Ang^3
#
#
#
# Elastic Constant Matrix: (Units=GPa)
#
#
# Indices 1 2 3 4 5 6 
#
# 1 54.1974 24.0140 48.1952 -2.8138 -0.4503 -6.1807
# 2 24.0140 81.0871 38.9073 -1.2423 6.1570 5.8021
# 3 48.1952 38.9073 177.0534 16.5243 -19.2248 11.4006
# 4 -2.8138 -1.2423 16.5243 51.3474 3.5320 11.0493
# 5 -0.4503 6.1570 -19.2248 3.5320 29.7540 -3.8012
# 6 -6.1807 5.8021 11.4006 11.0493 -3.8012 26.0396
#
#
#
# Elastic Compliance Matrix: (Units=1/GPa)
#
#
# Indices 1 2 3 4 5 6 
#
# 1 0.029065 -0.005374 -0.007840 0.001923 -0.002418 0.010360
# 2 -0.005374 0.016092 -0.002613 0.002587 -0.006136 -0.005710
# 3 -0.007840 -0.002613 0.009589 -0.003372 0.006625 -0.003079
# 4 0.001923 0.002587 -0.003372 0.023223 -0.006651 -0.009469
# 5 -0.002418 -0.006136 0.006625 -0.006651 0.040764 0.006666
# 6 0.010360 -0.005710 -0.003079 -0.009469 0.006666 0.048473
#
#
# Mechanical properties :
#
#
# Convention : Reuss Voigt Hill
#
# Bulk Modulus (GPa) = 43.30686 59.39678 51.35182
# Shear Modulus (GPa) = 24.20631 34.84295 29.52463
#
# Velocity S-wave (km/s) = 3.19143 3.82894 3.52462
# Velocity P-wave (km/s) = 5.63936 6.67382 6.17828
#
# Compressibility (1/GPa) = 0.02309103
#
# Stress axis : x y z
#
# Youngs Moduli (GPa) = 34.40565 62.14219 104.29046
#
# Poissons Ratio (x) = 0.33396 0.81762
# Poissons Ratio (y) = 0.18490 0.27255
# Poissons Ratio (z) = 0.26974 0.16240
#
# Static dielectric constant tensor:
#      x y z
#    x 1.974670 0.029020 -0.049850 
#    y 0.029020 2.030470 0.058480 
#    z -0.049850 0.058480 2.090160 
# 
# From -- ./inp_files/105938.got.cif
#   From: 2010.05.17/outbox.cif.g08.bks.cpg/sg2_53_cif.got.tgz:105938.got - 2010.06.03 11:33:40.
