data_PCOD9001346
_publ_section_title
;
Structure prediction by ZEFSAII (Michael W. Deem and Ramdas Pophale) SiO2 
 PCOD9001346
Probable space group: P -1
;
_chemical_formula_sum "Si O2"
_cell_formula_units_Z 16
_cell_length_a 11.053001
_cell_length_b 18.350451
_cell_length_c 12.237796
_cell_angle_alpha 39.981790
_cell_angle_beta 68.589201
_cell_angle_gamma 39.486617
_cell_volume 844.402383
_symmetry_space_group_name_H-M "P -1"
_symmetry_group_IT_number 2
_symmetry_cell_setting 'triclinic'
loop_
_space_group_symop_operation_xyz
x,y,z
-x,-y,-z
loop_
_atom_site_type_symbol
_atom_site_label
_atom_site_fract_x
_atom_site_fract_y
_atom_site_fract_z
Si Si1 0.552326 0.556844 0.263608
Si Si2 0.767980 0.414074 0.597941
Si Si3 0.514359 0.176151 0.766278
Si Si4 0.573547 0.006867 0.580388
Si Si5 0.064679 0.632384 0.787360
Si Si6 0.180281 0.970776 0.991630
Si Si7 0.125088 0.441241 0.199409
Si Si8 0.672022 0.855493 0.949581
O O1 0.687910 0.460688 0.444702
O O2 0.385106 0.568661 0.306756
O O3 0.737347 0.431950 0.251556
O O4 0.389825 0.785187 0.057492
O O5 0.694965 0.590753 0.458847
O O6 0.034030 0.189923 0.773978
O O7 0.606835 0.027681 0.813701
O O8 0.444598 0.146930 0.925532
O O9 0.716366 0.106799 0.831400
O O10 0.371093 0.240387 0.400275
O O11 0.500000 0.000000 0.500000
O O12 0.591935 0.907645 0.790252
O O13 0.832872 0.860766 0.641014
O O14 0.989398 0.595538 0.760784
O O15 0.150468 0.496936 0.017133
O O16 0.000000 0.000000 0.000000
O O17 0.940934 0.635493 0.112613
#
# Coordination Sequence:
#
# PCOD9001346 Si02
#       8
#     2   2   2   2   2   2   2   2
#     4   9  17  30  49  75 104 131 165 213 259 302
#     4   9  18  31  48  73 104 135 168 207 255 305
#     4  10  21  35  51  76 108 140 169 206 257 311
#     4   9  19  33  51  75  99 131 173 214 254 299
#     4   9  17  29  48  74 101 128 165 214 262 301
#     4   9  18  32  50  74 102 132 169 209 249 298
#     4   9  17  31  48  71 102 133 167 211 257 304
#     4  10  21  35  51  75 109 139 168 209 257 308
#
# _framework density 18.948312000000001
#
# number of rings (size 3 to 8) (size 9 to 14) (size 15 to 20)
#    0.000    2.750    0.000    3.000    0.000    5.000 
#    0.000    2.500    0.000    3.000    0.000   15.750 
#    0.000    0.000    0.000    0.000    0.000    0.000 
#
# Total GULP energy -89139.020221 kJ/mol
# GULP energy per Si atom -5571.188764 kJ/mol
# Density = 1.890518 g / cm^3
# Si number density = 18.948312 Si / 1000 Ang^3
#
#
#
# Elastic Constant Matrix: (Units=GPa)
#
#
# Indices 1 2 3 4 5 6 
#
# 1 23.1320 17.0733 12.8363 2.3202 -5.8378 -4.8879
# 2 17.0733 90.7923 46.0535 -11.5892 0.9145 -14.4025
# 3 12.8363 46.0535 108.9091 -39.8398 8.2568 -10.5468
# 4 2.3202 -11.5892 -39.8398 35.7946 -2.0640 -4.3037
# 5 -5.8378 0.9145 8.2568 -2.0640 19.9971 -8.2166
# 6 -4.8879 -14.4025 -10.5468 -4.3037 -8.2166 28.0803
#
#
#
# Elastic Compliance Matrix: (Units=1/GPa)
#
#
# Indices 1 2 3 4 5 6 
#
# 1 0.065553 -0.007350 -0.012421 -0.018018 0.025950 0.007808
# 2 -0.007350 0.016009 -0.005311 0.000501 0.001622 0.005488
# 3 -0.012421 -0.005311 0.023189 0.025054 -0.008210 0.005261
# 4 -0.018018 0.000501 0.025054 0.058682 -0.003628 0.014463
# 5 0.025950 0.001622 -0.008210 -0.003628 0.069594 0.022073
# 6 0.007808 0.005488 0.005261 0.014463 0.022073 0.050437
#
#
# Mechanical properties :
#
#
# Convention : Reuss Voigt Hill
#
# Bulk Modulus (GPa) = 18.31941 41.63995 29.97968
# Shear Modulus (GPa) = 14.21167 26.56575 20.38871
#
# Velocity S-wave (km/s) = 2.74163 3.74841 3.28383
# Velocity P-wave (km/s) = 4.43972 6.38415 5.49856
#
# Compressibility (1/GPa) = 0.05458692
#
# Stress axis : x y z
#
# Youngs Moduli (GPa) = 15.25474 62.46661 43.12448
#
# Poissons Ratio (x) = 0.45910 0.53565
# Poissons Ratio (y) = 0.11212 0.22905
# Poissons Ratio (z) = 0.18948 0.33178
#
# Static dielectric constant tensor:
#      x y z
#    x 1.698980 0.002120 -0.004980 
#    y 0.002120 1.677020 -0.037210 
#    z -0.004980 -0.037210 1.704670 
# 
# From -- ./inp_files/432952.got.cif
#   From: 2010.05.17/outbox.cif.g08.bks.cpg/sg2_217_cif.got.tgz:432952.got - 2010.06.03 11:33:40.
