data_PCOD9001442
_publ_section_title
;
Structure prediction by ZEFSAII (Michael W. Deem and Ramdas Pophale) SiO2 
 PCOD9001442
Probable space group: P -1
;
_chemical_formula_sum "Si O2"
_cell_formula_units_Z 16
_cell_length_a 13.289087
_cell_length_b 8.996517
_cell_length_c 5.746943
_cell_angle_alpha 72.939273
_cell_angle_beta 101.239887
_cell_angle_gamma 98.236439
_cell_volume 641.524761
_symmetry_space_group_name_H-M "P -1"
_symmetry_group_IT_number 2
_symmetry_cell_setting 'triclinic'
loop_
_space_group_symop_operation_xyz
x,y,z
-x,-y,-z
loop_
_atom_site_type_symbol
_atom_site_label
_atom_site_fract_x
_atom_site_fract_y
_atom_site_fract_z
Si Si1 0.132990 0.904165 0.480379
Si Si2 0.536990 0.785803 0.616794
Si Si3 0.217330 0.432107 0.403303
Si Si4 0.400277 0.524510 0.779184
Si Si5 0.594779 0.026185 0.198979
Si Si6 0.747746 0.835478 0.830270
Si Si7 0.751733 0.292954 0.049499
Si Si8 0.914596 0.818964 0.313439
O O1 0.159422 0.758124 0.715683
O O2 0.035355 0.852543 0.298351
O O3 0.230131 0.990058 0.348355
O O4 0.105490 0.046846 0.568917
O O5 0.467364 0.634617 0.574283
O O6 0.447868 0.878276 0.648204
O O7 0.627069 0.790183 0.851413
O O8 0.602671 0.860802 0.398049
O O9 0.313863 0.431797 0.623179
O O10 0.230330 0.307886 0.261564
O O11 0.115267 0.354650 0.520407
O O12 0.215138 0.603096 0.207339
O O13 0.326237 0.608103 0.886728
O O14 0.500000 0.500000 0.000000
O O15 0.687051 0.123937 0.065341
O O16 0.500000 0.000000 0.000000
O O17 0.832914 0.836273 0.066885
#
# Coordination Sequence:
#
# PCOD9001442 Si02
#       8
#     2   2   2   2   2   2   2   2
#     4  10  23  43  67  96 125 162 213 269 322 374
#     4  10  21  35  57  88 121 158 207 246 302 368
#     4  11  24  41  64  92 128 170 213 257 318 378
#     4  11  24  42  61  92 131 171 211 254 311 383
#     4  10  21  35  55  87 125 159 198 252 307 362
#     4  11  22  41  68  92 125 170 212 262 316 381
#     4  11  23  40  62  96 127 164 211 263 316 374
#     4  10  23  43  67  93 125 166 213 264 323 381
#
# _framework density 24.940583
#
# number of rings (size 3 to 8) (size 9 to 14) (size 15 to 20)
#    0.000    1.500    1.250    3.375    1.750    5.500 
#    0.000    2.500    0.000    0.000    0.000    0.000 
#    0.000    0.000    0.000    0.000    0.000    0.000 
#
# Total GULP energy -89225.062125 kJ/mol
# GULP energy per Si atom -5576.566383 kJ/mol
# Density = 2.488382 g / cm^3
# Si number density = 24.940583 Si / 1000 Ang^3
#
#
#
# Elastic Constant Matrix: (Units=GPa)
#
#
# Indices 1 2 3 4 5 6 
#
# 1 76.3628 28.9379 2.1933 1.6657 13.2804 37.1614
# 2 28.9379 80.9392 30.9683 7.1560 -1.7518 37.5566
# 3 2.1933 30.9683 89.7450 -7.7172 13.5084 22.1295
# 4 1.6657 7.1560 -7.7172 40.2095 9.5354 4.3644
# 5 13.2804 -1.7518 13.5084 9.5354 34.2744 7.1237
# 6 37.1614 37.5566 22.1295 4.3644 7.1237 45.2097
#
#
#
# Elastic Compliance Matrix: (Units=1/GPa)
#
#
# Indices 1 2 3 4 5 6 
#
# 1 0.026419 -0.003020 0.007910 0.005853 -0.010569 -0.021978
# 2 -0.003020 0.023487 -0.006318 -0.005930 0.009602 -0.014877
# 3 0.007910 -0.006318 0.017584 0.007652 -0.010591 -0.008931
# 4 0.005853 -0.005930 0.007652 0.030774 -0.013209 -0.004520
# 5 -0.010569 0.009602 -0.010591 -0.013209 0.041480 0.000634
# 6 -0.021978 -0.014877 -0.008931 -0.004520 0.000634 0.057252
#
#
# Mechanical properties :
#
#
# Convention : Reuss Voigt Hill
#
# Bulk Modulus (GPa) = 15.47167 41.24956 28.36061
# Shear Modulus (GPa) = 22.58411 36.26853 29.42632
#
# Velocity S-wave (km/s) = 3.01244 3.81753 3.43863
# Velocity P-wave (km/s) = 4.27979 6.00054 5.21167
#
# Compressibility (1/GPa) = 0.06463428
#
# Stress axis : x y z
#
# Youngs Moduli (GPa) = 37.85219 42.57659 56.87087
#
# Poissons Ratio (x) = 0.12857 -0.44985
# Poissons Ratio (y) = 0.11431 0.35929
# Poissons Ratio (z) = -0.29941 0.26899
#
# Static dielectric constant tensor:
#      x y z
#    x 1.944700 -0.046880 0.023640 
#    y -0.046880 2.130030 -0.122920 
#    z 0.023640 -0.122920 2.181130 
# 
# From -- ./inp_files/93230.got.cif
#   From: 2010.05.17/outbox.cif.g08.bks.cpg/sg2_47_cif.got.tgz:93230.got - 2010.06.03 11:33:40.
