data_PCOD9001365
_publ_section_title
;
Structure prediction by ZEFSAII (Michael W. Deem and Ramdas Pophale) SiO2 
 PCOD9001365
Probable space group: P -1
;
_chemical_formula_sum "Si O2"
_cell_formula_units_Z 14
_cell_length_a 15.928132
_cell_length_b 6.622057
_cell_length_c 6.916711
_cell_angle_alpha 47.646505
_cell_angle_beta 104.918715
_cell_angle_gamma 88.385287
_cell_volume 499.771658
_symmetry_space_group_name_H-M "P -1"
_symmetry_group_IT_number 2
_symmetry_cell_setting 'triclinic'
loop_
_space_group_symop_operation_xyz
x,y,z
-x,-y,-z
loop_
_atom_site_type_symbol
_atom_site_label
_atom_site_fract_x
_atom_site_fract_y
_atom_site_fract_z
Si Si1 0.621992 0.450233 0.289006
Si Si2 0.576936 0.498811 0.772365
Si Si3 0.282943 0.059047 0.879832
Si Si4 0.894276 0.538052 0.452063
Si Si5 0.303609 0.140808 0.403199
Si Si6 0.123471 0.535478 0.049557
Si Si7 0.963552 0.957475 0.791787
O O1 0.525795 0.506793 0.301988
O O2 0.671302 0.688518 0.211589
O O3 0.681735 0.122579 0.561601
O O4 0.598732 0.466983 0.035458
O O5 0.601036 0.790805 0.550439
O O6 0.646252 0.248692 0.854519
O O7 0.182058 0.173207 0.834637
O O8 0.270678 0.058613 0.640928
O O9 0.000000 0.500000 0.500000
O O10 0.879828 0.503030 0.694461
O O11 0.887296 0.254620 0.519152
O O12 0.227710 0.432354 0.114773
O O13 0.079693 0.303290 0.080475
O O14 0.054579 0.850396 0.783794
O O15 0.000000 0.000000 0.000000
#
# Coordination Sequence:
#
# PCOD9001365 Si02
#       7
#     2   2   2   2   2   2   2
#     4  10  21  40  58  85 120 148 187 240 289 341
#     4  10  22  38  60  87 115 150 191 236 288 346
#     4  10  22  39  58  85 119 149 192 241 282 341
#     4  10  21  35  53  80 112 146 187 228 283 335
#     4  10  21  37  60  85 115 150 192 232 287 345
#     4   9  19  36  54  78 110 145 184 236 275 331
#     4   9  18  35  54  75 107 146 183 227 275 329
#
# _framework density 28.012789999999999
#
# number of rings (size 3 to 8) (size 9 to 14) (size 15 to 20)
#    0.000    2.286    0.000    1.714    2.000    2.286 
#    7.714    0.000    0.000    0.000    0.000    0.000 
#    0.000    0.000    0.000    0.000    0.000    0.000 
#
# Total GULP energy -78367.071719 kJ/mol
# GULP energy per Si atom -5597.647980 kJ/mol
# Density = 2.794903 g / cm^3
# Si number density = 28.012790 Si / 1000 Ang^3
#
#
#
# Elastic Constant Matrix: (Units=GPa)
#
#
# Indices 1 2 3 4 5 6 
#
# 1 150.2671 64.1945 3.3403 -23.3118 15.3429 -3.4661
# 2 64.1945 200.1310 30.5019 -21.9776 12.1964 -15.4879
# 3 3.3403 30.5019 71.0670 -6.1170 20.9748 -11.9153
# 4 -23.3118 -21.9776 -6.1170 52.9203 -3.7557 -10.0540
# 5 15.3429 12.1964 20.9748 -3.7557 35.5205 -3.6815
# 6 -3.4661 -15.4879 -11.9153 -10.0540 -3.6815 51.0270
#
#
#
# Elastic Compliance Matrix: (Units=1/GPa)
#
#
# Indices 1 2 3 4 5 6 
#
# 1 0.008487 -0.002460 0.002091 0.002811 -0.003696 0.000605
# 2 -0.002460 0.006420 -0.002416 0.001649 0.000624 0.001587
# 3 0.002091 -0.002416 0.018910 0.002002 -0.010671 0.003449
# 4 0.002811 0.001649 0.002002 0.022093 -0.000056 0.005508
# 5 -0.003696 0.000624 -0.010671 -0.000056 0.035833 0.000021
# 6 0.000605 0.001587 0.003449 0.005508 0.000021 0.022012
#
#
# Mechanical properties :
#
#
# Convention : Reuss Voigt Hill
#
# Bulk Modulus (GPa) = 35.40174 68.61538 52.00856
# Shear Modulus (GPa) = 38.83796 49.45545 44.14671
#
# Velocity S-wave (km/s) = 3.72753 4.20630 3.97413
# Velocity P-wave (km/s) = 5.58490 6.93816 6.29798
#
# Compressibility (1/GPa) = 0.02824720
#
# Stress axis : x y z
#
# Youngs Moduli (GPa) = 117.83026 155.76392 52.88271
#
# Poissons Ratio (x) = 0.38321 -0.11060
# Poissons Ratio (y) = 0.28988 0.12776
# Poissons Ratio (z) = -0.24642 0.37630
#
# Static dielectric constant tensor:
#      x y z
#    x 2.180190 0.027710 -0.061410 
#    y 0.027710 2.138570 -0.050300 
#    z -0.061410 -0.050300 2.477330 
# 
# From -- ./inp_files/321577.got.cif
#   From: 2010.05.17/outbox.cif.g08.bks.cpg/sg2_161_cif.got.tgz:321577.got - 2010.06.03 11:33:40.
