data_PCOD9001449
_publ_section_title
;
Structure prediction by ZEFSAII (Michael W. Deem and Ramdas Pophale) SiO2 
 PCOD9001449
Probable space group: P -1
;
_chemical_formula_sum "Si O2"
_cell_formula_units_Z 16
_cell_length_a 12.567324
_cell_length_b 24.485425
_cell_length_c 5.280528
_cell_angle_alpha 81.738166
_cell_angle_beta 86.166395
_cell_angle_gamma 22.645109
_cell_volume 609.840673
_symmetry_space_group_name_H-M "P -1"
_symmetry_group_IT_number 2
_symmetry_cell_setting 'triclinic'
loop_
_space_group_symop_operation_xyz
x,y,z
-x,-y,-z
loop_
_atom_site_type_symbol
_atom_site_label
_atom_site_fract_x
_atom_site_fract_y
_atom_site_fract_z
Si Si1 0.575811 0.111152 0.221497
Si Si2 0.723287 0.487313 0.299425
Si Si3 0.543759 0.890825 0.238864
Si Si4 0.940517 0.803153 0.138169
Si Si5 0.439680 0.761167 0.662498
Si Si6 0.287174 0.636165 0.684986
Si Si7 0.219312 0.819005 0.154936
Si Si8 0.787683 0.487942 0.779347
O O1 0.515678 0.096825 0.469032
O O2 0.493263 0.209817 0.283085
O O3 0.435954 0.167651 0.932106
O O4 0.910211 0.952846 0.211415
O O5 0.649695 0.457968 0.338720
O O6 0.450101 0.658551 0.210755
O O7 0.921953 0.414663 0.537660
O O8 0.900855 0.411877 0.070648
O O9 0.786076 0.820089 0.214475
O O10 0.277192 0.050956 0.051605
O O11 0.071714 0.757156 0.418213
O O12 0.160273 0.690730 0.949862
O O13 0.333693 0.805547 0.362586
O O14 0.692386 0.596251 0.750124
O O15 0.219980 0.843593 0.855314
O O16 0.519446 0.573515 0.718556
#
# Coordination Sequence:
#
# PCOD9001449 Si02
#       8
#     2   2   2   2   2   2   2   2
#     4  12  22  38  65  85 120 166 191 241 305 344
#     4  10  21  35  55  91 123 160 195 229 283 371
#     4  11  26  43  60  85 115 154 209 257 296 343
#     4  11  26  43  60  85 115 154 209 257 296 343
#     4  10  21  35  55  91 123 160 195 229 283 371
#     4  12  22  38  65  85 120 166 191 241 305 344
#     4  10  21  35  55  90 133 153 189 234 286 362
#     4  10  21  35  55  90 133 153 189 234 286 362
#
# _framework density 26.236362
#
# number of rings (size 3 to 8) (size 9 to 14) (size 15 to 20)
#    0.000    1.250    0.000    6.000   10.500    2.000 
#    0.000    0.000    0.000    0.000    0.000   70.000 
#    0.000    0.000    0.000    0.000    0.000    0.000 
#
# Total GULP energy -89560.918577 kJ/mol
# GULP energy per Si atom -5597.557411 kJ/mol
# Density = 2.617665 g / cm^3
# Si number density = 26.236362 Si / 1000 Ang^3
#
#
#
# Elastic Constant Matrix: (Units=GPa)
#
#
# Indices 1 2 3 4 5 6 
#
# 1 79.7063 20.1222 8.3320 7.8093 11.1442 20.4115
# 2 20.1222 60.6045 12.6212 2.9725 -1.5128 16.4008
# 3 8.3320 12.6212 174.6672 6.1441 13.3494 -6.2376
# 4 7.8093 2.9725 6.1441 39.0058 0.6532 -1.0144
# 5 11.1442 -1.5128 13.3494 0.6532 47.8805 2.9996
# 6 20.4115 16.4008 -6.2376 -1.0144 2.9996 38.8950
#
#
#
# Elastic Compliance Matrix: (Units=1/GPa)
#
#
# Indices 1 2 3 4 5 6 
#
# 1 0.015919 -0.003273 -0.000417 -0.002997 -0.003221 -0.006871
# 2 -0.003273 0.019981 -0.001693 -0.000826 0.002326 -0.007180
# 3 -0.000417 -0.001693 0.006099 -0.000666 -0.001775 0.002030
# 4 -0.002997 -0.000826 -0.000666 0.026464 0.000341 0.002478
# 5 -0.003221 0.002326 -0.001775 0.000341 0.022279 -0.001284
# 6 -0.006871 -0.007180 0.002030 0.002478 -0.001284 0.032833
#
#
# Mechanical properties :
#
#
# Convention : Reuss Voigt Hill
#
# Bulk Modulus (GPa) = 32.01547 44.12543 38.07045
# Shear Modulus (GPa) = 34.54183 43.41645 38.97914
#
# Velocity S-wave (km/s) = 3.63238 4.07236 3.85865
# Velocity P-wave (km/s) = 5.46091 6.24236 5.86466
#
# Compressibility (1/GPa) = 0.03123490
#
# Stress axis : x y z
#
# Youngs Moduli (GPa) = 62.81676 50.04652 163.96273
#
# Poissons Ratio (x) = 0.16380 0.06832
# Poissons Ratio (y) = 0.20559 0.27756
# Poissons Ratio (z) = 0.02617 0.08472
#
# Static dielectric constant tensor:
#      x y z
#    x 2.029290 -0.017450 0.020770 
#    y -0.017450 2.239710 -0.016070 
#    z 0.020770 -0.016070 2.178370 
# 
# From -- ./inp_files/84361.got.cif
#   From: 2010.05.17/outbox.cif.g08.bks.cpg/sg2_43_cif.got.tgz:84361.got - 2010.06.03 11:33:40.
