data_PCOD9001097
_publ_section_title
;
Structure prediction by ZEFSAII (Michael W. Deem and Ramdas Pophale) SiO2 
 PCOD9001097
Probable space group: P -1
;
_chemical_formula_sum "Si O2"
_cell_formula_units_Z 10
_cell_length_a 12.132340
_cell_length_b 7.788047
_cell_length_c 14.443418
_cell_angle_alpha 39.442015
_cell_angle_beta 134.554683
_cell_angle_gamma 105.996230
_cell_volume 499.668915
_symmetry_space_group_name_H-M "P -1"
_symmetry_group_IT_number 2
_symmetry_cell_setting 'triclinic'
loop_
_space_group_symop_operation_xyz
x,y,z
-x,-y,-z
loop_
_atom_site_type_symbol
_atom_site_label
_atom_site_fract_x
_atom_site_fract_y
_atom_site_fract_z
Si Si1 0.775043 0.803484 0.585451
Si Si2 0.497895 0.549747 0.182116
Si Si3 0.501908 0.817916 0.893578
Si Si4 0.773210 0.634132 0.970102
Si Si5 0.494056 0.374806 0.448012
O O1 0.691222 0.629839 0.661798
O O2 0.677279 0.169371 0.420230
O O3 0.682197 0.879721 0.395659
O O4 0.000899 0.586466 0.807442
O O5 0.314387 0.551282 0.046596
O O6 0.496704 0.579048 0.279682
O O7 0.502340 0.798115 0.012159
O O8 0.686078 0.739608 0.979380
O O9 0.500000 0.500000 0.000000
O O10 0.673084 0.984656 0.711439
O O11 0.500000 0.500000 0.500000
#
# Coordination Sequence:
#
# PCOD9001097 Si02
#       5
#     2   2   2   2   2
#     4   9  17  32  52  72  94 120 154 195 235 276
#     4   9  18  31  50  74  94 121 156 191 234 276
#     4   7  15  29  48  74  96 117 148 191 238 278
#     4   9  17  32  52  72  94 120 154 195 235 276
#     4  10  21  34  46  66  98 130 159 190 228 276
#
# _framework density 20.013254
#
# number of rings (size 3 to 8) (size 9 to 14) (size 15 to 20)
#    0.000    4.000    0.000    2.400    0.000   11.200 
#    0.000    4.000    0.000    2.400    0.000    0.000 
#    0.000    0.000    0.000    0.000    0.000    0.000 
#
# Total GULP energy -55698.467906 kJ/mol
# GULP energy per Si atom -5569.846791 kJ/mol
# Density = 1.996770 g / cm^3
# Si number density = 20.013254 Si / 1000 Ang^3
#
#
#
# Elastic Constant Matrix: (Units=GPa)
#
#
# Indices 1 2 3 4 5 6 
#
# 1 138.2095 27.9506 100.7325 22.6893 -16.3183 -16.6349
# 2 27.9506 56.9936 15.7379 12.0177 -0.9120 -23.2127
# 3 100.7325 15.7379 103.7728 18.3117 28.8327 3.8790
# 4 22.6893 12.0177 18.3117 14.9121 3.0276 -14.6443
# 5 -16.3183 -0.9120 28.8327 3.0276 66.7032 15.1974
# 6 -16.6349 -23.2127 3.8790 -14.6443 15.1974 32.2397
#
#
#
# Elastic Compliance Matrix: (Units=1/GPa)
#
#
# Indices 1 2 3 4 5 6 
#
# 1 0.337630 0.000629 -0.419897 0.144006 0.214390 0.189535
# 2 0.000629 0.028785 -0.008435 0.019181 -0.004133 0.032725
# 3 -0.419897 -0.008435 0.542643 -0.227503 -0.266532 -0.265720
# 4 0.144006 0.019181 -0.227503 0.327555 0.065822 0.233246
# 5 0.214390 -0.004133 -0.266532 0.065822 0.157923 0.095168
# 6 0.189535 0.032725 -0.265720 0.233246 0.095168 0.245433
#
#
# Mechanical properties :
#
#
# Convention : Reuss Voigt Hill
#
# Bulk Modulus (GPa) = 18.63905 65.31313 41.97609
# Shear Modulus (GPa) = 1.98945 33.07465 17.53205
#
# Velocity S-wave (km/s) = 0.99811 4.06967 2.96298
# Velocity P-wave (km/s) = 3.26525 7.40194 5.72061
#
# Compressibility (1/GPa) = 0.05365079
#
# Stress axis : x y z
#
# Youngs Moduli (GPa) = 2.96182 34.74072 1.84283
#
# Poissons Ratio (x) = -0.02184 0.77380
# Poissons Ratio (y) = -0.00186 0.01554
# Poissons Ratio (z) = 1.24366 0.29305
#
# Static dielectric constant tensor:
#      x y z
#    x 1.752880 -0.045780 -0.072740 
#    y -0.045780 1.793070 0.008270 
#    z -0.072740 0.008270 1.686250 
# 
# From -- ./inp_files/50495.got.cif
#   From: 2010.05.17/outbox.cif.g08.bks.cpg/sg2_26_cif.got.tgz:50495.got - 2010.06.03 11:33:40.
