data_PCOD9001265
_publ_section_title
;
Structure prediction by ZEFSAII (Michael W. Deem and Ramdas Pophale) SiO2 
 PCOD9001265
Probable space group: P -1
;
_chemical_formula_sum "Si O2"
_cell_formula_units_Z 16
_cell_length_a 17.591030
_cell_length_b 8.058299
_cell_length_c 17.999716
_cell_angle_alpha 137.086178
_cell_angle_beta 156.677440
_cell_angle_gamma 36.973714
_cell_volume 607.555651
_symmetry_space_group_name_H-M "P -1"
_symmetry_group_IT_number 2
_symmetry_cell_setting 'triclinic'
loop_
_space_group_symop_operation_xyz
x,y,z
-x,-y,-z
loop_
_atom_site_type_symbol
_atom_site_label
_atom_site_fract_x
_atom_site_fract_y
_atom_site_fract_z
Si Si1 0.297503 0.226762 0.718970
Si Si2 0.032931 0.196999 0.341121
Si Si3 0.407773 0.484594 0.330666
Si Si4 0.569391 0.413794 0.849399
Si Si5 0.945429 0.517620 0.216328
Si Si6 0.267526 0.031679 0.023367
Si Si7 0.223056 0.783214 0.556495
Si Si8 0.277567 0.983854 0.280739
O O1 0.172903 0.552340 0.720832
O O2 0.552391 0.075425 0.915356
O O3 0.238706 0.147203 0.559002
O O4 0.189106 0.090349 0.630432
O O5 0.044793 0.327703 0.316591
O O6 0.964479 0.954395 0.195079
O O7 0.500000 0.500000 0.500000
O O8 0.599097 0.363783 0.398761
O O9 0.259980 0.790970 0.266276
O O10 0.282982 0.298168 0.155504
O O11 0.613469 0.238125 0.905157
O O12 0.331832 0.607830 0.670047
O O13 0.689202 0.175573 0.817999
O O14 0.696624 0.592893 0.021305
O O15 0.009943 0.755621 0.341301
O O16 0.077532 0.288083 0.197139
O O17 0.500000 0.000000 0.500000
#
# Coordination Sequence:
#
# PCOD9001265 Si02
#       8
#     2   2   2   2   2   2   2   2
#     4  10  22  40  64  86 119 154 197 253 298 346
#     4  10  23  41  61  90 115 157 201 244 303 345
#     4  10  21  34  59  89 115 157 199 233 289 356
#     4  10  21  38  57  87 117 159 193 237 295 345
#     4  11  22  38  60  84 121 153 197 243 287 353
#     4  10  21  39  63  85 121 156 198 243 290 356
#     4  10  22  37  60  85 116 156 195 242 294 346
#     4  11  20  36  59  83 119 159 193 235 292 351
#
# _framework density 26.335035000000001
#
# number of rings (size 3 to 8) (size 9 to 14) (size 15 to 20)
#    0.000    1.750    2.500    2.250    3.500    3.500 
#    0.000    5.000    0.000    0.000    0.000    0.000 
#    0.000    0.000    0.000    0.000    0.000    0.000 
#
# Total GULP energy -89516.100624 kJ/mol
# GULP energy per Si atom -5594.756289 kJ/mol
# Density = 2.627510 g / cm^3
# Si number density = 26.335035 Si / 1000 Ang^3
#
#
#
# Elastic Constant Matrix: (Units=GPa)
#
#
# Indices 1 2 3 4 5 6 
#
# 1 55.0535 13.8970 21.5763 10.7488 0.8446 9.2396
# 2 13.8970 59.9518 23.7699 21.4140 5.7522 9.8310
# 3 21.5763 23.7699 150.1127 42.6437 33.1745 11.3651
# 4 10.7488 21.4140 42.6437 42.6379 15.2543 6.1395
# 5 0.8446 5.7522 33.1745 15.2543 41.0943 -0.8355
# 6 9.2396 9.8310 11.3651 6.1395 -0.8355 35.2529
#
#
#
# Elastic Compliance Matrix: (Units=1/GPa)
#
#
# Indices 1 2 3 4 5 6 
#
# 1 0.020695 -0.002892 -0.002255 -0.001871 0.002423 -0.003507
# 2 -0.002892 0.021333 -0.000118 -0.009605 0.000664 -0.003464
# 3 -0.002255 -0.000118 0.010551 -0.007682 -0.005635 -0.001573
# 4 -0.001871 -0.009605 -0.007682 0.039115 -0.006962 -0.001331
# 5 0.002423 0.000664 -0.005635 -0.006962 0.031385 0.002953
# 6 -0.003507 -0.003464 -0.001573 -0.001331 0.002953 0.031061
#
#
# Mechanical properties :
#
#
# Convention : Reuss Voigt Hill
#
# Bulk Modulus (GPa) = 23.78201 42.62271 33.20236
# Shear Modulus (GPa) = 27.98205 37.52200 32.75203
#
# Velocity S-wave (km/s) = 3.26320 3.77874 3.53039
# Velocity P-wave (km/s) = 4.82163 5.93788 5.40863
#
# Compressibility (1/GPa) = 0.04204860
#
# Stress axis : x y z
#
# Youngs Moduli (GPa) = 48.32144 46.87661 94.77438
#
# Poissons Ratio (x) = 0.13557 0.21372
# Poissons Ratio (y) = 0.13975 0.01118
# Poissons Ratio (z) = 0.10897 0.00553
#
# Static dielectric constant tensor:
#      x y z
#    x 2.160360 -0.005600 -0.033810 
#    y -0.005600 2.044170 0.049070 
#    z -0.033810 0.049070 2.054950 
# 
# From -- ./inp_files/270792.got.cif
#   From: 2010.05.17/outbox.cif.g08.bks.cpg/sg2_136_cif.got.tgz:270792.got - 2010.06.03 11:33:40.
