data_PCOD9001450
_publ_section_title
;
Structure prediction by ZEFSAII (Michael W. Deem and Ramdas Pophale) SiO2 
 PCOD9001450
Probable space group: P -1
;
_chemical_formula_sum "Si O2"
_cell_formula_units_Z 16
_cell_length_a 7.933357
_cell_length_b 16.472503
_cell_length_c 20.861226
_cell_angle_alpha 162.681866
_cell_angle_beta 51.883062
_cell_angle_gamma 133.136668
_cell_volume 584.238783
_symmetry_space_group_name_H-M "P -1"
_symmetry_group_IT_number 2
_symmetry_cell_setting 'triclinic'
loop_
_space_group_symop_operation_xyz
x,y,z
-x,-y,-z
loop_
_atom_site_type_symbol
_atom_site_label
_atom_site_fract_x
_atom_site_fract_y
_atom_site_fract_z
Si Si1 0.833859 0.443081 0.371213
Si Si2 0.220376 0.396738 0.370601
Si Si3 0.979150 0.759585 0.158350
Si Si4 0.718606 0.583825 0.953390
Si Si5 0.367583 0.236449 0.666498
Si Si6 0.565304 0.134879 0.939506
Si Si7 0.802378 0.222959 0.082827
Si Si8 0.627753 0.163844 0.434715
O O1 0.746649 0.628460 0.580166
O O2 0.117290 0.605409 0.424342
O O3 0.697011 0.118774 0.192465
O O4 0.758961 0.408732 0.289979
O O5 0.410686 0.646388 0.471177
O O6 0.000000 0.500000 0.500000
O O7 0.174353 0.068151 0.110955
O O8 0.788948 0.608614 0.031661
O O9 0.880176 0.917823 0.354575
O O10 0.228642 0.928690 0.193139
O O11 0.000000 0.500000 0.000000
O O12 0.955373 0.619909 0.891156
O O13 0.659766 0.877333 0.183823
O O14 0.538332 0.333235 0.760690
O O15 0.437353 0.081895 0.473837
O O16 0.406115 0.552069 0.861735
O O17 0.621668 0.162181 0.022214
#
# Coordination Sequence:
#
# PCOD9001450 Si02
#       8
#     2   2   2   2   2   2   2   2
#     4  11  21  37  60  90 129 169 195 243 313 367
#     4  10  21  35  55  91 131 160 203 250 294 366
#     4   9  22  44  66  90 122 162 208 259 308 359
#     4  11  21  40  67  96 120 159 210 254 308 368
#     4  11  22  42  69  88 119 167 209 260 309 350
#     4  10  23  38  63  90 126 169 206 248 307 370
#     4  11  21  38  58  89 131 165 205 245 300 375
#     4  11  23  36  62 101 126 153 207 259 303 366
#
# _framework density 27.386061999999999
#
# number of rings (size 3 to 8) (size 9 to 14) (size 15 to 20)
#    0.000    1.500    3.750    2.250    1.750    3.500 
#    0.000    1.250    0.000    8.250    0.000    0.000 
#    0.000    0.000    0.000    0.000    0.000    0.000 
#
# Total GULP energy -89431.032774 kJ/mol
# GULP energy per Si atom -5589.439548 kJ/mol
# Density = 2.732373 g / cm^3
# Si number density = 27.386062 Si / 1000 Ang^3
#
#
#
# Elastic Constant Matrix: (Units=GPa)
#
#
# Indices 1 2 3 4 5 6 
#
# 1 73.5959 20.2871 24.1255 -5.8549 5.3159 -25.7939
# 2 20.2871 102.7379 17.5016 -43.0987 11.0483 -20.0965
# 3 24.1255 17.5016 84.4260 -31.1420 8.1310 -12.8455
# 4 -5.8549 -43.0987 -31.1420 66.0098 -12.9344 -7.8298
# 5 5.3159 11.0483 8.1310 -12.9344 29.3935 0.0453
# 6 -25.7939 -20.0965 -12.8455 -7.8298 0.0453 55.3241
#
#
#
# Elastic Compliance Matrix: (Units=1/GPa)
#
#
# Indices 1 2 3 4 5 6 
#
# 1 0.017709 -0.001768 -0.003883 -0.001012 -0.001920 0.006571
# 2 -0.001768 0.016560 0.003078 0.012801 -0.001135 0.007718
# 3 -0.003883 0.003078 0.016770 0.009986 -0.000707 0.004615
# 4 -0.001012 0.012801 0.009986 0.030599 0.006057 0.010822
# 5 -0.001920 -0.001135 -0.000707 0.006057 0.037657 -0.000645
# 6 0.006571 0.007718 0.004615 0.010822 -0.000645 0.026546
#
#
# Mechanical properties :
#
#
# Convention : Reuss Voigt Hill
#
# Bulk Modulus (GPa) = 21.79010 42.73203 32.26106
# Shear Modulus (GPa) = 30.06883 43.40186 36.73535
#
# Velocity S-wave (km/s) = 3.31714 3.98529 3.66647
# Velocity P-wave (km/s) = 4.75869 6.06747 5.45249
#
# Compressibility (1/GPa) = 0.04589240
#
# Stress axis : x y z
#
# Youngs Moduli (GPa) = 56.46823 60.38630 59.63052
#
# Poissons Ratio (x) = 0.10679 0.23153
# Poissons Ratio (y) = 0.09986 -0.18353
# Poissons Ratio (z) = 0.21925 -0.18586
#
# Static dielectric constant tensor:
#      x y z
#    x 2.227840 0.014900 0.015800 
#    y 0.014900 2.141290 0.035660 
#    z 0.015800 0.035660 2.212430 
# 
# From -- ./inp_files/591258.got.cif
#   From: 2010.05.17/outbox.cif.g08.bks.cpg/sg2_296_cif.got.tgz:591258.got - 2010.06.03 11:33:40.
