data_PCOD9001904
_publ_section_title
;
Structure prediction by ZEFSAII (Michael W. Deem and Ramdas Pophale) SiO2 
 PCOD9001904
Probable space group: P -1
;
_chemical_formula_sum "Si O2"
_cell_formula_units_Z 14
_cell_length_a 5.759431
_cell_length_b 5.413022
_cell_length_c 26.495871
_cell_angle_alpha 57.966058
_cell_angle_beta 126.982708
_cell_angle_gamma 120.804941
_cell_volume 536.170411
_symmetry_space_group_name_H-M "P -1"
_symmetry_group_IT_number 2
_symmetry_cell_setting 'triclinic'
loop_
_space_group_symop_operation_xyz
x,y,z
-x,-y,-z
loop_
_atom_site_type_symbol
_atom_site_label
_atom_site_fract_x
_atom_site_fract_y
_atom_site_fract_z
Si Si1 0.358369 0.693441 0.805733
Si Si2 0.528407 0.924111 0.915989
Si Si3 0.631139 0.374346 0.479812
Si Si4 0.850392 0.167616 0.774942
Si Si5 0.077886 0.912795 0.321303
Si Si6 0.568334 0.461571 0.351794
Si Si7 0.042597 0.451597 0.952583
O O1 0.478929 0.827711 0.861765
O O2 0.147778 0.351421 0.823905
O O3 0.655501 0.822949 0.796471
O O4 0.118814 0.843697 0.730501
O O5 0.205661 0.771734 0.914853
O O6 0.733748 0.762860 0.994628
O O7 0.725154 0.270038 0.907037
O O8 0.500000 0.500000 0.500000
O O9 0.500275 0.485759 0.399353
O O10 0.000000 0.500000 0.500000
O O11 0.500000 0.000000 0.500000
O O12 0.604136 0.355745 0.725940
O O13 0.958291 0.195023 0.728815
O O14 0.918184 0.632935 0.366984
O O15 0.420676 0.108747 0.357259
O O16 0.000000 0.500000 0.000000
#
# Coordination Sequence:
#
# PCOD9001904 Si02
#       7
#     2   2   2   2   2   2   2
#     4  10  21  36  55  87 113 148 195 249 306 368
#     4  10  21  36  54  79 115 143 193 250 289 369
#     4  12  28  49  73 110 146 189 244 298 357 425
#     4  10  21  37  59  85 116 154 199 245 314 380
#     4  10  21  39  60  89 117 160 204 253 320 384
#     4  10  23  39  64  87 126 165 208 263 322 388
#     4  10  21  36  54  78 107 154 193 233 305 361
#
# _framework density 26.111097999999998
#
# number of rings (size 3 to 8) (size 9 to 14) (size 15 to 20)
#    0.000    1.714    0.000    3.429    4.000    2.286 
#    0.000    0.000    0.000    0.000    0.000    0.000 
#    0.000    0.000    0.000    0.000    0.000    0.000 
#
# Total GULP energy -78147.120857 kJ/mol
# GULP energy per Si atom -5581.937204 kJ/mol
# Density = 2.605167 g / cm^3
# Si number density = 26.111098 Si / 1000 Ang^3
#
#
#
# Elastic Constant Matrix: (Units=GPa)
#
#
# Indices 1 2 3 4 5 6 
#
# 1 89.8387 59.7990 12.6231 -11.1599 -14.2814 25.4358
# 2 59.7990 246.9439 38.3189 -12.9759 -13.5146 35.6889
# 3 12.6231 38.3189 68.3907 -7.8704 -3.5847 8.8342
# 4 -11.1599 -12.9759 -7.8704 33.1107 1.9165 -17.1033
# 5 -14.2814 -13.5146 -3.5847 1.9165 61.4807 5.1708
# 6 25.4358 35.6889 8.8342 -17.1033 5.1708 42.5275
#
#
#
# Elastic Compliance Matrix: (Units=1/GPa)
#
#
# Indices 1 2 3 4 5 6 
#
# 1 0.015533 -0.002401 -0.000335 0.000058 0.003701 -0.007632
# 2 -0.002401 0.005426 -0.002255 -0.000862 0.000790 -0.003091
# 3 -0.000335 -0.002255 0.016309 0.002743 0.000311 -0.000229
# 4 0.000058 -0.000862 0.002743 0.039014 -0.002588 0.016124
# 5 0.003701 0.000790 0.000311 -0.002588 0.017916 -0.006161
# 6 -0.007632 -0.003091 -0.000229 0.016124 -0.006161 0.037955
#
#
# Mechanical properties :
#
#
# Convention : Reuss Voigt Hill
#
# Bulk Modulus (GPa) = 36.65036 69.62837 53.13936
# Shear Modulus (GPa) = 33.06249 47.05257 40.05753
#
# Velocity S-wave (km/s) = 3.56226 4.24962 3.92103
# Velocity P-wave (km/s) = 5.56654 7.12763 6.39490
#
# Compressibility (1/GPa) = 0.02728486
#
# Stress axis : x y z
#
# Youngs Moduli (GPa) = 64.38072 184.31375 61.31597
#
# Poissons Ratio (x) = 0.44247 0.02056
# Poissons Ratio (y) = 0.15455 0.13828
# Poissons Ratio (z) = 0.02159 0.41566
#
# Static dielectric constant tensor:
#      x y z
#    x 2.239490 -0.177830 0.452270 
#    y -0.177830 2.344730 -0.549810 
#    z 0.452270 -0.549810 3.132460 
# 
# From -- ./inp_files/11501.got.cif
#   From: 2010.05.17/outbox.cif.g08.bks.cpg/sg2_6_cif.got.tgz:11501.got - 2010.06.03 11:33:40.
