data_PCOD9001349
_publ_section_title
;
Structure prediction by ZEFSAII (Michael W. Deem and Ramdas Pophale) SiO2 
 PCOD9001349
Probable space group: P -1
;
_chemical_formula_sum "Si O2"
_cell_formula_units_Z 14
_cell_length_a 9.703835
_cell_length_b 13.251698
_cell_length_c 6.798452
_cell_angle_alpha 63.657702
_cell_angle_beta 104.961116
_cell_angle_gamma 128.494165
_cell_volume 612.979675
_symmetry_space_group_name_H-M "P -1"
_symmetry_group_IT_number 2
_symmetry_cell_setting 'triclinic'
loop_
_space_group_symop_operation_xyz
x,y,z
-x,-y,-z
loop_
_atom_site_type_symbol
_atom_site_label
_atom_site_fract_x
_atom_site_fract_y
_atom_site_fract_z
Si Si1 0.038930 0.583763 0.189076
Si Si2 0.316676 0.302063 0.944612
Si Si3 0.394059 0.389694 0.311799
Si Si4 0.750957 0.310054 0.202859
Si Si5 0.573740 0.861861 0.051743
Si Si6 0.326792 0.846745 0.298499
Si Si7 0.236613 0.452601 0.529960
O O1 0.147099 0.719177 0.245485
O O2 0.831789 0.456688 0.215724
O O3 0.879465 0.498146 0.630235
O O4 0.094661 0.645476 0.935311
O O5 0.508929 0.450473 0.861988
O O6 0.312015 0.283126 0.193749
O O7 0.588950 0.250007 0.050081
O O8 0.299639 0.185660 0.899825
O O9 0.254907 0.371383 0.430104
O O10 0.562305 0.412016 0.465357
O O11 0.691221 0.194385 0.445005
O O12 0.651268 0.011984 0.859780
O O13 0.488861 0.859319 0.232054
O O14 0.806459 0.652914 0.214907
#
# Coordination Sequence:
#
# PCOD9001349 Si02
#       7
#     2   2   2   2   2   2   2
#     4  10  21  35  54  81 111 140 181 219 269 328
#     4   9  17  30  48  78 102 133 169 226 267 312
#     4   8  16  27  47  77 103 129 173 215 281 298
#     4  10  21  35  51  78 112 145 178 221 267 315
#     4  10  21  35  56  80 110 137 187 219 268 324
#     4  10  21  36  53  80 106 149 179 222 265 316
#     4   9  17  30  49  78 103 133 175 224 265 315
#
# _framework density 22.839255999999999
#
# number of rings (size 3 to 8) (size 9 to 14) (size 15 to 20)
#    0.857    1.714    0.000    2.571    2.000    1.143 
#    0.000    0.000    0.000    0.857    0.000   19.000 
#    0.000    0.000    0.000    0.000    0.000    0.000 
#
# Total GULP energy -77975.573165 kJ/mol
# GULP energy per Si atom -5569.683798 kJ/mol
# Density = 2.278727 g / cm^3
# Si number density = 22.839256 Si / 1000 Ang^3
#
#
#
# Elastic Constant Matrix: (Units=GPa)
#
#
# Indices 1 2 3 4 5 6 
#
# 1 76.7913 31.8182 20.7569 -3.4936 6.2978 -18.3604
# 2 31.8182 49.2708 8.1353 -3.6289 10.6120 -12.1415
# 3 20.7569 8.1353 112.0005 7.5249 0.9016 -9.2154
# 4 -3.4936 -3.6289 7.5249 42.4606 -3.4211 6.7604
# 5 6.2978 10.6120 0.9016 -3.4211 18.1529 -3.2167
# 6 -18.3604 -12.1415 -9.2154 6.7604 -3.2167 35.7068
#
#
#
# Elastic Compliance Matrix: (Units=1/GPa)
#
#
# Indices 1 2 3 4 5 6 
#
# 1 0.019518 -0.010959 -0.002373 0.000244 0.000813 0.005724
# 2 -0.010959 0.031251 0.000183 0.000021 -0.013800 0.003791
# 3 -0.002373 0.000183 0.009643 -0.002156 0.000142 0.001752
# 4 0.000244 0.000021 -0.002156 0.025034 0.003875 -0.004814
# 5 0.000813 -0.013800 0.000142 0.003875 0.063733 0.000770
# 6 0.005724 0.003791 0.001752 -0.004814 0.000770 0.033671
#
#
# Mechanical properties :
#
#
# Convention : Reuss Voigt Hill
#
# Bulk Modulus (GPa) = 29.31450 39.94258 34.62854
# Shear Modulus (GPa) = 22.67376 31.08752 26.88064
#
# Velocity S-wave (km/s) = 3.15422 3.69337 3.43439
# Velocity P-wave (km/s) = 5.11160 5.97616 5.56071
#
# Compressibility (1/GPa) = 0.03411281
#
# Stress axis : x y z
#
# Youngs Moduli (GPa) = 51.23595 31.99887 103.70325
#
# Poissons Ratio (x) = 0.35067 0.24610
# Poissons Ratio (y) = 0.56149 -0.01894
# Poissons Ratio (z) = 0.12159 -0.00584
#
# Static dielectric constant tensor:
#      x y z
#    x 1.994440 -0.024230 -0.080600 
#    y -0.024230 1.843560 0.085010 
#    z -0.080600 0.085010 1.992140 
# 
# From -- ./inp_files/264675.got.cif
#   From: 2010.05.17/outbox.cif.g08.bks.cpg/sg2_133_cif.got.tgz:264675.got - 2010.06.03 11:33:40.
