data_PCOD9001310
_publ_section_title
;
Structure prediction by ZEFSAII (Michael W. Deem and Ramdas Pophale) SiO2 
 PCOD9001310
Probable space group: P -1
;
_chemical_formula_sum "Si O2"
_cell_formula_units_Z 16
_cell_length_a 12.272145
_cell_length_b 16.859916
_cell_length_c 7.138498
_cell_angle_alpha 90.678186
_cell_angle_beta 98.955618
_cell_angle_gamma 29.002556
_cell_volume 683.150960
_symmetry_space_group_name_H-M "P -1"
_symmetry_group_IT_number 2
_symmetry_cell_setting 'triclinic'
loop_
_space_group_symop_operation_xyz
x,y,z
-x,-y,-z
loop_
_atom_site_type_symbol
_atom_site_label
_atom_site_fract_x
_atom_site_fract_y
_atom_site_fract_z
Si Si1 0.807665 0.370032 0.106226
Si Si2 0.562789 0.611175 0.537855
Si Si3 0.039113 0.509479 0.302528
Si Si4 0.792495 0.762796 0.732054
Si Si5 0.063256 0.740030 0.297587
Si Si6 0.687916 0.275893 0.139567
Si Si7 0.930389 0.075782 0.689470
Si Si8 0.664504 0.870068 0.278377
O O1 0.830715 0.267297 0.190929
O O2 0.977868 0.328537 0.229254
O O3 0.878650 0.318050 0.904204
O O4 0.533220 0.567901 0.050202
O O5 0.745282 0.565650 0.625971
O O6 0.723150 0.433097 0.528176
O O7 0.435477 0.668388 0.698106
O O8 0.344231 0.771155 0.350926
O O9 0.118391 0.382460 0.200627
O O10 0.000000 0.500000 0.500000
O O11 0.803968 0.710949 0.202117
O O12 0.675428 0.833393 0.496434
O O13 0.602879 0.929779 0.815926
O O14 0.049288 0.842732 0.304993
O O15 0.828377 0.843513 0.298298
O O16 0.871654 0.091026 0.135752
O O17 0.000000 0.000000 0.500000
#
# Coordination Sequence:
#
# PCOD9001310 Si02
#       8
#     2   2   2   2   2   2   2   2
#     4  10  22  42  58  85 126 164 194 245 318 360
#     4   9  19  37  62  89 120 154 198 252 306 348
#     4   9  19  38  56  94 122 146 201 255 293 361
#     4  10  21  37  67  86 122 166 196 251 312 356
#     4  10  21  39  59  87 130 152 199 256 297 369
#     4   9  21  39  58  83 124 154 206 240 294 375
#     4  10  21  34  62  93 112 159 204 249 301 356
#     4   9  21  38  62  93 120 154 212 254 295 361
#
# _framework density 23.420885999999999
#
# number of rings (size 3 to 8) (size 9 to 14) (size 15 to 20)
#    0.000    2.500    0.000    0.375    7.000    3.000 
#   15.750    5.625    0.000    0.000    0.000    0.000 
#    0.000    0.000    0.000    0.000    0.000    0.000 
#
# Total GULP energy -89359.074906 kJ/mol
# GULP energy per Si atom -5584.942182 kJ/mol
# Density = 2.336758 g / cm^3
# Si number density = 23.420886 Si / 1000 Ang^3
#
#
#
# Elastic Constant Matrix: (Units=GPa)
#
#
# Indices 1 2 3 4 5 6 
#
# 1 124.8960 71.4480 0.2906 -27.4389 -6.2168 15.5246
# 2 71.4480 196.5908 34.2608 -31.5023 9.1530 29.1877
# 3 0.2906 34.2608 45.2876 -7.2253 -7.8609 5.7215
# 4 -27.4389 -31.5023 -7.2253 43.8962 -2.1157 -7.3266
# 5 -6.2168 9.1530 -7.8609 -2.1157 19.3876 2.6018
# 6 15.5246 29.1877 5.7215 -7.3266 2.6018 36.6440
#
#
#
# Elastic Compliance Matrix: (Units=1/GPa)
#
#
# Indices 1 2 3 4 5 6 
#
# 1 0.012935 -0.005142 0.006735 0.005657 0.010196 -0.002029
# 2 -0.005142 0.009447 -0.008029 0.001284 -0.008793 -0.003211
# 3 0.006735 -0.008029 0.032532 0.004417 0.019900 -0.002067
# 4 0.005657 0.001284 0.004417 0.028445 0.005948 0.001156
# 5 0.010196 -0.008793 0.019900 0.005948 0.068266 -0.004081
# 6 -0.002029 -0.003211 -0.002067 0.001156 -0.004081 0.031551
#
#
# Mechanical properties :
#
#
# Convention : Reuss Voigt Hill
#
# Bulk Modulus (GPa) = 23.78546 64.30815 44.04681
# Shear Modulus (GPa) = 23.80264 37.37056 30.58660
#
# Velocity S-wave (km/s) = 3.19140 3.99884 3.61772
# Velocity P-wave (km/s) = 4.87420 6.98843 6.02478
#
# Compressibility (1/GPa) = 0.04204248
#
# Stress axis : x y z
#
# Youngs Moduli (GPa) = 77.31039 105.85773 30.73870
#
# Poissons Ratio (x) = 0.54430 -0.20704
# Poissons Ratio (y) = 0.39751 0.24681
# Poissons Ratio (z) = -0.52072 0.84996
#
# Static dielectric constant tensor:
#      x y z
#    x 1.793870 0.012070 -0.013930 
#    y 0.012070 1.939240 -0.001530 
#    z -0.013930 -0.001530 2.054900 
# 
# From -- ./inp_files/218951.got.cif
#   From: 2010.05.17/outbox.cif.g08.bks.cpg/sg2_110_cif.got.tgz:218951.got - 2010.06.03 11:33:40.
