data_PCOD9001014
_publ_section_title
;
Structure prediction by ZEFSAII (Michael W. Deem and Ramdas Pophale) SiO2 
 PCOD9001014
Probable space group: P -1
;
_chemical_formula_sum "Si O2"
_cell_formula_units_Z 16
_cell_length_a 18.609773
_cell_length_b 6.629726
_cell_length_c 16.096817
_cell_angle_alpha 69.256832
_cell_angle_beta 21.975627
_cell_angle_gamma 70.604979
_cell_volume 694.968564
_symmetry_space_group_name_H-M "P -1"
_symmetry_group_IT_number 2
_symmetry_cell_setting 'triclinic'
loop_
_space_group_symop_operation_xyz
x,y,z
-x,-y,-z
loop_
_atom_site_type_symbol
_atom_site_label
_atom_site_fract_x
_atom_site_fract_y
_atom_site_fract_z
Si Si1 0.659772 0.751477 0.027055
Si Si2 0.841922 0.587792 0.265513
Si Si3 0.787185 0.315319 0.516547
Si Si4 0.089070 0.954346 0.180992
Si Si5 0.401569 0.479758 0.716074
Si Si6 0.980265 0.142404 0.104315
Si Si7 0.593016 0.143729 0.449834
Si Si8 0.026704 0.471301 0.378238
O O1 0.729750 0.962319 0.970925
O O2 0.793950 0.684231 0.816641
O O3 0.435066 0.742932 0.249205
O O4 0.694583 0.568674 0.087405
O O5 0.837778 0.529514 0.376322
O O6 0.617304 0.563071 0.487148
O O7 0.951922 0.375099 0.144404
O O8 0.918650 0.790942 0.100530
O O9 0.917339 0.114769 0.373590
O O10 0.846500 0.366473 0.539310
O O11 0.092307 0.993077 0.072060
O O12 0.057575 0.708529 0.273212
O O13 0.435496 0.263054 0.658440
O O14 0.304902 0.661426 0.737916
O O15 0.761660 0.056122 0.340625
O O16 0.500000 0.000000 0.500000
O O17 0.000000 0.500000 0.500000
#
# Coordination Sequence:
#
# PCOD9001014 Si02
#       8
#     2   2   2   2   2   2   2   2
#     4  10  23  43  69  97 132 178 216 271 339 392
#     4   8  16  34  57  84 123 170 208 249 311 368
#     4   9  21  43  68  97 137 170 213 269 331 396
#     4  10  23  42  67  97 130 171 226 271 326 400
#     4   9  20  36  55  83 127 170 208 260 310 372
#     4   9  18  32  58  86 123 169 213 256 305 372
#     4  10  21  33  53  87 124 171 223 259 302 370
#     4  11  26  46  69  98 131 167 218 285 347 402
#
# _framework density 23.022622999999999
#
# number of rings (size 3 to 8) (size 9 to 14) (size 15 to 20)
#    0.000    2.500    0.000    0.750   10.500    6.500 
#    0.000    3.750    0.000    0.000    0.000    0.000 
#    0.000    0.000    0.000    0.000    0.000    0.000 
#
# Total GULP energy -89371.519204 kJ/mol
# GULP energy per Si atom -5585.719950 kJ/mol
# Density = 2.297022 g / cm^3
# Si number density = 23.022623 Si / 1000 Ang^3
#
#
#
# Elastic Constant Matrix: (Units=GPa)
#
#
# Indices 1 2 3 4 5 6 
#
# 1 114.9415 19.4006 47.5041 4.6916 -12.3501 28.4091
# 2 19.4006 72.7031 18.9141 -7.1532 -13.0454 11.6884
# 3 47.5041 18.9141 80.3410 -9.9721 -21.2657 21.7234
# 4 4.6916 -7.1532 -9.9721 21.4976 16.9050 1.4554
# 5 -12.3501 -13.0454 -21.2657 16.9050 40.1973 -2.1442
# 6 28.4091 11.6884 21.7234 1.4554 -2.1442 29.3889
#
#
#
# Elastic Compliance Matrix: (Units=1/GPa)
#
#
# Indices 1 2 3 4 5 6 
#
# 1 0.014150 -0.001054 -0.005916 -0.008934 0.004199 -0.008138
# 2 -0.001054 0.015798 -0.000663 0.003282 0.002820 -0.004731
# 3 -0.005916 -0.000663 0.021034 0.007049 0.005624 -0.009505
# 4 -0.008934 0.003282 0.007049 0.077168 -0.030613 -0.003935
# 5 0.004199 0.002820 0.005624 -0.030613 0.042681 -0.004707
# 6 -0.008138 -0.004731 -0.009505 -0.003935 -0.004707 0.050651
#
#
# Mechanical properties :
#
#
# Convention : Reuss Voigt Hill
#
# Bulk Modulus (GPa) = 27.99830 48.84701 38.42266
# Shear Modulus (GPa) = 20.10836 30.36122 25.23479
#
# Velocity S-wave (km/s) = 2.95857 3.63541 3.31431
# Velocity P-wave (km/s) = 4.88451 6.23575 5.60103
#
# Compressibility (1/GPa) = 0.03571645
#
# Stress axis : x y z
#
# Youngs Moduli (GPa) = 70.67169 63.30006 47.54161
#
# Poissons Ratio (x) = 0.06673 0.28124
# Poissons Ratio (y) = 0.07450 0.03152
# Poissons Ratio (z) = 0.41806 0.04196
#
# Static dielectric constant tensor:
#      x y z
#    x 1.878480 0.011550 -0.014580 
#    y 0.011550 1.912390 -0.000520 
#    z -0.014580 -0.000520 1.884200 
# 
# From -- ./inp_files/576783.got.cif
#   From: 2010.05.17/outbox.cif.g08.bks.cpg/sg2_289_cif.got.tgz:576783.got - 2010.06.03 11:33:40.
