data_PCOD9001338
_publ_section_title
;
Structure prediction by ZEFSAII (Michael W. Deem and Ramdas Pophale) SiO2 
 PCOD9001338
Probable space group: P -1
;
_chemical_formula_sum "Si O2"
_cell_formula_units_Z 16
_cell_length_a 12.294904
_cell_length_b 15.093210
_cell_length_c 14.900595
_cell_angle_alpha 160.604070
_cell_angle_beta 69.389891
_cell_angle_gamma 114.176412
_cell_volume 832.344443
_symmetry_space_group_name_H-M "P -1"
_symmetry_group_IT_number 2
_symmetry_cell_setting 'triclinic'
loop_
_space_group_symop_operation_xyz
x,y,z
-x,-y,-z
loop_
_atom_site_type_symbol
_atom_site_label
_atom_site_fract_x
_atom_site_fract_y
_atom_site_fract_z
Si Si1 0.533588 0.547354 0.182642
Si Si2 0.548738 0.807676 0.870606
Si Si3 0.450900 0.976510 0.222674
Si Si4 0.119939 0.724875 0.149118
Si Si5 0.672806 0.722897 0.589571
Si Si6 0.309846 0.265243 0.861281
Si Si7 0.165979 0.705557 0.316241
Si Si8 0.892911 0.710102 0.402351
O O1 0.616930 0.670303 0.191771
O O2 0.525894 0.781388 0.479908
O O3 0.582363 0.309634 0.988646
O O4 0.404200 0.395365 0.034772
O O5 0.660028 0.760116 0.735745
O O6 0.441732 0.530178 0.642629
O O7 0.560481 0.950029 0.099964
O O8 0.500000 0.000000 0.000000
O O9 0.353885 0.038781 0.239739
O O10 0.186630 0.799716 0.295561
O O11 0.097429 0.999234 0.373577
O O12 0.165002 0.540795 0.887055
O O13 0.000000 0.500000 0.000000
O O14 0.801260 0.687937 0.489740
O O15 0.254280 0.940250 0.572477
O O16 0.202952 0.419643 0.039054
O O17 0.027627 0.687841 0.362781
#
# Coordination Sequence:
#
# PCOD9001338 Si02
#       8
#     2   2   2   2   2   2   2   2
#     4  11  24  38  56  84 105 151 200 237 283 320
#     4   9  20  38  57  87 121 145 174 231 287 345
#     4  11  21  37  59  84 113 147 186 225 290 340
#     4  10  21  35  49  78 115 150 196 225 255 327
#     4  10  22  36  57  89 125 142 182 226 281 352
#     4  11  24  39  55  77 116 147 198 250 269 310
#     4  11  21  37  54  75 112 156 186 231 280 311
#     4  11  23  34  54  85 112 155 189 219 272 352
#
# _framework density 19.222811
#
# number of rings (size 3 to 8) (size 9 to 14) (size 15 to 20)
#    0.000    1.500    1.250    5.250    8.750    2.000 
#    0.000    0.000    0.000    0.000    0.000    5.250 
#    0.000    0.000    0.000    0.000    0.000    0.000 
#
# Total GULP energy -89298.151756 kJ/mol
# GULP energy per Si atom -5581.134485 kJ/mol
# Density = 1.917906 g / cm^3
# Si number density = 19.222811 Si / 1000 Ang^3
#
#
#
# Elastic Constant Matrix: (Units=GPa)
#
#
# Indices 1 2 3 4 5 6 
#
# 1 68.2425 30.9380 22.1043 -17.0539 0.6522 15.9777
# 2 30.9380 83.0322 36.2006 -24.4391 -0.3644 18.9526
# 3 22.1043 36.2006 117.4508 -21.9062 5.0115 7.7289
# 4 -17.0539 -24.4391 -21.9062 43.1434 -0.5046 -9.2514
# 5 0.6522 -0.3644 5.0115 -0.5046 22.1896 -3.3753
# 6 15.9777 18.9526 7.7289 -9.2514 -3.3753 23.9702
#
#
#
# Elastic Compliance Matrix: (Units=1/GPa)
#
#
# Indices 1 2 3 4 5 6 
#
# 1 0.019634 -0.003894 -0.001293 0.003025 -0.001596 -0.008648
# 2 -0.003894 0.018598 -0.003411 0.005343 -0.000050 -0.008954
# 3 -0.001293 -0.003411 0.010396 0.003042 -0.002132 0.001081
# 4 0.003025 0.005343 0.003042 0.029899 0.000663 0.004411
# 5 -0.001596 -0.000050 -0.002132 0.000663 0.046925 0.008654
# 6 -0.008648 -0.008954 0.001081 0.004411 0.008654 0.057136
#
#
# Mechanical properties :
#
#
# Convention : Reuss Voigt Hill
#
# Bulk Modulus (GPa) = 31.81663 49.69013 40.75338
# Shear Modulus (GPa) = 23.77963 29.82614 26.80289
#
# Velocity S-wave (km/s) = 3.52099 3.94331 3.73812
# Velocity P-wave (km/s) = 5.75476 6.82925 6.31490
#
# Compressibility (1/GPa) = 0.03143011
#
# Stress axis : x y z
#
# Youngs Moduli (GPa) = 50.93149 53.76879 96.18797
#
# Poissons Ratio (x) = 0.20940 0.12441
# Poissons Ratio (y) = 0.19835 0.32814
# Poissons Ratio (z) = 0.06588 0.18343
#
# Static dielectric constant tensor:
#      x y z
#    x 1.701830 0.027560 -0.016610 
#    y 0.027560 1.722640 -0.033200 
#    z -0.016610 -0.033200 1.745690 
# 
# From -- ./inp_files/522038.got.cif
#   From: 2010.05.17/outbox.cif.g08.bks.cpg/sg2_262_cif.got.tgz:522038.got - 2010.06.03 11:33:40.
