data_PCOD9001661
_publ_section_title
;
Structure prediction by ZEFSAII (Michael W. Deem and Ramdas Pophale) SiO2 
 PCOD9001661
Probable space group: P -1
;
_chemical_formula_sum "Si O2"
_cell_formula_units_Z 15
_cell_length_a 12.581672
_cell_length_b 11.144273
_cell_length_c 5.941812
_cell_angle_alpha 88.609133
_cell_angle_beta 122.362379
_cell_angle_gamma 86.140502
_cell_volume 700.326154
_symmetry_space_group_name_H-M "P -1"
_symmetry_group_IT_number 2
_symmetry_cell_setting 'triclinic'
loop_
_space_group_symop_operation_xyz
x,y,z
-x,-y,-z
loop_
_atom_site_type_symbol
_atom_site_label
_atom_site_fract_x
_atom_site_fract_y
_atom_site_fract_z
Si Si1 0.983588 0.597151 0.782110
Si Si2 0.807793 0.057621 0.711936
Si Si3 0.500000 0.500000 0.500000
Si Si4 0.592349 0.641356 0.155372
Si Si5 0.942626 0.918820 0.249503
Si Si6 0.189894 0.192645 0.522434
Si Si7 0.797056 0.454666 0.277533
Si Si8 0.647332 0.295866 0.423265
O O1 0.908647 0.725105 0.749402
O O2 0.889081 0.541454 0.500125
O O3 0.120864 0.605459 0.828976
O O4 0.000000 0.500000 0.000000
O O5 0.697319 0.162784 0.560867
O O6 0.938310 0.110018 0.778048
O O7 0.786393 0.941764 0.539656
O O8 0.835963 0.001351 0.991110
O O9 0.564074 0.565367 0.347084
O O10 0.594759 0.377556 0.566516
O O11 0.683484 0.742643 0.314577
O O12 0.670449 0.544108 0.077073
O O13 0.469250 0.697068 0.884624
O O14 0.881056 0.814117 0.316960
O O15 0.000000 0.000000 0.500000
O O16 0.757296 0.356209 0.411411
#
# Coordination Sequence:
#
# PCOD9001661 Si02
#       8
#     2   2   1   2   2   2   2   2
#     4  10  21  35  60  91 119 154 195 248 310 365
#     4  10  22  39  64  93 120 159 202 246 307 371
#     4  10  22  40  60  86 116 160 214 254 298 350
#     4  10  23  41  61  87 125 165 206 257 304 357
#     4   9  20  40  62  88 122 157 195 246 305 367
#     4  10  22  39  60  91 127 158 196 250 305 366
#     4   9  20  37  57  87 119 155 201 250 303 357
#     4  11  23  40  62  86 120 165 211 257 301 358
#
# _framework density 21.418592
#
# number of rings (size 3 to 8) (size 9 to 14) (size 15 to 20)
#    0.000    2.133    0.000    2.400    0.000   16.533 
#    0.000    1.333    0.000    0.000    0.000    0.000 
#    0.000    0.000    0.000    0.000    0.000    0.000 
#
# Total GULP energy -83564.599454 kJ/mol
# GULP energy per Si atom -5570.973297 kJ/mol
# Density = 2.136984 g / cm^3
# Si number density = 21.418592 Si / 1000 Ang^3
#
#
#
# Elastic Constant Matrix: (Units=GPa)
#
#
# Indices 1 2 3 4 5 6 
#
# 1 106.2724 53.1630 27.3833 -7.1158 7.1121 4.8192
# 2 53.1630 132.8951 42.0133 -20.9601 22.7061 -12.7116
# 3 27.3833 42.0133 61.7478 -23.4188 13.0719 3.1504
# 4 -7.1158 -20.9601 -23.4188 42.6267 -2.6389 13.3080
# 5 7.1121 22.7061 13.0719 -2.6389 24.6097 -3.8408
# 6 4.8192 -12.7116 3.1504 13.3080 -3.8408 40.0722
#
#
#
# Elastic Compliance Matrix: (Units=1/GPa)
#
#
# Indices 1 2 3 4 5 6 
#
# 1 0.012457 -0.004745 -0.002999 -0.001089 0.001908 -0.002223
# 2 -0.004745 0.012707 -0.004809 0.001153 -0.007063 0.003920
# 3 -0.002999 -0.004809 0.029368 0.015653 -0.010122 -0.009642
# 4 -0.001089 0.001153 0.015653 0.036193 -0.007282 -0.013452
# 5 0.001908 -0.007063 -0.010122 -0.007282 0.052091 0.005737
# 6 -0.002223 0.003920 -0.009642 -0.013452 0.005737 0.032241
#
#
# Mechanical properties :
#
#
# Convention : Reuss Voigt Hill
#
# Bulk Modulus (GPa) = 33.98411 60.67050 47.32730
# Shear Modulus (GPa) = 23.81276 33.35211 28.58244
#
# Velocity S-wave (km/s) = 3.33795 3.95036 3.65700
# Velocity P-wave (km/s) = 5.54590 7.01390 6.32265
#
# Compressibility (1/GPa) = 0.02942552
#
# Stress axis : x y z
#
# Youngs Moduli (GPa) = 80.27852 78.69778 34.05028
#
# Poissons Ratio (x) = 0.37345 0.10212
# Poissons Ratio (y) = 0.38096 0.16374
# Poissons Ratio (z) = 0.24075 0.37844
#
# Static dielectric constant tensor:
#      x y z
#    x 1.805410 -0.026920 -0.010230 
#    y -0.026920 1.784480 0.019000 
#    z -0.010230 0.019000 1.898940 
# 
# From -- ./inp_files/65536.got.cif
#   From: 2010.05.17/outbox.cif.g08.bks.cpg/sg2_33_cif.got.tgz:65536.got - 2010.06.03 11:33:40.
