data_PCOD9001873
_publ_section_title
;
Structure prediction by ZEFSAII (Michael W. Deem and Ramdas Pophale) SiO2 
 PCOD9001873
Probable space group: P -1
;
_chemical_formula_sum "Si O2"
_cell_formula_units_Z 16
_cell_length_a 14.323933
_cell_length_b 11.298210
_cell_length_c 14.268823
_cell_angle_alpha 135.246041
_cell_angle_beta 57.215335
_cell_angle_gamma 150.919216
_cell_volume 768.799779
_symmetry_space_group_name_H-M "P -1"
_symmetry_group_IT_number 2
_symmetry_cell_setting 'triclinic'
loop_
_space_group_symop_operation_xyz
x,y,z
-x,-y,-z
loop_
_atom_site_type_symbol
_atom_site_label
_atom_site_fract_x
_atom_site_fract_y
_atom_site_fract_z
Si Si1 0.932194 0.317926 0.284200
Si Si2 0.506249 0.704256 0.862977
Si Si3 0.686556 0.677204 0.060591
Si Si4 0.735037 0.664301 0.680020
Si Si5 0.371299 0.827163 0.568551
Si Si6 0.089200 0.651614 0.908725
Si Si7 0.285194 0.543684 0.224955
Si Si8 0.103991 0.350380 0.842372
O O1 0.842128 0.353897 0.414956
O O2 0.907860 0.324086 0.190300
O O3 0.155658 0.547290 0.311147
O O4 0.818619 0.003123 0.190892
O O5 0.391948 0.494636 0.897941
O O6 0.595337 0.650691 0.734450
O O7 0.333556 0.589635 0.840353
O O8 0.697943 0.043279 0.987418
O O9 0.500000 0.500000 0.000000
O O10 0.789959 0.661814 0.935414
O O11 0.660538 0.406567 0.520664
O O12 0.720487 0.581323 0.749939
O O13 0.956928 0.006497 0.732397
O O14 0.500000 0.000000 0.500000
O O15 0.499349 0.113275 0.724152
O O16 0.038050 0.398595 0.824990
O O17 0.940487 0.598274 0.009262
#
# Coordination Sequence:
#
# PCOD9001873 Si02
#       8
#     2   2   2   2   2   2   2   2
#     4  12  22  35  57  81 114 145 175 223 277 323
#     4  11  19  34  57  80 110 145 173 220 275 324
#     4  12  17  32  55  82 116 138 164 218 281 331
#     4  10  21  36  53  77 109 140 187 223 257 319
#     4  10  22  38  54  78 111 145 182 225 266 323
#     4  10  21  37  54  84 112 137 180 226 267 323
#     4  11  21  34  55  85 110 142 175 218 279 333
#     4  10  21  36  58  80 107 145 183 221 268 318
#
# _framework density 20.81166
#
# number of rings (size 3 to 8) (size 9 to 14) (size 15 to 20)
#    0.000    1.250    3.750    3.750    0.000    3.000 
#    0.000    0.625    0.000    1.500    0.000    0.000 
#    0.000    0.000    0.000    0.000    0.000    0.000 
#
# Total GULP energy -89303.780207 kJ/mol
# GULP energy per Si atom -5581.486263 kJ/mol
# Density = 2.076429 g / cm^3
# Si number density = 20.811660 Si / 1000 Ang^3
#
#
#
# Elastic Constant Matrix: (Units=GPa)
#
#
# Indices 1 2 3 4 5 6 
#
# 1 66.4787 27.0632 18.0669 2.1045 -25.2639 16.5213
# 2 27.0632 64.9647 17.5370 5.9333 -13.0692 7.3712
# 3 18.0669 17.5370 64.6005 4.3534 -23.8446 0.2185
# 4 2.1045 5.9333 4.3534 38.0479 2.7513 -13.3538
# 5 -25.2639 -13.0692 -23.8446 2.7513 23.5831 -3.2498
# 6 16.5213 7.3712 0.2185 -13.3538 -3.2498 44.0458
#
#
#
# Elastic Compliance Matrix: (Units=1/GPa)
#
#
# Indices 1 2 3 4 5 6 
#
# 1 0.033633 -0.005962 0.007512 -0.008647 0.039767 -0.011342
# 2 -0.005962 0.019466 -0.002762 -0.003160 0.001724 -0.001838
# 3 0.007512 -0.002762 0.027343 -0.006262 0.034641 -0.001834
# 4 -0.008647 -0.003160 -0.006262 0.033810 -0.019552 0.012611
# 5 0.039767 0.001724 0.034641 -0.019552 0.121566 -0.012335
# 6 -0.011342 -0.001838 -0.001834 0.012611 -0.012335 0.030188
#
#
# Mechanical properties :
#
#
# Convention : Reuss Voigt Hill
#
# Bulk Modulus (GPa) = 12.81753 35.70868 24.26310
# Shear Modulus (GPa) = 16.98158 30.02713 23.50436
#
# Velocity S-wave (km/s) = 2.85961 3.80255 3.36428
# Velocity P-wave (km/s) = 4.13223 6.03940 5.17444
#
# Compressibility (1/GPa) = 0.07801817
#
# Stress axis : x y z
#
# Youngs Moduli (GPa) = 29.73242 51.37132 36.57245
#
# Poissons Ratio (x) = 0.30628 -0.27472
# Poissons Ratio (y) = 0.17727 0.10100
# Poissons Ratio (z) = -0.22334 0.14187
#
# Static dielectric constant tensor:
#      x y z
#    x 1.788890 0.078780 0.008410 
#    y 0.078780 1.802610 -0.009110 
#    z 0.008410 -0.009110 1.808600 
# 
# From -- ./inp_files/434232.got.cif
#   From: 2010.05.17/outbox.cif.g08.bks.cpg/sg2_218_cif.got.tgz:434232.got - 2010.06.03 11:33:40.
