data_PCOD9001738
_publ_section_title
;
Structure prediction by ZEFSAII (Michael W. Deem and Ramdas Pophale) SiO2 
 PCOD9001738
Probable space group: P -1
;
_chemical_formula_sum "Si O2"
_cell_formula_units_Z 16
_cell_length_a 14.064312
_cell_length_b 12.991626
_cell_length_c 7.987706
_cell_angle_alpha 124.249346
_cell_angle_beta 76.772207
_cell_angle_gamma 138.710603
_cell_volume 743.984108
_symmetry_space_group_name_H-M "P -1"
_symmetry_group_IT_number 2
_symmetry_cell_setting 'triclinic'
loop_
_space_group_symop_operation_xyz
x,y,z
-x,-y,-z
loop_
_atom_site_type_symbol
_atom_site_label
_atom_site_fract_x
_atom_site_fract_y
_atom_site_fract_z
Si Si1 0.830973 0.177952 0.318758
Si Si2 0.339947 0.378364 0.850314
Si Si3 0.060434 0.470074 0.232478
Si Si4 0.765383 0.455046 0.086270
Si Si5 0.147995 0.087888 0.933826
Si Si6 0.717556 0.401214 0.443826
Si Si7 0.519642 0.985848 0.283407
Si Si8 0.447223 0.502389 0.353331
O O1 0.892732 0.339409 0.578316
O O2 0.647295 0.003895 0.239911
O O3 0.891209 0.283386 0.208070
O O4 0.878083 0.083227 0.239001
O O5 0.187454 0.194337 0.842024
O O6 0.383121 0.325354 0.641486
O O7 0.500000 0.500000 0.000000
O O8 0.314933 0.494408 0.899705
O O9 0.102069 0.455012 0.020072
O O10 0.162571 0.502164 0.364424
O O11 0.641152 0.223013 0.905387
O O12 0.790299 0.484952 0.304805
O O13 0.307988 0.274464 0.137847
O O14 0.000000 0.000000 0.000000
O O15 0.593752 0.168815 0.310479
O O16 0.629858 0.440971 0.555730
O O17 0.500000 0.000000 0.500000
O O18 0.500000 0.500000 0.500000
#
# Coordination Sequence:
#
# PCOD9001738 Si02
#       8
#     2   2   2   2   2   2   2   2
#     4  10  21  40  66  91 124 165 214 260 317 385
#     4  10  21  35  62  87 120 167 212 252 316 379
#     4  10  22  42  66  89 126 169 205 262 327 380
#     4  12  21  40  63  92 124 163 213 259 318 377
#     4  11  23  39  68  91 124 169 218 258 320 385
#     4  11  23  38  66  90 129 162 216 260 323 372
#     4  11  22  38  64  92 123 165 207 268 315 370
#     4  11  22  40  59  92 128 167 208 269 314 376
#
# _framework density 21.505835999999999
#
# number of rings (size 3 to 8) (size 9 to 14) (size 15 to 20)
#    0.000    1.250    3.750    4.875    1.750    0.000 
#    0.000    6.250    2.750    0.000    0.000    0.000 
#    0.000    0.000    0.000    0.000    0.000    0.000 
#
# Total GULP energy -89109.810728 kJ/mol
# GULP energy per Si atom -5569.363171 kJ/mol
# Density = 2.145689 g / cm^3
# Si number density = 21.505836 Si / 1000 Ang^3
#
#
#
# Elastic Constant Matrix: (Units=GPa)
#
#
# Indices 1 2 3 4 5 6 
#
# 1 100.3164 38.5123 29.9097 -7.0783 -31.5450 -8.8053
# 2 38.5123 133.9933 36.9940 -29.3767 -12.6902 12.9373
# 3 29.9097 36.9940 56.1849 -21.0083 -21.1628 -2.8956
# 4 -7.0783 -29.3767 -21.0083 38.2705 6.0508 -11.6326
# 5 -31.5450 -12.6902 -21.1628 6.0508 32.4632 -2.1486
# 6 -8.8053 12.9373 -2.8956 -11.6326 -2.1486 47.4075
#
#
#
# Elastic Compliance Matrix: (Units=1/GPa)
#
#
# Indices 1 2 3 4 5 6 
#
# 1 0.016606 -0.003813 -0.001241 -0.001496 0.014403 0.004335
# 2 -0.003813 0.010877 -0.004994 0.004577 -0.003762 -0.003029
# 3 -0.001241 -0.004994 0.033638 0.014013 0.016647 0.007380
# 4 -0.001496 0.004577 0.014013 0.039399 0.002731 0.009120
# 5 0.014403 -0.003762 0.016647 0.002731 0.054192 0.007845
# 6 0.004335 -0.003029 0.007380 0.009120 0.007845 0.025770
#
#
# Mechanical properties :
#
#
# Convention : Reuss Voigt Hill
#
# Bulk Modulus (GPa) = 24.37466 55.70295 40.03881
# Shear Modulus (GPa) = 23.33699 35.96680 29.65190
#
# Velocity S-wave (km/s) = 3.29773 4.09396 3.71723
# Velocity P-wave (km/s) = 5.08514 6.95017 6.08948
#
# Compressibility (1/GPa) = 0.04102621
#
# Stress axis : x y z
#
# Youngs Moduli (GPa) = 60.21859 91.93408 29.72867
#
# Poissons Ratio (x) = 0.35053 0.03688
# Poissons Ratio (y) = 0.22961 0.14847
# Poissons Ratio (z) = 0.07470 0.45912
#
# Static dielectric constant tensor:
#      x y z
#    x 1.885390 0.029170 -0.028650 
#    y 0.029170 1.764000 -0.009690 
#    z -0.028650 -0.009690 1.830770 
# 
# From -- ./inp_files/260096.got.cif
#   From: 2010.05.17/outbox.cif.g08.bks.cpg/sg2_131_cif.got.tgz:260096.got - 2010.06.03 11:33:40.
