data_PCOD9001026
_publ_section_title
;
Structure prediction by ZEFSAII (Michael W. Deem and Ramdas Pophale) SiO2 
 PCOD9001026
Probable space group: P -1
;
_chemical_formula_sum "Si O2"
_cell_formula_units_Z 12
_cell_length_a 5.248786
_cell_length_b 15.396437
_cell_length_c 13.571131
_cell_angle_alpha 43.219783
_cell_angle_beta 90.840736
_cell_angle_gamma 73.247764
_cell_volume 675.610055
_symmetry_space_group_name_H-M "P -1"
_symmetry_group_IT_number 2
_symmetry_cell_setting 'triclinic'
loop_
_space_group_symop_operation_xyz
x,y,z
-x,-y,-z
loop_
_atom_site_type_symbol
_atom_site_label
_atom_site_fract_x
_atom_site_fract_y
_atom_site_fract_z
Si Si1 0.954796 0.518344 0.100243
Si Si2 0.517618 0.516124 0.756834
Si Si3 0.060391 0.263663 0.945155
Si Si4 0.726618 0.697449 0.291496
Si Si5 0.209789 0.957939 0.129263
Si Si6 0.738725 0.327387 0.575455
O O1 0.724825 0.471410 0.179257
O O2 0.854975 0.680311 0.001933
O O3 0.252602 0.442067 0.223979
O O4 0.000000 0.500000 0.000000
O O5 0.384307 0.601302 0.587322
O O6 0.719075 0.351711 0.867758
O O7 0.170766 0.320529 0.804899
O O8 0.001456 0.351130 0.596866
O O9 0.529821 0.864345 0.170595
O O10 0.513438 0.633722 0.377363
O O11 0.837426 0.900865 0.931661
O O12 0.156177 0.842629 0.288408
O O13 0.000000 0.000000 0.000000
#
# Coordination Sequence:
#
# PCOD9001026 Si02
#       6
#     2   2   2   2   2   2
#     4  10  23  41  62  82 110 144 198 252 285 326
#     4  10  23  38  60  86 111 148 196 232 294 331
#     4  10  22  34  60  85 114 152 196 228 277 339
#     4  10  21  33  54  82 123 152 183 213 278 335
#     4  10  21  36  55  84 125 158 187 218 272 343
#     4  10  22  35  55  82 125 154 178 229 276 344
#
# _framework density 17.761724000000001
#
# number of rings (size 3 to 8) (size 9 to 14) (size 15 to 20)
#    2.000    0.000    1.667    2.000    4.667    1.333 
#    0.000    0.000    0.000    2.000    0.000    0.000 
#    0.000    0.000    0.000    0.000    0.000    0.000 
#
# Total GULP energy -66865.566193 kJ/mol
# GULP energy per Si atom -5572.130516 kJ/mol
# Density = 1.772130 g / cm^3
# Si number density = 17.761724 Si / 1000 Ang^3
#
#
#
# Elastic Constant Matrix: (Units=GPa)
#
#
# Indices 1 2 3 4 5 6 
#
# 1 125.8652 20.0310 32.6722 12.0305 -0.2388 -14.0576
# 2 20.0310 90.1593 46.1866 15.1525 0.2853 -6.2317
# 3 32.6722 46.1866 76.3639 6.2263 2.0125 -16.1133
# 4 12.0305 15.1525 6.2263 30.0982 -2.3657 -4.0871
# 5 -0.2388 0.2853 2.0125 -2.3657 35.0076 0.2650
# 6 -14.0576 -6.2317 -16.1133 -4.0871 0.2650 22.0474
#
#
#
# Elastic Compliance Matrix: (Units=1/GPa)
#
#
# Indices 1 2 3 4 5 6 
#
# 1 0.009371 0.000292 -0.003300 -0.002782 0.000040 0.003130
# 2 0.000292 0.017645 -0.011111 -0.007282 0.000037 -0.004297
# 3 -0.003300 -0.011111 0.023645 0.003660 -0.001140 0.012728
# 4 -0.002782 -0.007282 0.003660 0.038233 0.002369 0.005902
# 5 0.000040 0.000037 -0.001140 0.002369 0.028796 -0.000704
# 6 0.003130 -0.004297 0.012728 0.005902 -0.000704 0.056543
#
#
# Mechanical properties :
#
#
# Convention : Reuss Voigt Hill
#
# Bulk Modulus (GPa) = 44.59723 54.46312 49.53018
# Shear Modulus (GPa) = 23.81578 30.33054 27.07316
#
# Velocity S-wave (km/s) = 3.66573 4.13684 3.90839
# Velocity P-wave (km/s) = 6.56353 7.31763 6.95081
#
# Compressibility (1/GPa) = 0.02242292
#
# Stress axis : x y z
#
# Youngs Moduli (GPa) = 106.71701 56.67209 42.29261
#
# Poissons Ratio (x) = -0.01656 0.13956
# Poissons Ratio (y) = -0.03119 0.46993
# Poissons Ratio (z) = 0.35215 0.62970
#
# Static dielectric constant tensor:
#      x y z
#    x 1.651770 0.012360 -0.012930 
#    y 0.012360 1.638220 -0.056670 
#    z -0.012930 -0.056670 1.600160 
# 
# From -- ./inp_files/65820.got.cif
#   From: 2010.05.17/outbox.cif.g08.bks.cpg/sg2_33_cif.got.tgz:65820.got - 2010.06.03 11:33:40.
