data_PCOD9001124
_publ_section_title
;
Structure prediction by ZEFSAII (Michael W. Deem and Ramdas Pophale) SiO2 
 PCOD9001124
Probable space group: P -1
;
_chemical_formula_sum "Si O2"
_cell_formula_units_Z 16
_cell_length_a 11.792561
_cell_length_b 11.478599
_cell_length_c 11.557207
_cell_angle_alpha 67.763403
_cell_angle_beta 137.406354
_cell_angle_gamma 125.416493
_cell_volume 859.566340
_symmetry_space_group_name_H-M "P -1"
_symmetry_group_IT_number 2
_symmetry_cell_setting 'triclinic'
loop_
_space_group_symop_operation_xyz
x,y,z
-x,-y,-z
loop_
_atom_site_type_symbol
_atom_site_label
_atom_site_fract_x
_atom_site_fract_y
_atom_site_fract_z
Si Si1 0.592608 0.133026 0.849429
Si Si2 0.737473 0.493988 0.092304
Si Si3 0.084676 0.603928 0.133584
Si Si4 0.030522 0.157140 0.459122
Si Si5 0.612653 0.445824 0.472644
Si Si6 0.348462 0.820991 0.848458
Si Si7 0.649447 0.730382 0.492283
Si Si8 0.693482 0.594816 0.261188
O O1 0.782056 0.235983 0.878905
O O2 0.434178 0.173836 0.664484
O O3 0.517737 0.961511 0.860935
O O4 0.616759 0.172871 0.988971
O O5 0.705499 0.338898 0.168414
O O6 0.768824 0.590294 0.192807
O O7 0.909363 0.570236 0.101193
O O8 0.529680 0.451369 0.899909
O O9 0.227473 0.560138 0.324424
O O10 0.000000 0.500000 0.000000
O O11 0.129471 0.210264 0.388431
O O12 0.176676 0.256409 0.630774
O O13 0.838151 0.163496 0.318996
O O14 0.000000 0.000000 0.500000
O O15 0.570305 0.576844 0.424411
O O16 0.421017 0.303813 0.416777
O O17 0.690143 0.474764 0.390790
#
# Coordination Sequence:
#
# PCOD9001124 Si02
#       8
#     2   2   2   2   2   2   2   2
#     4  10  21  34  52  87 122 145 193 245 298 343
#     4  11  23  41  63  83 121 160 203 244 296 359
#     4  11  22  34  57  91 118 155 200 252 294 349
#     4  11  21  33  57  89 119 152 194 243 294 350
#     4   9  19  32  55  81 113 150 186 243 294 336
#     4  11  21  34  58  86 116 163 187 245 299 348
#     4   9  17  32  51  81 117 142 183 242 287 344
#     4  10  24  40  60  87 117 159 199 248 294 359
#
# _framework density 18.614038000000001
#
# number of rings (size 3 to 8) (size 9 to 14) (size 15 to 20)
#    0.000    1.750    2.500    3.000    7.000    2.000 
#    0.000    0.000    2.750    3.750    0.000    0.000 
#    0.000    0.000    0.000    0.000    0.000    0.000 
#
# Total GULP energy -89095.703590 kJ/mol
# GULP energy per Si atom -5568.481474 kJ/mol
# Density = 1.857167 g / cm^3
# Si number density = 18.614038 Si / 1000 Ang^3
#
#
#
# Elastic Constant Matrix: (Units=GPa)
#
#
# Indices 1 2 3 4 5 6 
#
# 1 110.3892 48.3551 25.7365 7.3437 -3.9261 31.1142
# 2 48.3551 110.8575 28.6658 -4.7298 -1.4999 26.2749
# 3 25.7365 28.6658 57.0609 -6.9298 -5.5129 6.3804
# 4 7.3437 -4.7298 -6.9298 23.3066 3.3523 1.2266
# 5 -3.9261 -1.4999 -5.5129 3.3523 19.9280 -1.3619
# 6 31.1142 26.2749 6.3804 1.2266 -1.3619 28.8819
#
#
#
# Elastic Compliance Matrix: (Units=1/GPa)
#
#
# Indices 1 2 3 4 5 6 
#
# 1 0.015454 -0.002732 -0.004786 -0.006424 0.001724 -0.012752
# 2 -0.002732 0.013482 -0.004395 0.003004 -0.001830 -0.008565
# 3 -0.004786 -0.004395 0.022632 0.006531 0.004167 0.004073
# 4 -0.006424 0.003004 0.006531 0.048525 -0.007373 0.000336
# 5 0.001724 -0.001830 0.004167 -0.007373 0.052891 0.001694
# 6 -0.012752 -0.008565 0.004073 0.000336 0.001694 0.055319
#
#
# Mechanical properties :
#
#
# Convention : Reuss Voigt Hill
#
# Bulk Modulus (GPa) = 36.04502 53.75807 44.90154
# Shear Modulus (GPa) = 20.71451 26.12665 23.42058
#
# Velocity S-wave (km/s) = 3.33955 3.75053 3.55099
# Velocity P-wave (km/s) = 5.85462 6.90640 6.40215
#
# Compressibility (1/GPa) = 0.02774309
#
# Stress axis : x y z
#
# Youngs Moduli (GPa) = 64.70722 74.17192 44.18529
#
# Poissons Ratio (x) = 0.20262 0.21146
# Poissons Ratio (y) = 0.17677 0.19420
# Poissons Ratio (z) = 0.30967 0.32600
#
# Static dielectric constant tensor:
#      x y z
#    x 2.178450 0.675540 0.769420 
#    y 0.675540 2.480680 0.929640 
#    z 0.769420 0.929640 2.837780 
# 
# From -- ./inp_files/425542.got.cif
#   From: 2010.05.17/outbox.cif.g08.bks.cpg/sg2_213_cif.got.tgz:425542.got - 2010.06.03 11:33:40.
