data_PCOD9001289
_publ_section_title
;
Structure prediction by ZEFSAII (Michael W. Deem and Ramdas Pophale) SiO2 
 PCOD9001289
Probable space group: P -1
;
_chemical_formula_sum "Si O2"
_cell_formula_units_Z 14
_cell_length_a 9.417667
_cell_length_b 5.037868
_cell_length_c 15.039545
_cell_angle_alpha 81.109224
_cell_angle_beta 90.057409
_cell_angle_gamma 77.482241
_cell_volume 687.778658
_symmetry_space_group_name_H-M "P -1"
_symmetry_group_IT_number 2
_symmetry_cell_setting 'triclinic'
loop_
_space_group_symop_operation_xyz
x,y,z
-x,-y,-z
loop_
_atom_site_type_symbol
_atom_site_label
_atom_site_fract_x
_atom_site_fract_y
_atom_site_fract_z
Si Si1 0.750509 0.470324 0.479463
Si Si2 0.900329 0.117380 0.340632
Si Si3 0.646063 0.252386 0.741988
Si Si4 0.375206 0.630432 0.791368
Si Si5 0.480598 0.834833 0.420124
Si Si6 0.479076 0.064552 0.893664
Si Si7 0.908781 0.475923 0.653733
O O1 0.843042 0.230490 0.432079
O O2 0.649231 0.698483 0.406028
O O3 0.627708 0.356883 0.538928
O O4 0.840555 0.573669 0.552035
O O5 0.768040 0.220391 0.267763
O O6 0.028340 0.282364 0.314824
O O7 0.963237 0.792621 0.351531
O O8 0.507119 0.513144 0.728691
O O9 0.603997 0.053848 0.675504
O O10 0.626719 0.115490 0.843710
O O11 0.789668 0.359602 0.715952
O O12 0.364720 0.351025 0.857600
O O13 0.427358 0.827812 0.851727
O O14 0.500000 0.000000 0.500000
O O15 0.500000 0.000000 0.000000
#
# Coordination Sequence:
#
# PCOD9001289 Si02
#       7
#     2   2   2   2   2   2   2
#     4  10  22  36  52  86 114 172 210 253 292 349
#     4  12  24  41  58  88 125 167 204 249 300 364
#     4   9  23  39  62  93 119 166 203 255 305 362
#     4  10  22  39  68  89 122 155 205 248 307 364
#     4  10  21  34  61  85 126 157 213 258 298 344
#     4  10  21  39  71  99 116 147 206 264 304 361
#     4  11  26  37  59  86 128 164 205 251 303 350
#
# _framework density 20.355387
#
# number of rings (size 3 to 8) (size 9 to 14) (size 15 to 20)
#    0.857    0.857    1.429    2.143   10.000    0.000 
#    0.000    0.000    0.000    5.143    0.000    0.000 
#    0.000    0.000    0.000    0.000    0.000    0.000 
#
# Total GULP energy -78098.722735 kJ/mol
# GULP energy per Si atom -5578.480195 kJ/mol
# Density = 2.030906 g / cm^3
# Si number density = 20.355387 Si / 1000 Ang^3
#
#
#
# Elastic Constant Matrix: (Units=GPa)
#
#
# Indices 1 2 3 4 5 6 
#
# 1 81.0585 9.6608 34.7096 1.1695 1.8870 -7.7022
# 2 9.6608 62.1266 0.4755 6.8577 9.6055 7.1653
# 3 34.7096 0.4755 98.0414 -0.9776 -3.8638 5.4000
# 4 1.1695 6.8577 -0.9776 23.8979 10.3274 8.5134
# 5 1.8870 9.6055 -3.8638 10.3274 26.5263 1.1936
# 6 -7.7022 7.1653 5.4000 8.5134 1.1936 24.7019
#
#
#
# Elastic Compliance Matrix: (Units=1/GPa)
#
#
# Indices 1 2 3 4 5 6 
#
# 1 0.016212 -0.003080 -0.006222 -0.003101 -0.000114 0.008383
# 2 -0.003080 0.018204 0.001105 -0.000356 -0.005800 -0.006080
# 3 -0.006222 0.001105 0.012792 0.001974 0.001398 -0.005805
# 4 -0.003101 -0.000356 0.001974 0.058677 -0.021286 -0.020490
# 5 -0.000114 -0.005800 0.001398 -0.021286 0.048011 0.006357
# 6 0.008383 -0.006080 -0.005805 -0.020490 0.006357 0.052884
#
#
# Mechanical properties :
#
#
# Convention : Reuss Voigt Hill
#
# Bulk Modulus (GPa) = 32.45345 36.76871 34.61108
# Shear Modulus (GPa) = 21.41834 28.11726 24.76780
#
# Velocity S-wave (km/s) = 3.24731 3.72064 3.49201
# Velocity P-wave (km/s) = 5.48070 6.04650 5.77054
#
# Compressibility (1/GPa) = 0.03081336
#
# Stress axis : x y z
#
# Youngs Moduli (GPa) = 61.68261 54.93343 78.17615
#
# Poissons Ratio (x) = 0.16921 0.48639
# Poissons Ratio (y) = 0.19000 -0.08638
# Poissons Ratio (z) = 0.38377 -0.06070
#
# Static dielectric constant tensor:
#      x y z
#    x 1.755120 -0.016200 -0.020880 
#    y -0.016200 1.834590 -0.028140 
#    z -0.020880 -0.028140 1.739610 
# 
# From -- ./inp_files/38510.got.cif
#   From: 2010.05.17/outbox.cif.g08.bks.cpg/sg2_20_cif.got.tgz:38510.got - 2010.06.03 11:33:40.
