data_PCOD9001305
_publ_section_title
;
Structure prediction by ZEFSAII (Michael W. Deem and Ramdas Pophale) SiO2 
 PCOD9001305
Probable space group: P -1
;
_chemical_formula_sum "Si O2"
_cell_formula_units_Z 16
_cell_length_a 7.768862
_cell_length_b 14.984667
_cell_length_c 15.450678
_cell_angle_alpha 45.854206
_cell_angle_beta 135.969704
_cell_angle_gamma 135.050805
_cell_volume 816.169417
_symmetry_space_group_name_H-M "P -1"
_symmetry_group_IT_number 2
_symmetry_cell_setting 'triclinic'
loop_
_space_group_symop_operation_xyz
x,y,z
-x,-y,-z
loop_
_atom_site_type_symbol
_atom_site_label
_atom_site_fract_x
_atom_site_fract_y
_atom_site_fract_z
Si Si1 0.610150 0.088536 0.064921
Si Si2 0.080385 0.606178 0.084117
Si Si3 0.795547 0.851104 0.696871
Si Si4 0.325921 0.435072 0.196260
Si Si5 0.767292 0.079457 0.807401
Si Si6 0.198910 0.346001 0.875440
Si Si7 0.582628 0.825160 0.822378
Si Si8 0.716655 0.000687 0.422859
O O1 0.885893 0.085845 0.205942
O O2 0.383242 0.024152 0.099142
O O3 0.693834 0.244318 0.962000
O O4 0.500000 0.000000 0.000000
O O5 0.215873 0.500569 0.188493
O O6 0.953571 0.614969 0.126186
O O7 0.854163 0.574607 0.948647
O O8 0.723940 0.719816 0.698677
O O9 0.638748 0.794027 0.767485
O O10 0.698163 0.956471 0.545400
O O11 0.629505 0.532100 0.209265
O O12 0.534413 0.104539 0.653121
O O13 0.991074 0.216692 0.833329
O O14 0.824104 0.974579 0.834491
O O15 0.403970 0.289314 0.033323
O O16 0.320151 0.860024 0.703218
O O17 0.000000 0.000000 0.500000
#
# Coordination Sequence:
#
# PCOD9001305 Si02
#       8
#     2   2   2   2   2   2   2   2
#     4  11  18  34  58  89 121 146 185 251 305 346
#     4  10  21  35  58  87 120 156 191 236 302 355
#     4  11  20  40  56  86 121 155 203 237 285 357
#     4  10  23  36  58  85 123 161 194 240 288 357
#     4  10  22  35  59  89 119 151 192 243 307 354
#     4  12  20  40  58  94 123 149 193 247 307 353
#     4  10  21  34  62  86 118 147 191 250 301 348
#     4  10  22  38  58  85 116 159 196 240 292 354
#
# _framework density 19.603774000000001
#
# number of rings (size 3 to 8) (size 9 to 14) (size 15 to 20)
#    0.750    0.750    5.000    1.875    0.000    2.000 
#    0.000    0.625    0.000    0.750    0.000    0.000 
#    0.000    0.000    0.000    0.000    0.000    0.000 
#
# Total GULP energy -89170.368577 kJ/mol
# GULP energy per Si atom -5573.148036 kJ/mol
# Density = 1.955915 g / cm^3
# Si number density = 19.603774 Si / 1000 Ang^3
#
#
#
# Elastic Constant Matrix: (Units=GPa)
#
#
# Indices 1 2 3 4 5 6 
#
# 1 65.8424 34.0699 14.9202 -9.4587 13.1483 -15.6019
# 2 34.0699 95.3096 11.9864 5.8090 5.2094 -6.5921
# 3 14.9202 11.9864 76.9388 -2.2539 10.5295 -5.7975
# 4 -9.4587 5.8090 -2.2539 9.0053 0.3905 -0.6365
# 5 13.1483 5.2094 10.5295 0.3905 18.4876 1.0889
# 6 -15.6019 -6.5921 -5.7975 -0.6365 1.0889 33.2889
#
#
#
# Elastic Compliance Matrix: (Units=1/GPa)
#
#
# Indices 1 2 3 4 5 6 
#
# 1 0.040485 -0.015237 0.001261 0.055140 -0.027450 0.018129
# 2 -0.015237 0.017136 -0.002012 -0.028257 0.008040 -0.004902
# 3 0.001261 -0.002012 0.014750 0.006933 -0.009065 0.003190
# 4 0.055140 -0.028257 0.006933 0.192567 -0.040829 0.026473
# 5 -0.027450 0.008040 -0.009065 -0.040829 0.078327 -0.016195
# 6 0.018129 -0.004902 0.003190 0.026473 -0.016195 0.039158
#
#
# Mechanical properties :
#
#
# Convention : Reuss Voigt Hill
#
# Bulk Modulus (GPa) = 24.75585 40.00488 32.38036
# Shear Modulus (GPa) = 11.68594 23.96397 17.82496
#
# Velocity S-wave (km/s) = 2.44418 3.50010 3.01867
# Velocity P-wave (km/s) = 4.54102 6.06509 5.35753
#
# Compressibility (1/GPa) = 0.04039450
#
# Stress axis : x y z
#
# Youngs Moduli (GPa) = 24.70039 58.35783 67.79462
#
# Poissons Ratio (x) = 0.88920 -0.08548
# Poissons Ratio (y) = 0.37636 0.13641
# Poissons Ratio (z) = -0.03114 0.11743
#
# Static dielectric constant tensor:
#      x y z
#    x 1.778660 -0.013050 -0.007230 
#    y -0.013050 1.724070 0.000300 
#    z -0.007230 0.000300 1.700480 
# 
# From -- ./inp_files/504041.got.cif
#   From: 2010.05.17/outbox.cif.g08.bks.cpg/sg2_253_cif.got.tgz:504041.got - 2010.06.03 11:33:40.
