data_PCOD9001178
_publ_section_title
;
Structure prediction by ZEFSAII (Michael W. Deem and Ramdas Pophale) SiO2 
 PCOD9001178
Probable space group: P -1
;
_chemical_formula_sum "Si O2"
_cell_formula_units_Z 16
_cell_length_a 13.263950
_cell_length_b 26.291823
_cell_length_c 27.310469
_cell_angle_alpha 169.460105
_cell_angle_beta 29.914389
_cell_angle_gamma 148.957420
_cell_volume 867.693779
_symmetry_space_group_name_H-M "P -1"
_symmetry_group_IT_number 2
_symmetry_cell_setting 'triclinic'
loop_
_space_group_symop_operation_xyz
x,y,z
-x,-y,-z
loop_
_atom_site_type_symbol
_atom_site_label
_atom_site_fract_x
_atom_site_fract_y
_atom_site_fract_z
Si Si1 0.350519 0.394330 0.258096
Si Si2 0.780674 0.444289 0.372657
Si Si3 0.949803 0.863644 0.316893
Si Si4 0.666462 0.988062 0.187364
Si Si5 0.065858 0.154781 0.235195
Si Si6 0.751283 0.191092 0.947829
Si Si7 0.751286 0.286914 0.863196
Si Si8 0.315906 0.428743 0.575554
O O1 0.384165 0.719573 0.539802
O O2 0.188088 0.334394 0.312391
O O3 0.561661 0.274979 0.073853
O O4 0.275624 0.224520 0.080963
O O5 0.933304 0.653001 0.535294
O O6 0.555007 0.514816 0.552118
O O7 0.784561 0.488974 0.355198
O O8 0.820015 0.126577 0.068291
O O9 0.058724 0.846039 0.202542
O O10 0.119400 0.800455 0.226496
O O11 0.859053 0.151805 0.643477
O O12 0.776294 0.618453 0.163209
O O13 0.848543 0.060895 0.216452
O O14 0.472449 0.843244 0.158411
O O15 0.699520 0.900165 0.720954
O O16 0.776399 0.423268 0.198799
#
# Coordination Sequence:
#
# PCOD9001178 Si02
#       8
#     2   2   2   2   2   2   2   2
#     4  12  22  36  53  85 119 152 191 214 262 341
#     4  11  22  39  57  83 111 148 188 239 273 326
#     4  10  21  34  56  79 113 143 184 230 278 325
#     4  12  24  37  56  80 117 160 190 219 266 328
#     4  12  23  39  56  81 116 156 191 223 269 326
#     4  12  21  36  59  86 113 152 177 226 291 339
#     4  10  21  36  52  81 110 149 186 229 266 324
#     4  11  22  37  59  83 114 143 187 233 289 330
#
# _framework density 18.439685000000001
#
# number of rings (size 3 to 8) (size 9 to 14) (size 15 to 20)
#    0.000    0.750    3.750    5.250    3.500    2.000 
#    0.000    0.000    0.000    0.000    0.000   17.500 
#    0.000    0.000    0.000    0.000    0.000    0.000 
#
# Total GULP energy -89485.724375 kJ/mol
# GULP energy per Si atom -5592.857773 kJ/mol
# Density = 1.839772 g / cm^3
# Si number density = 18.439685 Si / 1000 Ang^3
#
#
#
# Elastic Constant Matrix: (Units=GPa)
#
#
# Indices 1 2 3 4 5 6 
#
# 1 1845.9390 548.3969 1653.3910 -676.0274 1601.2410 4.9618
# 2 548.3969 226.8745 474.2277 -187.1356 461.2318 8.0655
# 3 1653.3910 474.2277 1579.1442 -620.1509 1483.0675 1.2134
# 4 -676.0274 -187.1356 -620.1509 277.1089 -605.5603 6.6953
# 5 1601.2410 461.2318 1483.0675 -605.5603 1449.9726 7.1027
# 6 4.9618 8.0655 1.2134 6.6953 7.1027 14.6899
#
#
#
# Elastic Compliance Matrix: (Units=1/GPa)
#
#
# Indices 1 2 3 4 5 6 
#
# 1 0.019503 -0.009961 -0.004305 0.007603 -0.010796 0.000992
# 2 -0.009961 0.018015 0.001200 -0.004908 0.002018 -0.005365
# 3 -0.004305 0.001200 0.017934 -0.004652 -0.015959 0.009150
# 4 0.007603 -0.004908 -0.004652 0.059663 0.023026 -0.037815
# 5 -0.010796 0.002018 -0.015959 0.023026 0.038033 -0.025027
# 6 0.000992 -0.005365 0.009150 -0.037815 -0.025027 0.099265
#
#
# Mechanical properties :
#
#
# Convention : Reuss Voigt Hill
#
# Bulk Modulus (GPa) = 34.10251 1000.44322 517.27286
# Shear Modulus (GPa) = 17.34195 413.41708 215.37951
#
# Velocity S-wave (km/s) = 3.07003 14.98954 10.81923
# Velocity P-wave (km/s) = 5.57683 29.03978 20.90944
#
# Compressibility (1/GPa) = 0.02932336
#
# Stress axis : x y z
#
# Youngs Moduli (GPa) = 51.27377 55.50853 55.75871
#
# Poissons Ratio (x) = 0.55290 0.24002
# Poissons Ratio (y) = 0.51072 -0.06694
# Poissons Ratio (z) = 0.22071 -0.06664
#
# Static dielectric constant tensor:
#      x y z
#    x 1.625070 0.002340 0.005780 
#    y 0.002340 1.625200 -0.005700 
#    z 0.005780 -0.005700 1.633490 
# 
# From -- ./inp_files/367587.got.cif
#   From: 2010.05.17/outbox.cif.g08.bks.cpg/sg2_184_cif.got.tgz:367587.got - 2010.06.03 11:33:40.
