data_PCOD9001609
_publ_section_title
;
Structure prediction by ZEFSAII (Michael W. Deem and Ramdas Pophale) SiO2 
 PCOD9001609
Probable space group: P -1
;
_chemical_formula_sum "Si O2"
_cell_formula_units_Z 16
_cell_length_a 14.465834
_cell_length_b 11.460217
_cell_length_c 14.462843
_cell_angle_alpha 28.354341
_cell_angle_beta 42.454237
_cell_angle_gamma 50.404300
_cell_volume 768.098061
_symmetry_space_group_name_H-M "P -1"
_symmetry_group_IT_number 2
_symmetry_cell_setting 'triclinic'
loop_
_space_group_symop_operation_xyz
x,y,z
-x,-y,-z
loop_
_atom_site_type_symbol
_atom_site_label
_atom_site_fract_x
_atom_site_fract_y
_atom_site_fract_z
Si Si1 0.642126 0.937681 0.058710
Si Si2 0.108431 0.685380 0.419251
Si Si3 0.448695 0.250772 0.262960
Si Si4 0.700475 0.633915 0.403018
Si Si5 0.323667 0.780899 0.726985
Si Si6 0.847878 0.084924 0.077906
Si Si7 0.557239 0.684503 0.107272
Si Si8 0.156271 0.422859 0.381630
O O1 0.658145 0.726288 0.269323
O O2 0.615539 0.827674 0.053497
O O3 0.783760 0.099822 0.838257
O O4 0.514732 0.118174 0.044374
O O5 0.171010 0.548325 0.556949
O O6 0.110383 0.482035 0.478097
O O7 0.949573 0.747698 0.482255
O O8 0.568078 0.211438 0.274349
O O9 0.305749 0.330689 0.353607
O O10 0.391665 0.975182 0.466592
O O11 0.500000 0.500000 0.000000
O O12 0.573135 0.486047 0.645710
O O13 0.743993 0.877610 0.257772
O O14 0.185795 0.856319 0.830588
O O15 0.330875 0.500045 0.883953
O O16 0.828197 0.331023 0.862157
O O17 0.000000 0.000000 0.000000
#
# Coordination Sequence:
#
# PCOD9001609 Si02
#       8
#     2   2   2   2   2   2   2   2
#     4  10  21  40  63  89 121 165 212 257 305 360
#     4  10  21  35  59  90 118 156 206 256 300 370
#     4  11  22  38  57  89 128 163 191 243 320 373
#     4  11  20  36  61  91 122 157 206 254 308 371
#     4  11  24  38  58  91 131 157 205 255 305 373
#     4  12  23  38  62  94 125 163 201 253 313 374
#     4  10  23  39  60  91 122 164 210 258 306 361
#     4  11  21  37  58  89 125 159 199 247 315 370
#
# _framework density 20.830673999999998
#
# number of rings (size 3 to 8) (size 9 to 14) (size 15 to 20)
#    0.000    1.250    3.750    4.125    1.750    0.000 
#    0.000    0.000    0.000    3.750    0.000    0.000 
#    0.000    0.000    0.000    0.000    0.000    0.000 
#
# Total GULP energy -89121.813829 kJ/mol
# GULP energy per Si atom -5570.113364 kJ/mol
# Density = 2.078326 g / cm^3
# Si number density = 20.830674 Si / 1000 Ang^3
#
#
#
# Elastic Constant Matrix: (Units=GPa)
#
#
# Indices 1 2 3 4 5 6 
#
# 1 71.7215 8.3800 18.5138 11.0236 -1.3974 -12.8866
# 2 8.3800 72.8257 3.9707 4.7337 -12.0550 -7.6969
# 3 18.5138 3.9707 72.9035 5.2016 14.6029 -6.5332
# 4 11.0236 4.7337 5.2016 15.7304 -5.5989 -3.8586
# 5 -1.3974 -12.0550 14.6029 -5.5989 43.1065 -5.1459
# 6 -12.8866 -7.6969 -6.5332 -3.8586 -5.1459 21.1563
#
#
#
# Elastic Compliance Matrix: (Units=1/GPa)
#
#
# Indices 1 2 3 4 5 6 
#
# 1 0.017727 -0.000129 -0.003441 -0.008587 0.001605 0.008513
# 2 -0.000129 0.015424 -0.001278 -0.000647 0.005415 0.006337
# 3 -0.003441 -0.001278 0.016346 -0.004991 -0.006660 -0.000043
# 4 -0.008587 -0.000647 -0.004991 0.078490 0.012666 0.010390
# 5 0.001605 0.005415 -0.006660 0.012666 0.029917 0.010478
# 6 0.008513 0.006337 -0.000043 0.010390 0.010478 0.059188
#
#
# Mechanical properties :
#
#
# Convention : Reuss Voigt Hill
#
# Bulk Modulus (GPa) = 25.12407 31.01997 28.07202
# Shear Modulus (GPa) = 20.82862 28.43771 24.63317
#
# Velocity S-wave (km/s) = 3.16555 3.69885 3.44254
# Velocity P-wave (km/s) = 5.04462 5.75897 5.41360
#
# Compressibility (1/GPa) = 0.03980247
#
# Stress axis : x y z
#
# Youngs Moduli (GPa) = 56.41257 64.83378 61.17580
#
# Poissons Ratio (x) = 0.00834 0.21049
# Poissons Ratio (y) = 0.00726 0.07818
# Poissons Ratio (z) = 0.19410 0.08285
#
# Static dielectric constant tensor:
#      x y z
#    x 1.790130 -0.082820 0.024140 
#    y -0.082820 1.869750 -0.010330 
#    z 0.024140 -0.010330 1.837980 
# 
# From -- ./inp_files/531479.got.cif
#   From: 2010.05.17/outbox.cif.g08.bks.cpg/sg2_266_cif.got.tgz:531479.got - 2010.06.03 11:33:40.
