data_PCOD9001624
_publ_section_title
;
Structure prediction by ZEFSAII (Michael W. Deem and Ramdas Pophale) SiO2 
 PCOD9001624
Probable space group: P -1
;
_chemical_formula_sum "Si O2"
_cell_formula_units_Z 16
_cell_length_a 9.197494
_cell_length_b 10.898085
_cell_length_c 12.420531
_cell_angle_alpha 87.866013
_cell_angle_beta 48.527209
_cell_angle_gamma 58.086635
_cell_volume 689.400033
_symmetry_space_group_name_H-M "P -1"
_symmetry_group_IT_number 2
_symmetry_cell_setting 'triclinic'
loop_
_space_group_symop_operation_xyz
x,y,z
-x,-y,-z
loop_
_atom_site_type_symbol
_atom_site_label
_atom_site_fract_x
_atom_site_fract_y
_atom_site_fract_z
Si Si1 0.135396 0.556869 0.986500
Si Si2 0.964342 0.156532 0.893532
Si Si3 0.397648 0.444068 0.638294
Si Si4 0.611971 0.572983 0.739950
Si Si5 0.535665 0.923663 0.601489
Si Si6 0.896890 0.538092 0.400727
Si Si7 0.371844 0.698109 0.156639
Si Si8 0.696506 0.106845 0.622335
O O1 0.300247 0.533340 0.800019
O O2 0.318657 0.460280 0.005667
O O3 0.951607 0.741800 0.113673
O O4 0.000000 0.500000 0.000000
O O5 0.841345 0.190558 0.834065
O O6 0.690238 0.259740 0.091996
O O7 0.255382 0.975431 0.764564
O O8 0.500000 0.500000 0.500000
O O9 0.156857 0.483505 0.692124
O O10 0.594597 0.247790 0.577953
O O11 0.726002 0.526704 0.565700
O O12 0.690465 0.406628 0.755637
O O13 0.803127 0.588501 0.706099
O O14 0.761136 0.726980 0.483069
O O15 0.500000 0.000000 0.500000
O O16 0.628287 0.996240 0.630592
O O17 0.411223 0.795104 0.215140
O O18 0.000000 0.000000 0.500000
#
# Coordination Sequence:
#
# PCOD9001624 Si02
#       8
#     2   2   2   2   2   2   2   2
#     4  10  21  35  59  94 126 165 215 268 316 381
#     4  11  22  39  64  93 131 168 214 264 325 387
#     4  11  23  39  65  95 130 165 221 274 328 377
#     4  10  22  40  63  96 126 168 216 265 323 381
#     4  12  24  40  64  96 126 170 213 259 327 391
#     4  11  23  40  66  93 128 170 214 267 323 392
#     4  10  21  35  62  89 124 163 213 261 311 377
#     4  11  22  39  62  92 131 170 215 262 323 391
#
# _framework density 23.208587999999999
#
# number of rings (size 3 to 8) (size 9 to 14) (size 15 to 20)
#    0.000    1.250    1.250    7.500    3.500    1.500 
#    0.000    0.000    0.000    0.750    0.000    0.000 
#    0.000    0.000    0.000    0.000    0.000    0.000 
#
# Total GULP energy -89081.660293 kJ/mol
# GULP energy per Si atom -5567.603768 kJ/mol
# Density = 2.315576 g / cm^3
# Si number density = 23.208588 Si / 1000 Ang^3
#
#
#
# Elastic Constant Matrix: (Units=GPa)
#
#
# Indices 1 2 3 4 5 6 
#
# 1 157.9195 14.0266 28.3136 -7.0604 -0.1334 -9.2940
# 2 14.0266 46.2331 10.1715 -13.1179 -0.4911 3.4186
# 3 28.3136 10.1715 80.4309 -0.3547 -16.4519 -5.2947
# 4 -7.0604 -13.1179 -0.3547 29.0631 -6.9024 -3.0065
# 5 -0.1334 -0.4911 -16.4519 -6.9024 52.8350 6.5454
# 6 -9.2940 3.4186 -5.2947 -3.0065 6.5454 32.2857
#
#
#
# Elastic Compliance Matrix: (Units=1/GPa)
#
#
# Indices 1 2 3 4 5 6 
#
# 1 0.007049 -0.001500 -0.002323 0.001021 -0.000843 0.002073
# 2 -0.001500 0.026126 -0.002656 0.011400 0.001251 -0.002826
# 3 -0.002323 -0.002656 0.014536 -0.000452 0.004303 0.001082
# 4 0.001021 0.011400 -0.000452 0.041201 0.005126 0.001810
# 5 -0.000843 0.001251 0.004303 0.005126 0.021383 -0.003527
# 6 0.002073 -0.002826 0.001082 0.001810 -0.003527 0.032930
#
#
# Mechanical properties :
#
#
# Convention : Reuss Voigt Hill
#
# Bulk Modulus (GPa) = 28.77434 43.28964 36.03199
# Shear Modulus (GPa) = 29.80327 38.30820 34.05573
#
# Velocity S-wave (km/s) = 3.58739 4.06717 3.83479
# Velocity P-wave (km/s) = 5.43914 6.38348 5.93013
#
# Compressibility (1/GPa) = 0.03475319
#
# Stress axis : x y z
#
# Youngs Moduli (GPa) = 141.86306 38.27647 68.79460
#
# Poissons Ratio (x) = 0.05741 0.15982
# Poissons Ratio (y) = 0.21279 0.18270
# Poissons Ratio (z) = 0.32958 0.10165
#
# Static dielectric constant tensor:
#      x y z
#    x 1.923050 0.055560 -0.070100 
#    y 0.055560 2.145180 0.172860 
#    z -0.070100 0.172860 2.245390 
# 
# From -- ./inp_files/392553.got.cif
#   From: 2010.05.17/outbox.cif.g08.bks.cpg/sg2_197_cif.got.tgz:392553.got - 2010.06.03 11:33:40.
