data_PCOD9001311
_publ_section_title
;
Structure prediction by ZEFSAII (Michael W. Deem and Ramdas Pophale) SiO2 
 PCOD9001311
Probable space group: P -1
;
_chemical_formula_sum "Si O2"
_cell_formula_units_Z 16
_cell_length_a 18.683691
_cell_length_b 9.325786
_cell_length_c 8.796562
_cell_angle_alpha 91.686350
_cell_angle_beta 84.112737
_cell_angle_gamma 148.459672
_cell_volume 792.563287
_symmetry_space_group_name_H-M "P -1"
_symmetry_group_IT_number 2
_symmetry_cell_setting 'triclinic'
loop_
_space_group_symop_operation_xyz
x,y,z
-x,-y,-z
loop_
_atom_site_type_symbol
_atom_site_label
_atom_site_fract_x
_atom_site_fract_y
_atom_site_fract_z
Si Si1 0.159314 0.645448 0.848120
Si Si2 0.419991 0.776112 0.140938
Si Si3 0.400422 0.247719 0.671459
Si Si4 0.133331 0.739491 0.181193
Si Si5 0.661026 0.248176 0.342887
Si Si6 0.456712 0.643581 0.642112
Si Si7 0.383252 0.385683 0.117383
Si Si8 0.713745 0.217911 0.669919
O O1 0.211847 0.577225 0.788509
O O2 0.018106 0.450066 0.791290
O O3 0.283070 0.957112 0.769520
O O4 0.143737 0.652916 0.029146
O O5 0.378413 0.546830 0.086055
O O6 0.288195 0.642228 0.223662
O O7 0.526026 0.957249 0.270402
O O8 0.500000 0.000000 0.000000
O O9 0.359749 0.345481 0.691870
O O10 0.439130 0.248741 0.501100
O O11 0.548499 0.495009 0.728349
O O12 0.170109 0.700536 0.314750
O O13 0.244140 0.056154 0.141263
O O14 0.628537 0.359863 0.379533
O O15 0.693912 0.235177 0.500271
O O16 0.570771 0.894589 0.743644
O O17 0.500000 0.500000 0.000000
#
# Coordination Sequence:
#
# PCOD9001311 Si02
#       8
#     2   2   2   2   2   2   2   2
#     4  11  23  42  60  86 124 167 197 246 310 366
#     4  11  22  34  61  92 123 151 198 257 306 350
#     4  11  20  37  61  92 119 154 201 256 299 351
#     4  11  25  40  60  89 126 160 203 248 301 369
#     4  11  21  38  60  89 124 159 199 251 304 358
#     4  10  21  34  62  94 120 150 202 258 299 348
#     4  12  20  36  60  90 116 150 204 253 294 349
#     4  11  20  38  57  90 118 159 202 249 300 356
#
# _framework density 20.187663000000001
#
# number of rings (size 3 to 8) (size 9 to 14) (size 15 to 20)
#    0.000    1.000    5.000    3.750    1.750    0.500 
#    0.000    1.250    0.000    6.000    0.000    0.000 
#    0.000    0.000    0.000    0.000    0.000    0.000 
#
# Total GULP energy -89173.655938 kJ/mol
# GULP energy per Si atom -5573.353496 kJ/mol
# Density = 2.014172 g / cm^3
# Si number density = 20.187663 Si / 1000 Ang^3
#
#
#
# Elastic Constant Matrix: (Units=GPa)
#
#
# Indices 1 2 3 4 5 6 
#
# 1 135.0672 43.1899 11.5736 9.2860 -0.5393 -14.2228
# 2 43.1899 46.0116 -0.4153 10.0736 5.7125 1.2932
# 3 11.5736 -0.4153 38.0950 7.0194 3.5829 -1.4389
# 4 9.2860 10.0736 7.0194 16.6426 -0.1012 -1.8771
# 5 -0.5393 5.7125 3.5829 -0.1012 37.2311 3.7491
# 6 -14.2228 1.2932 -1.4389 -1.8771 3.7491 40.8550
#
#
#
# Elastic Compliance Matrix: (Units=1/GPa)
#
#
# Indices 1 2 3 4 5 6 
#
# 1 0.011981 -0.012352 -0.004383 0.003145 0.002060 0.004363
# 2 -0.012352 0.038940 0.008424 -0.020902 -0.006457 -0.005604
# 3 -0.004383 0.008424 0.030958 -0.015854 -0.004274 -0.001038
# 4 0.003145 -0.020902 -0.015854 0.078191 0.004550 0.004373
# 5 0.002060 -0.006457 -0.004274 0.004550 0.028468 -0.001632
# 6 0.004363 -0.005604 -0.001038 0.004373 -0.001632 0.026487
#
#
# Mechanical properties :
#
#
# Convention : Reuss Voigt Hill
#
# Bulk Modulus (GPa) = 15.32427 36.43003 25.87715
# Shear Modulus (GPa) = 19.73178 29.93410 24.83294
#
# Velocity S-wave (km/s) = 3.12976 3.85488 3.51109
# Velocity P-wave (km/s) = 4.54620 6.15616 5.41139
#
# Compressibility (1/GPa) = 0.06525598
#
# Stress axis : x y z
#
# Youngs Moduli (GPa) = 83.46854 25.68061 32.30231
#
# Poissons Ratio (x) = 0.31722 0.14158
# Poissons Ratio (y) = 1.03103 -0.27212
# Poissons Ratio (z) = 0.36584 -0.21634
#
# Static dielectric constant tensor:
#      x y z
#    x 1.837120 -0.080650 0.000510 
#    y -0.080650 1.742660 0.032970 
#    z 0.000510 0.032970 1.849590 
# 
# From -- ./inp_files/283109.got.cif
#   From: 2010.05.17/outbox.cif.g08.bks.cpg/sg2_142_cif.got.tgz:283109.got - 2010.06.03 11:33:40.
