data_PCOD9001258
_publ_section_title
;
Structure prediction by ZEFSAII (Michael W. Deem and Ramdas Pophale) SiO2 
 PCOD9001258
Probable space group: P -1
;
_chemical_formula_sum "Si O2"
_cell_formula_units_Z 16
_cell_length_a 17.275466
_cell_length_b 23.613893
_cell_length_c 10.261465
_cell_angle_alpha 148.984674
_cell_angle_beta 31.081796
_cell_angle_gamma 157.687413
_cell_volume 774.461258
_symmetry_space_group_name_H-M "P -1"
_symmetry_group_IT_number 2
_symmetry_cell_setting 'triclinic'
loop_
_space_group_symop_operation_xyz
x,y,z
-x,-y,-z
loop_
_atom_site_type_symbol
_atom_site_label
_atom_site_fract_x
_atom_site_fract_y
_atom_site_fract_z
Si Si1 0.097516 0.324108 0.451788
Si Si2 0.294435 0.819000 0.903949
Si Si3 0.012199 0.849298 0.473083
Si Si4 0.180460 0.067666 0.262390
Si Si5 0.713050 0.047266 0.320245
Si Si6 0.606715 0.664102 0.109317
Si Si7 0.415533 0.693391 0.671337
Si Si8 0.567652 0.839076 0.359428
O O1 0.244773 0.508536 0.587915
O O2 0.101964 0.278105 0.498743
O O3 0.856299 0.206962 0.515080
O O4 0.179110 0.269568 0.131838
O O5 0.290120 0.725862 0.842304
O O6 0.363581 0.799621 0.630747
O O7 0.100457 0.802708 0.154862
O O8 0.500000 0.000000 0.000000
O O9 0.867107 0.861832 0.635166
O O10 0.219105 0.016930 0.576355
O O11 0.421132 0.194854 0.227268
O O12 0.000000 0.000000 0.500000
O O13 0.173965 0.947955 0.959367
O O14 0.500000 0.000000 0.500000
O O15 0.639216 0.910220 0.253524
O O16 0.581380 0.734326 0.403250
O O17 0.509593 0.682450 0.165325
O O18 0.500000 0.500000 0.000000
#
# Coordination Sequence:
#
# PCOD9001258 Si02
#       8
#     2   2   2   2   2   2   2   2
#     4  10  21  40  61  86 125 163 206 244 310 374
#     4   9  18  35  60  86 117 162 204 244 300 366
#     4  10  21  34  59  87 119 162 198 252 303 360
#     4  12  24  38  62  98 124 153 210 259 301 357
#     4  11  25  39  62  93 124 164 205 259 307 358
#     4   9  17  35  62  87 114 159 201 250 302 368
#     4  10  22  37  64  91 122 162 201 253 307 366
#     4   9  18  36  59  83 118 161 210 242 298 379
#
# _framework density 20.659524000000001
#
# number of rings (size 3 to 8) (size 9 to 14) (size 15 to 20)
#    0.000    2.000    0.000    4.500    7.000    3.000 
#    0.000    0.000    0.000    2.250    0.000    0.000 
#    0.000    0.000    0.000    0.000    0.000    0.000 
#
# Total GULP energy -89110.180927 kJ/mol
# GULP energy per Si atom -5569.386308 kJ/mol
# Density = 2.061250 g / cm^3
# Si number density = 20.659524 Si / 1000 Ang^3
#
#
#
# Elastic Constant Matrix: (Units=GPa)
#
#
# Indices 1 2 3 4 5 6 
#
# 1 49.7861 25.2605 11.1569 4.3733 6.6183 -8.8597
# 2 25.2605 71.1423 12.2908 1.3401 6.6198 -26.1610
# 3 11.1569 12.2908 59.5941 -2.1767 -5.2203 -1.8779
# 4 4.3733 1.3401 -2.1767 23.8957 -5.8003 -2.1074
# 5 6.6183 6.6198 -5.2203 -5.8003 23.3536 -1.2065
# 6 -8.8597 -26.1610 -1.8779 -2.1074 -1.2065 33.6030
#
#
#
# Elastic Compliance Matrix: (Units=1/GPa)
#
#
# Indices 1 2 3 4 5 6 
#
# 1 0.026702 -0.007882 -0.004322 -0.006781 -0.007986 -0.000050
# 2 -0.007882 0.023735 -0.003288 0.000172 -0.004356 0.016071
# 3 -0.004322 -0.003288 0.019004 0.004309 0.007367 -0.002103
# 4 -0.006781 0.000172 0.004309 0.047217 0.014671 0.002074
# 5 -0.007986 -0.004356 0.007367 0.014671 0.051489 -0.002317
# 6 -0.000050 0.016071 -0.002103 0.002074 -0.002317 0.042187
#
#
# Mechanical properties :
#
#
# Convention : Reuss Voigt Hill
#
# Bulk Modulus (GPa) = 26.00380 30.88211 28.44296
# Shear Modulus (GPa) = 19.67441 24.95807 22.31624
#
# Velocity S-wave (km/s) = 3.08931 3.47949 3.29019
# Velocity P-wave (km/s) = 5.03381 5.57881 5.31330
#
# Compressibility (1/GPa) = 0.03845592
#
# Stress axis : x y z
#
# Youngs Moduli (GPa) = 37.45022 42.13209 52.62038
#
# Poissons Ratio (x) = 0.33208 0.22744
# Poissons Ratio (y) = 0.29517 0.17304
# Poissons Ratio (z) = 0.16187 0.13855
#
# Static dielectric constant tensor:
#      x y z
#    x 1.786590 -0.030440 0.040380 
#    y -0.030440 1.769140 -0.061850 
#    z 0.040380 -0.061850 1.891480 
# 
# From -- ./inp_files/319518.got.cif
#   From: 2010.05.17/outbox.cif.g08.bks.cpg/sg2_160_cif.got.tgz:319518.got - 2010.06.03 11:33:40.
