data_PCOD9001470
_publ_section_title
;
Structure prediction by ZEFSAII (Michael W. Deem and Ramdas Pophale) SiO2 
 PCOD9001470
Probable space group: P -1
;
_chemical_formula_sum "Si O2"
_cell_formula_units_Z 16
_cell_length_a 19.671361
_cell_length_b 12.704905
_cell_length_c 19.776181
_cell_angle_alpha 153.224431
_cell_angle_beta 160.029058
_cell_angle_gamma 27.218560
_cell_volume 718.903304
_symmetry_space_group_name_H-M "P -1"
_symmetry_group_IT_number 2
_symmetry_cell_setting 'triclinic'
loop_
_space_group_symop_operation_xyz
x,y,z
-x,-y,-z
loop_
_atom_site_type_symbol
_atom_site_label
_atom_site_fract_x
_atom_site_fract_y
_atom_site_fract_z
Si Si1 0.266669 0.854802 0.241032
Si Si2 0.201269 0.280604 0.532386
Si Si3 0.304351 0.370766 0.180791
Si Si4 0.810189 0.932093 0.852339
Si Si5 0.564522 0.453677 0.955586
Si Si6 0.599836 0.558701 0.474141
Si Si7 0.075456 0.751615 0.304468
Si Si8 0.685890 0.910910 0.323486
O O1 0.200214 0.058646 0.354996
O O2 0.279525 0.999212 0.267456
O O3 0.474199 0.629858 0.326204
O O4 0.056121 0.780344 0.992003
O O5 0.353603 0.403862 0.705434
O O6 0.000000 0.500000 0.500000
O O7 0.293897 0.137000 0.605512
O O8 0.418475 0.526169 0.333290
O O9 0.194741 0.547312 0.241745
O O10 0.483028 0.138068 0.244917
O O11 0.155814 0.267296 0.934583
O O12 0.684286 0.788231 0.693228
O O13 0.758061 0.202037 0.989918
O O14 0.500000 0.500000 0.000000
O O15 0.639967 0.664821 0.113989
O O16 0.806997 0.334200 0.562842
O O17 0.117666 0.006604 0.470918
#
# Coordination Sequence:
#
# PCOD9001470 Si02
#       8
#     2   2   2   2   2   2   2   2
#     4  11  22  39  62  89 123 162 203 249 298 364
#     4  11  22  37  60  93 126 163 195 244 311 363
#     4  10  21  35  56  84 116 160 201 253 301 352
#     4  11  24  39  60  92 124 160 204 247 303 362
#     4  10  22  37  57  87 126 159 193 245 304 363
#     4  11  20  37  58  86 119 157 201 249 300 353
#     4  10  21  35  57  83 118 158 204 253 299 355
#     4  10  21  37  55  86 125 155 194 243 306 363
#
# _framework density 22.256122999999999
#
# number of rings (size 3 to 8) (size 9 to 14) (size 15 to 20)
#    0.000    1.500    1.250    5.625    5.250    1.000 
#    0.000    0.000    0.000    3.000    0.000   12.250 
#    0.000    0.000    0.000    0.000    0.000    0.000 
#
# Total GULP energy -89121.164107 kJ/mol
# GULP energy per Si atom -5570.072757 kJ/mol
# Density = 2.220547 g / cm^3
# Si number density = 22.256123 Si / 1000 Ang^3
#
#
#
# Elastic Constant Matrix: (Units=GPa)
#
#
# Indices 1 2 3 4 5 6 
#
# 1 51.2518 31.7961 21.1326 -3.5922 2.3031 18.7168
# 2 31.7961 85.0669 51.3486 15.6682 13.1221 30.8302
# 3 21.1326 51.3486 131.9205 0.9477 25.9276 25.9987
# 4 -3.5922 15.6682 0.9477 38.4054 17.0400 5.3910
# 5 2.3031 13.1221 25.9276 17.0400 31.1092 -1.0705
# 6 18.7168 30.8302 25.9987 5.3910 -1.0705 27.5542
#
#
#
# Elastic Compliance Matrix: (Units=1/GPa)
#
#
# Indices 1 2 3 4 5 6 
#
# 1 0.031063 -0.007973 0.003559 0.012926 -0.009617 -0.018439
# 2 -0.007973 0.025765 -0.004594 -0.007287 -0.003069 -0.017772
# 3 0.003559 -0.004594 0.015082 0.011794 -0.017855 -0.014510
# 4 0.012926 -0.007287 0.011794 0.048716 -0.035176 -0.022652
# 5 -0.009617 -0.003069 -0.017855 -0.035176 0.069553 0.036398
# 6 -0.018439 -0.017772 -0.014510 -0.022652 0.036398 0.088239
#
#
# Mechanical properties :
#
#
# Convention : Reuss Voigt Hill
#
# Bulk Modulus (GPa) = 18.55490 52.97708 35.76599
# Shear Modulus (GPa) = 15.90346 30.34456 23.12401
#
# Velocity S-wave (km/s) = 2.67604 3.69646 3.22684
# Velocity P-wave (km/s) = 4.23123 6.48641 5.47617
#
# Compressibility (1/GPa) = 0.05389412
#
# Stress axis : x y z
#
# Youngs Moduli (GPa) = 32.19310 38.81265 66.30286
#
# Poissons Ratio (x) = 0.30945 -0.23595
# Poissons Ratio (y) = 0.25667 0.30456
# Poissons Ratio (z) = -0.11457 0.17829
#
# Static dielectric constant tensor:
#      x y z
#    x 1.838080 -0.013820 -0.021510 
#    y -0.013820 1.844200 -0.010210 
#    z -0.021510 -0.010210 2.004740 
# 
# From -- ./inp_files/601458.got.cif
#   From: 2010.05.17/outbox.cif.g08.bks.cpg/sg2_301_cif.got.tgz:601458.got - 2010.06.03 11:33:40.
