data_PCOD9001850
_publ_section_title
;
Structure prediction by ZEFSAII (Michael W. Deem and Ramdas Pophale) SiO2 
 PCOD9001850
Probable space group: P -1
;
_chemical_formula_sum "Si O2"
_cell_formula_units_Z 16
_cell_length_a 17.200298
_cell_length_b 8.853912
_cell_length_c 9.033736
_cell_angle_alpha 46.089243
_cell_angle_beta 124.736560
_cell_angle_gamma 137.173598
_cell_volume 668.467478
_symmetry_space_group_name_H-M "P -1"
_symmetry_group_IT_number 2
_symmetry_cell_setting 'triclinic'
loop_
_space_group_symop_operation_xyz
x,y,z
-x,-y,-z
loop_
_atom_site_type_symbol
_atom_site_label
_atom_site_fract_x
_atom_site_fract_y
_atom_site_fract_z
Si Si1 0.863813 0.349997 0.354661
Si Si2 0.890218 0.569545 0.936893
Si Si3 0.357457 0.557734 0.145913
Si Si4 0.423036 0.633435 0.497194
Si Si5 0.455095 0.288807 0.963508
Si Si6 0.749835 0.236973 0.758325
Si Si7 0.004031 0.119422 0.763766
Si Si8 0.675747 0.973890 0.565000
O O1 0.917993 0.204263 0.578846
O O2 0.728940 0.129604 0.366473
O O3 0.881415 0.592253 0.298347
O O4 0.922643 0.463776 0.182403
O O5 0.764482 0.489911 0.916128
O O6 0.860436 0.408892 0.864166
O O7 0.970974 0.876196 0.793069
O O8 0.425539 0.645307 0.315001
O O9 0.442004 0.718102 0.992281
O O10 0.328140 0.279411 0.271863
O O11 0.415199 0.392021 0.718733
O O12 0.310820 0.617145 0.435040
O O13 0.545197 0.879161 0.517983
O O14 0.500000 0.500000 0.000000
O O15 0.348254 0.018526 0.087355
O O16 0.759555 0.142440 0.675316
O O17 0.000000 0.000000 0.000000
#
# Coordination Sequence:
#
# PCOD9001850 Si02
#       8
#     2   2   2   2   2   2   2   2
#     4  10  21  35  68  86 108 148 190 234 291 342
#     4  10  22  36  60  87 114 145 194 237 277 346
#     4  10  21  36  55  82 117 155 194 240 269 331
#     4  10  23  37  54  78 122 158 197 238 267 330
#     4  11  21  34  52  75 114 159 193 231 280 316
#     4  11  24  36  54  84 121 161 188 230 286 331
#     4   9  19  41  62  91 112 137 185 243 294 341
#     4  11  20  37  55  85 117 152 196 234 280 333
#
# _framework density 23.935345000000002
#
# number of rings (size 3 to 8) (size 9 to 14) (size 15 to 20)
#    0.000    1.750    3.750    1.875    5.250    1.000 
#    0.000    0.625    0.000    6.750    0.000    0.000 
#    0.000    0.000    0.000    0.000    0.000    0.000 
#
# Total GULP energy -89271.698167 kJ/mol
# GULP energy per Si atom -5579.481135 kJ/mol
# Density = 2.388087 g / cm^3
# Si number density = 23.935345 Si / 1000 Ang^3
#
#
#
# Elastic Constant Matrix: (Units=GPa)
#
#
# Indices 1 2 3 4 5 6 
#
# 1 47.2699 -4.8937 20.6776 1.3953 -7.2598 -12.4361
# 2 -4.8937 120.0794 31.8613 6.8589 -8.1308 -26.3352
# 3 20.6776 31.8613 92.9705 -15.6534 13.5736 -1.2143
# 4 1.3953 6.8589 -15.6534 38.1066 0.2857 -8.1791
# 5 -7.2598 -8.1308 13.5736 0.2857 24.8867 1.8056
# 6 -12.4361 -26.3352 -1.2143 -8.1791 1.8056 33.1786
#
#
#
# Elastic Compliance Matrix: (Units=1/GPa)
#
#
# Indices 1 2 3 4 5 6 
#
# 1 0.039861 0.013094 -0.017691 -0.006595 0.024052 0.021752
# 2 0.013094 0.016527 -0.011272 -0.004834 0.014287 0.015644
# 3 -0.017691 -0.011272 0.023110 0.009931 -0.020752 -0.011154
# 4 -0.006595 -0.004834 0.009931 0.032034 -0.009466 0.002467
# 5 0.024052 0.014287 -0.020752 -0.009466 0.062287 0.013873
# 6 0.021752 0.015644 -0.011154 0.002467 0.013873 0.050156
#
#
# Mechanical properties :
#
#
# Convention : Reuss Voigt Hill
#
# Bulk Modulus (GPa) = 20.93755 39.51227 30.22491
# Shear Modulus (GPa) = 18.40739 33.41268 25.91003
#
# Velocity S-wave (km/s) = 2.77618 3.74030 3.29371
# Velocity P-wave (km/s) = 4.36380 5.93270 5.20767
#
# Compressibility (1/GPa) = 0.04776107
#
# Stress axis : x y z
#
# Youngs Moduli (GPa) = 25.08740 60.50788 43.27171
#
# Poissons Ratio (x) = -0.79231 0.76551
# Poissons Ratio (y) = -0.32850 0.48774
# Poissons Ratio (z) = 0.44382 0.68202
#
# Static dielectric constant tensor:
#      x y z
#    x 1.939840 0.029260 0.024110 
#    y 0.029260 1.988310 0.060450 
#    z 0.024110 0.060450 1.940360 
# 
# From -- ./inp_files/206566.got.cif
#   From: 2010.05.17/outbox.cif.g08.bks.cpg/sg2_104_cif.got.tgz:206566.got - 2010.06.03 11:33:40.
