data_PCOD9001501
_publ_section_title
;
Structure prediction by ZEFSAII (Michael W. Deem and Ramdas Pophale) SiO2 
 PCOD9001501
Probable space group: P -1
;
_chemical_formula_sum "Si O2"
_cell_formula_units_Z 14
_cell_length_a 22.594441
_cell_length_b 17.277599
_cell_length_c 5.289627
_cell_angle_alpha 126.937013
_cell_angle_beta 64.083046
_cell_angle_gamma 155.640359
_cell_volume 641.490899
_symmetry_space_group_name_H-M "P -1"
_symmetry_group_IT_number 2
_symmetry_cell_setting 'triclinic'
loop_
_space_group_symop_operation_xyz
x,y,z
-x,-y,-z
loop_
_atom_site_type_symbol
_atom_site_label
_atom_site_fract_x
_atom_site_fract_y
_atom_site_fract_z
Si Si1 0.582490 0.906229 0.904834
Si Si2 0.621882 0.365684 0.749954
Si Si3 0.102646 0.577129 0.161518
Si Si4 0.303784 0.205706 0.021005
Si Si5 0.659846 0.627688 0.213253
Si Si6 0.833300 0.150415 0.166728
Si Si7 0.325410 0.769777 0.779237
O O1 0.492777 0.780573 0.562900
O O2 0.465106 0.750150 0.048362
O O3 0.700755 0.975432 0.859164
O O4 0.674185 0.129574 0.177398
O O5 0.703889 0.370817 0.576659
O O6 0.712030 0.586071 0.006788
O O7 0.200886 0.797379 0.511139
O O8 0.993813 0.384239 0.194432
O O9 0.206504 0.633487 0.954123
O O10 0.000000 0.500000 0.000000
O O11 0.474663 0.386673 0.057840
O O12 0.303540 0.281658 0.401743
O O13 0.278060 0.223536 0.837448
O O14 0.184569 0.964589 0.846997
O O15 0.500000 0.000000 0.000000
#
# Coordination Sequence:
#
# PCOD9001501 Si02
#       7
#     2   2   2   2   2   2   2
#     4  11  21  36  61  90 123 168 196 248 315 370
#     4  11  22  37  60  89 130 157 206 258 308 361
#     4  11  24  41  61  94 125 163 212 244 314 381
#     4  10  22  35  60  84 124 160 206 257 309 351
#     4  10  21  35  56  93 117 160 211 254 304 360
#     4  11  23  38  63  86 130 163 202 261 310 366
#     4  10  22  39  62  90 126 165 203 251 312 375
#
# _framework density 21.824159000000002
#
# number of rings (size 3 to 8) (size 9 to 14) (size 15 to 20)
#    0.000    1.429    2.857    3.000    6.000    1.143 
#    0.000    0.000    0.000    1.714    0.000    0.000 
#    0.000    0.000    0.000    0.000    0.000    0.000 
#
# Total GULP energy -78244.558522 kJ/mol
# GULP energy per Si atom -5588.897037 kJ/mol
# Density = 2.177449 g / cm^3
# Si number density = 21.824159 Si / 1000 Ang^3
#
#
#
# Elastic Constant Matrix: (Units=GPa)
#
#
# Indices 1 2 3 4 5 6 
#
# 1 61.1908 34.2650 31.5708 -11.4834 -23.3903 -22.5065
# 2 34.2650 115.6738 23.7784 -12.7322 -20.5456 -23.5980
# 3 31.5708 23.7784 73.5111 -16.9880 -20.6901 -7.4968
# 4 -11.4834 -12.7322 -16.9880 23.0208 -5.5247 -2.7824
# 5 -23.3903 -20.5456 -20.6901 -5.5247 47.3173 2.9968
# 6 -22.5065 -23.5980 -7.4968 -2.7824 2.9968 40.8584
#
#
#
# Elastic Compliance Matrix: (Units=1/GPa)
#
#
# Indices 1 2 3 4 5 6 
#
# 1 0.036301 -0.000633 -0.003508 0.021676 0.017452 0.019183
# 2 -0.000633 0.012191 0.000921 0.009407 0.006034 0.007059
# 3 -0.003508 0.000921 0.022170 0.017961 0.010258 0.003138
# 4 0.021676 0.009407 0.017961 0.083014 0.030822 0.024061
# 5 0.017452 0.006034 0.010258 0.030822 0.039567 0.014177
# 6 0.019183 0.007059 0.003138 0.024061 0.014177 0.040293
#
#
# Mechanical properties :
#
#
# Convention : Reuss Voigt Hill
#
# Bulk Modulus (GPa) = 15.57114 47.73380 31.65247
# Shear Modulus (GPa) = 19.12900 32.95673 26.04286
#
# Velocity S-wave (km/s) = 2.96380 3.89022 3.45817
# Velocity P-wave (km/s) = 4.34309 6.48829 5.52088
#
# Compressibility (1/GPa) = 0.06422137
#
# Stress axis : x y z
#
# Youngs Moduli (GPa) = 27.54724 82.03067 45.10605
#
# Poissons Ratio (x) = 0.05193 0.15824
# Poissons Ratio (y) = 0.01744 -0.04154
# Poissons Ratio (z) = 0.09664 -0.07554
#
# Static dielectric constant tensor:
#      x y z
#    x 1.756310 -0.104070 -0.045070 
#    y -0.104070 1.683030 -0.092330 
#    z -0.045070 -0.092330 1.800570 
# 
# From -- ./inp_files/124907.got.cif
#   From: 2010.05.17/outbox.cif.g08.bks.cpg/sg2_63_cif.got.tgz:124907.got - 2010.06.03 11:33:40.
