data_PCOD9001146
_publ_section_title
;
Structure prediction by ZEFSAII (Michael W. Deem and Ramdas Pophale) SiO2 
 PCOD9001146
Probable space group: P -1
;
_chemical_formula_sum "Si O2"
_cell_formula_units_Z 16
_cell_length_a 8.323681
_cell_length_b 23.428304
_cell_length_c 18.005123
_cell_angle_alpha 19.718896
_cell_angle_beta 137.972384
_cell_angle_gamma 142.857484
_cell_volume 714.821706
_symmetry_space_group_name_H-M "P -1"
_symmetry_group_IT_number 2
_symmetry_cell_setting 'triclinic'
loop_
_space_group_symop_operation_xyz
x,y,z
-x,-y,-z
loop_
_atom_site_type_symbol
_atom_site_label
_atom_site_fract_x
_atom_site_fract_y
_atom_site_fract_z
Si Si1 0.136128 0.281731 0.694473
Si Si2 0.651944 0.052557 0.318422
Si Si3 0.195068 0.181918 0.622253
Si Si4 0.242017 0.208620 0.982383
Si Si5 0.583282 0.267371 0.772124
Si Si6 0.842910 0.309177 0.428365
Si Si7 0.015753 0.037077 0.582375
Si Si8 0.873539 0.682119 0.048472
O O1 0.331793 0.206048 0.815574
O O2 0.275732 0.506644 0.458875
O O3 0.879510 0.223227 0.625728
O O4 0.118357 0.237396 0.828716
O O5 0.416182 0.847018 0.507145
O O6 0.853379 0.116809 0.377864
O O7 0.513170 0.188462 0.087846
O O8 0.802026 0.018133 0.342115
O O9 0.466834 0.204892 0.726358
O O10 0.104330 0.334455 0.439966
O O11 0.175048 0.170664 0.540995
O O12 0.965558 0.988103 0.812723
O O13 0.272802 0.360592 0.869969
O O14 0.811698 0.218937 0.942179
O O15 0.824396 0.500786 0.205407
O O16 0.818415 0.838015 0.795257
#
# Coordination Sequence:
#
# PCOD9001146 Si02
#       8
#     2   2   2   2   2   2   2   2
#     4   9  18  33  53  80 112 142 172 212 261 312
#     4  10  22  39  56  76 104 139 179 225 266 308
#     4   9  20  35  55  80 107 142 177 214 263 311
#     4  10  21  34  54  80 109 142 176 215 263 312
#     4   9  18  33  53  79 112 142 171 212 261 313
#     4   9  20  36  55  81 109 139 175 214 263 314
#     4  10  22  39  57  76 102 139 182 223 266 311
#     4  10  21  35  55  83 109 140 176 213 263 317
#
# _framework density 22.383203999999999
#
# number of rings (size 3 to 8) (size 9 to 14) (size 15 to 20)
#    0.000    2.500    0.000    1.500    0.000   16.500 
#    0.000    0.000    0.000    3.750    0.000    0.000 
#    0.000    0.000    0.000    0.000    0.000    0.000 
#
# Total GULP energy -89341.188600 kJ/mol
# GULP energy per Si atom -5583.824288 kJ/mol
# Density = 2.233226 g / cm^3
# Si number density = 22.383204 Si / 1000 Ang^3
#
#
#
# Elastic Constant Matrix: (Units=GPa)
#
#
# Indices 1 2 3 4 5 6 
#
# 1 37.7354 9.9612 8.3269 8.5526 2.3236 -19.7027
# 2 9.9612 68.0613 5.6676 14.0729 -3.2540 -18.9460
# 3 8.3269 5.6676 40.2689 4.7565 5.4161 -15.5471
# 4 8.5526 14.0729 4.7565 30.7239 -10.2325 -1.5496
# 5 2.3236 -3.2540 5.4161 -10.2325 21.8304 -0.1503
# 6 -19.7027 -18.9460 -15.5471 -1.5496 -0.1503 32.2960
#
#
#
# Elastic Compliance Matrix: (Units=1/GPa)
#
#
# Indices 1 2 3 4 5 6 
#
# 1 0.046732 0.005458 0.007105 -0.019888 -0.015010 0.034108
# 2 0.005458 0.020559 0.004542 -0.012197 -0.004243 0.016972
# 3 0.007105 0.004542 0.035291 -0.013315 -0.014916 0.023279
# 4 -0.019888 -0.012197 -0.013315 0.054179 0.028839 -0.022964
# 5 -0.015010 -0.004243 -0.014916 0.028839 0.063874 -0.017146
# 6 0.034108 0.016972 0.023279 -0.022964 -0.017146 0.071753
#
#
# Mechanical properties :
#
#
# Convention : Reuss Voigt Hill
#
# Bulk Modulus (GPa) = 7.31043 21.55298 14.43171
# Shear Modulus (GPa) = 16.45950 25.11073 20.78511
#
# Velocity S-wave (km/s) = 2.71468 3.35305 3.05060
# Velocity P-wave (km/s) = 3.61927 4.96392 4.34394
#
# Compressibility (1/GPa) = 0.13679086
#
# Stress axis : x y z
#
# Youngs Moduli (GPa) = 21.39855 48.64054 28.33545
#
# Poissons Ratio (x) = -0.26547 -0.20132
# Poissons Ratio (y) = -0.11679 -0.12869
# Poissons Ratio (z) = -0.15203 -0.22091
#
# Static dielectric constant tensor:
#      x y z
#    x 1.885700 -0.015820 0.023820 
#    y -0.015820 1.845850 -0.029180 
#    z 0.023820 -0.029180 1.836180 
# 
# From -- ./inp_files/186086.got.cif
#   From: 2010.05.17/outbox.cif.g08.bks.cpg/sg2_94_cif.got.tgz:186086.got - 2010.06.03 11:33:40.
