data_PCOD9001655
_publ_section_title
;
Structure prediction by ZEFSAII (Michael W. Deem and Ramdas Pophale) SiO2 
 PCOD9001655
Probable space group: P -1
;
_chemical_formula_sum "Si O2"
_cell_formula_units_Z 14
_cell_length_a 10.685182
_cell_length_b 18.117671
_cell_length_c 10.491824
_cell_angle_alpha 24.596399
_cell_angle_beta 44.722484
_cell_angle_gamma 53.597936
_cell_volume 585.211629
_symmetry_space_group_name_H-M "P -1"
_symmetry_group_IT_number 2
_symmetry_cell_setting 'triclinic'
loop_
_space_group_symop_operation_xyz
x,y,z
-x,-y,-z
loop_
_atom_site_type_symbol
_atom_site_label
_atom_site_fract_x
_atom_site_fract_y
_atom_site_fract_z
Si Si1 0.370329 0.176611 0.266805
Si Si2 0.301160 0.609617 0.473713
Si Si3 0.995875 0.159507 0.648333
Si Si4 0.583707 0.130620 0.443300
Si Si5 0.795705 0.509473 0.673555
Si Si6 0.733872 0.891744 0.108431
Si Si7 0.618658 0.656850 0.341859
O O1 0.449444 0.134438 0.413331
O O2 0.193838 0.251536 0.318328
O O3 0.302125 0.007856 0.484963
O O4 0.542273 0.280345 0.902886
O O5 0.124999 0.695229 0.451816
O O6 0.408842 0.633178 0.492750
O O7 0.279729 0.406753 0.754100
O O8 0.889307 0.055647 0.769617
O O9 0.000000 0.000000 0.000000
O O10 0.447604 0.072235 0.749191
O O11 0.705081 0.320820 0.096589
O O12 0.784658 0.707480 0.426044
O O13 0.664024 0.519569 0.632313
O O14 0.000000 0.500000 0.500000
O O15 0.698942 0.841580 0.064576
#
# Coordination Sequence:
#
# PCOD9001655 Si02
#       7
#     2   2   2   2   2   2   2
#     4  11  21  36  64  92 124 161 207 253 311 365
#     4  11  22  46  61  88 130 167 206 251 309 380
#     4  12  23  37  66  97 123 161 211 258 311 360
#     4  11  19  37  60  93 127 156 200 267 312 357
#     4  10  21  35  60  90 123 153 207 256 301 365
#     4  10  21  38  60  93 121 163 204 255 315 356
#     4   9  24  40  65  83 127 175 197 250 321 361
#
# _framework density 23.922969999999999
#
# number of rings (size 3 to 8) (size 9 to 14) (size 15 to 20)
#    0.857    0.571    4.286    2.143    2.000    0.571 
#    0.000    5.000    0.000    0.000    0.000    0.000 
#    0.000    0.000    0.000    0.000    0.000    0.000 
#
# Total GULP energy -78019.708547 kJ/mol
# GULP energy per Si atom -5572.836325 kJ/mol
# Density = 2.386852 g / cm^3
# Si number density = 23.922970 Si / 1000 Ang^3
#
#
#
# Elastic Constant Matrix: (Units=GPa)
#
#
# Indices 1 2 3 4 5 6 
#
# 1 69.0403 44.5878 5.7011 8.6267 3.0244 -12.5836
# 2 44.5878 140.8983 21.3645 1.9216 -7.3352 -28.9954
# 3 5.7011 21.3645 60.9041 9.7233 -11.3355 -7.4687
# 4 8.6267 1.9216 9.7233 38.3136 -1.5548 -14.1381
# 5 3.0244 -7.3352 -11.3355 -1.5548 21.1736 -4.6496
# 6 -12.5836 -28.9954 -7.4687 -14.1381 -4.6496 54.9556
#
#
#
# Elastic Compliance Matrix: (Units=1/GPa)
#
#
# Indices 1 2 3 4 5 6 
#
# 1 0.019353 -0.006481 0.000099 -0.004495 -0.005416 -0.000589
# 2 -0.006481 0.010765 -0.002191 0.003608 0.004898 0.005240
# 3 0.000099 -0.002191 0.019821 -0.004044 0.009838 0.001352
# 4 -0.004495 0.003608 -0.004044 0.031336 0.003943 0.008720
# 5 -0.005416 0.004898 0.009838 0.003943 0.057128 0.008529
# 6 -0.000589 0.005240 0.001352 0.008720 0.008529 0.023975
#
#
# Mechanical properties :
#
#
# Convention : Reuss Voigt Hill
#
# Bulk Modulus (GPa) = 30.49467 46.01659 38.25563
# Shear Modulus (GPa) = 26.25269 36.16784 31.21027
#
# Velocity S-wave (km/s) = 3.31627 3.89246 3.61586
# Velocity P-wave (km/s) = 5.23815 6.28321 5.78433
#
# Compressibility (1/GPa) = 0.03279261
#
# Stress axis : x y z
#
# Youngs Moduli (GPa) = 51.67024 92.89484 50.45092
#
# Poissons Ratio (x) = 0.60210 -0.00501
# Poissons Ratio (y) = 0.33490 0.11055
# Poissons Ratio (z) = -0.00513 0.20356
#
# Static dielectric constant tensor:
#      x y z
#    x 2.088910 -0.028360 0.138960 
#    y -0.028360 1.979030 -0.117150 
#    z 0.138960 -0.117150 2.016630 
# 
# From -- ./inp_files/436306.got.cif
#   From: 2010.05.17/outbox.cif.g08.bks.cpg/sg2_219_cif.got.tgz:436306.got - 2010.06.03 11:33:40.
