data_PCOD9001841
_publ_section_title
;
Structure prediction by ZEFSAII (Michael W. Deem and Ramdas Pophale) SiO2 
 PCOD9001841
Probable space group: P -1
;
_chemical_formula_sum "Si O2"
_cell_formula_units_Z 14
_cell_length_a 5.345124
_cell_length_b 8.683744
_cell_length_c 13.162387
_cell_angle_alpha 72.909102
_cell_angle_beta 91.511289
_cell_angle_gamma 82.266659
_cell_volume 577.247621
_symmetry_space_group_name_H-M "P -1"
_symmetry_group_IT_number 2
_symmetry_cell_setting 'triclinic'
loop_
_space_group_symop_operation_xyz
x,y,z
-x,-y,-z
loop_
_atom_site_type_symbol
_atom_site_label
_atom_site_fract_x
_atom_site_fract_y
_atom_site_fract_z
Si Si1 0.711195 0.504054 0.750204
Si Si2 0.037802 0.714517 0.390577
Si Si3 0.323997 0.828775 0.854044
Si Si4 0.122217 0.511472 0.888604
Si Si5 0.757760 0.003641 0.767447
Si Si6 0.684841 0.491635 0.408197
Si Si7 0.466098 0.772738 0.091020
O O1 0.830397 0.401719 0.674598
O O2 0.440832 0.565427 0.683700
O O3 0.689511 0.375198 0.863620
O O4 0.923172 0.593733 0.785315
O O5 0.150155 0.880767 0.342007
O O6 0.090648 0.641829 0.518473
O O7 0.755425 0.675902 0.369149
O O8 0.325338 0.636115 0.879198
O O9 0.533021 0.893729 0.771049
O O10 0.402754 0.854386 0.966551
O O11 0.032058 0.910133 0.823278
O O12 0.251839 0.330330 0.890099
O O13 0.000000 0.500000 0.000000
O O14 0.626682 0.115516 0.836413
O O15 0.500000 0.500000 0.500000
#
# Coordination Sequence:
#
# PCOD9001841 Si02
#       7
#     2   2   2   2   2   2   2
#     4  10  21  35  66  94 130 170 229 285 328 384
#     4   9  20  39  64 101 128 167 222 291 343 394
#     4  12  26  43  63  98 141 189 222 275 346 402
#     4  12  25  42  65  95 139 188 237 279 320 398
#     4  11  27  42  68  97 141 177 226 284 347 403
#     4   9  18  36  66 100 127 162 224 295 339 390
#     4  11  24  42  67  91 134 180 243 275 324 391
#
# _framework density 24.253025000000001
#
# number of rings (size 3 to 8) (size 9 to 14) (size 15 to 20)
#    0.000    1.429    1.429    3.000   12.000    0.000 
#    0.000    0.000    0.000    1.714    0.000    0.000 
#    0.000    0.000    0.000    0.000    0.000    0.000 
#
# Total GULP energy -77977.693519 kJ/mol
# GULP energy per Si atom -5569.835251 kJ/mol
# Density = 2.419782 g / cm^3
# Si number density = 24.253025 Si / 1000 Ang^3
#
#
#
# Elastic Constant Matrix: (Units=GPa)
#
#
# Indices 1 2 3 4 5 6 
#
# 1 156.9275 46.1131 51.6127 -11.7866 -3.0105 12.4228
# 2 46.1131 61.5279 9.5722 -12.4352 -1.6414 -1.3146
# 3 51.6127 9.5722 110.8983 -13.6245 0.3501 23.8449
# 4 -11.7866 -12.4352 -13.6245 29.2181 13.6313 -7.5410
# 5 -3.0105 -1.6414 0.3501 13.6313 54.2765 -3.5635
# 6 12.4228 -1.3146 23.8449 -7.5410 -3.5635 52.3131
#
#
#
# Elastic Compliance Matrix: (Units=1/GPa)
#
#
# Indices 1 2 3 4 5 6 
#
# 1 0.009658 -0.006913 -0.003887 -0.001378 0.000642 -0.000851
# 2 -0.006913 0.023063 0.001830 0.009441 -0.001897 0.002619
# 3 -0.003887 0.001830 0.012097 0.004592 -0.001654 -0.003996
# 4 -0.001378 0.009441 0.004592 0.046145 -0.011123 0.004366
# 5 0.000642 -0.001897 -0.001654 -0.011123 0.021233 0.000397
# 6 -0.000851 0.002619 -0.003996 0.004366 0.000397 0.021861
#
#
# Mechanical properties :
#
#
# Convention : Reuss Voigt Hill
#
# Bulk Modulus (GPa) = 37.20661 60.43886 48.82274
# Shear Modulus (GPa) = 31.06422 41.96523 36.51473
#
# Velocity S-wave (km/s) = 3.58276 4.16421 3.88438
# Velocity P-wave (km/s) = 5.69993 6.93506 6.34761
#
# Compressibility (1/GPa) = 0.02687694
#
# Stress axis : x y z
#
# Youngs Moduli (GPa) = 103.53709 43.35961 82.66691
#
# Poissons Ratio (x) = 0.29976 0.32130
# Poissons Ratio (y) = 0.71579 -0.15125
# Poissons Ratio (z) = 0.40242 -0.07933
#
# Static dielectric constant tensor:
#      x y z
#    x 2.334280 -0.013270 0.062620 
#    y -0.013270 2.022750 -0.048170 
#    z 0.062620 -0.048170 1.930380 
# 
# From -- ./inp_files/480304.got.cif
#   From: 2010.05.17/outbox.cif.g08.bks.cpg/sg2_241_cif.got.tgz:480304.got - 2010.06.03 11:33:40.
