data_PCOD9001678
_publ_section_title
;
Structure prediction by ZEFSAII (Michael W. Deem and Ramdas Pophale) SiO2 
 PCOD9001678
Probable space group: P -1
;
_chemical_formula_sum "Si O2"
_cell_formula_units_Z 14
_cell_length_a 21.403315
_cell_length_b 10.615964
_cell_length_c 5.139764
_cell_angle_alpha 70.102738
_cell_angle_beta 58.121619
_cell_angle_gamma 33.570228
_cell_volume 535.864155
_symmetry_space_group_name_H-M "P -1"
_symmetry_group_IT_number 2
_symmetry_cell_setting 'triclinic'
loop_
_space_group_symop_operation_xyz
x,y,z
-x,-y,-z
loop_
_atom_site_type_symbol
_atom_site_label
_atom_site_fract_x
_atom_site_fract_y
_atom_site_fract_z
Si Si1 0.879755 0.962140 0.363807
Si Si2 0.430490 0.262013 0.517715
Si Si3 0.221574 0.663767 0.325811
Si Si4 0.367687 0.633529 0.622954
Si Si5 0.730485 0.812090 0.236761
Si Si6 0.917905 0.752704 0.927592
Si Si7 0.768797 0.589018 0.824575
O O1 0.860762 0.139443 0.405788
O O2 0.732400 0.138526 0.497487
O O3 0.944205 0.776494 0.573023
O O4 0.937347 0.838445 0.042888
O O5 0.330725 0.405905 0.397049
O O6 0.414077 0.440830 0.487898
O O7 0.581101 0.015651 0.349705
O O8 0.366231 0.275688 0.882586
O O9 0.157528 0.654584 0.270196
O O10 0.288230 0.683863 0.000295
O O11 0.500000 0.500000 0.500000
O O12 0.757345 0.709261 0.530868
O O13 0.776505 0.897040 0.101494
O O14 0.804350 0.621791 0.979801
O O15 0.000000 0.500000 0.000000
#
# Coordination Sequence:
#
# PCOD9001678 Si02
#       7
#     2   2   2   2   2   2   2
#     4  11  23  44  68  92 130 168 213 273 338 377
#     4  10  22  34  60  96 138 173 211 250 313 400
#     4  10  22  39  63  98 131 177 206 261 320 398
#     4  10  21  35  60  98 137 173 215 257 317 404
#     4  12  25  39  65  92 136 176 215 265 321 380
#     4  12  27  47  70  96 124 169 228 284 333 377
#     4  11  23  40  61  97 137 174 215 248 318 402
#
# _framework density 26.126023
#
# number of rings (size 3 to 8) (size 9 to 14) (size 15 to 20)
#    0.000    1.143    2.857    3.000    6.000    1.143 
#    0.000    0.000    0.000    5.143    0.000    0.000 
#    0.000    0.000    0.000    0.000    0.000    0.000 
#
# Total GULP energy -78180.028549 kJ/mol
# GULP energy per Si atom -5584.287754 kJ/mol
# Density = 2.606656 g / cm^3
# Si number density = 26.126023 Si / 1000 Ang^3
#
#
#
# Elastic Constant Matrix: (Units=GPa)
#
#
# Indices 1 2 3 4 5 6 
#
# 1 99.4306 23.2709 52.5287 17.4355 16.4671 11.8515
# 2 23.2709 104.1148 54.0683 4.3188 21.9470 -18.5694
# 3 52.5287 54.0683 128.7270 -18.1618 30.2076 -14.5812
# 4 17.4355 4.3188 -18.1618 43.3143 1.4196 11.7445
# 5 16.4671 21.9470 30.2076 1.4196 52.2835 7.2337
# 6 11.8515 -18.5694 -14.5812 11.7445 7.2337 45.8271
#
#
#
# Elastic Compliance Matrix: (Units=1/GPa)
#
#
# Indices 1 2 3 4 5 6 
#
# 1 0.016848 0.000297 -0.009026 -0.009308 0.000706 -0.004835
# 2 0.000297 0.014400 -0.005365 -0.005310 -0.003724 0.006000
# 3 -0.009026 -0.005365 0.016875 0.010414 -0.005453 0.003722
# 4 -0.009308 -0.005310 0.010414 0.033048 -0.001099 -0.004727
# 5 0.000706 -0.003724 -0.005453 -0.001099 0.024621 -0.007031
# 6 -0.004835 0.006000 0.003722 -0.004727 -0.007031 0.029008
#
#
# Mechanical properties :
#
#
# Convention : Reuss Voigt Hill
#
# Bulk Modulus (GPa) = 50.16395 65.77870 57.97133
# Shear Modulus (GPa) = 29.47539 41.77864 35.62701
#
# Velocity S-wave (km/s) = 3.36251 4.00324 3.69678
# Velocity P-wave (km/s) = 5.85814 6.82642 6.36073
#
# Compressibility (1/GPa) = 0.01993463
#
# Stress axis : x y z
#
# Youngs Moduli (GPa) = 59.35444 69.44454 59.25782
#
# Poissons Ratio (x) = -0.02061 0.53487
# Poissons Ratio (y) = -0.01762 0.31792
# Poissons Ratio (z) = 0.53574 0.37257
#
# Static dielectric constant tensor:
#      x y z
#    x 2.368020 -0.174620 0.003800 
#    y -0.174620 2.215170 0.061810 
#    z 0.003800 0.061810 2.025670 
# 
# From -- ./inp_files/128407.got.cif
#   From: 2010.05.17/outbox.cif.g08.bks.cpg/sg2_65_cif.got.tgz:128407.got - 2010.06.03 11:33:40.
