data_PCOD9001715
_publ_section_title
;
Structure prediction by ZEFSAII (Michael W. Deem and Ramdas Pophale) SiO2 
 PCOD9001715
Probable space group: P -1
;
_chemical_formula_sum "Si O2"
_cell_formula_units_Z 16
_cell_length_a 9.928404
_cell_length_b 16.147225
_cell_length_c 12.403365
_cell_angle_alpha 35.763082
_cell_angle_beta 113.344942
_cell_angle_gamma 134.598520
_cell_volume 752.158312
_symmetry_space_group_name_H-M "P -1"
_symmetry_group_IT_number 2
_symmetry_cell_setting 'triclinic'
loop_
_space_group_symop_operation_xyz
x,y,z
-x,-y,-z
loop_
_atom_site_type_symbol
_atom_site_label
_atom_site_fract_x
_atom_site_fract_y
_atom_site_fract_z
Si Si1 0.848857 0.244664 0.333880
Si Si2 0.720351 0.380970 0.828078
Si Si3 0.087362 0.776797 0.994430
Si Si4 0.309231 0.581647 0.640332
Si Si5 0.495944 0.415060 0.891080
Si Si6 0.489587 0.781563 0.719456
Si Si7 0.929680 0.794383 0.719327
Si Si8 0.501147 0.840771 0.216105
O O1 0.735598 0.317758 0.203465
O O2 0.051815 0.394851 0.314731
O O3 0.922233 0.217648 0.278805
O O4 0.661432 0.016892 0.554446
O O5 0.773790 0.250045 0.990952
O O6 0.557558 0.334928 0.910301
O O7 0.615787 0.329876 0.732078
O O8 0.936247 0.589456 0.226894
O O9 0.937890 0.754465 0.887646
O O10 0.250793 0.004379 0.850703
O O11 0.358383 0.450292 0.769401
O O12 0.439270 0.717964 0.645004
O O13 0.383149 0.729323 0.408576
O O14 0.711790 0.632780 0.763273
O O15 0.429636 0.297675 0.106040
O O16 0.000000 0.000000 0.500000
O O17 0.500000 0.000000 0.000000
#
# Coordination Sequence:
#
# PCOD9001715 Si02
#       8
#     2   2   2   2   2   2   2   2
#     4  10  21  35  61  93 125 173 206 258 319 380
#     4  10  22  45  61  90 125 172 219 259 314 378
#     4  11  22  42  68  94 126 171 217 262 319 379
#     4  12  24  42  67  99 130 165 217 268 318 382
#     4  11  23  38  64  94 134 164 200 268 330 382
#     4  11  21  38  61  98 134 158 208 263 326 388
#     4  11  21  36  62  93 131 170 207 253 329 391
#     4  10  25  45  69  91 124 173 225 267 311 373
#
# _framework density 21.272117000000001
#
# number of rings (size 3 to 8) (size 9 to 14) (size 15 to 20)
#    0.000    1.250    2.500    3.375    1.750    7.500 
#    2.250    0.625    0.000    0.000    0.000    0.000 
#    0.000    0.000    0.000    0.000    0.000    0.000 
#
# Total GULP energy -89220.974448 kJ/mol
# GULP energy per Si atom -5576.310903 kJ/mol
# Density = 2.122370 g / cm^3
# Si number density = 21.272117 Si / 1000 Ang^3
#
#
#
# Elastic Constant Matrix: (Units=GPa)
#
#
# Indices 1 2 3 4 5 6 
#
# 1 98.6309 28.5419 11.2231 11.6811 7.9504 -2.4817
# 2 28.5419 111.6883 32.4438 -6.9073 -12.5235 -17.4121
# 3 11.2231 32.4438 105.9080 7.1940 -2.6712 -13.7864
# 4 11.6811 -6.9073 7.1940 31.4836 0.4284 -9.0090
# 5 7.9504 -12.5235 -2.6712 0.4284 20.2229 -2.9921
# 6 -2.4817 -17.4121 -13.7864 -9.0090 -2.9921 14.4959
#
#
#
# Elastic Compliance Matrix: (Units=1/GPa)
#
#
# Indices 1 2 3 4 5 6 
#
# 1 0.015127 -0.009243 -0.000922 -0.013110 -0.014554 -0.020541
# 2 -0.009243 0.021634 -0.001199 0.019612 0.022387 0.040073
# 3 -0.000922 -0.001199 0.011225 0.000276 0.002543 0.009774
# 4 -0.013110 0.019612 0.000276 0.058622 0.025454 0.063263
# 5 -0.014554 0.022387 0.002543 0.025454 0.077506 0.058634
# 6 -0.020541 0.040073 0.009774 0.063263 0.058634 0.174319
#
#
# Mechanical properties :
#
#
# Convention : Reuss Voigt Hill
#
# Bulk Modulus (GPa) = 39.59087 51.18276 45.38681
# Shear Modulus (GPa) = 12.83427 29.50837 21.17132
#
# Velocity S-wave (km/s) = 2.45896 3.72853 3.15820
# Velocity P-wave (km/s) = 5.16856 6.53063 5.88911
#
# Compressibility (1/GPa) = 0.02525835
#
# Stress axis : x y z
#
# Youngs Moduli (GPa) = 66.10502 46.22280 89.08789
#
# Poissons Ratio (x) = 0.42724 0.08215
# Poissons Ratio (y) = 0.61101 0.10682
# Poissons Ratio (z) = 0.06095 0.05542
#
# Static dielectric constant tensor:
#      x y z
#    x 1.879280 -0.009010 0.001610 
#    y -0.009010 1.815790 0.007460 
#    z 0.001610 0.007460 1.831310 
# 
# From -- ./inp_files/397896.got.cif
#   From: 2010.05.17/outbox.cif.g08.bks.cpg/sg2_199_cif.got.tgz:397896.got - 2010.06.03 11:33:40.
