data_PCOD9001490
_publ_section_title
;
Structure prediction by ZEFSAII (Michael W. Deem and Ramdas Pophale) SiO2 
 PCOD9001490
Probable space group: P -1
;
_chemical_formula_sum "Si O2"
_cell_formula_units_Z 16
_cell_length_a 9.458096
_cell_length_b 10.390079
_cell_length_c 15.853569
_cell_angle_alpha 58.837041
_cell_angle_beta 116.569208
_cell_angle_gamma 69.770884
_cell_volume 782.914539
_symmetry_space_group_name_H-M "P -1"
_symmetry_group_IT_number 2
_symmetry_cell_setting 'triclinic'
loop_
_space_group_symop_operation_xyz
x,y,z
-x,-y,-z
loop_
_atom_site_type_symbol
_atom_site_label
_atom_site_fract_x
_atom_site_fract_y
_atom_site_fract_z
Si Si1 0.127584 0.752440 0.098403
Si Si2 0.101345 0.379747 0.936383
Si Si3 0.303522 0.281064 0.746513
Si Si4 0.082375 0.867579 0.868253
Si Si5 0.723708 0.388216 0.649732
Si Si6 0.245741 0.313954 0.522916
Si Si7 0.539773 0.172108 0.019702
Si Si8 0.734868 0.841980 0.759189
O O1 0.337729 0.579042 0.279244
O O2 0.942690 0.751483 0.070746
O O3 0.185400 0.705262 0.032147
O O4 0.000000 0.000000 0.000000
O O5 0.288280 0.338147 0.945522
O O6 0.847062 0.645611 0.789359
O O7 0.204307 0.271364 0.093759
O O8 0.349661 0.263518 0.663691
O O9 0.475247 0.229252 0.882621
O O10 0.030885 0.541767 0.594001
O O11 0.328634 0.083001 0.840110
O O12 0.892599 0.883062 0.775219
O O13 0.308585 0.795267 0.915280
O O14 0.927401 0.120837 0.773355
O O15 0.500000 0.500000 0.500000
O O16 0.785025 0.508675 0.594649
O O17 0.450956 0.076108 0.608018
#
# Coordination Sequence:
#
# PCOD9001490 Si02
#       8
#     2   2   2   2   2   2   2   2
#     4   9  21  36  57  85 117 148 198 244 289 339
#     4  10  21  39  60  86 115 162 201 237 285 357
#     4  10  23  33  57  85 122 150 196 247 307 337
#     4  10  21  35  56  88 114 157 196 244 289 340
#     4  11  20  31  55  84 119 144 190 248 299 336
#     4  11  20  37  55  90 117 154 193 253 297 348
#     4  11  21  36  57  85 121 157 194 244 293 358
#     4  10  21  38  61  85 117 159 204 239 287 348
#
# _framework density 20.436457999999998
#
# number of rings (size 3 to 8) (size 9 to 14) (size 15 to 20)
#    0.000    1.750    3.750    0.750    7.000    0.500 
#    0.000    2.500    0.000    0.000    0.000    4.375 
#    0.000    0.000    0.000    0.000    0.000    0.000 
#
# Total GULP energy -89110.902859 kJ/mol
# GULP energy per Si atom -5569.431429 kJ/mol
# Density = 2.038994 g / cm^3
# Si number density = 20.436458 Si / 1000 Ang^3
#
#
#
# Elastic Constant Matrix: (Units=GPa)
#
#
# Indices 1 2 3 4 5 6 
#
# 1 64.4870 18.2002 8.7775 -13.6895 2.6689 -4.8874
# 2 18.2002 47.0840 25.6210 -20.7150 5.7458 -6.0847
# 3 8.7775 25.6210 86.5232 -6.3641 -5.2613 -16.4181
# 4 -13.6895 -20.7150 -6.3641 30.9838 -10.6249 4.3027
# 5 2.6689 5.7458 -5.2613 -10.6249 32.6920 -5.8264
# 6 -4.8874 -6.0847 -16.4181 4.3027 -5.8264 16.4802
#
#
#
# Elastic Compliance Matrix: (Units=1/GPa)
#
#
# Indices 1 2 3 4 5 6 
#
# 1 0.018054 -0.005014 0.000818 0.004895 0.001784 0.003671
# 2 -0.005014 0.037343 -0.009774 0.020661 -0.001618 -0.003403
# 3 0.000818 -0.009774 0.017931 -0.002590 0.006829 0.017588
# 4 0.004895 0.020661 -0.002590 0.052241 0.012015 -0.002892
# 5 0.001784 -0.001618 0.006829 0.012015 0.038819 0.017322
# 6 0.003671 -0.003403 0.017588 -0.002892 0.017322 0.084912
#
#
# Mechanical properties :
#
#
# Convention : Reuss Voigt Hill
#
# Bulk Modulus (GPa) = 22.03147 33.69907 27.86527
# Shear Modulus (GPa) = 17.10171 25.73090 21.41631
#
# Velocity S-wave (km/s) = 2.89593 3.55219 3.24071
# Velocity P-wave (km/s) = 4.68890 5.77490 5.26000
#
# Compressibility (1/GPa) = 0.04538962
#
# Stress axis : x y z
#
# Youngs Moduli (GPa) = 55.38896 26.77875 55.76950
#
# Poissons Ratio (x) = 0.13426 -0.04563
# Poissons Ratio (y) = 0.27771 0.54507
# Poissons Ratio (z) = -0.04532 0.26173
#
# Static dielectric constant tensor:
#      x y z
#    x 1.781750 -0.013560 0.050680 
#    y -0.013560 1.780900 0.023830 
#    z 0.050680 0.023830 1.764230 
# 
# From -- ./inp_files/217296.got.cif
#   From: 2010.05.17/outbox.cif.g08.bks.cpg/sg2_109_cif.got.tgz:217296.got - 2010.06.03 11:33:40.
