data_PCOD9001432
_publ_section_title
;
Structure prediction by ZEFSAII (Michael W. Deem and Ramdas Pophale) SiO2 
 PCOD9001432
Probable space group: P -1
;
_chemical_formula_sum "Si O2"
_cell_formula_units_Z 16
_cell_length_a 15.659445
_cell_length_b 5.430315
_cell_length_c 11.749229
_cell_angle_alpha 97.238060
_cell_angle_beta 52.466150
_cell_angle_gamma 117.691861
_cell_volume 683.744371
_symmetry_space_group_name_H-M "P -1"
_symmetry_group_IT_number 2
_symmetry_cell_setting 'triclinic'
loop_
_space_group_symop_operation_xyz
x,y,z
-x,-y,-z
loop_
_atom_site_type_symbol
_atom_site_label
_atom_site_fract_x
_atom_site_fract_y
_atom_site_fract_z
Si Si1 0.449699 0.731012 0.678189
Si Si2 0.384417 0.417469 0.934510
Si Si3 0.883707 0.773617 0.839611
Si Si4 0.185806 0.643885 0.343543
Si Si5 0.960096 0.227037 0.095751
Si Si6 0.022707 0.807277 0.381778
Si Si7 0.441848 0.758235 0.128800
Si Si8 0.335031 0.066651 0.656221
O O1 0.442741 0.688501 0.818077
O O2 0.387418 0.396044 0.671903
O O3 0.587180 0.895955 0.521229
O O4 0.375013 0.881217 0.695453
O O5 0.466315 0.263199 0.857601
O O6 0.239870 0.245029 0.010189
O O7 0.389632 0.487880 0.068576
O O8 0.844586 0.581688 0.747036
O O9 0.953803 0.665914 0.856755
O O10 0.975924 0.091096 0.739959
O O11 0.157476 0.863333 0.312574
O O12 0.322635 0.750721 0.279374
O O13 0.085437 0.507569 0.517489
O O14 0.813919 0.080711 0.234582
O O15 0.000000 0.500000 0.000000
O O16 0.000000 0.000000 0.000000
O O17 0.000000 0.000000 0.500000
O O18 0.500000 0.000000 0.000000
#
# Coordination Sequence:
#
# PCOD9001432 Si02
#       8
#     2   2   2   2   2   2   2   2
#     4  10  22  42  70  91 125 168 205 260 319 375
#     4  10  21  37  57  87 116 155 202 245 308 362
#     4  10  21  36  60  84 118 159 197 249 309 370
#     4   9  19  36  57  85 116 155 199 245 306 366
#     4  12  26  42  64  97 129 166 212 265 312 372
#     4   9  18  35  58  81 112 154 191 241 303 365
#     4  10  21  35  55  85 119 151 200 252 292 362
#     4  10  22  43  66  95 127 160 212 261 314 374
#
# _framework density 23.400559999999999
#
# number of rings (size 3 to 8) (size 9 to 14) (size 15 to 20)
#    0.000    2.000    0.000    3.000    3.500    2.000 
#    0.000    3.750    0.000    0.000    0.000    0.000 
#    0.000    0.000    0.000    0.000    0.000    0.000 
#
# Total GULP energy -89262.911241 kJ/mol
# GULP energy per Si atom -5578.931953 kJ/mol
# Density = 2.334730 g / cm^3
# Si number density = 23.400560 Si / 1000 Ang^3
#
#
#
# Elastic Constant Matrix: (Units=GPa)
#
#
# Indices 1 2 3 4 5 6 
#
# 1 177.5264 47.0078 97.3410 -24.9364 -24.5682 -38.4937
# 2 47.0078 73.2072 23.1424 -13.8267 -4.0179 -26.9888
# 3 97.3410 23.1424 135.7011 -30.2282 -20.1116 -13.3749
# 4 -24.9364 -13.8267 -30.2282 38.7826 -4.0875 6.8457
# 5 -24.5682 -4.0179 -20.1116 -4.0875 52.8712 -0.7518
# 6 -38.4937 -26.9888 -13.3749 6.8457 -0.7518 45.2839
#
#
#
# Elastic Compliance Matrix: (Units=1/GPa)
#
#
# Indices 1 2 3 4 5 6 
#
# 1 0.012131 -0.002945 -0.007046 0.000419 0.002857 0.006460
# 2 -0.002945 0.019325 0.000700 0.004106 0.000806 0.008614
# 3 -0.007046 0.000700 0.014116 0.007443 0.002688 -0.002484
# 4 0.000419 0.004106 0.007443 0.033954 0.005963 -0.000032
# 5 0.002857 0.000806 0.002688 0.005963 0.021832 0.003165
# 6 0.006460 0.008614 -0.002484 -0.000032 0.003165 0.032032
#
#
# Mechanical properties :
#
#
# Convention : Reuss Voigt Hill
#
# Bulk Modulus (GPa) = 37.05125 80.15746 58.60435
# Shear Modulus (GPa) = 31.06206 41.98378 36.52292
#
# Velocity S-wave (km/s) = 3.64731 4.24032 3.95495
# Velocity P-wave (km/s) = 5.79699 7.63561 6.77892
#
# Compressibility (1/GPa) = 0.02698965
#
# Stress axis : x y z
#
# Youngs Moduli (GPa) = 82.43036 51.74692 70.84229
#
# Poissons Ratio (x) = 0.15238 0.49918
# Poissons Ratio (y) = 0.24273 -0.04958
# Poissons Ratio (z) = 0.58083 -0.03621
#
# Static dielectric constant tensor:
#      x y z
#    x 1.963540 0.032930 0.069270 
#    y 0.032930 2.035270 0.039890 
#    z 0.069270 0.039890 1.981670 
# 
# From -- ./inp_files/441902.got.cif
#   From: 2010.05.17/outbox.cif.g08.bks.cpg/sg2_221_cif.got.tgz:441902.got - 2010.06.03 11:33:40.
