data_PCOD9001011
_publ_section_title
;
Structure prediction by ZEFSAII (Michael W. Deem and Ramdas Pophale) SiO2 
 PCOD9001011
Probable space group: P -1
;
_chemical_formula_sum "Si O2"
_cell_formula_units_Z 16
_cell_length_a 13.576569
_cell_length_b 14.447380
_cell_length_c 14.733323
_cell_angle_alpha 62.448365
_cell_angle_beta 116.051834
_cell_angle_gamma 159.097941
_cell_volume 913.874052
_symmetry_space_group_name_H-M "P -1"
_symmetry_group_IT_number 2
_symmetry_cell_setting 'triclinic'
loop_
_space_group_symop_operation_xyz
x,y,z
-x,-y,-z
loop_
_atom_site_type_symbol
_atom_site_label
_atom_site_fract_x
_atom_site_fract_y
_atom_site_fract_z
Si Si1 0.414612 0.027095 0.015920
Si Si2 0.692144 0.511276 0.525526
Si Si3 0.163046 0.480470 0.259844
Si Si4 0.808593 0.833268 0.408155
Si Si5 0.898879 0.476550 0.148968
Si Si6 0.766542 0.298585 0.364995
Si Si7 0.223335 0.993215 0.792190
Si Si8 0.622820 0.235152 0.533685
O O1 0.673346 0.283298 0.066295
O O2 0.316217 0.037031 0.908890
O O3 0.160356 0.773711 0.092328
O O4 0.500000 0.000000 0.000000
O O5 0.906256 0.645936 0.620721
O O6 0.800093 0.706630 0.427459
O O7 0.476997 0.375741 0.569485
O O8 0.574367 0.311592 0.511559
O O9 0.493157 0.785364 0.249256
O O10 0.016080 0.461652 0.207115
O O11 0.035599 0.303609 0.206596
O O12 0.861716 0.964043 0.291283
O O13 0.000000 0.000000 0.500000
O O14 0.775043 0.379736 0.243532
O O15 0.636477 0.238717 0.428603
O O16 0.077965 0.538249 0.409669
O O17 0.590586 0.039321 0.394786
#
# Coordination Sequence:
#
# PCOD9001011 Si02
#       8
#     2   2   2   2   2   2   2   2
#     4  12  22  33  49  76 103 144 184 213 259 322
#     4  10  21  33  53  80 106 147 174 217 268 325
#     4  11  19  30  51  73 105 142 169 207 260 311
#     4  10  21  35  51  79 108 140 184 216 270 324
#     4  12  21  33  52  75 107 142 179 210 262 323
#     4  10  22  36  53  83 108 144 179 221 265 326
#     4  11  22  34  48  71 109 139 174 221 252 310
#     4  10  21  36  56  79 112 140 181 219 270 320
#
# _framework density 17.507881999999999
#
# number of rings (size 3 to 8) (size 9 to 14) (size 15 to 20)
#    0.000    1.250    5.000    1.875    5.250    0.000 
#    0.000    0.000    0.000    0.000    0.000    1.750 
#    0.000    0.000    0.000    0.000    0.000    0.000 
#
# Total GULP energy -89165.021219 kJ/mol
# GULP energy per Si atom -5572.813826 kJ/mol
# Density = 1.746803 g / cm^3
# Si number density = 17.507882 Si / 1000 Ang^3
#
#
#
# Elastic Constant Matrix: (Units=GPa)
#
#
# Indices 1 2 3 4 5 6 
#
# 1 44.9357 12.9447 26.9099 -4.9972 7.1251 -14.9662
# 2 12.9447 70.5635 5.3791 -2.0747 5.0510 -1.3215
# 3 26.9099 5.3791 107.9060 -6.3344 21.0763 -3.3898
# 4 -4.9972 -2.0747 -6.3344 25.5979 2.7581 -1.1583
# 5 7.1251 5.0510 21.0763 2.7581 30.0586 -2.8737
# 6 -14.9662 -1.3215 -3.3898 -1.1583 -2.8737 19.4199
#
#
#
# Elastic Compliance Matrix: (Units=1/GPa)
#
#
# Indices 1 2 3 4 5 6 
#
# 1 0.039111 -0.005795 -0.008088 0.006513 -0.000485 0.028652
# 2 -0.005795 0.015267 0.001050 0.000454 -0.002310 -0.003559
# 3 -0.008088 0.001050 0.012750 0.002286 -0.007884 -0.004966
# 4 0.006513 0.000454 0.002286 0.041946 -0.006402 0.007004
# 5 -0.000485 -0.002310 -0.007884 -0.006402 0.040237 0.003666
# 6 0.028652 -0.003559 -0.004966 0.007004 0.003666 0.073426
#
#
# Mechanical properties :
#
#
# Convention : Reuss Voigt Hill
#
# Bulk Modulus (GPa) = 24.11857 34.87473 29.49665
# Shear Modulus (GPa) = 19.06776 26.89336 22.98056
#
# Velocity S-wave (km/s) = 3.30372 3.92353 3.62689
# Velocity P-wave (km/s) = 5.32527 6.36303 5.86714
#
# Compressibility (1/GPa) = 0.04146183
#
# Stress axis : x y z
#
# Youngs Moduli (GPa) = 25.56850 65.50173 78.43176
#
# Poissons Ratio (x) = 0.37961 0.63432
# Poissons Ratio (y) = 0.14818 -0.08237
# Poissons Ratio (z) = 0.20679 -0.06879
#
# Static dielectric constant tensor:
#      x y z
#    x 1.633770 0.023110 0.005500 
#    y 0.023110 1.680840 -0.013810 
#    z 0.005500 -0.013810 1.670470 
# 
# From -- ./inp_files/100913.got.cif
#   From: 2010.05.17/outbox.cif.g08.bks.cpg/sg2_51_cif.got.tgz:100913.got - 2010.06.03 11:33:40.
