data_PCOD9001226
_publ_section_title
;
Structure prediction by ZEFSAII (Michael W. Deem and Ramdas Pophale) SiO2 
 PCOD9001226
Probable space group: P -1
;
_chemical_formula_sum "Si O2"
_cell_formula_units_Z 14
_cell_length_a 11.164124
_cell_length_b 8.835425
_cell_length_c 25.661865
_cell_angle_alpha 140.551515
_cell_angle_beta 155.519063
_cell_angle_gamma 40.675087
_cell_volume 651.426362
_symmetry_space_group_name_H-M "P -1"
_symmetry_group_IT_number 2
_symmetry_cell_setting 'triclinic'
loop_
_space_group_symop_operation_xyz
x,y,z
-x,-y,-z
loop_
_atom_site_type_symbol
_atom_site_label
_atom_site_fract_x
_atom_site_fract_y
_atom_site_fract_z
Si Si1 0.251263 0.358614 0.348177
Si Si2 0.853714 0.765534 0.491633
Si Si3 0.226447 0.196037 0.753651
Si Si4 0.845977 0.709209 0.033098
Si Si5 0.793129 0.001526 0.683056
Si Si6 0.650788 0.878622 0.105762
Si Si7 0.310645 0.091354 0.645315
O O1 0.500000 0.500000 0.500000
O O2 0.151597 0.261681 0.337984
O O3 0.421418 0.130505 0.321860
O O4 0.007884 0.547661 0.271279
O O5 0.000000 0.500000 0.500000
O O6 0.550565 0.890959 0.434948
O O7 0.748595 0.736049 0.382576
O O8 0.066484 0.961596 0.627543
O O9 0.410968 0.187457 0.877479
O O10 0.369405 0.188586 0.751008
O O11 0.702145 0.679215 0.025782
O O12 0.597963 0.900638 0.955141
O O13 0.106718 0.837939 0.188597
O O14 0.000000 0.500000 0.000000
O O15 0.035275 0.032102 0.744591
O O16 0.000000 0.000000 0.500000
#
# Coordination Sequence:
#
# PCOD9001226 Si02
#       7
#     2   2   2   2   2   2   2
#     4  11  19  38  57  83 126 159 194 231 298 369
#     4  10  21  34  57  95 125 154 207 236 296 368
#     4  11  22  37  57  87 126 161 185 247 305 354
#     4   9  20  43  64  83 117 154 201 265 304 335
#     4   9  20  40  60  92 116 159 203 244 302 357
#     4   9  22  39  62  93 110 150 216 248 302 353
#     4   9  19  36  52  79 123 167 188 226 294 356
#
# _framework density 21.491301
#
# number of rings (size 3 to 8) (size 9 to 14) (size 15 to 20)
#    0.857    1.429    4.286    0.000    2.000    5.143 
#    2.571    0.714    0.000    4.286    0.000    0.000 
#    0.000    0.000    0.000    0.000    0.000    0.000 
#
# Total GULP energy -77944.373622 kJ/mol
# GULP energy per Si atom -5567.455259 kJ/mol
# Density = 2.144239 g / cm^3
# Si number density = 21.491301 Si / 1000 Ang^3
#
#
#
# Elastic Constant Matrix: (Units=GPa)
#
#
# Indices 1 2 3 4 5 6 
#
# 1 128.0052 44.2409 25.3735 -11.6146 -50.3470 -19.2144
# 2 44.2409 113.4837 20.3903 -21.4881 -21.8108 -4.5308
# 3 25.3735 20.3903 38.8815 -12.4723 -24.1632 -7.8478
# 4 -11.6146 -21.4881 -12.4723 32.9679 8.6312 -0.6432
# 5 -50.3470 -21.8108 -24.1632 8.6312 47.1525 -0.4020
# 6 -19.2144 -4.5308 -7.8478 -0.6432 -0.4020 29.9549
#
#
#
# Elastic Compliance Matrix: (Units=1/GPa)
#
#
# Indices 1 2 3 4 5 6 
#
# 1 0.017851 -0.003342 0.005680 0.001189 0.020316 0.012731
# 2 -0.003342 0.011461 -0.002698 0.005423 -0.000651 -0.001009
# 3 0.005680 -0.002698 0.047121 0.011308 0.027032 0.016186
# 4 0.001189 0.005423 0.011308 0.037970 0.002668 0.005397
# 5 0.020316 -0.000651 0.027032 0.002668 0.056141 0.020826
# 6 0.012731 -0.001009 0.016186 0.005397 0.020826 0.046033
#
#
# Mechanical properties :
#
#
# Convention : Reuss Voigt Hill
#
# Bulk Modulus (GPa) = 13.20780 51.15331 32.18056
# Shear Modulus (GPa) = 20.61569 34.70612 27.66091
#
# Velocity S-wave (km/s) = 3.10055 4.02293 3.59147
# Velocity P-wave (km/s) = 4.35624 6.74034 5.67490
#
# Compressibility (1/GPa) = 0.07571283
#
# Stress axis : x y z
#
# Youngs Moduli (GPa) = 56.01987 87.25421 21.22203
#
# Poissons Ratio (x) = 0.29156 -0.12054
# Poissons Ratio (y) = 0.18719 0.05726
# Poissons Ratio (z) = -0.31819 0.23542
#
# Static dielectric constant tensor:
#      x y z
#    x 1.912750 -0.043900 -0.014110 
#    y -0.043900 1.704500 0.045340 
#    z -0.014110 0.045340 1.796210 
# 
# From -- ./inp_files/618101.got.cif
#   From: 2010.05.17/outbox.cif.g08.bks.cpg/sg2_310_cif.got.tgz:618101.got - 2010.06.03 11:33:40.
