data_PCOD9001762
_publ_section_title
;
Structure prediction by ZEFSAII (Michael W. Deem and Ramdas Pophale) SiO2 
 PCOD9001762
Probable space group: P -1
;
_chemical_formula_sum "Si O2"
_cell_formula_units_Z 16
_cell_length_a 14.343704
_cell_length_b 6.496277
_cell_length_c 9.681787
_cell_angle_alpha 120.922880
_cell_angle_beta 76.599520
_cell_angle_gamma 106.227919
_cell_volume 738.820639
_symmetry_space_group_name_H-M "P -1"
_symmetry_group_IT_number 2
_symmetry_cell_setting 'triclinic'
loop_
_space_group_symop_operation_xyz
x,y,z
-x,-y,-z
loop_
_atom_site_type_symbol
_atom_site_label
_atom_site_fract_x
_atom_site_fract_y
_atom_site_fract_z
Si Si1 0.196037 0.945671 0.574562
Si Si2 0.800061 0.475249 0.945630
Si Si3 0.126714 0.983572 0.314944
Si Si4 0.540064 0.110939 0.376519
Si Si5 0.442009 0.391448 0.320926
Si Si6 0.952371 0.910341 0.133313
Si Si7 0.754391 0.555875 0.685169
Si Si8 0.359388 0.311505 0.771724
O O1 0.125487 0.934869 0.462086
O O2 0.249304 0.718418 0.459446
O O3 0.130722 0.943705 0.733715
O O4 0.282642 0.183659 0.637037
O O5 0.806133 0.193618 0.834743
O O6 0.804321 0.577220 0.824054
O O7 0.893215 0.632682 0.044679
O O8 0.702101 0.532363 0.063997
O O9 0.030806 0.933480 0.236943
O O10 0.178452 0.261731 0.376291
O O11 0.456664 0.144324 0.306869
O O12 0.580551 0.398941 0.491789
O O13 0.500000 0.000000 0.500000
O O14 0.609056 0.924106 0.245176
O O15 0.350525 0.368866 0.244353
O O16 0.542651 0.514938 0.255304
O O17 0.000000 0.000000 0.000000
#
# Coordination Sequence:
#
# PCOD9001762 Si02
#       8
#     2   2   2   2   2   2   2   2
#     4  10  24  41  67  97 125 163 216 260 315 375
#     4  10  24  44  64  91 127 166 212 258 323 375
#     4  11  24  42  66  92 129 167 208 261 320 380
#     4   9  19  34  57  86 120 164 208 255 299 361
#     4  10  21  35  62  92 126 168 212 252 314 366
#     4  11  22  48  68  92 125 167 207 266 323 380
#     4  11  23  41  63  96 128 167 207 262 311 378
#     4  10  21  40  63  93 127 168 211 264 303 371
#
# _framework density 21.656134000000002
#
# number of rings (size 3 to 8) (size 9 to 14) (size 15 to 20)
#    0.000    1.750    2.500    0.750    5.250    3.000 
#    6.750    1.250    0.000    0.000    0.000    0.000 
#    0.000    0.000    0.000    0.000    0.000    0.000 
#
# Total GULP energy -89236.458748 kJ/mol
# GULP energy per Si atom -5577.278672 kJ/mol
# Density = 2.160684 g / cm^3
# Si number density = 21.656134 Si / 1000 Ang^3
#
#
#
# Elastic Constant Matrix: (Units=GPa)
#
#
# Indices 1 2 3 4 5 6 
#
# 1 104.2513 19.1941 27.0823 -14.7105 0.3079 -13.4329
# 2 19.1941 55.3035 12.2266 -7.1139 -0.1986 -10.8856
# 3 27.0823 12.2266 66.9319 0.3888 -12.3602 0.5937
# 4 -14.7105 -7.1139 0.3888 19.1474 -3.1683 -0.3820
# 5 0.3079 -0.1986 -12.3602 -3.1683 33.3598 -2.0873
# 6 -13.4329 -10.8856 0.5937 -0.3820 -2.0873 31.8243
#
#
#
# Elastic Compliance Matrix: (Units=1/GPa)
#
#
# Indices 1 2 3 4 5 6 
#
# 1 0.013303 -0.001077 -0.005452 0.009895 -0.000871 0.005410
# 2 -0.001077 0.021605 -0.003628 0.007405 -0.000059 0.007088
# 3 -0.005452 -0.003628 0.019051 -0.004935 0.006397 -0.003537
# 4 0.009895 0.007405 -0.004935 0.063607 0.004658 0.007870
# 5 -0.000871 -0.000059 0.006397 0.004658 0.032903 0.001707
# 6 0.005410 0.007088 -0.003537 0.007870 0.001707 0.036403
#
#
# Mechanical properties :
#
#
# Convention : Reuss Voigt Hill
#
# Bulk Modulus (GPa) = 29.72208 38.16588 33.94398
# Shear Modulus (GPa) = 22.89365 28.06522 25.47943
#
# Velocity S-wave (km/s) = 3.25490 3.60383 3.43380
# Velocity P-wave (km/s) = 5.28017 5.91428 5.60620
#
# Compressibility (1/GPa) = 0.03364503
#
# Stress axis : x y z
#
# Youngs Moduli (GPa) = 75.17270 46.28476 52.49145
#
# Poissons Ratio (x) = 0.04985 0.28619
# Poissons Ratio (y) = 0.08097 0.19042
# Poissons Ratio (z) = 0.40986 0.16790
#
# Static dielectric constant tensor:
#      x y z
#    x 1.860220 -0.012200 0.034850 
#    y -0.012200 1.776930 -0.004860 
#    z 0.034850 -0.004860 1.799110 
# 
# From -- ./inp_files/289165.got.cif
#   From: 2010.05.17/outbox.cif.g08.bks.cpg/sg2_145_cif.got.tgz:289165.got - 2010.06.03 11:33:40.
