data_PCOD9001608
_publ_section_title
;
Structure prediction by ZEFSAII (Michael W. Deem and Ramdas Pophale) SiO2 
 PCOD9001608
Probable space group: P -1
;
_chemical_formula_sum "Si O2"
_cell_formula_units_Z 16
_cell_length_a 5.078159
_cell_length_b 12.935082
_cell_length_c 12.125471
_cell_angle_alpha 100.666959
_cell_angle_beta 82.195600
_cell_angle_gamma 80.773772
_cell_volume 761.265207
_symmetry_space_group_name_H-M "P -1"
_symmetry_group_IT_number 2
_symmetry_cell_setting 'triclinic'
loop_
_space_group_symop_operation_xyz
x,y,z
-x,-y,-z
loop_
_atom_site_type_symbol
_atom_site_label
_atom_site_fract_x
_atom_site_fract_y
_atom_site_fract_z
Si Si1 0.553260 0.142172 0.923741
Si Si2 0.024058 0.588589 0.423978
Si Si3 0.792635 0.091540 0.681733
Si Si4 0.337810 0.947875 0.649515
Si Si5 0.343399 0.368631 0.932242
Si Si6 0.559983 0.260312 0.547668
Si Si7 0.250212 0.945193 0.899936
Si Si8 0.829626 0.466560 0.841230
O O1 0.792262 0.124769 0.817145
O O2 0.341958 0.244037 0.916512
O O3 0.437801 0.033937 0.902833
O O4 0.625268 0.154679 0.049573
O O5 0.737587 0.665798 0.424872
O O6 0.000000 0.500000 0.500000
O O7 0.226016 0.663309 0.471235
O O8 0.145291 0.533760 0.291558
O O9 0.661618 0.197089 0.642331
O O10 0.591766 0.007284 0.659820
O O11 0.095477 0.032752 0.623297
O O12 0.420244 0.838225 0.557450
O O13 0.218604 0.920024 0.769523
O O14 0.631536 0.388309 0.876997
O O15 0.121453 0.425462 0.870613
O O16 0.287136 0.423280 0.066197
O O17 0.000000 0.000000 0.000000
#
# Coordination Sequence:
#
# PCOD9001608 Si02
#       8
#     2   2   2   2   2   2   2   2
#     4  10  21  35  59  89 120 166 199 238 310 364
#     4  12  26  45  66  89 129 166 214 260 316 370
#     4  11  21  38  65  92 128 157 203 257 305 366
#     4  11  23  40  62  92 129 162 205 254 302 368
#     4  10  22  39  67  95 121 157 206 259 313 364
#     4  12  25  43  66  93 119 169 213 255 311 371
#     4  10  21  38  54  86 130 160 198 242 293 370
#     4  10  22  43  63  94 124 151 206 270 310 359
#
# _framework density 21.017645000000002
#
# number of rings (size 3 to 8) (size 9 to 14) (size 15 to 20)
#    0.000    1.250    1.250    4.875    1.750    2.000 
#    2.250    0.000    0.000    0.000    0.000    0.000 
#    0.000    0.000    0.000    0.000    0.000    0.000 
#
# Total GULP energy -89349.066092 kJ/mol
# GULP energy per Si atom -5584.316631 kJ/mol
# Density = 2.096981 g / cm^3
# Si number density = 21.017645 Si / 1000 Ang^3
#
#
#
# Elastic Constant Matrix: (Units=GPa)
#
#
# Indices 1 2 3 4 5 6 
#
# 1 72.4136 7.5227 -5.5839 9.9097 -3.3684 5.7036
# 2 7.5227 82.1642 51.6122 3.4374 -2.6135 6.6291
# 3 -5.5839 51.6122 103.0740 -6.6532 -4.4962 -14.8014
# 4 9.9097 3.4374 -6.6532 20.1224 -1.1231 -3.3615
# 5 -3.3684 -2.6135 -4.4962 -1.1231 21.9142 2.3391
# 6 5.7036 6.6291 -14.8014 -3.3615 2.3391 22.2616
#
#
#
# Elastic Compliance Matrix: (Units=1/GPa)
#
#
# Indices 1 2 3 4 5 6 
#
# 1 0.015541 -0.000458 -0.000150 -0.008402 0.002457 -0.005472
# 2 -0.000458 0.024175 -0.015672 -0.012280 0.001046 -0.019466
# 3 -0.000150 -0.015672 0.021446 0.013385 0.000965 0.020884
# 4 -0.008402 -0.012280 0.013385 0.064466 0.000693 0.024370
# 5 0.002457 0.001046 0.000965 0.000693 0.046915 -0.005124
# 6 -0.005472 -0.019466 0.020884 0.024370 -0.005124 0.070223
#
#
# Mechanical properties :
#
#
# Convention : Reuss Voigt Hill
#
# Bulk Modulus (GPa) = 34.96221 40.52821 37.74521
# Shear Modulus (GPa) = 17.55255 26.46635 22.00945
#
# Velocity S-wave (km/s) = 2.89300 3.55243 3.23954
# Velocity P-wave (km/s) = 5.27542 6.01259 5.65603
#
# Compressibility (1/GPa) = 0.02860231
#
# Stress axis : x y z
#
# Youngs Moduli (GPa) = 64.34772 41.36559 46.62853
#
# Poissons Ratio (x) = 0.01893 0.00699
# Poissons Ratio (y) = 0.02944 0.73076
# Poissons Ratio (z) = 0.00964 0.64828
#
# Static dielectric constant tensor:
#      x y z
#    x 1.579360 -0.084710 0.095690 
#    y -0.084710 1.723280 0.013570 
#    z 0.095690 0.013570 1.789360 
# 
# From -- ./inp_files/363047.got.cif
#   From: 2010.05.17/outbox.cif.g08.bks.cpg/sg2_182_cif.got.tgz:363047.got - 2010.06.03 11:33:40.
