data_PCOD9001171
_publ_section_title
;
Structure prediction by ZEFSAII (Michael W. Deem and Ramdas Pophale) SiO2 
 PCOD9001171
Probable space group: P -1
;
_chemical_formula_sum "Si O2"
_cell_formula_units_Z 14
_cell_length_a 11.574794
_cell_length_b 5.347904
_cell_length_c 15.932210
_cell_angle_alpha 91.370945
_cell_angle_beta 49.922197
_cell_angle_gamma 102.535811
_cell_volume 727.726065
_symmetry_space_group_name_H-M "P -1"
_symmetry_group_IT_number 2
_symmetry_cell_setting 'triclinic'
loop_
_space_group_symop_operation_xyz
x,y,z
-x,-y,-z
loop_
_atom_site_type_symbol
_atom_site_label
_atom_site_fract_x
_atom_site_fract_y
_atom_site_fract_z
Si Si1 0.294551 0.815789 0.650059
Si Si2 0.046752 0.489253 0.657338
Si Si3 0.476017 0.287633 0.312779
Si Si4 0.681329 0.336964 0.861730
Si Si5 0.494524 0.244854 0.113257
Si Si6 0.510764 0.698045 0.420146
Si Si7 0.876506 0.983003 0.482262
O O1 0.135520 0.608205 0.702753
O O2 0.397723 0.756852 0.678596
O O3 0.382893 0.832919 0.517994
O O4 0.314023 0.117701 0.661238
O O5 0.107512 0.253397 0.588331
O O6 0.863290 0.388302 0.758986
O O7 0.077930 0.738011 0.582534
O O8 0.536730 0.284108 0.191048
O O9 0.461592 0.567431 0.353600
O O10 0.302418 0.097218 0.401168
O O11 0.617398 0.568380 0.854598
O O12 0.591754 0.056703 0.864205
O O13 0.636105 0.322327 0.981321
O O14 0.500000 0.500000 0.500000
O O15 0.000000 0.000000 0.500000
#
# Coordination Sequence:
#
# PCOD9001171 Si02
#       7
#     2   2   2   2   2   2   2
#     4  10  21  34  55  85 118 164 194 235 295 359
#     4  12  23  39  60  86 124 156 192 244 301 354
#     4  11  22  36  59  88 122 157 200 243 293 356
#     4  10  22  44  64  87 114 159 202 245 301 346
#     4  10  23  42  67  86 115 156 205 247 291 356
#     4   9  17  33  50  76 117 156 194 222 277 354
#     4  12  25  37  58  90 124 154 194 246 299 351
#
# _framework density 19.238008000000001
#
# number of rings (size 3 to 8) (size 9 to 14) (size 15 to 20)
#    0.000    1.429    1.429    5.571    4.000    0.000 
#    0.000    0.714    0.000    0.857    0.000    0.000 
#    0.000    0.000    0.000    0.000    0.000    0.000 
#
# Total GULP energy -78017.252786 kJ/mol
# GULP energy per Si atom -5572.660913 kJ/mol
# Density = 1.919422 g / cm^3
# Si number density = 19.238008 Si / 1000 Ang^3
#
#
#
# Elastic Constant Matrix: (Units=GPa)
#
#
# Indices 1 2 3 4 5 6 
#
# 1 76.9244 -3.3296 21.2673 3.6463 22.5417 12.0432
# 2 -3.3296 71.4199 14.8974 4.8545 12.5443 3.7751
# 3 21.2673 14.8974 55.8015 12.8894 23.5104 6.0378
# 4 3.6463 4.8545 12.8894 19.1317 11.2525 2.0521
# 5 22.5417 12.5443 23.5104 11.2525 28.6118 6.8080
# 6 12.0432 3.7751 6.0378 2.0521 6.8080 30.7872
#
#
#
# Elastic Compliance Matrix: (Units=1/GPa)
#
#
# Indices 1 2 3 4 5 6 
#
# 1 0.019053 0.004061 -0.002616 0.007249 -0.016474 -0.004278
# 2 0.004061 0.016178 -0.002535 0.002101 -0.008730 -0.001285
# 3 -0.002616 -0.002535 0.028730 -0.008057 -0.017280 0.000058
# 4 0.007249 0.002101 -0.008057 0.072576 -0.028546 -0.000038
# 5 -0.016474 -0.008730 -0.017280 -0.028546 0.078254 -0.004498
# 6 -0.004278 -0.001285 0.000058 -0.000038 -0.004498 0.035298
#
#
# Mechanical properties :
#
#
# Convention : Reuss Voigt Hill
#
# Bulk Modulus (GPa) = 16.18648 29.97954 23.08301
# Shear Modulus (GPa) = 18.32430 27.12686 22.72558
#
# Velocity S-wave (km/s) = 3.08962 3.75916 3.44071
# Velocity P-wave (km/s) = 4.59997 5.87018 5.27346
#
# Compressibility (1/GPa) = 0.06177995
#
# Stress axis : x y z
#
# Youngs Moduli (GPa) = 52.48651 61.81149 34.80722
#
# Poissons Ratio (x) = -0.25101 0.09106
# Poissons Ratio (y) = -0.21314 0.08824
# Poissons Ratio (z) = 0.13731 0.15669
#
# Static dielectric constant tensor:
#      x y z
#    x 1.741410 -0.058040 -0.021650 
#    y -0.058040 1.913560 -0.009380 
#    z -0.021650 -0.009380 1.646950 
# 
# From -- ./inp_files/64716.got.cif
#   From: 2010.05.17/outbox.cif.g08.bks.cpg/sg2_33_cif.got.tgz:64716.got - 2010.06.03 11:33:40.
