data_PCOD9001380
_publ_section_title
;
Structure prediction by ZEFSAII (Michael W. Deem and Ramdas Pophale) SiO2 
 PCOD9001380
Probable space group: P -1
;
_chemical_formula_sum "Si O2"
_cell_formula_units_Z 16
_cell_length_a 10.044007
_cell_length_b 9.506827
_cell_length_c 14.873864
_cell_angle_alpha 51.620034
_cell_angle_beta 102.958341
_cell_angle_gamma 136.284123
_cell_volume 700.237990
_symmetry_space_group_name_H-M "P -1"
_symmetry_group_IT_number 2
_symmetry_cell_setting 'triclinic'
loop_
_space_group_symop_operation_xyz
x,y,z
-x,-y,-z
loop_
_atom_site_type_symbol
_atom_site_label
_atom_site_fract_x
_atom_site_fract_y
_atom_site_fract_z
Si Si1 0.272565 0.263667 0.348246
Si Si2 0.858767 0.420842 0.383425
Si Si3 0.847101 0.073553 0.380884
Si Si4 0.706929 0.054918 0.653886
Si Si5 0.537371 0.746630 0.924095
Si Si6 0.930624 0.411575 0.127217
Si Si7 0.364570 0.687557 0.100311
Si Si8 0.009636 0.212385 0.886850
O O1 0.423677 0.577685 0.214331
O O2 0.039076 0.123587 0.371930
O O3 0.312603 0.210388 0.471320
O O4 0.275166 0.113338 0.331631
O O5 0.892675 0.283123 0.376732
O O6 0.684119 0.187565 0.523007
O O7 0.072062 0.678462 0.368788
O O8 0.834370 0.569683 0.256809
O O9 0.769681 0.101545 0.267440
O O10 0.542490 0.860299 0.786653
O O11 0.769271 0.010362 0.898541
O O12 0.500000 0.500000 0.000000
O O13 0.371344 0.636300 0.018046
O O14 0.136899 0.528070 0.157330
O O15 0.921553 0.596862 0.095427
O O16 0.000000 0.500000 0.000000
O O17 0.500000 0.000000 0.000000
O O18 0.000000 0.000000 0.000000
#
# Coordination Sequence:
#
# PCOD9001380 Si02
#       8
#     2   2   2   2   2   2   2   2
#     4   9  16  28  49  74 100 132 169 215 255 300
#     4   8  16  30  48  72 101 133 168 214 256 298
#     4   8  16  30  48  73  99 131 175 211 254 301
#     4   9  16  28  48  75 103 128 169 215 255 302
#     4  11  21  34  54  83 106 137 174 214 264 313
#     4  10  21  35  55  77 104 141 175 215 259 308
#     4  11  21  36  54  77 108 140 174 214 262 313
#     4  10  21  35  54  78 107 137 174 217 259 310
#
# _framework density 22.849375999999999
#
# number of rings (size 3 to 8) (size 9 to 14) (size 15 to 20)
#    0.000    2.500    2.500    0.000    3.500    1.000 
#    0.000    0.000    0.000    3.000    0.000    0.000 
#    0.000    0.000    0.000    0.000    0.000    0.000 
#
# Total GULP energy -89096.723369 kJ/mol
# GULP energy per Si atom -5568.545211 kJ/mol
# Density = 2.279737 g / cm^3
# Si number density = 22.849376 Si / 1000 Ang^3
#
#
#
# Elastic Constant Matrix: (Units=GPa)
#
#
# Indices 1 2 3 4 5 6 
#
# 1 53.1127 10.6033 26.5499 -0.9302 6.5826 -13.8347
# 2 10.6033 63.1243 43.1549 3.4434 7.4103 -12.2335
# 3 26.5499 43.1549 258.5213 12.1270 21.5674 -29.5105
# 4 -0.9302 3.4434 12.1270 35.0984 -6.8061 0.3800
# 5 6.5826 7.4103 21.5674 -6.8061 27.6796 -1.4104
# 6 -13.8347 -12.2335 -29.5105 0.3800 -1.4104 29.4793
#
#
#
# Elastic Compliance Matrix: (Units=1/GPa)
#
#
# Indices 1 2 3 4 5 6 
#
# 1 0.022264 -0.001003 -0.000756 0.000085 -0.003953 0.009085
# 2 -0.001003 0.018945 -0.002100 -0.001874 -0.003395 0.005150
# 3 -0.000756 -0.002100 0.005141 -0.002338 -0.003646 0.003776
# 4 0.000085 -0.001874 -0.002338 0.031434 0.009879 -0.003011
# 5 -0.003953 -0.003395 -0.003646 0.009879 0.042993 -0.004985
# 6 0.009085 0.005150 0.003776 -0.003011 -0.004985 0.043904
#
#
# Mechanical properties :
#
#
# Convention : Reuss Voigt Hill
#
# Bulk Modulus (GPa) = 25.88535 59.48606 42.68571
# Shear Modulus (GPa) = 26.98667 38.08148 32.53407
#
# Velocity S-wave (km/s) = 3.44040 4.08687 3.77749
# Velocity P-wave (km/s) = 5.20913 6.95417 6.14392
#
# Compressibility (1/GPa) = 0.03863188
#
# Stress axis : x y z
#
# Youngs Moduli (GPa) = 44.91554 52.78413 194.50031
#
# Poissons Ratio (x) = 0.05292 0.14708
# Poissons Ratio (y) = 0.04503 0.40854
# Poissons Ratio (z) = 0.03397 0.11087
#
# Static dielectric constant tensor:
#      x y z
#    x 1.914670 0.096790 -0.086780 
#    y 0.096790 1.853420 -0.058520 
#    z -0.086780 -0.058520 2.892470 
# 
# From -- ./inp_files/175312.got.cif
#   From: 2010.05.17/outbox.cif.g08.bks.cpg/sg2_88_cif.got.tgz:175312.got - 2010.06.03 11:33:40.
