data_PCOD9001236
_publ_section_title
;
Structure prediction by ZEFSAII (Michael W. Deem and Ramdas Pophale) SiO2 
 PCOD9001236
Probable space group: P -1
;
_chemical_formula_sum "Si O2"
_cell_formula_units_Z 16
_cell_length_a 12.027953
_cell_length_b 14.654130
_cell_length_c 23.377618
_cell_angle_alpha 29.250002
_cell_angle_beta 152.860822
_cell_angle_gamma 151.204329
_cell_volume 820.973785
_symmetry_space_group_name_H-M "P -1"
_symmetry_group_IT_number 2
_symmetry_cell_setting 'triclinic'
loop_
_space_group_symop_operation_xyz
x,y,z
-x,-y,-z
loop_
_atom_site_type_symbol
_atom_site_label
_atom_site_fract_x
_atom_site_fract_y
_atom_site_fract_z
Si Si1 0.648480 0.283894 0.148217
Si Si2 0.283644 0.096572 0.244373
Si Si3 0.122382 0.033568 0.764687
Si Si4 0.806938 0.316045 0.075265
Si Si5 0.568461 0.451092 0.797847
Si Si6 0.147389 0.938647 0.151477
Si Si7 0.417242 0.107030 0.455572
Si Si8 0.259662 0.496379 0.817448
O O1 0.774407 0.273810 0.150786
O O2 0.815853 0.415878 0.207299
O O3 0.461163 0.054269 0.213111
O O4 0.456404 0.394234 0.983116
O O5 0.553986 0.313799 0.242242
O O6 0.122086 0.050451 0.136346
O O7 0.400341 0.924619 0.394999
O O8 0.082410 0.075916 0.215506
O O9 0.344295 0.254680 0.768523
O O10 0.246352 0.886740 0.876517
O O11 0.910995 0.024488 0.622896
O O12 0.124008 0.479309 0.122378
O O13 0.602010 0.396489 0.909089
O O14 0.516404 0.653786 0.655662
O O15 0.003298 0.691066 0.227104
O O16 0.000000 0.000000 0.000000
O O17 0.500000 0.000000 0.500000
#
# Coordination Sequence:
#
# PCOD9001236 Si02
#       8
#     2   2   2   2   2   2   2   2
#     4   9  19  34  52  79 113 143 179 230 281 332
#     4  10  21  34  58  83 118 146 180 236 277 331
#     4  10  22  37  54  85 116 152 193 222 276 345
#     4  10  22  36  56  83 119 151 182 234 281 337
#     4  10  22  37  53  83 116 153 191 222 278 335
#     4   9  19  34  53  85 109 142 184 230 283 337
#     4   9  21  37  53  81 115 151 193 231 270 331
#     4   9  19  34  53  79 110 145 181 229 284 327
#
# _framework density 19.489051
#
# number of rings (size 3 to 8) (size 9 to 14) (size 15 to 20)
#    0.000    2.500    0.000    1.125   10.500    4.000 
#    0.000    0.000    0.000   12.000    0.000   14.000 
#    0.000    0.000    0.000    0.000    0.000    0.000 
#
# Total GULP energy -89068.777569 kJ/mol
# GULP energy per Si atom -5566.798598 kJ/mol
# Density = 1.944469 g / cm^3
# Si number density = 19.489051 Si / 1000 Ang^3
#
#
#
# Elastic Constant Matrix: (Units=GPa)
#
#
# Indices 1 2 3 4 5 6 
#
# 1 109.9610 37.3829 2.8785 -9.9873 -3.1797 -6.5179
# 2 37.3829 134.8110 10.4720 -24.4234 7.0775 -6.8626
# 3 2.8785 10.4720 62.9056 -14.9464 12.4965 -7.1242
# 4 -9.9873 -24.4234 -14.9464 20.3649 -5.4666 -5.6855
# 5 -3.1797 7.0775 12.4965 -5.4666 12.5768 -1.7472
# 6 -6.5179 -6.8626 -7.1242 -5.6855 -1.7472 16.3492
#
#
#
# Elastic Compliance Matrix: (Units=1/GPa)
#
#
# Indices 1 2 3 4 5 6 
#
# 1 0.011082 -0.001552 0.001308 0.008782 0.007328 0.008173
# 2 -0.001552 0.011924 0.004657 0.020441 -0.000981 0.013419
# 3 0.001308 0.004657 0.027252 0.029003 -0.013568 0.022987
# 4 0.008782 0.020441 0.029003 0.126363 0.026760 0.071523
# 5 0.007328 -0.000981 -0.013568 0.026760 0.109475 0.017603
# 6 0.008173 0.013419 0.022987 0.071523 0.017603 0.106827
#
#
# Mechanical properties :
#
#
# Convention : Reuss Voigt Hill
#
# Bulk Modulus (GPa) = 16.92521 45.46049 31.19285
# Shear Modulus (GPa) = 12.38266 26.98778 19.68522
#
# Velocity S-wave (km/s) = 2.52338 3.72528 3.18160
# Velocity P-wave (km/s) = 4.14647 6.47151 5.43478
#
# Compressibility (1/GPa) = 0.05908347
#
# Stress axis : x y z
#
# Youngs Moduli (GPa) = 90.23967 83.86274 36.69514
#
# Poissons Ratio (x) = 0.13017 -0.04799
# Poissons Ratio (y) = 0.14007 -0.17090
# Poissons Ratio (z) = -0.11801 -0.39058
#
# Static dielectric constant tensor:
#      x y z
#    x 1.747210 -0.009930 -0.052290 
#    y -0.009930 1.731340 0.006400 
#    z -0.052290 0.006400 1.780810 
# 
# From -- ./inp_files/610449.got.cif
#   From: 2010.05.17/outbox.cif.g08.bks.cpg/sg2_306_cif.got.tgz:610449.got - 2010.06.03 11:33:40.
