data_PCOD9001709
_publ_section_title
;
Structure prediction by ZEFSAII (Michael W. Deem and Ramdas Pophale) SiO2 
 PCOD9001709
Probable space group: P -1
;
_chemical_formula_sum "Si O2"
_cell_formula_units_Z 16
_cell_length_a 12.356996
_cell_length_b 10.479999
_cell_length_c 8.231461
_cell_angle_alpha 76.674873
_cell_angle_beta 83.090553
_cell_angle_gamma 41.382261
_cell_volume 683.430023
_symmetry_space_group_name_H-M "P -1"
_symmetry_group_IT_number 2
_symmetry_cell_setting 'triclinic'
loop_
_space_group_symop_operation_xyz
x,y,z
-x,-y,-z
loop_
_atom_site_type_symbol
_atom_site_label
_atom_site_fract_x
_atom_site_fract_y
_atom_site_fract_z
Si Si1 0.268918 0.637586 0.540460
Si Si2 0.252836 0.303449 0.963973
Si Si3 0.353213 0.993621 0.617943
Si Si4 0.075418 0.433247 0.260397
Si Si5 0.427042 0.204673 0.653525
Si Si6 0.457741 0.569506 0.224310
Si Si7 0.002688 0.272496 0.580014
Si Si8 0.571786 0.646358 0.932621
O O1 0.334571 0.426795 0.595227
O O2 0.350383 0.651264 0.380129
O O3 0.351842 0.619094 0.694986
O O4 0.085234 0.771387 0.475634
O O5 0.407094 0.166813 0.851965
O O6 0.096175 0.406529 0.855325
O O7 0.217877 0.268157 0.154170
O O8 0.266710 0.440195 0.987550
O O9 0.412362 0.911806 0.448628
O O10 0.488179 0.824199 0.773215
O O11 0.342057 0.161344 0.584098
O O12 0.183463 0.078101 0.669964
O O13 0.044288 0.343551 0.415535
O O14 0.094047 0.555364 0.316149
O O15 0.401160 0.505721 0.134795
O O16 0.453176 0.707088 0.083089
#
# Coordination Sequence:
#
# PCOD9001709 Si02
#       8
#     2   2   2   2   2   2   2   2
#     4  11  20  41  69  87 113 163 222 256 296 350
#     4  11  21  37  59  95 122 164 203 255 302 366
#     4  11  25  37  60  95 133 163 194 245 328 381
#     4  10  21  35  61  91 129 157 208 244 308 384
#     4  11  21  41  60  94 127 162 202 249 306 382
#     4  10  22  39  66  89 109 163 229 261 278 355
#     4  11  20  40  60  90 125 168 196 254 311 369
#     4  11  22  39  60  88 125 161 208 255 304 354
#
# _framework density 23.411321999999998
#
# number of rings (size 3 to 8) (size 9 to 14) (size 15 to 20)
#    0.000    1.250    5.000    1.500    3.500    0.500 
#    0.000    1.250    0.000    0.000    0.000    0.000 
#    0.000    0.000    0.000    0.000    0.000    0.000 
#
# Total GULP energy -89134.045989 kJ/mol
# GULP energy per Si atom -5570.877874 kJ/mol
# Density = 2.335804 g / cm^3
# Si number density = 23.411322 Si / 1000 Ang^3
#
#
#
# Elastic Constant Matrix: (Units=GPa)
#
#
# Indices 1 2 3 4 5 6 
#
# 1 100.8834 -5.4121 5.8518 0.0547 18.8625 -7.7714
# 2 -5.4121 32.2912 18.2830 9.8280 -4.2286 -4.3593
# 3 5.8518 18.2830 142.9214 21.3222 -19.9747 -2.3174
# 4 0.0547 9.8280 21.3222 34.2886 -2.7213 0.1388
# 5 18.8625 -4.2286 -19.9747 -2.7213 45.4807 -2.6898
# 6 -7.7714 -4.3593 -2.3174 0.1388 -2.6898 23.7598
#
#
#
# Elastic Compliance Matrix: (Units=1/GPa)
#
#
# Indices 1 2 3 4 5 6 
#
# 1 0.011310 0.002602 -0.001373 -0.000310 -0.004864 0.003494
# 2 0.002602 0.036994 -0.003334 -0.008499 0.000828 0.007457
# 3 -0.001373 -0.003334 0.008630 -0.004106 0.003818 0.000237
# 4 -0.000310 -0.008499 -0.004106 0.034119 -0.000561 -0.002324
# 5 -0.004864 0.000828 0.003818 -0.000561 0.025835 0.001862
# 6 0.003494 0.007457 0.000237 -0.002324 0.001862 0.044846
#
#
# Mechanical properties :
#
#
# Convention : Reuss Voigt Hill
#
# Bulk Modulus (GPa) = 18.96665 34.83790 26.90228
# Shear Modulus (GPa) = 27.24520 37.86406 32.55463
#
# Velocity S-wave (km/s) = 3.41510 4.02598 3.73305
# Velocity P-wave (km/s) = 4.86514 6.04355 5.48607
#
# Compressibility (1/GPa) = 0.05272411
#
# Stress axis : x y z
#
# Youngs Moduli (GPa) = 88.41440 27.03142 115.87988
#
# Poissons Ratio (x) = -0.07034 0.15907
# Poissons Ratio (y) = -0.23007 0.38638
# Poissons Ratio (z) = 0.12137 0.09013
#
# Static dielectric constant tensor:
#      x y z
#    x 1.929840 -0.064130 0.033830 
#    y -0.064130 1.970430 -0.000020 
#    z 0.033830 -0.000020 1.955760 
# 
# From -- ./inp_files/258025.got.cif
#   From: 2010.05.17/outbox.cif.g08.bks.cpg/sg2_130_cif.got.tgz:258025.got - 2010.06.03 11:33:40.
