data_PCOD9001347
_publ_section_title
;
Structure prediction by ZEFSAII (Michael W. Deem and Ramdas Pophale) SiO2 
 PCOD9001347
Probable space group: P -1
;
_chemical_formula_sum "Si O2"
_cell_formula_units_Z 15
_cell_length_a 21.228008
_cell_length_b 7.117006
_cell_length_c 7.567637
_cell_angle_alpha 139.984846
_cell_angle_beta 107.754396
_cell_angle_gamma 60.013564
_cell_volume 630.488098
_symmetry_space_group_name_H-M "P -1"
_symmetry_group_IT_number 2
_symmetry_cell_setting 'triclinic'
loop_
_space_group_symop_operation_xyz
x,y,z
-x,-y,-z
loop_
_atom_site_type_symbol
_atom_site_label
_atom_site_fract_x
_atom_site_fract_y
_atom_site_fract_z
Si Si1 0.478815 0.635755 0.358433
Si Si2 0.681500 0.182825 0.521024
Si Si3 0.564047 0.006558 0.792885
Si Si4 0.125703 0.692213 0.218759
Si Si5 0.054978 0.554752 0.392236
Si Si6 0.709069 0.782064 0.929993
Si Si7 0.000000 0.000000 0.000000
Si Si8 0.160188 0.292896 0.611811
O O1 0.397722 0.779269 0.469324
O O2 0.464375 0.803544 0.275574
O O3 0.536823 0.729223 0.573080
O O4 0.520397 0.255046 0.087838
O O5 0.693478 0.094625 0.260616
O O6 0.751739 0.876293 0.439557
O O7 0.688076 0.512194 0.811840
O O8 0.650824 0.892813 0.802087
O O9 0.070556 0.664394 0.294474
O O10 0.137047 0.019398 0.468383
O O11 0.204122 0.409267 0.152120
O O12 0.124693 0.595210 0.938055
O O13 0.127585 0.402594 0.470037
O O14 0.026312 0.279387 0.154313
O O15 0.005205 0.850250 0.691319
#
# Coordination Sequence:
#
# PCOD9001347 Si02
#       8
#     2   2   2   2   2   2   1   2
#     4  10  21  35  51  75 109 147 191 236 289 354
#     4  10  21  36  55  82 110 142 195 245 284 348
#     4  10  21  35  51  75 109 147 191 236 289 354
#     4  10  22  40  63  94 123 158 209 248 297 363
#     4  11  22  44  68  88 132 167 184 259 294 342
#     4  10  21  36  55  82 110 142 195 245 284 348
#     4  10  24  42  64 102 124 154 220 224 284 382
#     4  10  22  40  63  94 123 158 209 248 297 363
#
# _framework density 23.791091000000002
#
# number of rings (size 3 to 8) (size 9 to 14) (size 15 to 20)
#    0.000    1.867    0.000    3.200    1.867    3.200 
#    0.000   13.333    0.000    0.000    0.000    0.000 
#    0.000    0.000    0.000    0.000    0.000    0.000 
#
# Total GULP energy -83633.735962 kJ/mol
# GULP energy per Si atom -5575.582397 kJ/mol
# Density = 2.373694 g / cm^3
# Si number density = 23.791091 Si / 1000 Ang^3
#
#
#
# Elastic Constant Matrix: (Units=GPa)
#
#
# Indices 1 2 3 4 5 6 
#
# 1 68.8543 -3.0946 15.3483 -9.3797 -0.0068 13.4547
# 2 -3.0946 55.1795 -1.0845 -18.9884 3.5882 7.8574
# 3 15.3483 -1.0845 120.7248 12.5790 17.1408 11.0922
# 4 -9.3797 -18.9884 12.5790 33.9100 -4.8578 6.5033
# 5 -0.0068 3.5882 17.1408 -4.8578 28.6359 -9.3311
# 6 13.4547 7.8574 11.0922 6.5033 -9.3311 40.9851
#
#
#
# Elastic Compliance Matrix: (Units=1/GPa)
#
#
# Indices 1 2 3 4 5 6 
#
# 1 0.018503 0.005949 -0.002704 0.011039 0.000073 -0.008218
# 2 0.005949 0.026424 -0.001077 0.018403 -0.002902 -0.010308
# 3 -0.002704 -0.001077 0.010636 -0.005944 -0.008117 -0.002689
# 4 0.011039 0.018403 -0.005944 0.048132 0.005535 -0.011920
# 5 0.000073 -0.002902 -0.008117 0.005535 0.045026 0.012102
# 6 -0.008218 -0.010308 -0.002689 -0.011920 0.012102 0.034448
#
#
# Mechanical properties :
#
#
# Convention : Reuss Voigt Hill
#
# Bulk Modulus (GPa) = 16.69507 29.67745 23.18626
# Shear Modulus (GPa) = 25.15068 36.27883 30.71476
#
# Velocity S-wave (km/s) = 3.25491 3.90922 3.59697
# Velocity P-wave (km/s) = 4.59984 5.73387 5.19787
#
# Compressibility (1/GPa) = 0.05989792
#
# Stress axis : x y z
#
# Youngs Moduli (GPa) = 54.04462 37.84374 94.01757
#
# Poissons Ratio (x) = -0.22512 0.25426
# Poissons Ratio (y) = -0.32149 0.10129
# Poissons Ratio (z) = 0.14616 0.04077
#
# Static dielectric constant tensor:
#      x y z
#    x 1.878100 -0.157830 -0.044760 
#    y -0.157830 2.242400 0.093420 
#    z -0.044760 0.093420 1.910390 
# 
# From -- ./inp_files/343153.got.cif
#   From: 2010.05.17/outbox.cif.g08.bks.cpg/sg2_172_cif.got.tgz:343153.got - 2010.06.03 11:33:40.
