data_PCOD9001200
_publ_section_title
;
Structure prediction by ZEFSAII (Michael W. Deem and Ramdas Pophale) SiO2 
 PCOD9001200
Probable space group: P -1
;
_chemical_formula_sum "Si O2"
_cell_formula_units_Z 14
_cell_length_a 7.619868
_cell_length_b 13.237367
_cell_length_c 12.045436
_cell_angle_alpha 43.073063
_cell_angle_beta 129.235800
_cell_angle_gamma 122.724543
_cell_volume 635.556062
_symmetry_space_group_name_H-M "P -1"
_symmetry_group_IT_number 2
_symmetry_cell_setting 'triclinic'
loop_
_space_group_symop_operation_xyz
x,y,z
-x,-y,-z
loop_
_atom_site_type_symbol
_atom_site_label
_atom_site_fract_x
_atom_site_fract_y
_atom_site_fract_z
Si Si1 0.741258 0.831121 0.217095
Si Si2 0.879286 0.372297 0.789541
Si Si3 0.358875 0.898273 0.184077
Si Si4 0.320660 0.615496 0.830600
Si Si5 0.345372 0.510461 0.596349
Si Si6 0.243998 0.587064 0.061743
Si Si7 0.755054 0.214874 0.539210
O O1 0.574969 0.848455 0.242375
O O2 0.705632 0.667178 0.279459
O O3 0.010489 0.849394 0.340245
O O4 0.681656 0.946419 0.008395
O O5 0.875057 0.217623 0.846540
O O6 0.700674 0.445636 0.583337
O O7 0.788846 0.319367 0.917339
O O8 0.088962 0.503446 0.791346
O O9 0.380210 0.880916 0.338990
O O10 0.362589 0.749115 0.652006
O O11 0.500000 0.500000 0.000000
O O12 0.322503 0.672191 0.912392
O O13 0.596432 0.532642 0.735194
O O14 0.203981 0.616339 0.525540
O O15 0.000000 0.500000 0.000000
#
# Coordination Sequence:
#
# PCOD9001200 Si02
#       7
#     2   2   2   2   2   2   2
#     4  11  22  40  60  99 123 160 208 261 313 358
#     4  10  21  38  62  94 113 160 212 259 306 359
#     4  10  24  38  65  91 129 161 203 265 308 367
#     4  11  22  36  57  93 127 159 197 261 314 367
#     4  11  20  35  67  92 119 153 212 266 303 357
#     4  10  21  34  56  91 125 155 196 259 312 363
#     4  11  23  38  61  94 125 160 205 259 312 362
#
# _framework density 22.027953
#
# number of rings (size 3 to 8) (size 9 to 14) (size 15 to 20)
#    0.000    1.429    4.286    1.286    4.000    0.000 
#    0.000    0.000    0.000    4.286    0.000    0.000 
#    0.000    0.000    0.000    0.000    0.000    0.000 
#
# Total GULP energy -77961.402017 kJ/mol
# GULP energy per Si atom -5568.671573 kJ/mol
# Density = 2.197782 g / cm^3
# Si number density = 22.027953 Si / 1000 Ang^3
#
#
#
# Elastic Constant Matrix: (Units=GPa)
#
#
# Indices 1 2 3 4 5 6 
#
# 1 101.0342 6.7416 79.7660 14.7677 -5.1485 -7.1126
# 2 6.7416 27.3200 38.6170 2.9519 -4.3917 -0.6263
# 3 79.7660 38.6170 204.5546 15.2413 -24.4857 -5.6772
# 4 14.7677 2.9519 15.2413 47.5205 -7.4416 -1.8338
# 5 -5.1485 -4.3917 -24.4857 -7.4416 53.8042 6.7768
# 6 -7.1126 -0.6263 -5.6772 -1.8338 6.7768 19.2614
#
#
#
# Elastic Compliance Matrix: (Units=1/GPa)
#
#
# Indices 1 2 3 4 5 6 
#
# 1 0.015936 0.006557 -0.007366 -0.003185 -0.002291 0.004429
# 2 0.006557 0.052651 -0.012496 -0.001438 -0.001046 0.000681
# 3 -0.007366 -0.012496 0.010459 0.000168 0.003204 -0.001155
# 4 -0.003185 -0.001438 0.000168 0.022502 0.002767 -0.000005
# 5 -0.002291 -0.001046 0.003204 0.002767 0.021012 -0.007065
# 6 0.004429 0.000681 -0.001155 -0.000005 -0.007065 0.055720
#
#
# Mechanical properties :
#
#
# Convention : Reuss Voigt Hill
#
# Bulk Modulus (GPa) = 19.07076 64.79533 41.93304
# Shear Modulus (GPa) = 22.48519 37.96950 30.22735
#
# Velocity S-wave (km/s) = 3.19840 4.15625 3.70838
# Velocity P-wave (km/s) = 4.72398 7.24648 6.11667
#
# Compressibility (1/GPa) = 0.05243630
#
# Stress axis : x y z
#
# Youngs Moduli (GPa) = 62.74985 18.99304 95.61083
#
# Poissons Ratio (x) = -0.12454 0.70429
# Poissons Ratio (y) = -0.41145 1.19474
# Poissons Ratio (z) = 0.46223 0.23733
#
# Static dielectric constant tensor:
#      x y z
#    x 1.981870 0.025320 0.002560 
#    y 0.025320 1.849270 0.025330 
#    z 0.002560 0.025330 1.838050 
# 
# From -- ./inp_files/395344.got.cif
#   From: 2010.05.17/outbox.cif.g08.bks.cpg/sg2_198_cif.got.tgz:395344.got - 2010.06.03 11:33:40.
