data_PCOD9001391
_publ_section_title
;
Structure prediction by ZEFSAII (Michael W. Deem and Ramdas Pophale) SiO2 
 PCOD9001391
Probable space group: P -1
;
_chemical_formula_sum "Si O2"
_cell_formula_units_Z 12
_cell_length_a 5.023908
_cell_length_b 13.548775
_cell_length_c 10.527436
_cell_angle_alpha 110.175759
_cell_angle_beta 69.835550
_cell_angle_gamma 101.342267
_cell_volume 628.918570
_symmetry_space_group_name_H-M "P -1"
_symmetry_group_IT_number 2
_symmetry_cell_setting 'triclinic'
loop_
_space_group_symop_operation_xyz
x,y,z
-x,-y,-z
loop_
_atom_site_type_symbol
_atom_site_label
_atom_site_fract_x
_atom_site_fract_y
_atom_site_fract_z
Si Si1 0.450563 0.257140 0.981430
Si Si2 0.697100 0.788252 0.294774
Si Si3 0.180640 0.977111 0.321911
Si Si4 0.054774 0.379711 0.954046
Si Si5 0.119412 0.081991 0.122830
Si Si6 0.303417 0.894446 0.591107
O O1 0.322659 0.174165 0.067776
O O2 0.434635 0.199874 0.819966
O O3 0.761169 0.307313 0.985527
O O4 0.254129 0.352774 0.027082
O O5 0.472457 0.811089 0.450368
O O6 0.793412 0.669949 0.215313
O O7 0.979052 0.868958 0.296434
O O8 0.256012 0.013385 0.179799
O O9 0.465475 0.008626 0.367957
O O10 0.952188 0.063597 0.430607
O O11 0.000000 0.500000 0.000000
O O12 0.861980 0.133542 0.262883
O O13 0.000000 0.000000 0.000000
#
# Coordination Sequence:
#
# PCOD9001391 Si02
#       6
#     2   2   2   2   2   2
#     4  10  22  35  61  81 112 142 187 226 284 321
#     4  10  22  35  60  80 113 149 188 228 270 322
#     4  10  22  32  55  80 123 146 185 209 271 333
#     4  10  23  38  60  83 106 140 194 242 276 313
#     4  10  21  35  54  83 119 149 177 217 270 344
#     4  10  23  34  53  82 122 148 184 213 271 330
#
# _framework density 19.080372000000001
#
# number of rings (size 3 to 8) (size 9 to 14) (size 15 to 20)
#    2.000    0.000    1.667    1.500    9.333    0.667 
#    0.000    0.000    0.000    2.000    0.000    0.000 
#    0.000    0.000    0.000    0.000    0.000    0.000 
#
# Total GULP energy -66850.354047 kJ/mol
# GULP energy per Si atom -5570.862837 kJ/mol
# Density = 1.903694 g / cm^3
# Si number density = 19.080372 Si / 1000 Ang^3
#
#
#
# Elastic Constant Matrix: (Units=GPa)
#
#
# Indices 1 2 3 4 5 6 
#
# 1 78.1611 -9.2905 14.4717 -6.0837 -8.3284 0.4913
# 2 -9.2905 55.3585 53.2341 3.6552 -23.4610 1.7297
# 3 14.4717 53.2341 122.3211 1.3721 -24.3195 -0.2335
# 4 -6.0837 3.6552 1.3721 30.4357 -5.8261 -9.5378
# 5 -8.3284 -23.4610 -24.3195 -5.8261 33.2384 -2.0658
# 6 0.4913 1.7297 -0.2335 -9.5378 -2.0658 24.5770
#
#
#
# Elastic Compliance Matrix: (Units=1/GPa)
#
#
# Indices 1 2 3 4 5 6 
#
# 1 0.016326 0.011057 -0.004984 0.004300 0.009082 0.001280
# 2 0.011057 0.045527 -0.016570 0.001564 0.022991 -0.001043
# 3 -0.004984 -0.016570 0.015724 0.000518 -0.001255 0.001511
# 4 0.004300 0.001564 0.000518 0.040734 0.010727 0.016519
# 5 0.009082 0.022991 -0.001255 0.010727 0.049958 0.006550
# 6 0.001280 -0.001043 0.001511 0.016519 0.006550 0.047712
#
#
# Mechanical properties :
#
#
# Convention : Reuss Voigt Hill
#
# Bulk Modulus (GPa) = 17.67305 41.40791 29.54048
# Shear Modulus (GPa) = 19.54397 30.81193 25.17795
#
# Velocity S-wave (km/s) = 3.20394 4.02288 3.63653
# Velocity P-wave (km/s) = 4.79265 6.58233 5.75745
#
# Compressibility (1/GPa) = 0.05658333
#
# Stress axis : x y z
#
# Youngs Moduli (GPa) = 61.25372 21.96508 63.59886
#
# Poissons Ratio (x) = -0.24288 0.31696
# Poissons Ratio (y) = -0.67731 1.05383
# Poissons Ratio (z) = 0.30527 0.36396
#
# Static dielectric constant tensor:
#      x y z
#    x 1.728670 -0.058930 -0.043500 
#    y -0.058930 1.654980 -0.035110 
#    z -0.043500 -0.035110 1.784480 
# 
# From -- ./inp_files/34067.got.cif
#   From: 2010.05.17/outbox.cif.g08.bks.cpg/sg2_18_cif.got.tgz:34067.got - 2010.06.03 11:33:40.
