data_PCOD9001061
_publ_section_title
;
Structure prediction by ZEFSAII (Michael W. Deem and Ramdas Pophale) SiO2 
 PCOD9001061
Probable space group: P -1
;
_chemical_formula_sum "Si O2"
_cell_formula_units_Z 16
_cell_length_a 21.123283
_cell_length_b 11.007713
_cell_length_c 14.838191
_cell_angle_alpha 133.589347
_cell_angle_beta 151.707759
_cell_angle_gamma 28.063176
_cell_volume 707.550387
_symmetry_space_group_name_H-M "P -1"
_symmetry_group_IT_number 2
_symmetry_cell_setting 'triclinic'
loop_
_space_group_symop_operation_xyz
x,y,z
-x,-y,-z
loop_
_atom_site_type_symbol
_atom_site_label
_atom_site_fract_x
_atom_site_fract_y
_atom_site_fract_z
Si Si1 0.025345 0.077331 0.319578
Si Si2 0.835180 0.113171 0.930506
Si Si3 0.418777 0.477304 0.474280
Si Si4 0.388794 0.971067 0.764096
Si Si5 0.760844 0.617722 0.354521
Si Si6 0.550466 0.935085 0.674868
Si Si7 0.834828 0.673542 0.170612
Si Si8 0.862132 0.697957 0.790925
O O1 0.872457 0.324819 0.327716
O O2 0.168895 0.762602 0.344586
O O3 0.239750 0.984705 0.533913
O O4 0.875538 0.198888 0.106602
O O5 0.587824 0.353238 0.703187
O O6 0.896843 0.861787 0.908116
O O7 0.000000 0.000000 0.000000
O O8 0.500000 0.500000 0.500000
O O9 0.440738 0.257967 0.369367
O O10 0.299442 0.231454 0.737449
O O11 0.314510 0.046210 0.814334
O O12 0.656403 0.701031 0.954622
O O13 0.943544 0.549590 0.602249
O O14 0.537316 0.844431 0.249388
O O15 0.776063 0.743599 0.805826
O O16 0.351109 0.130599 0.451711
O O17 0.931619 0.600383 0.154107
#
# Coordination Sequence:
#
# PCOD9001061 Si02
#       8
#     2   2   2   2   2   2   2   2
#     4  11  23  36  56  94 126 162 201 256 320 368
#     4  11  24  36  61  91 129 163 200 261 315 367
#     4  11  22  38  64  94 125 160 208 263 313 364
#     4  10  21  33  58  88 127 161 207 253 313 369
#     4  10  21  37  61  85 124 163 207 252 310 370
#     4   9  20  42  65  89 120 166 214 258 301 372
#     4   9  19  35  58  88 116 159 209 260 297 362
#     4   9  20  39  65  87 119 168 215 252 310 369
#
# _framework density 22.613230999999999
#
# number of rings (size 3 to 8) (size 9 to 14) (size 15 to 20)
#    0.000    2.000    1.250    2.250    7.000    3.000 
#    0.000    3.125    0.000   18.750    0.000    0.000 
#    0.000    0.000    0.000    0.000    0.000    0.000 
#
# Total GULP energy -89191.775093 kJ/mol
# GULP energy per Si atom -5574.485943 kJ/mol
# Density = 2.256176 g / cm^3
# Si number density = 22.613231 Si / 1000 Ang^3
#
#
#
# Elastic Constant Matrix: (Units=GPa)
#
#
# Indices 1 2 3 4 5 6 
#
# 1 101.0638 48.5585 23.4592 -4.1959 20.8773 -44.4443
# 2 48.5585 116.2298 27.4571 -15.4810 -0.4035 -45.7067
# 3 23.4592 27.4571 124.5057 -9.5319 -18.5860 -16.8168
# 4 -4.1959 -15.4810 -9.5319 34.4208 -4.0317 -2.8699
# 5 20.8773 -0.4035 -18.5860 -4.0317 26.9682 -5.8249
# 6 -44.4443 -45.7067 -16.8168 -2.8699 -5.8249 38.8863
#
#
#
# Elastic Compliance Matrix: (Units=1/GPa)
#
#
# Indices 1 2 3 4 5 6 
#
# 1 0.025168 0.000933 -0.003566 0.002824 -0.015857 0.026154
# 2 0.000933 0.020900 0.001380 0.013291 0.008687 0.028512
# 3 -0.003566 0.001380 0.011256 0.005131 0.012307 0.004636
# 4 0.002824 0.013291 0.005131 0.040516 0.013231 0.026040
# 5 -0.015857 0.008687 0.012307 0.013231 0.061590 0.007611
# 6 0.026154 0.028512 0.004636 0.026040 0.007611 0.094187
#
#
# Mechanical properties :
#
#
# Convention : Reuss Voigt Hill
#
# Bulk Modulus (GPa) = 18.24194 60.08320 39.16257
# Shear Modulus (GPa) = 18.22190 36.21003 27.21596
#
# Velocity S-wave (km/s) = 2.84175 4.00594 3.47297
# Velocity P-wave (km/s) = 4.34187 6.92996 5.78257
#
# Compressibility (1/GPa) = 0.05481872
#
# Stress axis : x y z
#
# Youngs Moduli (GPa) = 39.73223 47.84684 88.84524
#
# Poissons Ratio (x) = -0.04466 0.31686
# Poissons Ratio (y) = -0.03709 -0.12263
# Poissons Ratio (z) = 0.14170 -0.06604
#
# Static dielectric constant tensor:
#      x y z
#    x 1.837800 -0.018210 -0.014320 
#    y -0.018210 1.934340 -0.003900 
#    z -0.014320 -0.003900 1.898080 
# 
# From -- ./inp_files/540983.got.cif
#   From: 2010.05.17/outbox.cif.g08.bks.cpg/sg2_271_cif.got.tgz:540983.got - 2010.06.03 11:33:40.
