data_PCOD9001939
_publ_section_title
;
Structure prediction by ZEFSAII (Michael W. Deem and Ramdas Pophale) SiO2 
 PCOD9001939
Probable space group: P -1
;
_chemical_formula_sum "Si O2"
_cell_formula_units_Z 16
_cell_length_a 17.599259
_cell_length_b 12.014996
_cell_length_c 10.139270
_cell_angle_alpha 55.534834
_cell_angle_beta 103.524426
_cell_angle_gamma 57.470055
_cell_volume 943.273425
_symmetry_space_group_name_H-M "P -1"
_symmetry_group_IT_number 2
_symmetry_cell_setting 'triclinic'
loop_
_space_group_symop_operation_xyz
x,y,z
-x,-y,-z
loop_
_atom_site_type_symbol
_atom_site_label
_atom_site_fract_x
_atom_site_fract_y
_atom_site_fract_z
Si Si1 0.108756 0.586326 0.065806
Si Si2 0.282152 0.341498 0.761524
Si Si3 0.207405 0.054387 0.267764
Si Si4 0.610976 0.412066 0.512314
Si Si5 0.212512 0.143628 0.497129
Si Si6 0.445862 0.879279 0.974305
Si Si7 0.895379 0.504369 0.166306
Si Si8 0.842072 0.284790 0.771031
O O1 0.175698 0.351298 0.305708
O O2 0.163802 0.628731 0.149522
O O3 0.127539 0.552911 0.937233
O O4 0.941222 0.811513 0.875165
O O5 0.175625 0.456978 0.759093
O O6 0.206464 0.542590 0.482656
O O7 0.345821 0.116849 0.866888
O O8 0.423014 0.215666 0.957137
O O9 0.251551 0.016530 0.461272
O O10 0.317241 0.805104 0.402477
O O11 0.174912 0.247302 0.059731
O O12 0.500000 0.500000 0.500000
O O13 0.733825 0.316413 0.702213
O O14 0.524466 0.648143 0.238395
O O15 0.065173 0.289099 0.391588
O O16 0.343240 0.961691 0.770298
O O17 0.000000 0.000000 0.000000
#
# Coordination Sequence:
#
# PCOD9001939 Si02
#       8
#     2   2   2   2   2   2   2   2
#     4   9  17  37  59  83 107 140 186 223 273 321
#     4  10  21  37  54  84 112 139 184 226 268 322
#     4   9  18  36  57  80 114 142 178 226 273 316
#     4  11  23  36  53  81 113 144 184 223 267 324
#     4   9  18  35  59  81 105 148 179 221 275 321
#     4  10  21  36  55  75 117 149 172 220 279 323
#     4   9  19  35  62  85 105 137 186 236 259 310
#     4  11  21  37  62  77 108 150 177 225 280 318
#
# _framework density 16.962208
#
# number of rings (size 3 to 8) (size 9 to 14) (size 15 to 20)
#    0.000    2.250    2.500    2.250    0.000    2.000 
#    2.250    1.875    0.000    0.000    0.000    0.000 
#    0.000    0.000    0.000    0.000    0.000    0.000 
#
# Total GULP energy -89182.009264 kJ/mol
# GULP energy per Si atom -5573.875579 kJ/mol
# Density = 1.692360 g / cm^3
# Si number density = 16.962208 Si / 1000 Ang^3
#
#
#
# Elastic Constant Matrix: (Units=GPa)
#
#
# Indices 1 2 3 4 5 6 
#
# 1 100.5780 80.8207 45.1252 11.2163 20.3698 5.4867
# 2 80.8207 132.7331 49.9062 -9.9508 12.1681 11.9704
# 3 45.1252 49.9062 88.2120 1.2277 25.8337 10.9448
# 4 11.2163 -9.9508 1.2277 27.0187 9.1705 1.1027
# 5 20.3698 12.1681 25.8337 9.1705 24.1841 7.3924
# 6 5.4867 11.9704 10.9448 1.1027 7.3924 21.3418
#
#
#
# Elastic Compliance Matrix: (Units=1/GPa)
#
#
# Indices 1 2 3 4 5 6 
#
# 1 0.027743 -0.016821 -0.002957 -0.015058 -0.008321 0.007479
# 2 -0.016821 0.020362 -0.003660 0.013205 0.005178 -0.007695
# 3 -0.002957 -0.003660 0.020728 0.005621 -0.019531 -0.001342
# 4 -0.015058 0.013205 0.005621 0.054761 -0.020024 -0.002312
# 5 -0.008321 0.005178 -0.019531 -0.020024 0.079480 -0.017245
# 6 0.007479 -0.007695 -0.001342 -0.002312 -0.017245 0.056031
#
#
# Mechanical properties :
#
#
# Convention : Reuss Voigt Hill
#
# Bulk Modulus (GPa) = 45.54600 74.80305 60.17452
# Shear Modulus (GPa) = 15.95925 24.22033 20.08979
#
# Velocity S-wave (km/s) = 3.07069 3.78286 3.44522
# Velocity P-wave (km/s) = 6.28346 7.95459 7.16790
#
# Compressibility (1/GPa) = 0.02195583
#
# Stress axis : x y z
#
# Youngs Moduli (GPa) = 36.04575 49.11172 48.24490
#
# Poissons Ratio (x) = 0.82612 0.14264
# Poissons Ratio (y) = 0.60633 0.17659
# Poissons Ratio (z) = 0.10657 0.17976
#
# Static dielectric constant tensor:
#      x y z
#    x 1.482160 -0.017340 0.046250 
#    y -0.017340 1.558920 0.015310 
#    z 0.046250 0.015310 1.565050 
# 
# From -- ./inp_files/237716.got.cif
#   From: 2010.05.17/outbox.cif.g08.bks.cpg/sg2_119_cif.got.tgz:237716.got - 2010.06.03 11:33:40.
