data_PCOD9001628
_publ_section_title
;
Structure prediction by ZEFSAII (Michael W. Deem and Ramdas Pophale) SiO2 
 PCOD9001628
Probable space group: P -1
;
_chemical_formula_sum "Si O2"
_cell_formula_units_Z 16
_cell_length_a 7.928708
_cell_length_b 22.830002
_cell_length_c 11.715730
_cell_angle_alpha 152.947004
_cell_angle_beta 39.606864
_cell_angle_gamma 137.425245
_cell_volume 605.591985
_symmetry_space_group_name_H-M "P -1"
_symmetry_group_IT_number 2
_symmetry_cell_setting 'triclinic'
loop_
_space_group_symop_operation_xyz
x,y,z
-x,-y,-z
loop_
_atom_site_type_symbol
_atom_site_label
_atom_site_fract_x
_atom_site_fract_y
_atom_site_fract_z
Si Si1 0.781184 0.088678 0.389169
Si Si2 0.483698 0.792185 0.078872
Si Si3 0.750489 0.440199 0.699154
Si Si4 0.388730 0.205351 0.618960
Si Si5 0.867070 0.708786 0.891944
Si Si6 0.785084 0.548812 0.110150
Si Si7 0.646884 0.781488 0.737709
Si Si8 0.737281 0.052563 0.882812
O O1 0.770291 0.167796 0.652516
O O2 0.595840 0.150721 0.502371
O O3 0.081496 0.111734 0.224945
O O4 0.643659 0.939432 0.222734
O O5 0.546996 0.721469 0.806919
O O6 0.586839 0.699437 0.958117
O O7 0.571209 0.306292 0.614252
O O8 0.964305 0.393564 0.423237
O O9 0.533449 0.502611 0.845996
O O10 0.881244 0.525123 0.887898
O O11 0.217192 0.077382 0.428659
O O12 0.175482 0.267236 0.911581
O O13 0.015827 0.854836 0.028462
O O14 0.725964 0.677740 0.428020
O O15 0.000000 0.500000 0.000000
O O16 0.397434 0.848760 0.951313
O O17 0.500000 0.000000 0.000000
#
# Coordination Sequence:
#
# PCOD9001628 Si02
#       8
#     2   2   2   2   2   2   2   2
#     4  10  21  35  59  95 130 171 211 251 314 389
#     4  10  21  36  59  92 131 170 208 254 315 387
#     4  11  24  46  68  94 130 170 224 273 323 389
#     4  11  22  40  64  96 133 170 209 260 327 394
#     4  11  22  40  63  93 133 170 211 261 323 392
#     4  11  24  45  71  94 124 172 226 277 326 380
#     4  12  22  40  64  91 127 165 209 266 320 381
#     4  12  22  37  61  97 132 169 203 253 325 392
#
# _framework density 26.420428000000001
#
# number of rings (size 3 to 8) (size 9 to 14) (size 15 to 20)
#    0.000    1.000    3.750    3.750    0.000    0.000 
#    4.500    3.750    0.000    6.750    0.000    0.000 
#    0.000    0.000    0.000    0.000    0.000    0.000 
#
# Total GULP energy -89254.618159 kJ/mol
# GULP energy per Si atom -5578.413635 kJ/mol
# Density = 2.636029 g / cm^3
# Si number density = 26.420428 Si / 1000 Ang^3
#
#
#
# Elastic Constant Matrix: (Units=GPa)
#
#
# Indices 1 2 3 4 5 6 
#
# 1 128.8945 18.8287 50.6350 2.1750 -13.6834 -26.6235
# 2 18.8287 63.2043 39.7355 -8.0848 -2.6343 -15.4114
# 3 50.6350 39.7355 193.4983 -22.4595 28.1319 -9.3832
# 4 2.1750 -8.0848 -22.4595 39.2913 4.4717 2.4626
# 5 -13.6834 -2.6343 28.1319 4.4717 55.4507 1.2487
# 6 -26.6235 -15.4114 -9.3832 2.4626 1.2487 29.6276
#
#
#
# Elastic Compliance Matrix: (Units=1/GPa)
#
#
# Indices 1 2 3 4 5 6 
#
# 1 0.011890 0.001197 -0.004074 -0.003962 0.005149 0.010129
# 2 0.001197 0.021081 -0.004545 0.000644 0.003316 0.010409
# 3 -0.004074 -0.004545 0.008421 0.004987 -0.005816 -0.003528
# 4 -0.003962 0.000644 0.004987 0.029552 -0.005773 -0.003859
# 5 0.005149 0.003316 -0.005816 -0.005773 0.022788 0.004030
# 6 0.010129 0.010409 -0.003528 -0.003859 0.004030 0.047302
#
#
# Mechanical properties :
#
#
# Convention : Reuss Voigt Hill
#
# Bulk Modulus (GPa) = 37.66907 67.11061 52.38984
# Shear Modulus (GPa) = 30.35317 43.30042 36.82680
#
# Velocity S-wave (km/s) = 3.39315 4.05272 3.73751
# Velocity P-wave (km/s) = 5.44424 6.88154 6.20465
#
# Compressibility (1/GPa) = 0.02654698
#
# Stress axis : x y z
#
# Youngs Moduli (GPa) = 84.10687 47.43588 118.75194
#
# Poissons Ratio (x) = -0.05679 0.48385
# Poissons Ratio (y) = -0.10069 0.53973
# Poissons Ratio (z) = 0.34269 0.21560
#
# Static dielectric constant tensor:
#      x y z
#    x 2.292190 -0.050910 0.078450 
#    y -0.050910 1.876320 -0.211210 
#    z 0.078450 -0.211210 1.976890 
# 
# From -- ./inp_files/389997.got.cif
#   From: 2010.05.17/outbox.cif.g08.bks.cpg/sg2_195_cif.got.tgz:389997.got - 2010.06.03 11:33:40.
