data_PCOD9001767
_publ_section_title
;
Structure prediction by ZEFSAII (Michael W. Deem and Ramdas Pophale) SiO2 
 PCOD9001767
Probable space group: P -1
;
_chemical_formula_sum "Si O2"
_cell_formula_units_Z 16
_cell_length_a 9.001417
_cell_length_b 14.412174
_cell_length_c 12.653803
_cell_angle_alpha 37.373870
_cell_angle_beta 123.894038
_cell_angle_gamma 142.130676
_cell_volume 600.899032
_symmetry_space_group_name_H-M "P -1"
_symmetry_group_IT_number 2
_symmetry_cell_setting 'triclinic'
loop_
_space_group_symop_operation_xyz
x,y,z
-x,-y,-z
loop_
_atom_site_type_symbol
_atom_site_label
_atom_site_fract_x
_atom_site_fract_y
_atom_site_fract_z
Si Si1 0.082544 0.438718 0.994255
Si Si2 0.570825 0.976523 0.163577
Si Si3 0.757164 0.507708 0.526414
Si Si4 0.730911 0.761790 0.713873
Si Si5 0.363952 0.136605 0.001166
Si Si6 0.201863 0.565616 0.704309
Si Si7 0.915213 0.864644 0.923159
Si Si8 0.652592 0.569599 0.653744
O O1 0.850297 0.187651 0.107681
O O2 0.302160 0.440506 0.088519
O O3 0.000000 0.500000 0.000000
O O4 0.156000 0.583933 0.791840
O O5 0.465662 0.746437 0.329630
O O6 0.417837 0.990336 0.171430
O O7 0.500000 0.000000 0.000000
O O8 0.754399 0.606391 0.543166
O O9 0.635331 0.542166 0.357530
O O10 0.009575 0.560248 0.570034
O O11 0.488471 0.725416 0.643809
O O12 0.865170 0.888408 0.761576
O O13 0.804770 0.768608 0.613539
O O14 0.610703 0.371358 0.854961
O O15 0.245228 0.131265 0.063657
O O16 0.187196 0.048517 0.909610
O O17 0.129791 0.342640 0.883744
#
# Coordination Sequence:
#
# PCOD9001767 Si02
#       8
#     2   2   2   2   2   2   2   2
#     4  11  22  34  61  95 125 157 200 259 314 361
#     4  12  20  37  66  90 123 152 215 260 300 352
#     4  11  24  42  62  95 121 167 211 258 302 382
#     4  11  23  39  58  94 125 166 195 262 310 374
#     4  11  20  37  63  97 119 164 200 266 302 364
#     4  11  20  37  60  91 124 154 203 258 302 365
#     4  10  21  35  62  95 127 151 211 252 315 361
#     4  11  24  41  65  87 128 166 209 249 322 367
#
# _framework density 26.626771000000002
#
# number of rings (size 3 to 8) (size 9 to 14) (size 15 to 20)
#    0.000    1.000    5.000    3.750    1.750    0.500 
#    0.000    0.625    2.750    1.500    0.000    0.000 
#    0.000    0.000    0.000    0.000    0.000    0.000 
#
# Total GULP energy -89274.667182 kJ/mol
# GULP energy per Si atom -5579.666699 kJ/mol
# Density = 2.656617 g / cm^3
# Si number density = 26.626771 Si / 1000 Ang^3
#
#
#
# Elastic Constant Matrix: (Units=GPa)
#
#
# Indices 1 2 3 4 5 6 
#
# 1 164.1414 51.4385 18.9631 17.1909 18.0349 -26.7025
# 2 51.4385 154.4851 20.0426 18.1218 11.7600 -16.3332
# 3 18.9631 20.0426 55.5717 15.2866 19.2103 -3.9567
# 4 17.1909 18.1218 15.2866 46.7060 2.6810 4.8878
# 5 18.0349 11.7600 19.2103 2.6810 40.8047 21.2141
# 6 -26.7025 -16.3332 -3.9567 4.8878 21.2141 48.2708
#
#
#
# Elastic Compliance Matrix: (Units=1/GPa)
#
#
# Indices 1 2 3 4 5 6 
#
# 1 0.009211 -0.001156 0.002397 -0.004175 -0.009539 0.009516
# 2 -0.001156 0.007875 -0.000225 -0.002756 -0.003448 0.003801
# 3 0.002397 -0.000225 0.028235 -0.010281 -0.020746 0.013723
# 4 -0.004175 -0.002756 -0.010281 0.027969 0.011974 -0.012179
# 5 -0.009539 -0.003448 -0.020746 0.011974 0.056462 -0.034171
# 6 0.009516 0.003801 0.013723 -0.012179 -0.034171 0.044642
#
#
# Mechanical properties :
#
#
# Convention : Reuss Voigt Hill
#
# Bulk Modulus (GPa) = 21.11800 61.67631 41.39715
# Shear Modulus (GPa) = 26.57514 46.07322 36.32418
#
# Velocity S-wave (km/s) = 3.16264 4.16424 3.69751
# Velocity P-wave (km/s) = 4.61353 6.80696 5.81461
#
# Compressibility (1/GPa) = 0.04735298
#
# Stress axis : x y z
#
# Youngs Moduli (GPa) = 108.56565 126.98674 35.41722
#
# Poissons Ratio (x) = 0.14680 -0.08491
# Poissons Ratio (y) = 0.12551 0.00797
# Poissons Ratio (z) = -0.26027 0.02859
#
# Static dielectric constant tensor:
#      x y z
#    x 2.179420 -0.018950 0.023050 
#    y -0.018950 2.195560 0.080070 
#    z 0.023050 0.080070 2.150470 
# 
# From -- ./inp_files/503934.got.cif
#   From: 2010.05.17/outbox.cif.g08.bks.cpg/sg2_252_cif.got.tgz:503934.got - 2010.06.03 11:33:40.
