data_PCOD9001822
_publ_section_title
;
Structure prediction by ZEFSAII (Michael W. Deem and Ramdas Pophale) SiO2 
 PCOD9001822
Probable space group: P -1
;
_chemical_formula_sum "Si O2"
_cell_formula_units_Z 14
_cell_length_a 11.095951
_cell_length_b 12.721153
_cell_length_c 8.595439
_cell_angle_alpha 56.640143
_cell_angle_beta 139.475097
_cell_angle_gamma 131.474904
_cell_volume 587.978032
_symmetry_space_group_name_H-M "P -1"
_symmetry_group_IT_number 2
_symmetry_cell_setting 'triclinic'
loop_
_space_group_symop_operation_xyz
x,y,z
-x,-y,-z
loop_
_atom_site_type_symbol
_atom_site_label
_atom_site_fract_x
_atom_site_fract_y
_atom_site_fract_z
Si Si1 0.649920 0.309730 0.464139
Si Si2 0.682593 0.607807 0.974897
Si Si3 0.323433 0.663106 0.902176
Si Si4 0.100551 0.012862 0.340957
Si Si5 0.249409 0.212856 0.602941
Si Si6 0.118362 0.855265 0.205746
Si Si7 0.923745 0.572605 0.733790
O O1 0.422949 0.299726 0.273272
O O2 0.677480 0.313442 0.301528
O O3 0.721680 0.192837 0.675531
O O4 0.800388 0.454849 0.578740
O O5 0.500000 0.500000 0.000000
O O6 0.721160 0.500524 0.990840
O O7 0.908590 0.716616 0.169014
O O8 0.140232 0.684516 0.782044
O O9 0.542066 0.748229 0.128566
O O10 0.242687 0.127016 0.512037
O O11 0.202385 0.956202 0.354985
O O12 0.938664 0.885252 0.390288
O O13 0.963543 0.071936 0.061654
O O14 0.214248 0.349664 0.418893
O O15 0.000000 0.500000 0.000000
#
# Coordination Sequence:
#
# PCOD9001822 Si02
#       7
#     2   2   2   2   2   2   2
#     4  11  22  39  67 100 126 162 211 269 324 382
#     4  10  21  35  65 102 127 158 207 268 330 372
#     4  11  23  39  67  99 127 167 207 265 336 382
#     4  10  24  44  67  85 129 193 205 261 305 386
#     4  11  24  46  63  91 137 168 221 253 326 385
#     4  11  22  43  66  95 131 164 229 255 315 378
#     4  12  25  39  65 102 132 162 207 274 336 380
#
# _framework density 23.810413
#
# number of rings (size 3 to 8) (size 9 to 14) (size 15 to 20)
#    0.000    1.143    2.857    3.857    4.000    1.714 
#    0.000   15.714    0.000    0.000    0.000    0.000 
#    0.000    0.000    0.000    0.000    0.000    0.000 
#
# Total GULP energy -78303.314380 kJ/mol
# GULP energy per Si atom -5593.093884 kJ/mol
# Density = 2.375622 g / cm^3
# Si number density = 23.810413 Si / 1000 Ang^3
#
#
#
# Elastic Constant Matrix: (Units=GPa)
#
#
# Indices 1 2 3 4 5 6 
#
# 1 40.1983 25.9899 23.3560 8.1920 5.1493 -0.7611
# 2 25.9899 100.2490 48.9953 11.2580 -5.3644 -29.6793
# 3 23.3560 48.9953 121.6453 21.8026 -1.1605 -8.1165
# 4 8.1920 11.2580 21.8026 44.9274 -9.1310 -6.1616
# 5 5.1493 -5.3644 -1.1605 -9.1310 50.1023 -11.0546
# 6 -0.7611 -29.6793 -8.1165 -6.1616 -11.0546 29.2658
#
#
#
# Elastic Compliance Matrix: (Units=1/GPa)
#
#
# Indices 1 2 3 4 5 6 
#
# 1 0.038046 -0.015064 -0.001348 -0.007675 -0.011503 -0.020622
# 2 -0.015064 0.025783 -0.006455 0.005878 0.011772 0.029650
# 3 -0.001348 -0.006455 0.011594 -0.004970 -0.002360 -0.005304
# 4 -0.007675 0.005878 -0.004970 0.028462 0.009577 0.013993
# 5 -0.011503 0.011772 -0.002360 0.009577 0.029413 0.024112
# 6 -0.020622 0.029650 -0.005304 0.013993 0.024112 0.074285
#
#
# Mechanical properties :
#
#
# Convention : Reuss Voigt Hill
#
# Bulk Modulus (GPa) = 33.68191 50.97499 42.32845
# Shear Modulus (GPa) = 18.99597 35.77586 27.38591
#
# Velocity S-wave (km/s) = 2.82760 3.88045 3.39509
# Velocity P-wave (km/s) = 4.98368 6.44456 5.76062
#
# Compressibility (1/GPa) = 0.02968952
#
# Stress axis : x y z
#
# Youngs Moduli (GPa) = 26.28381 38.78456 86.25287
#
# Poissons Ratio (x) = 0.58424 0.11625
# Poissons Ratio (y) = 0.39593 0.55680
# Poissons Ratio (z) = 0.03543 0.25037
#
# Static dielectric constant tensor:
#      x y z
#    x 1.899840 0.026220 -0.012840 
#    y 0.026220 1.955500 -0.052040 
#    z -0.012840 -0.052040 1.911840 
# 
# From -- ./inp_files/262234.got.cif
#   From: 2010.05.17/outbox.cif.g08.bks.cpg/sg2_132_cif.got.tgz:262234.got - 2010.06.03 11:33:40.
