data_PCOD9001570
_publ_section_title
;
Structure prediction by ZEFSAII (Michael W. Deem and Ramdas Pophale) SiO2 
 PCOD9001570
Probable space group: P -1
;
_chemical_formula_sum "Si O2"
_cell_formula_units_Z 16
_cell_length_a 8.516990
_cell_length_b 13.048836
_cell_length_c 13.955596
_cell_angle_alpha 139.018432
_cell_angle_beta 47.840154
_cell_angle_gamma 103.499250
_cell_volume 623.593086
_symmetry_space_group_name_H-M "P -1"
_symmetry_group_IT_number 2
_symmetry_cell_setting 'triclinic'
loop_
_space_group_symop_operation_xyz
x,y,z
-x,-y,-z
loop_
_atom_site_type_symbol
_atom_site_label
_atom_site_fract_x
_atom_site_fract_y
_atom_site_fract_z
Si Si1 0.071705 0.114454 0.148955
Si Si2 0.821605 0.786460 0.315017
Si Si3 0.389823 0.429060 0.850909
Si Si4 0.297200 0.716450 0.758244
Si Si5 0.693593 0.680177 0.990138
Si Si6 0.948112 0.324216 0.524225
Si Si7 0.114022 0.099340 0.819593
Si Si8 0.200416 0.014845 0.362432
O O1 0.927311 0.212406 0.179475
O O2 0.085086 0.252690 0.314412
O O3 0.884995 0.067448 0.247304
O O4 0.320035 0.898737 0.877404
O O5 0.667597 0.704374 0.279400
O O6 0.798749 0.930538 0.346030
O O7 0.735012 0.866329 0.511490
O O8 0.123069 0.629113 0.087571
O O9 0.404832 0.384395 0.926653
O O10 0.646797 0.407151 0.698823
O O11 0.500000 0.500000 0.500000
O O12 0.185772 0.732461 0.921793
O O13 0.755680 0.813765 0.115573
O O14 0.464022 0.811254 0.103263
O O15 0.929329 0.495055 0.710740
O O16 0.079649 0.135970 0.402662
O O17 0.000000 0.000000 0.500000
#
# Coordination Sequence:
#
# PCOD9001570 Si02
#       8
#     2   2   2   2   2   2   2   2
#     4   9  22  40  64  90 116 149 201 246 307 360
#     4  10  21  35  58  90 119 165 211 239 288 356
#     4  10  21  37  56  84 128 168 204 243 284 346
#     4   9  20  42  67  92 113 145 202 259 307 359
#     4  11  23  38  57  88 131 163 200 247 296 349
#     4  12  23  39  59  89 126 166 197 246 299 358
#     4   9  21  40  61  93 117 153 208 253 299 356
#     4  12  23  36  57  85 130 169 205 237 294 354
#
# _framework density 25.657755000000002
#
# number of rings (size 3 to 8) (size 9 to 14) (size 15 to 20)
#    0.750    1.000    2.500    1.875    3.500    2.000 
#    2.250    0.625    0.000    1.500    0.000    0.000 
#    0.000    0.000    0.000    0.000    0.000    0.000 
#
# Total GULP energy -89347.461023 kJ/mol
# GULP energy per Si atom -5584.216314 kJ/mol
# Density = 2.559936 g / cm^3
# Si number density = 25.657755 Si / 1000 Ang^3
#
#
#
# Elastic Constant Matrix: (Units=GPa)
#
#
# Indices 1 2 3 4 5 6 
#
# 1 79.9921 21.5595 23.3937 14.3151 20.8244 -8.7494
# 2 21.5595 54.2662 10.8434 4.6873 -7.9075 -10.5014
# 3 23.3937 10.8434 130.1440 23.8011 5.7874 -25.8011
# 4 14.3151 4.6873 23.8011 35.6681 -10.1440 -0.0189
# 5 20.8244 -7.9075 5.7874 -10.1440 48.4588 5.5099
# 6 -8.7494 -10.5014 -25.8011 -0.0189 5.5099 34.5109
#
#
#
# Elastic Compliance Matrix: (Units=1/GPa)
#
#
# Indices 1 2 3 4 5 6 
#
# 1 0.020609 -0.008241 0.000737 -0.011460 -0.013301 0.005386
# 2 -0.008241 0.023341 -0.000678 0.002873 0.007659 0.003285
# 3 0.000737 -0.000678 0.011298 -0.009084 -0.004722 0.009176
# 4 -0.011460 0.002873 -0.009084 0.043093 0.016805 -0.011482
# 5 -0.013301 0.007659 -0.004722 0.016805 0.032798 -0.009799
# 6 0.005386 0.003285 0.009176 -0.011482 -0.009799 0.039760
#
#
# Mechanical properties :
#
#
# Convention : Reuss Voigt Hill
#
# Bulk Modulus (GPa) = 25.71747 41.77728 33.74738
# Shear Modulus (GPa) = 24.97193 37.63459 31.30326
#
# Velocity S-wave (km/s) = 3.12311 3.83403 3.49668
# Velocity P-wave (km/s) = 4.80106 5.99313 5.42990
#
# Compressibility (1/GPa) = 0.03888408
#
# Stress axis : x y z
#
# Youngs Moduli (GPa) = 48.52162 42.84313 88.50919
#
# Poissons Ratio (x) = 0.35308 -0.06524
# Poissons Ratio (y) = 0.39988 0.06002
# Poissons Ratio (z) = -0.03577 0.02905
#
# Static dielectric constant tensor:
#      x y z
#    x 2.106660 0.043270 0.011390 
#    y 0.043270 2.037810 0.018400 
#    z 0.011390 0.018400 2.095190 
# 
# From -- ./inp_files/505553.got.cif
#   From: 2010.05.17/outbox.cif.g08.bks.cpg/sg2_253_cif.got.tgz:505553.got - 2010.06.03 11:33:40.
