data_PCOD9001288
_publ_section_title
;
Structure prediction by ZEFSAII (Michael W. Deem and Ramdas Pophale) SiO2 
 PCOD9001288
Probable space group: P -1
;
_chemical_formula_sum "Si O2"
_cell_formula_units_Z 16
_cell_length_a 8.605818
_cell_length_b 11.133544
_cell_length_c 11.866791
_cell_angle_alpha 105.106236
_cell_angle_beta 52.915615
_cell_angle_gamma 124.157626
_cell_volume 745.317673
_symmetry_space_group_name_H-M "P -1"
_symmetry_group_IT_number 2
_symmetry_cell_setting 'triclinic'
loop_
_space_group_symop_operation_xyz
x,y,z
-x,-y,-z
loop_
_atom_site_type_symbol
_atom_site_label
_atom_site_fract_x
_atom_site_fract_y
_atom_site_fract_z
Si Si1 0.674095 0.237151 0.754280
Si Si2 0.836775 0.709285 0.643159
Si Si3 0.170547 0.370322 0.933365
Si Si4 0.790055 0.022045 0.563170
Si Si5 0.482612 0.691651 0.607676
Si Si6 0.006299 0.556903 0.161584
Si Si7 0.647000 0.679688 0.963700
Si Si8 0.387731 0.600638 0.369919
O O1 0.705814 0.099926 0.705983
O O2 0.628321 0.275461 0.659210
O O3 0.904626 0.371408 0.739430
O O4 0.485903 0.242852 0.916399
O O5 0.675165 0.692965 0.603488
O O6 0.728063 0.715358 0.809624
O O7 0.829914 0.557956 0.603636
O O8 0.083470 0.854158 0.557192
O O9 0.002299 0.328577 0.890984
O O10 0.404488 0.403245 0.782734
O O11 0.142232 0.272692 0.029695
O O12 0.164847 0.507289 0.021011
O O13 0.575362 0.862605 0.593314
O O14 0.000000 0.000000 0.500000
O O15 0.241872 0.588854 0.750179
O O16 0.448197 0.628403 0.481366
O O17 0.500000 0.500000 0.000000
#
# Coordination Sequence:
#
# PCOD9001288 Si02
#       8
#     2   2   2   2   2   2   2   2
#     4  11  23  40  67  96 123 165 205 262 312 371
#     4  11  20  40  67  92 126 163 205 260 317 362
#     4  10  21  34  61 101 123 150 194 275 312 360
#     4  10  26  44  58  89 130 173 211 244 307 377
#     4  11  24  39  59  90 129 172 202 253 301 375
#     4  11  20  36  65  97 122 155 211 256 317 356
#     4  11  18  40  64  97 126 152 204 266 322 357
#     4  11  21  39  65  95 126 154 212 261 313 357
#
# _framework density 21.467358000000001
#
# number of rings (size 3 to 8) (size 9 to 14) (size 15 to 20)
#    0.000    1.250    5.000    1.125    5.250    3.500 
#    0.000    3.750    0.000    3.000    0.000    0.000 
#    0.000    0.000    0.000    0.000    0.000    0.000 
#
# Total GULP energy -89170.524531 kJ/mol
# GULP energy per Si atom -5573.157783 kJ/mol
# Density = 2.141850 g / cm^3
# Si number density = 21.467358 Si / 1000 Ang^3
#
#
#
# Elastic Constant Matrix: (Units=GPa)
#
#
# Indices 1 2 3 4 5 6 
#
# 1 94.9731 12.7293 40.0023 12.2035 8.7134 -10.0450
# 2 12.7293 93.4417 40.6855 12.9320 -6.9093 -0.5401
# 3 40.0023 40.6855 130.1905 26.8156 12.4204 -5.7553
# 4 12.2035 12.9320 26.8156 16.7660 -8.8501 -13.1010
# 5 8.7134 -6.9093 12.4204 -8.8501 41.1577 6.5450
# 6 -10.0450 -0.5401 -5.7553 -13.1010 6.5450 19.4562
#
#
#
# Elastic Compliance Matrix: (Units=1/GPa)
#
#
# Indices 1 2 3 4 5 6 
#
# 1 0.012941 -0.000488 -0.003049 -0.001014 -0.003093 0.006123
# 2 -0.000488 0.013688 -0.001190 -0.017337 0.000977 -0.012227
# 3 -0.003049 -0.001190 0.024664 -0.076818 -0.017110 -0.040282
# 4 -0.001014 -0.017337 -0.076818 0.416737 0.073160 0.232275
# 5 -0.003093 0.000977 -0.017110 0.073160 0.041448 0.028689
# 6 0.006123 -0.012227 -0.040282 0.232275 0.028689 0.189058
#
#
# Mechanical properties :
#
#
# Convention : Reuss Voigt Hill
#
# Bulk Modulus (GPa) = 23.90207 56.15994 40.03101
# Shear Modulus (GPa) = 6.92583 30.48852 18.70718
#
# Velocity S-wave (km/s) = 1.79812 3.77268 2.95519
# Velocity P-wave (km/s) = 3.93310 6.72271 5.50746
#
# Compressibility (1/GPa) = 0.04183738
#
# Stress axis : x y z
#
# Youngs Moduli (GPa) = 77.27568 73.05925 40.54547
#
# Poissons Ratio (x) = 0.03568 0.12361
# Poissons Ratio (y) = 0.03774 0.04825
# Poissons Ratio (z) = 0.23560 0.08695
#
# Static dielectric constant tensor:
#      x y z
#    x 1.896030 -0.016100 -0.002200 
#    y -0.016100 1.812130 -0.008160 
#    z -0.002200 -0.008160 1.793740 
# 
# From -- ./inp_files/390627.got.cif
#   From: 2010.05.17/outbox.cif.g08.bks.cpg/sg2_196_cif.got.tgz:390627.got - 2010.06.03 11:33:40.
