data_PCOD9001261
_publ_section_title
;
Structure prediction by ZEFSAII (Michael W. Deem and Ramdas Pophale) SiO2 
 PCOD9001261
Probable space group: P -1
;
_chemical_formula_sum "Si O2"
_cell_formula_units_Z 16
_cell_length_a 8.770516
_cell_length_b 10.547431
_cell_length_c 13.726890
_cell_angle_alpha 43.240234
_cell_angle_beta 72.377934
_cell_angle_gamma 104.594515
_cell_volume 572.156992
_symmetry_space_group_name_H-M "P -1"
_symmetry_group_IT_number 2
_symmetry_cell_setting 'triclinic'
loop_
_space_group_symop_operation_xyz
x,y,z
-x,-y,-z
loop_
_atom_site_type_symbol
_atom_site_label
_atom_site_fract_x
_atom_site_fract_y
_atom_site_fract_z
Si Si1 0.491189 0.509118 0.286716
Si Si2 0.185463 0.150627 0.794263
Si Si3 0.219221 0.070174 0.373964
Si Si4 0.888702 0.516092 0.422636
Si Si5 0.617408 0.052106 0.214426
Si Si6 0.810761 0.113675 0.327209
Si Si7 0.269948 0.314421 0.048526
Si Si8 0.314223 0.733483 0.118057
O O1 0.583335 0.620984 0.313815
O O2 0.353372 0.203168 0.480035
O O3 0.329278 0.539550 0.263498
O O4 0.711012 0.695953 0.065085
O O5 0.133956 0.286036 0.663266
O O6 0.221853 0.987285 0.825654
O O7 0.000000 0.000000 0.000000
O O8 0.206826 0.882717 0.553794
O O9 0.209418 0.076103 0.255145
O O10 0.468463 0.383133 0.159442
O O11 0.000000 0.000000 0.500000
O O12 0.644098 0.235751 0.589350
O O13 0.000000 0.500000 0.500000
O O14 0.075568 0.637046 0.235344
O O15 0.697515 0.164463 0.245782
O O16 0.643691 0.226474 0.027677
O O17 0.069424 0.280378 0.147928
O O18 0.500000 0.000000 0.000000
#
# Coordination Sequence:
#
# PCOD9001261 Si02
#       8
#     2   2   2   2   2   2   2   2
#     4  11  22  37  55  84 117 153 204 244 287 353
#     4  12  22  38  57  79 115 156 204 250 291 343
#     4   8  16  34  58  94 122 140 180 243 294 353
#     4  12  24  37  56  76 110 158 202 249 296 336
#     4  12  24  38  56  81 117 159 202 246 294 340
#     4  10  21  34  59  88 115 150 198 241 289 356
#     4   9  18  34  61  88 119 150 183 239 301 347
#     4  12  24  40  51  79 117 158 203 250 292 338
#
# _framework density 27.964352999999999
#
# number of rings (size 3 to 8) (size 9 to 14) (size 15 to 20)
#    0.000    1.250    5.000    1.125    1.750    1.000 
#    0.000    0.000    0.000    0.750    0.000   30.625 
#    0.000    0.000    0.000    0.000    0.000    0.000 
#
# Total GULP energy -89612.060010 kJ/mol
# GULP energy per Si atom -5600.753751 kJ/mol
# Density = 2.790071 g / cm^3
# Si number density = 27.964353 Si / 1000 Ang^3
#
#
#
# Elastic Constant Matrix: (Units=GPa)
#
#
# Indices 1 2 3 4 5 6 
#
# 1 158.9068 27.8257 68.4439 17.2864 7.3545 12.1418
# 2 27.8257 85.5469 44.0722 8.9973 18.7197 23.1837
# 3 68.4439 44.0722 196.2879 24.4976 -11.7382 17.2656
# 4 17.2864 8.9973 24.4976 45.2442 11.5960 6.4245
# 5 7.3545 18.7197 -11.7382 11.5960 79.1992 14.0436
# 6 12.1418 23.1837 17.2656 6.4245 14.0436 47.4944
#
#
#
# Elastic Compliance Matrix: (Units=1/GPa)
#
#
# Indices 1 2 3 4 5 6 
#
# 1 0.007640 -0.000957 -0.002296 -0.001294 -0.000580 -0.000305
# 2 -0.000957 0.015633 -0.002938 0.000425 -0.003138 -0.005448
# 3 -0.002296 -0.002938 0.007158 -0.002938 0.002566 -0.000942
# 4 -0.001294 0.000425 -0.002938 0.025260 -0.003925 -0.001065
# 5 -0.000580 -0.003138 0.002566 -0.003925 0.014933 -0.003137
# 6 -0.000305 -0.005448 -0.000942 -0.001065 -0.003137 0.025207
#
#
# Mechanical properties :
#
#
# Convention : Reuss Voigt Hill
#
# Bulk Modulus (GPa) = 55.40198 80.15835 67.78017
# Shear Modulus (GPa) = 43.77223 54.41420 49.09322
#
# Velocity S-wave (km/s) = 3.96066 4.41596 4.19449
# Velocity P-wave (km/s) = 6.38517 7.39781 6.91007
#
# Compressibility (1/GPa) = 0.01804990
#
# Stress axis : x y z
#
# Youngs Moduli (GPa) = 130.88654 63.96918 139.71074
#
# Poissons Ratio (x) = 0.06120 0.32072
# Poissons Ratio (y) = 0.12523 0.41045
# Poissons Ratio (z) = 0.30047 0.18793
#
# Static dielectric constant tensor:
#      x y z
#    x 2.203890 0.085430 0.019530 
#    y 0.085430 2.241590 0.041930 
#    z 0.019530 0.041930 2.205430 
# 
# From -- ./inp_files/504393.got.cif
#   From: 2010.05.17/outbox.cif.g08.bks.cpg/sg2_253_cif.got.tgz:504393.got - 2010.06.03 11:33:40.
