data_PCOD9001303
_publ_section_title
;
Structure prediction by ZEFSAII (Michael W. Deem and Ramdas Pophale) SiO2 
 PCOD9001303
Probable space group: P -1
;
_chemical_formula_sum "Si O2"
_cell_formula_units_Z 16
_cell_length_a 7.892557
_cell_length_b 11.626986
_cell_length_c 21.828382
_cell_angle_alpha 48.574482
_cell_angle_beta 75.304396
_cell_angle_gamma 37.249912
_cell_volume 726.292097
_symmetry_space_group_name_H-M "P -1"
_symmetry_group_IT_number 2
_symmetry_cell_setting 'triclinic'
loop_
_space_group_symop_operation_xyz
x,y,z
-x,-y,-z
loop_
_atom_site_type_symbol
_atom_site_label
_atom_site_fract_x
_atom_site_fract_y
_atom_site_fract_z
Si Si1 0.953294 0.685870 0.604174
Si Si2 0.860719 0.796701 0.229260
Si Si3 0.189308 0.347651 0.888615
Si Si4 0.076474 0.293891 0.106807
Si Si5 0.576461 0.190243 0.223156
Si Si6 0.258512 0.182662 0.556262
Si Si7 0.213968 0.731532 0.122928
Si Si8 0.551581 0.247441 0.790613
O O1 0.910486 0.756714 0.511777
O O2 0.919214 0.523375 0.665013
O O3 0.318280 0.471584 0.674593
O O4 0.621830 0.986173 0.569911
O O5 0.954479 0.803202 0.153803
O O6 0.473741 0.018395 0.188795
O O7 0.846088 0.938811 0.233280
O O8 0.272617 0.345939 0.814878
O O9 0.173304 0.498821 0.885415
O O10 0.817656 0.547168 0.856850
O O11 0.500000 0.000000 0.000000
O O12 0.107613 0.111247 0.132464
O O13 0.000000 0.500000 0.000000
O O14 0.524925 0.400839 0.178181
O O15 0.656080 0.014612 0.333326
O O16 0.000000 0.500000 0.500000
O O17 0.350359 0.714475 0.177035
O O18 0.000000 0.000000 0.000000
#
# Coordination Sequence:
#
# PCOD9001303 Si02
#       8
#     2   2   2   2   2   2   2   2
#     4  10  21  39  68  96 121 151 209 271 313 366
#     4  10  22  41  61  89 126 163 210 256 310 365
#     4  11  20  36  63  87 117 159 214 262 309 353
#     4  10  21  34  62  85 112 155 212 271 300 349
#     4  11  22  42  64  93 125 161 209 263 308 373
#     4  11  20  37  72 103 116 151 206 271 328 359
#     4  12  27  41  59  86 136 179 207 243 307 382
#     4  11  23  39  57  89 125 164 206 254 310 369
#
# _framework density 22.029705
#
# number of rings (size 3 to 8) (size 9 to 14) (size 15 to 20)
#    0.000    1.250    5.000    1.500    3.500    1.500 
#    0.000    0.625    0.000    1.500    0.000    0.000 
#    0.000    0.000    0.000    0.000    0.000    0.000 
#
# Total GULP energy -89302.368577 kJ/mol
# GULP energy per Si atom -5581.398036 kJ/mol
# Density = 2.197956 g / cm^3
# Si number density = 22.029705 Si / 1000 Ang^3
#
#
#
# Elastic Constant Matrix: (Units=GPa)
#
#
# Indices 1 2 3 4 5 6 
#
# 1 71.5194 16.2648 17.5140 -8.9136 1.9166 28.3500
# 2 16.2648 157.8399 32.9677 -15.3382 -9.4501 27.4062
# 3 17.5140 32.9677 118.1535 -3.4528 10.2743 11.3106
# 4 -8.9136 -15.3382 -3.4528 43.5487 5.7224 -9.3893
# 5 1.9166 -9.4501 10.2743 5.7224 25.6856 1.2348
# 6 28.3500 27.4062 11.3106 -9.3893 1.2348 40.5789
#
#
#
# Elastic Compliance Matrix: (Units=1/GPa)
#
#
# Indices 1 2 3 4 5 6 
#
# 1 0.019780 0.000816 -0.001817 0.001278 -0.000082 -0.013566
# 2 0.000816 0.007930 -0.002125 0.001192 0.003689 -0.005170
# 3 -0.001817 -0.002125 0.009716 0.000300 -0.004609 0.000206
# 4 0.001278 0.001192 0.000300 0.025323 -0.005623 0.004249
# 5 -0.000082 0.003689 -0.004609 -0.005623 0.043574 -0.003777
# 6 -0.013566 -0.005170 0.000206 0.004249 -0.003777 0.038653
#
#
# Mechanical properties :
#
#
# Convention : Reuss Voigt Hill
#
# Bulk Modulus (GPa) = 32.07703 53.44510 42.76106
# Shear Modulus (GPa) = 30.93718 40.68039 35.80879
#
# Velocity S-wave (km/s) = 3.75152 4.30189 4.03609
# Velocity P-wave (km/s) = 5.77560 6.99915 6.41661
#
# Compressibility (1/GPa) = 0.03117496
#
# Stress axis : x y z
#
# Youngs Moduli (GPa) = 50.55491 126.11025 102.92798
#
# Poissons Ratio (x) = -0.10290 0.18698
# Poissons Ratio (y) = -0.04125 0.21868
# Poissons Ratio (z) = 0.09184 0.26793
#
# Static dielectric constant tensor:
#      x y z
#    x 1.933210 0.037560 0.004010 
#    y 0.037560 1.902070 -0.030890 
#    z 0.004010 -0.030890 1.848960 
# 
# From -- ./inp_files/607562.got.cif
#   From: 2010.05.17/outbox.cif.g08.bks.cpg/sg2_304_cif.got.tgz:607562.got - 2010.06.03 11:33:40.
