data_PCOD9001290
_publ_section_title
;
Structure prediction by ZEFSAII (Michael W. Deem and Ramdas Pophale) SiO2 
 PCOD9001290
Probable space group: P -1
;
_chemical_formula_sum "Si O2"
_cell_formula_units_Z 14
_cell_length_a 17.639889
_cell_length_b 7.637006
_cell_length_c 14.551043
_cell_angle_alpha 35.238355
_cell_angle_beta 150.485525
_cell_angle_gamma 135.824364
_cell_volume 557.050455
_symmetry_space_group_name_H-M "P -1"
_symmetry_group_IT_number 2
_symmetry_cell_setting 'triclinic'
loop_
_space_group_symop_operation_xyz
x,y,z
-x,-y,-z
loop_
_atom_site_type_symbol
_atom_site_label
_atom_site_fract_x
_atom_site_fract_y
_atom_site_fract_z
Si Si1 0.615909 0.557431 0.229391
Si Si2 0.765809 0.195401 0.671961
Si Si3 0.283985 0.373425 0.893470
Si Si4 0.625343 0.292758 0.769059
Si Si5 0.130528 0.258470 0.222263
Si Si6 0.356026 0.249251 0.625685
Si Si7 0.947125 0.710484 0.167951
O O1 0.651391 0.224271 0.453066
O O2 0.438326 0.548875 0.015756
O O3 0.653212 0.776599 0.262039
O O4 0.723732 0.582989 0.243153
O O5 0.678299 0.389118 0.572334
O O6 0.816558 0.879816 0.899896
O O7 0.921958 0.389821 0.722868
O O8 0.142912 0.463946 0.771143
O O9 0.313896 0.011185 0.084136
O O10 0.500000 0.500000 0.500000
O O11 0.760897 0.538931 0.816645
O O12 0.527530 0.182004 0.802109
O O13 0.228506 0.136450 0.465852
O O14 0.000000 0.500000 0.000000
O O15 0.045302 0.976883 0.206748
#
# Coordination Sequence:
#
# PCOD9001290 Si02
#       7
#     2   2   2   2   2   2   2
#     4   9  23  42  57  82 122 151 198 234 279 346
#     4   9  21  39  55  90 115 150 190 243 280 339
#     4  11  22  40  61  86 111 161 192 234 290 342
#     4  10  21  34  61  88 111 149 193 236 292 331
#     4  11  18  36  56  88 120 141 188 241 289 342
#     4   9  20  37  54  82 116 152 186 235 282 337
#     4  11  21  36  63  87 116 151 191 239 293 336
#
# _framework density 25.132375
#
# number of rings (size 3 to 8) (size 9 to 14) (size 15 to 20)
#    0.857    1.143    2.857    0.857    4.000    4.000 
#    0.000    0.714    0.000    0.000    0.000    0.000 
#    0.000    0.000    0.000    0.000    0.000    0.000 
#
# Total GULP energy -78036.172718 kJ/mol
# GULP energy per Si atom -5574.012337 kJ/mol
# Density = 2.507517 g / cm^3
# Si number density = 25.132375 Si / 1000 Ang^3
#
#
#
# Elastic Constant Matrix: (Units=GPa)
#
#
# Indices 1 2 3 4 5 6 
#
# 1 144.9983 23.5448 27.0773 13.7305 -1.4443 14.5324
# 2 23.5448 76.5734 15.9754 7.6273 -11.8483 7.3579
# 3 27.0773 15.9754 69.7872 12.8381 -15.8736 -0.6758
# 4 13.7305 7.6273 12.8381 25.8192 0.5404 2.5387
# 5 -1.4443 -11.8483 -15.8736 0.5404 57.9235 2.4265
# 6 14.5324 7.3579 -0.6758 2.5387 2.4265 35.2455
#
#
#
# Elastic Compliance Matrix: (Units=1/GPa)
#
#
# Indices 1 2 3 4 5 6 
#
# 1 0.008125 -0.001567 -0.002554 -0.002293 -0.000677 -0.002860
# 2 -0.001567 0.014799 -0.001748 -0.002481 0.002636 -0.002480
# 3 -0.002554 -0.001748 0.018139 -0.007435 0.004536 0.001989
# 4 -0.002293 -0.002481 -0.007435 0.044608 -0.002948 -0.001689
# 5 -0.000677 0.002636 0.004536 -0.002948 0.019111 -0.001288
# 6 -0.002860 -0.002480 0.001989 -0.001689 -0.001288 0.030318
#
#
# Mechanical properties :
#
#
# Convention : Reuss Voigt Hill
#
# Bulk Modulus (GPa) = 34.09906 47.17267 40.63586
# Shear Modulus (GPa) = 31.92607 38.78174 35.35390
#
# Velocity S-wave (km/s) = 3.56802 3.93249 3.75468
# Velocity P-wave (km/s) = 5.52916 6.27931 5.91613
#
# Compressibility (1/GPa) = 0.02932632
#
# Stress axis : x y z
#
# Youngs Moduli (GPa) = 123.07735 67.57164 55.13010
#
# Poissons Ratio (x) = 0.10588 0.14078
# Poissons Ratio (y) = 0.19286 0.09636
# Poissons Ratio (z) = 0.31428 0.11810
#
# Static dielectric constant tensor:
#      x y z
#    x 2.202110 0.044480 -0.027370 
#    y 0.044480 2.023570 -0.064300 
#    z -0.027370 -0.064300 2.051410 
# 
# From -- ./inp_files/418404.got.cif
#   From: 2010.05.17/outbox.cif.g08.bks.cpg/sg2_210_cif.got.tgz:418404.got - 2010.06.03 11:33:40.
