data_PCOD9001921
_publ_section_title
;
Structure prediction by ZEFSAII (Michael W. Deem and Ramdas Pophale) SiO2 
 PCOD9001921
Probable space group: P -1
;
_chemical_formula_sum "Si O2"
_cell_formula_units_Z 16
_cell_length_a 27.090988
_cell_length_b 5.165273
_cell_length_c 5.548017
_cell_angle_alpha 98.067866
_cell_angle_beta 60.678416
_cell_angle_gamma 113.545534
_cell_volume 619.043732
_symmetry_space_group_name_H-M "P -1"
_symmetry_group_IT_number 2
_symmetry_cell_setting 'triclinic'
loop_
_space_group_symop_operation_xyz
x,y,z
-x,-y,-z
loop_
_atom_site_type_symbol
_atom_site_label
_atom_site_fract_x
_atom_site_fract_y
_atom_site_fract_z
Si Si1 0.542760 0.830643 0.423121
Si Si2 0.733083 0.197313 0.693924
Si Si3 0.160789 0.721930 0.924130
Si Si4 0.428598 0.283067 0.161938
Si Si5 0.685535 0.585647 0.616776
Si Si6 0.037239 0.226960 0.640157
Si Si7 0.202877 0.325724 0.009117
Si Si8 0.928141 0.187322 0.250740
O O1 0.500000 0.500000 0.500000
O O2 0.575682 0.899705 0.611561
O O3 0.500000 0.000000 0.500000
O O4 0.582013 0.859663 0.093910
O O5 0.777935 0.223927 0.367354
O O6 0.683079 0.313422 0.732023
O O7 0.708784 0.866156 0.769202
O O8 0.771091 0.428758 0.825513
O O9 0.150467 0.414429 0.017402
O O10 0.114974 0.763044 0.842643
O O11 0.176681 0.994440 0.096134
O O12 0.379069 0.425953 0.329807
O O13 0.500000 0.500000 0.000000
O O14 0.738402 0.634099 0.297025
O O15 0.061895 0.556577 0.550558
O O16 0.086374 0.111981 0.621491
O O17 0.000000 0.000000 0.500000
O O18 0.990040 0.223316 0.964092
#
# Coordination Sequence:
#
# PCOD9001921 Si02
#       8
#     2   2   2   2   2   2   2   2
#     4  10  22  40  62  88 124 158 202 252 302 364
#     4  10  22  40  60  86 118 151 198 246 306 363
#     4  10  21  37  59  88 112 152 196 250 296 356
#     4  10  23  43  65  94 127 165 209 258 315 383
#     4  10  23  39  60  88 117 155 196 245 304 368
#     4  10  21  36  54  81 118 160 193 240 293 355
#     4  10  21  39  60  83 118 148 195 246 304 360
#     4  10  21  36  55  83 118 149 201 245 289 352
#
# _framework density 25.846316000000002
#
# number of rings (size 3 to 8) (size 9 to 14) (size 15 to 20)
#    0.000    2.000    0.000    2.250    1.750    6.000 
#    2.250    0.000    0.000    0.000    0.000    0.000 
#    0.000    0.000    0.000    0.000    0.000    0.000 
#
# Total GULP energy -89416.747711 kJ/mol
# GULP energy per Si atom -5588.546732 kJ/mol
# Density = 2.578749 g / cm^3
# Si number density = 25.846316 Si / 1000 Ang^3
#
#
#
# Elastic Constant Matrix: (Units=GPa)
#
#
# Indices 1 2 3 4 5 6 
#
# 1 149.1824 43.4397 30.9746 11.6396 -13.2736 -46.2400
# 2 43.4397 165.6220 52.6199 27.8038 -11.9428 -25.6607
# 3 30.9746 52.6199 116.7613 28.9310 2.6721 -16.2893
# 4 11.6396 27.8038 28.9310 41.3598 -3.5637 -1.1634
# 5 -13.2736 -11.9428 2.6721 -3.5637 48.9323 11.1645
# 6 -46.2400 -25.6607 -16.2893 -1.1634 11.1645 52.1498
#
#
#
# Elastic Compliance Matrix: (Units=1/GPa)
#
#
# Indices 1 2 3 4 5 6 
#
# 1 0.009671 -0.000810 -0.000796 -0.001351 0.000598 0.007770
# 2 -0.000810 0.007951 -0.002250 -0.003387 0.001100 0.002180
# 3 -0.000796 -0.002250 0.011810 -0.006669 -0.002407 0.002243
# 4 -0.001351 -0.003387 -0.006669 0.031586 0.002565 -0.004792
# 5 0.000598 0.001100 -0.002407 0.002565 0.022183 -0.004372
# 6 0.007770 0.002180 0.002243 -0.004792 -0.004372 0.028668
#
#
# Mechanical properties :
#
#
# Convention : Reuss Voigt Hill
#
# Bulk Modulus (GPa) = 46.03940 76.18157 61.11048
# Shear Modulus (GPa) = 39.42592 48.79047 44.10819
#
# Velocity S-wave (km/s) = 3.90987 4.34950 4.13553
# Velocity P-wave (km/s) = 6.18338 7.40020 6.81899
#
# Compressibility (1/GPa) = 0.02172053
#
# Stress axis : x y z
#
# Youngs Moduli (GPa) = 103.39969 125.77278 84.67440
#
# Poissons Ratio (x) = 0.10189 0.06736
# Poissons Ratio (y) = 0.08377 0.19052
# Poissons Ratio (z) = 0.08226 0.28299
#
# Static dielectric constant tensor:
#      x y z
#    x 2.099990 0.020020 0.066830 
#    y 0.020020 2.056030 -0.022650 
#    z 0.066830 -0.022650 2.037740 
# 
# From -- ./inp_files/121825.got.cif
#   From: 2010.05.17/outbox.cif.g08.bks.cpg/sg2_61_cif.got.tgz:121825.got - 2010.06.03 11:33:40.
