data_PCOD9001362
_publ_section_title
;
Structure prediction by ZEFSAII (Michael W. Deem and Ramdas Pophale) SiO2 
 PCOD9001362
Probable space group: P -1
;
_chemical_formula_sum "Si O2"
_cell_formula_units_Z 14
_cell_length_a 26.202036
_cell_length_b 5.154343
_cell_length_c 11.391144
_cell_angle_alpha 122.203686
_cell_angle_beta 150.078941
_cell_angle_gamma 67.399481
_cell_volume 638.253899
_symmetry_space_group_name_H-M "P -1"
_symmetry_group_IT_number 2
_symmetry_cell_setting 'triclinic'
loop_
_space_group_symop_operation_xyz
x,y,z
-x,-y,-z
loop_
_atom_site_type_symbol
_atom_site_label
_atom_site_fract_x
_atom_site_fract_y
_atom_site_fract_z
Si Si1 0.260461 0.033496 0.729504
Si Si2 0.578417 0.445767 0.741862
Si Si3 0.526683 0.155980 0.966133
Si Si4 0.937018 0.409962 0.232179
Si Si5 0.417613 0.167973 0.520954
Si Si6 0.852096 0.430667 0.429187
Si Si7 0.807039 0.916272 0.004673
O O1 0.210312 0.282454 0.615069
O O2 0.173858 0.787457 0.562148
O O3 0.324635 0.278674 0.008799
O O4 0.353086 0.870318 0.825260
O O5 0.500000 0.500000 0.500000
O O6 0.517815 0.416688 0.737935
O O7 0.601023 0.108056 0.678448
O O8 0.451953 0.027175 0.676343
O O9 0.500000 0.500000 0.000000
O O10 0.500000 0.000000 0.000000
O O11 0.869055 0.667244 0.124313
O O12 0.000000 0.500000 0.500000
O O13 0.027576 0.426013 0.320256
O O14 0.863977 0.086949 0.044177
O O15 0.305683 0.261768 0.309551
O O16 0.814813 0.194621 0.186672
#
# Coordination Sequence:
#
# PCOD9001362 Si02
#       7
#     2   2   2   2   2   2   2
#     4  12  22  37  62  87 117 164 200 243 303 361
#     4  11  21  35  59  93 127 154 200 250 308 374
#     4  12  27  45  60  86 124 165 214 258 300 361
#     4  10  21  35  52  86 132 165 189 236 299 378
#     4  11  24  38  60  90 125 166 203 251 307 371
#     4  11  20  35  57  89 123 158 197 238 300 370
#     4  11  21  34  57  88 126 165 195 236 308 368
#
# _framework density 21.934846
#
# number of rings (size 3 to 8) (size 9 to 14) (size 15 to 20)
#    0.000    0.857    2.857    7.714    2.000    0.000 
#    0.000    0.000    0.000    0.000    0.000   20.000 
#    0.000    0.000    0.000    0.000    0.000    0.000 
#
# Total GULP energy -78086.823489 kJ/mol
# GULP energy per Si atom -5577.630249 kJ/mol
# Density = 2.188492 g / cm^3
# Si number density = 21.934846 Si / 1000 Ang^3
#
#
#
# Elastic Constant Matrix: (Units=GPa)
#
#
# Indices 1 2 3 4 5 6 
#
# 1 87.2352 39.9551 25.8151 -4.8686 8.9335 16.4542
# 2 39.9551 145.8554 28.7392 -25.8429 8.7392 16.6648
# 3 25.8151 28.7392 43.6919 -19.9107 11.7301 2.7389
# 4 -4.8686 -25.8429 -19.9107 37.0728 0.3491 3.4539
# 5 8.9335 8.7392 11.7301 0.3491 20.5539 -1.1161
# 6 16.4542 16.6648 2.7389 3.4539 -1.1161 42.7188
#
#
#
# Elastic Compliance Matrix: (Units=1/GPa)
#
#
# Indices 1 2 3 4 5 6 
#
# 1 0.016108 -0.002869 -0.009211 -0.004438 -0.000675 -0.004153
# 2 -0.002869 0.009375 -0.000875 0.005996 -0.002507 -0.003046
# 3 -0.009211 -0.000875 0.045299 0.022850 -0.021943 -0.001436
# 4 -0.004438 0.005996 0.022850 0.043540 -0.014726 -0.005999
# 5 -0.000675 -0.002507 -0.021943 -0.014726 0.063082 0.005483
# 6 -0.004153 -0.003046 -0.001436 -0.005999 0.005483 0.026917
#
#
# Mechanical properties :
#
#
# Convention : Reuss Voigt Hill
#
# Bulk Modulus (GPa) = 22.28587 51.75572 37.02079
# Shear Modulus (GPa) = 20.39235 32.22065 26.30650
#
# Velocity S-wave (km/s) = 3.05237 3.83681 3.46685
# Velocity P-wave (km/s) = 4.75444 6.57834 5.73931
#
# Compressibility (1/GPa) = 0.04487148
#
# Stress axis : x y z
#
# Youngs Moduli (GPa) = 62.08122 106.66549 22.07541
#
# Poissons Ratio (x) = 0.30602 0.20334
# Poissons Ratio (y) = 0.17811 0.01932
# Poissons Ratio (z) = 0.57185 0.09335
#
# Static dielectric constant tensor:
#      x y z
#    x 2.283730 -0.016950 0.303290 
#    y -0.016950 1.857580 0.064850 
#    z 0.303290 0.064850 2.049220 
# 
# From -- ./inp_files/409674.got.cif
#   From: 2010.05.17/outbox.cif.g08.bks.cpg/sg2_205_cif.got.tgz:409674.got - 2010.06.03 11:33:40.
