data_PCOD9001771
_publ_section_title
;
Structure prediction by ZEFSAII (Michael W. Deem and Ramdas Pophale) SiO2 
 PCOD9001771
Probable space group: P -1
;
_chemical_formula_sum "Si O2"
_cell_formula_units_Z 16
_cell_length_a 9.217023
_cell_length_b 10.297781
_cell_length_c 11.563362
_cell_angle_alpha 62.591696
_cell_angle_beta 139.137477
_cell_angle_gamma 107.815975
_cell_volume 635.772293
_symmetry_space_group_name_H-M "P -1"
_symmetry_group_IT_number 2
_symmetry_cell_setting 'triclinic'
loop_
_space_group_symop_operation_xyz
x,y,z
-x,-y,-z
loop_
_atom_site_type_symbol
_atom_site_label
_atom_site_fract_x
_atom_site_fract_y
_atom_site_fract_z
Si Si1 0.746596 0.430325 0.706089
Si Si2 0.024804 0.133524 0.643412
Si Si3 0.556344 0.843481 0.960113
Si Si4 0.667180 0.841849 0.368949
Si Si5 0.067796 0.166019 0.992274
Si Si6 0.833431 0.427556 0.512404
Si Si7 0.704312 0.896763 0.613112
Si Si8 0.587786 0.376363 0.857665
O O1 0.500000 0.500000 0.500000
O O2 0.838051 0.262452 0.806825
O O3 0.869703 0.485620 0.641376
O O4 0.773267 0.437688 0.858981
O O5 0.267465 0.103944 0.860284
O O6 0.088813 0.176013 0.535013
O O7 0.888132 0.257095 0.586123
O O8 0.886132 0.994996 0.625963
O O9 0.413711 0.719479 0.985162
O O10 0.735324 0.789242 0.992252
O O11 0.420023 0.986839 0.769370
O O12 0.645532 0.801517 0.506956
O O13 0.517888 0.739199 0.246139
O O14 0.172541 0.182536 0.174305
O O15 0.000000 0.000000 0.000000
O O16 0.591467 0.485718 0.297785
O O17 0.000000 0.500000 0.500000
O O18 0.500000 0.000000 0.500000
#
# Coordination Sequence:
#
# PCOD9001771 Si02
#       8
#     2   2   2   2   2   2   2   2
#     4  10  22  35  60  98 123 152 207 272 317 371
#     4  11  22  39  62  93 124 169 216 261 313 380
#     4  11  20  36  63  92 126 160 217 267 312 378
#     4  11  23  38  59  96 132 167 202 264 332 383
#     4  12  21  39  65  92 121 166 219 269 317 375
#     4  11  18  37  62  94 117 157 210 265 311 361
#     4  12  26  39  59  94 137 174 204 261 329 386
#     4  10  21  35  62  96 118 159 212 264 312 371
#
# _framework density 25.166243000000001
#
# number of rings (size 3 to 8) (size 9 to 14) (size 15 to 20)
#    0.000    1.000    6.250    2.625    3.500    0.000 
#    0.000    0.000    0.000    3.750   13.000    0.000 
#    0.000    0.000    0.000    0.000    0.000    0.000 
#
# Total GULP energy -89204.573761 kJ/mol
# GULP energy per Si atom -5575.285860 kJ/mol
# Density = 2.510896 g / cm^3
# Si number density = 25.166243 Si / 1000 Ang^3
#
#
#
# Elastic Constant Matrix: (Units=GPa)
#
#
# Indices 1 2 3 4 5 6 
#
# 1 201.2035 27.5113 39.0794 3.3223 -20.5490 -16.8540
# 2 27.5113 38.7321 32.3905 -4.7009 0.6096 -0.7397
# 3 39.0794 32.3905 98.2962 -13.3714 -9.9765 -5.1962
# 4 3.3223 -4.7009 -13.3714 32.4046 -11.0139 0.4120
# 5 -20.5490 0.6096 -9.9765 -11.0139 42.4104 -7.0189
# 6 -16.8540 -0.7397 -5.1962 0.4120 -7.0189 35.1434
#
#
#
# Elastic Compliance Matrix: (Units=1/GPa)
#
#
# Indices 1 2 3 4 5 6 
#
# 1 0.006295 -0.003882 -0.000747 -0.000404 0.003406 0.003512
# 2 -0.003882 0.038665 -0.012201 -0.001107 -0.006271 -0.004091
# 3 -0.000747 -0.012201 0.016188 0.006957 0.005904 0.002876
# 4 -0.000404 -0.001107 0.006957 0.037537 0.011652 0.002699
# 5 0.003406 -0.006271 0.005904 0.011652 0.031134 0.008456
# 6 0.003512 -0.004091 0.002876 0.002699 0.008456 0.032135
#
#
# Mechanical properties :
#
#
# Convention : Reuss Voigt Hill
#
# Bulk Modulus (GPa) = 36.37878 59.57712 47.97795
# Shear Modulus (GPa) = 24.41673 37.94174 31.17923
#
# Velocity S-wave (km/s) = 3.11821 3.88705 3.52366
# Velocity P-wave (km/s) = 5.23938 6.62347 5.97166
#
# Compressibility (1/GPa) = 0.02748855
#
# Stress axis : x y z
#
# Youngs Moduli (GPa) = 158.86401 25.86299 61.77285
#
# Poissons Ratio (x) = 0.10040 0.04614
# Poissons Ratio (y) = 0.61671 0.75369
# Poissons Ratio (z) = 0.11865 0.31555
#
# Static dielectric constant tensor:
#      x y z
#    x 2.087690 0.078890 -0.098050 
#    y 0.078890 1.981550 0.057670 
#    z -0.098050 0.057670 2.042460 
# 
# From -- ./inp_files/392387.got.cif
#   From: 2010.05.17/outbox.cif.g08.bks.cpg/sg2_197_cif.got.tgz:392387.got - 2010.06.03 11:33:40.
