data_PCOD9001201
_publ_section_title
;
Structure prediction by ZEFSAII (Michael W. Deem and Ramdas Pophale) SiO2 
 PCOD9001201
Probable space group: P -1
;
_chemical_formula_sum "Si O2"
_cell_formula_units_Z 16
_cell_length_a 17.714627
_cell_length_b 12.107142
_cell_length_c 11.378142
_cell_angle_alpha 70.725556
_cell_angle_beta 38.728757
_cell_angle_gamma 42.361459
_cell_volume 834.804203
_symmetry_space_group_name_H-M "P -1"
_symmetry_group_IT_number 2
_symmetry_cell_setting 'triclinic'
loop_
_space_group_symop_operation_xyz
x,y,z
-x,-y,-z
loop_
_atom_site_type_symbol
_atom_site_label
_atom_site_fract_x
_atom_site_fract_y
_atom_site_fract_z
Si Si1 0.521880 0.982213 0.797510
Si Si2 0.019822 0.266471 0.685583
Si Si3 0.018681 0.342373 0.911674
Si Si4 0.815578 0.061687 0.558282
Si Si5 0.386627 0.281718 0.032506
Si Si6 0.811283 0.535466 0.340712
Si Si7 0.980854 0.855980 0.684714
Si Si8 0.356705 0.972073 0.795718
O O1 0.756276 0.845744 0.551933
O O2 0.417970 0.033769 0.782254
O O3 0.388276 0.181045 0.964144
O O4 0.542287 0.845890 0.893881
O O5 0.953236 0.323992 0.882433
O O6 0.066117 0.105057 0.627781
O O7 0.836138 0.481236 0.767046
O O8 0.072753 0.433996 0.783558
O O9 0.226740 0.120827 0.791246
O O10 0.859920 0.468311 0.169099
O O11 0.900016 0.945170 0.620992
O O12 0.569934 0.227299 0.796086
O O13 0.871877 0.153149 0.454170
O O14 0.569001 0.743680 0.582475
O O15 0.902143 0.359867 0.370809
O O16 0.789768 0.994488 0.958986
#
# Coordination Sequence:
#
# PCOD9001201 Si02
#       8
#     2   2   2   2   2   2   2   2
#     4  10  21  34  56  92 123 155 191 245 300 358
#     4  11  23  36  60  87 124 162 191 240 298 365
#     4  10  23  37  57  94 121 155 199 246 291 353
#     4  10  23  42  60  87 120 160 199 248 292 350
#     4  10  22  36  56  87 127 158 190 239 305 356
#     4  10  22  36  61  87 118 156 197 243 295 346
#     4  10  23  41  62  88 120 152 206 249 289 352
#     4  11  21  38  63  89 121 157 197 246 298 345
#
# _framework density 19.166170999999999
#
# number of rings (size 3 to 8) (size 9 to 14) (size 15 to 20)
#    0.000    1.750    2.500    0.750    7.000    2.000 
#    0.000    5.000    0.000    4.500    0.000    0.000 
#    0.000    0.000    0.000    0.000    0.000    0.000 
#
# Total GULP energy -89393.286058 kJ/mol
# GULP energy per Si atom -5587.080379 kJ/mol
# Density = 1.912255 g / cm^3
# Si number density = 19.166171 Si / 1000 Ang^3
#
#
#
# Elastic Constant Matrix: (Units=GPa)
#
#
# Indices 1 2 3 4 5 6 
#
# 1 46.9340 3.9233 -5.0162 -14.1764 -3.0723 -2.4160
# 2 3.9233 67.2232 23.0145 -6.1399 -5.7987 -1.7153
# 3 -5.0162 23.0145 50.6221 7.1500 -6.8149 3.1170
# 4 -14.1764 -6.1399 7.1500 24.0423 1.5840 -1.2827
# 5 -3.0723 -5.7987 -6.8149 1.5840 23.8256 0.0195
# 6 -2.4160 -1.7153 3.1170 -1.2827 0.0195 8.6420
#
#
#
# Elastic Compliance Matrix: (Units=1/GPa)
#
#
# Indices 1 2 3 4 5 6 
#
# 1 0.026881 0.000445 -0.000146 0.016385 0.002435 0.010082
# 2 0.000445 0.019584 -0.010496 0.008789 0.001230 0.009099
# 3 -0.000146 -0.010496 0.027945 -0.012237 0.006245 -0.014033
# 4 0.016385 0.008789 -0.012237 0.058381 -0.003146 0.019411
# 5 0.002435 0.001230 0.006245 -0.003146 0.044582 -0.001895
# 6 0.010082 0.009099 -0.014033 0.019411 -0.001895 0.128286
#
#
# Mechanical properties :
#
#
# Convention : Reuss Voigt Hill
#
# Bulk Modulus (GPa) = 18.51273 23.18028 20.84650
# Shear Modulus (GPa) = 14.53246 20.82583 17.67914
#
# Velocity S-wave (km/s) = 2.75659 3.29993 3.04042
# Velocity P-wave (km/s) = 4.45104 5.16139 4.81932
#
# Compressibility (1/GPa) = 0.05401690
#
# Stress axis : x y z
#
# Youngs Moduli (GPa) = 37.20079 51.06162 35.78506
#
# Poissons Ratio (x) = -0.02272 0.00522
# Poissons Ratio (y) = -0.01655 0.37559
# Poissons Ratio (z) = 0.00542 0.53593
#
# Static dielectric constant tensor:
#      x y z
#    x 1.666430 -0.010180 0.014480 
#    y -0.010180 1.644100 -0.002780 
#    z 0.014480 -0.002780 1.678200 
# 
# From -- ./inp_files/457606.got.cif
#   From: 2010.05.17/outbox.cif.g08.bks.cpg/sg2_229_cif.got.tgz:457606.got - 2010.06.03 11:33:40.
