data_PCOD9001376
_publ_section_title
;
Structure prediction by ZEFSAII (Michael W. Deem and Ramdas Pophale) SiO2 
 PCOD9001376
Probable space group: P -1
;
_chemical_formula_sum "Si O2"
_cell_formula_units_Z 16
_cell_length_a 10.395269
_cell_length_b 8.973814
_cell_length_c 16.350254
_cell_angle_alpha 41.551112
_cell_angle_beta 137.159585
_cell_angle_gamma 108.261219
_cell_volume 586.771772
_symmetry_space_group_name_H-M "P -1"
_symmetry_group_IT_number 2
_symmetry_cell_setting 'triclinic'
loop_
_space_group_symop_operation_xyz
x,y,z
-x,-y,-z
loop_
_atom_site_type_symbol
_atom_site_label
_atom_site_fract_x
_atom_site_fract_y
_atom_site_fract_z
Si Si1 0.356053 0.579006 0.108506
Si Si2 0.853367 0.848769 0.827151
Si Si3 0.923460 0.493364 0.313649
Si Si4 0.145938 0.374987 0.252908
Si Si5 0.251178 0.881383 0.598989
Si Si6 0.429475 0.822429 0.883527
Si Si7 0.660180 0.749756 0.234837
Si Si8 0.829382 0.264073 0.762464
O O1 0.530319 0.274780 0.291793
O O2 0.521610 0.610901 0.233011
O O3 0.111569 0.741197 0.966344
O O4 0.337455 0.724707 0.953737
O O5 0.768124 0.794292 0.723203
O O6 0.747378 0.124473 0.714065
O O7 0.904615 0.618028 0.011517
O O8 0.914782 0.227598 0.433829
O O9 0.868413 0.609780 0.331402
O O10 0.076412 0.591872 0.307476
O O11 0.692964 0.666989 0.082975
O O12 0.262537 0.515801 0.295713
O O13 0.135053 0.181730 0.393223
O O14 0.358931 0.802680 0.769988
O O15 0.328768 0.132530 0.723658
O O16 0.500000 0.000000 0.000000
O O17 0.000000 0.000000 0.000000
#
# Coordination Sequence:
#
# PCOD9001376 Si02
#       8
#     2   2   2   2   2   2   2   2
#     4   9  17  33  59  83 109 151 194 232 284 343
#     4  10  21  42  64  76 111 160 202 235 279 343
#     4   9  17  33  56  83 116 148 192 234 281 344
#     4  10  24  40  57  85 117 155 194 238 286 344
#     4  10  21  35  53  92 125 138 186 244 296 340
#     4   9  16  29  54  87 114 147 181 237 288 340
#     4   7  13  27  49  80 109 140 184 234 276 328
#     4  10  21  39  62  81 110 158 203 231 274 351
#
# _framework density 27.267842999999999
#
# number of rings (size 3 to 8) (size 9 to 14) (size 15 to 20)
#    0.000    3.250    0.000    3.750    3.500    1.000 
#    4.500    0.625    0.000    2.250    0.000    0.000 
#    0.000    0.000    0.000    0.000    0.000    0.000 
#
# Total GULP energy -89117.603487 kJ/mol
# GULP energy per Si atom -5569.850218 kJ/mol
# Density = 2.720578 g / cm^3
# Si number density = 27.267843 Si / 1000 Ang^3
#
#
#
# Elastic Constant Matrix: (Units=GPa)
#
#
# Indices 1 2 3 4 5 6 
#
# 1 79.8518 15.2105 35.0542 5.8794 -14.0192 3.6515
# 2 15.2105 176.2694 41.0577 1.7308 -17.0317 -53.9851
# 3 35.0542 41.0577 147.1215 -15.2033 -27.2003 10.0771
# 4 5.8794 1.7308 -15.2033 38.6945 8.4001 -0.1514
# 5 -14.0192 -17.0317 -27.2003 8.4001 36.3709 -7.5129
# 6 3.6515 -53.9851 10.0771 -0.1514 -7.5129 -1.6740
#
#
#
# Elastic Compliance Matrix: (Units=1/GPa)
#
#
# Indices 1 2 3 4 5 6 
#
# 1 0.015053 -0.000160 -0.003189 -0.004474 0.004331 -0.000217
# 2 -0.000160 0.000866 0.000396 0.000633 -0.002526 -0.014622
# 3 -0.003189 0.000396 0.008418 0.002554 0.005711 0.005078
# 4 -0.004474 0.000633 0.002554 0.028613 -0.005041 0.005255
# 5 0.004331 -0.002526 0.005711 -0.005041 0.030820 -0.012570
# 6 -0.000217 -0.014622 0.005078 0.005255 -0.012570 -0.039807
#
#
# Mechanical properties :
#
#
# Convention : Reuss Voigt Hill
#
# Bulk Modulus (GPa) = 54.25275 65.09862 59.67568
# Shear Modulus (GPa) = 89.26330 35.47297 62.36813
#
# Velocity S-wave (km/s) = 5.72772 3.61072 4.78770
# Velocity P-wave (km/s) = 7.98009 6.42718 7.24536
#
# Compressibility (1/GPa) = 0.01843225
#
# Stress axis : x y z
#
# Youngs Moduli (GPa) = 66.43085 1154.32842 118.78863
#
# Poissons Ratio (x) = 0.18521 0.37877
# Poissons Ratio (y) = 0.01066 -0.04707
# Poissons Ratio (z) = 0.21182 -0.45744
#
# Static dielectric constant tensor:
#      x y z
#    x 2.178180 -0.006860 0.040180 
#    y -0.006860 2.291070 -0.132820 
#    z 0.040180 -0.132820 2.059910 
# 
# From -- ./inp_files/514938.got.cif
#   From: 2010.05.17/outbox.cif.g08.bks.cpg/sg2_258_cif.got.tgz:514938.got - 2010.06.03 11:33:40.
