data_PCOD9001793
_publ_section_title
;
Structure prediction by ZEFSAII (Michael W. Deem and Ramdas Pophale) SiO2 
 PCOD9001793
Probable space group: P -1
;
_chemical_formula_sum "Si O2"
_cell_formula_units_Z 12
_cell_length_a 12.759885
_cell_length_b 5.126309
_cell_length_c 9.889095
_cell_angle_alpha 87.215035
_cell_angle_beta 65.485754
_cell_angle_gamma 110.827507
_cell_volume 535.261797
_symmetry_space_group_name_H-M "P -1"
_symmetry_group_IT_number 2
_symmetry_cell_setting 'triclinic'
loop_
_space_group_symop_operation_xyz
x,y,z
-x,-y,-z
loop_
_atom_site_type_symbol
_atom_site_label
_atom_site_fract_x
_atom_site_fract_y
_atom_site_fract_z
Si Si1 0.970496 0.198176 0.694824
Si Si2 0.386548 0.876564 0.169243
Si Si3 0.114079 0.831915 0.573175
Si Si4 0.282241 0.287227 0.103669
Si Si5 0.550355 0.656163 0.252495
Si Si6 0.611843 0.909674 0.482945
O O1 0.919609 0.186326 0.567868
O O2 0.022942 0.530120 0.696742
O O3 0.856798 0.956441 0.843984
O O4 0.083583 0.093936 0.633598
O O5 0.287822 0.573307 0.166997
O O6 0.458483 0.809647 0.256020
O O7 0.335977 0.122347 0.184543
O O8 0.500000 0.000000 0.000000
O O9 0.257429 0.882639 0.524198
O O10 0.372024 0.365314 0.920902
O O11 0.644313 0.818756 0.319914
O O12 0.456791 0.360890 0.376792
O O13 0.500000 0.000000 0.500000
#
# Coordination Sequence:
#
# PCOD9001793 Si02
#       6
#     2   2   2   2   2   2
#     4  10  22  41  68  92 121 168 208 275 303 370
#     4  10  21  35  63  95 130 161 200 269 320 371
#     4  10  23  42  64  92 126 163 221 249 319 373
#     4  11  22  40  66  97 130 160 216 267 322 370
#     4  10  24  39  60  96 126 171 212 257 328 378
#     4  11  26  41  65  89 133 177 208 263 315 391
#
# _framework density 22.418935999999999
#
# number of rings (size 3 to 8) (size 9 to 14) (size 15 to 20)
#    0.000    1.667    0.000    4.000   14.000    1.333 
#    0.000    1.667    0.000    0.000    0.000    0.000 
#    0.000    0.000    0.000    0.000    0.000    0.000 
#
# Total GULP energy -66999.374415 kJ/mol
# GULP energy per Si atom -5583.281201 kJ/mol
# Density = 2.236791 g / cm^3
# Si number density = 22.418936 Si / 1000 Ang^3
#
#
#
# Elastic Constant Matrix: (Units=GPa)
#
#
# Indices 1 2 3 4 5 6 
#
# 1 106.3327 18.3972 26.4870 -9.1340 11.3305 9.8300
# 2 18.3972 87.0795 27.6196 -16.7368 14.5557 0.8528
# 3 26.4870 27.6196 102.2216 -10.7171 14.3332 0.4548
# 4 -9.1340 -16.7368 -10.7171 37.4537 0.5165 -2.7727
# 5 11.3305 14.5557 14.3332 0.5165 29.2679 -9.6938
# 6 9.8300 0.8528 0.4548 -2.7727 -9.6938 31.0907
#
#
#
# Elastic Compliance Matrix: (Units=1/GPa)
#
#
# Indices 1 2 3 4 5 6 
#
# 1 0.011047 -0.000611 -0.001853 0.001603 -0.004671 -0.004763
# 2 -0.000611 0.014526 -0.002246 0.005663 -0.006554 -0.001711
# 3 -0.001853 -0.002246 0.011647 0.001887 -0.004114 -0.000637
# 4 0.001603 0.005663 0.001887 0.030266 -0.004717 0.000539
# 5 -0.004671 -0.006554 -0.004114 -0.004717 0.046572 0.015817
# 6 -0.004763 -0.001711 -0.000637 0.000539 0.015817 0.038706
#
#
# Mechanical properties :
#
#
# Convention : Reuss Voigt Hill
#
# Bulk Modulus (GPa) = 35.97078 48.96017 42.46548
# Shear Modulus (GPa) = 29.16283 34.43779 31.80031
#
# Velocity S-wave (km/s) = 3.61059 3.92357 3.77033
# Velocity P-wave (km/s) = 5.78459 6.51245 6.15928
#
# Compressibility (1/GPa) = 0.02780034
#
# Stress axis : x y z
#
# Youngs Moduli (GPa) = 90.51847 68.84185 85.85723
#
# Poissons Ratio (x) = 0.04204 0.15912
# Poissons Ratio (y) = 0.05527 0.19286
# Poissons Ratio (z) = 0.16776 0.15463
#
# Static dielectric constant tensor:
#      x y z
#    x 1.203410 0.472110 -0.163540 
#    y 0.472110 1.546520 0.157550 
#    z -0.163540 0.157550 1.813230 
# 
# From -- ./inp_files/63588.got.cif
#   From: 2010.05.17/outbox.cif.g08.bks.cpg/sg2_32_cif.got.tgz:63588.got - 2010.06.03 11:33:40.
