data_PCOD9001739
_publ_section_title
;
Structure prediction by ZEFSAII (Michael W. Deem and Ramdas Pophale) SiO2 
 PCOD9001739
Probable space group: P -1
;
_chemical_formula_sum "Si O2"
_cell_formula_units_Z 16
_cell_length_a 18.618873
_cell_length_b 14.402446
_cell_length_c 10.079139
_cell_angle_alpha 150.989574
_cell_angle_beta 39.523700
_cell_angle_gamma 143.276836
_cell_volume 760.330692
_symmetry_space_group_name_H-M "P -1"
_symmetry_group_IT_number 2
_symmetry_cell_setting 'triclinic'
loop_
_space_group_symop_operation_xyz
x,y,z
-x,-y,-z
loop_
_atom_site_type_symbol
_atom_site_label
_atom_site_fract_x
_atom_site_fract_y
_atom_site_fract_z
Si Si1 0.710193 0.280855 0.767166
Si Si2 0.066072 0.146411 0.965038
Si Si3 0.967692 0.775000 0.453739
Si Si4 0.503754 0.454371 0.281576
Si Si5 0.335574 0.203545 0.723152
Si Si6 0.130966 0.737156 0.708825
Si Si7 0.280814 0.236875 0.136489
Si Si8 0.062735 0.466263 0.055627
O O1 0.775053 0.323540 0.584195
O O2 0.813418 0.442358 0.919530
O O3 0.685004 0.041436 0.545774
O O4 0.588222 0.323113 0.987699
O O5 0.209390 0.221147 0.880434
O O6 0.035787 0.011890 0.704297
O O7 0.987185 0.284151 0.240001
O O8 0.000000 0.000000 0.000000
O O9 0.831979 0.690121 0.609574
O O10 0.054309 0.659704 0.230208
O O11 0.941547 0.717018 0.265206
O O12 0.500000 0.500000 0.500000
O O13 0.565254 0.660348 0.356825
O O14 0.371013 0.327056 0.244294
O O15 0.353387 0.282462 0.949635
O O16 0.063578 0.618721 0.786692
O O17 0.209562 0.984569 0.933281
#
# Coordination Sequence:
#
# PCOD9001739 Si02
#       8
#     2   2   2   2   2   2   2   2
#     4  11  23  42  67  93 127 163 223 261 316 389
#     4  11  17  38  63  94 127 159 203 255 323 383
#     4  10  21  35  62  87 137 158 200 255 322 386
#     4  12  28  46  64  91 128 174 222 268 318 377
#     4  11  23  42  71  94 123 176 211 271 320 370
#     4  10  22  35  66  94 126 164 207 265 318 380
#     4  10  23  44  60  92 124 169 218 260 316 377
#     4  11  21  36  57 103 127 161 200 261 325 387
#
# _framework density 21.043475000000001
#
# number of rings (size 3 to 8) (size 9 to 14) (size 15 to 20)
#    0.000    1.250    5.000    2.250    1.750    5.500 
#    2.250    0.000    0.000    0.000    0.000    0.000 
#    0.000    0.000    0.000    0.000    0.000    0.000 
#
# Total GULP energy -89325.924514 kJ/mol
# GULP energy per Si atom -5582.870282 kJ/mol
# Density = 2.099558 g / cm^3
# Si number density = 21.043475 Si / 1000 Ang^3
#
#
#
# Elastic Constant Matrix: (Units=GPa)
#
#
# Indices 1 2 3 4 5 6 
#
# 1 75.3283 20.5756 26.5979 4.3805 13.7146 10.7724
# 2 20.5756 62.9121 6.5763 4.6593 6.5230 -5.0329
# 3 26.5979 6.5763 99.6243 0.8386 10.6478 -5.9337
# 4 4.3805 4.6593 0.8386 21.5555 -2.2494 0.0059
# 5 13.7146 6.5230 10.6478 -2.2494 45.8632 -4.8948
# 6 10.7724 -5.0329 -5.9337 0.0059 -4.8948 33.0545
#
#
#
# Elastic Compliance Matrix: (Units=1/GPa)
#
#
# Indices 1 2 3 4 5 6 
#
# 1 0.018670 -0.005595 -0.004585 -0.002902 -0.004768 -0.008465
# 2 -0.005595 0.018319 0.000663 -0.002927 -0.000737 0.004623
# 3 -0.004585 0.000663 0.011534 0.000233 -0.001014 0.003516
# 4 -0.002902 -0.002927 0.000233 0.047991 0.003699 0.001081
# 5 -0.004768 -0.000737 -0.001014 0.003699 0.024269 0.004853
# 6 -0.008465 0.004623 0.003516 0.001081 0.004853 0.035065
#
#
# Mechanical properties :
#
#
# Convention : Reuss Voigt Hill
#
# Bulk Modulus (GPa) = 33.91121 38.37383 36.14252
# Shear Modulus (GPa) = 27.06927 32.36896 29.71911
#
# Velocity S-wave (km/s) = 3.59046 3.92624 3.76210
# Velocity P-wave (km/s) = 5.77394 6.23128 6.00696
#
# Compressibility (1/GPa) = 0.02948877
#
# Stress axis : x y z
#
# Youngs Moduli (GPa) = 53.56219 54.58943 86.70031
#
# Poissons Ratio (x) = 0.30541 0.39755
# Poissons Ratio (y) = 0.29966 -0.05749
# Poissons Ratio (z) = 0.24560 -0.03620
#
# Static dielectric constant tensor:
#      x y z
#    x 1.755680 -0.045050 0.016980 
#    y -0.045050 1.804840 0.033540 
#    z 0.016980 0.033540 1.791240 
# 
# From -- ./inp_files/243008.got.cif
#   From: 2010.05.17/outbox.cif.g08.bks.cpg/sg2_122_cif.got.tgz:243008.got - 2010.06.03 11:33:40.
