data_PCOD9001980
_publ_section_title
;
Structure prediction by ZEFSAII (Michael W. Deem and Ramdas Pophale) SiO2 
 PCOD9001980
Probable space group: P -1
;
_chemical_formula_sum "Si O2"
_cell_formula_units_Z 16
_cell_length_a 5.459909
_cell_length_b 25.689214
_cell_length_c 5.341642
_cell_angle_alpha 75.003354
_cell_angle_beta 119.545764
_cell_angle_gamma 82.220547
_cell_volume 597.976287
_symmetry_space_group_name_H-M "P -1"
_symmetry_group_IT_number 2
_symmetry_cell_setting 'triclinic'
loop_
_space_group_symop_operation_xyz
x,y,z
-x,-y,-z
loop_
_atom_site_type_symbol
_atom_site_label
_atom_site_fract_x
_atom_site_fract_y
_atom_site_fract_z
Si Si1 0.611730 0.576795 0.928181
Si Si2 0.445370 0.954780 0.715771
Si Si3 0.219936 0.547424 0.421041
Si Si4 0.011744 0.829022 0.856248
Si Si5 0.413235 0.792502 0.602311
Si Si6 0.612675 0.684285 0.539410
Si Si7 0.771278 0.340934 0.989371
Si Si8 0.101188 0.066824 0.638132
O O1 0.342008 0.554589 0.746789
O O2 0.648031 0.617884 0.674199
O O3 0.502562 0.619393 0.046699
O O4 0.924232 0.533669 0.213824
O O5 0.247037 0.922350 0.520531
O O6 0.500000 0.000000 0.500000
O O7 0.236029 0.998369 0.762770
O O8 0.720075 0.918398 0.061719
O O9 0.500000 0.500000 0.500000
O O10 0.142051 0.612132 0.194573
O O11 0.209879 0.808129 0.728141
O O12 0.726290 0.806379 0.763213
O O13 0.875015 0.896299 0.636169
O O14 0.223005 0.818436 0.221702
O O15 0.507829 0.724928 0.673911
O O16 0.347317 0.700792 0.185524
O O17 0.943506 0.686760 0.656552
#
# Coordination Sequence:
#
# PCOD9001980 Si02
#       8
#     2   2   2   2   2   2   2   2
#     4  10  21  37  59  86 114 165 202 263 324 384
#     4  10  21  38  65  96 127 180 230 284 343 410
#     4  10  21  36  55  88 124 155 205 254 321 402
#     4  12  28  49  73 107 147 191 236 299 364 433
#     4  12  28  47  73 105 140 190 240 293 370 425
#     4  10  23  39  62  87 121 159 217 277 322 412
#     4  10  21  39  60  88 118 162 210 267 330 388
#     4  10  23  39  63  96 133 177 232 284 346 418
#
# _framework density 26.756913999999998
#
# number of rings (size 3 to 8) (size 9 to 14) (size 15 to 20)
#    0.000    1.500    0.000    3.750    7.000    1.000 
#    0.000    0.000    0.000    0.000    0.000    0.000 
#    0.000    0.000    0.000    0.000    0.000    0.000 
#
# Total GULP energy -89400.600968 kJ/mol
# GULP energy per Si atom -5587.537561 kJ/mol
# Density = 2.669601 g / cm^3
# Si number density = 26.756914 Si / 1000 Ang^3
#
#
#
# Elastic Constant Matrix: (Units=GPa)
#
#
# Indices 1 2 3 4 5 6 
#
# 1 121.6308 33.3375 73.9902 19.1109 36.2642 2.6958
# 2 33.3375 82.0064 18.8450 -4.0674 17.1045 1.8858
# 3 73.9902 18.8450 204.5412 8.0200 32.0213 32.3005
# 4 19.1109 -4.0674 8.0200 39.7589 14.4186 0.9909
# 5 36.2642 17.1045 32.0213 14.4186 58.3768 7.0585
# 6 2.6958 1.8858 32.3005 0.9909 7.0585 55.8876
#
#
#
# Elastic Compliance Matrix: (Units=1/GPa)
#
#
# Indices 1 2 3 4 5 6 
#
# 1 0.013831 -0.004072 -0.004173 -0.004748 -0.004239 0.002502
# 2 -0.004072 0.014613 0.000476 0.004483 -0.003088 -0.000261
# 3 -0.004173 0.000476 0.007106 0.001179 -0.001279 -0.003781
# 4 -0.004748 0.004483 0.001179 0.029974 -0.006374 -0.000330
# 5 -0.004239 -0.003088 -0.001279 -0.006374 0.023158 -0.001764
# 6 0.002502 -0.000261 -0.003781 -0.000330 -0.001764 0.020195
#
#
# Mechanical properties :
#
#
# Convention : Reuss Voigt Hill
#
# Bulk Modulus (GPa) = 49.97508 73.39152 61.68330
# Shear Modulus (GPa) = 38.14276 49.60505 43.87390
#
# Velocity S-wave (km/s) = 3.77971 4.31038 4.05374
# Velocity P-wave (km/s) = 6.14543 7.22918 6.70922
#
# Compressibility (1/GPa) = 0.02000997
#
# Stress axis : x y z
#
# Youngs Moduli (GPa) = 72.30164 68.43282 140.73013
#
# Poissons Ratio (x) = 0.27868 0.58729
# Poissons Ratio (y) = 0.29444 -0.06695
# Poissons Ratio (z) = 0.30173 -0.03256
#
# Static dielectric constant tensor:
#      x y z
#    x 2.192280 0.006540 0.037580 
#    y 0.006540 2.192290 -0.040600 
#    z 0.037580 -0.040600 2.186880 
# 
# From -- ./inp_files/14524.got.cif
#   From: 2010.05.17/outbox.cif.g08.bks.cpg/sg2_8_cif.got.tgz:14524.got - 2010.06.03 11:33:40.
