data_PCOD9001744
_publ_section_title
;
Structure prediction by ZEFSAII (Michael W. Deem and Ramdas Pophale) SiO2 
 PCOD9001744
Probable space group: P -1
;
_chemical_formula_sum "Si O2"
_cell_formula_units_Z 16
_cell_length_a 11.578616
_cell_length_b 13.782711
_cell_length_c 13.944609
_cell_angle_alpha 119.073489
_cell_angle_beta 41.561512
_cell_angle_gamma 148.204331
_cell_volume 702.586370
_symmetry_space_group_name_H-M "P -1"
_symmetry_group_IT_number 2
_symmetry_cell_setting 'triclinic'
loop_
_space_group_symop_operation_xyz
x,y,z
-x,-y,-z
loop_
_atom_site_type_symbol
_atom_site_label
_atom_site_fract_x
_atom_site_fract_y
_atom_site_fract_z
Si Si1 0.250994 0.020459 0.648667
Si Si2 0.595777 0.102104 0.641793
Si Si3 0.303886 0.123704 0.051793
Si Si4 0.860493 0.294430 0.182274
Si Si5 0.039563 0.588316 0.116453
Si Si6 0.634226 0.452239 0.857249
Si Si7 0.706395 0.466342 0.590237
Si Si8 0.832535 0.667774 0.158041
O O1 0.332949 0.032261 0.713524
O O2 0.512003 0.254408 0.576447
O O3 0.293871 0.935287 0.517782
O O4 0.901295 0.883395 0.782964
O O5 0.922436 0.340680 0.575076
O O6 0.435807 0.947985 0.753252
O O7 0.609521 0.242024 0.976130
O O8 0.428531 0.241999 0.931080
O O9 0.045665 0.887468 0.100339
O O10 0.805170 0.393125 0.238038
O O11 0.019717 0.370839 0.223524
O O12 0.124465 0.388827 0.988410
O O13 0.962845 0.671914 0.171913
O O14 0.000000 0.500000 0.000000
O O15 0.665133 0.456158 0.726472
O O16 0.500000 0.500000 0.000000
O O17 0.520462 0.475198 0.672034
#
# Coordination Sequence:
#
# PCOD9001744 Si02
#       8
#     2   2   2   2   2   2   2   2
#     4  10  23  37  57  88 121 162 195 232 293 357
#     4  11  22  39  57  81 128 162 190 236 290 356
#     4  10  21  35  62  89 113 149 192 252 287 343
#     4  10  21  36  58  86 110 156 197 239 290 348
#     4   9  20  38  61  85 113 144 196 246 296 343
#     4  11  19  33  56  88 119 148 191 240 293 342
#     4  11  23  37  61  87 123 159 194 239 288 356
#     4  10  21  38  61  88 114 148 196 247 294 341
#
# _framework density 22.773
#
# number of rings (size 3 to 8) (size 9 to 14) (size 15 to 20)
#    0.000    1.750    1.250    3.750    5.250    1.000 
#    2.250    0.625    0.000    1.500    0.000    0.000 
#    0.000    0.000    0.000    0.000    0.000    0.000 
#
# Total GULP energy -89387.572262 kJ/mol
# GULP energy per Si atom -5586.723266 kJ/mol
# Density = 2.272117 g / cm^3
# Si number density = 22.773000 Si / 1000 Ang^3
#
#
#
# Elastic Constant Matrix: (Units=GPa)
#
#
# Indices 1 2 3 4 5 6 
#
# 1 128.6235 18.6758 40.6302 -13.4301 -26.4281 -13.3093
# 2 18.6758 63.1696 3.7548 -12.5942 1.8543 -14.6450
# 3 40.6302 3.7548 57.3363 -6.8134 -9.9896 -4.3264
# 4 -13.4301 -12.5942 -6.8134 36.8264 -6.1414 7.4163
# 5 -26.4281 1.8543 -9.9896 -6.1414 24.6783 -2.2366
# 6 -13.3093 -14.6450 -4.3264 7.4163 -2.2366 34.3789
#
#
#
# Elastic Compliance Matrix: (Units=1/GPa)
#
#
# Indices 1 2 3 4 5 6 
#
# 1 0.013844 -0.002394 -0.006423 0.004666 0.013878 0.003428
# 2 -0.002394 0.018800 0.001094 0.004191 -0.001929 0.006190
# 3 -0.006423 0.001094 0.022787 0.002648 0.002965 0.000469
# 4 0.004666 0.004191 0.002648 0.033582 0.013892 -0.002416
# 5 0.013878 -0.001929 0.002965 0.013892 0.060719 0.005877
# 6 0.003428 0.006190 0.000469 -0.002416 0.005877 0.034014
#
#
# Mechanical properties :
#
#
# Convention : Reuss Voigt Hill
#
# Bulk Modulus (GPa) = 25.00801 41.69455 33.35128
# Shear Modulus (GPa) = 23.52711 31.58131 27.55421
#
# Velocity S-wave (km/s) = 3.21770 3.72800 3.48221
# Velocity P-wave (km/s) = 4.98097 6.07282 5.55379
#
# Compressibility (1/GPa) = 0.03998718
#
# Stress axis : x y z
#
# Youngs Moduli (GPa) = 72.23145 53.19080 43.88406
#
# Poissons Ratio (x) = 0.12732 0.28186
# Poissons Ratio (y) = 0.17289 -0.04801
# Poissons Ratio (z) = 0.46392 -0.05819
#
# Static dielectric constant tensor:
#      x y z
#    x 1.895040 -0.064110 0.014930 
#    y -0.064110 1.896510 -0.001460 
#    z 0.014930 -0.001460 1.903430 
# 
# From -- ./inp_files/502853.got.cif
#   From: 2010.05.17/outbox.cif.g08.bks.cpg/sg2_252_cif.got.tgz:502853.got - 2010.06.03 11:33:40.
