data_PCOD9001456
_publ_section_title
;
Structure prediction by ZEFSAII (Michael W. Deem and Ramdas Pophale) SiO2 
 PCOD9001456
Probable space group: P -1
;
_chemical_formula_sum "Si O2"
_cell_formula_units_Z 16
_cell_length_a 23.678988
_cell_length_b 13.958592
_cell_length_c 14.451052
_cell_angle_alpha 20.674016
_cell_angle_beta 147.255001
_cell_angle_gamma 148.700725
_cell_volume 853.178573
_symmetry_space_group_name_H-M "P -1"
_symmetry_group_IT_number 2
_symmetry_cell_setting 'triclinic'
loop_
_space_group_symop_operation_xyz
x,y,z
-x,-y,-z
loop_
_atom_site_type_symbol
_atom_site_label
_atom_site_fract_x
_atom_site_fract_y
_atom_site_fract_z
Si Si1 0.486990 0.038333 0.159011
Si Si2 0.365284 0.208070 0.983087
Si Si3 0.378206 0.000707 0.860079
Si Si4 0.149654 0.896347 0.851070
Si Si5 0.102144 0.260359 0.293210
Si Si6 0.559570 0.808079 0.703293
Si Si7 0.745316 0.664529 0.727266
Si Si8 0.372172 0.307858 0.285306
O O1 0.535024 0.780142 0.450177
O O2 0.431445 0.013328 0.205748
O O3 0.583837 0.351245 0.989880
O O4 0.391832 0.032249 0.960488
O O5 0.454208 0.519365 0.796626
O O6 0.246930 0.094675 0.872561
O O7 0.363026 0.225948 0.074454
O O8 0.339839 0.237607 0.542528
O O9 0.293809 0.682327 0.007959
O O10 0.500000 0.000000 0.000000
O O11 0.030329 0.823676 0.803262
O O12 0.140835 0.059936 0.596915
O O13 0.157877 0.588746 0.111526
O O14 0.141670 0.230487 0.270955
O O15 0.633803 0.872557 0.654494
O O16 0.500000 0.000000 0.500000
O O17 0.731385 0.764779 0.721608
#
# Coordination Sequence:
#
# PCOD9001456 Si02
#       8
#     2   2   2   2   2   2   2   2
#     4  11  20  31  48  74 104 140 177 210 265 331
#     4  10  21  35  56  79 109 146 183 235 282 323
#     4  12  21  32  48  77 112 146 180 212 264 345
#     4  10  22  40  60  85 112 146 190 236 275 327
#     4  10  22  39  59  86 114 146 191 228 275 336
#     4  10  21  36  53  79 111 144 190 229 279 336
#     4  12  21  34  52  75 112 149 174 223 279 322
#     4  11  21  33  48  72 107 142 174 216 266 325
#
# _framework density 18.753402000000001
#
# number of rings (size 3 to 8) (size 9 to 14) (size 15 to 20)
#    0.000    1.250    3.750    3.375    1.750    1.000 
#    0.000    0.000    0.000    0.750    0.000    0.875 
#    0.000    0.000    0.000    0.000    0.000    0.000 
#
# Total GULP energy -89154.239108 kJ/mol
# GULP energy per Si atom -5572.139944 kJ/mol
# Density = 1.871072 g / cm^3
# Si number density = 18.753402 Si / 1000 Ang^3
#
#
#
# Elastic Constant Matrix: (Units=GPa)
#
#
# Indices 1 2 3 4 5 6 
#
# 1 172.0178 31.3501 9.7541 3.2798 -12.7642 -0.0518
# 2 31.3501 68.4713 1.2847 2.4163 -1.8363 -1.2432
# 3 9.7541 1.2847 44.4631 -2.2205 -4.8554 -5.3182
# 4 3.2798 2.4163 -2.2205 7.8092 -2.6970 4.4644
# 5 -12.7642 -1.8363 -4.8554 -2.6970 23.8351 2.1635
# 6 -0.0518 -1.2432 -5.3182 4.4644 2.1635 21.9260
#
#
#
# Elastic Compliance Matrix: (Units=1/GPa)
#
#
# Indices 1 2 3 4 5 6 
#
# 1 0.006654 -0.002924 -0.001150 -0.000840 0.003060 -0.000560
# 2 -0.002924 0.016140 0.000040 -0.005349 -0.001111 0.002117
# 3 -0.001150 0.000040 0.024065 0.006626 0.004673 0.004026
# 4 -0.000840 -0.005349 0.006626 0.158209 0.021386 -0.033022
# 5 0.003060 -0.001111 0.004673 0.021386 0.047603 -0.007974
# 6 -0.000560 0.002117 0.004026 -0.033022 -0.007974 0.054214
#
#
# Mechanical properties :
#
#
# Convention : Reuss Voigt Hill
#
# Bulk Modulus (GPa) = 25.77940 41.08111 33.43026
# Shear Modulus (GPa) = 15.24932 26.88495 21.06714
#
# Velocity S-wave (km/s) = 2.85467 3.79040 3.35532
# Velocity P-wave (km/s) = 4.96406 6.41169 5.73374
#
# Compressibility (1/GPa) = 0.03879066
#
# Stress axis : x y z
#
# Youngs Moduli (GPa) = 150.27916 61.95842 41.55495
#
# Poissons Ratio (x) = 0.18114 0.04779
# Poissons Ratio (y) = 0.43935 -0.00165
# Poissons Ratio (z) = 0.17284 -0.00246
#
# Static dielectric constant tensor:
#      x y z
#    x 1.798030 -0.027390 -0.005880 
#    y -0.027390 1.637000 0.001310 
#    z -0.005880 0.001310 1.729590 
# 
# From -- ./inp_files/96932.got.cif
#   From: 2010.05.17/outbox.cif.g08.bks.cpg/sg2_49_cif.got.tgz:96932.got - 2010.06.03 11:33:40.
