data_PCOD9001078
_publ_section_title
;
Structure prediction by ZEFSAII (Michael W. Deem and Ramdas Pophale) SiO2 
 PCOD9001078
Probable space group: P -1
;
_chemical_formula_sum "Si O2"
_cell_formula_units_Z 16
_cell_length_a 9.955119
_cell_length_b 6.745805
_cell_length_c 16.077825
_cell_angle_alpha 119.317118
_cell_angle_beta 142.961293
_cell_angle_gamma 53.643984
_cell_volume 523.472541
_symmetry_space_group_name_H-M "P -1"
_symmetry_group_IT_number 2
_symmetry_cell_setting 'triclinic'
loop_
_space_group_symop_operation_xyz
x,y,z
-x,-y,-z
loop_
_atom_site_type_symbol
_atom_site_label
_atom_site_fract_x
_atom_site_fract_y
_atom_site_fract_z
Si Si1 0.773258 0.177535 0.627739
Si Si2 0.762230 0.514425 0.129320
Si Si3 0.584009 0.940584 0.761501
Si Si4 0.923558 0.807253 0.476496
Si Si5 0.738724 0.661569 0.610044
Si Si6 0.728084 0.004966 0.159422
Si Si7 0.927516 0.313619 0.982767
Si Si8 0.437217 0.544064 0.709763
O O1 0.754143 0.404439 0.605479
O O2 0.507628 0.248165 0.548939
O O3 0.017855 0.107390 0.786991
O O4 0.850786 0.944000 0.557252
O O5 0.747346 0.791832 0.190484
O O6 0.984698 0.368672 0.271254
O O7 0.500000 0.500000 0.000000
O O8 0.856806 0.427082 0.064004
O O9 0.658265 0.849978 0.686131
O O10 0.520390 0.714233 0.722426
O O11 0.334442 0.178397 0.680680
O O12 0.819845 0.924465 0.927540
O O13 0.170707 0.563901 0.550018
O O14 0.000000 0.000000 0.500000
O O15 0.651415 0.269209 0.216710
O O16 0.500000 0.000000 0.000000
O O17 0.681277 0.325916 0.818491
O O18 0.000000 0.500000 0.000000
#
# Coordination Sequence:
#
# PCOD9001078 Si02
#       8
#     2   2   2   2   2   2   2   2
#     4   8  14  23  40  62  86 113 152 196 227 263
#     4  10  19  30  46  69  97 126 152 190 242 289
#     4   8  14  23  38  60  89 115 144 188 233 270
#     4   8  13  21  34  58  89 111 139 188 242 267
#     4   8  14  26  41  61  88 116 151 190 229 269
#     4  10  17  27  44  68  94 119 153 199 236 270
#     4   9  16  27  44  65  89 119 154 193 226 272
#     4   9  15  24  40  64  89 113 149 195 234 264
#
# _framework density 30.565118999999999
#
# number of rings (size 3 to 8) (size 9 to 14) (size 15 to 20)
#    0.000    3.250    1.250    0.000    0.000    0.000 
#    0.000    0.000    0.000    7.500    0.000    0.000 
#    0.000  334.000    0.000    0.000    0.000    0.000 
#
# Total GULP energy -89478.548316 kJ/mol
# GULP energy per Si atom -5592.409270 kJ/mol
# Density = 3.049555 g / cm^3
# Si number density = 30.565119 Si / 1000 Ang^3
#
#
#
# Elastic Constant Matrix: (Units=GPa)
#
#
# Indices 1 2 3 4 5 6 
#
# 1 98.8766 35.1272 64.3160 -14.7123 33.4664 -11.8213
# 2 35.1272 140.1261 58.2094 -20.9485 14.9410 1.9752
# 3 64.3160 58.2094 334.1824 -71.2761 67.8162 -5.9081
# 4 -14.7123 -20.9485 -71.2761 71.4362 -7.5187 13.2151
# 5 33.4664 14.9410 67.8162 -7.5187 66.4998 -8.8892
# 6 -11.8213 1.9752 -5.9081 13.2151 -8.8892 46.1815
#
#
#
# Elastic Compliance Matrix: (Units=1/GPa)
#
#
# Indices 1 2 3 4 5 6 
#
# 1 0.013684 -0.002469 -0.001210 -0.000089 -0.004765 0.002562
# 2 -0.002469 0.008281 -0.000677 0.001527 0.000044 -0.001501
# 3 -0.001210 -0.000677 0.005135 0.004555 -0.004192 -0.001734
# 4 -0.000089 0.001527 0.004555 0.019680 -0.003495 -0.005809
# 5 -0.004765 0.000044 -0.004192 -0.003495 0.021764 0.003431
# 6 0.002562 -0.001501 -0.001734 -0.005809 0.003431 0.024475
#
#
# Mechanical properties :
#
#
# Convention : Reuss Voigt Hill
#
# Bulk Modulus (GPa) = 54.38493 98.72115 76.55304
# Shear Modulus (GPa) = 46.35625 64.52567 55.44096
#
# Velocity S-wave (km/s) = 3.89863 4.59964 4.26357
# Velocity P-wave (km/s) = 6.17232 7.78317 7.02407
#
# Compressibility (1/GPa) = 0.01838745
#
# Stress axis : x y z
#
# Youngs Moduli (GPa) = 73.07909 120.75361 194.74840
#
# Poissons Ratio (x) = 0.29812 0.23567
# Poissons Ratio (y) = 0.18042 0.13190
# Poissons Ratio (z) = 0.08843 0.08178
#
# Static dielectric constant tensor:
#      x y z
#    x 2.508960 0.166290 -0.105530 
#    y 0.166290 2.503080 -0.179730 
#    z -0.105530 -0.179730 2.673720 
# 
# From -- ./inp_files/247626.got.cif
#   From: 2010.05.17/outbox.cif.g08.bks.cpg/sg2_124_cif.got.tgz:247626.got - 2010.06.03 11:33:40.
