data_PCOD9001395
_publ_section_title
;
Structure prediction by ZEFSAII (Michael W. Deem and Ramdas Pophale) SiO2 
 PCOD9001395
Probable space group: P -1
;
_chemical_formula_sum "Si O2"
_cell_formula_units_Z 16
_cell_length_a 13.326152
_cell_length_b 7.984008
_cell_length_c 14.437600
_cell_angle_alpha 99.070047
_cell_angle_beta 30.312349
_cell_angle_gamma 84.305941
_cell_volume 674.901146
_symmetry_space_group_name_H-M "P -1"
_symmetry_group_IT_number 2
_symmetry_cell_setting 'triclinic'
loop_
_space_group_symop_operation_xyz
x,y,z
-x,-y,-z
loop_
_atom_site_type_symbol
_atom_site_label
_atom_site_fract_x
_atom_site_fract_y
_atom_site_fract_z
Si Si1 0.836536 0.689114 0.985021
Si Si2 0.974590 0.161781 0.900293
Si Si3 0.750182 0.269647 0.271966
Si Si4 0.442498 0.753372 0.007320
Si Si5 0.083850 0.674902 0.229526
Si Si6 0.160581 0.457257 0.457874
Si Si7 0.215594 0.170017 0.144612
Si Si8 0.636662 0.773588 0.347544
O O1 0.673534 0.742071 0.206437
O O2 0.835415 0.518169 0.911724
O O3 0.753134 0.862916 0.992553
O O4 0.084162 0.648926 0.817363
O O5 0.950985 0.169962 0.809202
O O6 0.118330 0.276406 0.813047
O O7 0.765600 0.257090 0.146448
O O8 0.116146 0.948275 0.810252
O O9 0.499323 0.331132 0.513319
O O10 0.590321 0.640065 0.789900
O O11 0.616816 0.748771 0.944938
O O12 0.267831 0.672276 0.154864
O O13 0.290743 0.978559 0.125649
O O14 0.876511 0.685992 0.455420
O O15 0.000000 0.500000 0.500000
O O16 0.043192 0.666409 0.618408
O O17 0.500000 0.000000 0.500000
#
# Coordination Sequence:
#
# PCOD9001395 Si02
#       8
#     2   2   2   2   2   2   2   2
#     4  10  21  35  54  84 118 154 197 252 303 353
#     4   9  19  35  55  80 111 147 192 247 295 350
#     4   9  18  35  55  77 112 150 189 245 303 351
#     4  10  21  40  63  88 122 165 202 251 311 357
#     4  11  23  37  58  89 121 158 208 253 298 367
#     4   9  21  40  59  86 122 157 199 251 302 356
#     4   9  20  40  62  88 124 159 205 256 302 363
#     4   9  19  35  57  83 109 149 199 241 296 361
#
# _framework density 23.707173999999998
#
# number of rings (size 3 to 8) (size 9 to 14) (size 15 to 20)
#    0.000    2.500    0.000    1.500    0.000   11.500 
#    0.000   10.625    0.000    0.000    0.000    0.000 
#    0.000    0.000    0.000    0.000    0.000    0.000 
#
# Total GULP energy -89285.060445 kJ/mol
# GULP energy per Si atom -5580.316278 kJ/mol
# Density = 2.365322 g / cm^3
# Si number density = 23.707174 Si / 1000 Ang^3
#
#
#
# Elastic Constant Matrix: (Units=GPa)
#
#
# Indices 1 2 3 4 5 6 
#
# 1 71.2695 7.5076 16.9694 -9.5204 13.9087 0.8053
# 2 7.5076 92.7283 16.8687 -16.6252 -7.4397 3.7352
# 3 16.9694 16.8687 119.6458 -21.7945 3.9216 -2.9752
# 4 -9.5204 -16.6252 -21.7945 29.5643 -1.8783 -3.1491
# 5 13.9087 -7.4397 3.9216 -1.8783 27.5011 -10.0681
# 6 0.8053 3.7352 -2.9752 -3.1491 -10.0681 40.4908
#
#
#
# Elastic Compliance Matrix: (Units=1/GPa)
#
#
# Indices 1 2 3 4 5 6 
#
# 1 0.016715 -0.001240 -0.001447 0.002772 -0.009278 -0.002416
# 2 -0.001240 0.012525 -0.000528 0.006611 0.004733 0.000522
# 3 -0.001447 -0.000528 0.009883 0.006676 0.000132 0.001356
# 4 0.002772 0.006611 0.006676 0.044062 0.003999 0.004247
# 5 -0.009278 0.004733 0.000132 0.003999 0.046882 0.011726
# 6 -0.002416 0.000522 0.001356 0.004247 0.011726 0.028042
#
#
# Mechanical properties :
#
#
# Convention : Reuss Voigt Hill
#
# Bulk Modulus (GPa) = 30.58816 40.70390 35.64603
# Shear Modulus (GPa) = 28.50038 35.66445 32.08241
#
# Velocity S-wave (km/s) = 3.47101 3.88283 3.68268
# Velocity P-wave (km/s) = 5.38465 6.10807 5.75773
#
# Compressibility (1/GPa) = 0.03269239
#
# Stress axis : x y z
#
# Youngs Moduli (GPa) = 59.82815 79.84267 101.18325
#
# Poissons Ratio (x) = 0.09902 0.14640
# Poissons Ratio (y) = 0.07420 0.05341
# Poissons Ratio (z) = 0.08656 0.04215
#
# Static dielectric constant tensor:
#      x y z
#    x 1.940340 -0.046930 -0.004470 
#    y -0.046930 2.058080 0.032750 
#    z -0.004470 0.032750 1.911280 
# 
# From -- ./inp_files/528706.got.cif
#   From: 2010.05.17/outbox.cif.g08.bks.cpg/sg2_265_cif.got.tgz:528706.got - 2010.06.03 11:33:40.
