data_PCOD9001795
_publ_section_title
;
Structure prediction by ZEFSAII (Michael W. Deem and Ramdas Pophale) SiO2 
 PCOD9001795
Probable space group: P -1
;
_chemical_formula_sum "Si O2"
_cell_formula_units_Z 16
_cell_length_a 8.736435
_cell_length_b 14.919388
_cell_length_c 8.599923
_cell_angle_alpha 46.134972
_cell_angle_beta 83.481686
_cell_angle_gamma 100.655547
_cell_volume 746.609061
_symmetry_space_group_name_H-M "P -1"
_symmetry_group_IT_number 2
_symmetry_cell_setting 'triclinic'
loop_
_space_group_symop_operation_xyz
x,y,z
-x,-y,-z
loop_
_atom_site_type_symbol
_atom_site_label
_atom_site_fract_x
_atom_site_fract_y
_atom_site_fract_z
Si Si1 0.434880 0.730348 0.105232
Si Si2 0.863205 0.527325 0.585831
Si Si3 0.937174 0.116008 0.310025
Si Si4 0.383490 0.860128 0.262726
Si Si5 0.171465 0.085591 0.807060
Si Si6 0.612000 0.009844 0.297801
Si Si7 0.231602 0.267220 0.858502
Si Si8 0.990805 0.242417 0.469724
O O1 0.280663 0.612329 0.192572
O O2 0.387587 0.749365 0.269191
O O3 0.600361 0.697758 0.106073
O O4 0.453470 0.870270 0.854400
O O5 0.789440 0.613055 0.379380
O O6 0.000000 0.500000 0.500000
O O7 0.943010 0.615773 0.621428
O O8 0.738175 0.044293 0.388105
O O9 0.967587 0.226835 0.307308
O O10 0.063374 0.189687 0.066540
O O11 0.000000 0.000000 0.500000
O O12 0.192510 0.838825 0.341080
O O13 0.469763 0.874843 0.407770
O O14 0.500000 0.000000 0.000000
O O15 0.264237 0.173068 0.835237
O O16 0.126594 0.176813 0.576243
O O17 0.248182 0.986201 0.847598
O O18 0.000000 0.000000 0.000000
#
# Coordination Sequence:
#
# PCOD9001795 Si02
#       8
#     2   2   2   2   2   2   2   2
#     4  11  22  40  66  99 124 163 217 277 315 360
#     4  11  23  44  71  93 121 167 234 264 305 370
#     4  12  25  41  61  96 137 174 204 248 334 397
#     4  10  21  35  63  96 125 156 211 271 322 361
#     4  11  18  34  62  91 118 164 210 260 309 367
#     4  11  22  35  63  95 131 161 212 262 325 379
#     4  11  24  39  65  94 130 164 212 268 315 372
#     4  11  24  41  62  92 130 171 210 261 318 382
#
# _framework density 21.430226000000001
#
# number of rings (size 3 to 8) (size 9 to 14) (size 15 to 20)
#    0.000    1.000    5.000    2.625    7.000    0.500 
#    0.000    3.125    0.000    0.000    0.000    0.000 
#    0.000    0.000    0.000    0.000    0.000    0.000 
#
# Total GULP energy -89132.586557 kJ/mol
# GULP energy per Si atom -5570.786660 kJ/mol
# Density = 2.138145 g / cm^3
# Si number density = 21.430226 Si / 1000 Ang^3
#
#
#
# Elastic Constant Matrix: (Units=GPa)
#
#
# Indices 1 2 3 4 5 6 
#
# 1 100.8618 33.4103 0.8233 4.6010 -6.1718 14.9874
# 2 33.4103 138.3681 17.0581 4.3478 -2.1738 20.0825
# 3 0.8233 17.0581 24.1894 2.0240 -11.3673 -3.4265
# 4 4.6010 4.3478 2.0240 26.4806 1.4399 -3.7717
# 5 -6.1718 -2.1738 -11.3673 1.4399 25.0381 -1.5607
# 6 14.9874 20.0825 -3.4265 -3.7717 -1.5607 44.6437
#
#
#
# Elastic Compliance Matrix: (Units=1/GPa)
#
#
# Indices 1 2 3 4 5 6 
#
# 1 0.011500 -0.002683 0.003261 -0.002379 0.004066 -0.002462
# 2 -0.002683 0.009600 -0.009218 -0.000793 -0.004238 -0.004340
# 3 0.003261 -0.009218 0.063138 -0.004260 0.029447 0.008567
# 4 -0.002379 -0.000793 -0.004260 0.039453 -0.004609 0.004000
# 5 0.004066 -0.004238 0.029447 -0.004609 0.054476 0.004317
# 6 -0.002462 -0.004340 0.008567 0.004000 0.004317 0.026325
#
#
# Mechanical properties :
#
#
# Convention : Reuss Voigt Hill
#
# Bulk Modulus (GPa) = 14.93470 40.66696 27.80083
# Shear Modulus (GPa) = 20.48418 33.37431 26.92925
#
# Velocity S-wave (km/s) = 3.09504 3.95061 3.54870
# Velocity P-wave (km/s) = 4.44483 6.31089 5.45820
#
# Compressibility (1/GPa) = 0.06695817
#
# Stress axis : x y z
#
# Youngs Moduli (GPa) = 86.95818 104.17094 15.83829
#
# Poissons Ratio (x) = 0.27947 -0.05165
# Poissons Ratio (y) = 0.23329 0.14600
# Poissons Ratio (z) = -0.28360 0.96027
#
# Static dielectric constant tensor:
#      x y z
#    x 1.968170 0.128920 0.090330 
#    y 0.128920 1.893930 0.080820 
#    z 0.090330 0.080820 1.847740 
# 
# From -- ./inp_files/205569.got.cif
#   From: 2010.05.17/outbox.cif.g08.bks.cpg/sg2_103_cif.got.tgz:205569.got - 2010.06.03 11:33:40.
