data_PCOD9001556
_publ_section_title
;
Structure prediction by ZEFSAII (Michael W. Deem and Ramdas Pophale) SiO2 
 PCOD9001556
Probable space group: P -1
;
_chemical_formula_sum "Si O2"
_cell_formula_units_Z 14
_cell_length_a 14.555505
_cell_length_b 9.717189
_cell_length_c 21.838138
_cell_angle_alpha 33.289895
_cell_angle_beta 160.051504
_cell_angle_gamma 139.883253
_cell_volume 574.754530
_symmetry_space_group_name_H-M "P -1"
_symmetry_group_IT_number 2
_symmetry_cell_setting 'triclinic'
loop_
_space_group_symop_operation_xyz
x,y,z
-x,-y,-z
loop_
_atom_site_type_symbol
_atom_site_label
_atom_site_fract_x
_atom_site_fract_y
_atom_site_fract_z
Si Si1 0.392654 0.188729 0.707828
Si Si2 0.991924 0.753209 0.962162
Si Si3 0.331516 0.853178 0.299804
Si Si4 0.049642 0.100673 0.628991
Si Si5 0.459763 0.789447 0.800968
Si Si6 0.881436 0.810928 0.736056
Si Si7 0.000271 0.424982 0.275259
O O1 0.162751 0.369205 0.461075
O O2 0.315684 0.185418 0.732315
O O3 0.370728 0.917683 0.762058
O O4 0.692136 0.250638 0.856928
O O5 0.842890 0.842049 0.772711
O O6 0.951451 0.467305 0.061291
O O7 0.881568 0.949036 0.871600
O O8 0.594216 0.805830 0.524912
O O9 0.190576 0.603812 0.292580
O O10 0.426743 0.985681 0.249935
O O11 0.017975 0.829788 0.678397
O O12 0.022516 0.034044 0.707896
O O13 0.789960 0.275891 0.373340
O O14 0.706135 0.575767 0.042700
#
# Coordination Sequence:
#
# PCOD9001556 Si02
#       7
#     2   2   2   2   2   2   2
#     4  11  23  37  56  88 119 149 188 227 285 344
#     4  11  22  40  62  84 111 150 195 235 282 328
#     4  11  21  36  61  90 112 145 190 240 284 333
#     4  10  24  38  56  87 117 151 189 228 280 344
#     4  10  21  35  58  86 118 148 182 234 282 338
#     4  10  23  41  61  81 113 152 193 239 273 330
#     4  11  20  35  59  85 118 147 181 232 289 336
#
# _framework density 24.358226999999999
#
# number of rings (size 3 to 8) (size 9 to 14) (size 15 to 20)
#    0.000    1.429    2.857    3.429    2.000    4.571 
#    0.000    0.000    0.000    0.857    0.000    0.000 
#    0.000    0.000    0.000    0.000    0.000    0.000 
#
# Total GULP energy -78369.421926 kJ/mol
# GULP energy per Si atom -5597.815852 kJ/mol
# Density = 2.430279 g / cm^3
# Si number density = 24.358227 Si / 1000 Ang^3
#
#
#
# Elastic Constant Matrix: (Units=GPa)
#
#
# Indices 1 2 3 4 5 6 
#
# 1 84.6401 12.9454 32.0403 8.1060 -4.6483 26.4188
# 2 12.9454 36.6048 8.1329 -1.4055 1.4013 19.2114
# 3 32.0403 8.1329 146.1278 1.4056 -1.6980 14.2044
# 4 8.1060 -1.4055 1.4056 21.6605 2.1243 -0.2395
# 5 -4.6483 1.4013 -1.6980 2.1243 37.0892 3.4780
# 6 26.4188 19.2114 14.2044 -0.2395 3.4780 34.7606
#
#
#
# Elastic Compliance Matrix: (Units=1/GPa)
#
#
# Indices 1 2 3 4 5 6 
#
# 1 0.017643 0.000888 -0.002517 -0.006892 0.003703 -0.013290
# 2 0.000888 0.038644 -0.000219 0.001888 0.000595 -0.021989
# 3 -0.002517 -0.000219 0.007506 0.000418 0.000110 -0.001041
# 4 -0.006892 0.001888 0.000418 0.049305 -0.004188 0.004782
# 5 0.003703 0.000595 0.000110 -0.004188 0.028215 -0.006041
# 6 -0.013290 -0.021989 -0.001041 0.004782 -0.006041 0.052084
#
#
# Mechanical properties :
#
#
# Convention : Reuss Voigt Hill
#
# Bulk Modulus (GPa) = 16.63981 41.51222 29.07601
# Shear Modulus (GPa) = 23.02814 32.98568 28.00691
#
# Velocity S-wave (km/s) = 3.07806 3.68392 3.39454
# Velocity P-wave (km/s) = 4.41347 5.93081 5.22748
#
# Compressibility (1/GPa) = 0.06009685
#
# Stress axis : x y z
#
# Youngs Moduli (GPa) = 56.67926 25.87732 133.22966
#
# Poissons Ratio (x) = -0.02298 0.33531
# Poissons Ratio (y) = -0.05033 0.02921
# Poissons Ratio (z) = 0.14265 0.00567
#
# Static dielectric constant tensor:
#      x y z
#    x 1.960910 0.040860 -0.020300 
#    y 0.040860 1.954820 0.020840 
#    z -0.020300 0.020840 1.953070 
# 
# From -- ./inp_files/201149.got.cif
#   From: 2010.05.17/outbox.cif.g08.bks.cpg/sg2_101_cif.got.tgz:201149.got - 2010.06.03 11:33:40.
