data_PCOD9001331
_publ_section_title
;
Structure prediction by ZEFSAII (Michael W. Deem and Ramdas Pophale) SiO2 
 PCOD9001331
Probable space group: P -1
;
_chemical_formula_sum "Si O2"
_cell_formula_units_Z 12
_cell_length_a 10.807964
_cell_length_b 5.312900
_cell_length_c 11.736079
_cell_angle_alpha 110.186721
_cell_angle_beta 46.465849
_cell_angle_gamma 107.658779
_cell_volume 456.406161
_symmetry_space_group_name_H-M "P -1"
_symmetry_group_IT_number 2
_symmetry_cell_setting 'triclinic'
loop_
_space_group_symop_operation_xyz
x,y,z
-x,-y,-z
loop_
_atom_site_type_symbol
_atom_site_label
_atom_site_fract_x
_atom_site_fract_y
_atom_site_fract_z
Si Si1 0.912045 0.276758 0.605408
Si Si2 0.659457 0.116686 0.559582
Si Si3 0.679516 0.111765 0.175530
Si Si4 0.295352 0.471976 0.602923
Si Si5 0.531776 0.729777 0.873513
Si Si6 0.771066 0.659196 0.894555
O O1 0.898056 0.426469 0.759904
O O2 0.000000 0.500000 0.500000
O O3 0.724677 0.188138 0.656480
O O4 0.000000 0.000000 0.500000
O O5 0.451893 0.062971 0.682606
O O6 0.746518 0.847977 0.427144
O O7 0.721796 0.364341 0.477398
O O8 0.777877 0.353439 0.222012
O O9 0.537840 0.234606 0.203432
O O10 0.795381 0.929287 0.997175
O O11 0.500000 0.500000 0.500000
O O12 0.720393 0.712900 0.803285
O O13 0.400593 0.487257 0.964041
O O14 0.500000 0.000000 0.000000
#
# Coordination Sequence:
#
# PCOD9001331 Si02
#       6
#     2   2   2   2   2   2
#     4  12  28  44  65  86 120 174 220 259 303 354
#     4  11  23  41  62  93 135 158 206 255 304 376
#     4  10  21  34  66  95 130 155 194 250 332 384
#     4  10  22  36  62  98 132 164 191 242 324 391
#     4   9  18  32  57  91 124 153 186 255 327 369
#     4  10  22  36  59  89 124 156 209 258 316 361
#
# _framework density 26.292369999999998
#
# number of rings (size 3 to 8) (size 9 to 14) (size 15 to 20)
#    0.000    1.667    0.000    6.000   18.667    0.000 
#    0.000    0.000    0.000    6.000    0.000    0.000 
#    0.000    0.000    0.000    0.000    0.000    0.000 
#
# Total GULP energy -66994.414311 kJ/mol
# GULP energy per Si atom -5582.867859 kJ/mol
# Density = 2.623253 g / cm^3
# Si number density = 26.292370 Si / 1000 Ang^3
#
#
#
# Elastic Constant Matrix: (Units=GPa)
#
#
# Indices 1 2 3 4 5 6 
#
# 1 49.4731 15.1289 19.9366 8.0861 21.4800 -7.2529
# 2 15.1289 137.5745 62.7909 47.6146 5.2140 -17.0436
# 3 19.9366 62.7909 153.0859 66.7336 12.5693 -1.2889
# 4 8.0861 47.6146 66.7336 77.0831 10.8141 10.5565
# 5 21.4800 5.2140 12.5693 10.8141 39.2648 1.6728
# 6 -7.2529 -17.0436 -1.2889 10.5565 1.6728 34.1969
#
#
#
# Elastic Compliance Matrix: (Units=1/GPa)
#
#
# Indices 1 2 3 4 5 6 
#
# 1 0.028950 -0.001146 -0.002509 0.001210 -0.015465 0.005857
# 2 -0.001146 0.011285 -0.001639 -0.006594 0.001158 0.007299
# 3 -0.002509 -0.001639 0.011390 -0.008876 0.000312 0.001805
# 4 0.001210 -0.006594 -0.008876 0.026703 -0.003813 -0.011421
# 5 -0.015465 0.001158 0.000312 -0.003813 0.034862 -0.003220
# 6 0.005857 0.007299 0.001805 -0.011421 -0.003220 0.037874
#
#
# Mechanical properties :
#
#
# Convention : Reuss Voigt Hill
#
# Bulk Modulus (GPa) = 24.36709 59.53848 41.95279
# Shear Modulus (GPa) = 28.51780 46.26077 37.38929
#
# Velocity S-wave (km/s) = 3.29696 4.19916 3.77511
# Velocity P-wave (km/s) = 4.87659 6.79739 5.91547
#
# Compressibility (1/GPa) = 0.04103896
#
# Stress axis : x y z
#
# Youngs Moduli (GPa) = 34.54280 88.61133 87.79458
#
# Poissons Ratio (x) = 0.10151 0.22025
# Poissons Ratio (y) = 0.03957 0.14388
# Poissons Ratio (z) = 0.08666 0.14521
#
# Static dielectric constant tensor:
#      x y z
#    x 2.237480 -0.134810 -0.055200 
#    y -0.134810 2.202250 0.069550 
#    z -0.055200 0.069550 2.159810 
# 
# From -- ./inp_files/68330.got.cif
#   From: 2010.05.17/outbox.cif.g08.bks.cpg/sg2_35_cif.got.tgz:68330.got - 2010.06.03 11:33:40.
