data_PCOD9001133
_publ_section_title
;
Structure prediction by ZEFSAII (Michael W. Deem and Ramdas Pophale) SiO2 
 PCOD9001133
Probable space group: P -1
;
_chemical_formula_sum "Si O2"
_cell_formula_units_Z 16
_cell_length_a 7.930574
_cell_length_b 14.112208
_cell_length_c 14.357963
_cell_angle_alpha 140.367616
_cell_angle_beta 129.501605
_cell_angle_gamma 77.174441
_cell_volume 663.446427
_symmetry_space_group_name_H-M "P -1"
_symmetry_group_IT_number 2
_symmetry_cell_setting 'triclinic'
loop_
_space_group_symop_operation_xyz
x,y,z
-x,-y,-z
loop_
_atom_site_type_symbol
_atom_site_label
_atom_site_fract_x
_atom_site_fract_y
_atom_site_fract_z
Si Si1 0.365229 0.390631 0.020527
Si Si2 0.552748 0.051060 0.277550
Si Si3 0.049466 0.661654 0.855948
Si Si4 0.596920 0.306324 0.851831
Si Si5 0.120597 0.440744 0.575845
Si Si6 0.848774 0.062800 0.559769
Si Si7 0.234264 0.170054 0.157539
Si Si8 0.772445 0.035993 0.162641
O O1 0.362492 0.557232 0.108827
O O2 0.569659 0.447310 0.218754
O O3 0.476849 0.341420 0.930724
O O4 0.077125 0.229724 0.819239
O O5 0.696131 0.114744 0.474133
O O6 0.475919 0.179026 0.299875
O O7 0.738955 0.030383 0.256522
O O8 0.297863 0.850756 0.047163
O O9 0.030105 0.491697 0.676097
O O10 0.808461 0.670748 0.742666
O O11 0.137871 0.669803 0.999300
O O12 0.375961 0.107746 0.594075
O O13 0.000000 0.500000 0.500000
O O14 0.002105 0.234151 0.367732
O O15 0.000000 0.000000 0.500000
O O16 0.203079 0.106267 0.991435
O O17 0.000000 0.000000 0.000000
O O18 0.500000 0.000000 0.000000
#
# Coordination Sequence:
#
# PCOD9001133 Si02
#       8
#     2   2   2   2   2   2   2   2
#     4   9  18  30  50  78 113 141 184 241 278 330
#     4   9  18  32  52  84 111 142 184 238 280 329
#     4   9  18  34  59  81 111 144 190 227 276 344
#     4   8  16  30  49  83 105 140 187 230 279 324
#     4  11  21  34  52  83 111 142 184 236 283 330
#     4   9  17  28  51  79 111 142 184 236 280 330
#     4   9  17  34  55  79 109 154 187 223 281 346
#     4  10  21  34  53  79 115 143 181 231 286 330
#
# _framework density 24.116492000000001
#
# number of rings (size 3 to 8) (size 9 to 14) (size 15 to 20)
#    0.000    2.750    0.000    3.000    7.000    0.000 
#    0.000    2.500    0.000    2.250    3.250   14.000 
#    0.000   19.250    0.000    0.000    0.000    0.000 
#
# Total GULP energy -89343.068021 kJ/mol
# GULP energy per Si atom -5583.941751 kJ/mol
# Density = 2.406160 g / cm^3
# Si number density = 24.116492 Si / 1000 Ang^3
#
#
#
# Elastic Constant Matrix: (Units=GPa)
#
#
# Indices 1 2 3 4 5 6 
#
# 1 23.6587 8.5440 -0.0213 -4.3437 -2.1990 -5.3449
# 2 8.5440 129.9226 49.3910 -15.7827 17.8800 -20.0515
# 3 -0.0213 49.3910 134.0319 -15.5232 31.3338 -0.8587
# 4 -4.3437 -15.7827 -15.5232 20.0816 -7.4708 -0.9254
# 5 -2.1990 17.8800 31.3338 -7.4708 18.3703 1.0275
# 6 -5.3449 -20.0515 -0.8587 -0.9254 1.0275 24.6019
#
#
#
# Elastic Compliance Matrix: (Units=1/GPa)
#
#
# Indices 1 2 3 4 5 6 
#
# 1 0.048923 -0.001669 -0.001083 0.014298 0.014630 0.009158
# 2 -0.001669 0.011566 -0.002149 0.005194 -0.006207 0.009444
# 3 -0.001083 -0.002149 0.012965 0.000689 -0.019833 -0.000680
# 4 0.014298 0.005194 0.000689 0.066040 0.021839 0.008936
# 5 0.014630 -0.006207 -0.019833 0.021839 0.105283 -0.006149
# 6 0.009158 0.009444 -0.000680 0.008936 -0.006149 0.050903
#
#
# Mechanical properties :
#
#
# Convention : Reuss Voigt Hill
#
# Bulk Modulus (GPa) = 15.71021 44.82671 30.26846
# Shear Modulus (GPa) = 15.30453 27.92407 21.61430
#
# Velocity S-wave (km/s) = 2.52188 3.40646 2.99698
# Velocity P-wave (km/s) = 3.87405 5.83951 4.95521
#
# Compressibility (1/GPa) = 0.06365287
#
# Stress axis : x y z
#
# Youngs Moduli (GPa) = 20.44016 86.45686 77.13222
#
# Poissons Ratio (x) = 0.14427 0.08352
# Poissons Ratio (y) = 0.03411 0.16578
# Poissons Ratio (z) = 0.02213 0.18582
#
# Static dielectric constant tensor:
#      x y z
#    x 2.007240 -0.000880 -0.010710 
#    y -0.000880 1.944570 -0.035000 
#    z -0.010710 -0.035000 1.958070 
# 
# From -- ./inp_files/505623.got.cif
#   From: 2010.05.17/outbox.cif.g08.bks.cpg/sg2_253_cif.got.tgz:505623.got - 2010.06.03 11:33:40.
