data_PCOD9001384
_publ_section_title
;
Structure prediction by ZEFSAII (Michael W. Deem and Ramdas Pophale) SiO2 
 PCOD9001384
Probable space group: P -1
;
_chemical_formula_sum "Si O2"
_cell_formula_units_Z 14
_cell_length_a 14.111203
_cell_length_b 14.343831
_cell_length_c 14.038669
_cell_angle_alpha 159.365776
_cell_angle_beta 79.183052
_cell_angle_gamma 89.618309
_cell_volume 836.116419
_symmetry_space_group_name_H-M "P -1"
_symmetry_group_IT_number 2
_symmetry_cell_setting 'triclinic'
loop_
_space_group_symop_operation_xyz
x,y,z
-x,-y,-z
loop_
_atom_site_type_symbol
_atom_site_label
_atom_site_fract_x
_atom_site_fract_y
_atom_site_fract_z
Si Si1 0.067193 0.139961 0.672031
Si Si2 0.104784 0.745298 0.797450
Si Si3 0.410025 0.700604 0.885977
Si Si4 0.787399 0.028784 0.683817
Si Si5 0.533043 0.020935 0.123292
Si Si6 0.746805 0.961943 0.942555
Si Si7 0.922369 0.305297 0.024672
O O1 0.187366 0.984833 0.447110
O O2 0.000000 0.000000 0.500000
O O3 0.000000 0.500000 0.000000
O O4 0.043390 0.142914 0.791501
O O5 0.150615 0.392785 0.421430
O O6 0.070658 0.770345 0.938399
O O7 0.206296 0.812833 0.832445
O O8 0.000000 0.000000 0.000000
O O9 0.341200 0.785537 0.078316
O O10 0.509699 0.774747 0.942687
O O11 0.318511 0.932853 0.046191
O O12 0.454321 0.358095 0.508933
O O13 0.853650 0.674764 0.371488
O O14 0.847910 0.187005 0.875256
O O15 0.500000 0.000000 0.000000
O O16 0.656366 0.976036 0.048133
#
# Coordination Sequence:
#
# PCOD9001384 Si02
#       7
#     2   2   2   2   2   2   2
#     4   8  16  26  42  62  85 116 145 172 220 275
#     4  12  22  32  47  65  87 126 165 188 213 255
#     4  11  17  29  47  68  90 117 149 176 225 281
#     4  10  17  27  46  66  90 117 144 176 224 275
#     4  10  20  29  45  66  88 120 151 177 224 280
#     4  11  20  34  44  61  94 119 153 192 222 252
#     4  10  17  31  42  61  91 121 148 185 220 254
#
# _framework density 16.744081000000001
#
# number of rings (size 3 to 8) (size 9 to 14) (size 15 to 20)
#    0.000    1.714    2.857    5.571    0.000    0.000 
#    0.000    0.000    0.000    0.000    0.000    0.000 
#    0.000    6.857    0.000    0.000    0.000    0.571 
#
# Total GULP energy -77978.124846 kJ/mol
# GULP energy per Si atom -5569.866060 kJ/mol
# Density = 1.670597 g / cm^3
# Si number density = 16.744081 Si / 1000 Ang^3
#
#
#
# Elastic Constant Matrix: (Units=GPa)
#
#
# Indices 1 2 3 4 5 6 
#
# 1 36.5411 28.0576 6.3773 -4.5187 5.9925 20.4396
# 2 28.0576 65.3360 25.6545 -23.5163 0.3676 25.1837
# 3 6.3773 25.6545 97.0717 -8.7483 18.0957 8.4418
# 4 -4.5187 -23.5163 -8.7483 35.8372 18.3540 -12.2979
# 5 5.9925 0.3676 18.0957 18.3540 28.3897 4.5325
# 6 20.4396 25.1837 8.4418 -12.2979 4.5325 26.6211
#
#
#
# Elastic Compliance Matrix: (Units=1/GPa)
#
#
# Indices 1 2 3 4 5 6 
#
# 1 0.060134 -0.018731 0.001073 -0.022241 0.007690 -0.040375
# 2 -0.018731 0.035148 -0.004756 0.019397 -0.004800 -0.007583
# 3 0.001073 -0.004756 0.016145 0.015410 -0.021921 0.009407
# 4 -0.022241 0.019397 0.015410 0.100362 -0.078824 0.053623
# 5 0.007690 -0.004800 -0.021921 -0.078824 0.106409 -0.048944
# 6 -0.040375 -0.007583 0.009407 0.053623 -0.048944 0.105859
#
#
# Mechanical properties :
#
#
# Convention : Reuss Voigt Hill
#
# Bulk Modulus (GPa) = 15.01518 35.45864 25.23691
# Shear Modulus (GPa) = 10.18152 27.42689 18.80421
#
# Velocity S-wave (km/s) = 2.46858 4.05162 3.35481
# Velocity P-wave (km/s) = 4.13668 6.56584 5.48737
#
# Compressibility (1/GPa) = 0.06659927
#
# Stress axis : x y z
#
# Youngs Moduli (GPa) = 16.62949 28.45104 61.93763
#
# Poissons Ratio (x) = 0.53291 -0.06645
# Poissons Ratio (y) = 0.31148 0.29459
# Poissons Ratio (z) = -0.01784 0.13532
#
# Static dielectric constant tensor:
#      x y z
#    x 1.563600 0.063760 -0.009790 
#    y 0.063760 1.591550 -0.044680 
#    z -0.009790 -0.044680 1.573350 
# 
# From -- ./inp_files/533099.got.cif
#   From: 2010.05.17/outbox.cif.g08.bks.cpg/sg2_267_cif.got.tgz:533099.got - 2010.06.03 11:33:40.
