data_PCOD9001111
_publ_section_title
;
Structure prediction by ZEFSAII (Michael W. Deem and Ramdas Pophale) SiO2 
 PCOD9001111
Probable space group: P -1
;
_chemical_formula_sum "Si O2"
_cell_formula_units_Z 14
_cell_length_a 18.168270
_cell_length_b 8.251336
_cell_length_c 5.278142
_cell_angle_alpha 123.182367
_cell_angle_beta 104.303206
_cell_angle_gamma 65.530714
_cell_volume 602.536431
_symmetry_space_group_name_H-M "P -1"
_symmetry_group_IT_number 2
_symmetry_cell_setting 'triclinic'
loop_
_space_group_symop_operation_xyz
x,y,z
-x,-y,-z
loop_
_atom_site_type_symbol
_atom_site_label
_atom_site_fract_x
_atom_site_fract_y
_atom_site_fract_z
Si Si1 0.445708 0.360613 0.396945
Si Si2 0.948980 0.091099 0.784618
Si Si3 0.787226 0.984276 0.481112
Si Si4 0.505859 0.263344 0.866115
Si Si5 0.824648 0.494528 0.097994
Si Si6 0.728763 0.533848 0.548686
Si Si7 0.689899 0.025615 0.927689
O O1 0.500000 0.500000 0.500000
O O2 0.487218 0.198615 0.514673
O O3 0.357949 0.491971 0.540319
O O4 0.441584 0.268346 0.035969
O O5 0.867703 0.035341 0.643249
O O6 0.915182 0.339169 0.997843
O O7 0.000000 0.000000 0.500000
O O8 0.000000 0.000000 0.000000
O O9 0.814558 0.734536 0.296658
O O10 0.725573 0.072423 0.734667
O O11 0.741048 0.057418 0.238507
O O12 0.594170 0.140771 0.942161
O O13 0.500000 0.500000 0.000000
O O14 0.786720 0.447488 0.286295
O O15 0.773536 0.463232 0.789735
O O16 0.705371 0.781468 0.730278
#
# Coordination Sequence:
#
# PCOD9001111 Si02
#       7
#     2   2   2   2   2   2   2
#     4  10  21  34  51  81 117 155 202 251 305 350
#     4  12  26  42  66 100 128 156 194 242 306 376
#     4  10  23  43  66  91 122 162 204 249 301 360
#     4  10  21  34  51  81 117 155 202 251 305 350
#     4  10  23  43  66  91 122 162 204 249 301 360
#     4  10  21  39  61  85 118 163 211 255 300 357
#     4  10  21  39  61  85 118 163 211 255 300 357
#
# _framework density 23.235108
#
# number of rings (size 3 to 8) (size 9 to 14) (size 15 to 20)
#    0.000    1.714    0.000    3.429    0.000    9.143 
#    0.000    0.000    0.000    0.000    0.000    0.000 
#    0.000    0.000    0.000    0.000    0.000    0.000 
#
# Total GULP energy -78337.956164 kJ/mol
# GULP energy per Si atom -5595.568297 kJ/mol
# Density = 2.318222 g / cm^3
# Si number density = 23.235108 Si / 1000 Ang^3
#
#
#
# Elastic Constant Matrix: (Units=GPa)
#
#
# Indices 1 2 3 4 5 6 
#
# 1 83.7460 18.6154 34.2754 -8.3561 -20.1682 -8.6378
# 2 18.6154 98.6241 48.9936 -15.4557 -7.4635 -25.0575
# 3 34.2754 48.9936 128.6246 -30.2225 -29.5887 5.9754
# 4 -8.3561 -15.4557 -30.2225 52.5285 5.2076 -3.3175
# 5 -20.1682 -7.4635 -29.5887 5.2076 55.7890 1.7904
# 6 -8.6378 -25.0575 5.9754 -3.3175 1.7904 30.6743
#
#
#
# Elastic Compliance Matrix: (Units=1/GPa)
#
#
# Indices 1 2 3 4 5 6 
#
# 1 0.014609 0.000614 -0.003491 0.000495 0.003300 0.005157
# 2 0.000614 0.018608 -0.008061 0.002260 -0.002331 0.017324
# 3 -0.003491 -0.008061 0.014452 0.004220 0.005259 -0.010234
# 4 0.000495 0.002260 0.004220 0.022382 0.000516 0.003554
# 5 0.003300 -0.002331 0.005259 0.000516 0.021650 -0.003207
# 6 0.005157 0.017324 -0.010234 0.003554 -0.003207 0.050770
#
#
# Mechanical properties :
#
#
# Convention : Reuss Voigt Hill
#
# Bulk Modulus (GPa) = 38.77127 57.19595 47.98361
# Shear Modulus (GPa) = 28.91092 41.73903 35.32498
#
# Velocity S-wave (km/s) = 3.53126 4.24297 3.90337
# Velocity P-wave (km/s) = 5.77487 6.97663 6.40400
#
# Compressibility (1/GPa) = 0.02579229
#
# Stress axis : x y z
#
# Youngs Moduli (GPa) = 68.45019 53.74165 69.19302
#
# Poissons Ratio (x) = -0.03301 0.24156
# Poissons Ratio (y) = -0.04204 0.55780
# Poissons Ratio (z) = 0.23896 0.43324
#
# Static dielectric constant tensor:
#      x y z
#    x 1.847190 0.046690 0.048330 
#    y 0.046690 1.896370 0.067970 
#    z 0.048330 0.067970 2.047140 
# 
# From -- ./inp_files/107645.got.cif
#   From: 2010.05.17/outbox.cif.g08.bks.cpg/sg2_54_cif.got.tgz:107645.got - 2010.06.03 11:33:40.
