data_PCOD9001806
_publ_section_title
;
Structure prediction by ZEFSAII (Michael W. Deem and Ramdas Pophale) SiO2 
 PCOD9001806
Probable space group: P -1
;
_chemical_formula_sum "Si O2"
_cell_formula_units_Z 16
_cell_length_a 8.828309
_cell_length_b 15.132209
_cell_length_c 12.182095
_cell_angle_alpha 51.689385
_cell_angle_beta 76.394217
_cell_angle_gamma 44.428143
_cell_volume 827.687851
_symmetry_space_group_name_H-M "P -1"
_symmetry_group_IT_number 2
_symmetry_cell_setting 'triclinic'
loop_
_space_group_symop_operation_xyz
x,y,z
-x,-y,-z
loop_
_atom_site_type_symbol
_atom_site_label
_atom_site_fract_x
_atom_site_fract_y
_atom_site_fract_z
Si Si1 0.677215 0.879754 0.399652
Si Si2 0.857599 0.477945 0.479285
Si Si3 0.307492 0.522546 0.066563
Si Si4 0.183181 0.673547 0.213091
Si Si5 0.558262 0.811069 0.672373
Si Si6 0.560582 0.664156 0.173601
Si Si7 0.624219 0.990101 0.089865
Si Si8 0.970332 0.394171 0.141581
O O1 0.553149 0.850494 0.516117
O O2 0.579922 0.944676 0.243654
O O3 0.945926 0.700271 0.479930
O O4 0.646076 0.017167 0.358671
O O5 0.750806 0.455917 0.607957
O O6 0.677059 0.614675 0.312189
O O7 0.000000 0.500000 0.500000
O O8 0.233425 0.599533 0.140471
O O9 0.403698 0.341693 0.196665
O O10 0.500000 0.500000 0.000000
O O11 0.094543 0.645058 0.921966
O O12 0.342528 0.696833 0.187696
O O13 0.905125 0.844009 0.139694
O O14 0.788828 0.752296 0.723827
O O15 0.756342 0.512642 0.172330
O O16 0.477889 0.830114 0.018668
O O17 0.500000 0.000000 0.000000
O O18 0.000000 0.500000 0.000000
#
# Coordination Sequence:
#
# PCOD9001806 Si02
#       8
#     2   2   2   2   2   2   2   2
#     4  10  21  39  62  95 124 157 214 261 321 364
#     4  11  23  42  67  92 125 170 221 265 310 393
#     4  11  22  39  62  95 126 161 213 263 326 383
#     4  11  25  40  63  91 130 168 207 269 332 380
#     4  10  21  38  66  88 123 168 210 268 316 379
#     4  12  22  43  63  93 129 168 214 266 328 378
#     4  11  25  39  63  95 125 167 215 267 315 383
#     4  10  21  35  64  89 120 165 211 264 306 377
#
# _framework density 19.330957999999999
#
# number of rings (size 3 to 8) (size 9 to 14) (size 15 to 20)
#    0.000    1.250    2.500    4.500    7.000    0.000 
#    0.000    0.000    0.000    3.750    0.000    0.000 
#    0.000    0.000    0.000    0.000    0.000    0.000 
#
# Total GULP energy -89333.720087 kJ/mol
# GULP energy per Si atom -5583.357505 kJ/mol
# Density = 1.928696 g / cm^3
# Si number density = 19.330958 Si / 1000 Ang^3
#
#
#
# Elastic Constant Matrix: (Units=GPa)
#
#
# Indices 1 2 3 4 5 6 
#
# 1 96.1171 17.0151 36.3725 5.2108 6.3332 0.7703
# 2 17.0151 94.4575 33.4615 8.0645 3.7468 3.7634
# 3 36.3725 33.4615 125.5153 13.2994 6.3603 2.4812
# 4 5.2108 8.0645 13.2994 39.5233 3.7435 -0.1315
# 5 6.3332 3.7468 6.3603 3.7435 29.0828 0.5185
# 6 0.7703 3.7634 2.4812 -0.1315 0.5185 23.7910
#
#
#
# Elastic Compliance Matrix: (Units=1/GPa)
#
#
# Indices 1 2 3 4 5 6 
#
# 1 0.011863 -0.000969 -0.003075 -0.000164 -0.001767 0.000127
# 2 -0.000969 0.011915 -0.002695 -0.001351 -0.000533 -0.001568
# 3 -0.003075 -0.002695 0.009872 -0.002289 -0.000839 -0.000498
# 4 -0.000164 -0.001351 -0.002289 0.026630 -0.002729 0.000664
# 5 -0.001767 -0.000533 -0.000839 -0.002729 0.035383 -0.000557
# 6 0.000127 -0.001568 -0.000498 0.000664 -0.000557 0.042344
#
#
# Mechanical properties :
#
#
# Convention : Reuss Voigt Hill
#
# Bulk Modulus (GPa) = 49.57110 54.42091 51.99601
# Shear Modulus (GPa) = 31.60401 33.76213 32.68307
#
# Velocity S-wave (km/s) = 4.04777 4.18369 4.11629
# Velocity P-wave (km/s) = 6.89528 7.17990 7.03903
#
# Compressibility (1/GPa) = 0.02017304
#
# Stress axis : x y z
#
# Youngs Moduli (GPa) = 84.29225 83.92933 101.30172
#
# Poissons Ratio (x) = 0.08130 0.31153
# Poissons Ratio (y) = 0.08165 0.27296
# Poissons Ratio (z) = 0.25922 0.22615
#
# Static dielectric constant tensor:
#      x y z
#    x 1.671040 0.005080 0.025760 
#    y 0.005080 1.689960 0.002930 
#    z 0.025760 0.002930 1.691800 
# 
# From -- ./inp_files/262803.got.cif
#   From: 2010.05.17/outbox.cif.g08.bks.cpg/sg2_132_cif.got.tgz:262803.got - 2010.06.03 11:33:40.
