data_PCOD9001339
_publ_section_title
;
Structure prediction by ZEFSAII (Michael W. Deem and Ramdas Pophale) SiO2 
 PCOD9001339
Probable space group: P -1
;
_chemical_formula_sum "Si O2"
_cell_formula_units_Z 12
_cell_length_a 5.204960
_cell_length_b 9.120517
_cell_length_c 16.961738
_cell_angle_alpha 138.434768
_cell_angle_beta 68.148646
_cell_angle_gamma 117.908607
_cell_volume 471.766123
_symmetry_space_group_name_H-M "P -1"
_symmetry_group_IT_number 2
_symmetry_cell_setting 'triclinic'
loop_
_space_group_symop_operation_xyz
x,y,z
-x,-y,-z
loop_
_atom_site_type_symbol
_atom_site_label
_atom_site_fract_x
_atom_site_fract_y
_atom_site_fract_z
Si Si1 0.864291 0.055379 0.118030
Si Si2 0.842334 0.587530 0.984622
Si Si3 0.380809 0.171509 0.282365
Si Si4 0.570336 0.678459 0.379722
Si Si5 0.130661 0.576208 0.262330
Si Si6 0.799584 0.230201 0.410471
O O1 0.520500 0.018776 0.148166
O O2 0.007186 0.329132 0.223181
O O3 0.929339 0.865938 0.089321
O O4 0.000000 0.000000 0.000000
O O5 0.892577 0.492086 0.854244
O O6 0.500000 0.500000 0.000000
O O7 0.000000 0.500000 0.000000
O O8 0.461093 0.419802 0.328299
O O9 0.579002 0.192677 0.347018
O O10 0.046707 0.104474 0.321054
O O11 0.448776 0.670713 0.301708
O O12 0.401479 0.815036 0.507253
O O13 0.917031 0.729945 0.363916
O O14 0.000000 0.500000 0.500000
#
# Coordination Sequence:
#
# PCOD9001339 Si02
#       6
#     2   2   2   2   2   2
#     4   9  20  37  57  81 111 143 181 225 269 322
#     4  11  24  40  57  81 110 144 183 225 273 326
#     4  10  18  29  47  77 111 144 173 215 272 319
#     4  10  17  30  51  80 112 143 176 221 269 320
#     4  10  20  35  57  83 110 144 181 221 271 321
#     4  10  17  27  45  76 114 142 169 217 272 318
#
# _framework density 25.436333000000001
#
# number of rings (size 3 to 8) (size 9 to 14) (size 15 to 20)
#    0.000    2.000    0.000    8.000    0.000    4.000 
#    0.000   14.167    0.000    0.000    0.000   23.333 
#    0.000    0.000    0.000    0.000    0.000    0.000 
#
# Total GULP energy -67065.972507 kJ/mol
# GULP energy per Si atom -5588.831042 kJ/mol
# Density = 2.537844 g / cm^3
# Si number density = 25.436333 Si / 1000 Ang^3
#
#
#
# Elastic Constant Matrix: (Units=GPa)
#
#
# Indices 1 2 3 4 5 6 
#
# 1 231.1901 45.0633 71.9129 -12.7001 -17.4567 -29.0409
# 2 45.0633 91.4129 27.3097 5.7191 -2.1215 -22.1434
# 3 71.9129 27.3097 127.9858 -17.6544 -35.2685 -9.0089
# 4 -12.7001 5.7191 -17.6544 35.7352 -4.9562 -0.2981
# 5 -17.4567 -2.1215 -35.2685 -4.9562 50.3295 -8.9649
# 6 -29.0409 -22.1434 -9.0089 -0.2981 -8.9649 25.7110
#
#
#
# Elastic Compliance Matrix: (Units=1/GPa)
#
#
# Indices 1 2 3 4 5 6 
#
# 1 0.006157 -0.001014 -0.002079 0.001633 0.001870 0.006024
# 2 -0.001014 0.015051 -0.002316 -0.003785 0.000256 0.011051
# 3 -0.002079 -0.002316 0.013680 0.007850 0.010276 0.004125
# 4 0.001633 -0.003785 0.007850 0.034514 0.010252 0.005310
# 5 0.001870 0.000256 0.010276 0.010252 0.031791 0.017137
# 6 0.006024 0.011051 0.004125 0.005310 0.017137 0.062699
#
#
# Mechanical properties :
#
#
# Convention : Reuss Voigt Hill
#
# Bulk Modulus (GPa) = 41.54198 82.12894 61.83546
# Shear Modulus (GPa) = 27.36234 42.77532 35.06883
#
# Velocity S-wave (km/s) = 3.28337 4.10526 3.71710
# Velocity P-wave (km/s) = 5.54448 7.40466 6.54103
#
# Compressibility (1/GPa) = 0.02407204
#
# Stress axis : x y z
#
# Youngs Moduli (GPa) = 162.40850 66.44224 73.09804
#
# Poissons Ratio (x) = 0.06736 0.15194
# Poissons Ratio (y) = 0.16465 0.16927
# Poissons Ratio (z) = 0.33759 0.15386
#
# Static dielectric constant tensor:
#      x y z
#    x 2.028720 -0.020050 -0.071950 
#    y -0.020050 2.145850 0.194510 
#    z -0.071950 0.194510 2.321350 
# 
# From -- ./inp_files/75022.got.cif
#   From: 2010.05.17/outbox.cif.g08.bks.cpg/sg2_38_cif.got.tgz:75022.got - 2010.06.03 11:33:40.
