data_PCOD9001424
_publ_section_title
;
Structure prediction by ZEFSAII (Michael W. Deem and Ramdas Pophale) SiO2 
 PCOD9001424
Probable space group: P -1
;
_chemical_formula_sum "Si O2"
_cell_formula_units_Z 16
_cell_length_a 7.750904
_cell_length_b 19.380838
_cell_length_c 19.351321
_cell_angle_alpha 21.252879
_cell_angle_beta 43.233491
_cell_angle_gamma 44.568686
_cell_volume 715.213365
_symmetry_space_group_name_H-M "P -1"
_symmetry_group_IT_number 2
_symmetry_cell_setting 'triclinic'
loop_
_space_group_symop_operation_xyz
x,y,z
-x,-y,-z
loop_
_atom_site_type_symbol
_atom_site_label
_atom_site_fract_x
_atom_site_fract_y
_atom_site_fract_z
Si Si1 0.698914 0.575261 0.516046
Si Si2 0.580455 0.731170 0.169300
Si Si3 0.165464 0.266615 0.053770
Si Si4 0.223943 0.109369 0.894757
Si Si5 0.828578 0.641163 0.811378
Si Si6 0.384586 0.434961 0.198628
Si Si7 0.711099 0.059785 0.436790
Si Si8 0.687096 0.315662 0.888080
O O1 0.532698 0.468167 0.611315
O O2 0.675485 0.792504 0.294361
O O3 0.615887 0.491115 0.690884
O O4 0.000000 0.500000 0.500000
O O5 0.682819 0.789023 0.158552
O O6 0.772980 0.739478 0.040650
O O7 0.339868 0.890077 0.072600
O O8 0.942116 0.142537 0.253124
O O9 0.434631 0.214509 0.061846
O O10 0.063338 0.482597 0.908127
O O11 0.921649 0.165787 0.934081
O O12 0.798118 0.623500 0.753600
O O13 0.823418 0.862508 0.625582
O O14 0.581330 0.563501 0.986960
O O15 0.555268 0.237924 0.357174
O O16 0.245176 0.571155 0.169726
O O17 0.500000 0.000000 0.500000
#
# Coordination Sequence:
#
# PCOD9001424 Si02
#       8
#     2   2   2   2   2   2   2   2
#     4   9  20  37  56  81 115 149 183 232 287 335
#     4  10  21  38  62  87 111 151 198 239 283 336
#     4  10  21  35  55  84 116 149 187 232 286 342
#     4  10  21  39  61  84 115 152 196 241 282 335
#     4   9  18  35  58  79 109 148 187 237 282 328
#     4   9  18  36  57  80 111 146 189 234 280 337
#     4   9  19  36  58  83 110 144 188 235 281 333
#     4  10  21  37  57  84 121 157 187 232 291 344
#
# _framework density 22.370947000000001
#
# number of rings (size 3 to 8) (size 9 to 14) (size 15 to 20)
#    0.000    2.500    0.000    1.875    0.000    8.500 
#    0.000   18.750    0.000    0.000    0.000    0.000 
#    0.000    0.000    0.000    0.000    0.000    0.000 
#
# Total GULP energy -89260.570198 kJ/mol
# GULP energy per Si atom -5578.785637 kJ/mol
# Density = 2.232003 g / cm^3
# Si number density = 22.370947 Si / 1000 Ang^3
#
#
#
# Elastic Constant Matrix: (Units=GPa)
#
#
# Indices 1 2 3 4 5 6 
#
# 1 65.1743 1.7578 4.7916 2.4487 -9.0383 -8.1043
# 2 1.7578 73.2604 30.8239 -9.7543 -1.2674 -15.8624
# 3 4.7916 30.8239 99.7748 -16.7845 -8.6078 -22.5842
# 4 2.4487 -9.7543 -16.7845 22.7172 -5.8126 0.9795
# 5 -9.0383 -1.2674 -8.6078 -5.8126 28.9747 1.7882
# 6 -8.1043 -15.8624 -22.5842 0.9795 1.7882 37.8874
#
#
#
# Elastic Compliance Matrix: (Units=1/GPa)
#
#
# Indices 1 2 3 4 5 6 
#
# 1 0.016460 0.000301 0.000309 -0.000304 0.004956 0.003605
# 2 0.000301 0.016709 -0.003215 0.004679 0.000500 0.004999
# 3 0.000309 -0.003215 0.014969 0.010916 0.006156 0.007070
# 4 -0.000304 0.004679 0.010916 0.057573 0.014518 0.006227
# 5 0.004956 0.000500 0.006156 0.014518 0.040659 0.002645
# 6 0.003605 0.004999 0.007070 0.006227 0.002645 0.033187
#
#
# Mechanical properties :
#
#
# Convention : Reuss Voigt Hill
#
# Bulk Modulus (GPa) = 23.29481 34.77292 29.03386
# Shear Modulus (GPa) = 25.11611 31.30493 28.21052
#
# Velocity S-wave (km/s) = 3.35432 3.74486 3.55496
# Velocity P-wave (km/s) = 5.04357 5.85458 5.46414
#
# Compressibility (1/GPa) = 0.04292801
#
# Stress axis : x y z
#
# Youngs Moduli (GPa) = 60.75483 59.84643 66.80632
#
# Poissons Ratio (x) = -0.01800 -0.02064
# Poissons Ratio (y) = -0.01828 0.21476
# Poissons Ratio (z) = -0.01877 0.19238
#
# Static dielectric constant tensor:
#      x y z
#    x 1.897270 0.010040 0.016510 
#    y 0.010040 1.849320 -0.005530 
#    z 0.016510 -0.005530 1.821140 
# 
# From -- ./inp_files/349723.got.cif
#   From: 2010.05.17/outbox.cif.g08.bks.cpg/sg2_175_cif.got.tgz:349723.got - 2010.06.03 11:33:40.
