data_PCOD9001235
_publ_section_title
;
Structure prediction by ZEFSAII (Michael W. Deem and Ramdas Pophale) SiO2 
 PCOD9001235
Probable space group: P -1
;
_chemical_formula_sum "Si O2"
_cell_formula_units_Z 14
_cell_length_a 20.449967
_cell_length_b 13.963944
_cell_length_c 13.478994
_cell_angle_alpha 51.698614
_cell_angle_beta 26.759563
_cell_angle_gamma 31.764909
_cell_volume 737.977162
_symmetry_space_group_name_H-M "P -1"
_symmetry_group_IT_number 2
_symmetry_cell_setting 'triclinic'
loop_
_space_group_symop_operation_xyz
x,y,z
-x,-y,-z
loop_
_atom_site_type_symbol
_atom_site_label
_atom_site_fract_x
_atom_site_fract_y
_atom_site_fract_z
Si Si1 0.928479 0.055201 0.398768
Si Si2 0.436762 0.381325 0.705164
Si Si3 0.979740 0.818765 0.642157
Si Si4 0.567350 0.328053 0.174882
Si Si5 0.772004 0.705754 0.041660
Si Si6 0.616589 0.800438 0.414622
Si Si7 0.252748 0.732067 0.823610
O O1 0.688702 0.226204 0.535294
O O2 0.985825 0.141062 0.323174
O O3 0.871385 0.994849 0.599292
O O4 0.196568 0.832357 0.120040
O O5 0.207727 0.632992 0.896000
O O6 0.525884 0.361902 0.487280
O O7 0.360128 0.294989 0.855244
O O8 0.281490 0.568142 0.364850
O O9 0.806474 0.819223 0.884970
O O10 0.536730 0.212649 0.333496
O O11 0.640387 0.358116 0.152111
O O12 0.071066 0.442766 0.825700
O O13 0.614139 0.816259 0.288879
O O14 0.500000 0.000000 0.500000
O O15 0.000000 0.000000 0.000000
#
# Coordination Sequence:
#
# PCOD9001235 Si02
#       7
#     2   2   2   2   2   2   2
#     4  11  22  39  63  82 112 157 196 239 278 336
#     4  11  23  36  59  89 118 149 189 237 293 343
#     4  10  23  41  58  83 115 155 199 233 280 341
#     4  11  20  37  60  86 110 149 195 239 280 340
#     4  10  22  37  55  86 119 148 188 235 287 345
#     4  10  21  34  58  83 117 152 183 232 291 344
#     4  11  22  35  57  87 120 147 184 236 296 344
#
# _framework density 18.970776999999998
#
# number of rings (size 3 to 8) (size 9 to 14) (size 15 to 20)
#    0.000    1.429    4.286    1.286    2.000    0.571 
#    0.000    0.000    0.000    0.857    0.000    0.000 
#    0.000    0.000    0.000    0.000    0.000    0.000 
#
# Total GULP energy -78189.948343 kJ/mol
# GULP energy per Si atom -5584.996310 kJ/mol
# Density = 1.892760 g / cm^3
# Si number density = 18.970777 Si / 1000 Ang^3
#
#
#
# Elastic Constant Matrix: (Units=GPa)
#
#
# Indices 1 2 3 4 5 6 
#
# 1 77.7745 25.8382 35.9804 -6.6411 1.5993 28.6721
# 2 25.8382 73.3570 18.2500 -7.4271 0.7995 29.9366
# 3 35.9804 18.2500 41.0852 -8.6039 9.4488 18.3454
# 4 -6.6411 -7.4271 -8.6039 28.0690 11.7440 -2.1370
# 5 1.5993 0.7995 9.4488 11.7440 22.1267 1.4286
# 6 28.6721 29.9366 18.3454 -2.1370 1.4286 42.2543
#
#
#
# Elastic Compliance Matrix: (Units=1/GPa)
#
#
# Indices 1 2 3 4 5 6 
#
# 1 0.025775 -0.001149 -0.022954 -0.006879 0.012114 -0.007467
# 2 -0.001149 0.019888 -0.000754 0.004605 -0.001939 -0.012685
# 3 -0.022954 -0.000754 0.065081 0.031234 -0.042093 -0.009144
# 4 -0.006879 0.004605 0.031234 0.063596 -0.046286 -0.007375
# 5 0.012114 -0.001939 -0.042093 -0.046286 0.086532 0.006163
# 6 -0.007467 -0.012685 -0.009144 -0.007375 0.006163 0.041109
#
#
# Mechanical properties :
#
#
# Convention : Reuss Voigt Hill
#
# Bulk Modulus (GPa) = 16.38522 39.15045 27.76783
# Shear Modulus (GPa) = 13.43944 25.96654 19.70299
#
# Velocity S-wave (km/s) = 2.66452 3.70370 3.22622
# Velocity P-wave (km/s) = 4.25700 6.24275 5.34294
#
# Compressibility (1/GPa) = 0.06103062
#
# Stress axis : x y z
#
# Youngs Moduli (GPa) = 38.79723 50.28077 15.36548
#
# Poissons Ratio (x) = 0.05778 0.35270
# Poissons Ratio (y) = 0.04458 0.01158
# Poissons Ratio (z) = 0.89056 0.03789
#
# Static dielectric constant tensor:
#      x y z
#    x 1.664660 0.005700 -0.016740 
#    y 0.005700 1.689100 0.012130 
#    z -0.016740 0.012130 1.643460 
# 
# From -- ./inp_files/63169.got.cif
#   From: 2010.05.17/outbox.cif.g08.bks.cpg/sg2_32_cif.got.tgz:63169.got - 2010.06.03 11:33:40.
