data_PCOD9001695
_publ_section_title
;
Structure prediction by ZEFSAII (Michael W. Deem and Ramdas Pophale) SiO2 
 PCOD9001695
Probable space group: P -1
;
_chemical_formula_sum "Si O2"
_cell_formula_units_Z 12
_cell_length_a 6.129816
_cell_length_b 11.973886
_cell_length_c 8.768038
_cell_angle_alpha 120.942564
_cell_angle_beta 113.931987
_cell_angle_gamma 77.494095
_cell_volume 504.485617
_symmetry_space_group_name_H-M "P -1"
_symmetry_group_IT_number 2
_symmetry_cell_setting 'triclinic'
loop_
_space_group_symop_operation_xyz
x,y,z
-x,-y,-z
loop_
_atom_site_type_symbol
_atom_site_label
_atom_site_fract_x
_atom_site_fract_y
_atom_site_fract_z
Si Si1 0.799321 0.394455 0.901889
Si Si2 0.856609 0.798056 0.274591
Si Si3 0.497803 0.798340 0.768406
Si Si4 0.340164 0.093127 0.412358
Si Si5 0.543153 0.388722 0.119352
Si Si6 0.868584 0.975349 0.139686
O O1 0.560072 0.464825 0.821515
O O2 0.896836 0.267258 0.756334
O O3 0.768582 0.376875 0.062481
O O4 0.000000 0.500000 0.000000
O O5 0.814257 0.816554 0.453493
O O6 0.841546 0.935923 0.281931
O O7 0.645159 0.707866 0.085602
O O8 0.521550 0.821200 0.611496
O O9 0.441976 0.662897 0.740336
O O10 0.297976 0.899306 0.845559
O O11 0.752413 0.851749 0.938382
O O12 0.500000 0.000000 0.500000
O O13 0.144326 0.003526 0.208653
#
# Coordination Sequence:
#
# PCOD9001695 Si02
#       6
#     2   2   2   2   2   2
#     4   9  19  37  63  87 113 151 210 250 302 358
#     4  10  21  35  61  89 119 161 200 249 299 353
#     4  10  22  39  60  91 125 161 203 246 305 356
#     4  12  24  37  59  92 132 165 199 242 303 364
#     4   9  20  39  62  88 115 156 204 254 298 361
#     4  10  22  38  58  88 125 166 204 244 293 361
#
# _framework density 23.786605000000002
#
# number of rings (size 3 to 8) (size 9 to 14) (size 15 to 20)
#    0.000    2.000    1.667    1.000    2.333    4.000 
#    0.000    0.833    0.000   10.000    0.000    0.000 
#    0.000    0.000    0.000    0.000    0.000    0.000 
#
# Total GULP energy -67044.915018 kJ/mol
# GULP energy per Si atom -5587.076252 kJ/mol
# Density = 2.373247 g / cm^3
# Si number density = 23.786605 Si / 1000 Ang^3
#
#
#
# Elastic Constant Matrix: (Units=GPa)
#
#
# Indices 1 2 3 4 5 6 
#
# 1 119.1708 41.1313 34.4348 -18.4011 -27.8205 12.1231
# 2 41.1313 109.5552 14.5025 -30.0366 -27.0714 11.3494
# 3 34.4348 14.5025 57.2801 -15.8002 -8.7641 4.9119
# 4 -18.4011 -30.0366 -15.8002 28.0159 11.2034 -16.0591
# 5 -27.8205 -27.0714 -8.7641 11.2034 59.9861 -2.7011
# 6 12.1231 11.3494 4.9119 -16.0591 -2.7011 47.5696
#
#
#
# Elastic Compliance Matrix: (Units=1/GPa)
#
#
# Indices 1 2 3 4 5 6 
#
# 1 0.012000 -0.002984 -0.006110 -0.001269 0.003475 -0.001946
# 2 -0.002984 0.014559 0.002561 0.015321 0.002805 0.002354
# 3 -0.006110 0.002561 0.024090 0.014506 -0.000718 0.003315
# 4 -0.001269 0.015321 0.014506 0.072204 -0.004170 0.019309
# 5 0.003475 0.002805 -0.000718 -0.004170 0.020144 -0.001745
# 6 -0.001946 0.002354 0.003315 0.019309 -0.001745 0.027033
#
#
# Mechanical properties :
#
#
# Convention : Reuss Voigt Hill
#
# Bulk Modulus (GPa) = 26.60704 51.79371 39.20037
# Shear Modulus (GPa) = 25.55937 40.17681 32.86809
#
# Velocity S-wave (km/s) = 3.28156 4.11427 3.72128
# Velocity P-wave (km/s) = 5.05650 6.66267 5.91436
#
# Compressibility (1/GPa) = 0.03758404
#
# Stress axis : x y z
#
# Youngs Moduli (GPa) = 83.33253 68.68638 41.51113
#
# Poissons Ratio (x) = 0.20495 0.25363
# Poissons Ratio (y) = 0.24865 -0.10632
# Poissons Ratio (z) = 0.50915 -0.17592
#
# Static dielectric constant tensor:
#      x y z
#    x 1.981490 -0.001200 -0.002750 
#    y -0.001200 1.907910 -0.030460 
#    z -0.002750 -0.030460 1.986080 
# 
# From -- ./inp_files/24347.got.cif
#   From: 2010.05.17/outbox.cif.g08.bks.cpg/sg2_13_cif.got.tgz:24347.got - 2010.06.03 11:33:40.
