data_PCOD9001811
_publ_section_title
;
Structure prediction by ZEFSAII (Michael W. Deem and Ramdas Pophale) SiO2 
 PCOD9001811
Probable space group: P -1
;
_chemical_formula_sum "Si O2"
_cell_formula_units_Z 14
_cell_length_a 7.854854
_cell_length_b 21.020383
_cell_length_c 9.124686
_cell_angle_alpha 134.585325
_cell_angle_beta 75.899596
_cell_angle_gamma 137.048562
_cell_volume 607.337399
_symmetry_space_group_name_H-M "P -1"
_symmetry_group_IT_number 2
_symmetry_cell_setting 'triclinic'
loop_
_space_group_symop_operation_xyz
x,y,z
-x,-y,-z
loop_
_atom_site_type_symbol
_atom_site_label
_atom_site_fract_x
_atom_site_fract_y
_atom_site_fract_z
Si Si1 0.829157 0.680933 0.251472
Si Si2 0.931862 0.339911 0.050603
Si Si3 0.040331 0.166003 0.238960
Si Si4 0.745626 0.659053 0.793278
Si Si5 0.855232 0.382015 0.675587
Si Si6 0.493675 0.188719 0.161372
Si Si7 0.498967 0.668758 0.104320
O O1 0.890340 0.734471 0.488903
O O2 0.764281 0.743732 0.274344
O O3 0.092544 0.734159 0.204929
O O4 0.500000 0.500000 0.000000
O O5 0.657899 0.249472 0.068699
O O6 0.141041 0.364914 0.150023
O O7 0.075507 0.490770 0.203876
O O8 0.015654 0.206190 0.155207
O O9 0.318655 0.210919 0.245448
O O10 0.750820 0.989414 0.056492
O O11 0.500000 0.500000 0.500000
O O12 0.629974 0.700525 0.968213
O O13 0.724392 0.277551 0.393841
O O14 0.619643 0.296070 0.719553
O O15 0.172046 0.485233 0.848922
#
# Coordination Sequence:
#
# PCOD9001811 Si02
#       7
#     2   2   2   2   2   2   2
#     4  11  20  40  63  93 124 161 200 261 306 366
#     4  11  23  37  68  91 125 159 212 258 304 359
#     4  11  24  42  64  88 131 164 207 248 322 364
#     4  11  22  37  62  93 120 162 204 259 307 370
#     4  11  20  38  65  97 119 158 211 259 300 368
#     4  11  23  41  63  91 128 168 201 258 304 376
#     4  10  21  35  64  91 121 156 210 253 309 352
#
# _framework density 23.051437
#
# number of rings (size 3 to 8) (size 9 to 14) (size 15 to 20)
#    0.000    1.143    2.857    4.714    0.000    1.143 
#    0.000    0.714   12.571    0.000    0.000    0.000 
#    0.000    0.000    0.000    0.000    0.000    0.000 
#
# Total GULP energy -78095.391964 kJ/mol
# GULP energy per Si atom -5578.242283 kJ/mol
# Density = 2.299897 g / cm^3
# Si number density = 23.051437 Si / 1000 Ang^3
#
#
#
# Elastic Constant Matrix: (Units=GPa)
#
#
# Indices 1 2 3 4 5 6 
#
# 1 83.5855 48.6861 26.7594 -11.8722 -4.2470 -0.0447
# 2 48.6861 126.1428 61.8063 -44.1005 -13.2849 11.6428
# 3 26.7594 61.8063 63.4051 -28.6538 -16.2889 7.5344
# 4 -11.8722 -44.1005 -28.6538 36.7875 4.0869 -9.2688
# 5 -4.2470 -13.2849 -16.2889 4.0869 26.8459 -9.3356
# 6 -0.0447 11.6428 7.5344 -9.2688 -9.3356 38.4602
#
#
#
# Elastic Compliance Matrix: (Units=1/GPa)
#
#
# Indices 1 2 3 4 5 6 
#
# 1 0.016022 -0.006634 -0.002845 -0.004554 -0.001381 0.001151
# 2 -0.006634 0.020957 -0.011116 0.014120 0.000173 -0.000729
# 3 -0.002845 -0.011116 0.038092 0.014467 0.016105 0.003295
# 4 -0.004554 0.014120 0.014467 0.054974 0.009621 0.008470
# 5 -0.001381 0.000173 0.016105 0.009621 0.049274 0.011070
# 6 0.001151 -0.000729 0.003295 0.008470 0.011070 0.030306
#
#
# Mechanical properties :
#
#
# Convention : Reuss Voigt Hill
#
# Bulk Modulus (GPa) = 29.51566 60.84857 45.18212
# Shear Modulus (GPa) = 19.07613 29.47750 24.27682
#
# Velocity S-wave (km/s) = 2.87983 3.57987 3.24876
# Velocity P-wave (km/s) = 4.88774 6.59860 5.80652
#
# Compressibility (1/GPa) = 0.03388032
#
# Stress axis : x y z
#
# Youngs Moduli (GPa) = 62.41323 47.71762 26.25240
#
# Poissons Ratio (x) = 0.31655 0.07469
# Poissons Ratio (y) = 0.41404 0.29182
# Poissons Ratio (z) = 0.17758 0.53043
#
# Static dielectric constant tensor:
#      x y z
#    x 2.000920 -0.034150 -0.032260 
#    y -0.034150 1.890320 -0.021350 
#    z -0.032260 -0.021350 1.814080 
# 
# From -- ./inp_files/226631.got.cif
#   From: 2010.05.17/outbox.cif.g08.bks.cpg/sg2_114_cif.got.tgz:226631.got - 2010.06.03 11:33:40.
