data_PCOD9001499
_publ_section_title
;
Structure prediction by ZEFSAII (Michael W. Deem and Ramdas Pophale) SiO2 
 PCOD9001499
Probable space group: P -1
;
_chemical_formula_sum "Si O2"
_cell_formula_units_Z 16
_cell_length_a 11.453912
_cell_length_b 10.399799
_cell_length_c 12.305404
_cell_angle_alpha 40.585406
_cell_angle_beta 108.510703
_cell_angle_gamma 81.075086
_cell_volume 693.094689
_symmetry_space_group_name_H-M "P -1"
_symmetry_group_IT_number 2
_symmetry_cell_setting 'triclinic'
loop_
_space_group_symop_operation_xyz
x,y,z
-x,-y,-z
loop_
_atom_site_type_symbol
_atom_site_label
_atom_site_fract_x
_atom_site_fract_y
_atom_site_fract_z
Si Si1 0.899594 0.090172 0.608028
Si Si2 0.279883 0.077531 0.164343
Si Si3 0.577592 0.934241 0.226112
Si Si4 0.103186 0.226604 0.645830
Si Si5 0.566999 0.587043 0.284556
Si Si6 0.740889 0.216122 0.838490
Si Si7 0.067778 0.630626 0.132661
Si Si8 0.162107 0.232332 0.266817
O O1 0.727424 0.333659 0.445468
O O2 0.001084 0.182553 0.570717
O O3 0.874332 0.956761 0.590356
O O4 0.994403 0.860155 0.873731
O O5 0.094409 0.324313 0.914624
O O6 0.275407 0.093657 0.283913
O O7 0.433961 0.045604 0.196595
O O8 0.287916 0.866549 0.230456
O O9 0.760708 0.818137 0.361090
O O10 0.593561 0.707325 0.315638
O O11 0.504727 0.184450 0.969894
O O12 0.000000 0.500000 0.500000
O O13 0.177467 0.023349 0.899261
O O14 0.430107 0.572539 0.288913
O O15 0.848760 0.300602 0.805912
O O16 0.198355 0.351549 0.294830
O O17 0.000000 0.500000 0.000000
#
# Coordination Sequence:
#
# PCOD9001499 Si02
#       8
#     2   2   2   2   2   2   2   2
#     4   9  16  28  50  69  89 131 169 189 228 289
#     4   9  16  29  51  72 101 122 160 197 244 285
#     4   9  17  27  43  72 101 130 149 193 251 284
#     4  10  17  27  46  71 102 128 155 194 238 294
#     4   9  16  28  45  70 101 125 156 193 241 293
#     4   9  18  29  49  77  96 123 161 199 243 278
#     4   9  18  34  53  69  93 133 167 195 236 285
#     4   8  17  33  52  69  91 133 166 195 236 286
#
# _framework density 23.084869000000001
#
# number of rings (size 3 to 8) (size 9 to 14) (size 15 to 20)
#    0.000    3.250    1.250    1.125    0.000    0.000 
#    0.000   10.625    5.500   25.500    0.000    0.000 
#    0.000    0.000    0.000    0.000    0.000    0.000 
#
# Total GULP energy -89108.560836 kJ/mol
# GULP energy per Si atom -5569.285052 kJ/mol
# Density = 2.303233 g / cm^3
# Si number density = 23.084869 Si / 1000 Ang^3
#
#
#
# Elastic Constant Matrix: (Units=GPa)
#
#
# Indices 1 2 3 4 5 6 
#
# 1 142.5935 43.4960 53.4896 -26.8029 34.6239 10.8019
# 2 43.4960 85.7213 44.7122 -29.3949 5.1693 1.4672
# 3 53.4896 44.7122 93.2438 -16.8490 5.8537 7.6732
# 4 -26.8029 -29.3949 -16.8490 31.1436 -6.4173 -10.4968
# 5 34.6239 5.1693 5.8537 -6.4173 36.6980 -3.3707
# 6 10.8019 1.4672 7.6732 -10.4968 -3.3707 20.5267
#
#
#
# Elastic Compliance Matrix: (Units=1/GPa)
#
#
# Indices 1 2 3 4 5 6 
#
# 1 0.013246 -0.002891 -0.004677 0.001713 -0.011599 -0.006044
# 2 -0.002891 0.024141 -0.007450 0.022551 0.005843 0.015072
# 3 -0.004677 -0.007450 0.016662 -0.003209 0.001823 -0.004577
# 4 0.001713 0.022551 -0.003209 0.067018 0.010626 0.034702
# 5 -0.011599 0.005843 0.001823 0.010626 0.040507 0.017090
# 6 -0.006044 0.015072 -0.004577 0.034702 0.017090 0.073083
#
#
# Mechanical properties :
#
#
# Convention : Reuss Voigt Hill
#
# Bulk Modulus (GPa) = 41.64362 67.21713 54.43037
# Shear Modulus (GPa) = 18.33531 29.66437 23.99984
#
# Velocity S-wave (km/s) = 2.82131 3.58860 3.22784
# Velocity P-wave (km/s) = 5.35645 6.80818 6.12548
#
# Compressibility (1/GPa) = 0.02401328
#
# Stress axis : x y z
#
# Youngs Moduli (GPa) = 75.49688 41.42273 60.01612
#
# Poissons Ratio (x) = 0.11975 0.28069
# Poissons Ratio (y) = 0.21826 0.44712
# Poissons Ratio (z) = 0.35309 0.30860
#
# Static dielectric constant tensor:
#      x y z
#    x 1.950000 0.004880 -0.014700 
#    y 0.004880 1.934500 0.059730 
#    z -0.014700 0.059730 1.948970 
# 
# From -- ./inp_files/567276.got.cif
#   From: 2010.05.17/outbox.cif.g08.bks.cpg/sg2_284_cif.got.tgz:567276.got - 2010.06.03 11:33:40.
