data_PCOD9001610
_publ_section_title
;
Structure prediction by ZEFSAII (Michael W. Deem and Ramdas Pophale) SiO2 
 PCOD9001610
Probable space group: P -1
;
_chemical_formula_sum "Si O2"
_cell_formula_units_Z 12
_cell_length_a 16.382824
_cell_length_b 9.707392
_cell_length_c 5.624840
_cell_angle_alpha 85.644430
_cell_angle_beta 81.609474
_cell_angle_gamma 35.734037
_cell_volume 515.442289
_symmetry_space_group_name_H-M "P -1"
_symmetry_group_IT_number 2
_symmetry_cell_setting 'triclinic'
loop_
_space_group_symop_operation_xyz
x,y,z
-x,-y,-z
loop_
_atom_site_type_symbol
_atom_site_label
_atom_site_fract_x
_atom_site_fract_y
_atom_site_fract_z
Si Si1 0.059533 0.812962 0.805862
Si Si2 0.447373 0.002565 0.274608
Si Si3 0.573045 0.608483 0.983847
Si Si4 0.386531 0.712741 0.707054
Si Si5 0.111047 0.023389 0.535773
Si Si6 0.192949 0.493624 0.181533
O O1 0.925257 0.922115 0.732347
O O2 0.131927 0.829878 0.604587
O O3 0.162420 0.558363 0.904540
O O4 0.000000 0.000000 0.000000
O O5 0.278686 0.248900 0.282747
O O6 0.500000 0.000000 0.500000
O O7 0.509277 0.767717 0.226332
O O8 0.500000 0.000000 0.000000
O O9 0.632046 0.381956 0.074320
O O10 0.451564 0.750865 0.821396
O O11 0.697571 0.528824 0.825519
O O12 0.500000 0.500000 0.500000
O O13 0.240667 0.928307 0.601749
O O14 0.960876 0.278095 0.672258
#
# Coordination Sequence:
#
# PCOD9001610 Si02
#       6
#     2   2   2   2   2   2
#     4   9  19  31  57  87 123 152 208 264 313 367
#     4  10  24  41  70  98 130 167 221 278 328 381
#     4  10  24  41  61  94 127 168 217 266 328 386
#     4  11  25  38  61  91 136 172 208 261 332 402
#     4  10  21  35  59  90 125 165 213 265 324 376
#     4  10  21  38  67  90 121 158 222 270 321 369
#
# _framework density 23.280978000000001
#
# number of rings (size 3 to 8) (size 9 to 14) (size 15 to 20)
#    0.000    2.000    1.667    0.000   16.333    1.333 
#    0.000    0.833    0.000    2.000    0.000    0.000 
#    0.000    0.000    0.000    0.000    0.000    0.000 
#
# Total GULP energy -66888.519679 kJ/mol
# GULP energy per Si atom -5574.043307 kJ/mol
# Density = 2.322799 g / cm^3
# Si number density = 23.280978 Si / 1000 Ang^3
#
#
#
# Elastic Constant Matrix: (Units=GPa)
#
#
# Indices 1 2 3 4 5 6 
#
# 1 71.3965 37.0054 31.3753 -3.9787 28.9543 -32.0314
# 2 37.0054 149.6191 47.5105 -3.1151 22.1711 -38.5347
# 3 31.3753 47.5105 96.4027 -6.6156 42.5865 -16.2734
# 4 -3.9787 -3.1151 -6.6156 49.2928 -9.6943 6.3750
# 5 28.9543 22.1711 42.5865 -9.6943 45.3430 -18.3969
# 6 -32.0314 -38.5347 -16.2734 6.3750 -18.3969 41.4122
#
#
#
# Elastic Compliance Matrix: (Units=1/GPa)
#
#
# Indices 1 2 3 4 5 6 
#
# 1 0.024966 -0.000670 -0.001712 -0.001807 -0.008504 0.014514
# 2 -0.000670 0.010072 -0.004846 -0.000502 0.003413 0.008543
# 3 -0.001712 -0.004846 0.020275 -0.000522 -0.018045 -0.005802
# 4 -0.001807 -0.000502 -0.000522 0.021464 0.005243 -0.003044
# 5 -0.008504 0.003413 -0.018045 0.005243 0.047941 0.009998
# 6 0.014514 0.008543 -0.005802 -0.003044 0.009998 0.045953
#
#
# Mechanical properties :
#
#
# Convention : Reuss Voigt Hill
#
# Bulk Modulus (GPa) = 24.47630 61.02228 42.74929
# Shear Modulus (GPa) = 25.15751 40.64475 32.90113
#
# Velocity S-wave (km/s) = 3.29082 4.18285 3.76336
# Velocity P-wave (km/s) = 4.99756 7.04248 6.10623
#
# Compressibility (1/GPa) = 0.04085584
#
# Stress axis : x y z
#
# Youngs Moduli (GPa) = 40.05464 99.28210 49.32168
#
# Poissons Ratio (x) = 0.06656 0.08446
# Poissons Ratio (y) = 0.02685 0.23901
# Poissons Ratio (z) = 0.06859 0.48112
#
# Static dielectric constant tensor:
#      x y z
#    x 1.949530 0.056870 -0.051330 
#    y 0.056870 1.984900 -0.021030 
#    z -0.051330 -0.021030 2.083710 
# 
# From -- ./inp_files/108557.got.cif
#   From: 2010.05.17/outbox.cif.g08.bks.cpg/sg2_55_cif.got.tgz:108557.got - 2010.06.03 11:33:40.
