data_PCOD9001786
_publ_section_title
;
Structure prediction by ZEFSAII (Michael W. Deem and Ramdas Pophale) SiO2 
 PCOD9001786
Probable space group: P -1
;
_chemical_formula_sum "Si O2"
_cell_formula_units_Z 14
_cell_length_a 5.316276
_cell_length_b 11.464488
_cell_length_c 13.841425
_cell_angle_alpha 55.198220
_cell_angle_beta 98.744776
_cell_angle_gamma 112.052795
_cell_volume 639.884615
_symmetry_space_group_name_H-M "P -1"
_symmetry_group_IT_number 2
_symmetry_cell_setting 'triclinic'
loop_
_space_group_symop_operation_xyz
x,y,z
-x,-y,-z
loop_
_atom_site_type_symbol
_atom_site_label
_atom_site_fract_x
_atom_site_fract_y
_atom_site_fract_z
Si Si1 0.898799 0.536090 0.715459
Si Si2 0.819219 0.599489 0.477063
Si Si3 0.119020 0.162210 0.002993
Si Si4 0.550861 0.462239 0.900503
Si Si5 0.582759 0.045928 0.153353
Si Si6 0.312391 0.681556 0.844205
Si Si7 0.079129 0.766099 0.237793
O O1 0.885434 0.638700 0.575073
O O2 0.620309 0.459964 0.793940
O O3 0.949856 0.394292 0.736324
O O4 0.098064 0.622384 0.772964
O O5 0.500000 0.500000 0.500000
O O6 0.000000 0.500000 0.500000
O O7 0.906468 0.735182 0.340661
O O8 0.024452 0.152550 0.891884
O O9 0.246276 0.341584 0.952865
O O10 0.866316 0.084198 0.096126
O O11 0.383310 0.115205 0.051331
O O12 0.560468 0.630737 0.845913
O O13 0.728788 0.404352 0.012797
O O14 0.632278 0.144366 0.208235
O O15 0.390612 0.869937 0.231763
#
# Coordination Sequence:
#
# PCOD9001786 Si02
#       7
#     2   2   2   2   2   2   2
#     4  11  22  39  65  88 121 160 211 254 299 355
#     4  10  24  41  64  92 118 158 209 257 297 349
#     4  11  22  39  60  92 123 163 199 244 308 369
#     4  10  21  35  63  89 124 159 204 251 300 359
#     4  11  26  38  60  92 130 158 195 247 313 371
#     4  10  22  36  59  91 122 161 202 245 307 365
#     4  11  22  43  61  91 122 161 202 255 304 357
#
# _framework density 21.878944000000001
#
# number of rings (size 3 to 8) (size 9 to 14) (size 15 to 20)
#    0.000    1.429    1.429    3.857    8.000    4.571 
#    0.000    0.714    0.000    0.857    0.000    0.000 
#    0.000    0.000    0.000    0.000    0.000    0.000 
#
# Total GULP energy -78068.263906 kJ/mol
# GULP energy per Si atom -5576.304565 kJ/mol
# Density = 2.182915 g / cm^3
# Si number density = 21.878944 Si / 1000 Ang^3
#
#
#
# Elastic Constant Matrix: (Units=GPa)
#
#
# Indices 1 2 3 4 5 6 
#
# 1 80.1164 24.7267 26.3313 8.5736 -14.1354 19.6684
# 2 24.7267 138.3794 41.2115 25.0584 -1.1559 26.0742
# 3 26.3313 41.2115 118.3834 28.1952 -28.1368 14.3911
# 4 8.5736 25.0584 28.1952 24.8112 -4.7143 -5.3504
# 5 -14.1354 -1.1559 -28.1368 -4.7143 26.5192 -7.2673
# 6 19.6684 26.0742 14.3911 -5.3504 -7.2673 34.4840
#
#
#
# Elastic Compliance Matrix: (Units=1/GPa)
#
#
# Indices 1 2 3 4 5 6 
#
# 1 0.016389 0.000151 0.000537 -0.007517 0.005309 -0.009734
# 2 0.000151 0.012866 -0.000417 -0.016744 -0.006507 -0.013609
# 3 0.000537 -0.000417 0.016564 -0.017653 0.012801 -0.006945
# 4 -0.007517 -0.016744 -0.017653 0.088775 0.002921 0.038704
# 5 0.005309 -0.006507 0.012801 0.002921 0.056816 0.008977
# 6 -0.009734 -0.013609 -0.006945 0.038704 0.008977 0.055637
#
#
# Mechanical properties :
#
#
# Convention : Reuss Voigt Hill
#
# Bulk Modulus (GPa) = 21.56914 57.93537 39.75225
# Shear Modulus (GPa) = 19.08712 33.47020 26.27866
#
# Velocity S-wave (km/s) = 2.95684 3.91550 3.46944
# Velocity P-wave (km/s) = 4.64080 6.85412 5.85303
#
# Compressibility (1/GPa) = 0.04636254
#
# Stress axis : x y z
#
# Youngs Moduli (GPa) = 61.01520 77.72640 60.37231
#
# Poissons Ratio (x) = -0.01174 -0.03245
# Poissons Ratio (y) = -0.00922 0.02515
# Poissons Ratio (z) = -0.03279 0.03238
#
# Static dielectric constant tensor:
#      x y z
#    x 1.819120 0.044530 -0.027170 
#    y 0.044530 1.892880 -0.021860 
#    z -0.027170 -0.021860 1.804090 
# 
# From -- ./inp_files/481526.got.cif
#   From: 2010.05.17/outbox.cif.g08.bks.cpg/sg2_241_cif.got.tgz:481526.got - 2010.06.03 11:33:40.
