data_PCOD9001584
_publ_section_title
;
Structure prediction by ZEFSAII (Michael W. Deem and Ramdas Pophale) SiO2 
 PCOD9001584
Probable space group: P -1
;
_chemical_formula_sum "Si O2"
_cell_formula_units_Z 16
_cell_length_a 11.965338
_cell_length_b 16.498272
_cell_length_c 16.562612
_cell_angle_alpha 152.417360
_cell_angle_beta 53.223518
_cell_angle_gamma 143.752009
_cell_volume 810.655467
_symmetry_space_group_name_H-M "P -1"
_symmetry_group_IT_number 2
_symmetry_cell_setting 'triclinic'
loop_
_space_group_symop_operation_xyz
x,y,z
-x,-y,-z
loop_
_atom_site_type_symbol
_atom_site_label
_atom_site_fract_x
_atom_site_fract_y
_atom_site_fract_z
Si Si1 0.869872 0.793311 0.215173
Si Si2 0.413700 0.129245 0.562685
Si Si3 0.804234 0.433736 0.044995
Si Si4 0.219161 0.582965 0.214247
Si Si5 0.538134 0.149493 0.350479
Si Si6 0.356887 0.291560 0.450663
Si Si7 0.215113 0.721734 0.786797
Si Si8 0.613839 0.322932 0.186047
O O1 0.733363 0.841196 0.328226
O O2 0.847215 0.662955 0.192687
O O3 0.804699 0.595328 0.998078
O O4 0.113575 0.060416 0.330350
O O5 0.594303 0.290816 0.694219
O O6 0.523244 0.225328 0.511485
O O7 0.280125 0.825455 0.361148
O O8 0.772815 0.385897 0.111227
O O9 0.000000 0.500000 0.000000
O O10 0.594716 0.152810 0.851836
O O11 0.009067 0.420698 0.213869
O O12 0.421195 0.170497 0.356802
O O13 0.746911 0.291496 0.335423
O O14 0.500000 0.500000 0.500000
O O15 0.392218 0.482393 0.665939
O O16 0.286553 0.622322 0.722016
O O17 0.388904 0.026224 0.008883
#
# Coordination Sequence:
#
# PCOD9001584 Si02
#       8
#     2   2   2   2   2   2   2   2
#     4  12  24  41  70  95 132 172 215 272 328 387
#     4  11  26  43  68  95 126 175 226 277 310 385
#     4  11  21  36  61  94 132 168 202 262 329 390
#     4  11  24  46  67  92 129 173 229 269 324 370
#     4  11  23  40  62  97 135 167 211 262 333 386
#     4  12  23  36  60 100 131 163 207 262 323 403
#     4  10  21  39  65  88 132 177 200 267 324 392
#     4  10  21  35  58  94 130 163 208 250 330 392
#
# _framework density 19.737116
#
# number of rings (size 3 to 8) (size 9 to 14) (size 15 to 20)
#    0.000    1.000    3.750    3.375    3.500    1.500 
#    0.000    0.000    0.000    4.500    0.000    0.000 
#    0.000    0.000    0.000    0.000    0.000    0.000 
#
# Total GULP energy -89216.857416 kJ/mol
# GULP energy per Si atom -5576.053588 kJ/mol
# Density = 1.969219 g / cm^3
# Si number density = 19.737116 Si / 1000 Ang^3
#
#
#
# Elastic Constant Matrix: (Units=GPa)
#
#
# Indices 1 2 3 4 5 6 
#
# 1 83.8189 42.7238 31.1799 5.2440 -15.5377 4.8303
# 2 42.7238 148.5666 42.2400 -3.5339 0.7020 2.0817
# 3 31.1799 42.2400 79.5468 3.3544 -14.2617 -3.8993
# 4 5.2440 -3.5339 3.3544 33.8623 0.8102 -2.5363
# 5 -15.5377 0.7020 -14.2617 0.8102 26.8693 -2.6436
# 6 4.8303 2.0817 -3.8993 -2.5363 -2.6436 22.5410
#
#
#
# Elastic Compliance Matrix: (Units=1/GPa)
#
#
# Indices 1 2 3 4 5 6 
#
# 1 0.017054 -0.004099 -0.003075 -0.003199 0.008117 -0.003216
# 2 -0.004099 0.009235 -0.004351 0.002070 -0.005091 -0.001091
# 3 -0.003075 -0.004351 0.017898 -0.001579 0.008371 0.004961
# 4 -0.003199 0.002070 -0.001579 0.030726 -0.003346 0.003286
# 5 0.008117 -0.005091 0.008371 -0.003346 0.047112 0.005328
# 6 -0.003216 -0.001091 0.004961 0.003286 0.005328 0.047006
#
#
# Mechanical properties :
#
#
# Convention : Reuss Voigt Hill
#
# Bulk Modulus (GPa) = 47.31272 60.46886 53.89079
# Shear Modulus (GPa) = 25.10961 29.70709 27.40835
#
# Velocity S-wave (km/s) = 3.57066 3.88382 3.73053
# Velocity P-wave (km/s) = 6.40492 7.12851 6.77638
#
# Compressibility (1/GPa) = 0.02113597
#
# Stress axis : x y z
#
# Youngs Moduli (GPa) = 58.63694 108.27881 55.87370
#
# Poissons Ratio (x) = 0.44387 0.17184
# Poissons Ratio (y) = 0.24037 0.24309
# Poissons Ratio (z) = 0.18034 0.47110
#
# Static dielectric constant tensor:
#      x y z
#    x 1.493330 -0.508950 0.350470 
#    y -0.508950 0.426250 0.966670 
#    z 0.350470 0.966670 0.991380 
# 
# From -- ./inp_files/282023.got.cif
#   From: 2010.05.17/outbox.cif.g08.bks.cpg/sg2_142_cif.got.tgz:282023.got - 2010.06.03 11:33:40.
