data_PCOD9001768
_publ_section_title
;
Structure prediction by ZEFSAII (Michael W. Deem and Ramdas Pophale) SiO2 
 PCOD9001768
Probable space group: P -1
;
_chemical_formula_sum "Si O2"
_cell_formula_units_Z 16
_cell_length_a 8.952981
_cell_length_b 20.117402
_cell_length_c 21.129237
_cell_angle_alpha 19.607090
_cell_angle_beta 34.706881
_cell_angle_gamma 42.630572
_cell_volume 712.068154
_symmetry_space_group_name_H-M "P -1"
_symmetry_group_IT_number 2
_symmetry_cell_setting 'triclinic'
loop_
_space_group_symop_operation_xyz
x,y,z
-x,-y,-z
loop_
_atom_site_type_symbol
_atom_site_label
_atom_site_fract_x
_atom_site_fract_y
_atom_site_fract_z
Si Si1 0.794607 0.333950 0.016800
Si Si2 0.701928 0.075421 0.623141
Si Si3 0.099878 0.311457 0.058287
Si Si4 0.451979 0.661094 0.445959
Si Si5 0.209717 0.229161 0.885961
Si Si6 0.238792 0.212746 0.362567
Si Si7 0.005420 0.167642 0.611306
Si Si8 0.401680 0.733977 0.633391
O O1 0.523040 0.186095 0.264466
O O2 0.012858 0.344643 0.986947
O O3 0.728855 0.555343 0.834083
O O4 0.918031 0.270575 0.966862
O O5 0.573208 0.211994 0.595582
O O6 0.587199 0.092411 0.578845
O O7 0.017772 0.180805 0.413938
O O8 0.719693 0.855028 0.840891
O O9 0.813221 0.249773 0.250812
O O10 0.267537 0.521948 0.837588
O O11 0.414614 0.417431 0.679611
O O12 0.705713 0.756660 0.229097
O O13 0.194782 0.690471 0.467386
O O14 0.178348 0.009266 0.125468
O O15 0.101549 0.087290 0.582749
O O16 0.291437 0.260924 0.458608
#
# Coordination Sequence:
#
# PCOD9001768 Si02
#       8
#     2   2   2   2   2   2   2   2
#     4  11  19  37  63  95 124 162 195 261 311 366
#     4  11  22  41  61  88 125 165 204 255 304 371
#     4  11  23  37  61  87 131 172 197 246 314 371
#     4  10  23  44  63  94 120 158 217 261 303 365
#     4  11  22  38  69  91 122 163 205 261 317 350
#     4  10  21  35  62  95 129 149 206 254 312 372
#     4  11  22  39  62  94 125 158 205 260 304 368
#     4  11  24  41  57  92 130 165 208 245 305 378
#
# _framework density 22.469759
#
# number of rings (size 3 to 8) (size 9 to 14) (size 15 to 20)
#    0.000    1.250    5.000    2.250    1.750    2.000 
#    0.000    0.625    0.000    9.000    0.000    0.000 
#    0.000    0.000    0.000    0.000    0.000    0.000 
#
# Total GULP energy -89320.346198 kJ/mol
# GULP energy per Si atom -5582.521637 kJ/mol
# Density = 2.241862 g / cm^3
# Si number density = 22.469759 Si / 1000 Ang^3
#
#
#
# Elastic Constant Matrix: (Units=GPa)
#
#
# Indices 1 2 3 4 5 6 
#
# 1 90.7286 18.1704 19.9927 16.6000 0.1985 -1.7641
# 2 18.1704 93.1791 19.9088 24.7592 5.2723 8.6443
# 3 19.9927 19.9088 104.6728 13.3862 6.3917 12.5500
# 4 16.6000 24.7592 13.3862 43.0938 2.3403 3.9711
# 5 0.1985 5.2723 6.3917 2.3403 25.2619 4.9532
# 6 -1.7641 8.6443 12.5500 3.9711 4.9532 17.1131
#
#
#
# Elastic Compliance Matrix: (Units=1/GPa)
#
#
# Indices 1 2 3 4 5 6 
#
# 1 0.012562 -0.001402 -0.002195 -0.003772 0.000232 0.004420
# 2 -0.001402 0.013365 -0.000853 -0.006403 -0.001093 -0.004468
# 3 -0.002195 -0.000853 0.011272 -0.001424 -0.001070 -0.007422
# 4 -0.003772 -0.006403 -0.001424 0.029054 -0.000431 -0.002728
# 5 0.000232 -0.001093 -0.001070 -0.000431 0.042233 -0.010763
# 6 0.004420 -0.004468 -0.007422 -0.002728 -0.010763 0.070338
#
#
# Mechanical properties :
#
#
# Convention : Reuss Voigt Hill
#
# Bulk Modulus (GPa) = 35.33472 44.96938 40.15205
# Shear Modulus (GPa) = 25.36060 32.46102 28.91081
#
# Velocity S-wave (km/s) = 3.36319 3.80498 3.59089
# Velocity P-wave (km/s) = 5.55347 6.27380 5.92459
#
# Compressibility (1/GPa) = 0.02830078
#
# Stress axis : x y z
#
# Youngs Moduli (GPa) = 79.60694 74.82038 88.71326
#
# Poissons Ratio (x) = 0.10488 0.19468
# Poissons Ratio (y) = 0.11158 0.07568
# Poissons Ratio (z) = 0.17470 0.06383
#
# Static dielectric constant tensor:
#      x y z
#    x 1.827680 0.007350 0.029800 
#    y 0.007350 1.882700 -0.037360 
#    z 0.029800 -0.037360 1.933890 
# 
# From -- ./inp_files/591588.got.cif
#   From: 2010.05.17/outbox.cif.g08.bks.cpg/sg2_296_cif.got.tgz:591588.got - 2010.06.03 11:33:40.
