data_PCOD9001445
_publ_section_title
;
Structure prediction by ZEFSAII (Michael W. Deem and Ramdas Pophale) SiO2 
 PCOD9001445
Probable space group: P -1
;
_chemical_formula_sum "Si O2"
_cell_formula_units_Z 16
_cell_length_a 8.585175
_cell_length_b 21.121703
_cell_length_c 10.951815
_cell_angle_alpha 37.605114
_cell_angle_beta 41.922338
_cell_angle_gamma 54.867250
_cell_volume 809.185413
_symmetry_space_group_name_H-M "P -1"
_symmetry_group_IT_number 2
_symmetry_cell_setting 'triclinic'
loop_
_space_group_symop_operation_xyz
x,y,z
-x,-y,-z
loop_
_atom_site_type_symbol
_atom_site_label
_atom_site_fract_x
_atom_site_fract_y
_atom_site_fract_z
Si Si1 0.156437 0.171550 0.284152
Si Si2 0.138531 0.234987 0.476407
Si Si3 0.358764 0.817417 0.140864
Si Si4 0.488284 0.621844 0.837208
Si Si5 0.091514 0.760023 0.919232
Si Si6 0.777027 0.944368 0.115770
Si Si7 0.755943 0.039619 0.336872
Si Si8 0.597836 0.768699 0.322832
O O1 0.117707 0.216991 0.371669
O O2 0.985293 0.205764 0.224596
O O3 0.149034 0.047548 0.494576
O O4 0.421196 0.199759 0.046529
O O5 0.306595 0.330237 0.269865
O O6 0.229079 0.131327 0.648041
O O7 0.877662 0.242078 0.670053
O O8 0.427681 0.778849 0.293337
O O9 0.311092 0.940510 0.989454
O O10 0.244502 0.659534 0.975136
O O11 0.522461 0.682817 0.596087
O O12 0.500000 0.500000 0.000000
O O13 0.241227 0.851857 0.758848
O O14 0.853437 0.745976 0.155553
O O15 0.624144 0.880264 0.203656
O O16 0.042282 0.949959 0.900172
O O17 0.500000 0.000000 0.500000
#
# Coordination Sequence:
#
# PCOD9001445 Si02
#       8
#     2   2   2   2   2   2   2   2
#     4  11  23  35  59  89 129 169 189 236 299 364
#     4  11  23  39  57  89 125 156 204 250 293 357
#     4  11  21  36  59  89 127 160 196 234 297 365
#     4  11  25  44  68  86 109 157 210 263 309 346
#     4  10  23  41  58  89 124 158 205 245 302 362
#     4  10  21  35  55  88 127 167 197 232 289 355
#     4  11  21  34  58  89 128 167 199 239 289 355
#     4   9  22  41  60  87 121 158 197 250 298 358
#
# _framework density 19.772971999999999
#
# number of rings (size 3 to 8) (size 9 to 14) (size 15 to 20)
#    0.000    1.500    1.250    3.375    5.250    2.500 
#    0.000    2.500    0.000    3.000    0.000    0.000 
#    0.000    0.000    0.000    0.000    0.000    0.000 
#
# Total GULP energy -89477.879155 kJ/mol
# GULP energy per Si atom -5592.367447 kJ/mol
# Density = 1.972797 g / cm^3
# Si number density = 19.772972 Si / 1000 Ang^3
#
#
#
# Elastic Constant Matrix: (Units=GPa)
#
#
# Indices 1 2 3 4 5 6 
#
# 1 54.5676 29.1936 14.1571 7.9373 -9.7562 -10.8253
# 2 29.1936 94.0999 26.7404 -6.7194 -19.5533 -8.3718
# 3 14.1571 26.7404 47.6056 8.2834 -7.8485 -4.4337
# 4 7.9373 -6.7194 8.2834 33.5699 4.0628 -0.4920
# 5 -9.7562 -19.5533 -7.8485 4.0628 23.5140 10.4045
# 6 -10.8253 -8.3718 -4.4337 -0.4920 10.4045 22.3896
#
#
#
# Elastic Compliance Matrix: (Units=1/GPa)
#
#
# Indices 1 2 3 4 5 6 
#
# 1 0.025396 -0.006862 -0.001359 -0.007148 0.001892 0.008407
# 2 -0.006862 0.016814 -0.007155 0.005647 0.008849 -0.002435
# 3 -0.001359 -0.007155 0.027577 -0.008416 0.004136 0.000022
# 4 -0.007148 0.005647 -0.008416 0.035659 -0.007874 0.001431
# 5 0.001892 0.008849 0.004136 -0.007874 0.064526 -0.025115
# 6 0.008407 -0.002435 0.000022 0.001431 -0.025115 0.059525
#
#
# Mechanical properties :
#
#
# Convention : Reuss Voigt Hill
#
# Bulk Modulus (GPa) = 25.61737 37.38393 31.50065
# Shear Modulus (GPa) = 18.29763 24.30684 21.30223
#
# Velocity S-wave (km/s) = 3.04532 3.50994 3.28585
# Velocity P-wave (km/s) = 5.03479 5.94759 5.51013
#
# Compressibility (1/GPa) = 0.03903601
#
# Stress axis : x y z
#
# Youngs Moduli (GPa) = 39.37698 59.47344 36.26200
#
# Poissons Ratio (x) = 0.40809 0.04928
# Poissons Ratio (y) = 0.27020 0.25944
# Poissons Ratio (z) = 0.05352 0.42551
#
# Static dielectric constant tensor:
#      x y z
#    x 1.722500 0.005060 0.005360 
#    y 0.005060 1.693810 0.057180 
#    z 0.005360 0.057180 1.696660 
# 
# From -- ./inp_files/399073.got.cif
#   From: 2010.05.17/outbox.cif.g08.bks.cpg/sg2_200_cif.got.tgz:399073.got - 2010.06.03 11:33:40.
