data_PCOD9001645
_publ_section_title
;
Structure prediction by ZEFSAII (Michael W. Deem and Ramdas Pophale) SiO2 
 PCOD9001645
Probable space group: P -1
;
_chemical_formula_sum "Si O2"
_cell_formula_units_Z 12
_cell_length_a 9.324143
_cell_length_b 10.560179
_cell_length_c 10.419883
_cell_angle_alpha 49.617344
_cell_angle_beta 79.616594
_cell_angle_gamma 42.157826
_cell_volume 424.711130
_symmetry_space_group_name_H-M "P -1"
_symmetry_group_IT_number 2
_symmetry_cell_setting 'triclinic'
loop_
_space_group_symop_operation_xyz
x,y,z
-x,-y,-z
loop_
_atom_site_type_symbol
_atom_site_label
_atom_site_fract_x
_atom_site_fract_y
_atom_site_fract_z
Si Si1 0.590848 0.757058 0.315014
Si Si2 0.395459 0.260821 0.145420
Si Si3 0.076373 0.665874 0.672548
Si Si4 0.200923 0.878367 0.913122
Si Si5 0.404793 0.684133 0.590254
Si Si6 0.052782 0.204748 0.966818
O O1 0.847063 0.519985 0.339157
O O2 0.557249 0.620081 0.489708
O O3 0.335456 0.999062 0.103161
O O4 0.551960 0.946336 0.292968
O O5 0.218798 0.469597 0.909252
O O6 0.608973 0.205785 0.157942
O O7 0.187008 0.454468 0.167921
O O8 0.212333 0.711395 0.580832
O O9 0.778354 0.993450 0.538315
O O10 0.388547 0.592098 0.164190
O O11 0.077328 0.133698 0.860465
O O12 0.006699 0.917885 0.872619
#
# Coordination Sequence:
#
# PCOD9001645 Si02
#       6
#     2   2   2   2   2   2
#     4  12  22  36  66  91 116 147 205 248 286 337
#     4  11  22  38  61  92 115 156 196 245 287 348
#     4  10  21  35  60  88 119 151 195 243 289 339
#     4  10  24  41  61  85 122 158 193 238 296 356
#     4  10  21  37  58  90 116 157 194 243 289 346
#     4  11  22  39  63  88 117 157 198 238 292 354
#
# _framework density 28.254498000000002
#
# number of rings (size 3 to 8) (size 9 to 14) (size 15 to 20)
#    0.000    1.333    5.000    2.000    0.000    0.000 
#    0.000    0.833    0.000    5.000    0.000    0.000 
#    0.000    0.000    0.000    0.000    0.000    0.000 
#
# Total GULP energy -67350.382924 kJ/mol
# GULP energy per Si atom -5612.531910 kJ/mol
# Density = 2.819019 g / cm^3
# Si number density = 28.254498 Si / 1000 Ang^3
#
#
#
# Elastic Constant Matrix: (Units=GPa)
#
#
# Indices 1 2 3 4 5 6 
#
# 1 78.1123 15.8656 3.1702 -4.3197 -5.8081 -12.4550
# 2 15.8656 229.7938 26.5019 -31.9343 -7.4216 -13.6237
# 3 3.1702 26.5019 76.3338 -2.3191 -12.0982 -2.7801
# 4 -4.3197 -31.9343 -2.3191 47.5491 -0.5759 -11.3594
# 5 -5.8081 -7.4216 -12.0982 -0.5759 32.3492 -6.1157
# 6 -12.4550 -13.6237 -2.7801 -11.3594 -6.1157 47.7330
#
#
#
# Elastic Compliance Matrix: (Units=1/GPa)
#
#
# Indices 1 2 3 4 5 6 
#
# 1 0.013954 -0.000314 0.000307 0.002197 0.003444 0.004533
# 2 -0.000314 0.005284 -0.001425 0.004051 0.001159 0.002456
# 3 0.000307 -0.001425 0.014485 0.000139 0.005382 0.001240
# 4 0.002197 0.004051 0.000139 0.025997 0.003420 0.008363
# 5 0.003444 0.001159 0.005382 0.003420 0.035168 0.006863
# 6 0.004533 0.002456 0.001240 0.008363 0.006863 0.025775
#
#
# Mechanical properties :
#
#
# Convention : Reuss Voigt Hill
#
# Bulk Modulus (GPa) = 32.40523 52.81281 42.60902
# Shear Modulus (GPa) = 37.36564 48.10641 42.73602
#
# Velocity S-wave (km/s) = 3.64052 4.13075 3.89336
# Velocity P-wave (km/s) = 5.40047 6.44074 5.94341
#
# Compressibility (1/GPa) = 0.03085922
#
# Stress axis : x y z
#
# Youngs Moduli (GPa) = 71.66521 189.25744 69.03809
#
# Poissons Ratio (x) = 0.05933 -0.02120
# Poissons Ratio (y) = 0.02247 0.09839
# Poissons Ratio (z) = -0.02201 0.26972
#
# Static dielectric constant tensor:
#      x y z
#    x 2.230380 0.036180 -0.026490 
#    y 0.036180 2.183890 -0.051900 
#    z -0.026490 -0.051900 2.174790 
# 
# From -- ./inp_files/152566.got.cif
#   From: 2010.05.17/outbox.cif.g08.bks.cpg/sg2_77_cif.got.tgz:152566.got - 2010.06.03 11:33:40.
