data_PCOD9001088
_publ_section_title
;
Structure prediction by ZEFSAII (Michael W. Deem and Ramdas Pophale) SiO2 
 PCOD9001088
Probable space group: P -1
;
_chemical_formula_sum "Si O2"
_cell_formula_units_Z 16
_cell_length_a 8.956870
_cell_length_b 22.724316
_cell_length_c 15.266915
_cell_angle_alpha 160.728479
_cell_angle_beta 50.576640
_cell_angle_gamma 129.287845
_cell_volume 785.264124
_symmetry_space_group_name_H-M "P -1"
_symmetry_group_IT_number 2
_symmetry_cell_setting 'triclinic'
loop_
_space_group_symop_operation_xyz
x,y,z
-x,-y,-z
loop_
_atom_site_type_symbol
_atom_site_label
_atom_site_fract_x
_atom_site_fract_y
_atom_site_fract_z
Si Si1 0.269728 0.637767 0.573678
Si Si2 0.899840 0.801839 0.737366
Si Si3 0.529219 0.890424 0.924504
Si Si4 0.955920 0.666452 0.189010
Si Si5 0.461604 0.242446 0.516543
Si Si6 0.131406 0.241127 0.119526
Si Si7 0.290384 0.915483 0.499524
Si Si8 0.239291 0.628355 0.272978
O O1 0.430676 0.664171 0.476254
O O2 0.195849 0.428747 0.311204
O O3 0.100863 0.759089 0.785466
O O4 0.364339 0.719849 0.743412
O O5 0.797617 0.738624 0.778141
O O6 0.071478 0.699650 0.494691
O O7 0.734810 0.817699 0.749814
O O8 0.000000 0.000000 0.000000
O O9 0.509342 0.037059 0.212760
O O10 0.500000 0.000000 0.000000
O O11 0.766417 0.757003 0.413291
O O12 0.144660 0.816543 0.340241
O O13 0.870159 0.563814 0.988863
O O14 0.000000 0.500000 0.000000
O O15 0.566279 0.351494 0.712118
O O16 0.196530 0.074696 0.808740
O O17 0.294373 0.759973 0.353749
O O18 0.500000 0.000000 0.500000
#
# Coordination Sequence:
#
# PCOD9001088 Si02
#       8
#     2   2   2   2   2   2   2   2
#     4  10  23  36  62  98 129 167 207 269 322 381
#     4  12  20  39  65  95 122 166 211 262 319 383
#     4  10  21  33  62  94 126 161 208 261 316 379
#     4  10  25  40  65  95 120 175 221 262 309 385
#     4  11  20  41  66  93 129 165 223 262 320 380
#     4  11  22  41  63  92 133 168 210 261 332 374
#     4  11  25  43  66  91 131 174 212 262 326 385
#     4  11  23  41  69  94 127 168 221 266 315 384
#
# _framework density 20.375309000000001
#
# number of rings (size 3 to 8) (size 9 to 14) (size 15 to 20)
#    0.000    1.250    3.750    1.875   10.500    0.500 
#    0.000    1.875    0.000    0.000    0.000    0.000 
#    0.000    0.000    0.000    0.000    0.000    0.000 
#
# Total GULP energy -89171.742933 kJ/mol
# GULP energy per Si atom -5573.233933 kJ/mol
# Density = 2.032893 g / cm^3
# Si number density = 20.375309 Si / 1000 Ang^3
#
#
#
# Elastic Constant Matrix: (Units=GPa)
#
#
# Indices 1 2 3 4 5 6 
#
# 1 111.0816 24.1478 17.6753 1.5554 12.2421 24.8376
# 2 24.1478 65.0561 41.8169 -1.2869 4.1718 16.5974
# 3 17.6753 41.8169 77.7423 -0.8756 19.1724 13.8578
# 4 1.5554 -1.2869 -0.8756 22.1464 4.1941 2.0817
# 5 12.2421 4.1718 19.1724 4.1941 37.0312 0.6693
# 6 24.8376 16.5974 13.8578 2.0817 0.6693 30.5650
#
#
#
# Elastic Compliance Matrix: (Units=1/GPa)
#
#
# Indices 1 2 3 4 5 6 
#
# 1 0.011774 -0.002790 0.001417 0.000682 -0.004233 -0.008649
# 2 -0.002790 0.026501 -0.013793 0.000793 0.005097 -0.006036
# 3 0.001417 -0.013793 0.023539 0.002573 -0.011316 -0.004261
# 4 0.000682 0.000793 0.002573 0.047047 -0.006881 -0.005205
# 5 -0.004233 0.005097 -0.011316 -0.006881 0.034368 0.005518
# 6 -0.008649 -0.006036 -0.004261 -0.005205 0.005518 0.045189
#
#
# Mechanical properties :
#
#
# Convention : Reuss Voigt Hill
#
# Bulk Modulus (GPa) = 31.76248 46.79555 39.27902
# Shear Modulus (GPa) = 21.81091 29.29784 25.55438
#
# Velocity S-wave (km/s) = 3.27533 3.79609 3.54529
# Velocity P-wave (km/s) = 5.47049 6.49849 6.00653
#
# Compressibility (1/GPa) = 0.03148369
#
# Stress axis : x y z
#
# Youngs Moduli (GPa) = 84.93128 37.73415 42.48251
#
# Poissons Ratio (x) = 0.10526 -0.06019
# Poissons Ratio (y) = 0.23692 0.58594
# Poissons Ratio (z) = -0.12032 0.52045
#
# Static dielectric constant tensor:
#      x y z
#    x 1.805680 -0.015410 0.030510 
#    y -0.015410 1.769980 0.010800 
#    z 0.030510 0.010800 1.778580 
# 
# From -- ./inp_files/332295.got.cif
#   From: 2010.05.17/outbox.cif.g08.bks.cpg/sg2_167_cif.got.tgz:332295.got - 2010.06.03 11:33:40.
