data_PCOD9001262
_publ_section_title
;
Structure prediction by ZEFSAII (Michael W. Deem and Ramdas Pophale) SiO2 
 PCOD9001262
Probable space group: P -1
;
_chemical_formula_sum "Si O2"
_cell_formula_units_Z 12
_cell_length_a 13.774756
_cell_length_b 5.365154
_cell_length_c 9.148257
_cell_angle_alpha 98.147460
_cell_angle_beta 109.279537
_cell_angle_gamma 56.560493
_cell_volume 531.841034
_symmetry_space_group_name_H-M "P -1"
_symmetry_group_IT_number 2
_symmetry_cell_setting 'triclinic'
loop_
_space_group_symop_operation_xyz
x,y,z
-x,-y,-z
loop_
_atom_site_type_symbol
_atom_site_label
_atom_site_fract_x
_atom_site_fract_y
_atom_site_fract_z
Si Si1 0.522060 0.826280 0.151119
Si Si2 0.056017 0.038483 0.178681
Si Si3 0.246939 0.788584 0.799725
Si Si4 0.757507 0.737794 0.361926
Si Si5 0.743906 0.968995 0.870983
Si Si6 0.097867 0.507739 0.288861
O O1 0.606951 0.467017 0.142686
O O2 0.610578 0.888356 0.297297
O O3 0.396445 0.918147 0.173789
O O4 0.500000 0.000000 0.000000
O O5 0.201123 0.908778 0.211035
O O6 0.039094 0.857288 0.280939
O O7 0.011737 0.378690 0.221702
O O8 0.000000 0.000000 0.000000
O O9 0.200329 0.566678 0.732649
O O10 0.217580 0.025931 0.678393
O O11 0.217419 0.962487 0.950747
O O12 0.818602 0.635134 0.540634
O O13 0.820707 0.624891 0.829621
#
# Coordination Sequence:
#
# PCOD9001262 Si02
#       6
#     2   2   2   2   2   2
#     4  10  21  34  59  88 127 157 196 227 288 350
#     4  10  23  41  65  86 114 150 202 251 293 345
#     4  10  21  35  57  84 124 157 192 228 288 347
#     4  10  22  36  57  85 128 155 185 239 296 344
#     4  10  22  34  64  87 115 155 208 234 281 349
#     4  10  23  39  62  88 116 152 197 246 300 337
#
# _framework density 22.563134000000002
#
# number of rings (size 3 to 8) (size 9 to 14) (size 15 to 20)
#    2.000    0.000    1.667    2.000    4.667    0.667 
#    0.000    1.667    0.000    6.000    0.000    0.000 
#    0.000    0.000    0.000    0.000    0.000    0.000 
#
# Total GULP energy -66846.247757 kJ/mol
# GULP energy per Si atom -5570.520646 kJ/mol
# Density = 2.251178 g / cm^3
# Si number density = 22.563134 Si / 1000 Ang^3
#
#
#
# Elastic Constant Matrix: (Units=GPa)
#
#
# Indices 1 2 3 4 5 6 
#
# 1 145.1002 39.1939 10.8250 -12.5359 5.4649 8.0637
# 2 39.1939 114.7885 17.4133 -25.0858 -11.9431 16.0414
# 3 10.8250 17.4133 78.0792 -21.0017 13.0426 6.4011
# 4 -12.5359 -25.0858 -21.0017 32.9399 6.2901 -11.7720
# 5 5.4649 -11.9431 13.0426 6.2901 21.1132 -1.0315
# 6 8.0637 16.0414 6.4011 -11.7720 -1.0315 43.7527
#
#
#
# Elastic Compliance Matrix: (Units=1/GPa)
#
#
# Indices 1 2 3 4 5 6 
#
# 1 0.007997 -0.002872 0.001054 0.002491 -0.005089 -0.000025
# 2 -0.002872 0.012091 -0.002139 0.004547 0.007443 -0.002192
# 3 0.001054 -0.002139 0.020432 0.015896 -0.018770 0.001435
# 4 0.002491 0.004547 0.015896 0.052589 -0.023113 0.009153
# 5 -0.005089 0.007443 -0.018770 -0.023113 0.071197 -0.003585
# 6 -0.000025 -0.002192 0.001435 0.009153 -0.003585 0.025832
#
#
# Mechanical properties :
#
#
# Convention : Reuss Voigt Hill
#
# Bulk Modulus (GPa) = 30.66891 52.53692 41.60292
# Shear Modulus (GPa) = 23.93244 37.59686 30.76465
#
# Velocity S-wave (km/s) = 3.26035 4.08646 3.69656
# Velocity P-wave (km/s) = 5.27212 6.75281 6.05787
#
# Compressibility (1/GPa) = 0.03260631
#
# Stress axis : x y z
#
# Youngs Moduli (GPa) = 125.04319 82.70500 48.94279
#
# Poissons Ratio (x) = 0.23754 -0.05159
# Poissons Ratio (y) = 0.35914 0.10469
# Poissons Ratio (z) = -0.13180 0.17690
#
# Static dielectric constant tensor:
#      x y z
#    x 1.903510 0.004950 0.022070 
#    y 0.004950 1.909750 0.010320 
#    z 0.022070 0.010320 1.789110 
# 
# From -- ./inp_files/24053.got.cif
#   From: 2010.05.17/outbox.cif.g08.bks.cpg/sg2_13_cif.got.tgz:24053.got - 2010.06.03 11:33:40.
