data_PCOD9001660
_publ_section_title
;
Structure prediction by ZEFSAII (Michael W. Deem and Ramdas Pophale) SiO2 
 PCOD9001660
Probable space group: P -1
;
_chemical_formula_sum "Si O2"
_cell_formula_units_Z 16
_cell_length_a 12.278771
_cell_length_b 16.663523
_cell_length_c 24.103389
_cell_angle_alpha 18.476621
_cell_angle_beta 27.267735
_cell_angle_gamma 36.002850
_cell_volume 696.075060
_symmetry_space_group_name_H-M "P -1"
_symmetry_group_IT_number 2
_symmetry_cell_setting 'triclinic'
loop_
_space_group_symop_operation_xyz
x,y,z
-x,-y,-z
loop_
_atom_site_type_symbol
_atom_site_label
_atom_site_fract_x
_atom_site_fract_y
_atom_site_fract_z
Si Si1 0.705120 0.265566 0.724231
Si Si2 0.245781 0.171205 0.340494
Si Si3 0.631138 0.066972 0.150033
Si Si4 0.977886 0.592762 0.807490
Si Si5 0.860704 0.012342 0.979892
Si Si6 0.850930 0.761477 0.402296
Si Si7 0.548509 0.151263 0.320367
Si Si8 0.594663 0.527517 0.358580
O O1 0.698558 0.486014 0.629265
O O2 0.637323 0.390632 0.616158
O O3 0.984959 0.237155 0.618242
O O4 0.500000 0.000000 0.000000
O O5 0.101635 0.360806 0.250629
O O6 0.332832 0.199182 0.346352
O O7 0.481662 0.198099 0.174885
O O8 0.082232 0.877060 0.599615
O O9 0.719620 0.168403 0.982265
O O10 0.462248 0.779059 0.405376
O O11 0.881081 0.021765 0.091838
O O12 0.190064 0.436662 0.808859
O O13 0.748589 0.423703 0.055001
O O14 0.698720 0.723263 0.231951
O O15 0.933853 0.147037 0.800171
O O16 0.680203 0.961009 0.350496
O O17 0.500000 0.000000 0.500000
#
# Coordination Sequence:
#
# PCOD9001660 Si02
#       8
#     2   2   2   2   2   2   2   2
#     4  11  21  37  64  85 119 165 199 247 311 369
#     4  10  21  42  66  91 125 164 213 262 315 368
#     4  10  21  35  60  91 118 158 195 253 311 365
#     4  10  21  40  69  89 123 168 212 261 313 369
#     4  11  19  35  59  88 120 151 198 247 306 368
#     4  11  22  40  60  90 123 165 206 248 307 378
#     4  12  24  43  65  93 127 172 213 260 315 369
#     4  11  19  37  61  87 121 159 199 247 309 365
#
# _framework density 22.986027
#
# number of rings (size 3 to 8) (size 9 to 14) (size 15 to 20)
#    0.000    1.250    5.000    1.500    0.000    0.500 
#    4.500    5.000    0.000    0.000    0.000    0.000 
#    0.000    0.000    0.000    0.000    0.000    0.000 
#
# Total GULP energy -89310.433003 kJ/mol
# GULP energy per Si atom -5581.902063 kJ/mol
# Density = 2.293371 g / cm^3
# Si number density = 22.986027 Si / 1000 Ang^3
#
#
#
# Elastic Constant Matrix: (Units=GPa)
#
#
# Indices 1 2 3 4 5 6 
#
# 1 60.0567 23.3229 58.5926 28.8090 -5.1663 -2.9159
# 2 23.3229 30.4504 -4.1442 -6.0967 -0.0858 -6.5231
# 3 58.5926 -4.1442 92.1540 -10.4484 -13.6576 5.2764
# 4 28.8090 -6.0967 -10.4484 19.6424 5.8643 -1.9839
# 5 -5.1663 -0.0858 -13.6576 5.8643 46.9444 2.2452
# 6 -2.9159 -6.5231 5.2764 -1.9839 2.2452 30.0513
#
#
#
# Elastic Compliance Matrix: (Units=1/GPa)
#
#
# Indices 1 2 3 4 5 6 
#
# 1 -0.009924 0.014294 0.009397 0.024670 -0.001521 0.002232
# 2 0.014294 0.017409 -0.010894 -0.021023 0.000792 0.005631
# 3 0.009397 -0.010894 0.003286 -0.017040 0.004265 -0.003473
# 4 0.024670 -0.021023 -0.017040 -0.000070 -0.002319 0.000991
# 5 -0.001521 0.000792 0.004265 -0.002319 0.022790 -0.002580
# 6 0.002232 0.005631 -0.003473 0.000991 -0.002580 0.035583
#
#
# Mechanical properties :
#
#
# Convention : Reuss Voigt Hill
#
# Bulk Modulus (GPa) = 27.49969 37.57817 32.53893
# Shear Modulus (GPa) = 89.92482 26.32030 58.12256
#
# Velocity S-wave (km/s) = 6.26150 3.38754 5.03398
# Velocity P-wave (km/s) = 8.01654 5.62888 6.92637
#
# Compressibility (1/GPa) = 0.03636405
#
# Stress axis : x y z
#
# Youngs Moduli (GPa) = -100.76089 57.44092 304.33183
#
# Poissons Ratio (x) = -0.82104 -2.85976
# Poissons Ratio (y) = 1.44024 3.31532
# Poissons Ratio (z) = 0.94683 0.62575
#
# Static dielectric constant tensor:
#      x y z
#    x 1.943350 0.009680 0.035070 
#    y 0.009680 1.856670 0.009490 
#    z 0.035070 0.009490 1.922580 
# 
# From -- ./inp_files/610748.got.cif
#   From: 2010.05.17/outbox.cif.g08.bks.cpg/sg2_306_cif.got.tgz:610748.got - 2010.06.03 11:33:40.
