data_PCOD9001673
_publ_section_title
;
Structure prediction by ZEFSAII (Michael W. Deem and Ramdas Pophale) SiO2 
 PCOD9001673
Probable space group: P -1
;
_chemical_formula_sum "Si O2"
_cell_formula_units_Z 16
_cell_length_a 11.857482
_cell_length_b 27.797827
_cell_length_c 9.121413
_cell_angle_alpha 40.394446
_cell_angle_beta 49.816083
_cell_angle_gamma 22.337345
_cell_volume 718.780168
_symmetry_space_group_name_H-M "P -1"
_symmetry_group_IT_number 2
_symmetry_cell_setting 'triclinic'
loop_
_space_group_symop_operation_xyz
x,y,z
-x,-y,-z
loop_
_atom_site_type_symbol
_atom_site_label
_atom_site_fract_x
_atom_site_fract_y
_atom_site_fract_z
Si Si1 0.590068 0.539868 0.178335
Si Si2 0.452725 0.288295 0.728030
Si Si3 0.260973 0.399872 0.306889
Si Si4 0.181288 0.301186 0.390986
Si Si5 0.018237 0.254442 0.849937
Si Si6 0.557753 0.405237 0.382255
Si Si7 0.502342 0.874556 0.772350
Si Si8 0.107548 0.176889 0.265867
O O1 0.226293 0.691893 0.148332
O O2 0.689552 0.410342 0.367971
O O3 0.815629 0.470223 0.274668
O O4 0.643823 0.565634 0.929900
O O5 0.445678 0.298937 0.533076
O O6 0.580963 0.309829 0.628176
O O7 0.096154 0.438952 0.724765
O O8 0.607136 0.147385 0.991015
O O9 0.297289 0.319926 0.340875
O O10 0.333178 0.226629 0.278387
O O11 0.216656 0.212053 0.666730
O O12 0.798370 0.414378 0.740923
O O13 0.169601 0.148800 0.106196
O O14 0.748800 0.332868 0.242176
O O15 0.735566 0.819935 0.802265
O O16 0.247790 0.044165 0.538275
#
# Coordination Sequence:
#
# PCOD9001673 Si02
#       8
#     2   2   2   2   2   2   2   2
#     4  10  21  35  60  94 118 152 189 253 307 342
#     4  11  22  37  59  96 115 161 196 246 299 349
#     4  11  21  34  63  88 128 148 198 249 299 354
#     4  12  21  39  57  94 123 155 191 249 306 352
#     4  10  22  36  64  89 118 150 202 249 296 346
#     4  10  21  37  66  89 116 151 201 254 293 345
#     4  11  25  39  61  84 127 162 200 238 294 364
#     4  11  22  43  61  86 118 165 203 244 287 357
#
# _framework density 22.259936
#
# number of rings (size 3 to 8) (size 9 to 14) (size 15 to 20)
#    0.750    0.500    3.750    2.625    3.500    1.000 
#    0.000    0.000    0.000    3.000    0.000    0.000 
#    0.000    0.000    0.000    0.000    0.000    0.000 
#
# Total GULP energy -89373.297362 kJ/mol
# GULP energy per Si atom -5585.831085 kJ/mol
# Density = 2.220927 g / cm^3
# Si number density = 22.259936 Si / 1000 Ang^3
#
#
#
# Elastic Constant Matrix: (Units=GPa)
#
#
# Indices 1 2 3 4 5 6 
#
# 1 93.6578 27.7573 49.3561 9.9122 -6.2819 10.5856
# 2 27.7573 36.2673 22.9394 -0.5332 3.3903 5.6932
# 3 49.3561 22.9394 177.2753 20.6056 -11.0441 0.2374
# 4 9.9122 -0.5332 20.6056 17.6283 7.1954 2.8981
# 5 -6.2819 3.3903 -11.0441 7.1954 37.5034 6.5497
# 6 10.5856 5.6932 0.2374 2.8981 6.5497 15.2637
#
#
#
# Elastic Compliance Matrix: (Units=1/GPa)
#
#
# Indices 1 2 3 4 5 6 
#
# 1 0.017565 -0.011634 -0.001861 -0.009358 0.006806 -0.008957
# 2 -0.011634 0.041837 -0.004920 0.018586 -0.009542 -0.006894
# 3 -0.001861 -0.004920 0.008337 -0.011081 0.004133 0.003327
# 4 -0.009358 0.018586 -0.011081 0.085532 -0.021661 -0.007215
# 5 0.006806 -0.009542 0.004133 -0.021661 0.036252 -0.012668
# 6 -0.008957 -0.006894 0.003327 -0.007215 -0.012668 0.081053
#
#
# Mechanical properties :
#
#
# Convention : Reuss Voigt Hill
#
# Bulk Modulus (GPa) = 32.35423 56.36733 44.36078
# Shear Modulus (GPa) = 15.73767 27.88891 21.81329
#
# Velocity S-wave (km/s) = 2.66182 3.54344 3.13379
# Velocity P-wave (km/s) = 4.90034 6.48988 5.75030
#
# Compressibility (1/GPa) = 0.03090786
#
# Stress axis : x y z
#
# Youngs Moduli (GPa) = 56.93057 23.90242 119.94934
#
# Poissons Ratio (x) = 0.27808 0.22325
# Poissons Ratio (y) = 0.66234 0.59017
# Poissons Ratio (z) = 0.10596 0.11760
#
# Static dielectric constant tensor:
#      x y z
#    x 1.807500 -0.015590 0.007350 
#    y -0.015590 1.845690 -0.015180 
#    z 0.007350 -0.015180 1.837300 
# 
# From -- ./inp_files/285452.got.cif
#   From: 2010.05.17/outbox.cif.g08.bks.cpg/sg2_143_cif.got.tgz:285452.got - 2010.06.03 11:33:40.
