data_PCOD9001575
_publ_section_title
;
Structure prediction by ZEFSAII (Michael W. Deem and Ramdas Pophale) SiO2 
 PCOD9001575
Probable space group: P -1
;
_chemical_formula_sum "Si O2"
_cell_formula_units_Z 12
_cell_length_a 18.858107
_cell_length_b 8.884331
_cell_length_c 14.766936
_cell_angle_alpha 139.916173
_cell_angle_beta 20.180966
_cell_angle_gamma 141.448499
_cell_volume 526.348402
_symmetry_space_group_name_H-M "P -1"
_symmetry_group_IT_number 2
_symmetry_cell_setting 'triclinic'
loop_
_space_group_symop_operation_xyz
x,y,z
-x,-y,-z
loop_
_atom_site_type_symbol
_atom_site_label
_atom_site_fract_x
_atom_site_fract_y
_atom_site_fract_z
Si Si1 0.322159 0.954476 0.614946
Si Si2 0.126904 0.513052 0.259729
Si Si3 0.571238 0.680271 0.082394
Si Si4 0.870398 0.129110 0.837973
Si Si5 0.729819 0.965771 0.736629
Si Si6 0.868610 0.651221 0.022628
O O1 0.500000 0.000000 0.500000
O O2 0.377733 0.772430 0.392483
O O3 0.307719 0.201980 0.697510
O O4 0.090029 0.823709 0.875585
O O5 0.082792 0.363813 0.150562
O O6 0.000000 0.500000 0.500000
O O7 0.120093 0.772302 0.352635
O O8 0.352528 0.477917 0.005742
O O9 0.500000 0.500000 0.000000
O O10 0.762093 0.935398 0.956352
O O11 0.813455 0.385302 0.012491
O O12 0.131996 0.198650 0.549135
O O13 0.758655 0.970152 0.811196
O O14 0.500000 0.000000 0.000000
#
# Coordination Sequence:
#
# PCOD9001575 Si02
#       6
#     2   2   2   2   2   2
#     4  11  24  45  69  92 129 175 222 263 330 395
#     4  11  20  37  62  96 130 163 215 263 320 383
#     4  12  24  40  68 101 131 171 218 271 323 387
#     4  10  23  40  59  98 133 163 218 272 319 384
#     4  10  21  35  58  90 133 170 203 262 331 377
#     4  10  24  43  67  92 130 177 216 270 325 388
#
# _framework density 22.798589
#
# number of rings (size 3 to 8) (size 9 to 14) (size 15 to 20)
#    0.000    1.333    3.333    2.000    7.000    0.667 
#    0.000    0.833    0.000    0.000    0.000    0.000 
#    0.000    0.000    0.000    0.000    0.000    0.000 
#
# Total GULP energy -66830.622765 kJ/mol
# GULP energy per Si atom -5569.218564 kJ/mol
# Density = 2.274670 g / cm^3
# Si number density = 22.798589 Si / 1000 Ang^3
#
#
#
# Elastic Constant Matrix: (Units=GPa)
#
#
# Indices 1 2 3 4 5 6 
#
# 1 69.2447 14.7431 17.1686 4.0421 -22.4434 6.7845
# 2 14.7431 88.7162 17.1757 32.2810 -8.1529 -12.7857
# 3 17.1686 17.1757 115.4816 35.3440 -32.1911 2.1346
# 4 4.0421 32.2810 35.3440 44.1283 -0.8029 -8.8422
# 5 -22.4434 -8.1529 -32.1911 -0.8029 46.5051 1.3090
# 6 6.7845 -12.7857 2.1346 -8.8422 1.3090 29.5374
#
#
#
# Elastic Compliance Matrix: (Units=1/GPa)
#
#
# Indices 1 2 3 4 5 6 
#
# 1 0.018503 -0.002810 0.000721 -0.001317 0.009091 -0.006316
# 2 -0.002810 0.016997 0.002984 -0.013802 0.003352 0.003507
# 3 0.000721 0.002984 0.016692 -0.016510 0.012297 -0.005568
# 4 -0.001317 -0.013802 -0.016510 0.047951 -0.013951 0.010494
# 5 0.009091 0.003352 0.012297 -0.013951 0.034954 -0.007251
# 6 -0.006316 0.003507 -0.005568 0.010494 -0.007251 0.040689
#
#
# Mechanical properties :
#
#
# Convention : Reuss Voigt Hill
#
# Bulk Modulus (GPa) = 18.52483 41.29082 29.90782
# Shear Modulus (GPa) = 26.04293 38.99117 32.51705
#
# Velocity S-wave (km/s) = 3.38347 4.14000 3.78070
# Velocity P-wave (km/s) = 4.83806 6.40338 5.67495
#
# Compressibility (1/GPa) = 0.05398161
#
# Stress axis : x y z
#
# Youngs Moduli (GPa) = 54.04415 58.83425 59.90807
#
# Poissons Ratio (x) = 0.16533 -0.04320
# Poissons Ratio (y) = 0.15187 -0.17874
# Poissons Ratio (z) = -0.03897 -0.17554
#
# Static dielectric constant tensor:
#      x y z
#    x 2.068120 0.022300 0.055660 
#    y 0.022300 1.894040 -0.017270 
#    z 0.055660 -0.017270 2.021380 
# 
# From -- ./inp_files/172476.got.cif
#   From: 2010.05.17/outbox.cif.g08.bks.cpg/sg2_87_cif.got.tgz:172476.got - 2010.06.03 11:33:40.
