data_PCOD9001928
_publ_section_title
;
Structure prediction by ZEFSAII (Michael W. Deem and Ramdas Pophale) SiO2 
 PCOD9001928
Probable space group: P -1
;
_chemical_formula_sum "Si O2"
_cell_formula_units_Z 14
_cell_length_a 10.165802
_cell_length_b 12.957566
_cell_length_c 9.194196
_cell_angle_alpha 84.868303
_cell_angle_beta 98.365184
_cell_angle_gamma 33.495284
_cell_volume 610.000813
_symmetry_space_group_name_H-M "P -1"
_symmetry_group_IT_number 2
_symmetry_cell_setting 'triclinic'
loop_
_space_group_symop_operation_xyz
x,y,z
-x,-y,-z
loop_
_atom_site_type_symbol
_atom_site_label
_atom_site_fract_x
_atom_site_fract_y
_atom_site_fract_z
Si Si1 0.587162 0.239719 0.946580
Si Si2 0.422557 0.104861 0.244432
Si Si3 0.338063 0.954939 0.444671
Si Si4 0.128031 0.542866 0.023366
Si Si5 0.758859 0.551925 0.383264
Si Si6 0.094700 0.321220 0.719870
Si Si7 0.970614 0.158682 0.124991
O O1 0.394053 0.409815 0.766426
O O2 0.762031 0.210351 0.050520
O O3 0.394238 0.320733 0.025062
O O4 0.780325 0.033248 0.916383
O O5 0.363949 0.046979 0.351028
O O6 0.574086 0.085704 0.371375
O O7 0.628467 0.919679 0.187249
O O8 0.140908 0.320526 0.106897
O O9 0.553578 0.734280 0.441262
O O10 0.068949 0.092668 0.316576
O O11 0.131872 0.660819 0.959675
O O12 0.086738 0.572038 0.185170
O O13 0.869414 0.580117 0.316524
O O14 0.979211 0.355724 0.543872
#
# Coordination Sequence:
#
# PCOD9001928 Si02
#       7
#     2   2   2   2   2   2   2
#     4  10  21  38  64  82 111 153 193 231 278 338
#     4   9  18  31  54  81 114 144 180 228 285 332
#     4   8  16  33  55  80 105 146 187 227 273 336
#     4  11  22  36  57  91 114 145 190 240 281 330
#     4   9  20  36  55  82 111 153 188 225 282 349
#     4  10  21  36  54  83 123 145 183 236 287 336
#     4   9  20  40  61  83 112 149 198 229 277 337
#
# _framework density 22.950790000000001
#
# number of rings (size 3 to 8) (size 9 to 14) (size 15 to 20)
#    0.000    2.571    0.000    1.714   10.000    0.571 
#    2.571    0.714    0.000    2.571    0.000    0.000 
#    0.000    0.000    0.000    0.000    0.000    0.000 
#
# Total GULP energy -78212.239233 kJ/mol
# GULP energy per Si atom -5586.588517 kJ/mol
# Density = 2.289855 g / cm^3
# Si number density = 22.950790 Si / 1000 Ang^3
#
#
#
# Elastic Constant Matrix: (Units=GPa)
#
#
# Indices 1 2 3 4 5 6 
#
# 1 46.6740 26.4600 35.4131 3.5396 22.5139 -13.1004
# 2 26.4600 111.5307 47.9690 -1.5739 -8.0481 -22.5460
# 3 35.4131 47.9690 152.6555 1.8728 28.1558 -12.2494
# 4 3.5396 -1.5739 1.8728 32.1490 -4.7110 -2.4014
# 5 22.5139 -8.0481 28.1558 -4.7110 39.3237 1.7337
# 6 -13.1004 -22.5460 -12.2494 -2.4014 1.7337 27.3264
#
#
#
# Elastic Compliance Matrix: (Units=1/GPa)
#
#
# Indices 1 2 3 4 5 6 
#
# 1 0.047363 -0.010107 -0.000906 -0.008966 -0.030276 0.015094
# 2 -0.010107 0.015274 -0.004343 0.004320 0.012301 0.005409
# 3 -0.000906 -0.004343 0.009569 -0.001718 -0.007453 0.000594
# 4 -0.008966 0.004320 -0.001718 0.034118 0.011301 0.000777
# 5 -0.030276 0.012301 -0.007453 0.011301 0.052414 -0.010039
# 6 0.015094 0.005409 0.000594 0.000777 -0.010039 0.049265
#
#
# Mechanical properties :
#
#
# Convention : Reuss Voigt Hill
#
# Bulk Modulus (GPa) = 24.09965 58.94937 41.52451
# Shear Modulus (GPa) = 19.79844 33.16104 26.47974
#
# Velocity S-wave (km/s) = 2.94027 3.80528 3.40039
# Velocity P-wave (km/s) = 4.69578 6.71176 5.79215
#
# Compressibility (1/GPa) = 0.04149439
#
# Stress axis : x y z
#
# Youngs Moduli (GPa) = 21.11358 65.47208 104.50512
#
# Poissons Ratio (x) = 0.66171 0.09470
# Poissons Ratio (y) = 0.21339 0.45382
# Poissons Ratio (z) = 0.01913 0.28432
#
# Static dielectric constant tensor:
#      x y z
#    x 1.847040 0.021040 0.024570 
#    y 0.021040 1.930160 -0.044470 
#    z 0.024570 -0.044470 1.897570 
# 
# From -- ./inp_files/199673.got.cif
#   From: 2010.05.17/outbox.cif.g08.bks.cpg/sg2_100_cif.got.tgz:199673.got - 2010.06.03 11:33:40.
