data_PCOD9001897
_publ_section_title
;
Structure prediction by ZEFSAII (Michael W. Deem and Ramdas Pophale) SiO2 
 PCOD9001897
Probable space group: P -1
;
_chemical_formula_sum "Si O2"
_cell_formula_units_Z 16
_cell_length_a 11.049759
_cell_length_b 7.695772
_cell_length_c 21.782790
_cell_angle_alpha 117.839502
_cell_angle_beta 32.071657
_cell_angle_gamma 137.191183
_cell_volume 603.860039
_symmetry_space_group_name_H-M "P -1"
_symmetry_group_IT_number 2
_symmetry_cell_setting 'triclinic'
loop_
_space_group_symop_operation_xyz
x,y,z
-x,-y,-z
loop_
_atom_site_type_symbol
_atom_site_label
_atom_site_fract_x
_atom_site_fract_y
_atom_site_fract_z
Si Si1 0.396832 0.639166 0.985011
Si Si2 0.409679 0.571916 0.337276
Si Si3 0.072888 0.246600 0.687351
Si Si4 0.823009 0.669663 0.727230
Si Si5 0.447090 0.842709 0.163504
Si Si6 0.250030 0.298922 0.477657
Si Si7 0.834889 0.438032 0.126640
Si Si8 0.074153 0.113903 0.111142
O O1 0.473606 0.553869 0.877533
O O2 0.756970 0.867122 0.897265
O O3 0.211098 0.407004 0.080193
O O4 0.145803 0.644916 0.071928
O O5 0.160996 0.404991 0.360659
O O6 0.278895 0.496130 0.449611
O O7 0.608802 0.487967 0.233924
O O8 0.692209 0.896626 0.250918
O O9 0.132615 0.274250 0.592519
O O10 0.374413 0.533617 0.640786
O O11 0.730384 0.153103 0.816141
O O12 0.049611 0.005785 0.680675
O O13 0.801651 0.470439 0.750332
O O14 0.598425 0.103811 0.185712
O O15 0.770843 0.930187 0.014588
O O16 0.000000 0.000000 0.500000
O O17 0.000000 0.500000 0.000000
#
# Coordination Sequence:
#
# PCOD9001897 Si02
#       8
#     2   2   2   2   2   2   2   2
#     4  10  21  36  53  90 134 170 208 255 317 389
#     4  12  22  37  66  92 127 173 215 263 328 379
#     4  11  24  46  72  94 127 170 220 270 326 382
#     4  11  21  40  66  92 134 170 211 268 322 382
#     4  11  22  40  65  98 129 170 212 262 326 389
#     4  11  24  46  72  93 127 171 219 277 324 376
#     4  12  20  34  58  90 131 169 215 252 310 392
#     4  10  22  36  57  91 132 166 209 262 317 389
#
# _framework density 26.496206000000001
#
# number of rings (size 3 to 8) (size 9 to 14) (size 15 to 20)
#    0.000    1.000    5.000    1.500    1.750    2.500 
#    0.000    3.125    2.750    0.000    0.000    0.000 
#    0.000    0.000    0.000    0.000    0.000    0.000 
#
# Total GULP energy -89334.584219 kJ/mol
# GULP energy per Si atom -5583.411514 kJ/mol
# Density = 2.643590 g / cm^3
# Si number density = 26.496206 Si / 1000 Ang^3
#
#
#
# Elastic Constant Matrix: (Units=GPa)
#
#
# Indices 1 2 3 4 5 6 
#
# 1 120.8935 41.3725 21.0882 -4.6774 9.0626 10.6110
# 2 41.3725 77.5877 22.7082 -25.0417 7.8627 -4.7518
# 3 21.0882 22.7082 82.1287 -11.8974 19.0067 2.4846
# 4 -4.6774 -25.0417 -11.8974 36.8029 4.4074 -0.1504
# 5 9.0626 7.8627 19.0067 4.4074 49.8255 4.2282
# 6 10.6110 -4.7518 2.4846 -0.1504 4.2282 42.6412
#
#
#
# Elastic Compliance Matrix: (Units=1/GPa)
#
#
# Indices 1 2 3 4 5 6 
#
# 1 0.011033 -0.006941 -0.001424 -0.003827 0.000265 -0.003476
# 2 -0.006941 0.022265 -0.001720 0.014119 -0.003241 0.004680
# 3 -0.001424 -0.001720 0.014892 0.004121 -0.005503 -0.000145
# 4 -0.003827 0.014119 0.004121 0.038448 -0.006767 0.003092
# 5 0.000265 -0.003241 -0.005503 -0.006767 0.023439 -0.002455
# 6 -0.003476 0.004680 -0.000145 0.003092 -0.002455 0.025101
#
#
# Mechanical properties :
#
#
# Convention : Reuss Voigt Hill
#
# Bulk Modulus (GPa) = 35.69046 50.10530 42.89788
# Shear Modulus (GPa) = 30.36029 38.88333 34.62181
#
# Velocity S-wave (km/s) = 3.38869 3.83496 3.61871
# Velocity P-wave (km/s) = 5.36752 6.20972 5.80392
#
# Compressibility (1/GPa) = 0.02801869
#
# Stress axis : x y z
#
# Youngs Moduli (GPa) = 90.63941 44.91273 67.14933
#
# Poissons Ratio (x) = 0.31175 0.09565
# Poissons Ratio (y) = 0.62915 0.11551
# Poissons Ratio (z) = 0.12911 0.07726
#
# Static dielectric constant tensor:
#      x y z
#    x 2.081750 0.031890 0.030050 
#    y 0.031890 2.199660 -0.036770 
#    z 0.030050 -0.036770 2.167320 
# 
# From -- ./inp_files/258819.got.cif
#   From: 2010.05.17/outbox.cif.g08.bks.cpg/sg2_130_cif.got.tgz:258819.got - 2010.06.03 11:33:40.
