data_PCOD9001411
_publ_section_title
;
Structure prediction by ZEFSAII (Michael W. Deem and Ramdas Pophale) SiO2 
 PCOD9001411
Probable space group: P -1
;
_chemical_formula_sum "Si O2"
_cell_formula_units_Z 14
_cell_length_a 17.984277
_cell_length_b 11.559533
_cell_length_c 21.074657
_cell_angle_alpha 136.640063
_cell_angle_beta 18.957138
_cell_angle_gamma 146.018376
_cell_volume 755.025575
_symmetry_space_group_name_H-M "P -1"
_symmetry_group_IT_number 2
_symmetry_cell_setting 'triclinic'
loop_
_space_group_symop_operation_xyz
x,y,z
-x,-y,-z
loop_
_atom_site_type_symbol
_atom_site_label
_atom_site_fract_x
_atom_site_fract_y
_atom_site_fract_z
Si Si1 0.116100 0.973237 0.829674
Si Si2 0.675969 0.939577 0.918190
Si Si3 0.812031 0.861836 0.902238
Si Si4 0.704470 0.496388 0.010412
Si Si5 0.677165 0.434860 0.568351
Si Si6 0.884283 0.519470 0.667717
Si Si7 0.092639 0.760156 0.258876
O O1 0.463513 0.174415 0.625783
O O2 0.976337 0.986028 0.883938
O O3 0.000000 0.000000 0.000000
O O4 0.969528 0.719834 0.851684
O O5 0.817840 0.001466 0.897064
O O6 0.534797 0.687686 0.920062
O O7 0.896243 0.092309 0.744419
O O8 0.382701 0.917335 0.133352
O O9 0.939146 0.743577 0.725871
O O10 0.467067 0.673070 0.121927
O O11 0.530083 0.531480 0.213211
O O12 0.834720 0.386363 0.890961
O O13 0.947323 0.503622 0.422128
O O14 0.810100 0.591267 0.462422
O O15 0.000000 0.500000 0.500000
#
# Coordination Sequence:
#
# PCOD9001411 Si02
#       7
#     2   2   2   2   2   2   2
#     4  10  21  35  55  81 113 146 175 218 275 333
#     4   9  18  37  54  78 105 141 180 227 266 312
#     4  11  20  36  53  76 115 143 171 229 279 300
#     4   9  18  34  53  79 111 135 173 226 268 316
#     4  11  20  34  55  80 107 145 179 213 269 327
#     4  11  21  32  55  84 108 138 181 224 272 329
#     4   9  19  35  54  80 103 140 185 220 266 318
#
# _framework density 18.542418999999999
#
# number of rings (size 3 to 8) (size 9 to 14) (size 15 to 20)
#    0.857    1.143    1.429    5.143    0.000    2.857 
#    0.000    0.714    0.000    3.429    0.000    0.000 
#    0.000    0.000    0.000    0.000    0.000    0.000 
#
# Total GULP energy -77946.874897 kJ/mol
# GULP energy per Si atom -5567.633921 kJ/mol
# Density = 1.850022 g / cm^3
# Si number density = 18.542419 Si / 1000 Ang^3
#
#
#
# Elastic Constant Matrix: (Units=GPa)
#
#
# Indices 1 2 3 4 5 6 
#
# 1 115.9420 30.4398 23.5522 -2.7998 13.6434 -2.8417
# 2 30.4398 49.9204 20.5418 -17.1508 8.9519 1.2910
# 3 23.5522 20.5418 91.8826 -5.1101 18.5429 1.8031
# 4 -2.7998 -17.1508 -5.1101 29.5271 -1.9167 7.3109
# 5 13.6434 8.9519 18.5429 -1.9167 23.0789 -6.7687
# 6 -2.8417 1.2910 1.8031 7.3109 -6.7687 22.0900
#
#
#
# Elastic Compliance Matrix: (Units=1/GPa)
#
#
# Indices 1 2 3 4 5 6 
#
# 1 0.011011 -0.007390 -0.000956 -0.004208 -0.002474 0.002561
# 2 -0.007390 0.035064 -0.002662 0.021778 -0.009026 -0.012756
# 3 -0.000956 -0.002662 0.014135 0.001317 -0.011105 -0.004960
# 4 -0.004208 0.021778 0.001317 0.051109 -0.009116 -0.021630
# 5 -0.002474 -0.009026 -0.011105 -0.009116 0.063365 0.023549
# 6 0.002561 -0.012756 -0.004960 -0.021630 0.023549 0.061123
#
#
# Mechanical properties :
#
#
# Convention : Reuss Voigt Hill
#
# Bulk Modulus (GPa) = 26.18070 45.20142 35.69106
# Shear Modulus (GPa) = 18.48063 27.15328 22.81696
#
# Velocity S-wave (km/s) = 3.16043 3.83088 3.51169
# Velocity P-wave (km/s) = 5.24097 6.63308 5.97769
#
# Compressibility (1/GPa) = 0.03819607
#
# Stress axis : x y z
#
# Youngs Moduli (GPa) = 90.81434 28.51964 70.74585
#
# Poissons Ratio (x) = 0.21075 0.06760
# Poissons Ratio (y) = 0.67109 0.18831
# Poissons Ratio (z) = 0.08678 0.07591
#
# Static dielectric constant tensor:
#      x y z
#    x 1.674420 0.009590 0.005720 
#    y 0.009590 1.697630 0.010740 
#    z 0.005720 0.010740 1.656750 
# 
# From -- ./inp_files/599852.got.cif
#   From: 2010.05.17/outbox.cif.g08.bks.cpg/sg2_300_cif.got.tgz:599852.got - 2010.06.03 11:33:40.
