data_PCOD9001126
_publ_section_title
;
Structure prediction by ZEFSAII (Michael W. Deem and Ramdas Pophale) SiO2 
 PCOD9001126
Probable space group: P -1
;
_chemical_formula_sum "Si O2"
_cell_formula_units_Z 14
_cell_length_a 5.275811
_cell_length_b 16.377768
_cell_length_c 9.664751
_cell_angle_alpha 37.901563
_cell_angle_beta 82.663013
_cell_angle_gamma 85.067525
_cell_volume 508.652762
_symmetry_space_group_name_H-M "P -1"
_symmetry_group_IT_number 2
_symmetry_cell_setting 'triclinic'
loop_
_space_group_symop_operation_xyz
x,y,z
-x,-y,-z
loop_
_atom_site_type_symbol
_atom_site_label
_atom_site_fract_x
_atom_site_fract_y
_atom_site_fract_z
Si Si1 0.830694 0.739871 0.664624
Si Si2 0.419733 0.005555 0.654382
Si Si3 0.899165 0.205884 0.136727
Si Si4 0.550072 0.866528 0.084304
Si Si5 0.021736 0.836570 0.239726
Si Si6 0.520215 0.430212 0.897069
Si Si7 0.937730 0.528779 0.307323
O O1 0.015767 0.769315 0.481391
O O2 0.990053 0.793821 0.715817
O O3 0.614181 0.844721 0.499413
O O4 0.671424 0.607534 0.907651
O O5 0.147443 0.928124 0.764614
O O6 0.500000 0.000000 0.500000
O O7 0.593673 0.927419 0.849927
O O8 0.625062 0.281569 0.054637
O O9 0.080260 0.311350 0.908871
O O10 0.768057 0.787584 0.246323
O O11 0.276865 0.792911 0.205228
O O12 0.500000 0.000000 0.000000
O O13 0.000000 0.000000 0.000000
O O14 0.808015 0.498709 0.769832
O O15 0.331282 0.504138 0.705757
O O16 0.000000 0.500000 0.500000
#
# Coordination Sequence:
#
# PCOD9001126 Si02
#       7
#     2   2   2   2   2   2   2
#     4  11  20  34  51  72 115 143 182 216 261 302
#     4  12  21  32  53  75 111 152 173 222 262 307
#     4   9  22  30  47  81 104 134 179 211 265 319
#     4  10  22  37  48  70  95 142 198 214 251 300
#     4  10  21  34  53  66  96 147 189 224 242 300
#     4   9  19  31  47  81  99 134 173 211 257 328
#     4   9  17  34  52  70 106 138 163 214 271 322
#
# _framework density 27.523688
#
# number of rings (size 3 to 8) (size 9 to 14) (size 15 to 20)
#    0.857    1.143    4.286    0.857    6.000    1.143 
#    0.000    0.000    0.000    0.000    0.000    0.000 
#    0.000   16.000    0.000    0.000    0.000    0.000 
#
# Total GULP energy -78010.095664 kJ/mol
# GULP energy per Si atom -5572.149690 kJ/mol
# Density = 2.746104 g / cm^3
# Si number density = 27.523688 Si / 1000 Ang^3
#
#
#
# Elastic Constant Matrix: (Units=GPa)
#
#
# Indices 1 2 3 4 5 6 
#
# 1 190.9615 0.2370 35.0383 7.5215 25.9347 -1.1143
# 2 0.2370 40.1400 33.5107 -1.2833 -0.3363 -0.6913
# 3 35.0383 33.5107 189.7084 16.0778 28.5187 -3.7715
# 4 7.5215 -1.2833 16.0778 46.3009 -0.6340 -7.7939
# 5 25.9347 -0.3363 28.5187 -0.6340 39.1652 7.2687
# 6 -1.1143 -0.6913 -3.7715 -7.7939 7.2687 23.2677
#
#
#
# Elastic Compliance Matrix: (Units=1/GPa)
#
#
# Indices 1 2 3 4 5 6 
#
# 1 0.005869 0.000360 -0.000509 -0.000621 -0.003739 0.001169
# 2 0.000360 0.030409 -0.006437 0.002977 0.004879 -0.000650
# 3 -0.000509 -0.006437 0.007602 -0.002484 -0.005656 0.001951
# 4 -0.000621 0.002977 -0.002484 0.023883 0.001286 0.007254
# 5 -0.003739 0.004879 -0.005656 0.001286 0.034273 -0.011227
# 6 0.001169 -0.000650 0.001951 0.007254 -0.011227 0.049268
#
#
# Mechanical properties :
#
#
# Convention : Reuss Voigt Hill
#
# Bulk Modulus (GPa) = 32.56596 62.04244 47.30420
# Shear Modulus (GPa) = 28.61844 45.21501 36.91672
#
# Velocity S-wave (km/s) = 3.22805 4.05750 3.66631
# Velocity P-wave (km/s) = 5.07459 6.67394 5.92845
#
# Compressibility (1/GPa) = 0.03070691
#
# Stress axis : x y z
#
# Youngs Moduli (GPa) = 170.39258 32.88492 131.54666
#
# Poissons Ratio (x) = -0.01183 0.06702
# Poissons Ratio (y) = -0.06128 0.84671
# Poissons Ratio (z) = 0.08681 0.21167
#
# Static dielectric constant tensor:
#      x y z
#    x 2.351710 0.093070 -0.231980 
#    y 0.093070 2.357820 -0.052860 
#    z -0.231980 -0.052860 2.297000 
# 
# From -- ./inp_files/103265.got.cif
#   From: 2010.05.17/outbox.cif.g08.bks.cpg/sg2_52_cif.got.tgz:103265.got - 2010.06.03 11:33:40.
