data_PCOD9001137
_publ_section_title
;
Structure prediction by ZEFSAII (Michael W. Deem and Ramdas Pophale) SiO2 
 PCOD9001137
Probable space group: P -1
;
_chemical_formula_sum "Si O2"
_cell_formula_units_Z 12
_cell_length_a 7.570782
_cell_length_b 13.360771
_cell_length_c 15.869152
_cell_angle_alpha 162.389790
_cell_angle_beta 76.275703
_cell_angle_gamma 95.698384
_cell_volume 425.571272
_symmetry_space_group_name_H-M "P -1"
_symmetry_group_IT_number 2
_symmetry_cell_setting 'triclinic'
loop_
_space_group_symop_operation_xyz
x,y,z
-x,-y,-z
loop_
_atom_site_type_symbol
_atom_site_label
_atom_site_fract_x
_atom_site_fract_y
_atom_site_fract_z
Si Si1 0.592116 0.067154 0.129353
Si Si2 0.918125 0.113967 0.705198
Si Si3 0.985490 0.174150 0.035053
Si Si4 0.743237 0.975767 0.776466
Si Si5 0.559053 0.068482 0.640327
Si Si6 0.796174 0.616722 0.966032
O O1 0.500000 0.500000 0.500000
O O2 0.491303 0.894035 0.070274
O O3 0.500000 0.000000 0.000000
O O4 0.830604 0.946526 0.015607
O O5 0.791256 0.912312 0.512383
O O6 0.880146 0.454367 0.920435
O O7 0.804919 0.196450 0.874550
O O8 0.143221 0.778716 0.407071
O O9 0.103868 0.199120 0.957892
O O10 0.829833 0.569544 0.402751
O O11 0.861257 0.968865 0.844060
O O12 0.500000 0.000000 0.500000
O O13 0.500000 0.500000 0.000000
O O14 0.419032 0.053257 0.719279
#
# Coordination Sequence:
#
# PCOD9001137 Si02
#       6
#     2   2   2   2   2   2
#     4  12  27  48  74 100 132 175 224 285 351 406
#     4   9  20  39  63  94 135 179 219 264 322 392
#     4  11  25  44  70 103 138 175 223 279 333 402
#     4  11  25  44  69 104 138 174 225 278 332 404
#     4  10  21  34  53  82 120 170 222 264 304 365
#     4   9  20  38  62  93 133 177 217 259 320 388
#
# _framework density 28.197393999999999
#
# number of rings (size 3 to 8) (size 9 to 14) (size 15 to 20)
#    0.000    1.667    0.000    3.000    0.000   17.333 
#    0.000    6.667    0.000    0.000    0.000    0.000 
#    0.000    0.000    0.000    0.000    0.000    0.000 
#
# Total GULP energy -66987.062975 kJ/mol
# GULP energy per Si atom -5582.255248 kJ/mol
# Density = 2.813321 g / cm^3
# Si number density = 28.197394 Si / 1000 Ang^3
#
#
#
# Elastic Constant Matrix: (Units=GPa)
#
#
# Indices 1 2 3 4 5 6 
#
# 1 119.5945 16.9804 34.6339 -34.7258 -7.4490 -26.3482
# 2 16.9804 110.7524 4.9091 -38.3446 9.1290 -11.2933
# 3 34.6339 4.9091 91.8883 -22.9648 14.9924 -13.9155
# 4 -34.7258 -38.3446 -22.9648 50.0648 -13.4763 0.4093
# 5 -7.4490 9.1290 14.9924 -13.4763 55.7640 -14.8408
# 6 -26.3482 -11.2933 -13.9155 0.4093 -14.8408 50.8455
#
#
#
# Elastic Compliance Matrix: (Units=1/GPa)
#
#
# Indices 1 2 3 4 5 6 
#
# 1 0.015547 0.003019 -0.002251 0.014242 0.008411 0.010451
# 2 0.003019 0.013811 0.002168 0.014313 0.002579 0.005863
# 3 -0.002251 0.002168 0.013800 0.005780 -0.002340 0.002362
# 4 0.014242 0.014313 0.005780 0.046983 0.013542 0.015715
# 5 0.008411 0.002579 -0.002340 0.013542 0.025641 0.011666
# 6 0.010451 0.005863 0.002362 0.015715 0.011666 0.030310
#
#
# Mechanical properties :
#
#
# Convention : Reuss Voigt Hill
#
# Bulk Modulus (GPa) = 20.39576 48.36466 34.38021
# Shear Modulus (GPa) = 31.93648 49.04898 40.49273
#
# Velocity S-wave (km/s) = 3.36907 4.17524 3.79363
# Velocity P-wave (km/s) = 4.73108 6.35869 5.60428
#
# Compressibility (1/GPa) = 0.04902979
#
# Stress axis : x y z
#
# Youngs Moduli (GPa) = 64.32308 72.40718 72.46632
#
# Poissons Ratio (x) = -0.21863 0.16314
# Poissons Ratio (y) = -0.19422 -0.15713
# Poissons Ratio (z) = 0.14481 -0.15700
#
# Static dielectric constant tensor:
#      x y z
#    x -0.955240 -1.053460 0.147270 
#    y -1.053460 2.034270 0.062950 
#    z 0.147270 0.062950 2.129750 
# 
# From -- ./inp_files/492775.got.cif
#   From: 2010.05.17/outbox.cif.g08.bks.cpg/sg2_247_cif.got.tgz:492775.got - 2010.06.03 11:33:40.
