data_PCOD9001294
_publ_section_title
;
Structure prediction by ZEFSAII (Michael W. Deem and Ramdas Pophale) SiO2 
 PCOD9001294
Probable space group: P -1
;
_chemical_formula_sum "Si O2"
_cell_formula_units_Z 12
_cell_length_a 9.419088
_cell_length_b 11.790717
_cell_length_c 11.439185
_cell_angle_alpha 76.439372
_cell_angle_beta 64.868619
_cell_angle_gamma 25.917871
_cell_volume 466.477186
_symmetry_space_group_name_H-M "P -1"
_symmetry_group_IT_number 2
_symmetry_cell_setting 'triclinic'
loop_
_space_group_symop_operation_xyz
x,y,z
-x,-y,-z
loop_
_atom_site_type_symbol
_atom_site_label
_atom_site_fract_x
_atom_site_fract_y
_atom_site_fract_z
Si Si1 0.384534 0.934892 0.939189
Si Si2 0.197636 0.439831 0.666111
Si Si3 0.670866 0.785202 0.117597
Si Si4 0.494247 0.554287 0.320736
Si Si5 0.302276 0.730622 0.090303
Si Si6 0.297126 0.858755 0.626686
O O1 0.787677 0.675760 0.794594
O O2 0.192665 0.180481 0.895763
O O3 0.367464 0.984594 0.072090
O O4 0.281950 0.869668 0.001927
O O5 0.452922 0.198977 0.728961
O O6 0.279058 0.519221 0.650930
O O7 0.336919 0.329798 0.512305
O O8 0.000000 0.500000 0.000000
O O9 0.533322 0.576649 0.168944
O O10 0.615940 0.337474 0.339470
O O11 0.042456 0.880904 0.407968
O O12 0.500000 0.500000 0.000000
O O13 0.887139 0.976348 0.225795
#
# Coordination Sequence:
#
# PCOD9001294 Si02
#       6
#     2   2   2   2   2   2
#     4  10  21  34  61  91 124 159 206 254 312 365
#     4  11  21  35  61  94 126 155 197 264 319 369
#     4   9  19  32  55  89 128 150 191 249 318 365
#     4  10  23  38  63  91 127 161 203 250 315 372
#     4  10  24  43  62  87 125 172 214 250 298 371
#     4  10  24  39  63  91 127 163 204 251 319 366
#
# _framework density 25.724730000000001
#
# number of rings (size 3 to 8) (size 9 to 14) (size 15 to 20)
#    1.000    1.000    1.667    1.000   11.667    0.667 
#    0.000    0.833    0.000    2.000    0.000    0.000 
#    0.000    0.000    0.000    0.000    0.000    0.000 
#
# Total GULP energy -66920.245430 kJ/mol
# GULP energy per Si atom -5576.687119 kJ/mol
# Density = 2.566618 g / cm^3
# Si number density = 25.724730 Si / 1000 Ang^3
#
#
#
# Elastic Constant Matrix: (Units=GPa)
#
#
# Indices 1 2 3 4 5 6 
#
# 1 78.9373 25.6051 39.5629 6.1712 -2.3030 18.1887
# 2 25.6051 139.9276 40.5581 5.1822 -1.0548 34.3730
# 3 39.5629 40.5581 234.4772 -0.2015 -8.4046 21.9393
# 4 6.1712 5.1822 -0.2015 24.1285 2.8155 -6.7047
# 5 -2.3030 -1.0548 -8.4046 2.8155 26.3758 5.4854
# 6 18.1887 34.3730 21.9393 -6.7047 5.4854 45.5435
#
#
#
# Elastic Compliance Matrix: (Units=1/GPa)
#
#
# Indices 1 2 3 4 5 6 
#
# 1 0.015763 -0.000589 -0.001894 -0.005935 0.002658 -0.006132
# 2 -0.000589 0.009468 -0.000775 -0.004187 0.002067 -0.007402
# 3 -0.001894 -0.000775 0.004886 0.000180 0.001586 -0.001177
# 4 -0.005935 -0.004187 0.000180 0.048668 -0.008663 0.013652
# 5 0.002658 0.002067 0.001586 -0.008663 0.041671 -0.009680
# 6 -0.006132 -0.007402 -0.001177 0.013652 -0.009680 0.033735
#
#
# Mechanical properties :
#
#
# Convention : Reuss Voigt Hill
#
# Bulk Modulus (GPa) = 42.37273 73.86601 58.11937
# Shear Modulus (GPa) = 29.66043 42.38397 36.02220
#
# Velocity S-wave (km/s) = 3.39926 4.06346 3.74611
# Velocity P-wave (km/s) = 5.64924 7.12685 6.43063
#
# Compressibility (1/GPa) = 0.02360008
#
# Stress axis : x y z
#
# Youngs Moduli (GPa) = 63.43924 105.61743 204.68626
#
# Poissons Ratio (x) = 0.06225 0.38763
# Poissons Ratio (y) = 0.03739 0.15867
# Poissons Ratio (z) = 0.12014 0.08187
#
# Static dielectric constant tensor:
#      x y z
#    x 2.216570 -0.155130 -0.062960 
#    y -0.155130 2.173100 0.046900 
#    z -0.062960 0.046900 2.055380 
# 
# From -- ./inp_files/434540.got.cif
#   From: 2010.05.17/outbox.cif.g08.bks.cpg/sg2_218_cif.got.tgz:434540.got - 2010.06.03 11:33:40.
