data_PCOD9001623
_publ_section_title
;
Structure prediction by ZEFSAII (Michael W. Deem and Ramdas Pophale) SiO2 
 PCOD9001623
Probable space group: P -1
;
_chemical_formula_sum "Si O2"
_cell_formula_units_Z 14
_cell_length_a 13.094764
_cell_length_b 9.108985
_cell_length_c 22.961404
_cell_angle_alpha 143.707391
_cell_angle_beta 151.985570
_cell_angle_gamma 55.671551
_cell_volume 645.220384
_symmetry_space_group_name_H-M "P -1"
_symmetry_group_IT_number 2
_symmetry_cell_setting 'triclinic'
loop_
_space_group_symop_operation_xyz
x,y,z
-x,-y,-z
loop_
_atom_site_type_symbol
_atom_site_label
_atom_site_fract_x
_atom_site_fract_y
_atom_site_fract_z
Si Si1 0.978520 0.964686 0.408370
Si Si2 0.436661 0.928893 0.769396
Si Si3 0.219676 0.428613 0.093230
Si Si4 0.773476 0.043824 0.134622
Si Si5 0.237870 0.350847 0.557620
Si Si6 0.870135 0.460759 0.619119
Si Si7 0.975326 0.080369 0.077599
O O1 0.062477 0.734353 0.369225
O O2 0.694194 0.887214 0.226460
O O3 0.000000 0.000000 0.500000
O O4 0.151014 0.257489 0.550692
O O5 0.346580 0.682588 0.696009
O O6 0.334566 0.750141 0.599851
O O7 0.737299 0.125115 0.976219
O O8 0.515582 0.680637 0.336074
O O9 0.119842 0.209144 0.026449
O O10 0.242980 0.244672 0.992738
O O11 0.000000 0.500000 0.000000
O O12 0.901666 0.296048 0.229980
O O13 0.984967 0.156598 0.328878
O O14 0.500000 0.000000 0.000000
O O15 0.803333 0.646231 0.687887
O O16 0.000000 0.000000 0.000000
#
# Coordination Sequence:
#
# PCOD9001623 Si02
#       7
#     2   2   2   2   2   2   2
#     4  10  21  35  59  94 124 157 197 255 316 364
#     4   9  20  38  60  85 119 163 199 247 309 366
#     4  10  24  42  63  91 123 163 214 256 301 374
#     4  10  23  40  66  93 120 167 210 252 315 371
#     4  10  22  39  64  88 127 166 201 256 310 368
#     4   9  21  39  55  90 122 151 200 255 300 366
#     4  10  22  40  60  84 117 164 204 247 308 364
#
# _framework density 21.698013
#
# number of rings (size 3 to 8) (size 9 to 14) (size 15 to 20)
#    0.000    2.286    0.000    0.429   12.000    5.143 
#    0.000    2.857    0.000    0.000    0.000    0.000 
#    0.000    0.000    0.000    0.000    0.000    0.000 
#
# Total GULP energy -78003.425757 kJ/mol
# GULP energy per Si atom -5571.673268 kJ/mol
# Density = 2.164863 g / cm^3
# Si number density = 21.698013 Si / 1000 Ang^3
#
#
#
# Elastic Constant Matrix: (Units=GPa)
#
#
# Indices 1 2 3 4 5 6 
#
# 1 115.6121 44.9683 43.0439 -9.3070 -14.0517 5.8125
# 2 44.9683 76.6660 30.1310 -26.4956 14.2835 7.2780
# 3 43.0439 30.1310 99.1324 -18.7247 0.4818 -9.2406
# 4 -9.3070 -26.4956 -18.7247 33.1493 -11.1394 9.0350
# 5 -14.0517 14.2835 0.4818 -11.1394 26.9833 -12.2660
# 6 5.8125 7.2780 -9.2406 9.0350 -12.2660 23.6171
#
#
#
# Elastic Compliance Matrix: (Units=1/GPa)
#
#
# Indices 1 2 3 4 5 6 
#
# 1 0.017582 -0.016814 -0.002574 -0.006377 0.021612 0.013511
# 2 -0.016814 0.046974 -0.005794 0.027543 -0.042763 -0.045351
# 3 -0.002574 -0.005794 0.014385 0.002257 0.007419 0.011037
# 4 -0.006377 0.027543 0.002257 0.057545 -0.009079 -0.032765
# 5 0.021612 -0.042763 0.007419 -0.009079 0.096270 0.064235
# 6 0.013511 -0.045351 0.011037 -0.032765 0.064235 0.103207
#
#
# Mechanical properties :
#
#
# Convention : Reuss Voigt Hill
#
# Bulk Modulus (GPa) = 34.99245 58.63298 46.81272
# Shear Modulus (GPa) = 12.63098 28.30108 20.46603
#
# Velocity S-wave (km/s) = 2.41535 3.61545 3.07452
# Velocity P-wave (km/s) = 4.89291 6.67155 5.85022
#
# Compressibility (1/GPa) = 0.02857759
#
# Stress axis : x y z
#
# Youngs Moduli (GPa) = 56.87692 21.28837 69.51618
#
# Poissons Ratio (x) = 0.35794 0.17891
# Poissons Ratio (y) = 0.95633 0.40278
# Poissons Ratio (z) = 0.14638 0.12335
#
# Static dielectric constant tensor:
#      x y z
#    x 1.834600 -0.051020 -0.018340 
#    y -0.051020 1.842680 -0.048410 
#    z -0.018340 -0.048410 1.909930 
# 
# From -- ./inp_files/402216.got.cif
#   From: 2010.05.17/outbox.cif.g08.bks.cpg/sg2_202_cif.got.tgz:402216.got - 2010.06.03 11:33:40.
