data_PCOD9001871
_publ_section_title
;
Structure prediction by ZEFSAII (Michael W. Deem and Ramdas Pophale) SiO2 
 PCOD9001871
Probable space group: P -1
;
_chemical_formula_sum "Si O2"
_cell_formula_units_Z 16
_cell_length_a 30.128908
_cell_length_b 12.514184
_cell_length_c 28.983316
_cell_angle_alpha 151.646421
_cell_angle_beta 170.583885
_cell_angle_gamma 28.510936
_cell_volume 841.197920
_symmetry_space_group_name_H-M "P -1"
_symmetry_group_IT_number 2
_symmetry_cell_setting 'triclinic'
loop_
_space_group_symop_operation_xyz
x,y,z
-x,-y,-z
loop_
_atom_site_type_symbol
_atom_site_label
_atom_site_fract_x
_atom_site_fract_y
_atom_site_fract_z
Si Si1 0.226588 0.155488 0.107605
Si Si2 0.252591 0.366812 0.645562
Si Si3 0.167267 0.803244 0.782985
Si Si4 0.256960 0.311663 0.056044
Si Si5 0.792647 0.865487 0.581573
Si Si6 0.346910 0.705278 0.236363
Si Si7 0.766766 0.864124 0.659964
Si Si8 0.185503 0.605002 0.295882
O O1 0.029923 0.217725 0.885830
O O2 0.245710 0.384768 0.242114
O O3 0.063860 0.987851 0.906358
O O4 0.529820 0.042190 0.363829
O O5 0.171368 0.624229 0.677381
O O6 0.178119 0.323183 0.499943
O O7 0.095689 0.216030 0.462351
O O8 0.572950 0.292094 0.955117
O O9 0.195037 0.054852 0.890058
O O10 0.313327 0.454650 0.123259
O O11 0.531070 0.313157 0.368230
O O12 0.990892 0.444545 0.859201
O O13 0.730394 0.803432 0.546487
O O14 0.607929 0.723164 0.479344
O O15 0.346218 0.872083 0.343704
O O16 0.085305 0.815011 0.980543
#
# Coordination Sequence:
#
# PCOD9001871 Si02
#       8
#     2   2   2   2   2   2   2   2
#     4  11  22  33  49  79 114 143 173 211 263 331
#     4  10  21  37  57  82 110 140 178 222 268 323
#     4  10  21  37  57  82 110 140 178 222 268 323
#     4  12  21  35  57  77 106 146 184 220 269 319
#     4  12  21  35  57  77 106 146 184 220 269 319
#     4  10  21  36  53  75 104 140 184 228 267 312
#     4  10  21  36  53  75 104 140 184 228 267 312
#     4  11  22  33  49  79 114 143 173 211 263 331
#
# _framework density 19.020493999999999
#
# number of rings (size 3 to 8) (size 9 to 14) (size 15 to 20)
#    0.000    1.250    0.000    8.250    0.000    4.000 
#    0.000    0.000    0.000    1.500    0.000    0.000 
#    0.000    0.000    0.000    0.000    0.000    0.000 
#
# Total GULP energy -89460.644053 kJ/mol
# GULP energy per Si atom -5591.290253 kJ/mol
# Density = 1.897720 g / cm^3
# Si number density = 19.020494 Si / 1000 Ang^3
#
#
#
# Elastic Constant Matrix: (Units=GPa)
#
#
# Indices 1 2 3 4 5 6 
#
# 1 83.0357 27.7206 -3.5766 11.5377 -4.6628 -7.2401
# 2 27.7206 52.7287 -0.7261 26.0810 -13.0004 -6.6296
# 3 -3.5766 -0.7261 76.3601 2.0232 6.6512 -1.3505
# 4 11.5377 26.0810 2.0232 30.9164 2.2254 3.5463
# 5 -4.6628 -13.0004 6.6512 2.2254 25.7064 4.6672
# 6 -7.2401 -6.6296 -1.3505 3.5463 4.6672 22.8938
#
#
#
# Elastic Compliance Matrix: (Units=1/GPa)
#
#
# Indices 1 2 3 4 5 6 
#
# 1 0.014931 -0.009321 0.000841 0.002174 -0.002831 0.002313
# 2 -0.009321 0.056400 -0.000850 -0.047807 0.028479 0.014934
# 3 0.000841 -0.000850 0.013520 -0.000385 -0.004052 0.001703
# 4 0.002174 -0.047807 -0.000385 0.076051 -0.026725 -0.019511
# 5 -0.002831 0.028479 -0.004052 -0.026725 0.056189 -0.000202
# 6 0.002313 0.014934 0.001703 -0.019511 -0.000202 0.051900
#
#
# Mechanical properties :
#
#
# Convention : Reuss Voigt Hill
#
# Bulk Modulus (GPa) = 15.10788 28.77337 21.94063
# Shear Modulus (GPa) = 16.14385 28.48375 22.31380
#
# Velocity S-wave (km/s) = 2.91651 3.87399 3.42884
# Velocity P-wave (km/s) = 4.39336 5.93050 5.21883
#
# Compressibility (1/GPa) = 0.06619061
#
# Stress axis : x y z
#
# Youngs Moduli (GPa) = 66.97256 17.73062 73.96257
#
# Poissons Ratio (x) = 0.16527 -0.06218
# Poissons Ratio (y) = 0.62425 0.06288
# Poissons Ratio (z) = -0.05630 0.01507
#
# Static dielectric constant tensor:
#      x y z
#    x 1.690040 0.011010 0.010010 
#    y 0.011010 1.674900 0.009980 
#    z 0.010010 0.009980 1.662680 
# 
# From -- ./inp_files/367055.got.cif
#   From: 2010.05.17/outbox.cif.g08.bks.cpg/sg2_184_cif.got.tgz:367055.got - 2010.06.03 11:33:40.
