data_PCOD9001567
_publ_section_title
;
Structure prediction by ZEFSAII (Michael W. Deem and Ramdas Pophale) SiO2 
 PCOD9001567
Probable space group: P -1
;
_chemical_formula_sum "Si O2"
_cell_formula_units_Z 16
_cell_length_a 18.029695
_cell_length_b 12.386006
_cell_length_c 6.997469
_cell_angle_alpha 70.928629
_cell_angle_beta 114.132329
_cell_angle_gamma 149.756132
_cell_volume 717.098118
_symmetry_space_group_name_H-M "P -1"
_symmetry_group_IT_number 2
_symmetry_cell_setting 'triclinic'
loop_
_space_group_symop_operation_xyz
x,y,z
-x,-y,-z
loop_
_atom_site_type_symbol
_atom_site_label
_atom_site_fract_x
_atom_site_fract_y
_atom_site_fract_z
Si Si1 0.319568 0.771942 0.479799
Si Si2 0.904841 0.629654 0.996712
Si Si3 0.353370 0.253743 0.930147
Si Si4 0.765262 0.032387 0.348240
Si Si5 0.908513 0.681684 0.424961
Si Si6 0.962113 0.991865 0.182819
Si Si7 0.766119 0.084346 0.767098
Si Si8 0.324004 0.823049 0.899687
O O1 0.240180 0.553766 0.500291
O O2 0.286750 0.758805 0.675401
O O3 0.500000 0.000000 0.500000
O O4 0.247698 0.797313 0.289648
O O5 0.888136 0.644704 0.194024
O O6 0.771058 0.381491 0.960860
O O7 0.065828 0.755694 0.086142
O O8 0.920401 0.762306 0.809522
O O9 0.351543 0.133351 0.115127
O O10 0.500000 0.500000 0.000000
O O11 0.327685 0.180983 0.727029
O O12 0.204630 0.149244 0.895629
O O13 0.740755 0.019798 0.555604
O O14 0.719091 0.096427 0.162740
O O15 0.944933 0.217586 0.412879
O O16 0.956057 0.871362 0.375155
O O17 0.000000 0.000000 0.000000
O O18 0.500000 0.000000 0.000000
#
# Coordination Sequence:
#
# PCOD9001567 Si02
#       8
#     2   2   2   2   2   2   2   2
#     4  10  21  35  58  89 124 163 197 256 317 358
#     4   8  16  36  62  86 116 164 201 249 308 366
#     4  11  25  40  65  93 125 166 211 265 319 377
#     4  10  22  41  63  89 121 163 211 258 317 373
#     4   9  18  36  62  84 122 160 207 254 298 374
#     4   9  19  38  63  91 119 165 213 253 314 368
#     4   9  20  41  61  87 125 160 209 254 312 375
#     4  10  21  37  60  91 125 159 203 259 319 373
#
# _framework density 22.312149999999999
#
# number of rings (size 3 to 8) (size 9 to 14) (size 15 to 20)
#    0.000    2.500    0.000    1.500    3.500    6.000 
#    4.500    5.625    0.000    0.000    0.000    0.000 
#    0.000    0.000    0.000    0.000    0.000    0.000 
#
# Total GULP energy -89299.781809 kJ/mol
# GULP energy per Si atom -5581.236363 kJ/mol
# Density = 2.226137 g / cm^3
# Si number density = 22.312150 Si / 1000 Ang^3
#
#
#
# Elastic Constant Matrix: (Units=GPa)
#
#
# Indices 1 2 3 4 5 6 
#
# 1 99.3533 63.5206 35.1688 -6.8621 4.8565 -27.0978
# 2 63.5206 217.4524 52.2787 -15.4948 17.5206 -22.1889
# 3 35.1688 52.2787 89.6651 -24.5430 4.5036 -12.1929
# 4 -6.8621 -15.4948 -24.5430 39.2341 -12.6403 -1.4978
# 5 4.8565 17.5206 4.5036 -12.6403 45.4282 -3.0749
# 6 -27.0978 -22.1889 -12.1929 -1.4978 -3.0749 26.3301
#
#
#
# Elastic Compliance Matrix: (Units=1/GPa)
#
#
# Indices 1 2 3 4 5 6 
#
# 1 0.016550 -0.002771 -0.002872 0.000746 0.000705 0.013492
# 2 -0.002771 0.006219 -0.002298 -0.000004 -0.001800 0.001115
# 3 -0.002872 -0.002298 0.016745 0.010038 0.002579 0.003734
# 4 0.000746 -0.000004 0.010038 0.035218 0.009301 0.008503
# 5 0.000705 -0.001800 0.002579 0.009301 0.025227 0.003878
# 6 0.013492 0.001115 0.003734 0.008503 0.003878 0.055470
#
#
# Mechanical properties :
#
#
# Convention : Reuss Voigt Hill
#
# Bulk Modulus (GPa) = 42.31641 78.71188 60.51414
# Shear Modulus (GPa) = 27.90343 39.23200 33.56771
#
# Velocity S-wave (km/s) = 3.54021 4.19779 3.88294
# Velocity P-wave (km/s) = 5.97642 7.67134 6.87630
#
# Compressibility (1/GPa) = 0.02363149
#
# Stress axis : x y z
#
# Youngs Moduli (GPa) = 60.42139 160.79321 59.71905
#
# Poissons Ratio (x) = 0.44554 0.17154
# Poissons Ratio (y) = 0.16742 0.13725
# Poissons Ratio (z) = 0.17356 0.36954
#
# Static dielectric constant tensor:
#      x y z
#    x 1.839320 -0.032220 -0.055140 
#    y -0.032220 1.809430 -0.027380 
#    z -0.055140 -0.027380 1.855110 
# 
# From -- ./inp_files/331856.got.cif
#   From: 2010.05.17/outbox.cif.g08.bks.cpg/sg2_166_cif.got.tgz:331856.got - 2010.06.03 11:33:40.
