data_PCOD9001273
_publ_section_title
;
Structure prediction by ZEFSAII (Michael W. Deem and Ramdas Pophale) SiO2 
 PCOD9001273
Probable space group: P -1
;
_chemical_formula_sum "Si O2"
_cell_formula_units_Z 16
_cell_length_a 11.522899
_cell_length_b 9.284918
_cell_length_c 15.713157
_cell_angle_alpha 48.867949
_cell_angle_beta 52.218378
_cell_angle_gamma 90.358664
_cell_volume 726.738714
_symmetry_space_group_name_H-M "P -1"
_symmetry_group_IT_number 2
_symmetry_cell_setting 'triclinic'
loop_
_space_group_symop_operation_xyz
x,y,z
-x,-y,-z
loop_
_atom_site_type_symbol
_atom_site_label
_atom_site_fract_x
_atom_site_fract_y
_atom_site_fract_z
Si Si1 0.258438 0.541497 0.289345
Si Si2 0.184093 0.805122 0.779466
Si Si3 0.955905 0.982337 0.338674
Si Si4 0.976718 0.320835 0.342028
Si Si5 0.705984 0.008600 0.868882
Si Si6 0.712943 0.654620 0.301514
Si Si7 0.612232 0.159993 0.497233
Si Si8 0.121365 0.857133 0.074378
O O1 0.079442 0.373138 0.365673
O O2 0.248572 0.728820 0.275596
O O3 0.233087 0.326568 0.438062
O O4 0.472162 0.746727 0.065086
O O5 0.089691 0.928509 0.757936
O O6 0.301126 0.870914 0.612116
O O7 0.372885 0.945776 0.702914
O O8 0.000000 0.500000 0.000000
O O9 0.994303 0.160940 0.331145
O O10 0.145336 0.011834 0.230253
O O11 0.742445 0.178774 0.506355
O O12 0.086995 0.614610 0.146422
O O13 0.749682 0.042342 0.937518
O O14 0.500000 0.500000 0.500000
O O15 0.674191 0.435091 0.345248
O O16 0.783270 0.906612 0.124290
O O17 0.898916 0.743046 0.240027
#
# Coordination Sequence:
#
# PCOD9001273 Si02
#       8
#     2   2   2   2   2   2   2   2
#     4  10  22  43  62  88 126 160 204 260 316 355
#     4  10  23  38  59  90 128 161 198 251 311 369
#     4  11  23  37  65  93 117 163 213 250 306 375
#     4   9  20  43  61  85 126 167 200 257 308 363
#     4  10  23  39  64  92 120 160 201 266 309 360
#     4  10  21  34  60  86 115 166 204 243 299 364
#     4   9  21  39  58  87 123 161 202 252 303 364
#     4   9  21  39  57  85 127 154 204 251 301 363
#
# _framework density 22.016165999999998
#
# number of rings (size 3 to 8) (size 9 to 14) (size 15 to 20)
#    0.000    2.250    0.000    0.750    5.250    5.500 
#    0.000   11.250    0.000    0.000    0.000    0.000 
#    0.000    0.000    0.000    0.000    0.000    0.000 
#
# Total GULP energy -89291.437628 kJ/mol
# GULP energy per Si atom -5580.714852 kJ/mol
# Density = 2.196606 g / cm^3
# Si number density = 22.016166 Si / 1000 Ang^3
#
#
#
# Elastic Constant Matrix: (Units=GPa)
#
#
# Indices 1 2 3 4 5 6 
#
# 1 77.3838 23.9602 49.3369 -10.2281 -23.2536 -3.7375
# 2 23.9602 115.1228 39.7269 -19.9675 2.0205 -34.7465
# 3 49.3369 39.7269 110.1113 -16.1472 -18.9345 -19.0125
# 4 -10.2281 -19.9675 -16.1472 28.7361 -8.9256 2.9367
# 5 -23.2536 2.0205 -18.9345 -8.9256 31.1314 -6.6656
# 6 -3.7375 -34.7465 -19.0125 2.9367 -6.6656 23.8593
#
#
#
# Elastic Compliance Matrix: (Units=1/GPa)
#
#
# Indices 1 2 3 4 5 6 
#
# 1 0.023224 -0.001307 -0.005432 0.009505 0.017069 0.001005
# 2 -0.001307 0.020411 0.003186 0.015596 0.011234 0.033277
# 3 -0.005432 0.003186 0.018697 0.013427 0.015534 0.021375
# 4 0.009505 0.015596 0.013427 0.065452 0.041234 0.038365
# 5 0.017069 0.011234 0.015534 0.041234 0.075572 0.047450
# 6 0.001005 0.033277 0.021375 0.038365 0.047450 0.116099
#
#
# Mechanical properties :
#
#
# Convention : Reuss Voigt Hill
#
# Bulk Modulus (GPa) = 18.10707 58.74064 38.42385
# Shear Modulus (GPa) = 14.49407 29.38494 21.93951
#
# Velocity S-wave (km/s) = 2.56859 3.65732 3.16019
# Velocity P-wave (km/s) = 4.12786 6.67632 5.55033
#
# Compressibility (1/GPa) = 0.05522705
#
# Stress axis : x y z
#
# Youngs Moduli (GPa) = 43.05800 48.99434 53.48434
#
# Poissons Ratio (x) = 0.06403 0.29053
# Poissons Ratio (y) = 0.05627 -0.17042
# Poissons Ratio (z) = 0.23389 -0.15611
#
# Static dielectric constant tensor:
#      x y z
#    x 1.883470 0.025070 -0.016320 
#    y 0.025070 1.844500 -0.023890 
#    z -0.016320 -0.023890 1.792450 
# 
# From -- ./inp_files/566436.got.cif
#   From: 2010.05.17/outbox.cif.g08.bks.cpg/sg2_284_cif.got.tgz:566436.got - 2010.06.03 11:33:40.
