data_PCOD9001160
_publ_section_title
;
Structure prediction by ZEFSAII (Michael W. Deem and Ramdas Pophale) SiO2 
 PCOD9001160
Probable space group: P -1
;
_chemical_formula_sum "Si O2"
_cell_formula_units_Z 16
_cell_length_a 15.194618
_cell_length_b 5.190367
_cell_length_c 10.928806
_cell_angle_alpha 98.411157
_cell_angle_beta 77.381876
_cell_angle_gamma 110.748866
_cell_volume 784.295005
_symmetry_space_group_name_H-M "P -1"
_symmetry_group_IT_number 2
_symmetry_cell_setting 'triclinic'
loop_
_space_group_symop_operation_xyz
x,y,z
-x,-y,-z
loop_
_atom_site_type_symbol
_atom_site_label
_atom_site_fract_x
_atom_site_fract_y
_atom_site_fract_z
Si Si1 0.039798 0.219043 0.360115
Si Si2 0.149729 0.791835 0.280766
Si Si3 0.889574 0.908991 0.067219
Si Si4 0.853679 0.322607 0.462856
Si Si5 0.614766 0.065761 0.117682
Si Si6 0.263743 0.192389 0.082585
Si Si7 0.801889 0.376629 0.215039
Si Si8 0.433625 0.660298 0.091493
O O1 0.078453 0.970111 0.311612
O O2 0.081620 0.373643 0.486295
O O3 0.928147 0.167738 0.392621
O O4 0.087317 0.470937 0.269188
O O5 0.224102 0.925548 0.161860
O O6 0.195508 0.815766 0.405051
O O7 0.860988 0.678389 0.165939
O O8 0.856059 0.168928 0.133080
O O9 0.824158 0.770276 0.960586
O O10 0.000000 0.000000 0.000000
O O11 0.799327 0.352197 0.360662
O O12 0.692191 0.283418 0.193143
O O13 0.506099 0.884917 0.174469
O O14 0.598746 0.197049 0.003412
O O15 0.671198 0.859603 0.048850
O O16 0.334917 0.443818 0.155687
O O17 0.500000 0.500000 0.000000
#
# Coordination Sequence:
#
# PCOD9001160 Si02
#       8
#     2   2   2   2   2   2   2   2
#     4   9  21  34  52  77 103 148 200 224 264 305
#     4  10  21  34  55  79 107 144 187 238 264 312
#     4  11  25  36  52  82 117 155 179 221 280 331
#     4   9  22  35  56  76 107 148 199 223 272 309
#     4   9  19  36  54  85 108 142 183 228 287 332
#     4  10  21  34  56  81 117 141 187 226 284 326
#     4  11  23  37  58  78 117 148 188 225 274 340
#     4   9  17  34  58  79 108 140 182 231 276 339
#
# _framework density 20.400486000000001
#
# number of rings (size 3 to 8) (size 9 to 14) (size 15 to 20)
#    0.750    1.500    1.250    0.750    7.000    0.000 
#    0.000    0.000    0.000    0.750    0.000    8.750 
#    0.000    0.000    0.000    0.000    0.000    0.000 
#
# Total GULP energy -89132.556023 kJ/mol
# GULP energy per Si atom -5570.784751 kJ/mol
# Density = 2.035405 g / cm^3
# Si number density = 20.400486 Si / 1000 Ang^3
#
#
#
# Elastic Constant Matrix: (Units=GPa)
#
#
# Indices 1 2 3 4 5 6 
#
# 1 95.8541 13.9627 11.5386 5.4695 19.2501 10.8728
# 2 13.9627 57.2505 -0.4456 -12.3105 0.5460 -12.4606
# 3 11.5386 -0.4456 50.0310 -8.4680 13.7463 4.8284
# 4 5.4695 -12.3105 -8.4680 29.3438 -1.0617 -3.2214
# 5 19.2501 0.5460 13.7463 -1.0617 22.8137 1.3398
# 6 10.8728 -12.4606 4.8284 -3.2214 1.3398 39.4161
#
#
#
# Elastic Compliance Matrix: (Units=1/GPa)
#
#
# Indices 1 2 3 4 5 6 
#
# 1 0.014932 -0.006334 -0.000771 -0.006773 -0.011936 -0.006175
# 2 -0.006334 0.023976 0.001911 0.013024 0.003636 0.010034
# 3 -0.000771 0.001911 0.025540 0.007665 -0.014357 -0.001197
# 4 -0.006773 0.013024 0.007665 0.044042 0.002331 0.008567
# 5 -0.011936 0.003636 -0.014357 0.002331 0.062326 0.004272
# 6 -0.006175 0.010034 -0.001197 0.008567 0.004272 0.030947
#
#
# Mechanical properties :
#
#
# Convention : Reuss Voigt Hill
#
# Bulk Modulus (GPa) = 18.49768 28.13855 23.31811
# Shear Modulus (GPa) = 21.72296 30.18674 25.95485
#
# Velocity S-wave (km/s) = 3.26671 3.85087 3.57075
# Velocity P-wave (km/s) = 4.82861 5.79614 5.33436
#
# Compressibility (1/GPa) = 0.05406083
#
# Stress axis : x y z
#
# Youngs Moduli (GPa) = 66.97077 41.70754 39.15416
#
# Poissons Ratio (x) = 0.26418 0.03019
# Poissons Ratio (y) = 0.42420 -0.07484
# Poissons Ratio (z) = 0.05164 -0.07972
#
# Static dielectric constant tensor:
#      x y z
#    x 1.779650 0.020950 -0.007120 
#    y 0.020950 1.840330 0.015900 
#    z -0.007120 0.015900 1.759620 
# 
# From -- ./inp_files/441106.got.cif
#   From: 2010.05.17/outbox.cif.g08.bks.cpg/sg2_221_cif.got.tgz:441106.got - 2010.06.03 11:33:40.
