data_PCOD9001763
_publ_section_title
;
Structure prediction by ZEFSAII (Michael W. Deem and Ramdas Pophale) SiO2 
 PCOD9001763
Probable space group: P -1
;
_chemical_formula_sum "Si O2"
_cell_formula_units_Z 16
_cell_length_a 29.622235
_cell_length_b 15.537075
_cell_length_c 11.710484
_cell_angle_alpha 153.233504
_cell_angle_beta 28.375049
_cell_angle_gamma 161.421545
_cell_volume 751.917065
_symmetry_space_group_name_H-M "P -1"
_symmetry_group_IT_number 2
_symmetry_cell_setting 'triclinic'
loop_
_space_group_symop_operation_xyz
x,y,z
-x,-y,-z
loop_
_atom_site_type_symbol
_atom_site_label
_atom_site_fract_x
_atom_site_fract_y
_atom_site_fract_z
Si Si1 0.174888 0.521735 0.119692
Si Si2 0.769071 0.063778 0.273958
Si Si3 0.622229 0.210702 0.802762
Si Si4 0.700593 0.377391 0.258556
Si Si5 0.672238 0.721916 0.864623
Si Si6 0.263261 0.987879 0.163030
Si Si7 0.944491 0.312937 0.541368
Si Si8 0.556422 0.534325 0.288017
O O1 0.310102 0.695970 0.110070
O O2 0.167076 0.727523 0.331042
O O3 0.029271 0.291165 0.248015
O O4 0.190777 0.423569 0.853818
O O5 0.662979 0.840530 0.348684
O O6 0.712708 0.187325 0.506230
O O7 0.749472 0.882960 0.003018
O O8 0.931160 0.348744 0.293750
O O9 0.454379 0.898987 0.786342
O O10 0.634613 0.447893 0.017650
O O11 0.689928 0.537277 0.556549
O O12 0.740578 0.244728 0.079467
O O13 0.738995 0.962209 0.904344
O O14 0.500000 0.500000 0.000000
O O15 0.137561 0.886126 0.401158
O O16 0.414930 0.296879 0.242110
O O17 0.500000 0.500000 0.500000
#
# Coordination Sequence:
#
# PCOD9001763 Si02
#       8
#     2   2   2   2   2   2   2   2
#     4   9  19  36  61  88 125 165 200 246 312 381
#     4  11  24  43  63  91 127 170 207 260 309 365
#     4  10  21  35  62  92 127 165 201 252 321 368
#     4  10  21  37  62  96 124 163 205 261 312 364
#     4  12  23  41  64  92 124 164 216 261 301 368
#     4  10  23  42  61  93 126 166 206 255 314 370
#     4   9  21  41  64  89 127 172 202 250 324 372
#     4  11  25  36  63 100 128 156 208 267 311 370
#
# _framework density 21.278941
#
# number of rings (size 3 to 8) (size 9 to 14) (size 15 to 20)
#    0.000    1.750    2.500    0.375   15.750    2.000 
#    0.000    8.750    0.000    0.000    0.000    0.000 
#    0.000    0.000    0.000    0.000    0.000    0.000 
#
# Total GULP energy -89348.437586 kJ/mol
# GULP energy per Si atom -5584.277349 kJ/mol
# Density = 2.123051 g / cm^3
# Si number density = 21.278941 Si / 1000 Ang^3
#
#
#
# Elastic Constant Matrix: (Units=GPa)
#
#
# Indices 1 2 3 4 5 6 
#
# 1 59.2575 29.9273 0.3466 0.0216 7.6334 -13.6019
# 2 29.9273 80.8706 17.1576 -5.2839 1.2316 -19.3253
# 3 0.3466 17.1576 77.6691 1.7638 3.4391 -16.8193
# 4 0.0216 -5.2839 1.7638 25.7897 -4.7705 9.4606
# 5 7.6334 1.2316 3.4391 -4.7705 29.1443 -4.6917
# 6 -13.6019 -19.3253 -16.8193 9.4606 -4.6917 26.7641
#
#
#
# Elastic Compliance Matrix: (Units=1/GPa)
#
#
# Indices 1 2 3 4 5 6 
#
# 1 0.023898 -0.007532 0.004321 -0.006916 -0.005837 0.010843
# 2 -0.007532 0.017446 -0.002437 0.001664 0.002949 0.007167
# 3 0.004321 -0.002437 0.016394 -0.006670 -0.002003 0.012746
# 4 -0.006916 0.001664 -0.006670 0.049177 0.006928 -0.022674
# 5 -0.005837 0.002949 -0.002003 0.006928 0.037411 0.002013
# 6 0.010843 0.007167 0.012746 -0.022674 0.002013 0.064427
#
#
# Mechanical properties :
#
#
# Convention : Reuss Voigt Hill
#
# Bulk Modulus (GPa) = 21.53212 34.74003 28.13608
# Shear Modulus (GPa) = 21.22873 27.69732 24.46302
#
# Velocity S-wave (km/s) = 3.16197 3.61173 3.39431
# Velocity P-wave (km/s) = 4.84476 5.80984 5.34911
#
# Compressibility (1/GPa) = 0.04644224
#
# Stress axis : x y z
#
# Youngs Moduli (GPa) = 41.84503 57.31890 60.99622
#
# Poissons Ratio (x) = 0.43174 -0.26356
# Poissons Ratio (y) = 0.31519 0.14863
# Poissons Ratio (z) = -0.18081 0.13967
#
# Static dielectric constant tensor:
#      x y z
#    x 1.782090 -0.008110 -0.004690 
#    y -0.008110 1.779640 -0.018330 
#    z -0.004690 -0.018330 1.800590 
# 
# From -- ./inp_files/477689.got.cif
#   From: 2010.05.17/outbox.cif.g08.bks.cpg/sg2_239_cif.got.tgz:477689.got - 2010.06.03 11:33:40.
