data_PCOD9001130
_publ_section_title
;
Structure prediction by ZEFSAII (Michael W. Deem and Ramdas Pophale) SiO2 
 PCOD9001130
Probable space group: P -1
;
_chemical_formula_sum "Si O2"
_cell_formula_units_Z 14
_cell_length_a 6.547550
_cell_length_b 15.030748
_cell_length_c 6.987257
_cell_angle_alpha 81.875411
_cell_angle_beta 115.094752
_cell_angle_gamma 127.869406
_cell_volume 484.736598
_symmetry_space_group_name_H-M "P -1"
_symmetry_group_IT_number 2
_symmetry_cell_setting 'triclinic'
loop_
_space_group_symop_operation_xyz
x,y,z
-x,-y,-z
loop_
_atom_site_type_symbol
_atom_site_label
_atom_site_fract_x
_atom_site_fract_y
_atom_site_fract_z
Si Si1 0.177609 0.472900 0.698574
Si Si2 0.569174 0.137084 0.603946
Si Si3 0.071159 0.738626 0.599897
Si Si4 0.778856 0.554563 0.840456
Si Si5 0.124971 0.156983 0.938413
Si Si6 0.212357 0.984562 0.825747
Si Si7 0.537061 0.700366 0.293786
O O1 0.064345 0.353723 0.596469
O O2 0.516557 0.558714 0.766542
O O3 0.000000 0.500000 0.500000
O O4 0.139201 0.459810 0.914000
O O5 0.287028 0.023148 0.620879
O O6 0.584467 0.237596 0.685601
O O7 0.614582 0.161170 0.385775
O O8 0.836775 0.138074 0.760410
O O9 0.026669 0.667601 0.791258
O O10 0.844850 0.763340 0.500559
O O11 0.641973 0.435678 0.711807
O O12 0.177624 0.073107 0.886531
O O13 0.389468 0.274942 0.911652
O O14 0.055657 0.131036 0.143275
O O15 0.500000 0.000000 0.000000
#
# Coordination Sequence:
#
# PCOD9001130 Si02
#       7
#     2   2   2   2   2   2   2
#     4  10  22  39  61  82 112 158 205 250 303 351
#     4   9  17  27  47  74 110 157 193 244 295 352
#     4  10  21  34  53  78 115 152 198 248 292 351
#     4  10  22  39  57  84 118 158 199 252 300 349
#     4   8  14  25  43  73 109 153 196 245 291 354
#     4   8  13  24  43  71 111 153 197 237 295 353
#     4   9  17  31  49  73 114 153 199 251 297 350
#
# _framework density 28.881665999999999
#
# number of rings (size 3 to 8) (size 9 to 14) (size 15 to 20)
#    0.000    2.857    0.000    1.714    4.000    0.571 
#    0.000    0.000    0.000    0.000    0.000    0.000 
#    0.000   59.429    9.714   90.714   44.000   78.429 
#
# Total GULP energy -78338.458200 kJ/mol
# GULP energy per Si atom -5595.604157 kJ/mol
# Density = 2.881593 g / cm^3
# Si number density = 28.881666 Si / 1000 Ang^3
#
#
#
# Elastic Constant Matrix: (Units=GPa)
#
#
# Indices 1 2 3 4 5 6 
#
# 1 237.8159 77.4341 115.4979 -16.4828 -1.0909 26.1688
# 2 77.4341 73.4665 69.7296 -26.4423 -10.9843 2.5247
# 3 115.4979 69.7296 179.3975 -26.0639 -26.8181 31.8577
# 4 -16.4828 -26.4423 -26.0639 45.4081 18.7649 -10.7866
# 5 -1.0909 -10.9843 -26.8181 18.7649 84.3940 -14.8108
# 6 26.1688 2.5247 31.8577 -10.7866 -14.8108 76.2440
#
#
#
# Elastic Compliance Matrix: (Units=1/GPa)
#
#
# Indices 1 2 3 4 5 6 
#
# 1 0.007655 -0.006674 -0.002551 -0.002469 -0.001375 -0.001957
# 2 -0.006674 0.032410 -0.007440 0.013741 -0.000194 0.006233
# 3 -0.002551 -0.007440 0.010880 -0.000597 0.002043 -0.003112
# 4 -0.002469 0.013741 -0.000597 0.031750 -0.004754 0.004210
# 5 -0.001375 -0.000194 0.002043 -0.004754 0.013799 0.001633
# 6 -0.001957 0.006233 -0.003112 0.004210 0.001633 0.015794
#
#
# Mechanical properties :
#
#
# Convention : Reuss Voigt Hill
#
# Bulk Modulus (GPa) = 56.77078 112.88926 84.83002
# Shear Modulus (GPa) = 33.00589 56.41045 44.70817
#
# Velocity S-wave (km/s) = 3.38420 4.42425 3.93870
# Velocity P-wave (km/s) = 5.91349 8.07900 7.07954
#
# Compressibility (1/GPa) = 0.01761470
#
# Stress axis : x y z
#
# Youngs Moduli (GPa) = 130.63817 30.85468 91.91577
#
# Poissons Ratio (x) = 0.20592 0.23446
# Poissons Ratio (y) = 0.87186 0.68386
# Poissons Ratio (z) = 0.33324 0.22956
#
# Static dielectric constant tensor:
#      x y z
#    x 2.284220 -0.000960 0.035630 
#    y -0.000960 2.374200 -0.126590 
#    z 0.035630 -0.126590 2.314150 
# 
# From -- ./inp_files/79956.got.cif
#   From: 2010.05.17/outbox.cif.g08.bks.cpg/sg2_40_cif.got.tgz:79956.got - 2010.06.03 11:33:40.
