data_PCOD9001089
_publ_section_title
;
Structure prediction by ZEFSAII (Michael W. Deem and Ramdas Pophale) SiO2 
 PCOD9001089
Probable space group: P -1
;
_chemical_formula_sum "Si O2"
_cell_formula_units_Z 16
_cell_length_a 9.802150
_cell_length_b 14.150464
_cell_length_c 10.786278
_cell_angle_alpha 41.411982
_cell_angle_beta 56.433945
_cell_angle_gamma 41.186039
_cell_volume 651.449856
_symmetry_space_group_name_H-M "P -1"
_symmetry_group_IT_number 2
_symmetry_cell_setting 'triclinic'
loop_
_space_group_symop_operation_xyz
x,y,z
-x,-y,-z
loop_
_atom_site_type_symbol
_atom_site_label
_atom_site_fract_x
_atom_site_fract_y
_atom_site_fract_z
Si Si1 0.195902 0.589406 0.964971
Si Si2 0.602634 0.026407 0.253565
Si Si3 0.975722 0.804635 0.628640
Si Si4 0.213806 0.288340 0.371538
Si Si5 0.411698 0.562925 0.238626
Si Si6 0.381104 0.844509 0.130036
Si Si7 0.107961 0.864122 0.932942
Si Si8 0.654279 0.164667 0.570782
O O1 0.428190 0.461940 0.920739
O O2 0.167315 0.756586 0.880692
O O3 0.045618 0.669276 0.843013
O O4 0.158138 0.482483 0.185847
O O5 0.710112 0.816810 0.433304
O O6 0.408979 0.156712 0.311807
O O7 0.770668 0.055070 0.183631
O O8 0.535574 0.097965 0.076966
O O9 0.957558 0.721315 0.596335
O O10 0.154856 0.827521 0.502892
O O11 0.761725 0.997795 0.585891
O O12 0.445530 0.647645 0.256461
O O13 0.475683 0.365928 0.415733
O O14 0.186780 0.714870 0.147490
O O15 0.419567 0.860510 0.237049
O O16 0.134662 0.985922 0.094930
#
# Coordination Sequence:
#
# PCOD9001089 Si02
#       8
#     2   2   2   2   2   2   2   2
#     4  11  21  39  62  94 121 160 208 254 299 360
#     4  10  23  37  62  91 120 167 198 252 309 361
#     4  10  22  38  62  93 121 164 202 256 307 355
#     4  11  22  38  60  89 129 159 205 247 306 373
#     4  10  21  33  62  95 122 151 205 254 302 356
#     4  11  20  41  61  91 127 161 199 256 312 355
#     4  11  21  38  67  90 127 155 208 257 302 354
#     4  10  21  38  64  93 122 157 212 255 297 363
#
# _framework density 24.560600999999998
#
# number of rings (size 3 to 8) (size 9 to 14) (size 15 to 20)
#    0.000    1.500    3.750    3.375    3.500    1.000 
#    0.000    1.250    0.000    0.000    0.000    0.000 
#    0.000    0.000    0.000    0.000    0.000    0.000 
#
# Total GULP energy -89523.462799 kJ/mol
# GULP energy per Si atom -5595.216425 kJ/mol
# Density = 2.450470 g / cm^3
# Si number density = 24.560601 Si / 1000 Ang^3
#
#
#
# Elastic Constant Matrix: (Units=GPa)
#
#
# Indices 1 2 3 4 5 6 
#
# 1 42.3941 -3.5316 10.6521 -11.6635 -10.7619 9.7371
# 2 -3.5316 70.9761 2.7379 -13.2010 -9.5202 8.7103
# 3 10.6521 2.7379 155.1476 -16.7627 12.4136 5.9283
# 4 -11.6635 -13.2010 -16.7627 33.0441 -1.5535 5.5932
# 5 -10.7619 -9.5202 12.4136 -1.5535 27.2023 -7.5323
# 6 9.7371 8.7103 5.9283 5.5932 -7.5323 29.7774
#
#
#
# Elastic Compliance Matrix: (Units=1/GPa)
#
#
# Indices 1 2 3 4 5 6 
#
# 1 0.037377 0.009413 -0.001350 0.019442 0.015834 -0.014354
# 2 0.009413 0.019230 0.000062 0.012960 0.008687 -0.008952
# 3 -0.001350 0.000062 0.007389 0.003568 -0.004470 -0.002848
# 4 0.019442 0.012960 0.003568 0.047496 0.008424 -0.017649
# 5 0.015834 0.008687 -0.004470 0.008424 0.049742 0.004171
# 6 -0.014354 -0.008952 -0.002848 -0.017649 0.004171 0.045832
#
#
# Mechanical properties :
#
#
# Convention : Reuss Voigt Hill
#
# Bulk Modulus (GPa) = 12.46184 32.02607 22.24395
# Shear Modulus (GPa) = 22.98171 35.24872 29.11521
#
# Velocity S-wave (km/s) = 3.06226 3.79248 3.44676
# Velocity P-wave (km/s) = 4.19383 5.67848 4.99166
#
# Compressibility (1/GPa) = 0.08024499
#
# Stress axis : x y z
#
# Youngs Moduli (GPa) = 26.75454 52.00335 135.33489
#
# Poissons Ratio (x) = -0.48953 0.18272
# Poissons Ratio (y) = -0.25185 -0.00833
# Poissons Ratio (z) = 0.03612 -0.00320
#
# Static dielectric constant tensor:
#      x y z
#    x 1.976380 0.009130 0.014700 
#    y 0.009130 1.934730 0.032050 
#    z 0.014700 0.032050 2.026970 
# 
# From -- ./inp_files/433707.got.cif
#   From: 2010.05.17/outbox.cif.g08.bks.cpg/sg2_217_cif.got.tgz:433707.got - 2010.06.03 11:33:40.
