data_PCOD9001588
_publ_section_title
;
Structure prediction by ZEFSAII (Michael W. Deem and Ramdas Pophale) SiO2 
 PCOD9001588
Probable space group: P -1
;
_chemical_formula_sum "Si O2"
_cell_formula_units_Z 12
_cell_length_a 12.147403
_cell_length_b 8.739608
_cell_length_c 9.074572
_cell_angle_alpha 87.293336
_cell_angle_beta 97.790084
_cell_angle_gamma 36.272668
_cell_volume 544.209380
_symmetry_space_group_name_H-M "P -1"
_symmetry_group_IT_number 2
_symmetry_cell_setting 'triclinic'
loop_
_space_group_symop_operation_xyz
x,y,z
-x,-y,-z
loop_
_atom_site_type_symbol
_atom_site_label
_atom_site_fract_x
_atom_site_fract_y
_atom_site_fract_z
Si Si1 0.155397 0.712320 0.618471
Si Si2 0.459543 0.890897 0.828507
Si Si3 0.289163 0.266120 0.521367
Si Si4 0.136965 0.178210 0.336964
Si Si5 0.230365 0.198498 0.058003
Si Si6 0.412496 0.678204 0.622281
O O1 0.239931 0.498437 0.523270
O O2 0.320189 0.643612 0.700507
O O3 0.050686 0.717885 0.714935
O O4 0.000000 0.000000 0.500000
O O5 0.646558 0.784149 0.901646
O O6 0.516492 0.677771 0.752004
O O7 0.320602 0.156172 0.691480
O O8 0.329969 0.006284 0.944110
O O9 0.128829 0.361068 0.389083
O O10 0.500000 0.000000 0.500000
O O11 0.250815 0.067225 0.210911
O O12 0.253278 0.966598 0.500410
O O13 0.000000 0.500000 0.000000
O O14 0.500000 0.500000 0.500000
#
# Coordination Sequence:
#
# PCOD9001588 Si02
#       6
#     2   2   2   2   2   2
#     4  10  21  35  58  96 130 154 202 271 329 379
#     4  10  23  42  65  94 126 169 221 266 315 391
#     4  11  19  37  67  92 119 166 218 268 319 371
#     4  10  21  38  63  93 120 164 218 263 311 382
#     4  11  23  41  65  92 129 168 221 265 318 378
#     4  10  22  41  65  94 128 163 207 269 335 378
#
# _framework density 22.050336999999999
#
# number of rings (size 3 to 8) (size 9 to 14) (size 15 to 20)
#    0.000    1.667    1.667    3.500    0.000    2.667 
#    3.000    1.667    0.000    0.000    0.000    0.000 
#    0.000    0.000    0.000    0.000    0.000    0.000 
#
# Total GULP energy -66891.582704 kJ/mol
# GULP energy per Si atom -5574.298559 kJ/mol
# Density = 2.200015 g / cm^3
# Si number density = 22.050337 Si / 1000 Ang^3
#
#
#
# Elastic Constant Matrix: (Units=GPa)
#
#
# Indices 1 2 3 4 5 6 
#
# 1 142.5427 38.5643 46.2674 21.8573 2.6472 -1.9552
# 2 38.5643 93.9680 17.9391 24.2238 10.6995 6.6740
# 3 46.2674 17.9391 90.7862 26.7832 -9.0320 -6.8178
# 4 21.8573 24.2238 26.7832 32.1900 -1.1357 3.1838
# 5 2.6472 10.6995 -9.0320 -1.1357 39.7049 11.9529
# 6 -1.9552 6.6740 -6.8178 3.1838 11.9529 40.0428
#
#
#
# Elastic Compliance Matrix: (Units=1/GPa)
#
#
# Indices 1 2 3 4 5 6 
#
# 1 0.009197 -0.002683 -0.003889 -0.001086 -0.000991 0.000616
# 2 -0.002683 0.014603 0.001074 -0.010142 -0.003656 -0.000484
# 3 -0.003889 0.001074 0.016914 -0.012415 0.002647 0.002708
# 4 -0.001086 -0.010142 -0.012415 0.050406 0.003047 -0.005394
# 5 -0.000991 -0.003656 0.002647 0.003047 0.029331 -0.007986
# 6 0.000616 -0.000484 0.002708 -0.005394 -0.007986 0.028358
#
#
# Mechanical properties :
#
#
# Convention : Reuss Voigt Hill
#
# Bulk Modulus (GPa) = 33.64983 59.20426 46.42705
# Shear Modulus (GPa) = 29.46200 37.35595 33.40898
#
# Velocity S-wave (km/s) = 3.65927 4.12044 3.89668
# Velocity P-wave (km/s) = 5.75737 7.03884 6.43010
#
# Compressibility (1/GPa) = 0.02971783
#
# Stress axis : x y z
#
# Youngs Moduli (GPa) = 108.73140 68.47801 59.12317
#
# Poissons Ratio (x) = 0.18372 0.22992
# Poissons Ratio (y) = 0.29172 -0.06348
# Poissons Ratio (z) = 0.42284 -0.07352
#
# Static dielectric constant tensor:
#      x y z
#    x 1.934680 -0.037250 0.030140 
#    y -0.037250 1.900630 0.027820 
#    z 0.030140 0.027820 1.863930 
# 
# From -- ./inp_files/244596.got.cif
#   From: 2010.05.17/outbox.cif.g08.bks.cpg/sg2_123_cif.got.tgz:244596.got - 2010.06.03 11:33:40.
