data_PCOD9001883
_publ_section_title
;
Structure prediction by ZEFSAII (Michael W. Deem and Ramdas Pophale) SiO2 
 PCOD9001883
Probable space group: P -1
;
_chemical_formula_sum "Si O2"
_cell_formula_units_Z 16
_cell_length_a 16.092946
_cell_length_b 8.301698
_cell_length_c 13.153025
_cell_angle_alpha 114.698939
_cell_angle_beta 27.097199
_cell_angle_gamma 125.471239
_cell_volume 628.347831
_symmetry_space_group_name_H-M "P -1"
_symmetry_group_IT_number 2
_symmetry_cell_setting 'triclinic'
loop_
_space_group_symop_operation_xyz
x,y,z
-x,-y,-z
loop_
_atom_site_type_symbol
_atom_site_label
_atom_site_fract_x
_atom_site_fract_y
_atom_site_fract_z
Si Si1 0.615594 0.527354 0.275013
Si Si2 0.686232 0.739008 0.972351
Si Si3 0.220468 0.373380 0.369118
Si Si4 0.339232 0.090319 0.441263
Si Si5 0.064180 0.660435 0.600292
Si Si6 0.756738 0.954382 0.237176
Si Si7 0.994335 0.180270 0.772399
Si Si8 0.073273 0.618217 0.822746
O O1 0.500000 0.500000 0.500000
O O2 0.516107 0.312157 0.267354
O O3 0.638424 0.732741 0.253151
O O4 0.840173 0.573846 0.078565
O O5 0.721517 0.734618 0.810940
O O6 0.851537 0.671143 0.818407
O O7 0.444667 0.567688 0.211288
O O8 0.762702 0.978149 0.975585
O O9 0.086862 0.229055 0.569503
O O10 0.083259 0.466905 0.493900
O O11 0.360564 0.076529 0.535014
O O12 0.130024 0.106922 0.666825
O O13 0.268134 0.879128 0.404635
O O14 0.097544 0.652660 0.683619
O O15 0.776840 0.164406 0.229656
O O16 0.000000 0.000000 0.000000
O O17 0.058579 0.404016 0.803153
#
# Coordination Sequence:
#
# PCOD9001883 Si02
#       8
#     2   2   2   2   2   2   2   2
#     4   9  17  30  51  74 100 137 176 215 266 328
#     4  10  21  37  57  81 112 150 180 226 279 322
#     4  10  21  37  57  80 114 147 184 224 276 329
#     4   9  18  31  52  77 103 137 178 222 269 319
#     4   9  19  35  55  80 108 145 187 224 267 327
#     4   8  15  32  50  70 100 137 174 213 268 323
#     4  10  21  36  53  82 111 137 183 234 268 324
#     4   9  18  32  54  74 104 142 177 222 272 320
#
# _framework density 25.463602999999999
#
# number of rings (size 3 to 8) (size 9 to 14) (size 15 to 20)
#    0.000    2.750    0.000    0.750    3.500    0.000 
#    0.000    6.250    0.000    7.500    0.000    0.000 
#    0.000    0.000    0.000    0.000    0.000    0.000 
#
# Total GULP energy -89267.794599 kJ/mol
# GULP energy per Si atom -5579.237162 kJ/mol
# Density = 2.540565 g / cm^3
# Si number density = 25.463603 Si / 1000 Ang^3
#
#
#
# Elastic Constant Matrix: (Units=GPa)
#
#
# Indices 1 2 3 4 5 6 
#
# 1 54.7644 11.2471 8.7901 -4.8972 -4.2132 -9.1154
# 2 11.2471 117.6024 19.7181 -23.1109 7.8561 -3.8665
# 3 8.7901 19.7181 64.2224 -13.8363 0.9780 -6.7382
# 4 -4.8972 -23.1109 -13.8363 44.9155 2.3298 3.9972
# 5 -4.2132 7.8561 0.9780 2.3298 29.9037 -2.1573
# 6 -9.1154 -3.8665 -6.7382 3.9972 -2.1573 20.3583
#
#
#
# Elastic Compliance Matrix: (Units=1/GPa)
#
#
# Indices 1 2 3 4 5 6 
#
# 1 0.020628 -0.001726 -0.001442 -0.000084 0.004054 0.008877
# 2 -0.001726 0.010093 -0.001887 0.004658 -0.003249 -0.000740
# 3 -0.001442 -0.001887 0.017627 0.003960 -0.000302 0.004021
# 4 -0.000084 0.004658 0.003960 0.026365 -0.003665 -0.003407
# 5 0.004054 -0.003249 -0.000302 -0.003665 0.035564 0.005586
# 6 0.008877 -0.000740 0.004021 -0.003407 0.005586 0.055546
#
#
# Mechanical properties :
#
#
# Convention : Reuss Voigt Hill
#
# Bulk Modulus (GPa) = 26.15225 35.12220 30.63723
# Shear Modulus (GPa) = 26.50005 32.15775 29.32890
#
# Velocity S-wave (km/s) = 3.22949 3.55757 3.39750
# Velocity P-wave (km/s) = 4.91924 5.54059 5.23913
#
# Compressibility (1/GPa) = 0.03823762
#
# Stress axis : x y z
#
# Youngs Moduli (GPa) = 48.47790 99.07992 56.73058
#
# Poissons Ratio (x) = 0.17106 0.08179
# Poissons Ratio (y) = 0.08369 0.10705
# Poissons Ratio (z) = 0.06989 0.18697
#
# Static dielectric constant tensor:
#      x y z
#    x 2.114550 0.039970 0.034230 
#    y 0.039970 2.180390 -0.037000 
#    z 0.034230 -0.037000 2.038220 
# 
# From -- ./inp_files/196751.got.cif
#   From: 2010.05.17/outbox.cif.g08.bks.cpg/sg2_99_cif.got.tgz:196751.got - 2010.06.03 11:33:40.
