data_PCOD9001466
_publ_section_title
;
Structure prediction by ZEFSAII (Michael W. Deem and Ramdas Pophale) SiO2 
 PCOD9001466
Probable space group: P -1
;
_chemical_formula_sum "Si O2"
_cell_formula_units_Z 14
_cell_length_a 25.744258
_cell_length_b 14.347813
_cell_length_c 4.984827
_cell_angle_alpha 103.791032
_cell_angle_beta 115.849019
_cell_angle_gamma 27.883284
_cell_volume 726.145596
_symmetry_space_group_name_H-M "P -1"
_symmetry_group_IT_number 2
_symmetry_cell_setting 'triclinic'
loop_
_space_group_symop_operation_xyz
x,y,z
-x,-y,-z
loop_
_atom_site_type_symbol
_atom_site_label
_atom_site_fract_x
_atom_site_fract_y
_atom_site_fract_z
Si Si1 0.929676 0.310759 0.343655
Si Si2 0.414056 0.564852 0.146955
Si Si3 0.107272 0.749376 0.290313
Si Si4 0.052504 0.504503 0.420878
Si Si5 0.200434 0.133658 0.216027
Si Si6 0.845390 0.132965 0.231921
Si Si7 0.653098 0.154706 0.151472
O O1 0.865942 0.376474 0.526440
O O2 0.063469 0.301877 0.912818
O O3 0.916437 0.441362 0.333522
O O4 0.875001 0.319593 0.007396
O O5 0.500000 0.500000 0.500000
O O6 0.511147 0.346008 0.077488
O O7 0.287438 0.705112 0.076343
O O8 0.360595 0.718302 0.910615
O O9 0.175021 0.744759 0.540428
O O10 0.954779 0.996420 0.166350
O O11 0.000000 0.500000 0.500000
O O12 0.169320 0.284419 0.369879
O O13 0.252760 0.994622 0.486867
O O14 0.295709 0.984556 0.076236
O O15 0.921254 0.939299 0.441610
#
# Coordination Sequence:
#
# PCOD9001466 Si02
#       7
#     2   2   2   2   2   2   2
#     4  10  21  35  56  83 119 147 190 239 293 345
#     4  11  23  37  59  89 119 163 200 232 299 357
#     4   9  21  37  57  85 113 156 191 240 296 341
#     4  11  24  34  60  88 115 161 197 238 308 351
#     4  11  23  38  53  78 124 151 195 235 291 356
#     4   9  21  36  59  83 122 150 196 236 292 352
#     4  11  23  39  52  81 122 159 190 235 286 360
#
# _framework density 19.279881
#
# number of rings (size 3 to 8) (size 9 to 14) (size 15 to 20)
#    0.857    0.857    2.857    1.286    4.000    3.429 
#    0.000    0.000    0.000    0.000    0.000    6.000 
#    0.000    0.000    0.000    0.000    0.000    0.000 
#
# Total GULP energy -78032.186667 kJ/mol
# GULP energy per Si atom -5573.727619 kJ/mol
# Density = 1.923600 g / cm^3
# Si number density = 19.279881 Si / 1000 Ang^3
#
#
#
# Elastic Constant Matrix: (Units=GPa)
#
#
# Indices 1 2 3 4 5 6 
#
# 1 45.0750 22.3780 27.4763 -1.2766 -4.8698 11.6058
# 2 22.3780 89.1381 32.0341 11.9768 4.6033 4.1150
# 3 27.4763 32.0341 89.6028 -1.1911 -6.8978 4.1877
# 4 -1.2766 11.9768 -1.1911 36.4354 3.3765 -0.1715
# 5 -4.8698 4.6033 -6.8978 3.3765 34.4156 -0.3601
# 6 11.6058 4.1150 4.1877 -0.1715 -0.3601 30.3879
#
#
#
# Elastic Compliance Matrix: (Units=1/GPa)
#
#
# Indices 1 2 3 4 5 6 
#
# 1 0.032522 -0.005601 -0.007168 0.002365 0.003571 -0.010619
# 2 -0.005601 0.014820 -0.003911 -0.004908 -0.003071 0.000607
# 3 -0.007168 -0.003911 0.014899 0.001307 0.002380 0.001250
# 4 0.002365 -0.004908 0.001307 0.029334 -0.001628 -0.000272
# 5 0.003571 -0.003071 0.002380 -0.001628 0.030600 -0.000923
# 6 -0.010619 0.000607 0.001250 -0.000272 -0.000923 0.036697
#
#
# Mechanical properties :
#
#
# Convention : Reuss Voigt Hill
#
# Bulk Modulus (GPa) = 34.62363 43.06587 38.84475
# Shear Modulus (GPa) = 24.76995 29.70961 27.23978
#
# Velocity S-wave (km/s) = 3.58824 3.92977 3.76288
# Velocity P-wave (km/s) = 5.92998 6.55565 6.25065
#
# Compressibility (1/GPa) = 0.02888201
#
# Stress axis : x y z
#
# Youngs Moduli (GPa) = 30.74848 67.47582 67.11984
#
# Poissons Ratio (x) = 0.37791 0.48110
# Poissons Ratio (y) = 0.17221 0.26250
# Poissons Ratio (z) = 0.22040 0.26390
#
# Static dielectric constant tensor:
#      x y z
#    x 1.724420 -0.011530 -0.032890 
#    y -0.011530 1.715950 0.018800 
#    z -0.032890 0.018800 1.692090 
# 
# From -- ./inp_files/127015.got.cif
#   From: 2010.05.17/outbox.cif.g08.bks.cpg/sg2_64_cif.got.tgz:127015.got - 2010.06.03 11:33:40.
