data_PCOD9001087
_publ_section_title
;
Structure prediction by ZEFSAII (Michael W. Deem and Ramdas Pophale) SiO2 
 PCOD9001087
Probable space group: P -1
;
_chemical_formula_sum "Si O2"
_cell_formula_units_Z 14
_cell_length_a 7.731162
_cell_length_b 7.988967
_cell_length_c 15.096025
_cell_angle_alpha 43.021817
_cell_angle_beta 72.057027
_cell_angle_gamma 88.574273
_cell_volume 575.658387
_symmetry_space_group_name_H-M "P -1"
_symmetry_group_IT_number 2
_symmetry_cell_setting 'triclinic'
loop_
_space_group_symop_operation_xyz
x,y,z
-x,-y,-z
loop_
_atom_site_type_symbol
_atom_site_label
_atom_site_fract_x
_atom_site_fract_y
_atom_site_fract_z
Si Si1 0.049682 0.241818 0.834014
Si Si2 0.553475 0.779065 0.834769
Si Si3 0.664751 0.464857 0.193833
Si Si4 0.277256 0.368288 0.582702
Si Si5 0.276686 0.204904 0.450986
Si Si6 0.334268 0.000262 0.091055
Si Si7 0.151674 0.850512 0.466878
O O1 0.155495 0.478439 0.790430
O O2 0.193984 0.217875 0.743383
O O3 0.855762 0.223720 0.819028
O O4 0.000000 0.000000 0.000000
O O5 0.398035 0.747543 0.792866
O O6 0.581515 0.983411 0.830270
O O7 0.758666 0.895253 0.707570
O O8 0.500000 0.500000 0.000000
O O9 0.471233 0.411793 0.305022
O O10 0.705266 0.731023 0.029337
O O11 0.500000 0.500000 0.500000
O O12 0.249258 0.207736 0.559142
O O13 0.188840 0.606758 0.508211
O O14 0.071112 0.226267 0.446089
O O15 0.275126 0.943840 0.501058
O O16 0.500000 0.000000 0.000000
#
# Coordination Sequence:
#
# PCOD9001087 Si02
#       7
#     2   2   2   2   2   2   2
#     4  10  22  41  60  88 131 169 206 266 321 384
#     4   9  19  39  60  89 124 165 211 265 324 378
#     4   9  19  38  59  82 123 166 203 262 317 381
#     4  12  24  39  67  93 130 174 216 259 330 389
#     4  10  21  41  62  93 128 162 222 267 324 381
#     4  10  21  33  62  89 119 161 215 258 316 381
#     4  10  23  38  66  94 128 166 216 276 319 382
#
# _framework density 24.319976
#
# number of rings (size 3 to 8) (size 9 to 14) (size 15 to 20)
#    0.000    2.000    1.429    1.286    4.000    0.571 
#    0.000    0.714    0.000    0.000    0.000    0.000 
#    0.000    0.000    0.000    0.000    0.000    0.000 
#
# Total GULP energy -78025.629255 kJ/mol
# GULP energy per Si atom -5573.259233 kJ/mol
# Density = 2.426462 g / cm^3
# Si number density = 24.319976 Si / 1000 Ang^3
#
#
#
# Elastic Constant Matrix: (Units=GPa)
#
#
# Indices 1 2 3 4 5 6 
#
# 1 75.8290 67.8231 19.7561 -8.1220 -36.3593 36.9893
# 2 67.8231 144.2371 42.2616 46.2843 7.1979 69.8003
# 3 19.7561 42.2616 176.3964 2.4026 -10.5453 5.7204
# 4 -8.1220 46.2843 2.4026 45.8927 -4.8955 4.5369
# 5 -36.3593 7.1979 -10.5453 -4.8955 33.8327 -9.7596
# 6 36.9893 69.8003 5.7204 4.5369 -9.7596 51.6215
#
#
#
# Elastic Compliance Matrix: (Units=1/GPa)
#
#
# Indices 1 2 3 4 5 6 
#
# 1 0.004896 0.018636 -0.004502 -0.015987 -0.010737 -0.028833
# 2 0.018636 -0.006444 0.000710 0.012356 0.022987 -0.001459
# 3 -0.004502 0.000710 0.005806 -0.002275 -0.003155 0.001226
# 4 -0.015987 0.012356 -0.002275 0.005171 -0.022575 -0.009722
# 5 -0.010737 0.022987 -0.003155 -0.022575 0.002967 -0.020494
# 6 -0.028833 -0.001459 0.001226 -0.009722 -0.020494 0.038848
#
#
# Mechanical properties :
#
#
# Convention : Reuss Voigt Hill
#
# Bulk Modulus (GPa) = 29.45941 72.90491 51.18216
# Shear Modulus (GPa) = 152.10336 44.04415 98.07375
#
# Velocity S-wave (km/s) = 7.91696 4.26023 6.35720
# Velocity P-wave (km/s) = 9.78318 7.36491 8.65888
#
# Compressibility (1/GPa) = 0.03394501
#
# Stress axis : x y z
#
# Youngs Moduli (GPa) = 204.22807 -155.18306 172.24150
#
# Poissons Ratio (x) = 2.89195 0.77548
# Poissons Ratio (y) = -3.80594 -0.12227
# Poissons Ratio (z) = 0.91949 0.11016
#
# Static dielectric constant tensor:
#      x y z
#    x 1.925590 0.042410 0.049780 
#    y 0.042410 2.059310 -0.024080 
#    z 0.049780 -0.024080 1.950250 
# 
# From -- ./inp_files/298686.got.cif
#   From: 2010.05.17/outbox.cif.g08.bks.cpg/sg2_150_cif.got.tgz:298686.got - 2010.06.03 11:33:40.
