data_PCOD9001650
_publ_section_title
;
Structure prediction by ZEFSAII (Michael W. Deem and Ramdas Pophale) SiO2 
 PCOD9001650
Probable space group: P -1
;
_chemical_formula_sum "Si O2"
_cell_formula_units_Z 16
_cell_length_a 12.263129
_cell_length_b 14.871085
_cell_length_c 9.586831
_cell_angle_alpha 72.112545
_cell_angle_beta 80.188371
_cell_angle_gamma 28.623267
_cell_volume 777.943006
_symmetry_space_group_name_H-M "P -1"
_symmetry_group_IT_number 2
_symmetry_cell_setting 'triclinic'
loop_
_space_group_symop_operation_xyz
x,y,z
-x,-y,-z
loop_
_atom_site_type_symbol
_atom_site_label
_atom_site_fract_x
_atom_site_fract_y
_atom_site_fract_z
Si Si1 0.126811 0.162084 0.705173
Si Si2 0.173896 0.659068 0.573715
Si Si3 0.137508 0.799450 0.088970
Si Si4 0.683901 0.259421 0.653682
Si Si5 0.984153 0.848292 0.824335
Si Si6 0.055427 0.427541 0.679836
Si Si7 0.557042 0.037832 0.856352
Si Si8 0.390700 0.135284 0.324836
O O1 0.022988 0.152845 0.814532
O O2 0.064626 0.306811 0.726780
O O3 0.015265 0.243130 0.536120
O O4 0.403895 0.950768 0.731677
O O5 0.422027 0.422861 0.603458
O O6 0.227488 0.726362 0.478051
O O7 0.090133 0.723708 0.720590
O O8 0.331955 0.680431 0.217058
O O9 0.171386 0.728316 0.963281
O O10 0.000000 0.000000 0.000000
O O11 0.864195 0.038188 0.719730
O O12 0.767788 0.950072 0.886113
O O13 0.307021 0.270681 0.757881
O O14 0.000000 0.500000 0.500000
O O15 0.843368 0.631160 0.713138
O O16 0.642538 0.919211 0.757005
O O17 0.500000 0.000000 0.000000
O O18 0.500000 0.000000 0.500000
#
# Coordination Sequence:
#
# PCOD9001650 Si02
#       8
#     2   2   2   2   2   2   2   2
#     4  10  21  38  62  87 124 156 204 246 304 357
#     4  10  21  35  60  90 114 146 194 249 293 352
#     4   9  20  42  60  82 119 162 193 247 304 363
#     4   9  21  39  56  85 118 145 190 249 296 351
#     4  11  21  35  63  82 113 156 197 234 304 352
#     4  11  23  39  64  90 126 165 204 252 304 365
#     4  11  25  41  59  91 130 160 206 259 300 360
#     4  11  21  39  62  90 124 166 206 249 307 369
#
# _framework density 20.567059
#
# number of rings (size 3 to 8) (size 9 to 14) (size 15 to 20)
#    0.000    1.750    2.500    2.625    1.750    1.000 
#    0.000   12.500    0.000    0.000    0.000    0.000 
#    0.000    0.000    0.000    0.000    0.000    0.000 
#
# Total GULP energy -89284.878023 kJ/mol
# GULP energy per Si atom -5580.304876 kJ/mol
# Density = 2.052025 g / cm^3
# Si number density = 20.567059 Si / 1000 Ang^3
#
#
#
# Elastic Constant Matrix: (Units=GPa)
#
#
# Indices 1 2 3 4 5 6 
#
# 1 59.1253 7.4917 -0.1872 -4.6937 -2.3909 -4.7246
# 2 7.4917 110.5212 1.8631 1.2407 7.3934 -4.1735
# 3 -0.1872 1.8631 72.4987 5.5993 4.9751 2.0423
# 4 -4.6937 1.2407 5.5993 24.8646 3.0296 9.7934
# 5 -2.3909 7.3934 4.9751 3.0296 41.9898 -3.1810
# 6 -4.7246 -4.1735 2.0423 9.7934 -3.1810 18.2223
#
#
#
# Elastic Compliance Matrix: (Units=1/GPa)
#
#
# Indices 1 2 3 4 5 6 
#
# 1 0.017547 -0.001164 -0.000263 0.001865 0.001369 0.003549
# 2 -0.001164 0.009328 -0.000102 -0.001420 -0.001415 0.002363
# 3 -0.000263 -0.000102 0.014132 -0.002896 -0.001491 -0.000379
# 4 0.001865 -0.001420 -0.002896 0.053437 -0.005366 -0.029173
# 5 0.001369 -0.001415 -0.001491 -0.005366 0.025274 0.007494
# 6 0.003549 0.002363 -0.000379 -0.029173 0.007494 0.073368
#
#
# Mechanical properties :
#
#
# Convention : Reuss Voigt Hill
#
# Bulk Modulus (GPa) = 26.35063 28.94227 27.64645
# Shear Modulus (GPa) = 23.94704 32.54718 28.24711
#
# Velocity S-wave (km/s) = 3.41594 3.98237 3.70998
# Velocity P-wave (km/s) = 5.32899 5.93703 5.64121
#
# Compressibility (1/GPa) = 0.03794975
#
# Stress axis : x y z
#
# Youngs Moduli (GPa) = 56.99027 107.19879 70.76156
#
# Poissons Ratio (x) = 0.12473 0.01859
# Poissons Ratio (y) = 0.06631 0.00725
# Poissons Ratio (z) = 0.01498 0.01099
#
# Static dielectric constant tensor:
#      x y z
#    x 1.674120 -0.073120 -0.005310 
#    y -0.073120 1.629740 -0.027710 
#    z -0.005310 -0.027710 1.762760 
# 
# From -- ./inp_files/272903.got.cif
#   From: 2010.05.17/outbox.cif.g08.bks.cpg/sg2_137_cif.got.tgz:272903.got - 2010.06.03 11:33:40.
