data_PCOD9001213
_publ_section_title
;
Structure prediction by ZEFSAII (Michael W. Deem and Ramdas Pophale) SiO2 
 PCOD9001213
Probable space group: P -1
;
_chemical_formula_sum "Si O2"
_cell_formula_units_Z 16
_cell_length_a 5.229339
_cell_length_b 13.314427
_cell_length_c 16.235199
_cell_angle_alpha 120.283437
_cell_angle_beta 110.528255
_cell_angle_gamma 103.972902
_cell_volume 782.364772
_symmetry_space_group_name_H-M "P -1"
_symmetry_group_IT_number 2
_symmetry_cell_setting 'triclinic'
loop_
_space_group_symop_operation_xyz
x,y,z
-x,-y,-z
loop_
_atom_site_type_symbol
_atom_site_label
_atom_site_fract_x
_atom_site_fract_y
_atom_site_fract_z
Si Si1 0.896269 0.568364 0.269668
Si Si2 0.106027 0.416587 0.536083
Si Si3 0.269526 0.796654 0.718586
Si Si4 0.687027 0.385068 0.809673
Si Si5 0.557832 0.936282 0.063421
Si Si6 0.847765 0.310850 0.958507
Si Si7 0.731752 0.679110 0.740077
Si Si8 0.336023 0.276807 0.064560
O O1 0.004370 0.598103 0.388697
O O2 0.626959 0.606886 0.236824
O O3 0.696990 0.404021 0.166358
O O4 0.191327 0.644560 0.273152
O O5 0.484952 0.520464 0.628993
O O6 0.000000 0.500000 0.500000
O O7 0.957424 0.273219 0.414649
O O8 0.554784 0.763750 0.732886
O O9 0.042319 0.721875 0.740345
O O10 0.364380 0.948886 0.812340
O O11 0.659286 0.293684 0.846562
O O12 0.989510 0.534203 0.928599
O O13 0.349271 0.800676 0.040235
O O14 0.762076 0.878572 0.019478
O O15 0.500000 0.000000 0.000000
O O16 0.164926 0.302293 0.979721
O O17 0.794771 0.706422 0.854969
#
# Coordination Sequence:
#
# PCOD9001213 Si02
#       8
#     2   2   2   2   2   2   2   2
#     4  10  21  38  63  89 117 149 201 252 306 336
#     4   9  21  38  62  87 119 153 199 250 295 351
#     4  11  23  36  54  82 118 159 193 233 287 359
#     4  10  22  40  63  90 116 155 205 253 295 342
#     4  12  23  36  57  86 132 160 194 232 303 370
#     4  10  23  36  60  87 123 157 203 246 293 355
#     4  10  21  37  55  81 118 157 195 234 288 348
#     4  10  21  34  57  86 121 159 192 238 300 352
#
# _framework density 20.450818000000002
#
# number of rings (size 3 to 8) (size 9 to 14) (size 15 to 20)
#    0.000    1.750    2.500    1.125    3.500   10.500 
#    0.000    0.000    0.000    1.500    0.000    0.000 
#    0.000    0.000    0.000    0.000    0.000    0.000 
#
# Total GULP energy -89070.002180 kJ/mol
# GULP energy per Si atom -5566.875136 kJ/mol
# Density = 2.040427 g / cm^3
# Si number density = 20.450818 Si / 1000 Ang^3
#
#
#
# Elastic Constant Matrix: (Units=GPa)
#
#
# Indices 1 2 3 4 5 6 
#
# 1 61.9233 21.9664 19.8952 -13.1709 -7.4733 -4.5727
# 2 21.9664 94.6136 47.1169 -17.1943 -2.9245 -1.5297
# 3 19.8952 47.1169 113.6530 -1.8083 -16.3297 -26.5987
# 4 -13.1709 -17.1943 -1.8083 29.0182 -3.1033 -0.4081
# 5 -7.4733 -2.9245 -16.3297 -3.1033 15.1357 -0.5788
# 6 -4.5727 -1.5297 -26.5987 -0.4081 -0.5788 24.0314
#
#
#
# Elastic Compliance Matrix: (Units=1/GPa)
#
#
# Indices 1 2 3 4 5 6 
#
# 1 0.020824 -0.003105 0.000787 0.009078 0.012587 0.005093
# 2 -0.003105 0.017245 -0.010208 0.007146 -0.008165 -0.010867
# 3 0.000787 -0.010208 0.021722 -0.001599 0.022444 0.024056
# 4 0.009078 0.007146 -0.001599 0.044154 0.013247 0.001481
# 5 0.012587 -0.008165 0.022444 0.013247 0.098758 0.029321
# 6 0.005093 -0.010867 0.024056 0.001481 0.029321 0.069247
#
#
# Mechanical properties :
#
#
# Convention : Reuss Voigt Hill
#
# Bulk Modulus (GPa) = 28.78721 49.79411 39.29066
# Shear Modulus (GPa) = 16.20313 25.71783 20.96048
#
# Velocity S-wave (km/s) = 2.81783 3.55004 3.20491
# Velocity P-wave (km/s) = 4.96928 6.41909 5.74014
#
# Compressibility (1/GPa) = 0.03473764
#
# Stress axis : x y z
#
# Youngs Moduli (GPa) = 48.02174 57.98943 46.03578
#
# Poissons Ratio (x) = 0.18008 -0.03623
# Poissons Ratio (y) = 0.14913 0.46994
# Poissons Ratio (z) = -0.03780 0.59197
#
# Static dielectric constant tensor:
#      x y z
#    x 1.947880 -0.007650 0.001200 
#    y -0.007650 1.771320 0.006550 
#    z 0.001200 0.006550 1.763740 
# 
# From -- ./inp_files/76702.got.cif
#   From: 2010.05.17/outbox.cif.g08.bks.cpg/sg2_39_cif.got.tgz:76702.got - 2010.06.03 11:33:40.
