data_PCOD9001379
_publ_section_title
;
Structure prediction by ZEFSAII (Michael W. Deem and Ramdas Pophale) SiO2 
 PCOD9001379
Probable space group: P -1
;
_chemical_formula_sum "Si O2"
_cell_formula_units_Z 16
_cell_length_a 16.355483
_cell_length_b 12.908944
_cell_length_c 9.872985
_cell_angle_alpha 128.376622
_cell_angle_beta 56.991198
_cell_angle_gamma 156.559133
_cell_volume 648.001925
_symmetry_space_group_name_H-M "P -1"
_symmetry_group_IT_number 2
_symmetry_cell_setting 'triclinic'
loop_
_space_group_symop_operation_xyz
x,y,z
-x,-y,-z
loop_
_atom_site_type_symbol
_atom_site_label
_atom_site_fract_x
_atom_site_fract_y
_atom_site_fract_z
Si Si1 0.303749 0.355151 0.411484
Si Si2 0.870672 0.999970 0.486824
Si Si3 0.575600 0.227154 0.306239
Si Si4 0.749412 0.791068 0.949701
Si Si5 0.756785 0.656868 0.097020
Si Si6 0.140631 0.516665 0.508021
Si Si7 0.072941 0.739546 0.779213
Si Si8 0.249038 0.626985 0.011160
O O1 0.454455 0.650473 0.569274
O O2 0.089975 0.185002 0.459108
O O3 0.249261 0.164962 0.399025
O O4 0.351192 0.363477 0.226130
O O5 0.945283 0.224319 0.531896
O O6 0.745148 0.758827 0.299986
O O7 0.660090 0.293542 0.433857
O O8 0.383579 0.909433 0.174366
O O9 0.741694 0.381534 0.165549
O O10 0.995720 0.065266 0.922363
O O11 0.750378 0.941490 0.123119
O O12 0.680561 0.612728 0.985342
O O13 0.669780 0.415947 0.036772
O O14 0.095821 0.422377 0.316187
O O15 0.145365 0.679610 0.634761
O O16 0.972776 0.620023 0.921646
#
# Coordination Sequence:
#
# PCOD9001379 Si02
#       8
#     2   2   2   2   2   2   2   2
#     4   9  17  28  48  75 101 127 168 216 253 295
#     4   9  15  28  48  74  97 129 167 213 258 289
#     4  10  21  36  52  78 107 138 169 212 257 306
#     4   9  17  28  48  75 101 127 168 216 253 295
#     4   9  15  28  48  74  97 129 167 213 258 289
#     4  10  21  35  54  77 107 136 172 211 257 307
#     4  10  21  36  52  78 107 138 169 212 257 306
#     4  10  21  35  54  77 107 136 172 211 257 307
#
# _framework density 24.691286000000002
#
# number of rings (size 3 to 8) (size 9 to 14) (size 15 to 20)
#    0.000    2.500    2.500    0.000   10.500    1.000 
#    0.000    0.000    0.000    3.000    0.000    0.000 
#    0.000    0.000    0.000    0.000    0.000    0.000 
#
# Total GULP energy -89415.748184 kJ/mol
# GULP energy per Si atom -5588.484262 kJ/mol
# Density = 2.463509 g / cm^3
# Si number density = 24.691286 Si / 1000 Ang^3
#
#
#
# Elastic Constant Matrix: (Units=GPa)
#
#
# Indices 1 2 3 4 5 6 
#
# 1 64.5504 19.3937 23.1387 11.2981 7.4468 -10.9803
# 2 19.3937 37.7424 16.5220 5.6227 6.6129 -3.5503
# 3 23.1387 16.5220 110.7962 17.8815 -2.3821 -10.0162
# 4 11.2981 5.6227 17.8815 40.9458 -11.3495 -1.5754
# 5 7.4468 6.6129 -2.3821 -11.3495 24.3872 5.1218
# 6 -10.9803 -3.5503 -10.0162 -1.5754 5.1218 30.0609
#
#
#
# Elastic Compliance Matrix: (Units=1/GPa)
#
#
# Indices 1 2 3 4 5 6 
#
# 1 0.021902 -0.006968 -0.001968 -0.006619 -0.009715 0.007830
# 2 -0.006968 0.033837 -0.002979 -0.004012 -0.009601 0.001884
# 3 -0.001968 -0.002979 0.010659 -0.003522 0.000341 0.002238
# 4 -0.006619 -0.004012 -0.003522 0.033542 0.019559 -0.005640
# 5 -0.009715 -0.009601 0.000341 0.019559 0.058551 -0.013520
# 6 0.007830 0.001884 0.002238 -0.005640 -0.013520 0.039102
#
#
# Mechanical properties :
#
#
# Convention : Reuss Voigt Hill
#
# Bulk Modulus (GPa) = 23.49188 36.79978 30.14583
# Shear Modulus (GPa) = 21.22132 29.34776 25.28454
#
# Velocity S-wave (km/s) = 2.93485 3.45133 3.20351
# Velocity P-wave (km/s) = 4.58468 5.55145 5.09106
#
# Compressibility (1/GPa) = 0.04256791
#
# Stress axis : x y z
#
# Youngs Moduli (GPa) = 45.65847 29.55334 93.81798
#
# Poissons Ratio (x) = 0.20592 0.18461
# Poissons Ratio (y) = 0.31814 0.27951
# Poissons Ratio (z) = 0.08984 0.08805
#
# Static dielectric constant tensor:
#      x y z
#    x 2.050650 0.070860 -0.006190 
#    y 0.070860 1.987310 0.000040 
#    z -0.006190 0.000040 1.908680 
# 
# From -- ./inp_files/269642.got.cif
#   From: 2010.05.17/outbox.cif.g08.bks.cpg/sg2_135_cif.got.tgz:269642.got - 2010.06.03 11:33:40.
