data_PCOD9001013
_publ_section_title
;
Structure prediction by ZEFSAII (Michael W. Deem and Ramdas Pophale) SiO2 
 PCOD9001013
Probable space group: P -1
;
_chemical_formula_sum "Si O2"
_cell_formula_units_Z 12
_cell_length_a 9.641406
_cell_length_b 10.599582
_cell_length_c 12.393449
_cell_angle_alpha 69.680329
_cell_angle_beta 49.509343
_cell_angle_gamma 107.711351
_cell_volume 604.828898
_symmetry_space_group_name_H-M "P -1"
_symmetry_group_IT_number 2
_symmetry_cell_setting 'triclinic'
loop_
_space_group_symop_operation_xyz
x,y,z
-x,-y,-z
loop_
_atom_site_type_symbol
_atom_site_label
_atom_site_fract_x
_atom_site_fract_y
_atom_site_fract_z
Si Si1 0.391182 0.841757 0.195128
Si Si2 0.124574 0.860984 0.702835
Si Si3 0.825204 0.529705 0.673975
Si Si4 0.630500 0.066456 0.233179
Si Si5 0.160196 0.562610 0.083327
Si Si6 0.766555 0.784516 0.737100
O O1 0.396055 0.688286 0.203392
O O2 0.531336 0.945677 0.208330
O O3 0.070981 0.694974 0.420146
O O4 0.500000 0.000000 0.000000
O O5 0.373103 0.989953 0.451978
O O6 0.888019 0.821401 0.783002
O O7 0.235005 0.954281 0.737632
O O8 0.000704 0.642560 0.835239
O O9 0.737834 0.623209 0.742112
O O10 0.944452 0.505398 0.720648
O O11 0.836521 0.295541 0.021459
O O12 0.479579 0.700565 0.897336
O O13 0.000000 0.000000 0.500000
#
# Coordination Sequence:
#
# PCOD9001013 Si02
#       6
#     2   2   2   2   2   2
#     4  11  20  35  56  79 119 149 183 228 271 339
#     4  10  21  34  54  86 115 139 184 238 282 322
#     4  10  21  33  53  87 108 144 195 225 272 325
#     4  11  20  35  55  86 113 144 182 234 288 320
#     4  11  19  36  58  83 112 144 187 234 278 330
#     4  11  20  37  60  83 112 149 189 232 279 327
#
# _framework density 19.840322
#
# number of rings (size 3 to 8) (size 9 to 14) (size 15 to 20)
#    0.000    1.333    6.667    2.500    0.000    0.000 
#    0.000    0.000    0.000    5.000    0.000    0.000 
#    0.000    0.000    0.000    0.000    0.000    0.000 
#
# Total GULP energy -66934.845350 kJ/mol
# GULP energy per Si atom -5577.903779 kJ/mol
# Density = 1.979516 g / cm^3
# Si number density = 19.840322 Si / 1000 Ang^3
#
#
#
# Elastic Constant Matrix: (Units=GPa)
#
#
# Indices 1 2 3 4 5 6 
#
# 1 67.3336 42.1502 20.0947 10.9789 22.6865 19.8387
# 2 42.1502 81.6240 22.9950 -0.5114 27.3175 33.7654
# 3 20.0947 22.9950 118.8808 -6.7713 25.0419 6.1821
# 4 10.9789 -0.5114 -6.7713 32.4793 -5.0641 4.4925
# 5 22.6865 27.3175 25.0419 -5.0641 29.2241 6.0726
# 6 19.8387 33.7654 6.1821 4.4925 6.0726 29.7372
#
#
#
# Elastic Compliance Matrix: (Units=1/GPa)
#
#
# Indices 1 2 3 4 5 6 
#
# 1 0.028187 -0.006503 -0.000437 -0.011353 -0.016080 -0.006331
# 2 -0.006503 0.036827 0.000641 0.004109 -0.022211 -0.033695
# 3 -0.000437 0.000641 0.010307 0.001083 -0.008704 -0.000965
# 4 -0.011353 0.004109 0.001083 0.037475 0.011651 -0.005358
# 5 -0.016080 -0.022211 -0.008704 0.011651 0.072538 0.021184
# 6 -0.006331 -0.033695 -0.000965 -0.005358 0.021184 0.072795
#
#
# Mechanical properties :
#
#
# Convention : Reuss Voigt Hill
#
# Bulk Modulus (GPa) = 15.94332 48.70202 32.32267
# Shear Modulus (GPa) = 17.14475 30.46137 23.80306
#
# Velocity S-wave (km/s) = 2.94281 3.92257 3.46747
# Velocity P-wave (km/s) = 4.42720 6.71683 5.68840
#
# Compressibility (1/GPa) = 0.06272221
#
# Stress axis : x y z
#
# Youngs Moduli (GPa) = 35.47759 27.15398 97.02198
#
# Poissons Ratio (x) = 0.17659 0.04238
# Poissons Ratio (y) = 0.23072 -0.06218
# Poissons Ratio (z) = 0.01550 -0.01740
#
# Static dielectric constant tensor:
#      x y z
#    x 1.710020 0.021040 -0.001130 
#    y 0.021040 1.751320 0.010590 
#    z -0.001130 0.010590 1.761850 
# 
# From -- ./inp_files/247296.got.cif
#   From: 2010.05.17/outbox.cif.g08.bks.cpg/sg2_124_cif.got.tgz:247296.got - 2010.06.03 11:33:40.
