data_PCOD9001210
_publ_section_title
;
Structure prediction by ZEFSAII (Michael W. Deem and Ramdas Pophale) SiO2 
 PCOD9001210
Probable space group: P -1
;
_chemical_formula_sum "Si O2"
_cell_formula_units_Z 14
_cell_length_a 17.067504
_cell_length_b 8.175953
_cell_length_c 6.931838
_cell_angle_alpha 58.467059
_cell_angle_beta 124.170428
_cell_angle_gamma 126.648874
_cell_volume 615.880843
_symmetry_space_group_name_H-M "P -1"
_symmetry_group_IT_number 2
_symmetry_cell_setting 'triclinic'
loop_
_space_group_symop_operation_xyz
x,y,z
-x,-y,-z
loop_
_atom_site_type_symbol
_atom_site_label
_atom_site_fract_x
_atom_site_fract_y
_atom_site_fract_z
Si Si1 0.414859 0.338653 0.253772
Si Si2 0.177125 0.839819 0.574460
Si Si3 0.834342 0.569390 0.401744
Si Si4 0.827585 0.906741 0.931499
Si Si5 0.968983 0.271700 0.190910
Si Si6 0.601740 0.345384 0.247047
Si Si7 0.413678 0.041710 0.736039
O O1 0.296008 0.161538 0.154227
O O2 0.508049 0.332424 0.258878
O O3 0.433492 0.270602 0.536476
O O4 0.410258 0.554806 0.038215
O O5 0.157286 0.644069 0.521893
O O6 0.104955 0.761384 0.706784
O O7 0.299880 0.944422 0.738178
O O8 0.155754 0.011996 0.313910
O O9 0.719411 0.501384 0.376002
O O10 0.922914 0.714601 0.581026
O O11 0.843061 0.699553 0.136992
O O12 0.905824 0.090942 0.062596
O O13 0.000000 0.500000 0.000000
O O14 0.599139 0.115062 0.364987
O O15 0.500000 0.000000 0.000000
#
# Coordination Sequence:
#
# PCOD9001210 Si02
#       7
#     2   2   2   2   2   2   2
#     4   9  19  37  60  83 115 150 188 236 290 337
#     4  10  23  43  58  86 123 155 192 250 294 340
#     4  10  21  41  61  86 122 157 198 236 296 349
#     4  10  22  41  63  88 117 158 197 241 292 351
#     4  12  24  39  64  88 119 155 199 246 292 348
#     4   9  19  36  60  83 114 152 187 237 283 342
#     4  10  21  34  57  85 116 149 190 232 290 349
#
# _framework density 22.731672
#
# number of rings (size 3 to 8) (size 9 to 14) (size 15 to 20)
#    0.000    2.000    1.429    1.286    2.000    2.286 
#    2.571    0.000    0.000    0.000    0.000    0.000 
#    0.000    0.000    0.000    0.000    0.000    0.000 
#
# Total GULP energy -78150.809721 kJ/mol
# GULP energy per Si atom -5582.200694 kJ/mol
# Density = 2.267993 g / cm^3
# Si number density = 22.731672 Si / 1000 Ang^3
#
#
#
# Elastic Constant Matrix: (Units=GPa)
#
#
# Indices 1 2 3 4 5 6 
#
# 1 64.3658 26.2947 32.9931 -0.9192 -1.2357 31.5141
# 2 26.2947 77.9530 34.3335 -14.9525 3.0398 23.2685
# 3 32.9931 34.3335 122.7910 -6.6384 18.9393 32.5837
# 4 -0.9192 -14.9525 -6.6384 45.2991 7.7471 7.8803
# 5 -1.2357 3.0398 18.9393 7.7471 32.9424 -6.0234
# 6 31.5141 23.2685 32.5837 7.8803 -6.0234 31.0985
#
#
#
# Elastic Compliance Matrix: (Units=1/GPa)
#
#
# Indices 1 2 3 4 5 6 
#
# 1 0.037474 0.004884 0.007105 0.016201 -0.017275 -0.056525
# 2 0.004884 0.023198 0.004402 0.016828 -0.014666 -0.034023
# 3 0.007105 0.004402 0.019621 0.015067 -0.022123 -0.039155
# 4 0.016201 0.016828 0.015067 0.046572 -0.032044 -0.062804
# 5 -0.017275 -0.014666 -0.022123 -0.032044 0.064532 0.072278
# 6 -0.056525 -0.034023 -0.039155 -0.062804 0.072278 0.185832
#
#
# Mechanical properties :
#
#
# Convention : Reuss Voigt Hill
#
# Bulk Modulus (GPa) = 8.84377 50.26139 29.55258
# Shear Modulus (GPa) = 13.08429 33.30058 23.19243
#
# Velocity S-wave (km/s) = 2.40176 3.83161 3.19763
# Velocity P-wave (km/s) = 3.40444 6.46016 5.16352
#
# Compressibility (1/GPa) = 0.11307397
#
# Stress axis : x y z
#
# Youngs Moduli (GPa) = 26.68520 43.10791 50.96627
#
# Poissons Ratio (x) = -0.21053 -0.36214
# Poissons Ratio (y) = -0.13032 -0.22434
# Poissons Ratio (z) = -0.18961 -0.18975
#
# Static dielectric constant tensor:
#      x y z
#    x 1.798790 0.022180 0.031520 
#    y 0.022180 1.865510 0.024300 
#    z 0.031520 0.024300 1.896260 
# 
# From -- ./inp_files/37561.got.cif
#   From: 2010.05.17/outbox.cif.g08.bks.cpg/sg2_19_cif.got.tgz:37561.got - 2010.06.03 11:33:40.
