data_PCOD9001613
_publ_section_title
;
Structure prediction by ZEFSAII (Michael W. Deem and Ramdas Pophale) SiO2 
 PCOD9001613
Probable space group: P -1
;
_chemical_formula_sum "Si O2"
_cell_formula_units_Z 16
_cell_length_a 9.841172
_cell_length_b 12.008754
_cell_length_c 9.412367
_cell_angle_alpha 142.457840
_cell_angle_beta 96.402993
_cell_angle_gamma 86.462266
_cell_volume 672.924174
_symmetry_space_group_name_H-M "P -1"
_symmetry_group_IT_number 2
_symmetry_cell_setting 'triclinic'
loop_
_space_group_symop_operation_xyz
x,y,z
-x,-y,-z
loop_
_atom_site_type_symbol
_atom_site_label
_atom_site_fract_x
_atom_site_fract_y
_atom_site_fract_z
Si Si1 0.186028 0.116567 0.713439
Si Si2 0.562302 0.470076 0.634737
Si Si3 0.827135 0.080791 0.938936
Si Si4 0.091616 0.853717 0.677411
Si Si5 0.856418 0.500447 0.828930
Si Si6 0.515536 0.761688 0.143863
Si Si7 0.534826 0.933772 0.780830
Si Si8 0.222322 0.767615 0.202327
O O1 0.326843 0.214857 0.767803
O O2 0.186766 0.989466 0.726839
O O3 0.154209 0.955398 0.434415
O O4 0.096484 0.290751 0.917716
O O5 0.500000 0.500000 0.500000
O O6 0.722735 0.522211 0.733374
O O7 0.538985 0.258559 0.446720
O O8 0.491467 0.578935 0.863340
O O9 0.802880 0.231744 0.968250
O O10 0.697866 0.937863 0.786114
O O11 0.841087 0.171410 0.186768
O O12 0.957894 0.966442 0.803280
O O13 0.062425 0.657013 0.400842
O O14 0.821221 0.401207 0.874246
O O15 0.388609 0.786258 0.257350
O O16 0.510490 0.920316 0.188545
O O17 0.500000 0.000000 0.000000
#
# Coordination Sequence:
#
# PCOD9001613 Si02
#       8
#     2   2   2   2   2   2   2   2
#     4  10  21  39  64  88 122 166 205 242 306 371
#     4  11  22  34  58  95 123 156 199 249 299 374
#     4  10  23  40  66  90 122 158 209 255 306 358
#     4  10  22  45  62  87 121 162 207 262 298 358
#     4  10  23  40  64  88 127 164 203 247 312 363
#     4  10  21  35  59  91 124 157 198 246 309 365
#     4  11  19  35  60  89 120 159 191 245 307 361
#     4  10  22  40  60  91 125 162 201 256 308 365
#
# _framework density 23.776824999999999
#
# number of rings (size 3 to 8) (size 9 to 14) (size 15 to 20)
#    0.000    1.750    1.250    3.375    3.500    7.000 
#    0.000    8.750    0.000    0.000    0.000    0.000 
#    0.000    0.000    0.000    0.000    0.000    0.000 
#
# Total GULP energy -89392.688165 kJ/mol
# GULP energy per Si atom -5587.043010 kJ/mol
# Density = 2.372271 g / cm^3
# Si number density = 23.776825 Si / 1000 Ang^3
#
#
#
# Elastic Constant Matrix: (Units=GPa)
#
#
# Indices 1 2 3 4 5 6 
#
# 1 73.1484 -4.9006 7.3762 -4.9711 -4.5686 4.7222
# 2 -4.9006 112.9432 53.2557 -10.1844 2.5873 -5.7726
# 3 7.3762 53.2557 147.2244 24.4927 -3.5936 8.3059
# 4 -4.9711 -10.1844 24.4927 49.7812 -4.6260 1.7495
# 5 -4.5686 2.5873 -3.5936 -4.6260 29.6438 -3.6179
# 6 4.7222 -5.7726 8.3059 1.7495 -3.6179 23.9448
#
#
#
# Elastic Compliance Matrix: (Units=1/GPa)
#
#
# Indices 1 2 3 4 5 6 
#
# 1 0.014362 0.001463 -0.001553 0.002757 0.002105 -0.001824
# 2 0.001463 0.012264 -0.005626 0.005257 -0.000193 0.004206
# 3 -0.001553 -0.005626 0.010163 -0.006160 0.000019 -0.004122
# 4 0.002757 0.005257 -0.006160 0.024719 0.003266 0.001548
# 5 0.002105 -0.000193 0.000019 0.003266 0.035149 0.004604
# 6 -0.001824 0.004206 -0.004122 0.001548 0.004604 0.045149
#
#
# Mechanical properties :
#
#
# Convention : Reuss Voigt Hill
#
# Bulk Modulus (GPa) = 39.43855 49.41984 44.42920
# Shear Modulus (GPa) = 30.92325 39.17961 35.05143
#
# Velocity S-wave (km/s) = 3.61024 4.06372 3.84368
# Velocity P-wave (km/s) = 5.83108 6.54587 6.19879
#
# Compressibility (1/GPa) = 0.02535590
#
# Stress axis : x y z
#
# Youngs Moduli (GPa) = 69.62787 81.54063 98.39509
#
# Poissons Ratio (x) = -0.11926 0.15281
# Poissons Ratio (y) = -0.10184 0.55358
# Poissons Ratio (z) = 0.10813 0.45876
#
# Static dielectric constant tensor:
#      x y z
#    x 2.043890 -0.025610 0.011030 
#    y -0.025610 1.864890 -0.035070 
#    z 0.011030 -0.035070 1.892470 
# 
# From -- ./inp_files/261024.got.cif
#   From: 2010.05.17/outbox.cif.g08.bks.cpg/sg2_131_cif.got.tgz:261024.got - 2010.06.03 11:33:40.
