data_PCOD9001052
_publ_section_title
;
Structure prediction by ZEFSAII (Michael W. Deem and Ramdas Pophale) SiO2 
 PCOD9001052
Probable space group: P -1
;
_chemical_formula_sum "Si O2"
_cell_formula_units_Z 16
_cell_length_a 20.812547
_cell_length_b 22.595787
_cell_length_c 13.941194
_cell_angle_alpha 152.571506
_cell_angle_beta 26.885801
_cell_angle_gamma 166.582961
_cell_volume 675.308335
_symmetry_space_group_name_H-M "P -1"
_symmetry_group_IT_number 2
_symmetry_cell_setting 'triclinic'
loop_
_space_group_symop_operation_xyz
x,y,z
-x,-y,-z
loop_
_atom_site_type_symbol
_atom_site_label
_atom_site_fract_x
_atom_site_fract_y
_atom_site_fract_z
Si Si1 0.463852 0.329370 0.263327
Si Si2 0.011405 0.439218 0.537040
Si Si3 0.357050 0.788060 0.134657
Si Si4 0.323708 0.538050 0.544764
Si Si5 0.695996 0.011473 0.636021
Si Si6 0.167864 0.821349 0.771747
Si Si7 0.174567 0.261596 0.785499
Si Si8 0.545277 0.397664 0.744489
O O1 0.500000 0.500000 0.500000
O O2 0.669747 0.505141 0.148387
O O3 0.598464 0.315052 0.120928
O O4 0.122526 0.033055 0.282567
O O5 0.041645 0.595258 0.665084
O O6 0.294240 0.574086 0.357290
O O7 0.936026 0.413173 0.709074
O O8 0.788657 0.177043 0.395196
O O9 0.406734 0.947107 0.228774
O O10 0.571130 0.945281 0.167936
O O11 0.580260 0.651252 0.404320
O O12 0.271069 0.443692 0.369914
O O13 0.016677 0.288964 0.645023
O O14 0.462773 0.787625 0.703801
O O15 0.704353 0.888416 0.380821
O O16 0.942844 0.761084 0.995430
O O17 0.500000 0.500000 0.000000
#
# Coordination Sequence:
#
# PCOD9001052 Si02
#       8
#     2   2   2   2   2   2   2   2
#     4  11  25  42  71  98 121 156 204 262 325 378
#     4  11  19  36  53  88 126 165 214 250 300 364
#     4  11  20  40  60  87 126 164 211 259 316 366
#     4  10  21  38  59  86 120 166 205 243 307 360
#     4  10  21  37  59  84 116 169 209 247 305 360
#     4  10  21  33  57  87 123 166 207 252 304 367
#     4  11  22  43  64  93 131 159 201 258 317 370
#     4  10  21  35  52  86 121 168 215 254 289 354
#
# _framework density 23.692882000000001
#
# number of rings (size 3 to 8) (size 9 to 14) (size 15 to 20)
#    0.750    0.750    3.750    2.250    0.000    0.500 
#    0.000    0.000    0.000    4.500    0.000    0.000 
#    0.000    0.000    0.000    0.000    0.000    0.000 
#
# Total GULP energy -89134.293097 kJ/mol
# GULP energy per Si atom -5570.893319 kJ/mol
# Density = 2.363896 g / cm^3
# Si number density = 23.692882 Si / 1000 Ang^3
#
#
#
# Elastic Constant Matrix: (Units=GPa)
#
#
# Indices 1 2 3 4 5 6 
#
# 1 50.9310 25.6932 26.1028 9.0878 -21.4047 -1.2184
# 2 25.6932 148.3988 28.6027 12.0827 -14.5267 4.9761
# 3 26.1028 28.6027 124.1115 6.8798 -28.8202 2.1332
# 4 9.0878 12.0827 6.8798 27.2684 -4.0080 -9.1422
# 5 -21.4047 -14.5267 -28.8202 -4.0080 35.8579 3.4963
# 6 -1.2184 4.9761 2.1332 -9.1422 3.4963 28.6299
#
#
#
# Elastic Compliance Matrix: (Units=1/GPa)
#
#
# Indices 1 2 3 4 5 6 
#
# 1 0.029026 -0.002680 -0.001770 -0.006620 0.014275 -0.002024
# 2 -0.002680 0.007771 -0.000835 -0.003054 0.000777 -0.002473
# 3 -0.001770 -0.000835 0.010345 -0.001284 0.006967 -0.001962
# 4 -0.006620 -0.003054 -0.001284 0.045235 -0.002638 0.015111
# 5 0.014275 0.000777 0.006967 -0.002638 0.042623 -0.006094
# 6 -0.002024 -0.002473 -0.001962 0.015111 -0.006094 0.040988
#
#
# Mechanical properties :
#
#
# Convention : Reuss Voigt Hill
#
# Bulk Modulus (GPa) = 27.34392 53.80430 40.57411
# Shear Modulus (GPa) = 25.15737 34.55407 29.85572
#
# Velocity S-wave (km/s) = 3.26208 3.82306 3.55366
# Velocity P-wave (km/s) = 5.07487 6.49970 5.83097
#
# Compressibility (1/GPa) = 0.03657119
#
# Stress axis : x y z
#
# Youngs Moduli (GPa) = 34.45194 128.67989 96.66694
#
# Poissons Ratio (x) = 0.34485 0.17114
# Poissons Ratio (y) = 0.09233 0.08072
# Poissons Ratio (z) = 0.06099 0.10745
#
# Static dielectric constant tensor:
#      x y z
#    x 1.981330 0.031080 0.072810 
#    y 0.031080 1.949440 -0.005180 
#    z 0.072810 -0.005180 1.982140 
# 
# From -- ./inp_files/579978.got.cif
#   From: 2010.05.17/outbox.cif.g08.bks.cpg/sg2_290_cif.got.tgz:579978.got - 2010.06.03 11:33:40.
