data_PCOD9001486
_publ_section_title
;
Structure prediction by ZEFSAII (Michael W. Deem and Ramdas Pophale) SiO2 
 PCOD9001486
Probable space group: P -1
;
_chemical_formula_sum "Si O2"
_cell_formula_units_Z 16
_cell_length_a 22.418612
_cell_length_b 12.115017
_cell_length_c 18.141568
_cell_angle_alpha 35.949210
_cell_angle_beta 156.537585
_cell_angle_gamma 157.279402
_cell_volume 735.943243
_symmetry_space_group_name_H-M "P -1"
_symmetry_group_IT_number 2
_symmetry_cell_setting 'triclinic'
loop_
_space_group_symop_operation_xyz
x,y,z
-x,-y,-z
loop_
_atom_site_type_symbol
_atom_site_label
_atom_site_fract_x
_atom_site_fract_y
_atom_site_fract_z
Si Si1 0.922506 0.812901 0.915596
Si Si2 0.506319 0.160401 0.763048
Si Si3 0.521154 0.289850 0.029510
Si Si4 0.600401 0.895701 0.645375
Si Si5 0.894953 0.392726 0.604206
Si Si6 0.337555 0.611599 0.033114
Si Si7 0.220559 0.315873 0.617423
Si Si8 0.032574 0.780136 0.351770
O O1 0.736246 0.508453 0.822551
O O2 0.953873 0.039777 0.789881
O O3 0.784563 0.688450 0.905167
O O4 0.168944 0.945517 0.133506
O O5 0.556692 0.995892 0.884304
O O6 0.267831 0.009703 0.541140
O O7 0.479987 0.143900 0.831281
O O8 0.574366 0.331062 0.979361
O O9 0.772014 0.559279 0.207482
O O10 0.341893 0.288224 0.827431
O O11 0.398423 0.553208 0.624743
O O12 0.500000 0.000000 0.500000
O O13 0.693341 0.048658 0.587063
O O14 0.837784 0.548827 0.477802
O O15 0.959451 0.406116 0.585926
O O16 0.124067 0.552452 0.823336
O O17 0.000000 0.000000 0.500000
#
# Coordination Sequence:
#
# PCOD9001486 Si02
#       8
#     2   2   2   2   2   2   2   2
#     4   9  19  35  59  87 114 148 190 236 284 335
#     4  10  21  35  56  87 120 153 189 232 282 344
#     4  11  21  35  58  86 116 150 190 243 289 330
#     4   9  18  34  57  85 115 144 187 242 290 322
#     4   9  20  37  57  86 116 146 185 242 290 332
#     4   8  19  34  61  83 115 136 194 238 287 320
#     4  11  22  35  57  86 113 148 192 236 288 340
#     4  11  21  37  59  85 120 154 190 229 289 343
#
# _framework density 21.740808000000001
#
# number of rings (size 3 to 8) (size 9 to 14) (size 15 to 20)
#    0.750    1.500    1.250    1.875    3.500    2.500 
#    0.000    0.625    0.000    4.500    0.000    0.000 
#    0.000    0.000    0.000    0.000    0.000    0.000 
#
# Total GULP energy -89204.636052 kJ/mol
# GULP energy per Si atom -5575.289753 kJ/mol
# Density = 2.169132 g / cm^3
# Si number density = 21.740808 Si / 1000 Ang^3
#
#
#
# Elastic Constant Matrix: (Units=GPa)
#
#
# Indices 1 2 3 4 5 6 
#
# 1 35.5633 4.0084 28.0708 11.1503 6.0575 -6.3003
# 2 4.0084 127.9738 31.4416 9.4372 9.4545 -12.6322
# 3 28.0708 31.4416 158.3270 9.2807 5.2687 -26.4184
# 4 11.1503 9.4372 9.2807 40.1043 -9.2997 -0.7569
# 5 6.0575 9.4545 5.2687 -9.2997 28.6413 -1.9403
# 6 -6.3003 -12.6322 -26.4184 -0.7569 -1.9403 22.3371
#
#
#
# Elastic Compliance Matrix: (Units=1/GPa)
#
#
# Indices 1 2 3 4 5 6 
#
# 1 0.039018 0.002387 -0.005517 -0.012808 -0.011888 0.004363
# 2 0.002387 0.008968 -0.001235 -0.003360 -0.004070 0.003817
# 3 -0.005517 -0.001235 0.008910 0.000039 0.000512 0.008329
# 4 -0.012808 -0.003360 0.000039 0.032500 0.014151 -0.003136
# 5 -0.011888 -0.004070 0.000512 0.014151 0.043218 -0.000816
# 6 0.004363 0.003817 0.008329 -0.003136 -0.000816 0.057832
#
#
# Mechanical properties :
#
#
# Convention : Reuss Voigt Hill
#
# Bulk Modulus (GPa) = 20.76171 49.87841 35.32006
# Shear Modulus (GPa) = 23.23079 35.43944 29.33511
#
# Velocity S-wave (km/s) = 3.27239 4.04182 3.67728
# Velocity P-wave (km/s) = 4.88349 6.69132 5.85757
#
# Compressibility (1/GPa) = 0.04816559
#
# Stress axis : x y z
#
# Youngs Moduli (GPa) = 25.62894 111.50780 112.23374
#
# Poissons Ratio (x) = -0.26615 0.61925
# Poissons Ratio (y) = -0.06117 0.13858
# Poissons Ratio (z) = 0.14141 0.13769
#
# Static dielectric constant tensor:
#      x y z
#    x 1.834470 0.025140 -0.006980 
#    y 0.025140 1.879490 -0.027650 
#    z -0.006980 -0.027650 1.821440 
# 
# From -- ./inp_files/602441.got.cif
#   From: 2010.05.17/outbox.cif.g08.bks.cpg/sg2_302_cif.got.tgz:602441.got - 2010.06.03 11:33:40.
