data_PCOD9001668
_publ_section_title
;
Structure prediction by ZEFSAII (Michael W. Deem and Ramdas Pophale) SiO2 
 PCOD9001668
Probable space group: P -1
;
_chemical_formula_sum "Si O2"
_cell_formula_units_Z 16
_cell_length_a 9.641201
_cell_length_b 9.425119
_cell_length_c 13.067182
_cell_angle_alpha 81.931343
_cell_angle_beta 97.367600
_cell_angle_gamma 43.669055
_cell_volume 764.560856
_symmetry_space_group_name_H-M "P -1"
_symmetry_group_IT_number 2
_symmetry_cell_setting 'triclinic'
loop_
_space_group_symop_operation_xyz
x,y,z
-x,-y,-z
loop_
_atom_site_type_symbol
_atom_site_label
_atom_site_fract_x
_atom_site_fract_y
_atom_site_fract_z
Si Si1 0.494661 0.228333 0.043416
Si Si2 0.580593 0.024425 0.851219
Si Si3 0.243707 0.715302 0.347550
Si Si4 0.040132 0.062958 0.895848
Si Si5 0.969284 0.353170 0.010328
Si Si6 0.741707 0.662482 0.386029
Si Si7 0.935792 0.793990 0.458963
Si Si8 0.466427 0.758359 0.514890
O O1 0.465915 0.109474 0.123929
O O2 0.715115 0.138225 0.097448
O O3 0.275595 0.486717 0.001843
O O4 0.518571 0.149181 0.938743
O O5 0.834826 0.850475 0.879749
O O6 0.435718 0.196694 0.731132
O O7 0.375132 0.738710 0.412083
O O8 0.401249 0.456311 0.382202
O O9 0.129661 0.836570 0.218220
O O10 0.062313 0.810406 0.402229
O O11 0.012986 0.247723 0.915038
O O12 0.000000 0.000000 0.000000
O O13 0.000000 0.500000 0.000000
O O14 0.871471 0.709678 0.389985
O O15 0.629381 0.741954 0.478878
O O16 0.900170 0.404442 0.424543
O O17 0.726775 0.020736 0.466657
#
# Coordination Sequence:
#
# PCOD9001668 Si02
#       8
#     2   2   2   2   2   2   2   2
#     4   9  19  37  56  84 119 161 203 238 298 369
#     4   9  18  34  58  86 122 157 193 252 303 354
#     4  10  23  41  62  84 123 163 203 246 306 367
#     4  11  24  39  60  89 129 159 198 258 303 358
#     4   9  20  38  60  86 116 157 209 243 297 370
#     4  10  21  35  60  92 125 148 199 262 305 353
#     4  10  21  40  60  91 119 156 207 249 306 366
#     4  10  22  40  62  87 118 163 204 248 302 366
#
# _framework density 20.927046000000001
#
# number of rings (size 3 to 8) (size 9 to 14) (size 15 to 20)
#    0.000    2.250    0.000    2.250    3.500    4.500 
#    0.000    0.000    0.000    0.000    0.000    0.000 
#    0.000    0.000    0.000    0.000    0.000    0.000 
#
# Total GULP energy -89319.342139 kJ/mol
# GULP energy per Si atom -5582.458884 kJ/mol
# Density = 2.087941 g / cm^3
# Si number density = 20.927046 Si / 1000 Ang^3
#
#
#
# Elastic Constant Matrix: (Units=GPa)
#
#
# Indices 1 2 3 4 5 6 
#
# 1 70.8418 18.9712 23.5008 -15.8329 3.5666 -18.8049
# 2 18.9712 102.3115 27.1960 -10.2768 0.5838 -42.1253
# 3 23.5008 27.1960 100.9006 -39.4136 18.1452 -11.8383
# 4 -15.8329 -10.2768 -39.4136 20.5009 -9.5489 9.8092
# 5 3.5666 0.5838 18.1452 -9.5489 27.3483 -4.5410
# 6 -18.8049 -42.1253 -11.8383 9.8092 -4.5410 42.6795
#
#
#
# Elastic Compliance Matrix: (Units=1/GPa)
#
#
# Indices 1 2 3 4 5 6 
#
# 1 0.018672 -0.000827 0.004335 0.021863 0.002989 0.003906
# 2 -0.000827 0.019492 -0.011848 -0.022172 0.003304 0.021035
# 3 0.004335 -0.011848 0.049958 0.102363 -0.000965 -0.019556
# 4 0.021863 -0.022172 0.102363 0.283472 0.020915 -0.046784
# 5 0.002989 0.003304 -0.000965 0.020915 0.044756 0.004265
# 6 0.003906 0.021035 -0.019556 -0.046784 0.004265 0.051696
#
#
# Mechanical properties :
#
#
# Convention : Reuss Voigt Hill
#
# Bulk Modulus (GPa) = 13.99739 45.93222 29.96481
# Shear Modulus (GPa) = 9.83205 31.73148 20.78176
#
# Velocity S-wave (km/s) = 2.16990 3.89818 3.15470
# Velocity P-wave (km/s) = 3.60293 6.50058 5.25541
#
# Compressibility (1/GPa) = 0.07144187
#
# Stress axis : x y z
#
# Youngs Moduli (GPa) = 53.55571 51.30326 20.01662
#
# Poissons Ratio (x) = 0.04245 -0.08677
# Poissons Ratio (y) = 0.04431 0.23716
# Poissons Ratio (z) = -0.23217 0.60784
#
# Static dielectric constant tensor:
#      x y z
#    x 1.792040 0.009200 0.003980 
#    y 0.009200 1.767210 -0.024680 
#    z 0.003980 -0.024680 1.714420 
# 
# From -- ./inp_files/381984.got.cif
#   From: 2010.05.17/outbox.cif.g08.bks.cpg/sg2_191_cif.got.tgz:381984.got - 2010.06.03 11:33:40.
