data_PCOD9001315
_publ_section_title
;
Structure prediction by ZEFSAII (Michael W. Deem and Ramdas Pophale) SiO2 
 PCOD9001315
Probable space group: P -1
;
_chemical_formula_sum "Si O2"
_cell_formula_units_Z 10
_cell_length_a 5.728902
_cell_length_b 12.919687
_cell_length_c 6.587208
_cell_angle_alpha 86.697540
_cell_angle_beta 107.358195
_cell_angle_gamma 83.468054
_cell_volume 460.171813
_symmetry_space_group_name_H-M "P -1"
_symmetry_group_IT_number 2
_symmetry_cell_setting 'triclinic'
loop_
_space_group_symop_operation_xyz
x,y,z
-x,-y,-z
loop_
_atom_site_type_symbol
_atom_site_label
_atom_site_fract_x
_atom_site_fract_y
_atom_site_fract_z
Si Si1 0.407743 0.447196 0.680053
Si Si2 0.030935 0.086677 0.670681
Si Si3 0.470570 0.913786 0.330627
Si Si4 0.856814 0.408927 0.062586
Si Si5 0.843881 0.727887 0.547868
O O1 0.500000 0.500000 0.500000
O O2 0.291879 0.538522 0.788843
O O3 0.207419 0.372809 0.580633
O O4 0.648069 0.383921 0.856395
O O5 0.819917 0.081791 0.783216
O O6 0.325240 0.075151 0.792243
O O7 0.986555 0.199764 0.534875
O O8 0.000000 0.000000 0.500000
O O9 0.584535 0.803982 0.477099
O O10 0.500000 0.000000 0.500000
O O11 0.044804 0.312192 0.204021
O O12 0.000000 0.500000 0.000000
#
# Coordination Sequence:
#
# PCOD9001315 Si02
#       5
#     2   2   2   2   2
#     4  11  24  39  60  89 127 162 213 257 308 373
#     4   8  16  30  54  88 114 153 207 247 305 369
#     4   8  16  30  54  88 114 152 206 247 305 369
#     4  11  24  39  58  91 126 162 210 258 305 378
#     4  10  21  34  63  85 121 169 197 256 317 363
#
# _framework density 21.731016
#
# number of rings (size 3 to 8) (size 9 to 14) (size 15 to 20)
#    1.200    1.200    2.000    0.600    2.800    0.000 
#    0.000    0.000    0.000    2.400    0.000    0.000 
#    0.000    0.000    0.000    0.000    0.000    0.000 
#
# Total GULP energy -55685.308819 kJ/mol
# GULP energy per Si atom -5568.530882 kJ/mol
# Density = 2.168155 g / cm^3
# Si number density = 21.731016 Si / 1000 Ang^3
#
#
#
# Elastic Constant Matrix: (Units=GPa)
#
#
# Indices 1 2 3 4 5 6 
#
# 1 178.4468 0.6867 27.7301 -11.9215 -6.9600 8.5006
# 2 0.6867 71.8032 19.6779 -5.4793 7.3144 10.5163
# 3 27.7301 19.6779 67.1145 -5.8982 15.0271 0.8829
# 4 -11.9215 -5.4793 -5.8982 10.6312 -4.3996 1.0066
# 5 -6.9600 7.3144 15.0271 -4.3996 38.4758 -3.3193
# 6 8.5006 10.5163 0.8829 1.0066 -3.3193 36.6692
#
#
#
# Elastic Compliance Matrix: (Units=1/GPa)
#
#
# Indices 1 2 3 4 5 6 
#
# 1 0.006830 0.001383 -0.003162 0.008020 0.002964 -0.001856
# 2 0.001383 0.016588 -0.004525 0.007798 -0.000697 -0.005246
# 3 -0.003162 -0.004525 0.019236 0.001839 -0.006938 0.000889
# 4 0.008020 0.007798 0.001839 0.113523 0.011696 -0.006198
# 5 0.002964 -0.000697 -0.006938 0.011696 0.030892 0.002155
# 6 -0.001856 -0.005246 0.000889 -0.006198 0.002155 0.029549
#
#
# Mechanical properties :
#
#
# Convention : Reuss Voigt Hill
#
# Bulk Modulus (GPa) = 33.28114 45.95046 39.61580
# Shear Modulus (GPa) = 20.89940 35.10656 28.00298
#
# Velocity S-wave (km/s) = 3.10454 4.02369 3.59363
# Velocity P-wave (km/s) = 5.31029 6.54048 5.95722
#
# Compressibility (1/GPa) = 0.03004704
#
# Stress axis : x y z
#
# Youngs Moduli (GPa) = 146.41860 60.28397 51.98510
#
# Poissons Ratio (x) = -0.08337 0.16437
# Poissons Ratio (y) = -0.20250 0.23521
# Poissons Ratio (z) = 0.46296 0.27276
#
# Static dielectric constant tensor:
#      x y z
#    x 1.884650 -0.010330 0.030650 
#    y -0.010330 1.777260 -0.013380 
#    z 0.030650 -0.013380 1.766300 
# 
# From -- ./inp_files/2940.got.cif
#   From: 2010.05.17/outbox.cif.g08.bks.cpg/sg2_2_cif.got.tgz:2940.got - 2010.06.03 11:33:40.
