data_PCOD9001283
_publ_section_title
;
Structure prediction by ZEFSAII (Michael W. Deem and Ramdas Pophale) SiO2 
 PCOD9001283
Probable space group: P -1
;
_chemical_formula_sum "Si O2"
_cell_formula_units_Z 16
_cell_length_a 13.918675
_cell_length_b 5.130892
_cell_length_c 11.926806
_cell_angle_alpha 75.419236
_cell_angle_beta 79.991331
_cell_angle_gamma 110.646854
_cell_volume 738.247813
_symmetry_space_group_name_H-M "P -1"
_symmetry_group_IT_number 2
_symmetry_cell_setting 'triclinic'
loop_
_space_group_symop_operation_xyz
x,y,z
-x,-y,-z
loop_
_atom_site_type_symbol
_atom_site_label
_atom_site_fract_x
_atom_site_fract_y
_atom_site_fract_z
Si Si1 0.280468 0.851998 0.374965
Si Si2 0.314785 0.834034 0.705912
Si Si3 0.070806 0.257732 0.109433
Si Si4 0.679926 0.684157 0.509015
Si Si5 0.331132 0.094484 0.902630
Si Si6 0.501749 0.343793 0.300615
Si Si7 0.862555 0.738894 0.152281
Si Si8 0.191487 0.842201 0.156728
O O1 0.280570 0.572745 0.471367
O O2 0.213792 0.765776 0.284836
O O3 0.251841 0.062162 0.441806
O O4 0.404821 0.063063 0.296580
O O5 0.411859 0.760011 0.651756
O O6 0.200413 0.566450 0.738038
O O7 0.319084 0.136409 0.621998
O O8 0.331808 0.863768 0.833638
O O9 0.105937 0.557095 0.139804
O O10 0.149025 0.099185 0.142083
O O11 0.085676 0.321463 0.965746
O O12 0.951143 0.005319 0.173297
O O13 0.561065 0.560669 0.601711
O O14 0.436672 0.391731 0.826628
O O15 0.229686 0.162269 0.880026
O O16 0.299796 0.959900 0.046477
#
# Coordination Sequence:
#
# PCOD9001283 Si02
#       8
#     2   2   2   2   2   2   2   2
#     4  10  23  41  57  84 113 168 200 229 275 343
#     4  11  20  37  60  90 122 143 193 246 300 341
#     4  10  21  38  63  88 118 153 187 240 296 354
#     4  10  23  39  61  81 118 159 198 236 284 337
#     4  10  21  34  60  93 120 147 186 245 303 341
#     4   9  22  37  56  91 114 157 193 237 292 341
#     4   9  21  35  58  95 120 144 187 241 308 347
#     4  11  22  40  62  84 121 155 197 234 284 351
#
# _framework density 21.672941000000002
#
# number of rings (size 3 to 8) (size 9 to 14) (size 15 to 20)
#    0.750    1.250    1.250    1.875    5.250    3.000 
#    0.000    1.250    0.000    4.500    0.000    0.000 
#    0.000    0.000    0.000    0.000    0.000    0.000 
#
# Total GULP energy -89366.316124 kJ/mol
# GULP energy per Si atom -5585.394758 kJ/mol
# Density = 2.162361 g / cm^3
# Si number density = 21.672941 Si / 1000 Ang^3
#
#
#
# Elastic Constant Matrix: (Units=GPa)
#
#
# Indices 1 2 3 4 5 6 
#
# 1 28.4453 8.6357 7.8002 -4.4564 0.8082 2.5237
# 2 8.6357 95.8581 5.1347 -7.0488 3.2593 4.0232
# 3 7.8002 5.1347 27.4456 7.9227 12.0140 0.5069
# 4 -4.4564 -7.0488 7.9227 32.7758 2.6708 -1.1218
# 5 0.8082 3.2593 12.0140 2.6708 20.6531 0.8131
# 6 2.5237 4.0232 0.5069 -1.1218 0.8131 24.1576
#
#
#
# Elastic Compliance Matrix: (Units=1/GPa)
#
#
# Indices 1 2 3 4 5 6 
#
# 1 0.042082 -0.002342 -0.017399 0.008663 0.007862 -0.003503
# 2 -0.002342 0.011006 -0.001673 0.002481 -0.000937 -0.001406
# 3 -0.017399 -0.001673 0.059911 -0.014551 -0.032072 0.001243
# 4 0.008663 0.002481 -0.014551 0.035503 0.003122 0.000531
# 5 0.007862 -0.000937 -0.032072 0.003122 0.066594 -0.002089
# 6 -0.003503 -0.001406 0.001243 0.000531 -0.002089 0.042064
#
#
# Mechanical properties :
#
#
# Convention : Reuss Voigt Hill
#
# Bulk Modulus (GPa) = 14.25132 21.65446 17.95289
# Shear Modulus (GPa) = 15.46171 24.19588 19.82880
#
# Velocity S-wave (km/s) = 2.67387 3.34490 3.02803
# Velocity P-wave (km/s) = 4.01531 4.99309 4.53065
#
# Compressibility (1/GPa) = 0.07016896
#
# Stress axis : x y z
#
# Youngs Moduli (GPa) = 23.76306 90.85879 16.69153
#
# Poissons Ratio (x) = 0.21282 0.29042
# Poissons Ratio (y) = 0.05566 0.02793
# Poissons Ratio (z) = 0.41346 0.15204
#
# Static dielectric constant tensor:
#      x y z
#    x 1.783800 -0.012340 -0.034800 
#    y -0.012340 1.822590 0.011880 
#    z -0.034800 0.011880 1.801090 
# 
# From -- ./inp_files/96442.got.cif
#   From: 2010.05.17/outbox.cif.g08.bks.cpg/sg2_49_cif.got.tgz:96442.got - 2010.06.03 11:33:40.
