data_PCOD9001889
_publ_section_title
;
Structure prediction by ZEFSAII (Michael W. Deem and Ramdas Pophale) SiO2 
 PCOD9001889
Probable space group: P -1
;
_chemical_formula_sum "Si O2"
_cell_formula_units_Z 12
_cell_length_a 5.457083
_cell_length_b 8.300602
_cell_length_c 14.573771
_cell_angle_alpha 116.319596
_cell_angle_beta 112.365525
_cell_angle_gamma 104.749336
_cell_volume 470.471074
_symmetry_space_group_name_H-M "P -1"
_symmetry_group_IT_number 2
_symmetry_cell_setting 'triclinic'
loop_
_space_group_symop_operation_xyz
x,y,z
-x,-y,-z
loop_
_atom_site_type_symbol
_atom_site_label
_atom_site_fract_x
_atom_site_fract_y
_atom_site_fract_z
Si Si1 0.871611 0.255352 0.428862
Si Si2 0.145132 0.895093 0.804456
Si Si3 0.756126 0.945987 0.616881
Si Si4 0.145827 0.247859 0.094254
Si Si5 0.318258 0.682502 0.034973
Si Si6 0.719370 0.613524 0.201288
O O1 0.745808 0.172733 0.287035
O O2 0.601993 0.147600 0.438444
O O3 0.000000 0.500000 0.500000
O O4 0.138184 0.194050 0.461411
O O5 0.890410 0.939713 0.735489
O O6 0.987543 0.732210 0.822088
O O7 0.431369 0.111816 0.932763
O O8 0.960287 0.186092 0.674403
O O9 0.507551 0.416464 0.185733
O O10 0.987098 0.305264 0.004236
O O11 0.000000 0.000000 0.000000
O O12 0.497186 0.701330 0.158980
O O13 0.242367 0.487346 0.911271
#
# Coordination Sequence:
#
# PCOD9001889 Si02
#       6
#     2   2   2   2   2   2
#     4  10  21  40  66  90 115 151 212 268 308 358
#     4   9  22  34  58  89 120 162 202 255 298 359
#     4   9  22  38  63  90 117 156 208 251 313 365
#     4  12  23  34  57  90 134 167 203 242 305 360
#     4  10  21  36  53  85 126 170 204 242 292 374
#     4  10  22  36  57  86 125 171 200 248 296 370
#
# _framework density 25.506349
#
# number of rings (size 3 to 8) (size 9 to 14) (size 15 to 20)
#    1.000    1.000    1.667    1.500    4.667    0.000 
#    0.000    0.000    0.000    2.000    0.000    0.000 
#    0.000    0.000    0.000    0.000    0.000    0.000 
#
# Total GULP energy -66995.356092 kJ/mol
# GULP energy per Si atom -5582.946341 kJ/mol
# Density = 2.544830 g / cm^3
# Si number density = 25.506349 Si / 1000 Ang^3
#
#
#
# Elastic Constant Matrix: (Units=GPa)
#
#
# Indices 1 2 3 4 5 6 
#
# 1 151.6476 51.2828 54.4761 20.8276 3.8304 37.6716
# 2 51.2828 82.8376 47.7575 14.1812 17.1202 24.6789
# 3 54.4761 47.7575 109.9217 41.2769 -7.5295 11.9329
# 4 20.8276 14.1812 41.2769 46.1994 -3.9260 19.6384
# 5 3.8304 17.1202 -7.5295 -3.9260 26.4715 14.5887
# 6 37.6716 24.6789 11.9329 19.6384 14.5887 47.4264
#
#
#
# Elastic Compliance Matrix: (Units=1/GPa)
#
#
# Indices 1 2 3 4 5 6 
#
# 1 0.010740 -0.003354 -0.004077 0.004079 0.005016 -0.008992
# 2 -0.003354 0.024271 -0.011189 0.004604 -0.015317 -0.004345
# 3 -0.004077 -0.011189 0.022107 -0.017627 0.006682 0.008742
# 4 0.004079 0.004604 -0.017627 0.044886 0.010813 -0.023114
# 5 0.005016 -0.015317 0.006682 0.010813 0.062204 -0.021307
# 6 -0.008992 -0.004345 0.008742 -0.023114 -0.021307 0.044414
#
#
# Mechanical properties :
#
#
# Convention : Reuss Voigt Hill
#
# Bulk Modulus (GPa) = 50.31000 72.38218 61.34609
# Shear Modulus (GPa) = 19.80282 36.74552 28.27417
#
# Velocity S-wave (km/s) = 2.78940 3.79970 3.33305
# Velocity P-wave (km/s) = 5.49014 6.90579 6.23825
#
# Compressibility (1/GPa) = 0.01987676
#
# Stress axis : x y z
#
# Youngs Moduli (GPa) = 93.10979 41.20159 45.23396
#
# Poissons Ratio (x) = 0.13821 0.18443
# Poissons Ratio (y) = 0.31233 0.50612
# Poissons Ratio (z) = 0.37963 0.46100
#
# Static dielectric constant tensor:
#      x y z
#    x 2.131720 -0.030270 -0.002990 
#    y -0.030270 2.121820 0.027420 
#    z -0.002990 0.027420 1.992440 
# 
# From -- ./inp_files/41135.got.cif
#   From: 2010.05.17/outbox.cif.g08.bks.cpg/sg2_21_cif.got.tgz:41135.got - 2010.06.03 11:33:40.
