data_PCOD9001402
_publ_section_title
;
Structure prediction by ZEFSAII (Michael W. Deem and Ramdas Pophale) SiO2 
 PCOD9001402
Probable space group: P -1
;
_chemical_formula_sum "Si O2"
_cell_formula_units_Z 14
_cell_length_a 37.620955
_cell_length_b 18.549553
_cell_length_c 18.549068
_cell_angle_alpha 15.887272
_cell_angle_beta 166.882971
_cell_angle_gamma 165.568304
_cell_volume 691.300476
_symmetry_space_group_name_H-M "P -1"
_symmetry_group_IT_number 2
_symmetry_cell_setting 'triclinic'
loop_
_space_group_symop_operation_xyz
x,y,z
-x,-y,-z
loop_
_atom_site_type_symbol
_atom_site_label
_atom_site_fract_x
_atom_site_fract_y
_atom_site_fract_z
Si Si1 0.234288 0.101023 0.145250
Si Si2 0.805092 0.175025 0.110844
Si Si3 0.485170 0.211503 0.207120
Si Si4 0.381178 0.260496 0.577326
Si Si5 0.610840 0.944750 0.351782
Si Si6 0.799438 0.726330 0.643247
Si Si7 0.755174 0.432985 0.393661
O O1 0.301258 0.091364 0.367153
O O2 0.288224 0.895921 0.402460
O O3 0.292245 0.405889 0.920245
O O4 0.016776 0.922460 0.891635
O O5 0.025455 0.360203 0.359301
O O6 0.747142 0.889447 0.322800
O O7 0.753122 0.398866 0.835194
O O8 0.698985 0.025295 0.971875
O O9 0.642224 0.367969 0.305939
O O10 0.500000 0.000000 0.500000
O O11 0.500000 0.500000 0.000000
O O12 0.438226 0.599791 0.336231
O O13 0.283828 0.030673 0.538392
O O14 0.280524 0.243251 0.468732
O O15 0.542385 0.186869 0.985508
#
# Coordination Sequence:
#
# PCOD9001402 Si02
#       7
#     2   2   2   2   2   2   2
#     4  10  21  38  60  87 118 160 205 244 297 350
#     4  10  23  41  62  91 122 155 200 250 296 355
#     4  12  26  42  64  94 119 156 199 234 308 376
#     4  10  21  35  54  86 122 159 201 248 299 344
#     4  10  21  35  54  86 122 159 201 248 299 344
#     4  10  21  38  60  87 118 160 205 244 297 350
#     4  10  23  41  62  91 122 155 200 250 296 355
#
# _framework density 20.251685999999999
#
# number of rings (size 3 to 8) (size 9 to 14) (size 15 to 20)
#    0.000    1.714    0.000    3.429    6.000    1.714 
#    0.000    0.000    0.000   10.286    0.000    0.000 
#    0.000    0.000    0.000    0.000    0.000    0.000 
#
# Total GULP energy -78059.963254 kJ/mol
# GULP energy per Si atom -5575.711661 kJ/mol
# Density = 2.020559 g / cm^3
# Si number density = 20.251686 Si / 1000 Ang^3
#
#
#
# Elastic Constant Matrix: (Units=GPa)
#
#
# Indices 1 2 3 4 5 6 
#
# 1 97.5778 65.3538 32.2387 -18.6745 -46.4838 -35.2823
# 2 65.3538 -4.1865 107.5305 70.0035 22.3317 -25.9725
# 3 32.2387 107.5305 43.7166 -116.6699 -28.8232 25.0081
# 4 -18.6745 70.0035 -116.6699 -64.8751 -19.7064 31.7522
# 5 -46.4838 22.3317 -28.8232 -19.7064 7.4405 -23.8226
# 6 -35.2823 -25.9725 25.0081 31.7522 -23.8226 -5.3047
#
#
#
# Elastic Compliance Matrix: (Units=1/GPa)
#
#
# Indices 1 2 3 4 5 6 
#
# 1 0.005048 -0.002582 -0.002547 -0.002106 -0.007933 -0.009924
# 2 -0.002582 0.015380 0.002479 0.014152 0.006978 0.006929
# 3 -0.002547 0.002479 0.005327 -0.004119 0.000208 0.004321
# 4 -0.002106 0.014152 -0.004119 0.013505 -0.001051 0.010860
# 5 -0.007933 0.006978 0.000208 -0.001051 0.006793 -0.017217
# 6 -0.009924 0.006929 0.004321 0.010860 -0.017217 0.006270
#
#
# Mechanical properties :
#
#
# Convention : Reuss Voigt Hill
#
# Bulk Modulus (GPa) = 48.88741 60.81710 54.85226
# Shear Modulus (GPa) = 77.59132 -17.08219 30.25456
#
# Velocity S-wave (km/s) = 6.19651 -2.90745 3.86933
# Velocity P-wave (km/s) = 8.68262 4.33876 6.86341
#
# Compressibility (1/GPa) = 0.02045516
#
# Stress axis : x y z
#
# Youngs Moduli (GPa) = 198.08974 65.02117 187.73529
#
# Poissons Ratio (x) = 0.16788 0.47814
# Poissons Ratio (y) = 0.51145 -0.46543
# Poissons Ratio (z) = 0.50451 -0.16120
#
# Static dielectric constant tensor:
#      x y z
#    x 0.914220 0.149940 -0.241460 
#    y 0.149940 1.699740 0.082510 
#    z -0.241460 0.082510 1.657480 
# 
# From -- ./inp_files/41920.got.cif
#   From: 2010.05.17/outbox.cif.g08.bks.cpg/sg2_21_cif.got.tgz:41920.got - 2010.06.03 11:33:40.
