data_PCOD9001805
_publ_section_title
;
Structure prediction by ZEFSAII (Michael W. Deem and Ramdas Pophale) SiO2 
 PCOD9001805
Probable space group: P -1
;
_chemical_formula_sum "Si O2"
_cell_formula_units_Z 12
_cell_length_a 5.203395
_cell_length_b 10.387157
_cell_length_c 15.528381
_cell_angle_alpha 134.435403
_cell_angle_beta 54.279481
_cell_angle_gamma 118.425246
_cell_volume 483.256336
_symmetry_space_group_name_H-M "P -1"
_symmetry_group_IT_number 2
_symmetry_cell_setting 'triclinic'
loop_
_space_group_symop_operation_xyz
x,y,z
-x,-y,-z
loop_
_atom_site_type_symbol
_atom_site_label
_atom_site_fract_x
_atom_site_fract_y
_atom_site_fract_z
Si Si1 0.587174 0.775405 0.593017
Si Si2 0.430666 0.694966 0.909264
Si Si3 0.387327 0.896325 0.358032
Si Si4 0.216902 0.520088 0.130898
Si Si5 0.777950 0.227495 0.480399
Si Si6 0.639740 0.048826 0.114401
O O1 0.408746 0.663595 0.499481
O O2 0.385246 0.862419 0.745941
O O3 0.866874 0.687867 0.540865
O O4 0.781013 0.937873 0.573255
O O5 0.704820 0.587982 0.847298
O O6 0.478093 0.810643 0.866006
O O7 0.112304 0.559959 0.887643
O O8 0.414740 0.858346 0.057969
O O9 0.263978 0.729762 0.244441
O O10 0.378011 0.808831 0.413576
O O11 0.733750 0.023439 0.350195
O O12 0.500000 0.500000 0.000000
O O13 0.000000 0.000000 0.000000
#
# Coordination Sequence:
#
# PCOD9001805 Si02
#       6
#     2   2   2   2   2   2
#     4  10  21  35  64  89 116 153 216 249 302 345
#     4  11  26  39  59  90 123 165 202 247 313 357
#     4   9  22  36  64  88 131 150 204 249 313 363
#     4  12  25  39  61  94 131 160 194 250 328 372
#     4   9  21  36  60  96 113 164 203 250 303 353
#     4  11  24  43  65  86 126 164 219 255 290 368
#
# _framework density 24.831543
#
# number of rings (size 3 to 8) (size 9 to 14) (size 15 to 20)
#    1.000    0.667    1.667    2.000    9.333    0.000 
#    0.000    0.000    0.000    6.000    0.000    0.000 
#    0.000    0.000    0.000    0.000    0.000    0.000 
#
# Total GULP energy -66800.961182 kJ/mol
# GULP energy per Si atom -5566.746765 kJ/mol
# Density = 2.477503 g / cm^3
# Si number density = 24.831543 Si / 1000 Ang^3
#
#
#
# Elastic Constant Matrix: (Units=GPa)
#
#
# Indices 1 2 3 4 5 6 
#
# 1 124.2629 8.7380 -32.3176 7.7642 33.5492 19.4974
# 2 8.7380 99.2230 16.5485 21.2700 15.1275 0.4436
# 3 -32.3176 16.5485 -32.0872 4.6615 29.6319 13.8220
# 4 7.7642 21.2700 4.6615 42.4547 -5.6594 1.7930
# 5 33.5492 15.1275 29.6319 -5.6594 22.1151 -8.5494
# 6 19.4974 0.4436 13.8220 1.7930 -8.5494 11.2448
#
#
#
# Elastic Compliance Matrix: (Units=1/GPa)
#
#
# Indices 1 2 3 4 5 6 
#
# 1 0.006553 0.001127 -0.008032 -0.000926 -0.001024 -0.002165
# 2 0.001127 0.013586 -0.004127 -0.007571 -0.008419 -0.002610
# 3 -0.008032 -0.004127 0.004027 0.004757 0.019928 0.023532
# 4 -0.000926 -0.007571 0.004757 0.027939 0.005826 -0.003968
# 5 -0.001024 -0.008419 0.019928 0.005826 0.025928 -0.003603
# 6 -0.002165 -0.002610 0.023532 -0.003968 -0.003603 0.061755
#
#
# Mechanical properties :
#
#
# Convention : Reuss Voigt Hill
#
# Bulk Modulus (GPa) = 476.08583 19.70407 247.89495
# Shear Modulus (GPa) = 30.75922 28.39158 29.57540
#
# Velocity S-wave (km/s) = 3.52336 3.38504 3.45489
# Velocity P-wave (km/s) = 14.44626 4.81978 10.76858
#
# Compressibility (1/GPa) = 0.00210046
#
# Stress axis : x y z
#
# Youngs Moduli (GPa) = 152.59390 73.60669 248.33145
#
# Poissons Ratio (x) = -0.08295 1.99465
# Poissons Ratio (y) = -0.17195 1.02496
# Poissons Ratio (z) = 1.22567 0.30380
#
# Static dielectric constant tensor:
#      x y z
#    x 2.161480 -0.044050 -0.038590 
#    y -0.044050 1.971600 -0.007070 
#    z -0.038590 -0.007070 2.010740 
# 
# From -- ./inp_files/549281.got.cif
#   From: 2010.05.17/outbox.cif.g08.bks.cpg/sg2_275_cif.got.tgz:549281.got - 2010.06.03 11:33:40.
