data_PCOD9001514
_publ_section_title
;
Structure prediction by ZEFSAII (Michael W. Deem and Ramdas Pophale) SiO2 
 PCOD9001514
Probable space group: P -1
;
_chemical_formula_sum "Si O2"
_cell_formula_units_Z 16
_cell_length_a 12.597983
_cell_length_b 11.715561
_cell_length_c 12.512452
_cell_angle_alpha 124.433316
_cell_angle_beta 131.956760
_cell_angle_gamma 33.979836
_cell_volume 767.284492
_symmetry_space_group_name_H-M "P -1"
_symmetry_group_IT_number 2
_symmetry_cell_setting 'triclinic'
loop_
_space_group_symop_operation_xyz
x,y,z
-x,-y,-z
loop_
_atom_site_type_symbol
_atom_site_label
_atom_site_fract_x
_atom_site_fract_y
_atom_site_fract_z
Si Si1 0.380071 0.541095 0.835276
Si Si2 0.911023 0.595853 0.667277
Si Si3 0.758363 0.967665 0.837854
Si Si4 0.297848 0.272364 0.632562
Si Si5 0.248875 0.807404 0.596840
Si Si6 0.423028 0.368297 0.459008
Si Si7 0.844616 0.044907 0.157054
Si Si8 0.720333 0.213187 0.756008
O O1 0.317964 0.425837 0.727674
O O2 0.182911 0.776292 0.804024
O O3 0.557023 0.440580 0.811741
O O4 0.500000 0.500000 0.000000
O O5 0.794988 0.704086 0.531805
O O6 0.765447 0.605605 0.648622
O O7 0.125688 0.365903 0.657068
O O8 0.936305 0.727026 0.808479
O O9 0.533632 0.058760 0.704944
O O10 0.786314 0.075983 0.831555
O O11 0.751650 0.023186 0.984893
O O12 0.316082 0.595927 0.528859
O O13 0.423386 0.742448 0.598123
O O14 0.254387 0.883420 0.754696
O O15 0.000000 0.000000 0.500000
O O16 0.581575 0.221886 0.586510
O O17 0.094556 0.846668 0.215910
#
# Coordination Sequence:
#
# PCOD9001514 Si02
#       8
#     2   2   2   2   2   2   2   2
#     4  11  20  36  57  91 130 152 193 245 300 361
#     4  11  22  39  56  88 128 162 195 233 290 370
#     4  11  23  35  58  94 127 157 189 233 299 372
#     4  10  21  35  57  85 124 165 190 230 293 360
#     4  11  24  43  64  89 112 153 211 260 299 340
#     4  11  23  41  64  88 116 156 204 253 297 348
#     4  12  22  36  61  90 122 157 195 253 304 349
#     4  11  21  35  60  95 121 155 191 242 309 356
#
# _framework density 20.852758999999999
#
# number of rings (size 3 to 8) (size 9 to 14) (size 15 to 20)
#    0.000    1.000    7.500    1.500    1.750    2.000 
#    0.000    0.625    0.000    1.500    0.000    0.000 
#    0.000    0.000    0.000    0.000    0.000    0.000 
#
# Total GULP energy -89225.995435 kJ/mol
# GULP energy per Si atom -5576.624715 kJ/mol
# Density = 2.080530 g / cm^3
# Si number density = 20.852759 Si / 1000 Ang^3
#
#
#
# Elastic Constant Matrix: (Units=GPa)
#
#
# Indices 1 2 3 4 5 6 
#
# 1 95.4025 34.8152 24.2030 10.3315 -21.8238 -32.9693
# 2 34.8152 60.6426 13.3666 10.0031 -10.9979 -27.1590
# 3 24.2030 13.3666 78.8167 19.5433 -29.3679 -8.4136
# 4 10.3315 10.0031 19.5433 27.4880 -10.4214 -1.3431
# 5 -21.8238 -10.9979 -29.3679 -10.4214 29.4489 6.9767
# 6 -32.9693 -27.1590 -8.4136 -1.3431 6.9767 37.2480
#
#
#
# Elastic Compliance Matrix: (Units=1/GPa)
#
#
# Indices 1 2 3 4 5 6 
#
# 1 0.017892 -0.003085 -0.000067 -0.001706 0.008619 0.011897
# 2 -0.003085 0.027151 0.000748 -0.007706 0.001942 0.016594
# 3 -0.000067 0.000748 0.021802 -0.008644 0.018527 0.001629
# 4 -0.001706 -0.007706 -0.008644 0.047909 0.006209 -0.008517
# 5 0.008619 0.001942 0.018527 0.006209 0.061274 0.001976
# 6 0.011897 0.016594 0.001629 -0.008517 0.001976 0.049167
#
#
# Mechanical properties :
#
#
# Convention : Reuss Voigt Hill
#
# Bulk Modulus (GPa) = 16.11905 42.18127 29.15016
# Shear Modulus (GPa) = 19.94564 29.66878 24.80721
#
# Velocity S-wave (km/s) = 3.09609 3.77606 3.45285
# Velocity P-wave (km/s) = 4.53075 6.26766 5.46861
#
# Compressibility (1/GPa) = 0.06203838
#
# Stress axis : x y z
#
# Youngs Moduli (GPa) = 55.89031 36.83099 45.86763
#
# Poissons Ratio (x) = 0.11362 0.00307
# Poissons Ratio (y) = 0.17241 -0.03433
# Poissons Ratio (z) = 0.00374 -0.02756
#
# Static dielectric constant tensor:
#      x y z
#    x 1.788720 -0.046610 -0.030340 
#    y -0.046610 1.829640 0.006980 
#    z -0.030340 0.006980 1.792060 
# 
# From -- ./inp_files/428782.got.cif
#   From: 2010.05.17/outbox.cif.g08.bks.cpg/sg2_215_cif.got.tgz:428782.got - 2010.06.03 11:33:40.
