data_PCOD9001219
_publ_section_title
;
Structure prediction by ZEFSAII (Michael W. Deem and Ramdas Pophale) SiO2 
 PCOD9001219
Probable space group: P -1
;
_chemical_formula_sum "Si O2"
_cell_formula_units_Z 16
_cell_length_a 13.314337
_cell_length_b 14.219666
_cell_length_c 5.664161
_cell_angle_alpha 59.953353
_cell_angle_beta 53.125122
_cell_angle_gamma 48.297654
_cell_volume 631.155537
_symmetry_space_group_name_H-M "P -1"
_symmetry_group_IT_number 2
_symmetry_cell_setting 'triclinic'
loop_
_space_group_symop_operation_xyz
x,y,z
-x,-y,-z
loop_
_atom_site_type_symbol
_atom_site_label
_atom_site_fract_x
_atom_site_fract_y
_atom_site_fract_z
Si Si1 0.323706 0.482271 0.930734
Si Si2 0.671104 0.343973 0.677589
Si Si3 0.974572 0.382822 0.637134
Si Si4 0.168376 0.941353 0.407923
Si Si5 0.386208 0.259928 0.837622
Si Si6 0.078112 0.345799 0.037732
Si Si7 0.582306 0.054411 0.166728
Si Si8 0.347400 0.797579 0.740564
O O1 0.492185 0.427423 0.828726
O O2 0.285756 0.570498 0.639919
O O3 0.312461 0.362463 0.019536
O O4 0.201051 0.551615 0.214672
O O5 0.744931 0.208742 0.603365
O O6 0.707449 0.288496 0.960804
O O7 0.000000 0.500000 0.500000
O O8 0.049231 0.305984 0.387629
O O9 0.022231 0.316564 0.911578
O O10 0.213804 0.920354 0.645200
O O11 0.249754 0.008883 0.090775
O O12 0.000000 0.000000 0.500000
O O13 0.508166 0.282884 0.522827
O O14 0.253435 0.281820 0.837239
O O15 0.480937 0.122860 0.995839
O O16 0.000000 0.500000 0.000000
O O17 0.585669 0.154878 0.213752
O O18 0.500000 0.000000 0.500000
#
# Coordination Sequence:
#
# PCOD9001219 Si02
#       8
#     2   2   2   2   2   2   2   2
#     4  11  20  40  59  91 137 165 222 265 317 413
#     4  10  23  39  60  96 123 173 218 265 326 396
#     4  10  21  36  55  86 128 178 212 265 325 388
#     4  10  22  45  65  95 130 169 223 276 339 402
#     4  11  21  37  62  92 127 172 212 271 331 404
#     4  10  21  34  57  88 126 173 217 257 336 395
#     4  10  23  43  66  98 123 164 229 281 339 402
#     4  10  21  40  69  91 124 175 217 275 346 396
#
# _framework density 25.350327
#
# number of rings (size 3 to 8) (size 9 to 14) (size 15 to 20)
#    0.000    1.750    6.250    0.000    5.250    4.500 
#    4.500    1.250    0.000    0.000    0.000    0.000 
#    0.000    0.000    0.000    0.000    0.000    0.000 
#
# Total GULP energy -89279.825257 kJ/mol
# GULP energy per Si atom -5579.989079 kJ/mol
# Density = 2.529263 g / cm^3
# Si number density = 25.350327 Si / 1000 Ang^3
#
#
#
# Elastic Constant Matrix: (Units=GPa)
#
#
# Indices 1 2 3 4 5 6 
#
# 1 67.3888 39.1992 23.0173 3.4012 -6.6043 -22.0356
# 2 39.1992 60.0038 28.3673 0.1337 -10.2128 -22.0564
# 3 23.0173 28.3673 130.4728 -4.1088 -2.1202 -17.6727
# 4 3.4012 0.1337 -4.1088 28.7899 1.6637 -9.6302
# 5 -6.6043 -10.2128 -2.1202 1.6637 44.7777 5.7170
# 6 -22.0356 -22.0564 -17.6727 -9.6302 5.7170 47.2899
#
#
#
# Elastic Compliance Matrix: (Units=1/GPa)
#
#
# Indices 1 2 3 4 5 6 
#
# 1 0.024929 -0.014357 -0.000737 -0.001521 -0.000132 0.004351
# 2 -0.014357 0.030544 -0.003056 0.003107 0.003747 0.006594
# 3 -0.000737 -0.003056 0.008787 0.002075 -0.000725 0.002025
# 4 -0.001521 0.003107 0.002075 0.038531 -0.002076 0.009614
# 5 -0.000132 0.003747 -0.000725 -0.002076 0.023446 -0.001842
# 6 0.004351 0.006594 0.002025 0.009614 -0.001842 0.029186
#
#
# Mechanical properties :
#
#
# Convention : Reuss Voigt Hill
#
# Bulk Modulus (GPa) = 35.76615 48.78147 42.27381
# Shear Modulus (GPa) = 24.87042 35.32363 30.09703
#
# Velocity S-wave (km/s) = 3.13560 3.73690 3.44938
# Velocity P-wave (km/s) = 5.22003 6.15662 5.70757
#
# Compressibility (1/GPa) = 0.02795940
#
# Stress axis : x y z
#
# Youngs Moduli (GPa) = 40.11464 32.73970 113.80742
#
# Poissons Ratio (x) = 0.47003 0.08388
# Poissons Ratio (y) = 0.57591 0.34782
# Poissons Ratio (z) = 0.02957 0.10006
#
# Static dielectric constant tensor:
#      x y z
#    x 2.494410 0.077750 0.197680 
#    y 0.077750 2.033860 0.035460 
#    z 0.197680 0.035460 2.185590 
# 
# From -- ./inp_files/99476.got.cif
#   From: 2010.05.17/outbox.cif.g08.bks.cpg/sg2_50_cif.got.tgz:99476.got - 2010.06.03 11:33:40.
