data_PCOD9001848
_publ_section_title
;
Structure prediction by ZEFSAII (Michael W. Deem and Ramdas Pophale) SiO2 
 PCOD9001848
Probable space group: P -1
;
_chemical_formula_sum "Si O2"
_cell_formula_units_Z 16
_cell_length_a 8.161489
_cell_length_b 16.000866
_cell_length_c 8.825265
_cell_angle_alpha 82.957087
_cell_angle_beta 70.030165
_cell_angle_gamma 132.800637
_cell_volume 681.604270
_symmetry_space_group_name_H-M "P -1"
_symmetry_group_IT_number 2
_symmetry_cell_setting 'triclinic'
loop_
_space_group_symop_operation_xyz
x,y,z
-x,-y,-z
loop_
_atom_site_type_symbol
_atom_site_label
_atom_site_fract_x
_atom_site_fract_y
_atom_site_fract_z
Si Si1 0.807187 0.796304 0.953102
Si Si2 0.256179 0.790610 0.089223
Si Si3 0.207566 0.916519 0.546339
Si Si4 0.171692 0.735261 0.454805
Si Si5 0.628135 0.312404 0.107231
Si Si6 0.108377 0.923957 0.117946
Si Si7 0.334783 0.148655 0.524741
Si Si8 0.334011 0.513632 0.128841
O O1 0.564737 0.647753 0.127463
O O2 0.999922 0.910523 0.988849
O O3 0.635488 0.793660 0.899324
O O4 0.991155 0.815430 0.769355
O O5 0.165978 0.707997 0.287863
O O6 0.095659 0.818055 0.125383
O O7 0.212917 0.713804 0.976529
O O8 0.575707 0.936084 0.979487
O O9 0.164595 0.835404 0.441791
O O10 0.500000 0.000000 0.500000
O O11 0.219122 0.021554 0.504094
O O12 0.450688 0.805923 0.427983
O O13 0.919794 0.609223 0.663041
O O14 0.508301 0.267160 0.322494
O O15 0.750949 0.446505 0.978153
O O16 0.901521 0.885779 0.313716
O O17 0.500000 0.500000 0.000000
#
# Coordination Sequence:
#
# PCOD9001848 Si02
#       8
#     2   2   2   2   2   2   2   2
#     4  10  22  43  64  92 134 179 216 263 337 382
#     4  11  26  41  68 102 135 171 223 274 338 398
#     4  10  21  35  67  99 129 169 215 264 335 391
#     4  11  23  44  70  96 134 181 223 273 332 389
#     4  10  25  43  68 102 127 179 220 272 328 395
#     4  11  25  43  65 101 141 172 212 281 339 396
#     4  11  25  41  71 102 138 169 223 274 336 403
#     4  10  23  44  72  93 134 177 231 271 323 393
#
# _framework density 23.474029999999999
#
# number of rings (size 3 to 8) (size 9 to 14) (size 15 to 20)
#    0.750    0.750    1.250    3.000   10.500    3.500 
#    0.000    0.625    0.000    0.000    0.000    0.000 
#    0.000    0.000    0.000    0.000    0.000    0.000 
#
# Total GULP energy -89396.701802 kJ/mol
# GULP energy per Si atom -5587.293863 kJ/mol
# Density = 2.342060 g / cm^3
# Si number density = 23.474030 Si / 1000 Ang^3
#
#
#
# Elastic Constant Matrix: (Units=GPa)
#
#
# Indices 1 2 3 4 5 6 
#
# 1 87.0272 19.3535 23.5256 0.3394 -20.2063 -13.5505
# 2 19.3535 48.8320 10.1101 -8.3777 -14.6928 -4.4579
# 3 23.5256 10.1101 121.0956 -9.9317 -19.1639 -11.0883
# 4 0.3394 -8.3777 -9.9317 40.3465 -2.0332 2.0332
# 5 -20.2063 -14.6928 -19.1639 -2.0332 38.0537 7.3524
# 6 -13.5505 -4.4579 -11.0883 2.0332 7.3524 28.1197
#
#
#
# Elastic Compliance Matrix: (Units=1/GPa)
#
#
# Indices 1 2 3 4 5 6 
#
# 1 0.014538 -0.003899 -0.001461 -0.001303 0.004495 0.004730
# 2 -0.003899 0.025418 0.000404 0.005844 0.008315 -0.000286
# 3 -0.001461 0.000404 0.009514 0.002541 0.003940 0.001897
# 4 -0.001303 0.005844 0.002541 0.026963 0.004645 -0.001864
# 5 0.004495 0.008315 0.003940 0.004645 0.034966 -0.004440
# 6 0.004730 -0.000286 0.001897 -0.001864 -0.004440 0.039840
#
#
# Mechanical properties :
#
#
# Convention : Reuss Voigt Hill
#
# Bulk Modulus (GPa) = 25.27907 40.32594 32.80250
# Shear Modulus (GPa) = 28.68007 34.90169 31.79088
#
# Velocity S-wave (km/s) = 3.49919 3.86012 3.68407
# Velocity P-wave (km/s) = 5.20750 6.08963 5.66576
#
# Compressibility (1/GPa) = 0.03955842
#
# Stress axis : x y z
#
# Youngs Moduli (GPa) = 68.78571 39.34206 105.11027
#
# Poissons Ratio (x) = 0.15338 0.15360
# Poissons Ratio (y) = 0.26817 -0.04249
# Poissons Ratio (z) = 0.10052 -0.01590
#
# Static dielectric constant tensor:
#      x y z
#    x 2.090000 -0.030690 -0.225660 
#    y -0.030690 1.926750 0.024740 
#    z -0.225660 0.024740 2.266810 
# 
# From -- ./inp_files/215113.got.cif
#   From: 2010.05.17/outbox.cif.g08.bks.cpg/sg2_108_cif.got.tgz:215113.got - 2010.06.03 11:33:40.
