data_PCOD9001282
_publ_section_title
;
Structure prediction by ZEFSAII (Michael W. Deem and Ramdas Pophale) SiO2 
 PCOD9001282
Probable space group: P -1
;
_chemical_formula_sum "Si O2"
_cell_formula_units_Z 16
_cell_length_a 18.615494
_cell_length_b 5.041766
_cell_length_c 9.454218
_cell_angle_alpha 78.676599
_cell_angle_beta 95.750187
_cell_angle_gamma 60.280970
_cell_volume 735.002973
_symmetry_space_group_name_H-M "P -1"
_symmetry_group_IT_number 2
_symmetry_cell_setting 'triclinic'
loop_
_space_group_symop_operation_xyz
x,y,z
-x,-y,-z
loop_
_atom_site_type_symbol
_atom_site_label
_atom_site_fract_x
_atom_site_fract_y
_atom_site_fract_z
Si Si1 0.441010 0.961227 0.304346
Si Si2 0.155624 0.525775 0.810491
Si Si3 0.944948 0.796419 0.144328
Si Si4 0.260136 0.223420 0.135199
Si Si5 0.446146 0.749578 0.645505
Si Si6 0.895670 0.164063 0.808943
Si Si7 0.265969 0.245168 0.587112
Si Si8 0.773779 0.128749 0.609436
O O1 0.422719 0.854638 0.464473
O O2 0.511582 0.623915 0.287486
O O3 0.354386 0.149346 0.180303
O O4 0.483945 0.164573 0.313921
O O5 0.077565 0.468923 0.806597
O O6 0.199939 0.433433 0.678293
O O7 0.122169 0.883417 0.816782
O O8 0.224114 0.285195 0.964124
O O9 0.036652 0.731779 0.210099
O O10 0.931938 0.893123 0.965403
O O11 0.189255 0.535973 0.173099
O O12 0.259685 0.938197 0.245676
O O13 0.357545 0.960660 0.686481
O O14 0.866145 0.064963 0.674456
O O15 0.280316 0.505255 0.486537
O O16 0.229801 0.092450 0.488015
#
# Coordination Sequence:
#
# PCOD9001282 Si02
#       8
#     2   2   2   2   2   2   2   2
#     4  10  21  34  60  93 116 152 208 260 292 354
#     4  11  25  44  62  91 128 170 200 250 314 378
#     4  10  23  40  66  93 126 158 212 254 309 360
#     4  11  23  40  68  94 122 159 214 258 302 361
#     4  10  21  36  57  90 123 156 197 256 308 354
#     4  10  22  39  68  97 120 159 210 268 300 351
#     4  12  25  42  63  89 133 167 199 248 323 371
#     4  12  22  39  66  94 116 165 212 253 297 366
#
# _framework density 21.768619000000001
#
# number of rings (size 3 to 8) (size 9 to 14) (size 15 to 20)
#    0.000    1.250    3.750    1.500    7.000    1.500 
#    0.000    5.000    0.000    0.000    0.000    0.000 
#    0.000    0.000    0.000    0.000    0.000    0.000 
#
# Total GULP energy -89520.319908 kJ/mol
# GULP energy per Si atom -5595.019994 kJ/mol
# Density = 2.171907 g / cm^3
# Si number density = 21.768619 Si / 1000 Ang^3
#
#
#
# Elastic Constant Matrix: (Units=GPa)
#
#
# Indices 1 2 3 4 5 6 
#
# 1 57.9188 1.5032 19.7222 -2.2825 27.1210 -1.1659
# 2 1.5032 85.5035 21.9555 3.6381 2.8895 4.2541
# 3 19.7222 21.9555 45.9822 2.9611 17.6719 0.7536
# 4 -2.2825 3.6381 2.9611 18.4517 1.1312 -0.8738
# 5 27.1210 2.8895 17.6719 1.1312 29.9159 -2.5390
# 6 -1.1659 4.2541 0.7536 -0.8738 -2.5390 37.6340
#
#
#
# Elastic Compliance Matrix: (Units=1/GPa)
#
#
# Indices 1 2 3 4 5 6 
#
# 1 0.031122 0.001216 -0.004267 0.005861 -0.026093 -0.000712
# 2 0.001216 0.013724 -0.007769 -0.001497 0.002112 -0.001250
# 3 -0.004267 -0.007769 0.033293 -0.003467 -0.015003 -0.001013
# 4 0.005861 -0.001497 -0.003467 0.056152 -0.005127 0.001378
# 5 -0.026093 0.002112 -0.015003 -0.005127 0.066241 0.003603
# 6 -0.000712 -0.001250 -0.001013 0.001378 0.003603 0.026986
#
#
# Mechanical properties :
#
#
# Convention : Reuss Voigt Hill
#
# Bulk Modulus (GPa) = 17.69920 30.64069 24.16994
# Shear Modulus (GPa) = 18.65744 26.94856 22.80300
#
# Velocity S-wave (km/s) = 2.93077 3.52228 3.24005
# Velocity P-wave (km/s) = 4.42728 5.53607 5.01243
#
# Compressibility (1/GPa) = 0.05649973
#
# Stress axis : x y z
#
# Youngs Moduli (GPa) = 32.13162 72.86763 30.03629
#
# Poissons Ratio (x) = -0.08863 0.12816
# Poissons Ratio (y) = -0.03908 0.23335
# Poissons Ratio (z) = 0.13710 0.56611
#
# Static dielectric constant tensor:
#      x y z
#    x 1.788620 -0.000300 0.012220 
#    y -0.000300 1.821410 -0.007940 
#    z 0.012220 -0.007940 1.791580 
# 
# From -- ./inp_files/323565.got.cif
#   From: 2010.05.17/outbox.cif.g08.bks.cpg/sg2_162_cif.got.tgz:323565.got - 2010.06.03 11:33:40.
