data_PCOD9001169
_publ_section_title
;
Structure prediction by ZEFSAII (Michael W. Deem and Ramdas Pophale) SiO2 
 PCOD9001169
Probable space group: P -1
;
_chemical_formula_sum "Si O2"
_cell_formula_units_Z 16
_cell_length_a 8.309892
_cell_length_b 12.641374
_cell_length_c 9.349629
_cell_angle_alpha 141.098249
_cell_angle_beta 95.442293
_cell_angle_gamma 70.427907
_cell_volume 557.851244
_symmetry_space_group_name_H-M "P -1"
_symmetry_group_IT_number 2
_symmetry_cell_setting 'triclinic'
loop_
_space_group_symop_operation_xyz
x,y,z
-x,-y,-z
loop_
_atom_site_type_symbol
_atom_site_label
_atom_site_fract_x
_atom_site_fract_y
_atom_site_fract_z
Si Si1 0.800623 0.465107 0.595256
Si Si2 0.535202 0.789890 0.417077
Si Si3 0.846384 0.278618 0.682414
Si Si4 0.344924 0.593409 0.900586
Si Si5 0.777750 0.814497 0.241908
Si Si6 0.119891 0.058315 0.879186
Si Si7 0.729255 0.178421 0.110051
Si Si8 0.215437 0.330526 0.452001
O O1 0.798407 0.450626 0.749511
O O2 0.013760 0.355096 0.463032
O O3 0.705212 0.343184 0.391189
O O4 0.729523 0.645110 0.677630
O O5 0.672591 0.720946 0.225663
O O6 0.641467 0.823836 0.597183
O O7 0.373222 0.974528 0.553181
O O8 0.500082 0.610589 0.268316
O O9 0.051423 0.219795 0.684293
O O10 0.751062 0.306058 0.858207
O O11 0.853013 0.110255 0.404848
O O12 0.392883 0.724127 0.934700
O O13 0.217671 0.514129 0.724076
O O14 0.848222 0.794412 0.063995
O O15 0.251752 0.985197 0.950705
O O16 0.923541 0.113295 0.983035
#
# Coordination Sequence:
#
# PCOD9001169 Si02
#       8
#     2   2   2   2   2   2   2   2
#     4   9  16  29  53  81 106 135 182 229 274 304
#     4   9  21  36  55  77 121 147 176 220 285 337
#     4  11  19  32  59  87 107 137 190 236 264 322
#     4   9  18  34  55  84 105 141 185 232 270 315
#     4  11  20  35  54  84 112 153 175 221 285 333
#     4  10  21  34  55  85 111 145 185 229 274 321
#     4   9  18  34  54  81 111 139 181 237 271 312
#     4   8  16  32  50  77 105 145 171 225 269 322
#
# _framework density 28.681483
#
# number of rings (size 3 to 8) (size 9 to 14) (size 15 to 20)
#    0.750    1.750    2.500    0.375    0.000    2.000 
#    2.250    1.250    0.000    3.750    0.000    0.000 
#    0.000    0.000    0.000    0.000    0.000    0.000 
#
# Total GULP energy -89419.939172 kJ/mol
# GULP energy per Si atom -5588.746198 kJ/mol
# Density = 2.861620 g / cm^3
# Si number density = 28.681483 Si / 1000 Ang^3
#
#
#
# Elastic Constant Matrix: (Units=GPa)
#
#
# Indices 1 2 3 4 5 6 
#
# 1 52.0113 39.3975 5.3077 -23.3740 -18.6470 14.3536
# 2 39.3975 240.1093 42.5899 -49.5380 -11.4099 21.8826
# 3 5.3077 42.5899 124.2475 -36.9678 -6.7540 -10.6970
# 4 -23.3740 -49.5380 -36.9678 47.1056 5.7130 -4.8109
# 5 -18.6470 -11.4099 -6.7540 5.7130 35.6425 -13.5807
# 6 14.3536 21.8826 -10.6970 -4.8109 -13.5807 52.4842
#
#
#
# Elastic Compliance Matrix: (Units=1/GPa)
#
#
# Indices 1 2 3 4 5 6 
#
# 1 0.033203 -0.002111 0.004645 0.015961 0.014211 -0.002113
# 2 -0.002111 0.005635 -0.000794 0.004172 -0.000789 -0.001756
# 3 0.004645 -0.000794 0.011792 0.010589 0.004039 0.003480
# 4 0.015961 0.004172 0.010589 0.041303 0.005559 0.001278
# 5 0.014211 -0.000789 0.004039 0.005559 0.038013 0.007611
# 6 -0.002113 -0.001756 0.003480 0.001278 0.007611 0.023159
#
#
# Mechanical properties :
#
#
# Convention : Reuss Voigt Hill
#
# Bulk Modulus (GPa) = 18.48104 65.66204 42.07154
# Shear Modulus (GPa) = 29.82173 48.98466 39.40319
#
# Velocity S-wave (km/s) = 3.22802 4.13714 3.71053
# Velocity P-wave (km/s) = 4.51121 6.76494 5.74959
#
# Compressibility (1/GPa) = 0.05410951
#
# Stress axis : x y z
#
# Youngs Moduli (GPa) = 30.11793 177.45409 84.80206
#
# Poissons Ratio (x) = 0.37459 -0.39389
# Poissons Ratio (y) = 0.06358 0.06736
# Poissons Ratio (z) = -0.13989 0.14095
#
# Static dielectric constant tensor:
#      x y z
#    x 2.307270 0.011930 0.003730 
#    y 0.011930 2.339750 0.056680 
#    z 0.003730 0.056680 2.194670 
# 
# From -- ./inp_files/270913.got.cif
#   From: 2010.05.17/outbox.cif.g08.bks.cpg/sg2_136_cif.got.tgz:270913.got - 2010.06.03 11:33:40.
