data_PCOD9001864
_publ_section_title
;
Structure prediction by ZEFSAII (Michael W. Deem and Ramdas Pophale) SiO2 
 PCOD9001864
Probable space group: P -1
;
_chemical_formula_sum "Si O2"
_cell_formula_units_Z 16
_cell_length_a 13.308219
_cell_length_b 7.153769
_cell_length_c 19.389261
_cell_angle_alpha 43.120935
_cell_angle_beta 145.800977
_cell_angle_gamma 134.375762
_cell_volume 686.868613
_symmetry_space_group_name_H-M "P -1"
_symmetry_group_IT_number 2
_symmetry_cell_setting 'triclinic'
loop_
_space_group_symop_operation_xyz
x,y,z
-x,-y,-z
loop_
_atom_site_type_symbol
_atom_site_label
_atom_site_fract_x
_atom_site_fract_y
_atom_site_fract_z
Si Si1 0.412221 0.955223 0.139670
Si Si2 0.884167 0.808307 0.545523
Si Si3 0.552956 0.486258 0.893640
Si Si4 0.436200 0.185122 0.317272
Si Si5 0.805854 0.801672 0.155027
Si Si6 0.485553 0.737481 0.372254
Si Si7 0.230383 0.747748 0.816726
Si Si8 0.210922 0.818732 0.402144
O O1 0.428379 0.229610 0.125719
O O2 0.602981 0.024486 0.186119
O O3 0.402293 0.702158 0.256959
O O4 0.250930 0.972615 0.989540
O O5 0.699325 0.896901 0.435827
O O6 0.815381 0.483743 0.569292
O O7 0.035253 0.821977 0.686599
O O8 0.000000 0.000000 0.500000
O O9 0.579166 0.558643 0.808807
O O10 0.352406 0.294659 0.851582
O O11 0.702073 0.336152 0.049328
O O12 0.649632 0.205658 0.451071
O O13 0.374311 0.920290 0.301917
O O14 0.320252 0.080835 0.347407
O O15 0.792914 0.527111 0.172201
O O16 0.008351 0.862932 0.285580
O O17 0.500000 0.500000 0.500000
#
# Coordination Sequence:
#
# PCOD9001864 Si02
#       8
#     2   2   2   2   2   2   2   2
#     4   8  14  28  49  72 102 130 161 213 256 291
#     4  11  20  34  55  79 103 135 171 209 254 306
#     4   8  15  29  50  74  98 128 170 214 248 290
#     4  10  21  36  52  73 108 138 167 211 255 303
#     4   8  15  29  50  74  96 129 174 209 249 295
#     4  11  20  34  51  79 105 135 172 207 257 301
#     4   8  14  28  49  74 100 128 166 210 253 294
#     4  10  21  36  52  75 104 139 171 206 258 304
#
# _framework density 23.294118000000001
#
# number of rings (size 3 to 8) (size 9 to 14) (size 15 to 20)
#    0.000    2.750    2.500    1.500    1.750    0.500 
#    2.250    2.500    0.000    3.000    0.000    0.000 
#    0.000    0.000    0.000    0.000    0.000    0.000 
#
# Total GULP energy -89290.632152 kJ/mol
# GULP energy per Si atom -5580.664509 kJ/mol
# Density = 2.324110 g / cm^3
# Si number density = 23.294118 Si / 1000 Ang^3
#
#
#
# Elastic Constant Matrix: (Units=GPa)
#
#
# Indices 1 2 3 4 5 6 
#
# 1 43.7894 20.8220 25.0377 -4.4620 -19.0589 -0.3602
# 2 20.8220 75.4021 25.5535 -14.9313 -12.2158 -0.3924
# 3 25.0377 25.5535 130.2988 -7.0707 -27.7754 21.3501
# 4 -4.4620 -14.9313 -7.0707 31.1227 12.8489 -3.0474
# 5 -19.0589 -12.2158 -27.7754 12.8489 38.6549 -7.8440
# 6 -0.3602 -0.3924 21.3501 -3.0474 -7.8440 26.1056
#
#
#
# Elastic Compliance Matrix: (Units=1/GPa)
#
#
# Indices 1 2 3 4 5 6 
#
# 1 0.034241 -0.006701 -0.003440 -0.004706 0.015326 0.007241
# 2 -0.006701 0.017205 -0.002442 0.007671 -0.001651 0.002563
# 3 -0.003440 -0.002442 0.010952 -0.001760 0.004377 -0.007931
# 4 -0.004706 0.007671 -0.001760 0.040849 -0.014344 0.001949
# 5 0.015326 -0.001651 0.004377 -0.014344 0.042373 0.007664
# 6 0.007241 0.002563 -0.007931 0.001949 0.007664 0.047461
#
#
# Mechanical properties :
#
#
# Convention : Reuss Voigt Hill
#
# Bulk Modulus (GPa) = 26.85910 43.59073 35.22492
# Shear Modulus (GPa) = 21.67714 31.04845 26.36279
#
# Velocity S-wave (km/s) = 3.05386 3.65483 3.36778
# Velocity P-wave (km/s) = 4.89798 6.04684 5.50247
#
# Compressibility (1/GPa) = 0.03723133
#
# Stress axis : x y z
#
# Youngs Moduli (GPa) = 29.20515 58.12203 91.30929
#
# Poissons Ratio (x) = 0.38945 0.31412
# Poissons Ratio (y) = 0.19569 0.22300
# Poissons Ratio (z) = 0.10047 0.14195
#
# Static dielectric constant tensor:
#      x y z
#    x 1.887870 -0.086550 -0.020600 
#    y -0.086550 1.943290 -0.037300 
#    z -0.020600 -0.037300 1.906990 
# 
# From -- ./inp_files/202537.got.cif
#   From: 2010.05.17/outbox.cif.g08.bks.cpg/sg2_102_cif.got.tgz:202537.got - 2010.06.03 11:33:40.
