data_PCOD9001859
_publ_section_title
;
Structure prediction by ZEFSAII (Michael W. Deem and Ramdas Pophale) SiO2 
 PCOD9001859
Probable space group: P -1
;
_chemical_formula_sum "Si O2"
_cell_formula_units_Z 16
_cell_length_a 7.461916
_cell_length_b 12.652490
_cell_length_c 14.422777
_cell_angle_alpha 37.693717
_cell_angle_beta 93.879798
_cell_angle_gamma 67.168704
_cell_volume 573.155629
_symmetry_space_group_name_H-M "P -1"
_symmetry_group_IT_number 2
_symmetry_cell_setting 'triclinic'
loop_
_space_group_symop_operation_xyz
x,y,z
-x,-y,-z
loop_
_atom_site_type_symbol
_atom_site_label
_atom_site_fract_x
_atom_site_fract_y
_atom_site_fract_z
Si Si1 0.138278 0.686144 0.396158
Si Si2 0.788084 0.516210 0.019683
Si Si3 0.008712 0.142688 0.146255
Si Si4 0.516393 0.236673 0.423767
Si Si5 0.193320 0.376975 0.479688
Si Si6 0.892564 0.894590 0.531867
Si Si7 0.370437 0.156403 0.068173
Si Si8 0.347262 0.499653 0.702982
O O1 0.131752 0.614857 0.342926
O O2 0.401353 0.506433 0.592039
O O3 0.028775 0.594776 0.512621
O O4 0.004607 0.964929 0.214320
O O5 0.771213 0.373882 0.043572
O O6 0.938546 0.353094 0.229921
O O7 0.560954 0.782888 0.875931
O O8 0.000000 0.500000 0.000000
O O9 0.102744 0.235825 0.019482
O O10 0.242362 0.966644 0.354745
O O11 0.284022 0.309328 0.422626
O O12 0.490823 0.462549 0.263556
O O13 0.598999 0.105971 0.416092
O O14 0.426905 0.141244 0.715776
O O15 0.044740 0.770374 0.527546
O O16 0.000000 0.000000 0.500000
O O17 0.392665 0.276479 0.901080
#
# Coordination Sequence:
#
# PCOD9001859 Si02
#       8
#     2   2   2   2   2   2   2   2
#     4  10  21  36  50  67  98 137 170 200 239 286
#     4   8  13  24  45  73  98 119 150 195 243 284
#     4   8  15  29  51  73  95 129 167 197 233 293
#     4   8  15  29  51  73  95 129 167 197 233 293
#     4  10  21  36  50  67  98 137 170 200 239 286
#     4   8  13  24  45  73  98 119 150 195 243 284
#     4   9  17  30  52  78  98 120 158 206 247 287
#     4   9  17  30  52  78  98 120 158 206 247 287
#
# _framework density 27.915628000000002
#
# number of rings (size 3 to 8) (size 9 to 14) (size 15 to 20)
#    0.000    3.250    0.000    1.500    0.000    5.000 
#    0.000    2.500    0.000    3.000    0.000    0.000 
#    0.000    0.000    0.000    0.000    0.000    0.000 
#
# Total GULP energy -89100.806129 kJ/mol
# GULP energy per Si atom -5568.800383 kJ/mol
# Density = 2.785209 g / cm^3
# Si number density = 27.915628 Si / 1000 Ang^3
#
#
#
# Elastic Constant Matrix: (Units=GPa)
#
#
# Indices 1 2 3 4 5 6 
#
# 1 72.3362 -12.8762 9.0988 -10.0659 -30.1139 -10.6741
# 2 -12.8762 47.2521 13.3771 -19.1791 -4.5997 24.6799
# 3 9.0988 13.3771 113.9878 -1.0292 -27.8477 5.1176
# 4 -10.0659 -19.1791 -1.0292 49.7122 2.5937 -18.0530
# 5 -30.1139 -4.5997 -27.8477 2.5937 43.5131 0.3607
# 6 -10.6741 24.6799 5.1176 -18.0530 0.3607 41.0644
#
#
#
# Elastic Compliance Matrix: (Units=1/GPa)
#
#
# Indices 1 2 3 4 5 6 
#
# 1 0.025205 0.009860 0.001282 0.009601 0.018697 0.004523
# 2 0.009860 0.037526 -0.002252 0.010448 0.008853 -0.015194
# 3 0.001282 -0.002252 0.010789 -0.000812 0.007603 -0.000082
# 4 0.009601 0.010448 -0.000812 0.029079 0.005421 0.009054
# 5 0.018697 0.008853 0.007603 0.005421 0.041394 0.000611
# 6 0.004523 -0.015194 -0.000082 0.009054 0.000611 0.038644
#
#
# Mechanical properties :
#
#
# Convention : Reuss Voigt Hill
#
# Bulk Modulus (GPa) = 10.95276 28.08618 19.51947
# Shear Modulus (GPa) = 25.60304 41.78969 33.69637
#
# Velocity S-wave (km/s) = 3.03175 3.87331 3.47807
# Velocity P-wave (km/s) = 4.02335 5.48510 4.81007
#
# Compressibility (1/GPa) = 0.09130121
#
# Stress axis : x y z
#
# Youngs Moduli (GPa) = 39.67436 26.64834 92.69110
#
# Poissons Ratio (x) = -0.26276 -0.11885
# Poissons Ratio (y) = -0.39120 0.20871
# Poissons Ratio (z) = -0.05087 0.06000
#
# Static dielectric constant tensor:
#      x y z
#    x 2.504180 0.120080 0.223620 
#    y 0.120080 2.298100 -0.177390 
#    z 0.223620 -0.177390 2.047520 
# 
# From -- ./inp_files/218648.got.cif
#   From: 2010.05.17/outbox.cif.g08.bks.cpg/sg2_110_cif.got.tgz:218648.got - 2010.06.03 11:33:40.
