data_PCOD9001620
_publ_section_title
;
Structure prediction by ZEFSAII (Michael W. Deem and Ramdas Pophale) SiO2 
 PCOD9001620
Probable space group: P -1
;
_chemical_formula_sum "Si O2"
_cell_formula_units_Z 16
_cell_length_a 6.522545
_cell_length_b 17.195054
_cell_length_c 20.357947
_cell_angle_alpha 21.669173
_cell_angle_beta 104.366061
_cell_angle_gamma 92.590762
_cell_volume 698.481894
_symmetry_space_group_name_H-M "P -1"
_symmetry_group_IT_number 2
_symmetry_cell_setting 'triclinic'
loop_
_space_group_symop_operation_xyz
x,y,z
-x,-y,-z
loop_
_atom_site_type_symbol
_atom_site_label
_atom_site_fract_x
_atom_site_fract_y
_atom_site_fract_z
Si Si1 0.205791 0.044790 0.745464
Si Si2 0.284543 0.966719 0.479044
Si Si3 0.769446 0.377184 0.151731
Si Si4 0.541826 0.829143 0.237675
Si Si5 0.019341 0.121436 0.025731
Si Si6 0.284305 0.794255 0.474686
Si Si7 0.275317 0.240293 0.049166
Si Si8 0.521843 0.301617 0.797537
O O1 0.265773 0.234466 0.637865
O O2 0.001911 0.133345 0.603560
O O3 0.092863 0.963059 0.858904
O O4 0.465139 0.827286 0.909369
O O5 0.237068 0.806909 0.652025
O O6 0.367722 0.818611 0.534004
O O7 0.500000 0.000000 0.500000
O O8 0.017685 0.221109 0.250281
O O9 0.500000 0.500000 0.000000
O O10 0.796173 0.573106 0.043637
O O11 0.604578 0.650487 0.321361
O O12 0.279780 0.907404 0.187224
O O13 0.501387 0.083272 0.002177
O O14 0.080071 0.310211 0.919374
O O15 0.810002 0.215512 0.880224
O O16 0.417855 0.533350 0.654695
O O17 0.314371 0.987962 0.280913
#
# Coordination Sequence:
#
# PCOD9001620 Si02
#       8
#     2   2   2   2   2   2   2   2
#     4   9  20  39  59  88 124 164 215 260 316 387
#     4  11  27  44  68 103 133 168 226 274 329 401
#     4  11  25  46  70  96 134 177 215 275 334 399
#     4   9  19  38  60  88 123 174 213 260 324 376
#     4   9  19  35  60  87 118 166 215 255 317 380
#     4  11  24  39  61  96 127 164 214 268 322 384
#     4  10  22  40  64  87 125 172 211 259 328 383
#     4  10  21  35  59  92 129 162 215 269 315 382
#
# _framework density 22.906821000000001
#
# number of rings (size 3 to 8) (size 9 to 14) (size 15 to 20)
#    0.000    2.000    0.000    1.875    7.000    5.500 
#    0.000    5.625    0.000    0.000    0.000    0.000 
#    0.000    0.000    0.000    0.000    0.000    0.000 
#
# Total GULP energy -89347.255724 kJ/mol
# GULP energy per Si atom -5584.203483 kJ/mol
# Density = 2.285468 g / cm^3
# Si number density = 22.906821 Si / 1000 Ang^3
#
#
#
# Elastic Constant Matrix: (Units=GPa)
#
#
# Indices 1 2 3 4 5 6 
#
# 1 97.3538 18.0387 28.6007 -14.9235 11.2452 7.4840
# 2 18.0387 134.3868 29.3507 -33.5928 0.2355 11.5059
# 3 28.6007 29.3507 65.6166 -22.6271 -7.6911 4.7235
# 4 -14.9235 -33.5928 -22.6271 32.8526 -0.7990 5.3686
# 5 11.2452 0.2355 -7.6911 -0.7990 24.0245 2.9376
# 6 7.4840 11.5059 4.7235 5.3686 2.9376 30.6369
#
#
#
# Elastic Compliance Matrix: (Units=1/GPa)
#
#
# Indices 1 2 3 4 5 6 
#
# 1 0.013392 0.000318 -0.005860 0.002540 -0.007796 -0.002185
# 2 0.000318 0.011107 -0.000267 0.012395 0.000859 -0.006462
# 3 -0.005860 -0.000267 0.025218 0.015754 0.012110 -0.006278
# 4 0.002540 0.012395 0.015754 0.058366 0.007960 -0.018695
# 5 -0.007796 0.000859 0.012110 0.007960 0.050201 -0.006494
# 6 -0.002185 -0.006462 -0.006278 -0.018695 -0.006494 0.040468
#
#
# Mechanical properties :
#
#
# Convention : Reuss Voigt Hill
#
# Bulk Modulus (GPa) = 26.24746 49.92638 38.08692
# Shear Modulus (GPa) = 22.41453 32.26061 27.33757
#
# Velocity S-wave (km/s) = 3.13151 3.75686 3.45835
# Velocity P-wave (km/s) = 4.95564 6.37663 5.71050
#
# Compressibility (1/GPa) = 0.03809893
#
# Stress axis : x y z
#
# Youngs Moduli (GPa) = 74.66938 90.03430 39.65446
#
# Poissons Ratio (x) = -0.02862 0.23239
# Poissons Ratio (y) = -0.02373 0.01057
# Poissons Ratio (z) = 0.43759 0.02400
#
# Static dielectric constant tensor:
#      x y z
#    x 1.856050 0.025990 0.015220 
#    y 0.025990 2.110770 0.006050 
#    z 0.015220 0.006050 1.932260 
# 
# From -- ./inp_files/107700.got.cif
#   From: 2010.05.17/outbox.cif.g08.bks.cpg/sg2_54_cif.got.tgz:107700.got - 2010.06.03 11:33:40.
