data_PCOD9001348
_publ_section_title
;
Structure prediction by ZEFSAII (Michael W. Deem and Ramdas Pophale) SiO2 
 PCOD9001348
Probable space group: P -1
;
_chemical_formula_sum "Si O2"
_cell_formula_units_Z 16
_cell_length_a 5.009882
_cell_length_b 25.225180
_cell_length_c 16.702720
_cell_angle_alpha 22.138868
_cell_angle_beta 71.275639
_cell_angle_gamma 73.658735
_cell_volume 752.606840
_symmetry_space_group_name_H-M "P -1"
_symmetry_group_IT_number 2
_symmetry_cell_setting 'triclinic'
loop_
_space_group_symop_operation_xyz
x,y,z
-x,-y,-z
loop_
_atom_site_type_symbol
_atom_site_label
_atom_site_fract_x
_atom_site_fract_y
_atom_site_fract_z
Si Si1 0.026246 0.519953 0.833540
Si Si2 0.671829 0.321487 0.779611
Si Si3 0.190748 0.757522 0.956422
Si Si4 0.656271 0.533800 0.698869
Si Si5 0.048862 0.718020 0.703794
Si Si6 0.176583 0.990011 0.389001
Si Si7 0.322797 0.365013 0.609147
Si Si8 0.397123 0.151270 0.352532
O O1 0.330605 0.485017 0.816055
O O2 0.815309 0.569451 0.716283
O O3 0.087043 0.637767 0.730419
O O4 0.887910 0.385263 0.083177
O O5 0.489231 0.277625 0.781170
O O6 0.572874 0.472583 0.609755
O O7 0.994253 0.345262 0.687961
O O8 0.680726 0.224041 0.993135
O O9 0.395497 0.789543 0.817004
O O10 0.150814 0.588861 0.185211
O O11 0.926442 0.856440 0.836527
O O12 0.639786 0.650792 0.467334
O O13 0.717461 0.742372 0.719345
O O14 0.194430 0.874605 0.476674
O O15 0.446556 0.967551 0.448019
O O16 0.897027 0.912373 0.565771
#
# Coordination Sequence:
#
# PCOD9001348 Si02
#       8
#     2   2   2   2   2   2   2   2
#     4  11  22  35  56  80 106 145 181 218 255 313
#     4   9  19  31  52  72 106 137 165 214 260 324
#     4  11  21  35  54  83 109 143 180 206 267 324
#     4  11  22  34  57  81 108 138 176 220 268 322
#     4   9  23  36  55  75 114 141 184 216 260 289
#     4  10  22  35  53  75 110 151 174 218 251 311
#     4   9  18  35  48  75 105 133 167 215 272 309
#     4  10  21  35  51  77 111 145 175 215 256 302
#
# _framework density 21.259440000000001
#
# number of rings (size 3 to 8) (size 9 to 14) (size 15 to 20)
#    0.750    1.250    1.250    2.250    1.750    7.000 
#    0.000    0.000    0.000    0.000    0.000    5.250 
#    0.000    0.000    0.000    0.000    0.000    0.000 
#
# Total GULP energy -89176.720588 kJ/mol
# GULP energy per Si atom -5573.545037 kJ/mol
# Density = 2.121105 g / cm^3
# Si number density = 21.259440 Si / 1000 Ang^3
#
#
#
# Elastic Constant Matrix: (Units=GPa)
#
#
# Indices 1 2 3 4 5 6 
#
# 1 86.4854 18.0438 13.2085 15.7781 23.7996 6.4088
# 2 18.0438 80.3775 38.0777 10.3678 17.4834 10.9549
# 3 13.2085 38.0777 70.7231 23.9128 24.0555 1.3453
# 4 15.7781 10.3678 23.9128 41.9492 9.2608 6.2601
# 5 23.7996 17.4834 24.0555 9.2608 29.5769 6.7712
# 6 6.4088 10.9549 1.3453 6.2601 6.7712 14.9954
#
#
#
# Elastic Compliance Matrix: (Units=1/GPa)
#
#
# Indices 1 2 3 4 5 6 
#
# 1 0.016153 -0.002695 0.005330 -0.005730 -0.014783 0.003654
# 2 -0.002695 0.019845 -0.012413 0.004930 0.002522 -0.015430
# 3 0.005330 -0.012413 0.032637 -0.015488 -0.023433 0.020909
# 4 -0.005730 0.004930 -0.015488 0.034573 0.007493 -0.017580
# 5 -0.014783 0.002522 -0.023433 0.007493 0.067071 -0.026836
# 6 0.003654 -0.015430 0.020909 -0.017580 -0.026836 0.093979
#
#
# Mechanical properties :
#
#
# Convention : Reuss Voigt Hill
#
# Bulk Modulus (GPa) = 20.37475 41.80512 31.08993
# Shear Modulus (GPa) = 16.65704 28.52138 22.58921
#
# Velocity S-wave (km/s) = 2.80217 3.66674 3.26321
# Velocity P-wave (km/s) = 4.48042 6.13462 5.37158
#
# Compressibility (1/GPa) = 0.04908037
#
# Stress axis : x y z
#
# Youngs Moduli (GPa) = 61.90670 50.39052 30.64018
#
# Poissons Ratio (x) = 0.13578 -0.16331
# Poissons Ratio (y) = 0.16682 0.38033
# Poissons Ratio (z) = -0.32995 0.62548
#
# Static dielectric constant tensor:
#      x y z
#    x 1.816290 0.024820 -0.011260 
#    y 0.024820 1.824670 -0.017030 
#    z -0.011260 -0.017030 1.846660 
# 
# From -- ./inp_files/485818.got.cif
#   From: 2010.05.17/outbox.cif.g08.bks.cpg/sg2_243_cif.got.tgz:485818.got - 2010.06.03 11:33:40.
