data_PCOD9001119
_publ_section_title
;
Structure prediction by ZEFSAII (Michael W. Deem and Ramdas Pophale) SiO2 
 PCOD9001119
Probable space group: P -1
;
_chemical_formula_sum "Si O2"
_cell_formula_units_Z 14
_cell_length_a 25.534448
_cell_length_b 9.985024
_cell_length_c 14.820912
_cell_angle_alpha 149.791219
_cell_angle_beta 28.279773
_cell_angle_gamma 156.395539
_cell_volume 683.467245
_symmetry_space_group_name_H-M "P -1"
_symmetry_group_IT_number 2
_symmetry_cell_setting 'triclinic'
loop_
_space_group_symop_operation_xyz
x,y,z
-x,-y,-z
loop_
_atom_site_type_symbol
_atom_site_label
_atom_site_fract_x
_atom_site_fract_y
_atom_site_fract_z
Si Si1 0.909420 0.387769 0.982128
Si Si2 0.392442 0.562566 0.735135
Si Si3 0.368418 0.724215 0.676286
Si Si4 0.192625 0.868863 0.718356
Si Si5 0.445574 0.489621 0.176177
Si Si6 0.828867 0.764232 0.642145
Si Si7 0.461356 0.506937 0.779866
O O1 0.028639 0.623049 0.859674
O O2 0.824926 0.979271 0.851416
O O3 0.793714 0.440476 0.195577
O O4 0.000000 0.500000 0.000000
O O5 0.500000 0.500000 0.500000
O O6 0.384342 0.758983 0.781733
O O7 0.445647 0.702751 0.838400
O O8 0.237702 0.169479 0.755099
O O9 0.413157 0.502831 0.447325
O O10 0.477532 0.106031 0.689047
O O11 0.224362 0.622615 0.488318
O O12 0.307604 0.108347 0.764781
O O13 0.272573 0.270054 0.302297
O O14 0.501482 0.386877 0.110960
O O15 0.500000 0.500000 0.000000
O O16 0.000000 0.000000 0.500000
#
# Coordination Sequence:
#
# PCOD9001119 Si02
#       7
#     2   2   2   2   2   2   2
#     4  11  23  34  53  88 119 146 189 239 284 333
#     4   8  17  36  59  85 108 150 195 227 281 343
#     4  11  20  35  61  85 111 149 194 228 288 339
#     4   9  19  37  57  77 115 151 188 231 280 337
#     4  12  21  34  55  87 116 141 191 243 275 336
#     4  10  21  34  52  80 112 148 182 232 285 326
#     4   9  20  35  59  81 110 150 191 226 288 333
#
# _framework density 20.483789000000002
#
# number of rings (size 3 to 8) (size 9 to 14) (size 15 to 20)
#    0.857    1.143    2.857    1.286    4.000    0.571 
#    0.000    0.714    0.000    2.571    0.000    0.000 
#    0.000    0.000    0.000    0.000    0.000    0.000 
#
# Total GULP energy -77947.709221 kJ/mol
# GULP energy per Si atom -5567.693516 kJ/mol
# Density = 2.043717 g / cm^3
# Si number density = 20.483789 Si / 1000 Ang^3
#
#
#
# Elastic Constant Matrix: (Units=GPa)
#
#
# Indices 1 2 3 4 5 6 
#
# 1 137.0135 35.0701 7.5957 -2.2543 -2.0493 0.7500
# 2 35.0701 65.8123 20.1461 -4.8931 -5.9770 0.8030
# 3 7.5957 20.1461 45.3655 -14.8348 -8.1082 8.5943
# 4 -2.2543 -4.8931 -14.8348 28.4048 7.6341 -7.3845
# 5 -2.0493 -5.9770 -8.1082 7.6341 36.7116 -5.2446
# 6 0.7500 0.8030 8.5943 -7.3845 -5.2446 29.7389
#
#
#
# Elastic Compliance Matrix: (Units=1/GPa)
#
#
# Indices 1 2 3 4 5 6 
#
# 1 0.008474 -0.004756 0.000790 0.000250 -0.000220 -0.000291
# 2 -0.004756 0.020458 -0.008830 -0.001382 0.001699 0.002076
# 3 0.000790 -0.008830 0.031470 0.013046 0.002092 -0.005268
# 4 0.000250 -0.001382 0.013046 0.045022 -0.005775 0.006422
# 5 -0.000220 0.001699 0.002092 -0.005775 0.029616 0.003144
# 6 -0.000291 0.002076 -0.005268 0.006422 0.003144 0.037249
#
#
# Mechanical properties :
#
#
# Convention : Reuss Voigt Hill
#
# Bulk Modulus (GPa) = 28.72627 41.53501 35.13064
# Shear Modulus (GPa) = 23.86812 31.32968 27.59890
#
# Velocity S-wave (km/s) = 3.41723 3.91511 3.67461
# Velocity P-wave (km/s) = 5.44282 6.38424 5.93223
#
# Compressibility (1/GPa) = 0.03481134
#
# Stress axis : x y z
#
# Youngs Moduli (GPa) = 118.00226 48.87991 31.77611
#
# Poissons Ratio (x) = 0.23246 -0.02512
# Poissons Ratio (y) = 0.56118 0.28060
# Poissons Ratio (z) = -0.09327 0.43163
#
# Static dielectric constant tensor:
#      x y z
#    x 1.765510 -0.002070 0.045120 
#    y -0.002070 1.766410 0.013280 
#    z 0.045120 0.013280 1.790660 
# 
# From -- ./inp_files/542329.got.cif
#   From: 2010.05.17/outbox.cif.g08.bks.cpg/sg2_272_cif.got.tgz:542329.got - 2010.06.03 11:33:40.
