data_PCOD9001441
_publ_section_title
;
Structure prediction by ZEFSAII (Michael W. Deem and Ramdas Pophale) SiO2 
 PCOD9001441
Probable space group: P -1
;
_chemical_formula_sum "Si O2"
_cell_formula_units_Z 14
_cell_length_a 16.850718
_cell_length_b 12.904608
_cell_length_c 15.108287
_cell_angle_alpha 18.551966
_cell_angle_beta 139.622223
_cell_angle_gamma 137.532604
_cell_volume 675.247364
_symmetry_space_group_name_H-M "P -1"
_symmetry_group_IT_number 2
_symmetry_cell_setting 'triclinic'
loop_
_space_group_symop_operation_xyz
x,y,z
-x,-y,-z
loop_
_atom_site_type_symbol
_atom_site_label
_atom_site_fract_x
_atom_site_fract_y
_atom_site_fract_z
Si Si1 0.576752 0.668710 0.221044
Si Si2 0.387137 0.471848 0.355267
Si Si3 0.311373 0.869703 0.654869
Si Si4 0.080334 0.108452 0.841146
Si Si5 0.725862 0.272141 0.792809
Si Si6 0.554292 0.749282 0.684657
Si Si7 0.913672 0.584521 0.222358
O O1 0.450954 0.687469 0.154984
O O2 0.683220 0.572165 0.455751
O O3 0.550015 0.359068 0.386963
O O4 0.619119 0.977116 0.948650
O O5 0.500000 0.500000 0.500000
O O6 0.273800 0.606722 0.203089
O O7 0.343061 0.125368 0.554433
O O8 0.178864 0.675557 0.694873
O O9 0.334076 0.077075 0.416889
O O10 0.403945 0.582292 0.969422
O O11 0.142067 0.265575 0.856261
O O12 0.029919 0.398597 0.506195
O O13 0.163183 0.889409 0.029241
O O14 0.964787 0.879367 0.965064
O O15 0.500000 0.000000 0.500000
#
# Coordination Sequence:
#
# PCOD9001441 Si02
#       7
#     2   2   2   2   2   2   2
#     4  10  21  35  55  87 121 152 191 234 287 354
#     4   9  20  39  59  86 122 158 191 232 286 357
#     4  11  23  39  60  84 119 161 187 235 303 340
#     4  10  22  39  61  84 111 152 200 251 287 341
#     4  11  21  36  62  85 114 156 201 237 289 339
#     4  11  23  35  55  88 121 149 191 234 286 358
#     4  10  22  41  59  82 117 150 197 246 300 336
#
# _framework density 20.733142000000001
#
# number of rings (size 3 to 8) (size 9 to 14) (size 15 to 20)
#    0.000    1.714    0.000    5.143    4.000    3.429 
#    0.000    1.429    0.000    0.000    0.000    0.000 
#    0.000    0.000    0.000    0.000    0.000    0.000 
#
# Total GULP energy -78085.635525 kJ/mol
# GULP energy per Si atom -5577.545395 kJ/mol
# Density = 2.068595 g / cm^3
# Si number density = 20.733142 Si / 1000 Ang^3
#
#
#
# Elastic Constant Matrix: (Units=GPa)
#
#
# Indices 1 2 3 4 5 6 
#
# 1 82.9805 30.7118 23.0994 -14.3804 32.0661 -23.9765
# 2 30.7118 83.6991 12.4201 -32.4420 4.8129 -7.0142
# 3 23.0994 12.4201 77.8257 -14.7807 9.0893 -5.5088
# 4 -14.3804 -32.4420 -14.7807 35.3966 -3.2974 2.0840
# 5 32.0661 4.8129 9.0893 -3.2974 47.6325 -12.9755
# 6 -23.9765 -7.0142 -5.5088 2.0840 -12.9755 21.5409
#
#
#
# Elastic Compliance Matrix: (Units=1/GPa)
#
#
# Indices 1 2 3 4 5 6 
#
# 1 0.024760 -0.006044 -0.003707 0.000933 -0.010285 0.018358
# 2 -0.006044 0.020469 0.001468 0.017173 0.003041 0.000484
# 3 -0.003707 0.001468 0.014851 0.006053 -0.000223 -0.000570
# 4 0.000933 0.017173 0.006053 0.046732 0.000853 0.004171
# 5 -0.010285 0.003041 -0.000223 0.000853 0.029699 0.007292
# 6 0.018358 0.000484 -0.000570 0.004171 0.007292 0.070858
#
#
# Mechanical properties :
#
#
# Convention : Reuss Voigt Hill
#
# Bulk Modulus (GPa) = 22.98049 41.88532 32.43290
# Shear Modulus (GPa) = 20.96969 32.79893 26.88431
#
# Velocity S-wave (km/s) = 3.18372 3.98170 3.60485
# Velocity P-wave (km/s) = 4.96213 6.43308 5.74488
#
# Compressibility (1/GPa) = 0.04351518
#
# Stress axis : x y z
#
# Youngs Moduli (GPa) = 40.38708 48.85329 67.33770
#
# Poissons Ratio (x) = 0.29525 0.24960
# Poissons Ratio (y) = 0.24409 -0.09884
# Poissons Ratio (z) = 0.14970 -0.07171
#
# Static dielectric constant tensor:
#      x y z
#    x 1.783080 -0.018600 0.006260 
#    y -0.018600 1.772410 0.013380 
#    z 0.006260 0.013380 1.755990 
# 
# From -- ./inp_files/64938.got.cif
#   From: 2010.05.17/outbox.cif.g08.bks.cpg/sg2_33_cif.got.tgz:64938.got - 2010.06.03 11:33:40.
