data_PCOD9001381
_publ_section_title
;
Structure prediction by ZEFSAII (Michael W. Deem and Ramdas Pophale) SiO2 
 PCOD9001381
Probable space group: P -1
;
_chemical_formula_sum "Si O2"
_cell_formula_units_Z 16
_cell_length_a 12.507493
_cell_length_b 4.868675
_cell_length_c 16.666395
_cell_angle_alpha 105.217951
_cell_angle_beta 55.302372
_cell_angle_gamma 99.841874
_cell_volume 804.861545
_symmetry_space_group_name_H-M "P -1"
_symmetry_group_IT_number 2
_symmetry_cell_setting 'triclinic'
loop_
_space_group_symop_operation_xyz
x,y,z
-x,-y,-z
loop_
_atom_site_type_symbol
_atom_site_label
_atom_site_fract_x
_atom_site_fract_y
_atom_site_fract_z
Si Si1 0.400680 0.882314 0.441412
Si Si2 0.620844 0.932486 0.706313
Si Si3 0.376048 0.005095 0.109586
Si Si4 0.201684 0.533325 0.193102
Si Si5 0.042700 0.770400 0.700431
Si Si6 0.786104 0.716687 0.351506
Si Si7 0.552035 0.371237 0.357187
Si Si8 0.094609 0.033477 0.386482
O O1 0.438733 0.591633 0.443707
O O2 0.367997 0.854490 0.358545
O O3 0.292225 0.063825 0.543431
O O4 0.530777 0.087765 0.397166
O O5 0.589903 0.048699 0.815794
O O6 0.499526 0.729205 0.715533
O O7 0.767115 0.811098 0.639125
O O8 0.307378 0.307907 0.157875
O O9 0.269201 0.753706 0.119403
O O10 0.500000 0.000000 0.000000
O O11 0.144115 0.737173 0.303392
O O12 0.078689 0.341142 0.203185
O O13 0.312610 0.466010 0.676265
O O14 0.110142 0.070209 0.719327
O O15 0.983953 0.821520 0.640770
O O16 0.857550 0.485003 0.357123
O O17 0.000000 0.000000 0.500000
#
# Coordination Sequence:
#
# PCOD9001381 Si02
#       8
#     2   2   2   2   2   2   2   2
#     4  10  21  35  54  80 119 158 201 253 291 335
#     4   9  23  35  60  85 123 150 200 247 305 349
#     4  11  23  41  66  89 120 156 200 257 317 366
#     4  11  22  42  55  91 121 153 201 247 295 364
#     4  12  23  37  57  82 123 158 202 242 281 361
#     4  12  22  36  56  85 115 169 214 229 292 359
#     4  10  22  37  55  80 117 161 201 262 289 337
#     4  11  23  38  59  86 131 170 200 235 301 368
#
# _framework density 19.879193999999998
#
# number of rings (size 3 to 8) (size 9 to 14) (size 15 to 20)
#    0.750    0.500    3.750    3.375    3.500    1.500 
#    0.000    0.000    0.000    0.000    0.000    5.250 
#    0.000    0.000    0.000    0.000    0.000    0.000 
#
# Total GULP energy -89160.673266 kJ/mol
# GULP energy per Si atom -5572.542079 kJ/mol
# Density = 1.983395 g / cm^3
# Si number density = 19.879194 Si / 1000 Ang^3
#
#
#
# Elastic Constant Matrix: (Units=GPa)
#
#
# Indices 1 2 3 4 5 6 
#
# 1 94.3750 33.1338 37.9047 -4.4222 -14.0699 1.6415
# 2 33.1338 123.0224 30.3788 -14.2386 -21.2143 -5.0327
# 3 37.9047 30.3788 98.4483 -17.2758 -21.3809 13.0853
# 4 -4.4222 -14.2386 -17.2758 23.5504 4.5236 -17.0755
# 5 -14.0699 -21.2143 -21.3809 4.5236 19.9235 -0.3697
# 6 1.6415 -5.0327 13.0853 -17.0755 -0.3697 40.7325
#
#
#
# Elastic Compliance Matrix: (Units=1/GPa)
#
#
# Indices 1 2 3 4 5 6 
#
# 1 0.013478 -0.002465 -0.004218 -0.003245 0.003088 -0.000825
# 2 -0.002465 0.011484 0.000140 0.008655 0.008768 0.005181
# 3 -0.004218 0.000140 0.016006 0.007319 0.012653 -0.001771
# 4 -0.003245 0.008655 0.007319 0.074588 -0.001597 0.030103
# 5 0.003088 0.008768 0.012653 -0.001597 0.075593 -0.003089
# 6 -0.000825 0.005181 -0.001771 0.030103 -0.003089 0.038384
#
#
# Mechanical properties :
#
#
# Convention : Reuss Voigt Hill
#
# Bulk Modulus (GPa) = 35.86548 57.63115 46.74831
# Shear Modulus (GPa) = 19.84806 31.13649 25.49228
#
# Velocity S-wave (km/s) = 3.16323 3.96193 3.58489
# Velocity P-wave (km/s) = 5.60555 7.06985 6.37985
#
# Compressibility (1/GPa) = 0.02788197
#
# Stress axis : x y z
#
# Youngs Moduli (GPa) = 74.19308 87.07954 62.47607
#
# Poissons Ratio (x) = 0.21469 0.26351
# Poissons Ratio (y) = 0.18292 -0.00875
# Poissons Ratio (z) = 0.31293 -0.01219
#
# Static dielectric constant tensor:
#      x y z
#    x 1.791180 0.055300 -0.019860 
#    y 0.055300 1.793290 -0.023880 
#    z -0.019860 -0.023880 1.678850 
# 
# From -- ./inp_files/564196.got.cif
#   From: 2010.05.17/outbox.cif.g08.bks.cpg/sg2_283_cif.got.tgz:564196.got - 2010.06.03 11:33:40.
