data_PCOD9001877
_publ_section_title
;
Structure prediction by ZEFSAII (Michael W. Deem and Ramdas Pophale) SiO2 
 PCOD9001877
Probable space group: P -1
;
_chemical_formula_sum "Si O2"
_cell_formula_units_Z 16
_cell_length_a 9.945784
_cell_length_b 5.267786
_cell_length_c 24.089344
_cell_angle_alpha 89.604930
_cell_angle_beta 132.173964
_cell_angle_gamma 62.769755
_cell_volume 731.135332
_symmetry_space_group_name_H-M "P -1"
_symmetry_group_IT_number 2
_symmetry_cell_setting 'triclinic'
loop_
_space_group_symop_operation_xyz
x,y,z
-x,-y,-z
loop_
_atom_site_type_symbol
_atom_site_label
_atom_site_fract_x
_atom_site_fract_y
_atom_site_fract_z
Si Si1 0.483158 0.741619 0.569008
Si Si2 0.621220 0.931713 0.869015
Si Si3 0.149277 0.773404 0.109186
Si Si4 0.719077 0.774785 0.331620
Si Si5 0.488499 0.473922 0.309499
Si Si6 0.673371 0.828031 0.100956
Si Si7 0.247601 0.451998 0.471736
Si Si8 0.225112 0.765103 0.913022
O O1 0.611313 0.511250 0.658144
O O2 0.278669 0.708847 0.504291
O O3 0.643169 0.612421 0.559151
O O4 0.388769 0.111790 0.545116
O O5 0.786734 0.544790 0.903144
O O6 0.766918 0.062023 0.903725
O O7 0.428275 0.103040 0.766515
O O8 0.483660 0.049671 0.888366
O O9 0.299065 0.645276 0.207997
O O10 0.897261 0.055875 0.063670
O O11 0.635666 0.602779 0.343313
O O12 0.990723 0.563788 0.396561
O O13 0.651021 0.092498 0.342790
O O14 0.837598 0.446678 0.132600
O O15 0.811492 0.969726 0.138852
O O16 0.500000 0.000000 0.000000
O O17 0.500000 0.500000 0.000000
#
# Coordination Sequence:
#
# PCOD9001877 Si02
#       8
#     2   2   2   2   2   2   2   2
#     4  10  21  36  53  78 112 147 185 229 280 334
#     4  10  21  39  60  84 116 152 191 237 287 339
#     4  10  21  39  60  84 116 152 191 237 287 339
#     4  10  21  36  56  82 109 144 191 234 279 334
#     4  10  21  36  56  82 109 144 191 234 279 334
#     4  10  21  39  59  86 117 146 187 234 281 342
#     4  10  21  36  53  78 112 147 185 229 280 334
#     4  10  21  39  59  86 117 146 187 234 281 342
#
# _framework density 21.883772
#
# number of rings (size 3 to 8) (size 9 to 14) (size 15 to 20)
#    0.000    2.000    0.000    3.000    0.000    4.000 
#    0.000   18.750    0.000    0.000    0.000    0.000 
#    0.000    0.000    0.000    0.000    0.000    0.000 
#
# Total GULP energy -89315.088363 kJ/mol
# GULP energy per Si atom -5582.193023 kJ/mol
# Density = 2.183396 g / cm^3
# Si number density = 21.883772 Si / 1000 Ang^3
#
#
#
# Elastic Constant Matrix: (Units=GPa)
#
#
# Indices 1 2 3 4 5 6 
#
# 1 137.9460 60.8045 33.5889 5.0233 -34.0966 15.4659
# 2 60.8045 136.4007 14.2211 5.9278 -17.1460 29.7485
# 3 33.5889 14.2211 41.3676 0.1029 -7.2856 -1.5009
# 4 5.0233 5.9278 0.1029 14.9107 -5.1516 0.5794
# 5 -34.0966 -17.1460 -7.2856 -5.1516 30.1755 3.9874
# 6 15.4659 29.7485 -1.5009 0.5794 3.9874 46.1116
#
#
#
# Elastic Compliance Matrix: (Units=1/GPa)
#
#
# Indices 1 2 3 4 5 6 
#
# 1 0.014319 -0.002942 -0.008444 0.001146 0.013238 -0.004338
# 2 -0.002942 0.010506 -0.000929 -0.001947 0.002888 -0.006047
# 3 -0.008444 -0.000929 0.031005 0.001821 -0.002889 0.004667
# 4 0.001146 -0.001947 0.001821 0.071999 0.013066 -0.001104
# 5 0.013238 0.002888 -0.002889 0.013066 0.052741 -0.011122
# 6 -0.004338 -0.006047 0.004667 -0.001104 -0.011122 0.028170
#
#
# Mechanical properties :
#
#
# Convention : Reuss Voigt Hill
#
# Bulk Modulus (GPa) = 32.05094 59.21593 45.63343
# Shear Modulus (GPa) = 20.51123 32.04619 26.27871
#
# Velocity S-wave (km/s) = 3.06482 3.83088 3.46906
# Velocity P-wave (km/s) = 5.21555 6.83268 6.07814
#
# Compressibility (1/GPa) = 0.03120034
#
# Stress axis : x y z
#
# Youngs Moduli (GPa) = 69.83805 95.18316 32.25312
#
# Poissons Ratio (x) = 0.28005 0.27233
# Poissons Ratio (y) = 0.20548 0.02995
# Poissons Ratio (z) = 0.58969 0.08840
#
# Static dielectric constant tensor:
#      x y z
#    x 1.802250 0.019490 0.001780 
#    y 0.019490 1.889120 0.031380 
#    z 0.001780 0.031380 1.808710 
# 
# From -- ./inp_files/605869.got.cif
#   From: 2010.05.17/outbox.cif.g08.bks.cpg/sg2_303_cif.got.tgz:605869.got - 2010.06.03 11:33:40.
