data_PCOD9001857
_publ_section_title
;
Structure prediction by ZEFSAII (Michael W. Deem and Ramdas Pophale) SiO2 
 PCOD9001857
Probable space group: P -1
;
_chemical_formula_sum "Si O2"
_cell_formula_units_Z 16
_cell_length_a 7.534511
_cell_length_b 9.352303
_cell_length_c 15.423175
_cell_angle_alpha 101.618623
_cell_angle_beta 37.436595
_cell_angle_gamma 89.180940
_cell_volume 618.791028
_symmetry_space_group_name_H-M "P -1"
_symmetry_group_IT_number 2
_symmetry_cell_setting 'triclinic'
loop_
_space_group_symop_operation_xyz
x,y,z
-x,-y,-z
loop_
_atom_site_type_symbol
_atom_site_label
_atom_site_fract_x
_atom_site_fract_y
_atom_site_fract_z
Si Si1 0.388175 0.564137 0.452511
Si Si2 0.465895 0.414536 0.798909
Si Si3 0.390062 0.728779 0.965152
Si Si4 0.125101 0.774320 0.250297
Si Si5 0.073705 0.209648 0.982970
Si Si6 0.663697 0.942790 0.787759
Si Si7 0.537233 0.160230 0.480212
Si Si8 0.544587 0.748190 0.665799
O O1 0.500000 0.500000 0.500000
O O2 0.550795 0.577938 0.297630
O O3 0.254258 0.743008 0.549591
O O4 0.263774 0.424492 0.453241
O O5 0.757899 0.283783 0.707016
O O6 0.197921 0.354285 0.936679
O O7 0.487793 0.570677 0.854390
O O8 0.358988 0.698778 0.074107
O O9 0.059498 0.818007 0.062726
O O10 0.597581 0.839413 0.878771
O O11 0.811767 0.736454 0.350519
O O12 0.116711 0.952348 0.268255
O O13 0.342454 0.071312 0.900389
O O14 0.776509 0.246316 0.163170
O O15 0.719271 0.832250 0.670102
O O16 0.558758 0.159618 0.369556
O O17 0.500000 0.000000 0.500000
#
# Coordination Sequence:
#
# PCOD9001857 Si02
#       8
#     2   2   2   2   2   2   2   2
#     4  10  22  45  69  94 127 172 228 270 318 398
#     4  11  22  41  67 103 130 174 215 278 338 390
#     4  11  20  39  66  99 134 173 217 267 334 399
#     4  11  26  40  62  97 142 169 218 272 335 397
#     4  10  21  35  71  98 131 169 219 278 327 389
#     4  10  22  40  64  99 135 170 213 279 337 384
#     4  11  27  44  68  93 126 178 232 273 323 401
#     4  10  21  42  66  94 128 172 224 267 328 385
#
# _framework density 25.856871000000002
#
# number of rings (size 3 to 8) (size 9 to 14) (size 15 to 20)
#    0.000    1.500    2.500    3.375    8.750    0.500 
#    0.000    5.000    0.000    0.000    0.000    0.000 
#    0.000    0.000    0.000    0.000    0.000    0.000 
#
# Total GULP energy -89266.306117 kJ/mol
# GULP energy per Si atom -5579.144132 kJ/mol
# Density = 2.579802 g / cm^3
# Si number density = 25.856871 Si / 1000 Ang^3
#
#
#
# Elastic Constant Matrix: (Units=GPa)
#
#
# Indices 1 2 3 4 5 6 
#
# 1 88.2612 30.1348 51.9349 -11.4487 17.0317 7.3749
# 2 30.1348 172.8743 46.4266 -18.0525 16.3215 0.7884
# 3 51.9349 46.4266 93.4601 -30.1466 35.9356 -3.0365
# 4 -11.4487 -18.0525 -30.1466 44.1626 0.2069 7.7315
# 5 17.0317 16.3215 35.9356 0.2069 45.0235 -10.1499
# 6 7.3749 0.7884 -3.0365 7.7315 -10.1499 27.3933
#
#
#
# Elastic Compliance Matrix: (Units=1/GPa)
#
#
# Indices 1 2 3 4 5 6 
#
# 1 0.017880 -0.000474 -0.010959 -0.002165 0.001033 -0.005021
# 2 -0.000474 0.006716 -0.002702 0.000904 -0.000264 -0.000718
# 3 -0.010959 -0.002702 0.033426 0.020323 -0.023375 -0.007664
# 4 -0.002165 0.000904 0.020323 0.039114 -0.019384 -0.015412
# 5 0.001033 -0.000264 -0.023375 -0.019384 0.045009 0.019286
# 6 -0.005021 -0.000718 -0.007664 -0.015412 0.019286 0.048524
#
#
# Mechanical properties :
#
#
# Convention : Reuss Voigt Hill
#
# Bulk Modulus (GPa) = 33.61336 67.95426 50.78381
# Shear Modulus (GPa) = 21.84776 38.38916 30.11846
#
# Velocity S-wave (km/s) = 2.90996 3.85733 3.41664
# Velocity P-wave (km/s) = 4.93137 6.79534 5.93697
#
# Compressibility (1/GPa) = 0.02975008
#
# Stress axis : x y z
#
# Youngs Moduli (GPa) = 55.92965 148.90553 29.91683
#
# Poissons Ratio (x) = 0.07065 0.32785
# Poissons Ratio (y) = 0.02654 0.08085
# Poissons Ratio (z) = 0.61292 0.40240
#
# Static dielectric constant tensor:
#      x y z
#    x 2.060680 -0.086580 -0.082810 
#    y -0.086580 2.088830 0.050480 
#    z -0.082810 0.050480 2.054480 
# 
# From -- ./inp_files/406823.got.cif
#   From: 2010.05.17/outbox.cif.g08.bks.cpg/sg2_204_cif.got.tgz:406823.got - 2010.06.03 11:33:40.
