data_PCOD9001326
_publ_section_title
;
Structure prediction by ZEFSAII (Michael W. Deem and Ramdas Pophale) SiO2 
 PCOD9001326
Probable space group: P -1
;
_chemical_formula_sum "Si O2"
_cell_formula_units_Z 16
_cell_length_a 24.266049
_cell_length_b 18.101747
_cell_length_c 11.924552
_cell_angle_alpha 31.427862
_cell_angle_beta 30.643631
_cell_angle_gamma 17.189151
_cell_volume 771.687504
_symmetry_space_group_name_H-M "P -1"
_symmetry_group_IT_number 2
_symmetry_cell_setting 'triclinic'
loop_
_space_group_symop_operation_xyz
x,y,z
-x,-y,-z
loop_
_atom_site_type_symbol
_atom_site_label
_atom_site_fract_x
_atom_site_fract_y
_atom_site_fract_z
Si Si1 0.796228 0.814414 0.695480
Si Si2 0.183710 0.882814 0.781523
Si Si3 0.184252 0.018078 0.163886
Si Si4 0.397821 0.256558 0.914018
Si Si5 0.280590 0.694372 0.611068
Si Si6 0.152184 0.357516 0.817755
Si Si7 0.434611 0.579032 0.140666
Si Si8 0.743265 0.526491 0.356109
O O1 0.011156 0.547665 0.714361
O O2 0.809321 0.953272 0.433574
O O3 0.634839 0.005039 0.834018
O O4 0.721802 0.756056 0.833790
O O5 0.173630 0.859756 0.696291
O O6 0.379765 0.614571 0.848869
O O7 0.000000 0.000000 0.000000
O O8 0.954209 0.291803 0.230139
O O9 0.222057 0.849698 0.404057
O O10 0.276654 0.869089 0.077939
O O11 0.267104 0.085436 0.954577
O O12 0.291746 0.513010 0.811395
O O13 0.389209 0.275024 0.769617
O O14 0.500000 0.500000 0.500000
O O15 0.267958 0.364505 0.655030
O O16 0.000000 0.500000 0.000000
O O17 0.323317 0.555416 0.390177
O O18 0.500000 0.500000 0.000000
#
# Coordination Sequence:
#
# PCOD9001326 Si02
#       8
#     2   2   2   2   2   2   2   2
#     4  11  21  41  62  96 135 169 220 272 328 392
#     4  12  27  46  67  94 134 182 220 267 338 400
#     4  11  22  40  68 103 130 166 226 269 326 396
#     4  11  22  36  69 100 131 165 222 285 324 375
#     4  12  22  41  69  99 130 170 227 278 319 385
#     4  10  21  34  64  99 131 169 208 273 331 384
#     4  12  27  45  64  96 137 174 219 275 334 396
#     4  11  21  40  64 103 130 171 217 273 337 384
#
# _framework density 20.733781
#
# number of rings (size 3 to 8) (size 9 to 14) (size 15 to 20)
#    0.000    0.750    7.500    1.875    3.500    0.000 
#    0.000    1.250    0.000    0.000    0.000    0.000 
#    0.000    0.000    0.000    0.000    0.000    0.000 
#
# Total GULP energy -89182.594903 kJ/mol
# GULP energy per Si atom -5573.912181 kJ/mol
# Density = 2.068659 g / cm^3
# Si number density = 20.733781 Si / 1000 Ang^3
#
#
#
# Elastic Constant Matrix: (Units=GPa)
#
#
# Indices 1 2 3 4 5 6 
#
# 1 86.5329 39.3798 39.2848 0.1381 -17.4176 14.8123
# 2 39.3798 51.2044 42.8673 -6.9967 -10.9882 25.1599
# 3 39.2848 42.8673 88.1640 -5.8074 -31.9543 17.7253
# 4 0.1381 -6.9967 -5.8074 29.8137 4.8903 -1.7540
# 5 -17.4176 -10.9882 -31.9543 4.8903 47.6603 -2.6564
# 6 14.8123 25.1599 17.7253 -1.7540 -2.6564 25.4134
#
#
#
# Elastic Compliance Matrix: (Units=1/GPa)
#
#
# Indices 1 2 3 4 5 6 
#
# 1 0.019355 -0.017606 -0.000356 -0.004501 0.003598 0.006463
# 2 -0.017606 0.074005 -0.019932 0.011779 -0.006675 -0.048987
# 3 -0.000356 -0.019932 0.024753 -0.001638 0.012253 0.003844
# 4 -0.004501 0.011779 -0.001638 0.036335 -0.004080 -0.005815
# 5 0.003598 -0.006675 0.012253 -0.004080 0.029321 -0.001251
# 6 0.006463 -0.048987 0.003844 -0.005815 -0.001251 0.080868
#
#
# Mechanical properties :
#
#
# Convention : Reuss Voigt Hill
#
# Bulk Modulus (GPa) = 23.62730 52.10722 37.86726
# Shear Modulus (GPa) = 14.10307 27.53543 20.81925
#
# Velocity S-wave (km/s) = 2.61089 3.64819 3.17223
# Velocity P-wave (km/s) = 4.52872 6.55224 5.63210
#
# Compressibility (1/GPa) = 0.04232393
#
# Stress axis : x y z
#
# Youngs Moduli (GPa) = 51.66568 13.51268 40.39991
#
# Poissons Ratio (x) = 0.23791 0.01437
# Poissons Ratio (y) = 0.90965 0.80526
# Poissons Ratio (z) = 0.01838 0.26934
#
# Static dielectric constant tensor:
#      x y z
#    x 1.842200 -0.073220 -0.032630 
#    y -0.073220 1.871190 -0.094440 
#    z -0.032630 -0.094440 1.789450 
# 
# From -- ./inp_files/475415.got.cif
#   From: 2010.05.17/outbox.cif.g08.bks.cpg/sg2_238_cif.got.tgz:475415.got - 2010.06.03 11:33:40.
