data_PCOD9001699
_publ_section_title
;
Structure prediction by ZEFSAII (Michael W. Deem and Ramdas Pophale) SiO2 
 PCOD9001699
Probable space group: P -1
;
_chemical_formula_sum "Si O2"
_cell_formula_units_Z 16
_cell_length_a 8.695511
_cell_length_b 21.563521
_cell_length_c 14.231622
_cell_angle_alpha 20.379976
_cell_angle_beta 124.543946
_cell_angle_gamma 123.384857
_cell_volume 763.820894
_symmetry_space_group_name_H-M "P -1"
_symmetry_group_IT_number 2
_symmetry_cell_setting 'triclinic'
loop_
_space_group_symop_operation_xyz
x,y,z
-x,-y,-z
loop_
_atom_site_type_symbol
_atom_site_label
_atom_site_fract_x
_atom_site_fract_y
_atom_site_fract_z
Si Si1 0.342320 0.491433 0.038652
Si Si2 0.596247 0.792371 0.011638
Si Si3 0.191097 0.971703 0.944489
Si Si4 0.599784 0.504022 0.741902
Si Si5 0.174762 0.841832 0.459671
Si Si6 0.510155 0.176986 0.869569
Si Si7 0.025931 0.394606 0.563332
Si Si8 0.009405 0.510528 0.783092
O O1 0.273960 0.686657 0.769582
O O2 0.156276 0.405878 0.044307
O O3 0.500000 0.500000 0.000000
O O4 0.405336 0.420140 0.261581
O O5 0.501162 0.690315 0.035514
O O6 0.460950 0.793782 0.052166
O O7 0.770267 0.681891 0.261459
O O8 0.677543 0.993448 0.737466
O O9 0.306500 0.080536 0.911171
O O10 0.336671 0.939089 0.959030
O O11 0.017699 0.074211 0.697979
O O12 0.113271 0.781936 0.227199
O O13 0.492666 0.636529 0.450172
O O14 0.811950 0.504995 0.775297
O O15 0.103042 0.715185 0.527983
O O16 0.002822 0.522809 0.284028
O O17 0.000000 0.500000 0.500000
#
# Coordination Sequence:
#
# PCOD9001699 Si02
#       8
#     2   2   2   2   2   2   2   2
#     4  10  25  43  69  87 116 169 222 251 292 369
#     4  11  23  37  63  94 131 159 196 264 320 363
#     4  10  21  35  61  89 127 163 203 251 307 372
#     4  12  23  40  64  93 128 162 206 258 308 365
#     4   9  21  44  60  88 121 168 207 248 308 368
#     4  11  21  35  60  98 126 160 203 256 318 365
#     4  11  22  36  60  93 131 164 201 249 319 373
#     4  10  22  41  64  85 125 163 210 247 303 366
#
# _framework density 20.947317999999999
#
# number of rings (size 3 to 8) (size 9 to 14) (size 15 to 20)
#    0.750    0.750    2.500    2.250    5.250    3.500 
#    0.000    0.000    0.000    1.500    0.000    0.000 
#    0.000    0.000    0.000    0.000    0.000    0.000 
#
# Total GULP energy -89189.575087 kJ/mol
# GULP energy per Si atom -5574.348443 kJ/mol
# Density = 2.089964 g / cm^3
# Si number density = 20.947318 Si / 1000 Ang^3
#
#
#
# Elastic Constant Matrix: (Units=GPa)
#
#
# Indices 1 2 3 4 5 6 
#
# 1 66.8761 24.5333 -4.7834 8.3815 -0.0724 -7.0509
# 2 24.5333 68.0085 -0.3428 -2.7541 -20.7840 -3.5109
# 3 -4.7834 -0.3428 20.4122 -8.3872 -1.6586 12.0048
# 4 8.3815 -2.7541 -8.3872 25.8796 1.9207 -4.8553
# 5 -0.0724 -20.7840 -1.6586 1.9207 23.2119 4.5062
# 6 -7.0509 -3.5109 12.0048 -4.8553 4.5062 30.3804
#
#
#
# Elastic Compliance Matrix: (Units=1/GPa)
#
#
# Indices 1 2 3 4 5 6 
#
# 1 0.019789 -0.010040 -0.001526 -0.006454 -0.009356 0.004392
# 2 -0.010040 0.025513 0.004178 0.004882 0.023431 -0.003728
# 3 -0.001526 0.004178 0.073892 0.018675 0.012907 -0.027999
# 4 -0.006454 0.004882 0.018675 0.046945 0.002017 -0.001110
# 5 -0.009356 0.023431 0.012907 0.002017 0.067556 -0.014262
# 6 0.004392 -0.003728 -0.027999 -0.001110 -0.014262 0.046506
#
#
# Mechanical properties :
#
#
# Convention : Reuss Voigt Hill
#
# Bulk Modulus (GPa) = 9.57692 21.56790 15.57241
# Shear Modulus (GPa) = 15.16147 24.95371 20.05759
#
# Velocity S-wave (km/s) = 2.69325 3.45521 3.09775
# Velocity P-wave (km/s) = 3.77536 5.12216 4.49944
#
# Compressibility (1/GPa) = 0.10441770
#
# Stress axis : x y z
#
# Youngs Moduli (GPa) = 50.53368 39.19573 13.53325
#
# Poissons Ratio (x) = 0.39353 0.02065
# Poissons Ratio (y) = 0.50736 -0.05654
# Poissons Ratio (z) = 0.07713 -0.16377
#
# Static dielectric constant tensor:
#      x y z
#    x 1.761030 0.011820 -0.007880 
#    y 0.011820 1.791280 0.012180 
#    z -0.007880 0.012180 1.820290 
# 
# From -- ./inp_files/508709.got.cif
#   From: 2010.05.17/outbox.cif.g08.bks.cpg/sg2_255_cif.got.tgz:508709.got - 2010.06.03 11:33:40.
