data_PCOD9001351
_publ_section_title
;
Structure prediction by ZEFSAII (Michael W. Deem and Ramdas Pophale) SiO2 
 PCOD9001351
Probable space group: P -1
;
_chemical_formula_sum "Si O2"
_cell_formula_units_Z 14
_cell_length_a 12.360326
_cell_length_b 24.890416
_cell_length_c 23.691516
_cell_angle_alpha 168.748794
_cell_angle_beta 30.894626
_cell_angle_gamma 149.292794
_cell_volume 718.097092
_symmetry_space_group_name_H-M "P -1"
_symmetry_group_IT_number 2
_symmetry_cell_setting 'triclinic'
loop_
_space_group_symop_operation_xyz
x,y,z
-x,-y,-z
loop_
_atom_site_type_symbol
_atom_site_label
_atom_site_fract_x
_atom_site_fract_y
_atom_site_fract_z
Si Si1 0.594532 0.199194 0.025521
Si Si2 0.302113 0.290341 0.347556
Si Si3 0.840834 0.750100 0.884614
Si Si4 0.290702 0.824309 0.693439
Si Si5 0.125434 0.472838 0.234534
Si Si6 0.841865 0.810236 0.571322
Si Si7 0.734907 0.056113 0.427164
O O1 0.400274 0.142771 0.100395
O O2 0.688050 0.530810 0.328558
O O3 0.486970 0.033001 0.848331
O O4 0.791975 0.058950 0.812090
O O5 0.500000 0.500000 0.500000
O O6 0.222481 0.118867 0.262537
O O7 0.114654 0.455387 0.583801
O O8 0.693445 0.495814 0.654790
O O9 0.838626 0.648726 0.845139
O O10 0.080959 0.794999 0.797488
O O11 0.764705 0.036000 0.196681
O O12 0.255347 0.759093 0.443952
O O13 0.185643 0.233891 0.920560
O O14 0.087640 0.783006 0.442485
O O15 0.500000 0.000000 0.500000
#
# Coordination Sequence:
#
# PCOD9001351 Si02
#       7
#     2   2   2   2   2   2   2
#     4  11  21  33  54  79 116 156 182 217 274 323
#     4   9  20  31  49  78 115 149 179 210 260 341
#     4  10  22  36  51  81 113 154 196 225 261 326
#     4  10  22  34  53  78 117 156 192 225 258 316
#     4  11  23  36  60  82 114 151 185 230 284 334
#     4  10  21  35  51  82 110 145 190 223 274 347
#     4  11  23  41  61  85 110 141 188 245 289 334
#
# _framework density 19.49597
#
# number of rings (size 3 to 8) (size 9 to 14) (size 15 to 20)
#    0.000    1.714    0.000    5.143   14.000    0.000 
#    0.000    0.000    0.000    0.000    0.000   20.000 
#    0.000    0.000    0.000    0.000    0.000    0.000 
#
# Total GULP energy -78032.483808 kJ/mol
# GULP energy per Si atom -5573.748843 kJ/mol
# Density = 1.945160 g / cm^3
# Si number density = 19.495970 Si / 1000 Ang^3
#
#
#
# Elastic Constant Matrix: (Units=GPa)
#
#
# Indices 1 2 3 4 5 6 
#
# 1 76.2585 31.6946 11.9430 -2.2327 -7.4244 4.2155
# 2 31.6946 98.2003 7.8129 1.9696 -7.7035 6.8026
# 3 11.9430 7.8129 70.3902 13.5350 -8.5031 -4.7886
# 4 -2.2327 1.9696 13.5350 15.6823 -0.1187 -4.0936
# 5 -7.4244 -7.7035 -8.5031 -0.1187 29.1673 9.9099
# 6 4.2155 6.8026 -4.7886 -4.0936 9.9099 14.0741
#
#
#
# Elastic Compliance Matrix: (Units=1/GPa)
#
#
# Indices 1 2 3 4 5 6 
#
# 1 0.016193 -0.004398 -0.002919 0.004018 0.003932 -0.005318
# 2 -0.004398 0.012870 0.000321 -0.005208 0.005909 -0.010470
# 3 -0.002919 0.000321 0.018394 -0.016683 0.005145 -0.001497
# 4 0.004018 -0.005208 -0.016683 0.087700 -0.015831 0.032292
# 5 0.003932 0.005909 0.005145 -0.015831 0.053397 -0.044486
# 6 -0.005318 -0.010470 -0.001497 0.032292 -0.044486 0.117912
#
#
# Mechanical properties :
#
#
# Convention : Reuss Voigt Hill
#
# Bulk Modulus (GPa) = 29.88202 38.63890 34.26046
# Shear Modulus (GPa) = 15.07782 24.67799 19.87791
#
# Velocity S-wave (km/s) = 2.78399 3.56167 3.19657
# Velocity P-wave (km/s) = 5.06899 6.06431 5.58886
#
# Compressibility (1/GPa) = 0.03346495
#
# Stress axis : x y z
#
# Youngs Moduli (GPa) = 61.75638 77.69715 54.36665
#
# Poissons Ratio (x) = 0.34170 0.15868
# Poissons Ratio (y) = 0.27159 -0.01743
# Poissons Ratio (z) = 0.18025 -0.02490
#
# Static dielectric constant tensor:
#      x y z
#    x 1.823570 0.050020 0.070780 
#    y 0.050020 1.712950 0.043550 
#    z 0.070780 0.043550 1.716330 
# 
# From -- ./inp_files/433873.got.cif
#   From: 2010.05.17/outbox.cif.g08.bks.cpg/sg2_217_cif.got.tgz:433873.got - 2010.06.03 11:33:40.
