data_PCOD9001420
_publ_section_title
;
Structure prediction by ZEFSAII (Michael W. Deem and Ramdas Pophale) SiO2 
 PCOD9001420
Probable space group: P -1
;
_chemical_formula_sum "Si O2"
_cell_formula_units_Z 16
_cell_length_a 9.307177
_cell_length_b 9.178485
_cell_length_c 12.208399
_cell_angle_alpha 88.571159
_cell_angle_beta 90.684839
_cell_angle_gamma 124.502884
_cell_volume 859.191184
_symmetry_space_group_name_H-M "P -1"
_symmetry_group_IT_number 2
_symmetry_cell_setting 'triclinic'
loop_
_space_group_symop_operation_xyz
x,y,z
-x,-y,-z
loop_
_atom_site_type_symbol
_atom_site_label
_atom_site_fract_x
_atom_site_fract_y
_atom_site_fract_z
Si Si1 0.937596 0.935744 0.877405
Si Si2 0.730740 0.439497 0.519473
Si Si3 0.085510 0.786385 0.266957
Si Si4 0.760958 0.954731 0.284065
Si Si5 0.695701 0.571042 0.301315
Si Si6 0.115666 0.786874 0.516773
Si Si7 0.618253 0.279969 0.754803
Si Si8 0.413946 0.451056 0.119155
O O1 0.762691 0.741604 0.878668
O O2 0.904532 0.071054 0.815255
O O3 0.090078 0.946370 0.808111
O O4 0.000000 0.000000 0.000000
O O5 0.640269 0.471837 0.418616
O O6 0.775889 0.301429 0.483237
O O7 0.634173 0.368915 0.634862
O O8 0.915162 0.626124 0.538322
O O9 0.124488 0.853858 0.392136
O O10 0.223918 0.742497 0.237929
O O11 0.885652 0.613807 0.271210
O O12 0.735785 0.766762 0.306492
O O13 0.572672 0.902063 0.242891
O O14 0.817112 0.066732 0.393056
O O15 0.552790 0.469503 0.208315
O O16 0.624832 0.406706 0.844739
O O17 0.500000 0.500000 0.000000
#
# Coordination Sequence:
#
# PCOD9001420 Si02
#       8
#     2   2   2   2   2   2   2   2
#     4  11  23  41  60  80 110 146 187 233 280 328
#     4   9  18  33  54  83 117 149 183 225 274 327
#     4   9  20  38  58  83 116 148 183 227 275 330
#     4  10  21  35  55  83 116 149 185 227 275 327
#     4   9  20  36  56  83 115 147 186 229 274 326
#     4   9  18  33  54  83 118 150 182 225 275 327
#     4  10  21  37  58  85 116 148 185 226 274 332
#     4  11  23  41  61  81 108 144 189 235 279 328
#
# _framework density 18.622164999999999
#
# number of rings (size 3 to 8) (size 9 to 14) (size 15 to 20)
#    0.000    2.250    0.000    3.750    0.000   11.500 
#    0.000    6.250    0.000    0.000    0.000    0.000 
#    0.000    0.000    0.000    0.000    0.000    0.000 
#
# Total GULP energy -89329.512472 kJ/mol
# GULP energy per Si atom -5583.094529 kJ/mol
# Density = 1.857978 g / cm^3
# Si number density = 18.622165 Si / 1000 Ang^3
#
#
#
# Elastic Constant Matrix: (Units=GPa)
#
#
# Indices 1 2 3 4 5 6 
#
# 1 114.6508 42.9103 55.3394 11.3346 -13.7418 21.1960
# 2 42.9103 95.1477 84.2279 11.0283 0.7059 21.9402
# 3 55.3394 84.2279 132.2214 19.3886 -16.6280 8.6457
# 4 11.3346 11.0283 19.3886 34.8516 6.0607 2.2499
# 5 -13.7418 0.7059 -16.6280 6.0607 26.9455 -5.2019
# 6 21.1960 21.9402 8.6457 2.2499 -5.2019 14.0051
#
#
#
# Elastic Compliance Matrix: (Units=1/GPa)
#
#
# Indices 1 2 3 4 5 6 
#
# 1 0.020563 0.033199 -0.029132 0.008216 -0.024819 -0.075684
# 2 0.033199 0.186746 -0.138205 0.053287 -0.147144 -0.320694
# 3 -0.029132 -0.138205 0.113203 -0.045372 0.115321 0.240838
# 4 0.008216 0.053287 -0.045372 0.050211 -0.055117 -0.096442
# 5 -0.024819 -0.147144 0.115321 -0.055117 0.163299 0.266393
# 6 -0.075684 -0.320694 0.240838 -0.096442 0.266393 0.654104
#
#
# Mechanical properties :
#
#
# Convention : Reuss Voigt Hill
#
# Bulk Modulus (GPa) = 19.14375 78.55277 48.84826
# Shear Modulus (GPa) = 3.39256 25.79661 14.59458
#
# Velocity S-wave (km/s) = 1.35120 3.72595 2.80254
# Velocity P-wave (km/s) = 3.56885 7.79643 6.06304
#
# Compressibility (1/GPa) = 0.05223636
#
# Stress axis : x y z
#
# Youngs Moduli (GPa) = 48.63033 5.35486 8.83366
#
# Poissons Ratio (x) = -0.17777 0.25734
# Poissons Ratio (y) = -1.61447 1.22086
# Poissons Ratio (z) = 1.41669 0.74007
#
# Static dielectric constant tensor:
#      x y z
#    x 1.679790 0.012320 0.001190 
#    y 0.012320 1.622880 -0.015090 
#    z 0.001190 -0.015090 1.622090 
# 
# From -- ./inp_files/218694.got.cif
#   From: 2010.05.17/outbox.cif.g08.bks.cpg/sg2_110_cif.got.tgz:218694.got - 2010.06.03 11:33:40.
