data_PCOD9001298
_publ_section_title
;
Structure prediction by ZEFSAII (Michael W. Deem and Ramdas Pophale) SiO2 
 PCOD9001298
Probable space group: P -1
;
_chemical_formula_sum "Si O2"
_cell_formula_units_Z 14
_cell_length_a 11.532654
_cell_length_b 5.518784
_cell_length_c 11.738203
_cell_angle_alpha 72.796401
_cell_angle_beta 66.944913
_cell_angle_gamma 96.212633
_cell_volume 634.974671
_symmetry_space_group_name_H-M "P -1"
_symmetry_group_IT_number 2
_symmetry_cell_setting 'triclinic'
loop_
_space_group_symop_operation_xyz
x,y,z
-x,-y,-z
loop_
_atom_site_type_symbol
_atom_site_label
_atom_site_fract_x
_atom_site_fract_y
_atom_site_fract_z
Si Si1 0.959561 0.831875 0.385418
Si Si2 0.608468 0.011505 0.649572
Si Si3 0.182796 0.254611 0.318112
Si Si4 0.650850 0.370845 0.224721
Si Si5 0.830722 0.329071 0.361175
Si Si6 0.323380 0.680768 0.046978
Si Si7 0.467865 0.219662 0.867461
O O1 0.906036 0.711695 0.545620
O O2 0.918039 0.600605 0.342157
O O3 0.895803 0.082495 0.359334
O O4 0.110628 0.980121 0.323560
O O5 0.706510 0.229059 0.507451
O O6 0.571991 0.106959 0.772627
O O7 0.684565 0.787394 0.673463
O O8 0.466952 0.883567 0.668563
O O9 0.208394 0.489767 0.186484
O O10 0.772618 0.380730 0.255127
O O11 0.587023 0.613418 0.226485
O O12 0.679756 0.383859 0.076428
O O13 0.451234 0.655294 0.071211
O O14 0.346272 0.993858 0.991423
#
# Coordination Sequence:
#
# PCOD9001298 Si02
#       7
#     2   2   2   2   2   2   2
#     4  10  25  45  67  93 119 171 211 268 299 365
#     4  10  22  37  64  96 118 164 201 267 314 371
#     4  10  21  43  67  90 125 152 222 263 313 346
#     4  11  23  39  58  94 131 164 197 255 313 395
#     4  11  25  43  64  91 133 165 211 247 318 374
#     4  10  21  36  58  95 120 164 202 261 310 373
#     4  10  21  34  61  93 129 156 208 249 325 366
#
# _framework density 22.048124000000001
#
# number of rings (size 3 to 8) (size 9 to 14) (size 15 to 20)
#    0.000    1.714    1.429    1.714   10.000    6.857 
#    0.000    1.429    0.000    0.000    0.000    0.000 
#    0.000    0.000    0.000    0.000    0.000    0.000 
#
# Total GULP energy -78140.110280 kJ/mol
# GULP energy per Si atom -5581.436449 kJ/mol
# Density = 2.199794 g / cm^3
# Si number density = 22.048124 Si / 1000 Ang^3
#
#
#
# Elastic Constant Matrix: (Units=GPa)
#
#
# Indices 1 2 3 4 5 6 
#
# 1 71.8159 28.9858 16.1020 5.1479 16.8416 10.2607
# 2 28.9858 93.1201 24.4919 -7.5516 -0.3171 15.5891
# 3 16.1020 24.4919 87.8229 -10.8233 6.5446 6.9003
# 4 5.1479 -7.5516 -10.8233 25.2511 5.8758 -1.2870
# 5 16.8416 -0.3171 6.5446 5.8758 28.2670 -0.4032
# 6 10.2607 15.5891 6.9003 -1.2870 -0.4032 30.1455
#
#
#
# Elastic Compliance Matrix: (Units=1/GPa)
#
#
# Indices 1 2 3 4 5 6 
#
# 1 0.019845 -0.005496 -0.001495 -0.004025 -0.010758 -0.003886
# 2 -0.005496 0.014151 -0.002398 0.003333 0.003229 -0.004712
# 3 -0.001495 -0.002398 0.013433 0.006111 -0.003533 -0.001112
# 4 -0.004025 0.003333 0.006111 0.046033 -0.008547 0.000099
# 5 -0.010758 0.003229 -0.003533 -0.008547 0.044460 0.003030
# 6 -0.003886 -0.004712 -0.001112 0.000099 0.003030 0.037231
#
#
# Mechanical properties :
#
#
# Convention : Reuss Voigt Hill
#
# Bulk Modulus (GPa) = 34.90422 43.54650 39.22536
# Shear Modulus (GPa) = 24.57230 28.94465 26.75848
#
# Velocity S-wave (km/s) = 3.34201 3.62718 3.48751
# Velocity P-wave (km/s) = 5.54593 6.11028 5.83493
#
# Compressibility (1/GPa) = 0.02864983
#
# Stress axis : x y z
#
# Youngs Moduli (GPa) = 50.39167 70.66802 74.44302
#
# Poissons Ratio (x) = 0.38843 0.11126
# Poissons Ratio (y) = 0.27698 0.17852
# Poissons Ratio (z) = 0.07532 0.16947
#
# Static dielectric constant tensor:
#      x y z
#    x 1.817940 -0.036680 -0.013340 
#    y -0.036680 1.926550 -0.032460 
#    z -0.013340 -0.032460 1.800180 
# 
# From -- ./inp_files/65946.got.cif
#   From: 2010.05.17/outbox.cif.g08.bks.cpg/sg2_33_cif.got.tgz:65946.got - 2010.06.03 11:33:40.
