data_PCOD9001641
_publ_section_title
;
Structure prediction by ZEFSAII (Michael W. Deem and Ramdas Pophale) SiO2 
 PCOD9001641
Probable space group: P -1
;
_chemical_formula_sum "Si O2"
_cell_formula_units_Z 16
_cell_length_a 9.587037
_cell_length_b 15.275538
_cell_length_c 8.308340
_cell_angle_alpha 74.423561
_cell_angle_beta 108.430505
_cell_angle_gamma 46.143800
_cell_volume 583.854622
_symmetry_space_group_name_H-M "P -1"
_symmetry_group_IT_number 2
_symmetry_cell_setting 'triclinic'
loop_
_space_group_symop_operation_xyz
x,y,z
-x,-y,-z
loop_
_atom_site_type_symbol
_atom_site_label
_atom_site_fract_x
_atom_site_fract_y
_atom_site_fract_z
Si Si1 0.752543 0.092456 0.974151
Si Si2 0.613071 0.056149 0.650326
Si Si3 0.512505 0.040288 0.157597
Si Si4 0.626388 0.560790 0.395674
Si Si5 0.955152 0.199363 0.312684
Si Si6 0.007638 0.628284 0.862712
Si Si7 0.234485 0.720828 0.478635
Si Si8 0.910173 0.587513 0.179326
O O1 0.560466 0.145329 0.742044
O O2 0.579891 0.272176 0.876247
O O3 0.000000 0.000000 0.000000
O O4 0.930869 0.923737 0.219940
O O5 0.329925 0.197082 0.376869
O O6 0.685868 0.920616 0.824068
O O7 0.865785 0.952234 0.676546
O O8 0.799438 0.889432 0.435928
O O9 0.386963 0.206530 0.014510
O O10 0.500000 0.000000 0.000000
O O11 0.448949 0.641194 0.458418
O O12 0.725448 0.409462 0.450507
O O13 0.899031 0.476120 0.576936
O O14 0.859762 0.341557 0.119226
O O15 0.745968 0.263948 0.331634
O O16 0.111807 0.506235 0.821129
O O17 0.050783 0.557713 0.084300
#
# Coordination Sequence:
#
# PCOD9001641 Si02
#       8
#     2   2   2   2   2   2   2   2
#     4  10  21  40  66  88 117 163 210 254 305 361
#     4  11  19  39  60  86 123 160 200 255 306 375
#     4  11  21  35  61  91 121 163 204 251 312 368
#     4  10  21  41  67  87 121 163 217 252 307 363
#     4  11  21  40  58  94 124 161 207 246 319 376
#     4  10  21  35  60  87 129 156 198 252 315 367
#     4  10  23  42  65  89 124 165 207 262 303 369
#     4  11  19  37  60  92 121 163 201 257 307 366
#
# _framework density 27.404083
#
# number of rings (size 3 to 8) (size 9 to 14) (size 15 to 20)
#    0.000    1.500    3.750    3.000    0.000    0.000 
#    4.500    5.000    0.000    0.000    0.000    0.000 
#    0.000    0.000    0.000    0.000    0.000    0.000 
#
# Total GULP energy -89492.590859 kJ/mol
# GULP energy per Si atom -5593.286929 kJ/mol
# Density = 2.734171 g / cm^3
# Si number density = 27.404083 Si / 1000 Ang^3
#
#
#
# Elastic Constant Matrix: (Units=GPa)
#
#
# Indices 1 2 3 4 5 6 
#
# 1 48.7660 13.6929 22.1619 -6.6774 -23.7126 -5.7770
# 2 13.6929 140.2018 39.5968 -25.3740 -15.7541 -18.5875
# 3 22.1619 39.5968 110.1398 -22.7143 -1.9847 4.3736
# 4 -6.6774 -25.3740 -22.7143 57.3808 2.8413 -13.2369
# 5 -23.7126 -15.7541 -1.9847 2.8413 44.7568 -2.1500
# 6 -5.7770 -18.5875 4.3736 -13.2369 -2.1500 47.2261
#
#
#
# Elastic Compliance Matrix: (Units=1/GPa)
#
#
# Indices 1 2 3 4 5 6 
#
# 1 0.033048 0.002207 -0.006806 0.002884 0.018146 0.007176
# 2 0.002207 0.009951 -0.003244 0.004524 0.004527 0.005961
# 3 -0.006806 -0.003244 0.012085 0.002125 -0.004483 -0.002837
# 4 0.002884 0.004524 0.002125 0.022415 0.002191 0.008319
# 5 0.018146 0.004527 -0.004483 0.002191 0.033528 0.006557
# 6 0.007176 0.005961 -0.002837 0.008319 0.006557 0.027292
#
#
# Mechanical properties :
#
#
# Convention : Reuss Voigt Hill
#
# Bulk Modulus (GPa) = 25.38189 50.00119 37.69154
# Shear Modulus (GPa) = 29.91541 44.78313 37.34927
#
# Velocity S-wave (km/s) = 3.30758 4.04688 3.69576
# Velocity P-wave (km/s) = 4.88559 6.33418 5.65645
#
# Compressibility (1/GPa) = 0.03939817
#
# Stress axis : x y z
#
# Youngs Moduli (GPa) = 30.25887 100.49316 82.74571
#
# Poissons Ratio (x) = -0.22180 0.56320
# Poissons Ratio (y) = -0.06678 0.26840
# Poissons Ratio (z) = 0.20595 0.32597
#
# Static dielectric constant tensor:
#      x y z
#    x 2.244020 -0.033400 -0.046380 
#    y -0.033400 2.222570 0.039540 
#    z -0.046380 0.039540 2.132960 
# 
# From -- ./inp_files/200284.got.cif
#   From: 2010.05.17/outbox.cif.g08.bks.cpg/sg2_101_cif.got.tgz:200284.got - 2010.06.03 11:33:40.
