data_PCOD9001006
_publ_section_title
;
Structure prediction by ZEFSAII (Michael W. Deem and Ramdas Pophale) SiO2 
 PCOD9001006
Probable space group: P -1
;
_chemical_formula_sum "Si O2"
_cell_formula_units_Z 16
_cell_length_a 10.333488
_cell_length_b 13.036789
_cell_length_c 11.661940
_cell_angle_alpha 120.595210
_cell_angle_beta 153.612455
_cell_angle_gamma 58.271092
_cell_volume 590.894818
_symmetry_space_group_name_H-M "P -1"
_symmetry_group_IT_number 2
_symmetry_cell_setting 'triclinic'
loop_
_space_group_symop_operation_xyz
x,y,z
-x,-y,-z
loop_
_atom_site_type_symbol
_atom_site_label
_atom_site_fract_x
_atom_site_fract_y
_atom_site_fract_z
Si Si1 0.017883 0.740248 0.194660
Si Si2 0.231823 0.383836 0.659531
Si Si3 0.721981 0.204693 0.908423
Si Si4 0.211493 0.128709 0.388884
Si Si5 0.602954 0.132104 0.276476
Si Si6 0.691274 0.094621 0.064704
Si Si7 0.564165 0.561389 0.466082
Si Si8 0.204750 0.461350 0.939811
O O1 0.129915 0.839399 0.419692
O O2 0.312221 0.681236 0.325854
O O3 0.932129 0.639320 0.154094
O O4 0.720535 0.784647 0.912366
O O5 0.279402 0.408625 0.843851
O O6 0.000000 0.500000 0.500000
O O7 0.121890 0.261762 0.459865
O O8 0.565510 0.343833 0.847971
O O9 0.066789 0.157248 0.165770
O O10 0.561185 0.115552 0.656056
O O11 0.035727 0.044805 0.275653
O O12 0.616964 0.175891 0.938815
O O13 0.671823 0.150316 0.207245
O O14 0.529526 0.999659 0.160799
O O15 0.500000 0.500000 0.500000
O O16 0.909713 0.565932 0.747595
O O17 0.478039 0.479853 0.247574
#
# Coordination Sequence:
#
# PCOD9001006 Si02
#       8
#     2   2   2   2   2   2   2   2
#     4  11  21  34  48  74  96 133 176 207 243 278
#     4  10  21  33  52  81 106 133 170 203 250 310
#     4   8  18  31  48  61 101 135 158 195 234 298
#     4   8  18  32  47  62 101 137 157 196 233 299
#     4  11  22  26  51  69 100 127 166 211 236 301
#     4   9  20  32  44  70 101 134 166 187 255 299
#     4  10  21  37  53  69  98 136 181 212 244 301
#     4  11  21  34  55  71 103 143 165 208 259 294
#
# _framework density 27.077577000000002
#
# number of rings (size 3 to 8) (size 9 to 14) (size 15 to 20)
#    1.500    0.750    0.000    5.250    5.250    1.500 
#    0.000    0.000    0.000    0.000    0.000    0.000 
#    0.000   20.000    0.000    0.000    0.000    0.000 
#
# Total GULP energy -89318.043957 kJ/mol
# GULP energy per Si atom -5582.377747 kJ/mol
# Density = 2.701595 g / cm^3
# Si number density = 27.077577 Si / 1000 Ang^3
#
#
#
# Elastic Constant Matrix: (Units=GPa)
#
#
# Indices 1 2 3 4 5 6 
#
# 1 100.9837 18.6820 26.2148 -5.8005 -4.0981 -4.8588
# 2 18.6820 34.5855 0.4207 -12.4834 -4.1413 0.0577
# 3 26.2148 0.4207 170.0553 -10.4000 7.5610 2.4052
# 4 -5.8005 -12.4834 -10.4000 37.6799 -8.2033 4.3830
# 5 -4.0981 -4.1413 7.5610 -8.2033 38.1204 -7.2480
# 6 -4.8588 0.0577 2.4052 4.3830 -7.2480 31.9750
#
#
#
# Elastic Compliance Matrix: (Units=1/GPa)
#
#
# Indices 1 2 3 4 5 6 
#
# 1 0.011713 -0.006486 -0.001930 -0.000891 0.001188 0.002328
# 2 -0.006486 0.037926 0.001498 0.013418 0.005687 -0.001717
# 3 -0.001930 0.001498 0.006357 0.001853 -0.001152 -0.001289
# 4 -0.000891 0.013418 0.001853 0.033376 0.007577 -0.003157
# 5 0.001188 0.005687 -0.001152 0.007577 0.029981 0.006014
# 6 0.002328 -0.001717 -0.001289 -0.003157 0.006014 0.033524
#
#
# Mechanical properties :
#
#
# Convention : Reuss Voigt Hill
#
# Bulk Modulus (GPa) = 23.71929 44.02883 33.87406
# Shear Modulus (GPa) = 27.66013 38.90887 33.28450
#
# Velocity S-wave (km/s) = 3.19958 3.79481 3.50984
# Velocity P-wave (km/s) = 4.73588 5.95788 5.38168
#
# Compressibility (1/GPa) = 0.04215978
#
# Stress axis : x y z
#
# Youngs Moduli (GPa) = 85.37810 26.36699 157.30728
#
# Poissons Ratio (x) = 0.17103 0.30356
# Poissons Ratio (y) = 0.55380 -0.23566
# Poissons Ratio (z) = 0.16476 -0.03950
#
# Static dielectric constant tensor:
#      x y z
#    x 2.097360 0.005910 0.071670 
#    y 0.005910 2.271520 -0.061660 
#    z 0.071670 -0.061660 2.242910 
# 
# From -- ./inp_files/437367.got.cif
#   From: 2010.05.17/outbox.cif.g08.bks.cpg/sg2_219_cif.got.tgz:437367.got - 2010.06.03 11:33:40.
