data_PCOD9001984
_publ_section_title
;
Structure prediction by ZEFSAII (Michael W. Deem and Ramdas Pophale) SiO2 
 PCOD9001984
Probable space group: P -1
;
_chemical_formula_sum "Si O2"
_cell_formula_units_Z 14
_cell_length_a 21.613782
_cell_length_b 7.297961
_cell_length_c 10.063333
_cell_angle_alpha 129.677249
_cell_angle_beta 145.901757
_cell_angle_gamma 56.399344
_cell_volume 683.785335
_symmetry_space_group_name_H-M "P -1"
_symmetry_group_IT_number 2
_symmetry_cell_setting 'triclinic'
loop_
_space_group_symop_operation_xyz
x,y,z
-x,-y,-z
loop_
_atom_site_type_symbol
_atom_site_label
_atom_site_fract_x
_atom_site_fract_y
_atom_site_fract_z
Si Si1 0.430080 0.894743 0.020771
Si Si2 0.242190 0.819193 0.144837
Si Si3 0.325133 0.071810 0.649875
Si Si4 0.721438 0.717708 0.700800
Si Si5 0.121979 0.958911 0.752252
Si Si6 0.611888 0.603448 0.697907
Si Si7 0.728229 0.440676 0.315129
O O1 0.353527 0.940805 0.776090
O O2 0.391124 0.663912 0.919511
O O3 0.397946 0.120305 0.159299
O O4 0.556026 0.905977 0.202273
O O5 0.294790 0.555802 0.132111
O O6 0.243662 0.927078 0.345578
O O7 0.316921 0.012944 0.291213
O O8 0.135140 0.846997 0.873491
O O9 0.278480 0.344043 0.702186
O O10 0.634001 0.586880 0.572323
O O11 0.757807 0.566540 0.566019
O O12 0.820447 0.788841 0.007817
O O13 0.191858 0.776268 0.695646
O O14 0.000000 0.000000 0.500000
O O15 0.500000 0.500000 0.500000
#
# Coordination Sequence:
#
# PCOD9001984 Si02
#       7
#     2   2   2   2   2   2   2
#     4  11  21  34  58  89 127 166 199 228 296 369
#     4   9  20  40  56  87 124 154 201 253 293 352
#     4  10  21  36  55  91 124 163 195 240 293 365
#     4   9  23  40  60  90 125 155 204 253 294 358
#     4  10  22  44  67  86 113 159 211 259 312 350
#     4  12  21  36  61  91 129 168 194 242 295 363
#     4  11  21  41  61  85 125 157 197 256 295 359
#
# _framework density 20.474263000000001
#
# number of rings (size 3 to 8) (size 9 to 14) (size 15 to 20)
#    0.857    0.857    2.857    2.143    2.000    1.143 
#    5.143    0.714    0.000    1.714    0.000    0.000 
#    0.000    0.000    0.000    0.000    0.000    0.000 
#
# Total GULP energy -77973.535619 kJ/mol
# GULP energy per Si atom -5569.538258 kJ/mol
# Density = 2.042766 g / cm^3
# Si number density = 20.474263 Si / 1000 Ang^3
#
#
#
# Elastic Constant Matrix: (Units=GPa)
#
#
# Indices 1 2 3 4 5 6 
#
# 1 38.5198 3.2853 8.1121 4.1316 -16.8931 -1.7257
# 2 3.2853 78.5919 28.1059 10.9547 -5.0268 -7.6343
# 3 8.1121 28.1059 68.7944 4.6155 -18.9195 -7.8989
# 4 4.1316 10.9547 4.6155 35.9759 0.6763 -7.1164
# 5 -16.8931 -5.0268 -18.9195 0.6763 24.7040 4.5781
# 6 -1.7257 -7.6343 -7.8989 -7.1164 4.5781 26.7099
#
#
#
# Elastic Compliance Matrix: (Units=1/GPa)
#
#
# Indices 1 2 3 4 5 6 
#
# 1 0.038999 -0.000608 0.004042 -0.006033 0.030413 -0.003279
# 2 -0.000608 0.015594 -0.006535 -0.003394 -0.002528 0.002014
# 3 0.004042 -0.006535 0.021936 -0.001343 0.018004 0.001437
# 4 -0.006033 -0.003394 -0.001343 0.031436 -0.008191 0.008023
# 5 0.030413 -0.002528 0.018004 -0.008191 0.076389 -0.008709
# 6 -0.003279 0.002014 0.001437 0.008023 -0.008709 0.041858
#
#
# Mechanical properties :
#
#
# Convention : Reuss Voigt Hill
#
# Bulk Modulus (GPa) = 14.21953 29.43476 21.82714
# Shear Modulus (GPa) = 19.54223 27.23816 23.39019
#
# Velocity S-wave (km/s) = 3.09281 3.65137 3.38364
# Velocity P-wave (km/s) = 4.44006 5.67312 5.09404
#
# Compressibility (1/GPa) = 0.07032580
#
# Stress axis : x y z
#
# Youngs Moduli (GPa) = 25.64152 64.12901 45.58730
#
# Poissons Ratio (x) = 0.03900 -0.18427
# Poissons Ratio (y) = 0.01559 0.29793
# Poissons Ratio (z) = -0.10364 0.41911
#
# Static dielectric constant tensor:
#      x y z
#    x 1.755420 0.018470 -0.026080 
#    y 0.018470 1.740090 0.030080 
#    z -0.026080 0.030080 1.781040 
# 
# From -- ./inp_files/253868.got.cif
#   From: 2010.05.17/outbox.cif.g08.bks.cpg/sg2_127_cif.got.tgz:253868.got - 2010.06.03 11:33:40.
