data_PCOD9001375
_publ_section_title
;
Structure prediction by ZEFSAII (Michael W. Deem and Ramdas Pophale) SiO2 
 PCOD9001375
Probable space group: P -1
;
_chemical_formula_sum "Si O2"
_cell_formula_units_Z 16
_cell_length_a 5.129137
_cell_length_b 12.776965
_cell_length_c 12.803948
_cell_angle_alpha 72.015042
_cell_angle_beta 78.201348
_cell_angle_gamma 71.856203
_cell_volume 752.953961
_symmetry_space_group_name_H-M "P -1"
_symmetry_group_IT_number 2
_symmetry_cell_setting 'triclinic'
loop_
_space_group_symop_operation_xyz
x,y,z
-x,-y,-z
loop_
_atom_site_type_symbol
_atom_site_label
_atom_site_fract_x
_atom_site_fract_y
_atom_site_fract_z
Si Si1 0.133575 0.754266 0.789558
Si Si2 0.231057 0.350802 0.294453
Si Si3 0.724857 0.122486 0.886576
Si Si4 0.650924 0.824736 0.491173
Si Si5 0.136435 0.147553 0.011270
Si Si6 0.542130 0.273390 0.655905
Si Si7 0.159037 0.973492 0.604346
Si Si8 0.938118 0.430729 0.626908
O O1 0.457154 0.699462 0.757459
O O2 0.050612 0.884002 0.708659
O O3 0.971975 0.676430 0.766414
O O4 0.039525 0.771403 0.911508
O O5 0.179372 0.281999 0.424054
O O6 0.179072 0.479562 0.298861
O O7 0.640924 0.177155 0.764495
O O8 0.820845 0.985076 0.918552
O O9 0.444295 0.159330 0.966786
O O10 0.966577 0.162434 0.912469
O O11 0.451417 0.783594 0.440807
O O12 0.468311 0.901845 0.571734
O O13 0.812976 0.904586 0.394383
O O14 0.723605 0.361794 0.629419
O O15 0.221300 0.343335 0.668305
O O16 0.000000 0.000000 0.500000
O O17 0.000000 0.500000 0.500000
#
# Coordination Sequence:
#
# PCOD9001375 Si02
#       8
#     2   2   2   2   2   2   2   2
#     4  11  23  38  68  88 129 174 208 260 327 392
#     4  11  23  41  60  92 126 169 217 258 319 379
#     4  10  23  42  67  97 130 163 216 268 318 387
#     4  10  23  35  56  89 130 168 205 248 313 387
#     4  10  22  43  66  97 129 165 211 265 325 390
#     4  12  26  41  69  93 127 177 213 273 321 377
#     4  10  21  35  53  90 132 164 199 252 299 405
#     4  12  26  43  65  93 132 174 222 271 316 375
#
# _framework density 21.249638999999998
#
# number of rings (size 3 to 8) (size 9 to 14) (size 15 to 20)
#    0.000    1.250    2.500    2.625    7.000    3.000 
#    0.000    0.000    0.000   15.000    0.000    0.000 
#    0.000    0.000    0.000    0.000    0.000    0.000 
#
# Total GULP energy -89416.543059 kJ/mol
# GULP energy per Si atom -5588.533941 kJ/mol
# Density = 2.120127 g / cm^3
# Si number density = 21.249639 Si / 1000 Ang^3
#
#
#
# Elastic Constant Matrix: (Units=GPa)
#
#
# Indices 1 2 3 4 5 6 
#
# 1 106.4931 38.9672 -0.7452 15.2292 3.6925 8.5927
# 2 38.9672 72.2835 6.2539 19.9159 -5.7120 7.4917
# 3 -0.7452 6.2539 46.3786 11.7763 5.1729 -6.8329
# 4 15.2292 19.9159 11.7763 25.9455 -8.3653 1.5461
# 5 3.6925 -5.7120 5.1729 -8.3653 29.0524 3.3565
# 6 8.5927 7.4917 -6.8329 1.5461 3.3565 43.6107
#
#
#
# Elastic Compliance Matrix: (Units=1/GPa)
#
#
# Indices 1 2 3 4 5 6 
#
# 1 0.012556 -0.005756 0.002937 -0.005832 -0.004878 -0.000443
# 2 -0.005756 0.020497 -0.000482 -0.011421 0.001813 -0.002197
# 3 0.002937 -0.000482 0.028385 -0.018242 -0.011407 0.005476
# 4 -0.005832 -0.011421 -0.018242 0.066067 0.021197 -0.003721
# 5 -0.004878 0.001813 -0.011407 0.021197 0.044142 -0.005286
# 6 -0.000443 -0.002197 0.005476 -0.003721 -0.005286 0.024792
#
#
# Mechanical properties :
#
#
# Convention : Reuss Voigt Hill
#
# Bulk Modulus (GPa) = 18.23617 34.90078 26.56847
# Shear Modulus (GPa) = 22.59190 31.76703 27.17947
#
# Velocity S-wave (km/s) = 3.26416 3.87065 3.58027
# Velocity P-wave (km/s) = 4.77565 6.03620 5.44254
#
# Compressibility (1/GPa) = 0.05483608
#
# Stress axis : x y z
#
# Youngs Moduli (GPa) = 79.64496 48.78867 35.23000
#
# Poissons Ratio (x) = 0.28081 -0.10349
# Poissons Ratio (y) = 0.45841 0.01699
# Poissons Ratio (z) = -0.23396 0.02353
#
# Static dielectric constant tensor:
#      x y z
#    x 1.766330 -0.011900 -0.032070 
#    y -0.011900 1.807100 -0.017190 
#    z -0.032070 -0.017190 1.762180 
# 
# From -- ./inp_files/364305.got.cif
#   From: 2010.05.17/outbox.cif.g08.bks.cpg/sg2_183_cif.got.tgz:364305.got - 2010.06.03 11:33:40.
