data_PCOD9001701
_publ_section_title
;
Structure prediction by ZEFSAII (Michael W. Deem and Ramdas Pophale) SiO2 
 PCOD9001701
Probable space group: P -1
;
_chemical_formula_sum "Si O2"
_cell_formula_units_Z 16
_cell_length_a 22.421666
_cell_length_b 6.549092
_cell_length_c 14.943451
_cell_angle_alpha 97.129809
_cell_angle_beta 20.190716
_cell_angle_gamma 103.467341
_cell_volume 706.767176
_symmetry_space_group_name_H-M "P -1"
_symmetry_group_IT_number 2
_symmetry_cell_setting 'triclinic'
loop_
_space_group_symop_operation_xyz
x,y,z
-x,-y,-z
loop_
_atom_site_type_symbol
_atom_site_label
_atom_site_fract_x
_atom_site_fract_y
_atom_site_fract_z
Si Si1 0.301094 0.237430 0.443417
Si Si2 0.941572 0.203183 0.572864
Si Si3 0.480752 0.385629 0.616763
Si Si4 0.703236 0.424003 0.968945
Si Si5 0.205769 0.989211 0.922006
Si Si6 0.842597 0.740232 0.168774
Si Si7 0.957278 0.504877 0.229281
Si Si8 0.119956 0.869859 0.544539
O O1 0.511531 0.329769 0.181985
O O2 0.172428 0.153300 0.708882
O O3 0.217651 0.419071 0.535146
O O4 0.270309 0.048145 0.402924
O O5 0.844014 0.160612 0.610798
O O6 0.795676 0.241659 0.848620
O O7 0.000000 0.000000 0.500000
O O8 0.133841 0.403699 0.307120
O O9 0.500000 0.500000 0.500000
O O10 0.336283 0.458081 0.881946
O O11 0.673127 0.508369 0.399402
O O12 0.399414 0.125844 0.702350
O O13 0.197544 0.112117 0.845857
O O14 0.133412 0.729038 0.998613
O O15 0.050396 0.040837 0.202639
O O16 0.008352 0.655883 0.903513
O O17 0.933360 0.363176 0.344557
#
# Coordination Sequence:
#
# PCOD9001701 Si02
#       8
#     2   2   2   2   2   2   2   2
#     4  10  22  39  62  94 133 170 213 262 319 384
#     4  11  25  47  71  93 124 167 220 276 328 378
#     4   9  17  37  61  92 136 167 209 267 318 379
#     4  10  23  43  67  97 131 167 213 269 323 382
#     4   9  18  34  57  89 129 173 214 262 314 375
#     4   9  19  34  56  91 134 172 217 261 309 380
#     4  10  21  35  61  89 133 177 215 255 320 384
#     4  10  22  41  62  91 124 167 213 270 320 383
#
# _framework density 22.638289
#
# number of rings (size 3 to 8) (size 9 to 14) (size 15 to 20)
#    0.000    2.250    1.250    0.375    0.000   11.500 
#    0.000    7.500    0.000    0.000    0.000    0.000 
#    0.000    0.000    0.000    0.000    0.000    0.000 
#
# Total GULP energy -89330.196181 kJ/mol
# GULP energy per Si atom -5583.137261 kJ/mol
# Density = 2.258676 g / cm^3
# Si number density = 22.638289 Si / 1000 Ang^3
#
#
#
# Elastic Constant Matrix: (Units=GPa)
#
#
# Indices 1 2 3 4 5 6 
#
# 1 76.1767 36.3246 27.0162 -9.0703 -9.4712 23.1110
# 2 36.3246 147.5929 42.9266 -2.7456 -6.5604 10.2962
# 3 27.0162 42.9266 78.8936 1.9514 -17.7098 13.6693
# 4 -9.0703 -2.7456 1.9514 34.3632 13.9362 -2.7019
# 5 -9.4712 -6.5604 -17.7098 13.9362 34.7892 -7.4427
# 6 23.1110 10.2962 13.6693 -2.7019 -7.4427 36.7244
#
#
#
# Elastic Compliance Matrix: (Units=1/GPa)
#
#
# Indices 1 2 3 4 5 6 
#
# 1 0.019224 -0.002945 -0.003668 0.004760 -0.001192 -0.009798
# 2 -0.002945 0.008605 -0.004148 0.000792 -0.001447 0.000750
# 3 -0.003668 -0.004148 0.018971 -0.006632 0.010099 -0.002031
# 4 0.004760 0.000792 -0.006632 0.037721 -0.017361 -0.001492
# 5 -0.001192 -0.001447 0.010099 -0.017361 0.041199 0.004469
# 6 -0.009798 0.000750 -0.002031 -0.001492 0.004469 0.034738
#
#
# Mechanical properties :
#
#
# Convention : Reuss Voigt Hill
#
# Bulk Modulus (GPa) = 39.56091 57.24422 48.40257
# Shear Modulus (GPa) = 26.25982 34.26841 30.26412
#
# Velocity S-wave (km/s) = 3.40953 3.89490 3.66027
# Velocity P-wave (km/s) = 5.74570 6.75043 6.26823
#
# Compressibility (1/GPa) = 0.02527748
#
# Stress axis : x y z
#
# Youngs Moduli (GPa) = 52.01843 116.21566 52.71159
#
# Poissons Ratio (x) = 0.34229 0.19336
# Poissons Ratio (y) = 0.15321 0.21863
# Poissons Ratio (z) = 0.19081 0.48202
#
# Static dielectric constant tensor:
#      x y z
#    x 1.773980 -0.077130 -0.026410 
#    y -0.077130 1.770270 -0.028940 
#    z -0.026410 -0.028940 1.869510 
# 
# From -- ./inp_files/579480.got.cif
#   From: 2010.05.17/outbox.cif.g08.bks.cpg/sg2_290_cif.got.tgz:579480.got - 2010.06.03 11:33:40.
