data_PCOD9001188
_publ_section_title
;
Structure prediction by ZEFSAII (Michael W. Deem and Ramdas Pophale) SiO2 
 PCOD9001188
Probable space group: P -1
;
_chemical_formula_sum "Si O2"
_cell_formula_units_Z 16
_cell_length_a 14.697873
_cell_length_b 14.045990
_cell_length_c 8.629787
_cell_angle_alpha 138.456302
_cell_angle_beta 127.466386
_cell_angle_gamma 43.226966
_cell_volume 801.412913
_symmetry_space_group_name_H-M "P -1"
_symmetry_group_IT_number 2
_symmetry_cell_setting 'triclinic'
loop_
_space_group_symop_operation_xyz
x,y,z
-x,-y,-z
loop_
_atom_site_type_symbol
_atom_site_label
_atom_site_fract_x
_atom_site_fract_y
_atom_site_fract_z
Si Si1 0.013436 0.967867 0.724026
Si Si2 0.388254 0.545414 0.805861
Si Si3 0.539814 0.113900 0.768870
Si Si4 0.202555 0.908587 0.115653
Si Si5 0.606516 0.726752 0.719335
Si Si6 0.818233 0.195435 0.556567
Si Si7 0.409897 0.433150 0.169169
Si Si8 0.336396 0.999345 0.894161
O O1 0.115089 0.800511 0.531611
O O2 0.886383 0.985737 0.703700
O O3 0.939767 0.117089 0.707228
O O4 0.104245 0.991247 0.969395
O O5 0.371473 0.392733 0.548228
O O6 0.448602 0.586377 0.762708
O O7 0.500000 0.500000 0.000000
O O8 0.251674 0.710206 0.921803
O O9 0.657740 0.105036 0.778293
O O10 0.500000 0.000000 0.500000
O O11 0.411559 0.300871 0.888755
O O12 0.602282 0.052969 0.931726
O O13 0.605445 0.630792 0.757283
O O14 0.455152 0.888326 0.759183
O O15 0.698950 0.809061 0.926589
O O16 0.698825 0.371052 0.708271
O O17 0.766200 0.065666 0.316153
#
# Coordination Sequence:
#
# PCOD9001188 Si02
#       8
#     2   2   2   2   2   2   2   2
#     4  10  22  36  61  86 116 164 204 257 278 344
#     4  11  21  33  60  92 123 152 196 259 304 353
#     4  10  22  37  62  91 130 154 187 252 326 368
#     4  10  21  38  58  90 120 157 206 239 304 357
#     4  10  21  34  56  86 127 154 183 243 319 362
#     4  11  20  39  64  86 116 154 215 250 285 348
#     4  10  21  37  61  90 117 157 199 254 301 354
#     4  10  21  35  56  88 123 157 193 238 307 371
#
# _framework density 19.964738000000001
#
# number of rings (size 3 to 8) (size 9 to 14) (size 15 to 20)
#    0.000    1.750    2.500    1.875    5.250    2.000 
#    0.000    0.000    0.000   18.000    0.000    0.000 
#    0.000    0.000    0.000    0.000    0.000    0.000 
#
# Total GULP energy -89115.599935 kJ/mol
# GULP energy per Si atom -5569.724996 kJ/mol
# Density = 1.991930 g / cm^3
# Si number density = 19.964738 Si / 1000 Ang^3
#
#
#
# Elastic Constant Matrix: (Units=GPa)
#
#
# Indices 1 2 3 4 5 6 
#
# 1 83.3218 22.6081 39.5198 12.9687 -13.9456 -13.4669
# 2 22.6081 51.8708 42.5072 1.0861 9.8190 -5.6809
# 3 39.5198 42.5072 142.3515 21.7287 7.2216 -7.4951
# 4 12.9687 1.0861 21.7287 24.7840 5.4216 -5.6813
# 5 -13.9456 9.8190 7.2216 5.4216 25.2966 6.7317
# 6 -13.4669 -5.6809 -7.4951 -5.6813 6.7317 31.7943
#
#
#
# Elastic Compliance Matrix: (Units=1/GPa)
#
#
# Indices 1 2 3 4 5 6 
#
# 1 0.021126 -0.011495 -0.001337 -0.013613 0.019397 0.000040
# 2 -0.011495 0.036921 -0.009160 0.019675 -0.024469 0.008265
# 3 -0.001337 -0.009160 0.011426 -0.009766 0.002102 -0.001700
# 4 -0.013613 0.019675 -0.009766 0.064738 -0.029773 0.013319
# 5 0.019397 -0.024469 0.002102 -0.029773 0.069690 -0.015736
# 6 0.000040 0.008265 -0.001700 0.013319 -0.015736 0.038257
#
#
# Mechanical properties :
#
#
# Convention : Reuss Voigt Hill
#
# Bulk Modulus (GPa) = 39.23259 54.09045 46.66152
# Shear Modulus (GPa) = 16.96998 27.90224 22.43611
#
# Velocity S-wave (km/s) = 2.91863 3.74247 3.35593
# Velocity P-wave (km/s) = 5.57239 6.76954 6.19992
#
# Compressibility (1/GPa) = 0.02548902
#
# Stress axis : x y z
#
# Youngs Moduli (GPa) = 47.33422 27.08509 87.52112
#
# Poissons Ratio (x) = 0.31134 0.11698
# Poissons Ratio (y) = 0.54411 0.80172
# Poissons Ratio (z) = 0.06327 0.24811
#
# Static dielectric constant tensor:
#      x y z
#    x 1.802540 0.059270 -0.023990 
#    y 0.059270 1.757420 0.011960 
#    z -0.023990 0.011960 1.735740 
# 
# From -- ./inp_files/314288.got.cif
#   From: 2010.05.17/outbox.cif.g08.bks.cpg/sg2_158_cif.got.tgz:314288.got - 2010.06.03 11:33:40.
