data_PCOD9001506
_publ_section_title
;
Structure prediction by ZEFSAII (Michael W. Deem and Ramdas Pophale) SiO2 
 PCOD9001506
Probable space group: P -1
;
_chemical_formula_sum "Si O2"
_cell_formula_units_Z 16
_cell_length_a 19.094908
_cell_length_b 6.185094
_cell_length_c 8.172897
_cell_angle_alpha 61.146554
_cell_angle_beta 52.592003
_cell_angle_gamma 64.594206
_cell_volume 658.612196
_symmetry_space_group_name_H-M "P -1"
_symmetry_group_IT_number 2
_symmetry_cell_setting 'triclinic'
loop_
_space_group_symop_operation_xyz
x,y,z
-x,-y,-z
loop_
_atom_site_type_symbol
_atom_site_label
_atom_site_fract_x
_atom_site_fract_y
_atom_site_fract_z
Si Si1 0.549761 0.641087 0.503417
Si Si2 0.929631 0.466968 0.861140
Si Si3 0.867171 0.975682 0.591042
Si Si4 0.257633 0.280291 0.335562
Si Si5 0.886629 0.500859 0.271748
Si Si6 0.365139 0.930278 0.824425
Si Si7 0.196464 0.787376 0.054990
Si Si8 0.603336 0.480477 0.818585
O O1 0.500000 0.500000 0.500000
O O2 0.461431 0.802873 0.659538
O O3 0.608245 0.476852 0.619042
O O4 0.617376 0.795090 0.266202
O O5 0.922262 0.693948 0.655328
O O6 0.884285 0.243642 0.937916
O O7 0.032089 0.392496 0.800570
O O8 0.878778 0.561805 0.068906
O O9 0.784994 0.939369 0.602371
O O10 0.910404 0.195783 0.369379
O O11 0.840601 0.080927 0.771770
O O12 0.199722 0.393348 0.534987
O O13 0.239570 0.497262 0.143033
O O14 0.358985 0.281375 0.249782
O O15 0.280164 0.912992 0.836933
O O16 0.350196 0.771932 0.063285
O O17 0.500000 0.500000 0.000000
#
# Coordination Sequence:
#
# PCOD9001506 Si02
#       8
#     2   2   2   2   2   2   2   2
#     4  10  21  35  57  83 108 145 186 226 277 331
#     4  10  22  38  57  83 113 147 187 232 276 333
#     4  10  21  37  59  81 109 150 185 228 283 327
#     4   9  20  38  58  83 113 145 188 233 274 334
#     4  10  22  38  56  83 114 145 188 231 277 333
#     4   9  20  38  53  79 114 141 182 231 273 330
#     4   9  20  37  58  83 113 147 187 231 279 330
#     4   9  19  37  57  79 111 145 179 224 275 327
#
# _framework density 24.293507999999999
#
# number of rings (size 3 to 8) (size 9 to 14) (size 15 to 20)
#    0.000    2.500    0.000    0.375    0.000   14.000 
#    0.000   11.250    0.000    0.000    0.000    0.000 
#    0.000    0.000    0.000    0.000    0.000    0.000 
#
# Total GULP energy -89303.771134 kJ/mol
# GULP energy per Si atom -5581.485696 kJ/mol
# Density = 2.423822 g / cm^3
# Si number density = 24.293508 Si / 1000 Ang^3
#
#
#
# Elastic Constant Matrix: (Units=GPa)
#
#
# Indices 1 2 3 4 5 6 
#
# 1 142.8368 39.8957 44.0061 -26.1088 -23.0019 56.2699
# 2 39.8957 42.2987 27.7852 -8.1824 0.3156 18.4751
# 3 44.0061 27.7852 79.8046 -26.7673 -7.1920 18.4775
# 4 -26.1088 -8.1824 -26.7673 33.8455 4.0229 -11.6395
# 5 -23.0019 0.3156 -7.1920 4.0229 44.3658 -5.9199
# 6 56.2699 18.4751 18.4775 -11.6395 -5.9199 42.1377
#
#
#
# Elastic Compliance Matrix: (Units=1/GPa)
#
#
# Indices 1 2 3 4 5 6 
#
# 1 0.019118 -0.008010 -0.001184 0.004422 0.006798 -0.019322
# 2 -0.008010 0.038978 -0.010737 -0.005956 -0.006191 -0.004200
# 3 -0.001184 -0.010737 0.021413 0.013515 0.001827 0.000888
# 4 0.004422 -0.005956 0.013515 0.043055 0.000997 0.002812
# 5 0.006798 -0.006191 0.001827 0.000997 0.025880 -0.003253
# 6 -0.019322 -0.004200 0.000888 0.002812 -0.003253 0.051306
#
#
# Mechanical properties :
#
#
# Convention : Reuss Voigt Hill
#
# Bulk Modulus (GPa) = 25.22196 54.25712 39.73954
# Shear Modulus (GPa) = 19.77643 34.28668 27.03155
#
# Velocity S-wave (km/s) = 2.85627 3.76087 3.33935
# Velocity P-wave (km/s) = 4.61329 6.42194 5.59123
#
# Compressibility (1/GPa) = 0.03964798
#
# Stress axis : x y z
#
# Youngs Moduli (GPa) = 52.30748 25.65565 46.69960
#
# Poissons Ratio (x) = 0.20550 0.05527
# Poissons Ratio (y) = 0.41899 0.50141
# Poissons Ratio (z) = 0.06191 0.27546
#
# Static dielectric constant tensor:
#      x y z
#    x 1.968840 0.005970 -0.026720 
#    y 0.005970 2.006640 -0.006160 
#    z -0.026720 -0.006160 1.899760 
# 
# From -- ./inp_files/53525.got.cif
#   From: 2010.05.17/outbox.cif.g08.bks.cpg/sg2_27_cif.got.tgz:53525.got - 2010.06.03 11:33:40.
