data_PCOD9001494
_publ_section_title
;
Structure prediction by ZEFSAII (Michael W. Deem and Ramdas Pophale) SiO2 
 PCOD9001494
Probable space group: P -1
;
_chemical_formula_sum "Si O2"
_cell_formula_units_Z 16
_cell_length_a 14.718960
_cell_length_b 29.310877
_cell_length_c 6.078340
_cell_angle_alpha 57.968362
_cell_angle_beta 119.534249
_cell_angle_gamma 160.521818
_cell_volume 741.059075
_symmetry_space_group_name_H-M "P -1"
_symmetry_group_IT_number 2
_symmetry_cell_setting 'triclinic'
loop_
_space_group_symop_operation_xyz
x,y,z
-x,-y,-z
loop_
_atom_site_type_symbol
_atom_site_label
_atom_site_fract_x
_atom_site_fract_y
_atom_site_fract_z
Si Si1 0.579138 0.645211 0.735182
Si Si2 0.160655 0.045620 0.764919
Si Si3 0.782572 0.473696 0.019658
Si Si4 0.600128 0.087593 0.209248
Si Si5 0.681525 0.785488 0.146092
Si Si6 0.076466 0.374067 0.574062
Si Si7 0.723035 0.260672 0.820492
Si Si8 0.080592 0.813484 0.032858
O O1 0.675886 0.731723 0.438492
O O2 0.350229 0.498309 0.728990
O O3 0.422321 0.604776 0.834728
O O4 0.823625 0.729112 0.919482
O O5 0.268354 0.138548 0.839326
O O6 0.426623 0.144104 0.732374
O O7 0.000000 0.000000 0.500000
O O8 0.935792 0.901760 0.985359
O O9 0.606379 0.348128 0.986329
O O10 0.844116 0.552055 0.726707
O O11 0.068058 0.599561 0.163566
O O12 0.500000 0.000000 0.500000
O O13 0.345283 0.970182 0.036449
O O14 0.681054 0.186888 0.107172
O O15 0.843484 0.175208 0.142642
O O16 0.863885 0.305772 0.649792
O O17 0.971320 0.264221 0.682463
#
# Coordination Sequence:
#
# PCOD9001494 Si02
#       8
#     2   2   2   2   2   2   2   2
#     4  10  21  37  64  88 126 166 207 257 305 369
#     4  11  25  44  66  94 124 159 208 261 318 375
#     4  10  21  41  63  89 126 166 208 252 310 370
#     4  10  22  36  56  91 127 164 207 250 309 369
#     4  10  24  42  63  95 122 157 211 259 309 379
#     4   9  20  39  58  93 126 162 210 252 305 369
#     4  10  23  40  64  90 124 166 202 261 311 367
#     4  10  21  35  56  90 127 165 208 255 298 368
#
# _framework density 21.590722
#
# number of rings (size 3 to 8) (size 9 to 14) (size 15 to 20)
#    0.000    2.000    0.000    1.875    5.250    4.000 
#    0.000    8.750    0.000    0.000    0.000    0.000 
#    0.000    0.000    0.000    0.000    0.000    0.000 
#
# Total GULP energy -89381.342966 kJ/mol
# GULP energy per Si atom -5586.333935 kJ/mol
# Density = 2.154158 g / cm^3
# Si number density = 21.590722 Si / 1000 Ang^3
#
#
#
# Elastic Constant Matrix: (Units=GPa)
#
#
# Indices 1 2 3 4 5 6 
#
# 1 39.7105 45.0510 18.5521 3.1967 5.0252 13.3161
# 2 45.0510 128.8875 39.2215 -8.2204 -0.7245 0.8783
# 3 18.5521 39.2215 90.5480 -15.8413 -4.7864 19.8914
# 4 3.1967 -8.2204 -15.8413 30.9371 -1.3753 -5.1062
# 5 5.0252 -0.7245 -4.7864 -1.3753 9.9629 5.1466
# 6 13.3161 0.8783 19.8914 -5.1062 5.1466 48.0774
#
#
#
# Elastic Compliance Matrix: (Units=1/GPa)
#
#
# Indices 1 2 3 4 5 6 
#
# 1 0.061275 -0.021016 -0.005415 -0.018202 -0.030845 -0.012978
# 2 -0.021016 0.016315 -0.002586 0.006604 0.008138 0.006423
# 3 -0.005415 -0.002586 0.016840 0.008143 0.014937 -0.006154
# 4 -0.018202 0.006604 0.008143 0.041574 0.017180 0.004128
# 5 -0.030845 0.008138 0.014937 0.017180 0.131241 -0.010010
# 6 -0.012978 0.006423 -0.006154 0.004128 -0.010010 0.028333
#
#
# Mechanical properties :
#
#
# Convention : Reuss Voigt Hill
#
# Bulk Modulus (GPa) = 27.47650 51.64393 39.56021
# Shear Modulus (GPa) = 13.67076 28.21691 20.94384
#
# Velocity S-wave (km/s) = 2.51903 3.61903 3.11792
# Velocity P-wave (km/s) = 4.60591 6.43697 5.59683
#
# Compressibility (1/GPa) = 0.03639474
#
# Stress axis : x y z
#
# Youngs Moduli (GPa) = 16.31993 61.29409 59.38277
#
# Poissons Ratio (x) = 1.28815 0.32156
# Poissons Ratio (y) = 0.34298 0.15359
# Poissons Ratio (z) = 0.08837 0.15853
#
# Static dielectric constant tensor:
#      x y z
#    x 1.757230 -0.038390 -0.010140 
#    y -0.038390 1.809270 0.003260 
#    z -0.010140 0.003260 1.781670 
# 
# From -- ./inp_files/101765.got.cif
#   From: 2010.05.17/outbox.cif.g08.bks.cpg/sg2_51_cif.got.tgz:101765.got - 2010.06.03 11:33:40.
