data_PCOD9001167
_publ_section_title
;
Structure prediction by ZEFSAII (Michael W. Deem and Ramdas Pophale) SiO2 
 PCOD9001167
Probable space group: P -1
;
_chemical_formula_sum "Si O2"
_cell_formula_units_Z 12
_cell_length_a 15.935947
_cell_length_b 11.994801
_cell_length_c 14.826574
_cell_angle_alpha 29.921349
_cell_angle_beta 28.227636
_cell_angle_gamma 21.620380
_cell_volume 475.096671
_symmetry_space_group_name_H-M "P -1"
_symmetry_group_IT_number 2
_symmetry_cell_setting 'triclinic'
loop_
_space_group_symop_operation_xyz
x,y,z
-x,-y,-z
loop_
_atom_site_type_symbol
_atom_site_label
_atom_site_fract_x
_atom_site_fract_y
_atom_site_fract_z
Si Si1 0.774378 0.202513 0.643767
Si Si2 0.772334 0.869131 0.038713
Si Si3 0.253061 0.547914 0.096006
Si Si4 0.971551 0.697622 0.556374
Si Si5 0.505016 0.735972 0.286498
Si Si6 0.050945 0.925708 0.848889
O O1 0.833662 0.984113 0.820445
O O2 0.535342 0.299781 0.753810
O O3 0.790687 0.426749 0.522822
O O4 0.000000 0.000000 0.500000
O O5 0.982372 0.743476 0.000018
O O6 0.511810 0.185115 0.107062
O O7 0.723171 0.681110 0.166328
O O8 0.036393 0.548492 0.297631
O O9 0.189693 0.758255 0.092977
O O10 0.238526 0.711191 0.904474
O O11 0.906236 0.929215 0.373362
O O12 0.742327 0.917401 0.689742
O O13 0.500000 0.500000 0.500000
#
# Coordination Sequence:
#
# PCOD9001167 Si02
#       6
#     2   2   2   2   2   2
#     4   9  19  37  54  79 112 148 185 228 284 327
#     4  10  21  38  59  81 117 150 185 239 281 336
#     4  10  21  37  61  84 115 148 189 237 284 339
#     4   9  20  38  56  81 117 148 185 238 281 335
#     4  10  21  34  55  84 111 148 190 230 280 339
#     4  10  21  38  59  87 111 150 192 231 289 339
#
# _framework density 25.258016999999999
#
# number of rings (size 3 to 8) (size 9 to 14) (size 15 to 20)
#    0.000    2.333    0.000    1.500    4.667    0.000 
#    0.000    2.500    0.000   10.000    0.000    0.000 
#    0.000    0.000    0.000    0.000    0.000    0.000 
#
# Total GULP energy -66950.632353 kJ/mol
# GULP energy per Si atom -5579.219363 kJ/mol
# Density = 2.520053 g / cm^3
# Si number density = 25.258017 Si / 1000 Ang^3
#
#
#
# Elastic Constant Matrix: (Units=GPa)
#
#
# Indices 1 2 3 4 5 6 
#
# 1 128.8587 4.0931 44.5037 4.0831 -36.7427 11.3602
# 2 4.0931 52.4276 2.3797 5.8554 -15.4728 -2.8499
# 3 44.5037 2.3797 98.7189 -0.6383 -29.3695 14.1885
# 4 4.0831 5.8554 -0.6383 31.4952 1.4980 -2.1571
# 5 -36.7427 -15.4728 -29.3695 1.4980 53.2854 -2.2489
# 6 11.3602 -2.8499 14.1885 -2.1571 -2.2489 25.6607
#
#
#
# Elastic Compliance Matrix: (Units=1/GPa)
#
#
# Indices 1 2 3 4 5 6 
#
# 1 0.010722 0.001214 -0.002616 -0.002157 0.006246 -0.002799
# 2 0.001214 0.021866 0.001024 -0.004467 0.007946 0.001646
# 3 -0.002616 0.001024 0.013890 -0.000256 0.005907 -0.005912
# 4 -0.002157 -0.004467 -0.000256 0.033243 -0.003731 0.003068
# 5 0.006246 0.007946 0.005907 -0.003731 0.028617 -0.002954
# 6 -0.002799 0.001646 -0.005912 0.003068 -0.002954 0.043660
#
#
# Mechanical properties :
#
#
# Convention : Reuss Voigt Hill
#
# Bulk Modulus (GPa) = 21.87150 42.43981 32.15565
# Shear Modulus (GPa) = 29.76294 37.35684 33.55989
#
# Velocity S-wave (km/s) = 3.43644 3.84996 3.64906
# Velocity P-wave (km/s) = 4.94202 6.04995 5.52383
#
# Compressibility (1/GPa) = 0.04572161
#
# Stress axis : x y z
#
# Youngs Moduli (GPa) = 93.27034 45.73293 71.99510
#
# Poissons Ratio (x) = -0.05551 0.18834
# Poissons Ratio (y) = -0.11322 -0.07374
# Poissons Ratio (z) = 0.24400 -0.04684
#
# Static dielectric constant tensor:
#      x y z
#    x 2.408990 -0.272220 -0.115550 
#    y -0.272220 2.173810 0.083770 
#    z -0.115550 0.083770 2.030780 
# 
# From -- ./inp_files/29622.got.cif
#   From: 2010.05.17/outbox.cif.g08.bks.cpg/sg2_15_cif.got.tgz:29622.got - 2010.06.03 11:33:40.
