data_PCOD9001377
_publ_section_title
;
Structure prediction by ZEFSAII (Michael W. Deem and Ramdas Pophale) SiO2 
 PCOD9001377
Probable space group: P -1
;
_chemical_formula_sum "Si O2"
_cell_formula_units_Z 16
_cell_length_a 19.071701
_cell_length_b 11.278378
_cell_length_c 12.212833
_cell_angle_alpha 119.362817
_cell_angle_beta 141.040998
_cell_angle_gamma 33.740881
_cell_volume 820.456995
_symmetry_space_group_name_H-M "P -1"
_symmetry_group_IT_number 2
_symmetry_cell_setting 'triclinic'
loop_
_space_group_symop_operation_xyz
x,y,z
-x,-y,-z
loop_
_atom_site_type_symbol
_atom_site_label
_atom_site_fract_x
_atom_site_fract_y
_atom_site_fract_z
Si Si1 0.343853 0.366188 0.045509
Si Si2 0.321891 0.124286 0.264721
Si Si3 0.627686 0.704006 0.289613
Si Si4 0.197968 0.863951 0.727935
Si Si5 0.959735 0.697251 0.328117
Si Si6 0.377684 0.545009 0.993574
Si Si7 0.272091 0.179671 0.710812
Si Si8 0.916635 0.481167 0.021189
O O1 0.321325 0.532138 0.032804
O O2 0.298157 0.282452 0.871797
O O3 0.204879 0.499313 0.042135
O O4 0.567769 0.101264 0.222014
O O5 0.143765 0.225477 0.154484
O O6 0.500000 0.000000 0.500000
O O7 0.432163 0.922547 0.218138
O O8 0.206596 0.358790 0.164791
O O9 0.608240 0.602522 0.134314
O O10 0.689110 0.784696 0.341253
O O11 0.815989 0.483911 0.492087
O O12 0.229683 0.791666 0.860922
O O13 0.177641 0.043025 0.757729
O O14 0.404250 0.611330 0.809812
O O15 0.000000 0.000000 0.500000
O O16 0.914674 0.703484 0.404163
O O17 0.922831 0.609878 0.162950
#
# Coordination Sequence:
#
# PCOD9001377 Si02
#       8
#     2   2   2   2   2   2   2   2
#     4   9  16  32  52  76 104 137 171 210 264 315
#     4  11  21  34  49  77 109 141 178 208 256 315
#     4  11  19  33  53  79 112 142 171 209 261 316
#     4  11  21  34  49  77 109 141 178 208 256 315
#     4  11  19  33  53  79 112 142 171 209 261 316
#     4  10  21  35  54  76 109 140 172 217 259 309
#     4   9  17  28  50  80 108 137 167 202 263 329
#     4  10  21  35  54  76 109 140 172 217 259 309
#
# _framework density 19.501328000000001
#
# number of rings (size 3 to 8) (size 9 to 14) (size 15 to 20)
#    0.000    1.750    5.000    1.125    0.000    0.000 
#    0.000    1.250    0.000    0.000    0.000   16.625 
#    0.000    0.250    0.000    0.000    0.000    0.000 
#
# Total GULP energy -89093.942463 kJ/mol
# GULP energy per Si atom -5568.371404 kJ/mol
# Density = 1.945694 g / cm^3
# Si number density = 19.501328 Si / 1000 Ang^3
#
#
#
# Elastic Constant Matrix: (Units=GPa)
#
#
# Indices 1 2 3 4 5 6 
#
# 1 133.5451 26.2202 23.0869 -19.6371 4.5885 -12.3028
# 2 26.2202 32.4720 4.2096 -14.2417 1.5916 -7.1193
# 3 23.0869 4.2096 96.7915 -16.9614 11.2261 -8.2208
# 4 -19.6371 -14.2417 -16.9614 26.0754 -3.3378 4.0170
# 5 4.5885 1.5916 11.2261 -3.3378 24.4016 -5.7508
# 6 -12.3028 -7.1193 -8.2208 4.0170 -5.7508 26.6617
#
#
#
# Elastic Compliance Matrix: (Units=1/GPa)
#
#
# Indices 1 2 3 4 5 6 
#
# 1 0.009451 -0.005810 -0.001357 0.002764 0.000073 0.001991
# 2 -0.005810 0.046489 0.003820 0.022456 0.001210 0.007788
# 3 -0.001357 0.003820 0.012626 0.008419 -0.004151 0.002123
# 4 0.002764 0.022456 0.008419 0.058241 0.002493 0.001631
# 5 0.000073 0.001210 -0.004151 0.002493 0.045127 0.008435
# 6 0.001991 0.007788 0.002123 0.001631 0.008435 0.042734
#
#
# Mechanical properties :
#
#
# Convention : Reuss Voigt Hill
#
# Bulk Modulus (GPa) = 16.16222 41.09353 28.62788
# Shear Modulus (GPa) = 20.66247 29.38053 25.02150
#
# Velocity S-wave (km/s) = 3.25859 3.88569 3.58588
# Velocity P-wave (km/s) = 4.73958 6.42257 5.64416
#
# Compressibility (1/GPa) = 0.06187268
#
# Stress axis : x y z
#
# Youngs Moduli (GPa) = 105.81218 21.51047 79.20137
#
# Poissons Ratio (x) = 0.12498 0.10744
# Poissons Ratio (y) = 0.61478 -0.30256
# Poissons Ratio (z) = 0.14354 -0.08217
#
# Static dielectric constant tensor:
#      x y z
#    x 1.759930 0.007670 -0.012320 
#    y 0.007670 1.669210 -0.007670 
#    z -0.012320 -0.007670 1.752950 
# 
# From -- ./inp_files/432947.got.cif
#   From: 2010.05.17/outbox.cif.g08.bks.cpg/sg2_217_cif.got.tgz:432947.got - 2010.06.03 11:33:40.
