data_PCOD9001083
_publ_section_title
;
Structure prediction by ZEFSAII (Michael W. Deem and Ramdas Pophale) SiO2 
 PCOD9001083
Probable space group: P -1
;
_chemical_formula_sum "Si O2"
_cell_formula_units_Z 14
_cell_length_a 6.494985
_cell_length_b 10.738774
_cell_length_c 10.786925
_cell_angle_alpha 64.966730
_cell_angle_beta 78.025366
_cell_angle_gamma 114.490278
_cell_volume 549.420233
_symmetry_space_group_name_H-M "P -1"
_symmetry_group_IT_number 2
_symmetry_cell_setting 'triclinic'
loop_
_space_group_symop_operation_xyz
x,y,z
-x,-y,-z
loop_
_atom_site_type_symbol
_atom_site_label
_atom_site_fract_x
_atom_site_fract_y
_atom_site_fract_z
Si Si1 0.925550 0.573213 0.370098
Si Si2 0.768808 0.800144 0.387243
Si Si3 0.646520 0.220856 0.425921
Si Si4 0.931403 0.609121 0.885739
Si Si5 0.362094 0.028335 0.262960
Si Si6 0.577912 0.699736 0.992576
Si Si7 0.505280 0.848281 0.166895
O O1 0.201255 0.728456 0.226421
O O2 0.000000 0.500000 0.500000
O O3 0.769477 0.638040 0.426337
O O4 0.783992 0.417537 0.361576
O O5 0.641697 0.827212 0.511330
O O6 0.606077 0.801304 0.293244
O O7 0.067865 0.939237 0.297247
O O8 0.653642 0.090242 0.572910
O O9 0.819449 0.242480 0.278721
O O10 0.806267 0.677871 0.958756
O O11 0.690923 0.479717 0.880934
O O12 0.000000 0.500000 0.000000
O O13 0.532363 0.013117 0.143420
O O14 0.451423 0.219271 0.162781
O O15 0.635119 0.822233 0.047027
#
# Coordination Sequence:
#
# PCOD9001083 Si02
#       7
#     2   2   2   2   2   2   2
#     4  11  18  33  58  97 127 158 202 256 311 364
#     4  10  21  33  62 102 124 161 198 251 319 368
#     4  11  22  40  63  91 125 161 212 259 302 366
#     4  11  28  45  66  89 117 174 220 254 301 365
#     4  10  23  41  65  98 128 158 200 258 323 372
#     4  11  25  46  63  89 132 166 206 259 308 363
#     4  10  21  36  65  96 127 161 198 256 315 370
#
# _framework density 25.481407999999998
#
# number of rings (size 3 to 8) (size 9 to 14) (size 15 to 20)
#    0.000    1.429    5.714    0.857    2.000    5.714 
#    0.000    1.429    0.000    0.000    0.000    0.000 
#    0.000    0.000    0.000    0.000    0.000    0.000 
#
# Total GULP energy -78102.315327 kJ/mol
# GULP energy per Si atom -5578.736809 kJ/mol
# Density = 2.542341 g / cm^3
# Si number density = 25.481408 Si / 1000 Ang^3
#
#
#
# Elastic Constant Matrix: (Units=GPa)
#
#
# Indices 1 2 3 4 5 6 
#
# 1 143.5970 49.2773 53.2996 4.2001 -25.7823 -46.3357
# 2 49.2773 61.7501 28.1024 -2.0637 -1.5443 -28.8728
# 3 53.2996 28.1024 127.3933 7.4145 -18.3193 -24.1744
# 4 4.2001 -2.0637 7.4145 44.1511 -8.9609 -8.6301
# 5 -25.7823 -1.5443 -18.3193 -8.9609 34.0352 -1.4577
# 6 -46.3357 -28.8728 -24.1744 -8.6301 -1.4577 58.5903
#
#
#
# Elastic Compliance Matrix: (Units=1/GPa)
#
#
# Indices 1 2 3 4 5 6 
#
# 1 0.014190 -0.006541 -0.001607 0.002304 0.010534 0.007937
# 2 -0.006541 0.025661 -0.002378 0.002724 -0.004062 0.006792
# 3 -0.001607 -0.002378 0.009970 -0.000492 0.003984 0.001698
# 4 0.002304 0.002724 -0.000492 0.025766 0.008686 0.006973
# 5 0.010534 -0.004062 0.003984 0.008686 0.042049 0.010298
# 6 0.007937 0.006792 0.001698 0.006973 0.010298 0.028676
#
#
# Mechanical properties :
#
#
# Convention : Reuss Voigt Hill
#
# Bulk Modulus (GPa) = 34.75852 66.01101 50.38477
# Shear Modulus (GPa) = 28.25574 40.82604 34.54089
#
# Velocity S-wave (km/s) = 3.33359 4.00708 3.68575
# Velocity P-wave (km/s) = 5.33737 6.88264 6.15866
#
# Compressibility (1/GPa) = 0.02876992
#
# Stress axis : x y z
#
# Youngs Moduli (GPa) = 70.47128 38.96902 100.29646
#
# Poissons Ratio (x) = 0.25489 0.16120
# Poissons Ratio (y) = 0.46094 0.23851
# Poissons Ratio (z) = 0.11326 0.09267
#
# Static dielectric constant tensor:
#      x y z
#    x 1.986780 0.088660 0.037980 
#    y 0.088660 1.944980 0.197790 
#    z 0.037980 0.197790 2.061280 
# 
# From -- ./inp_files/94533.got.cif
#   From: 2010.05.17/outbox.cif.g08.bks.cpg/sg2_48_cif.got.tgz:94533.got - 2010.06.03 11:33:40.
