data_PCOD9001322
_publ_section_title
;
Structure prediction by ZEFSAII (Michael W. Deem and Ramdas Pophale) SiO2 
 PCOD9001322
Probable space group: P -1
;
_chemical_formula_sum "Si O2"
_cell_formula_units_Z 14
_cell_length_a 7.641717
_cell_length_b 13.966510
_cell_length_c 9.672190
_cell_angle_alpha 61.888689
_cell_angle_beta 114.840258
_cell_angle_gamma 130.373735
_cell_volume 683.454991
_symmetry_space_group_name_H-M "P -1"
_symmetry_group_IT_number 2
_symmetry_cell_setting 'triclinic'
loop_
_space_group_symop_operation_xyz
x,y,z
-x,-y,-z
loop_
_atom_site_type_symbol
_atom_site_label
_atom_site_fract_x
_atom_site_fract_y
_atom_site_fract_z
Si Si1 0.642340 0.365673 0.212781
Si Si2 0.354571 0.594177 0.492762
Si Si3 0.699815 0.123723 0.397958
Si Si4 0.173457 0.303794 0.584079
Si Si5 0.424621 0.284636 0.924440
Si Si6 0.387868 0.886409 0.928651
Si Si7 0.138096 0.625752 0.159050
O O1 0.607058 0.385360 0.346075
O O2 0.663294 0.242081 0.300125
O O3 0.884776 0.495765 0.157145
O O4 0.450352 0.334349 0.054868
O O5 0.188674 0.438687 0.511497
O O6 0.604269 0.656543 0.462714
O O7 0.230897 0.653222 0.329313
O O8 0.686622 0.083948 0.260379
O O9 0.944104 0.187742 0.513567
O O10 0.500000 0.000000 0.500000
O O11 0.222356 0.270083 0.774697
O O12 0.670923 0.385707 0.855876
O O13 0.429249 0.154734 0.011619
O O14 0.170213 0.753028 0.014499
O O15 0.500000 0.000000 0.000000
#
# Coordination Sequence:
#
# PCOD9001322 Si02
#       7
#     2   2   2   2   2   2   2
#     4  11  20  37  61  97 115 156 210 241 294 347
#     4  10  21  34  64  91 125 153 194 255 294 359
#     4  11  25  39  63  87 118 159 207 249 287 360
#     4  10  21  41  57  89 125 158 192 242 320 343
#     4   8  20  36  61  85 124 156 188 252 296 354
#     4   9  21  39  59  87 117 160 200 238 299 357
#     4   9  18  34  63  88 119 156 191 254 285 356
#
# _framework density 20.484158000000001
#
# number of rings (size 3 to 8) (size 9 to 14) (size 15 to 20)
#    0.857    1.429    1.429    0.857    2.000    0.571 
#    0.000    7.143    0.000    0.000    0.000    0.000 
#    0.000    0.000    0.000    0.000    0.000    0.000 
#
# Total GULP energy -78077.647868 kJ/mol
# GULP energy per Si atom -5576.974848 kJ/mol
# Density = 2.043753 g / cm^3
# Si number density = 20.484158 Si / 1000 Ang^3
#
#
#
# Elastic Constant Matrix: (Units=GPa)
#
#
# Indices 1 2 3 4 5 6 
#
# 1 15.3426 22.8935 25.7625 10.2355 -7.0654 5.9330
# 2 22.8935 132.7568 81.4476 18.3613 -14.3602 9.9231
# 3 25.7625 81.4476 174.3841 39.7748 -8.5055 14.6443
# 4 10.2355 18.3613 39.7748 44.6788 -1.2556 -0.6510
# 5 -7.0654 -14.3602 -8.5055 -1.2556 22.7246 5.8402
# 6 5.9330 9.9231 14.6443 -0.6510 5.8402 18.3960
#
#
#
# Elastic Compliance Matrix: (Units=1/GPa)
#
#
# Indices 1 2 3 4 5 6 
#
# 1 0.150793 -0.009736 -0.004432 -0.025962 0.052390 -0.057404
# 2 -0.009736 0.012081 -0.004197 0.001081 0.003371 -0.001068
# 3 -0.004432 -0.004197 0.010273 -0.006457 0.000729 -0.004944
# 4 -0.025962 0.001081 -0.006457 0.033543 -0.012609 0.018120
# 5 0.052390 0.003371 0.000729 -0.012609 0.073032 -0.042927
# 6 -0.057404 -0.001068 -0.004944 0.018120 -0.042927 0.091655
#
#
# Mechanical properties :
#
#
# Convention : Reuss Voigt Hill
#
# Bulk Modulus (GPa) = 7.33047 64.74340 36.03693
# Shear Modulus (GPa) = 11.02342 29.98521 20.50432
#
# Velocity S-wave (km/s) = 2.32231 3.83015 3.16727
# Velocity P-wave (km/s) = 3.28286 7.15788 5.56832
#
# Compressibility (1/GPa) = 0.13641691
#
# Stress axis : x y z
#
# Youngs Moduli (GPa) = 6.63162 82.77347 97.34395
#
# Poissons Ratio (x) = 0.80587 0.43146
# Poissons Ratio (y) = 0.06456 0.40853
# Poissons Ratio (z) = 0.02939 0.34738
#
# Static dielectric constant tensor:
#      x y z
#    x 1.798690 -0.119920 0.033960 
#    y -0.119920 1.963100 -0.074940 
#    z 0.033960 -0.074940 1.810110 
# 
# From -- ./inp_files/195921.got.cif
#   From: 2010.05.17/outbox.cif.g08.bks.cpg/sg2_98_cif.got.tgz:195921.got - 2010.06.03 11:33:40.
