data_PCOD9001197
_publ_section_title
;
Structure prediction by ZEFSAII (Michael W. Deem and Ramdas Pophale) SiO2 
 PCOD9001197
Probable space group: P -1
;
_chemical_formula_sum "Si O2"
_cell_formula_units_Z 14
_cell_length_a 8.203382
_cell_length_b 17.608451
_cell_length_c 8.266237
_cell_angle_alpha 47.081105
_cell_angle_beta 129.720698
_cell_angle_gamma 137.129923
_cell_volume 570.944779
_symmetry_space_group_name_H-M "P -1"
_symmetry_group_IT_number 2
_symmetry_cell_setting 'triclinic'
loop_
_space_group_symop_operation_xyz
x,y,z
-x,-y,-z
loop_
_atom_site_type_symbol
_atom_site_label
_atom_site_fract_x
_atom_site_fract_y
_atom_site_fract_z
Si Si1 0.421296 0.244236 0.638646
Si Si2 0.946070 0.848969 0.203013
Si Si3 0.453866 0.920583 0.245013
Si Si4 0.958787 0.347168 0.353980
Si Si5 0.625414 0.842719 0.728962
Si Si6 0.082000 0.600885 0.110483
Si Si7 0.310678 0.357763 0.118312
O O1 0.159150 0.142885 0.699624
O O2 0.549803 0.194860 0.670964
O O3 0.622111 0.318009 0.799307
O O4 0.370479 0.330980 0.373090
O O5 0.219236 0.909670 0.206344
O O6 0.890697 0.709323 0.391179
O O7 0.786743 0.880656 0.936904
O O8 0.660379 0.948956 0.474601
O O9 0.500000 0.000000 0.000000
O O10 0.672664 0.235538 0.320471
O O11 0.988243 0.462467 0.301274
O O12 0.015624 0.397134 0.134164
O O13 0.679266 0.743015 0.834711
O O14 0.958121 0.660022 0.048260
O O15 0.500000 0.500000 0.000000
#
# Coordination Sequence:
#
# PCOD9001197 Si02
#       7
#     2   2   2   2   2   2   2
#     4  11  24  40  65  92 123 168 208 251 307 368
#     4  11  22  41  66  90 123 165 204 254 314 366
#     4  10  25  47  65  91 122 152 206 272 320 370
#     4  10  21  34  56  90 127 165 200 246 282 358
#     4  10  21  40  61  88 124 159 204 251 309 362
#     4  11  21  35  57  89 128 166 210 237 290 360
#     4  11  22  36  55  88 129 169 205 249 295 355
#
# _framework density 24.520761
#
# number of rings (size 3 to 8) (size 9 to 14) (size 15 to 20)
#    0.000    1.429    4.286    0.857    2.000    2.286 
#    0.000    0.714    0.000    0.000    0.000    0.000 
#    0.000    0.000    0.000    0.000    0.000    0.000 
#
# Total GULP energy -78039.329970 kJ/mol
# GULP energy per Si atom -5574.237855 kJ/mol
# Density = 2.446495 g / cm^3
# Si number density = 24.520761 Si / 1000 Ang^3
#
#
#
# Elastic Constant Matrix: (Units=GPa)
#
#
# Indices 1 2 3 4 5 6 
#
# 1 110.5104 21.7846 48.3191 0.0184 15.3750 16.1712
# 2 21.7846 43.8622 49.1083 0.0991 6.3737 13.8063
# 3 48.3191 49.1083 180.7420 -7.0531 2.7897 11.9843
# 4 0.0184 0.0991 -7.0531 33.4498 2.2437 2.8882
# 5 15.3750 6.3737 2.7897 2.2437 44.0857 -2.0093
# 6 16.1712 13.8063 11.9843 2.8882 -2.0093 23.1047
#
#
#
# Elastic Compliance Matrix: (Units=1/GPa)
#
#
# Indices 1 2 3 4 5 6 
#
# 1 0.011869 -0.000053 -0.002590 0.000373 -0.004322 -0.007355
# 2 -0.000053 0.040783 -0.009656 -0.000028 -0.006170 -0.019857
# 3 -0.002590 -0.009656 0.008675 0.001474 0.001814 0.003056
# 4 0.000373 -0.000028 0.001474 0.030776 -0.002015 -0.005030
# 5 -0.004322 -0.006170 0.001814 -0.002015 0.025446 0.008236
# 6 -0.007355 -0.019857 0.003056 -0.005030 0.008236 0.060054
#
#
# Mechanical properties :
#
#
# Convention : Reuss Voigt Hill
#
# Bulk Modulus (GPa) = 27.22585 63.72653 45.47619
# Shear Modulus (GPa) = 23.31610 34.52154 28.91882
#
# Velocity S-wave (km/s) = 3.08697 3.75620 3.43791
# Velocity P-wave (km/s) = 4.88192 6.69756 5.86048
#
# Compressibility (1/GPa) = 0.03672979
#
# Stress axis : x y z
#
# Youngs Moduli (GPa) = 84.25157 24.52010 115.26763
#
# Poissons Ratio (x) = 0.00131 0.29851
# Poissons Ratio (y) = 0.00450 1.11300
# Poissons Ratio (z) = 0.21818 0.23676
#
# Static dielectric constant tensor:
#      x y z
#    x 2.028690 0.009990 -0.010940 
#    y 0.009990 2.053210 0.043540 
#    z -0.010940 0.043540 1.987210 
# 
# From -- ./inp_files/32217.got.cif
#   From: 2010.05.17/outbox.cif.g08.bks.cpg/sg2_17_cif.got.tgz:32217.got - 2010.06.03 11:33:40.
