data_PCOD9001522
_publ_section_title
;
Structure prediction by ZEFSAII (Michael W. Deem and Ramdas Pophale) SiO2 
 PCOD9001522
Probable space group: P -1
;
_chemical_formula_sum "Si O2"
_cell_formula_units_Z 16
_cell_length_a 7.670631
_cell_length_b 8.785084
_cell_length_c 13.105052
_cell_angle_alpha 108.869448
_cell_angle_beta 63.789216
_cell_angle_gamma 129.463615
_cell_volume 610.519966
_symmetry_space_group_name_H-M "P -1"
_symmetry_group_IT_number 2
_symmetry_cell_setting 'triclinic'
loop_
_space_group_symop_operation_xyz
x,y,z
-x,-y,-z
loop_
_atom_site_type_symbol
_atom_site_label
_atom_site_fract_x
_atom_site_fract_y
_atom_site_fract_z
Si Si1 0.077205 0.338585 0.426616
Si Si2 0.665425 0.235418 0.008801
Si Si3 0.653976 0.983335 0.544037
Si Si4 0.209579 0.435286 0.096295
Si Si5 0.636625 0.645457 0.367591
Si Si6 0.781355 0.349514 0.316248
Si Si7 0.725453 0.779015 0.807175
Si Si8 0.908379 0.788467 0.116084
O O1 0.348468 0.522851 0.414604
O O2 0.135797 0.195870 0.325280
O O3 0.934275 0.378655 0.387662
O O4 0.892490 0.204243 0.535159
O O5 0.655162 0.348411 0.939139
O O6 0.931483 0.296916 0.946775
O O7 0.536987 0.272030 0.140700
O O8 0.500000 0.000000 0.000000
O O9 0.713669 0.831207 0.458905
O O10 0.465512 0.869972 0.659202
O O11 0.500000 0.000000 0.500000
O O12 0.948094 0.366101 0.185798
O O13 0.310805 0.405439 0.165180
O O14 0.207816 0.293135 0.981383
O O15 0.716358 0.506371 0.354019
O O16 0.744415 0.719152 0.242777
O O17 0.905093 0.976251 0.868477
#
# Coordination Sequence:
#
# PCOD9001522 Si02
#       8
#     2   2   2   2   2   2   2   2
#     4  10  23  43  71  98 133 178 222 279 338 397
#     4  10  21  35  57  87 127 171 211 263 324 391
#     4  10  23  47  72  95 137 173 223 290 331 395
#     4  11  21  38  62  92 132 173 222 263 333 403
#     4  12  23  43  73  97 133 179 223 274 346 398
#     4  10  24  42  66 101 134 175 224 281 329 397
#     4  10  21  39  61  92 135 174 218 276 333 390
#     4  11  22  38  62  95 132 175 217 274 336 395
#
# _framework density 26.207169
#
# number of rings (size 3 to 8) (size 9 to 14) (size 15 to 20)
#    0.000    1.500    2.500    2.250    1.750    3.500 
#    0.000    2.500    5.500    0.000    0.000    0.000 
#    0.000    0.000    0.000    0.000    0.000    0.000 
#
# Total GULP energy -89460.829741 kJ/mol
# GULP energy per Si atom -5591.301859 kJ/mol
# Density = 2.614752 g / cm^3
# Si number density = 26.207169 Si / 1000 Ang^3
#
#
#
# Elastic Constant Matrix: (Units=GPa)
#
#
# Indices 1 2 3 4 5 6 
#
# 1 106.9991 26.1968 43.5160 -17.4841 -27.3503 1.1237
# 2 26.1968 144.2866 56.8892 -33.7434 -0.5697 5.7745
# 3 43.5160 56.8892 165.5984 -43.3691 -29.3002 -3.8525
# 4 -17.4841 -33.7434 -43.3691 55.1054 -0.9769 -7.3394
# 5 -27.3503 -0.5697 -29.3002 -0.9769 50.0577 -0.4902
# 6 1.1237 5.7745 -3.8525 -7.3394 -0.4902 28.8092
#
#
#
# Elastic Compliance Matrix: (Units=1/GPa)
#
#
# Indices 1 2 3 4 5 6 
#
# 1 0.011977 -0.001191 -0.001046 0.002399 0.005968 0.000345
# 2 -0.001191 0.008792 -0.002272 0.003014 -0.001835 -0.001283
# 3 -0.001046 -0.002272 0.009850 0.006601 0.005332 0.003586
# 4 0.002399 0.003014 0.006601 0.027006 0.005806 0.007164
# 5 0.005968 -0.001835 0.005332 0.005806 0.026479 0.002778
# 6 0.000345 -0.001283 0.003586 0.007164 0.002778 0.037307
#
#
# Mechanical properties :
#
#
# Convention : Reuss Voigt Hill
#
# Bulk Modulus (GPa) = 46.29731 74.45424 60.37577
# Shear Modulus (GPa) = 36.32980 46.14661 41.23821
#
# Velocity S-wave (km/s) = 3.72728 4.20079 3.97110
# Velocity P-wave (km/s) = 6.01895 7.21113 6.64184
#
# Compressibility (1/GPa) = 0.02159953
#
# Stress axis : x y z
#
# Youngs Moduli (GPa) = 83.49442 113.74173 101.52611
#
# Poissons Ratio (x) = 0.13551 0.10615
# Poissons Ratio (y) = 0.09947 0.23072
# Poissons Ratio (z) = 0.08730 0.25847
#
# Static dielectric constant tensor:
#      x y z
#    x 2.152000 0.054800 0.005950 
#    y 0.054800 2.056460 0.053390 
#    z 0.005950 0.053390 2.063030 
# 
# From -- ./inp_files/556321.got.cif
#   From: 2010.05.17/outbox.cif.g08.bks.cpg/sg2_279_cif.got.tgz:556321.got - 2010.06.03 11:33:40.
