data_PCOD9001172
_publ_section_title
;
Structure prediction by ZEFSAII (Michael W. Deem and Ramdas Pophale) SiO2 
 PCOD9001172
Probable space group: P -1
;
_chemical_formula_sum "Si O2"
_cell_formula_units_Z 16
_cell_length_a 6.704607
_cell_length_b 14.342809
_cell_length_c 11.156912
_cell_angle_alpha 127.801969
_cell_angle_beta 76.196366
_cell_angle_gamma 81.066788
_cell_volume 757.010941
_symmetry_space_group_name_H-M "P -1"
_symmetry_group_IT_number 2
_symmetry_cell_setting 'triclinic'
loop_
_space_group_symop_operation_xyz
x,y,z
-x,-y,-z
loop_
_atom_site_type_symbol
_atom_site_label
_atom_site_fract_x
_atom_site_fract_y
_atom_site_fract_z
Si Si1 0.298354 0.597061 0.747066
Si Si2 0.791027 0.186740 0.874175
Si Si3 0.823759 0.437639 0.515249
Si Si4 0.509893 0.931875 0.258303
Si Si5 0.163706 0.358341 0.601501
Si Si6 0.832924 0.839319 0.362712
Si Si7 0.560592 0.866908 0.772247
Si Si8 0.158749 0.991513 0.079192
O O1 0.568612 0.535542 0.651284
O O2 0.200808 0.640213 0.660330
O O3 0.206979 0.487226 0.707925
O O4 0.222663 0.703468 0.944390
O O5 0.555297 0.180347 0.872119
O O6 0.916301 0.054073 0.824795
O O7 0.917689 0.188190 0.735331
O O8 0.000000 0.500000 0.500000
O O9 0.937123 0.374650 0.574750
O O10 0.696032 0.874637 0.286299
O O11 0.290753 0.038229 0.437873
O O12 0.554878 0.013776 0.208896
O O13 0.176155 0.282295 0.662223
O O14 0.361810 0.263143 0.413764
O O15 0.775401 0.889013 0.808856
O O16 0.393966 0.881325 0.915391
O O17 0.000000 0.000000 0.000000
#
# Coordination Sequence:
#
# PCOD9001172 Si02
#       8
#     2   2   2   2   2   2   2   2
#     4  10  23  39  58  91 118 156 197 242 303 353
#     4  11  23  36  60  89 120 153 196 245 296 351
#     4   9  21  40  60  83 117 157 199 243 292 350
#     4   9  20  40  60  85 117 158 195 245 289 352
#     4  10  22  39  62  84 118 159 201 244 283 358
#     4  10  21  40  63  85 116 162 199 236 295 349
#     4   9  20  36  55  85 117 148 195 239 294 344
#     4  10  21  34  55  86 118 149 187 246 295 349
#
# _framework density 21.135760000000001
#
# number of rings (size 3 to 8) (size 9 to 14) (size 15 to 20)
#    0.000    2.250    0.000    1.125    7.000    3.500 
#    0.000    3.750    0.000    0.000    0.000    0.000 
#    0.000    0.000    0.000    0.000    0.000    0.000 
#
# Total GULP energy -89272.608048 kJ/mol
# GULP energy per Si atom -5579.538003 kJ/mol
# Density = 2.108765 g / cm^3
# Si number density = 21.135760 Si / 1000 Ang^3
#
#
#
# Elastic Constant Matrix: (Units=GPa)
#
#
# Indices 1 2 3 4 5 6 
#
# 1 82.4351 36.6237 17.2383 0.9020 12.1663 -5.1061
# 2 36.6237 87.6399 9.4787 -12.1133 4.4570 -3.1811
# 3 17.2383 9.4787 38.0730 -3.2298 7.6816 12.4453
# 4 0.9020 -12.1133 -3.2298 28.0861 5.7402 2.8001
# 5 12.1663 4.4570 7.6816 5.7402 34.4513 -5.6458
# 6 -5.1061 -3.1811 12.4453 2.8001 -5.6458 33.9282
#
#
#
# Elastic Compliance Matrix: (Units=1/GPa)
#
#
# Indices 1 2 3 4 5 6 
#
# 1 0.017407 -0.006771 -0.007759 -0.004447 -0.002003 0.004865
# 2 -0.006771 0.015221 0.000162 0.007010 -0.000843 -0.000370
# 3 -0.007759 0.000162 0.038244 0.008535 -0.010109 -0.017567
# 4 -0.004447 0.007010 0.008535 0.042556 -0.009684 -0.008266
# 5 -0.002003 -0.000843 -0.010109 -0.009684 0.035351 0.010009
# 6 0.004865 -0.000370 -0.017567 -0.008266 0.010009 0.038963
#
#
# Mechanical properties :
#
#
# Convention : Reuss Voigt Hill
#
# Bulk Modulus (GPa) = 23.73290 37.20327 30.46808
# Shear Modulus (GPa) = 21.68981 28.94695 25.31838
#
# Velocity S-wave (km/s) = 3.20693 3.70479 3.46481
# Velocity P-wave (km/s) = 4.99657 5.99507 5.51845
#
# Compressibility (1/GPa) = 0.04213561
#
# Stress axis : x y z
#
# Youngs Moduli (GPa) = 57.44759 65.69978 26.14793
#
# Poissons Ratio (x) = 0.44488 0.20288
# Poissons Ratio (y) = 0.38900 -0.00424
# Poissons Ratio (z) = 0.44573 -0.01065
#
# Static dielectric constant tensor:
#      x y z
#    x 1.788840 -0.022770 0.000850 
#    y -0.022770 1.782080 0.018880 
#    z 0.000850 0.018880 1.750150 
# 
# From -- ./inp_files/67139.got.cif
#   From: 2010.05.17/outbox.cif.g08.bks.cpg/sg2_34_cif.got.tgz:67139.got - 2010.06.03 11:33:40.
