data_PCOD9001125
_publ_section_title
;
Structure prediction by ZEFSAII (Michael W. Deem and Ramdas Pophale) SiO2 
 PCOD9001125
Probable space group: P -1
;
_chemical_formula_sum "Si O2"
_cell_formula_units_Z 16
_cell_length_a 12.655984
_cell_length_b 12.346691
_cell_length_c 9.731070
_cell_angle_alpha 36.734452
_cell_angle_beta 54.399698
_cell_angle_gamma 42.036582
_cell_volume 608.656608
_symmetry_space_group_name_H-M "P -1"
_symmetry_group_IT_number 2
_symmetry_cell_setting 'triclinic'
loop_
_space_group_symop_operation_xyz
x,y,z
-x,-y,-z
loop_
_atom_site_type_symbol
_atom_site_label
_atom_site_fract_x
_atom_site_fract_y
_atom_site_fract_z
Si Si1 0.779439 0.197173 0.542894
Si Si2 0.821202 0.585851 0.065602
Si Si3 0.658996 0.406560 0.700672
Si Si4 0.922655 0.293948 0.830459
Si Si5 0.694910 0.027471 0.185317
Si Si6 0.608535 0.834590 0.206181
Si Si7 0.892156 0.034882 0.349268
Si Si8 0.194706 0.264829 0.361688
O O1 0.788179 0.400822 0.290474
O O2 0.674935 0.279054 0.675566
O O3 0.766989 0.117157 0.484587
O O4 0.950026 0.003210 0.668344
O O5 0.770110 0.706285 0.127200
O O6 0.742810 0.710082 0.855406
O O7 0.000000 0.500000 0.000000
O O8 0.818993 0.352376 0.710817
O O9 0.574385 0.657049 0.462811
O O10 0.609433 0.288223 0.964063
O O11 0.881943 0.517170 0.708263
O O12 0.111766 0.116065 0.844980
O O13 0.858283 0.190305 0.089133
O O14 0.626821 0.945517 0.208996
O O15 0.681345 0.945377 0.426980
O O16 0.500000 0.000000 0.000000
O O17 0.924266 0.804052 0.516520
#
# Coordination Sequence:
#
# PCOD9001125 Si02
#       8
#     2   2   2   2   2   2   2   2
#     4  10  21  34  52  90 134 172 202 265 326 389
#     4  11  22  38  67  98 130 171 220 275 331 389
#     4  11  23  41  66  94 130 172 224 271 331 399
#     4  12  22  36  59 103 139 168 211 278 341 396
#     4  12  24  37  68  93 131 180 220 272 336 393
#     4  11  28  48  65  94 137 182 226 270 326 403
#     4  11  21  33  53  88 147 162 204 264 346 387
#     4  12  23  35  58  98 133 168 213 270 339 391
#
# _framework density 26.287400000000002
#
# number of rings (size 3 to 8) (size 9 to 14) (size 15 to 20)
#    0.000    0.750    6.250    2.250    5.250    0.500 
#    0.000    0.625    0.000    0.750    0.000    0.000 
#    0.000    0.000    0.000    0.000    0.000    0.000 
#
# Total GULP energy -89465.748159 kJ/mol
# GULP energy per Si atom -5591.609260 kJ/mol
# Density = 2.622757 g / cm^3
# Si number density = 26.287400 Si / 1000 Ang^3
#
#
#
# Elastic Constant Matrix: (Units=GPa)
#
#
# Indices 1 2 3 4 5 6 
#
# 1 39.9609 52.8936 19.7170 0.9762 18.1687 8.8881
# 2 52.8936 36.6793 26.7113 10.9427 -5.5531 16.8927
# 3 19.7170 26.7113 216.0696 9.2187 26.9035 12.0790
# 4 0.9762 10.9427 9.2187 36.4892 17.8694 4.2267
# 5 18.1687 -5.5531 26.9035 17.8694 36.7019 -1.1560
# 6 8.8881 16.8927 12.0790 4.2267 -1.1560 39.6610
#
#
#
# Elastic Compliance Matrix: (Units=1/GPa)
#
#
# Indices 1 2 3 4 5 6 
#
# 1 -0.007781 0.021707 -0.003081 -0.012468 0.015314 -0.004789
# 2 0.021707 -0.010095 0.001290 0.011762 -0.019032 -0.002766
# 3 -0.003081 0.001290 0.005072 -0.000557 -0.001771 -0.001396
# 4 -0.012468 0.011762 -0.000557 0.027484 -0.005183 -0.005126
# 5 0.015314 -0.019032 -0.001771 -0.005183 0.020808 0.006373
# 6 -0.004789 -0.002766 -0.001396 -0.005126 0.006373 0.028622
#
#
# Mechanical properties :
#
#
# Convention : Reuss Voigt Hill
#
# Bulk Modulus (GPa) = 36.99790 54.59485 45.79638
# Shear Modulus (GPa) = 150.20348 35.46295 92.83321
#
# Velocity S-wave (km/s) = 7.56723 3.67692 5.94907
# Velocity P-wave (km/s) = 9.51082 6.23217 8.04038
#
# Compressibility (1/GPa) = 0.02702856
#
# Stress axis : x y z
#
# Youngs Moduli (GPa) = -128.52408 -99.05725 197.15778
#
# Poissons Ratio (x) = 2.15024 0.60737
# Poissons Ratio (y) = 2.78988 -0.25428
# Poissons Ratio (z) = -0.39593 0.12776
#
# Static dielectric constant tensor:
#      x y z
#    x 2.135420 -0.005800 0.045540 
#    y -0.005800 2.195340 -0.010150 
#    z 0.045540 -0.010150 2.084390 
# 
# From -- ./inp_files/306218.got.cif
#   From: 2010.05.17/outbox.cif.g08.bks.cpg/sg2_154_cif.got.tgz:306218.got - 2010.06.03 11:33:40.
