data_PCOD9001542
_publ_section_title
;
Structure prediction by ZEFSAII (Michael W. Deem and Ramdas Pophale) SiO2 
 PCOD9001542
Probable space group: P -1
;
_chemical_formula_sum "Si O2"
_cell_formula_units_Z 16
_cell_length_a 5.915233
_cell_length_b 10.565974
_cell_length_c 15.984106
_cell_angle_alpha 112.210747
_cell_angle_beta 111.419849
_cell_angle_gamma 114.136527
_cell_volume 665.391564
_symmetry_space_group_name_H-M "P -1"
_symmetry_group_IT_number 2
_symmetry_cell_setting 'triclinic'
loop_
_space_group_symop_operation_xyz
x,y,z
-x,-y,-z
loop_
_atom_site_type_symbol
_atom_site_label
_atom_site_fract_x
_atom_site_fract_y
_atom_site_fract_z
Si Si1 0.204183 0.230693 0.377095
Si Si2 0.781293 0.869896 0.826648
Si Si3 0.356937 0.571418 0.804877
Si Si4 0.508086 0.149471 0.986297
Si Si5 0.304973 0.297555 0.640928
Si Si6 0.773298 0.472157 0.605687
Si Si7 0.501896 0.961160 0.217571
Si Si8 0.382758 0.999142 0.576936
O O1 0.268767 0.227065 0.289155
O O2 0.501982 0.282684 0.480271
O O3 0.174827 0.385050 0.415890
O O4 0.864099 0.049519 0.303185
O O5 0.695991 0.739762 0.857981
O O6 0.541599 0.909802 0.802577
O O7 0.135662 0.049615 0.914629
O O8 0.311841 0.659982 0.897763
O O9 0.319497 0.394130 0.751584
O O10 0.094887 0.520108 0.688157
O O11 0.613207 0.173989 0.909175
O O12 0.500000 0.000000 0.000000
O O13 0.588737 0.449926 0.659027
O O14 0.357872 0.155020 0.620089
O O15 0.971884 0.188997 0.520199
O O16 0.403622 0.953956 0.299361
O O17 0.500000 0.000000 0.500000
#
# Coordination Sequence:
#
# PCOD9001542 Si02
#       8
#     2   2   2   2   2   2   2   2
#     4  10  21  35  58 100 140 167 211 269 351 415
#     4  11  22  36  65  98 139 176 215 271 338 401
#     4  12  23  38  64 103 136 178 220 270 336 403
#     4  11  24  42  65 102 142 181 221 266 339 414
#     4  11  25  42  68  94 137 178 223 285 332 401
#     4  11  21  36  60  98 140 170 211 274 347 410
#     4  11  23  42  68  97 135 181 221 277 334 404
#     4  11  26  48  68  94 131 183 237 277 334 397
#
# _framework density 24.045991000000001
#
# number of rings (size 3 to 8) (size 9 to 14) (size 15 to 20)
#    0.000    1.000    5.000    1.875    3.500    1.500 
#    0.000    0.625    0.000    3.750    0.000    0.000 
#    0.000    0.000    0.000    0.000    0.000    0.000 
#
# Total GULP energy -89131.251716 kJ/mol
# GULP energy per Si atom -5570.703232 kJ/mol
# Density = 2.399126 g / cm^3
# Si number density = 24.045991 Si / 1000 Ang^3
#
#
#
# Elastic Constant Matrix: (Units=GPa)
#
#
# Indices 1 2 3 4 5 6 
#
# 1 52.9362 21.5130 30.9580 4.1551 -17.9743 -1.7318
# 2 21.5130 63.9101 26.3845 0.7233 -22.7355 -8.1678
# 3 30.9580 26.3845 140.6772 -3.5590 -48.2317 -20.5367
# 4 4.1551 0.7233 -3.5590 27.1752 1.2728 -11.5918
# 5 -17.9743 -22.7355 -48.2317 1.2728 55.5332 3.8070
# 6 -1.7318 -8.1678 -20.5367 -11.5918 3.8070 27.7814
#
#
#
# Elastic Compliance Matrix: (Units=1/GPa)
#
#
# Indices 1 2 3 4 5 6 
#
# 1 0.025557 -0.006755 -0.005029 -0.007704 0.001834 -0.007576
# 2 -0.006755 0.020701 0.000919 0.003186 0.006550 0.006777
# 3 -0.005029 0.000919 0.012946 0.006749 0.009077 0.011099
# 4 -0.007704 0.003186 0.006749 0.049772 0.001751 0.025973
# 5 0.001834 0.006550 0.009077 0.001751 0.028746 0.005541
# 6 -0.007576 0.006777 0.011099 0.025973 0.005541 0.055798
#
#
# Mechanical properties :
#
#
# Convention : Reuss Voigt Hill
#
# Bulk Modulus (GPa) = 26.68507 46.13717 36.41112
# Shear Modulus (GPa) = 21.95484 34.00918 27.98201
#
# Velocity S-wave (km/s) = 3.02493 3.76485 3.41499
# Velocity P-wave (km/s) = 4.82927 6.17475 5.54298
#
# Compressibility (1/GPa) = 0.03747414
#
# Stress axis : x y z
#
# Youngs Moduli (GPa) = 39.12866 48.30625 77.24534
#
# Poissons Ratio (x) = 0.32631 0.38848
# Poissons Ratio (y) = 0.26431 -0.07102
# Poissons Ratio (z) = 0.19679 -0.04441
#
# Static dielectric constant tensor:
#      x y z
#    x 2.012270 0.009710 -0.062160 
#    y 0.009710 1.984550 0.002340 
#    z -0.062160 0.002340 1.981290 
# 
# From -- ./inp_files/549215.got.cif
#   From: 2010.05.17/outbox.cif.g08.bks.cpg/sg2_275_cif.got.tgz:549215.got - 2010.06.03 11:33:40.
