data_PCOD9001798
_publ_section_title
;
Structure prediction by ZEFSAII (Michael W. Deem and Ramdas Pophale) SiO2 
 PCOD9001798
Probable space group: P -1
;
_chemical_formula_sum "Si O2"
_cell_formula_units_Z 14
_cell_length_a 9.181452
_cell_length_b 8.478621
_cell_length_c 19.674469
_cell_angle_alpha 59.565071
_cell_angle_beta 37.836441
_cell_angle_gamma 88.040210
_cell_volume 584.939100
_symmetry_space_group_name_H-M "P -1"
_symmetry_group_IT_number 2
_symmetry_cell_setting 'triclinic'
loop_
_space_group_symop_operation_xyz
x,y,z
-x,-y,-z
loop_
_atom_site_type_symbol
_atom_site_label
_atom_site_fract_x
_atom_site_fract_y
_atom_site_fract_z
Si Si1 0.514349 0.961389 0.088336
Si Si2 0.670638 0.889264 0.182171
Si Si3 0.812135 0.868506 0.806467
Si Si4 0.136604 0.543481 0.629572
Si Si5 0.538149 0.544012 0.568526
Si Si6 0.147622 0.217624 0.041846
Si Si7 0.161086 0.234325 0.337313
O O1 0.473106 0.896314 0.197735
O O2 0.786880 0.965917 0.957740
O O3 0.195224 0.726889 0.215563
O O4 0.500254 0.173453 0.047400
O O5 0.489177 0.601341 0.325452
O O6 0.000000 0.000000 0.000000
O O7 0.819098 0.082500 0.148950
O O8 0.778049 0.784869 0.760237
O O9 0.874601 0.773763 0.870069
O O10 0.134547 0.165480 0.617813
O O11 0.241490 0.528118 0.668637
O O12 0.429786 0.603079 0.466622
O O13 0.088343 0.726991 0.588102
O O14 0.475678 0.496825 0.833706
O O15 0.000000 0.000000 0.500000
#
# Coordination Sequence:
#
# PCOD9001798 Si02
#       7
#     2   2   2   2   2   2   2
#     4   9  20  36  67  96 122 161 209 266 313 357
#     4  10  21  35  63  97 127 152 205 270 315 359
#     4  11  23  39  67  93 126 168 210 254 314 378
#     4   9  20  40  64  90 123 163 208 258 305 374
#     4  10  21  38  67  94 121 158 213 262 312 359
#     4  10  21  43  62  90 129 164 214 258 304 375
#     4  11  26  41  64  90 133 170 207 253 315 378
#
# _framework density 23.934117000000001
#
# number of rings (size 3 to 8) (size 9 to 14) (size 15 to 20)
#    0.000    2.000    0.000    3.429    8.000    5.143 
#    0.000    0.714    3.143    0.000    0.000    0.000 
#    0.000    0.000    0.000    0.000    0.000    0.000 
#
# Total GULP energy -77963.400284 kJ/mol
# GULP energy per Si atom -5568.814306 kJ/mol
# Density = 2.387964 g / cm^3
# Si number density = 23.934117 Si / 1000 Ang^3
#
#
#
# Elastic Constant Matrix: (Units=GPa)
#
#
# Indices 1 2 3 4 5 6 
#
# 1 140.9219 31.1774 22.4865 -4.6181 13.3649 7.5618
# 2 31.1774 80.5218 14.6075 2.9576 3.2533 5.2024
# 3 22.4865 14.6075 98.5600 -17.3344 11.3239 9.5176
# 4 -4.6181 2.9576 -17.3344 33.4984 -6.1085 2.5045
# 5 13.3649 3.2533 11.3239 -6.1085 41.5237 2.3341
# 6 7.5618 5.2024 9.5176 2.5045 2.3341 34.3413
#
#
#
# Elastic Compliance Matrix: (Units=1/GPa)
#
#
# Indices 1 2 3 4 5 6 
#
# 1 0.008148 -0.002847 -0.001015 0.000561 -0.001984 -0.000988
# 2 -0.002847 0.013989 -0.001781 -0.002491 -0.000014 -0.000816
# 3 -0.001015 -0.001781 0.012263 0.006283 -0.001772 -0.003243
# 4 0.000561 -0.002491 0.006283 0.034373 0.003596 -0.004239
# 5 -0.001984 -0.000014 -0.001772 0.003596 0.025796 -0.001085
# 6 -0.000988 -0.000816 -0.003243 -0.004239 -0.001085 0.030742
#
#
# Mechanical properties :
#
#
# Convention : Reuss Voigt Hill
#
# Bulk Modulus (GPa) = 43.26483 50.72739 46.99611
# Shear Modulus (GPa) = 34.64933 38.65481 36.65207
#
# Velocity S-wave (km/s) = 3.80899 4.02313 3.91752
# Velocity P-wave (km/s) = 6.12049 6.54380 6.33568
#
# Compressibility (1/GPa) = 0.02311346
#
# Stress axis : x y z
#
# Youngs Moduli (GPa) = 122.73601 71.48280 81.54361
#
# Poissons Ratio (x) = 0.20353 0.08275
# Poissons Ratio (y) = 0.34946 0.14526
# Poissons Ratio (z) = 0.12455 0.12734
#
# Static dielectric constant tensor:
#      x y z
#    x 2.216850 0.024910 0.191400 
#    y 0.024910 1.973080 0.021390 
#    z 0.191400 0.021390 2.114640 
# 
# From -- ./inp_files/587814.got.cif
#   From: 2010.05.17/outbox.cif.g08.bks.cpg/sg2_294_cif.got.tgz:587814.got - 2010.06.03 11:33:40.
