data_PCOD9001990
_publ_section_title
;
Structure prediction by ZEFSAII (Michael W. Deem and Ramdas Pophale) SiO2 
 PCOD9001990
Probable space group: P -1
;
_chemical_formula_sum "Si O2"
_cell_formula_units_Z 16
_cell_length_a 27.979139
_cell_length_b 11.392782
_cell_length_c 6.887612
_cell_angle_alpha 142.629619
_cell_angle_beta 38.189648
_cell_angle_gamma 151.606708
_cell_volume 604.310761
_symmetry_space_group_name_H-M "P -1"
_symmetry_group_IT_number 2
_symmetry_cell_setting 'triclinic'
loop_
_space_group_symop_operation_xyz
x,y,z
-x,-y,-z
loop_
_atom_site_type_symbol
_atom_site_label
_atom_site_fract_x
_atom_site_fract_y
_atom_site_fract_z
Si Si1 0.534465 0.240393 0.337726
Si Si2 0.972687 0.572722 0.877617
Si Si3 0.186172 0.085800 0.915181
Si Si4 0.624565 0.985749 0.126533
Si Si5 0.754767 0.453793 0.838291
Si Si6 0.371413 0.133400 0.485877
Si Si7 0.183283 0.405583 0.759184
Si Si8 0.206724 0.017914 0.301837
O O1 0.658702 0.428699 0.188680
O O2 0.480221 0.326144 0.509962
O O3 0.480253 0.140915 0.588681
O O4 0.500000 0.000000 0.000000
O O5 0.880169 0.285765 0.886880
O O6 0.000000 0.500000 0.500000
O O7 0.078627 0.804361 0.958227
O O8 0.919554 0.683035 0.127585
O O9 0.184401 0.027376 0.613154
O O10 0.191315 0.327056 0.210859
O O11 0.293647 0.181192 0.782664
O O12 0.711779 0.304485 0.267314
O O13 0.679855 0.893965 0.931431
O O14 0.607740 0.908847 0.853653
O O15 0.826551 0.545298 0.916942
O O16 0.700153 0.159755 0.574657
O O17 0.196196 0.197541 0.452284
#
# Coordination Sequence:
#
# PCOD9001990 Si02
#       8
#     2   2   2   2   2   2   2   2
#     4  10  21  36  56  81 107 143 185 221 268 324
#     4   9  16  26  48  81 112 141 179 224 269 322
#     4   9  17  30  49  77 109 141 180 221 264 319
#     4   9  18  36  55  76 112 143 177 225 266 318
#     4   9  18  31  47  74 107 138 181 220 258 321
#     4   9  19  35  53  76 110 145 176 222 270 309
#     4   9  17  30  51  77 109 145 177 221 273 317
#     4   8  16  30  49  78 107 140 182 217 267 328
#
# _framework density 26.476441999999999
#
# number of rings (size 3 to 8) (size 9 to 14) (size 15 to 20)
#    0.000    3.000    0.000    2.250    0.000   10.500 
#    0.000   10.625    0.000    3.000    0.000   15.750 
#    0.000    0.000    0.000    0.000    0.000    0.500 
#
# Total GULP energy -89592.971242 kJ/mol
# GULP energy per Si atom -5599.560703 kJ/mol
# Density = 2.641618 g / cm^3
# Si number density = 26.476442 Si / 1000 Ang^3
#
#
#
# Elastic Constant Matrix: (Units=GPa)
#
#
# Indices 1 2 3 4 5 6 
#
# 1 126.0644 19.7267 36.2551 -9.5041 -20.8971 -9.3754
# 2 19.7267 70.2663 19.4040 7.0834 -12.4991 0.8402
# 3 36.2551 19.4040 86.4239 -8.2574 -3.1131 -12.0143
# 4 -9.5041 7.0834 -8.2574 44.9835 -7.2278 -9.2145
# 5 -20.8971 -12.4991 -3.1131 -7.2278 40.8187 10.9069
# 6 -9.3754 0.8402 -12.0143 -9.2145 10.9069 32.2506
#
#
#
# Elastic Compliance Matrix: (Units=1/GPa)
#
#
# Indices 1 2 3 4 5 6 
#
# 1 0.010187 -0.001345 -0.003422 0.002683 0.004785 0.000870
# 2 -0.001345 0.017115 -0.004212 -0.004032 0.004912 -0.005219
# 3 -0.003422 -0.004212 0.015137 0.003624 -0.003070 0.006828
# 4 0.002683 -0.004032 0.003624 0.026346 0.002717 0.008844
# 5 0.004785 0.004912 -0.003070 0.002717 0.031287 -0.009685
# 6 0.000870 -0.005219 0.006828 0.008844 -0.009685 0.039742
#
#
# Mechanical properties :
#
#
# Convention : Reuss Voigt Hill
#
# Bulk Modulus (GPa) = 40.84813 48.16956 44.50885
# Shear Modulus (GPa) = 30.13273 37.43516 33.78394
#
# Velocity S-wave (km/s) = 3.37723 3.76427 3.57599
# Velocity P-wave (km/s) = 5.53797 6.09310 5.82216
#
# Compressibility (1/GPa) = 0.02448093
#
# Stress axis : x y z
#
# Youngs Moduli (GPa) = 98.16244 58.42843 66.06301
#
# Poissons Ratio (x) = 0.07857 0.22607
# Poissons Ratio (y) = 0.13199 0.27829
# Poissons Ratio (z) = 0.33591 0.24613
#
# Static dielectric constant tensor:
#      x y z
#    x 2.115080 -0.069770 0.019420 
#    y -0.069770 2.063510 0.010370 
#    z 0.019420 0.010370 2.067030 
# 
# From -- ./inp_files/358603.got.cif
#   From: 2010.05.17/outbox.cif.g08.bks.cpg/sg2_180_cif.got.tgz:358603.got - 2010.06.03 11:33:40.
