data_PCOD9001986
_publ_section_title
;
Structure prediction by ZEFSAII (Michael W. Deem and Ramdas Pophale) SiO2 
 PCOD9001986
Probable space group: P -1
;
_chemical_formula_sum "Si O2"
_cell_formula_units_Z 16
_cell_length_a 11.392545
_cell_length_b 9.498683
_cell_length_c 11.813985
_cell_angle_alpha 70.788335
_cell_angle_beta 62.275766
_cell_angle_gamma 44.381847
_cell_volume 791.520868
_symmetry_space_group_name_H-M "P -1"
_symmetry_group_IT_number 2
_symmetry_cell_setting 'triclinic'
loop_
_space_group_symop_operation_xyz
x,y,z
-x,-y,-z
loop_
_atom_site_type_symbol
_atom_site_label
_atom_site_fract_x
_atom_site_fract_y
_atom_site_fract_z
Si Si1 0.547062 0.236832 0.629660
Si Si2 0.359930 0.378237 0.098399
Si Si3 0.667512 0.293616 0.890878
Si Si4 0.625734 0.931767 0.173985
Si Si5 0.288099 0.711885 0.653474
Si Si6 0.894397 0.936657 0.715411
Si Si7 0.186344 0.919837 0.887858
Si Si8 0.148731 0.337213 0.063312
O O1 0.433252 0.170873 0.706079
O O2 0.418485 0.469167 0.669764
O O3 0.603120 0.246648 0.476708
O O4 0.735675 0.071796 0.657364
O O5 0.324309 0.536020 0.161713
O O6 0.185859 0.447113 0.098729
O O7 0.454544 0.166235 0.169553
O O8 0.480294 0.349590 0.946163
O O9 0.820896 0.103164 0.801005
O O10 0.686086 0.242206 0.029245
O O11 0.774144 0.932083 0.161189
O O12 0.688938 0.833835 0.046533
O O13 0.230626 0.818118 0.773371
O O14 0.104845 0.815132 0.637180
O O15 0.895105 0.771926 0.812261
O O16 0.000000 0.000000 0.000000
O O17 0.000000 0.500000 0.000000
#
# Coordination Sequence:
#
# PCOD9001986 Si02
#       8
#     2   2   2   2   2   2   2   2
#     4  11  26  45  68  91 131 182 220 264 318 392
#     4  10  21  36  55  92 131 164 208 251 326 397
#     4  10  22  34  64  94 124 168 201 264 332 384
#     4  11  22  39  61  91 128 170 211 262 333 380
#     4  11  26  45  66  96 128 174 228 268 316 390
#     4  12  22  43  67  94 132 169 216 268 330 384
#     4  11  22  40  64  96 131 161 211 272 329 379
#     4  12  23  34  60  99 133 161 205 275 327 384
#
# _framework density 20.214248000000001
#
# number of rings (size 3 to 8) (size 9 to 14) (size 15 to 20)
#    0.000    1.000    5.000    2.250   10.500    0.500 
#    0.000    0.000    0.000    0.750    0.000    0.000 
#    0.000    0.000    0.000    0.000    0.000    0.000 
#
# Total GULP energy -89207.307726 kJ/mol
# GULP energy per Si atom -5575.456733 kJ/mol
# Density = 2.016824 g / cm^3
# Si number density = 20.214248 Si / 1000 Ang^3
#
#
#
# Elastic Constant Matrix: (Units=GPa)
#
#
# Indices 1 2 3 4 5 6 
#
# 1 92.8169 31.5962 36.4521 -10.7310 -16.5706 8.8981
# 2 31.5962 66.5722 34.5924 -21.4090 -2.1564 11.5208
# 3 36.4521 34.5924 107.5934 -8.0911 -20.4483 15.6971
# 4 -10.7310 -21.4090 -8.0911 31.4505 5.5889 -2.2342
# 5 -16.5706 -2.1564 -20.4483 5.5889 32.8380 -7.6725
# 6 8.8981 11.5208 15.6971 -2.2342 -7.6725 28.5421
#
#
#
# Elastic Compliance Matrix: (Units=1/GPa)
#
#
# Indices 1 2 3 4 5 6 
#
# 1 0.014521 -0.005949 -0.002005 -0.000625 0.005916 0.000518
# 2 -0.005949 0.027174 -0.006307 0.016040 -0.009497 -0.006943
# 3 -0.002005 -0.006307 0.013465 -0.002916 0.006842 -0.002623
# 4 -0.000625 0.016040 -0.002916 0.043135 -0.009308 -0.003801
# 5 0.005916 -0.009497 0.006842 -0.009308 0.040626 0.008418
# 6 0.000518 -0.006943 -0.002623 -0.003801 0.008418 0.041085
#
#
# Mechanical properties :
#
#
# Convention : Reuss Voigt Hill
#
# Bulk Modulus (GPa) = 37.54110 52.47377 45.00743
# Shear Modulus (GPa) = 22.99823 29.52224 26.26023
#
# Velocity S-wave (km/s) = 3.37668 3.82575 3.60821
# Velocity P-wave (km/s) = 5.81502 6.74762 6.29860
#
# Compressibility (1/GPa) = 0.02663748
#
# Stress axis : x y z
#
# Youngs Moduli (GPa) = 68.86749 36.79944 74.26513
#
# Poissons Ratio (x) = 0.21892 0.14892
# Poissons Ratio (y) = 0.40969 0.46840
# Poissons Ratio (z) = 0.13810 0.23210
#
# Static dielectric constant tensor:
#      x y z
#    x 1.827790 -0.212570 -0.010530 
#    y -0.212570 1.613170 0.046960 
#    z -0.010530 0.046960 1.703940 
# 
# From -- ./inp_files/419297.got.cif
#   From: 2010.05.17/outbox.cif.g08.bks.cpg/sg2_210_cif.got.tgz:419297.got - 2010.06.03 11:33:40.
