data_PCOD9001520
_publ_section_title
;
Structure prediction by ZEFSAII (Michael W. Deem and Ramdas Pophale) SiO2 
 PCOD9001520
Probable space group: P -1
;
_chemical_formula_sum "Si O2"
_cell_formula_units_Z 16
_cell_length_a 20.065609
_cell_length_b 11.584443
_cell_length_c 14.556107
_cell_angle_alpha 127.064263
_cell_angle_beta 150.038502
_cell_angle_gamma 32.112021
_cell_volume 781.080354
_symmetry_space_group_name_H-M "P -1"
_symmetry_group_IT_number 2
_symmetry_cell_setting 'triclinic'
loop_
_space_group_symop_operation_xyz
x,y,z
-x,-y,-z
loop_
_atom_site_type_symbol
_atom_site_label
_atom_site_fract_x
_atom_site_fract_y
_atom_site_fract_z
Si Si1 0.881300 0.101374 0.257701
Si Si2 0.455740 0.513282 0.806000
Si Si3 0.371342 0.346482 0.973959
Si Si4 0.230715 0.403948 0.487527
Si Si5 0.379587 0.152039 0.267477
Si Si6 0.470648 0.064888 0.121194
Si Si7 0.989381 0.703641 0.532551
Si Si8 0.047605 0.638929 0.202583
O O1 0.755342 0.229644 0.266149
O O2 0.035741 0.104896 0.427612
O O3 0.669895 0.298487 0.027781
O O4 0.015242 0.835758 0.276345
O O5 0.371068 0.426982 0.639909
O O6 0.539467 0.568234 0.866021
O O7 0.148343 0.550530 0.739446
O O8 0.551627 0.084268 0.006660
O O9 0.338240 0.289236 0.001648
O O10 0.125420 0.518709 0.518361
O O11 0.043927 0.560673 0.259127
O O12 0.400811 0.117901 0.554600
O O13 0.431367 0.128539 0.210969
O O14 0.280913 0.380745 0.308480
O O15 0.166910 0.226446 0.049422
O O16 0.741439 0.855666 0.324617
#
# Coordination Sequence:
#
# PCOD9001520 Si02
#       8
#     2   2   2   2   2   2   2   2
#     4   9  18  35  58  87 116 149 186 239 295 331
#     4   9  18  35  60  86 120 140 183 253 291 329
#     4  10  21  35  57  87 119 151 181 237 293 339
#     4  11  22  36  64  89 116 146 193 245 292 335
#     4  11  24  43  55  85 120 154 196 239 274 344
#     4  11  23  36  59  83 121 154 193 223 292 352
#     4  10  22  35  59  92 118 146 184 244 293 344
#     4  11  24  38  63  83 114 158 196 234 287 338
#
# _framework density 20.484448
#
# number of rings (size 3 to 8) (size 9 to 14) (size 15 to 20)
#    0.000    1.750    2.500    2.250    7.000    1.000 
#    0.000    0.625    0.000    1.500    0.000    0.000 
#    0.000    0.000    0.000    0.000    0.000    0.000 
#
# Total GULP energy -89382.811474 kJ/mol
# GULP energy per Si atom -5586.425717 kJ/mol
# Density = 2.043782 g / cm^3
# Si number density = 20.484448 Si / 1000 Ang^3
#
#
#
# Elastic Constant Matrix: (Units=GPa)
#
#
# Indices 1 2 3 4 5 6 
#
# 1 71.5495 46.4648 5.9652 -2.1109 -2.2190 10.6578
# 2 46.4648 151.9125 9.6577 -16.2419 -2.1472 2.3956
# 3 5.9652 9.6577 49.3897 -13.9701 -0.3331 9.4567
# 4 -2.1109 -16.2419 -13.9701 22.2733 6.7940 -5.8441
# 5 -2.2190 -2.1472 -0.3331 6.7940 26.9198 -2.1457
# 6 10.6578 2.3956 9.4567 -5.8441 -2.1457 28.8664
#
#
#
# Elastic Compliance Matrix: (Units=1/GPa)
#
#
# Indices 1 2 3 4 5 6 
#
# 1 0.019119 -0.006274 -0.001443 -0.006171 0.002044 -0.007163
# 2 -0.006274 0.009221 0.000581 0.007685 -0.001490 0.002806
# 3 -0.001443 0.000581 0.025914 0.016555 -0.004327 -0.004975
# 4 -0.006171 0.007685 0.016555 0.067466 -0.016026 0.008685
# 5 0.002044 -0.001490 -0.004327 -0.016026 0.041236 0.000607
# 6 -0.007163 0.002806 -0.004975 0.008685 0.000607 0.040488
#
#
# Mechanical properties :
#
#
# Convention : Reuss Voigt Hill
#
# Bulk Modulus (GPa) = 25.01061 44.11412 34.56237
# Shear Modulus (GPa) = 21.64092 29.66283 25.65188
#
# Velocity S-wave (km/s) = 3.25384 3.80947 3.54257
# Velocity P-wave (km/s) = 5.13349 6.39778 5.80019
#
# Compressibility (1/GPa) = 0.03998304
#
# Stress axis : x y z
#
# Youngs Moduli (GPa) = 52.30263 108.44594 38.58954
#
# Poissons Ratio (x) = 0.68041 0.05567
# Poissons Ratio (y) = 0.32816 -0.02242
# Poissons Ratio (z) = 0.07545 -0.06301
#
# Static dielectric constant tensor:
#      x y z
#    x 1.744220 0.019270 -0.008810 
#    y 0.019270 1.718190 0.006180 
#    z -0.008810 0.006180 1.801880 
# 
# From -- ./inp_files/423430.got.cif
#   From: 2010.05.17/outbox.cif.g08.bks.cpg/sg2_212_cif.got.tgz:423430.got - 2010.06.03 11:33:40.
