data_PCOD9001240
_publ_section_title
;
Structure prediction by ZEFSAII (Michael W. Deem and Ramdas Pophale) SiO2 
 PCOD9001240
Probable space group: P -1
;
_chemical_formula_sum "Si O2"
_cell_formula_units_Z 16
_cell_length_a 5.210756
_cell_length_b 17.527363
_cell_length_c 7.878998
_cell_angle_alpha 110.888897
_cell_angle_beta 87.931171
_cell_angle_gamma 93.200545
_cell_volume 671.149091
_symmetry_space_group_name_H-M "P -1"
_symmetry_group_IT_number 2
_symmetry_cell_setting 'triclinic'
loop_
_space_group_symop_operation_xyz
x,y,z
-x,-y,-z
loop_
_atom_site_type_symbol
_atom_site_label
_atom_site_fract_x
_atom_site_fract_y
_atom_site_fract_z
Si Si1 0.384759 0.365570 0.876222
Si Si2 0.668210 0.234766 0.634580
Si Si3 0.535502 0.962953 0.281314
Si Si4 0.102366 0.222519 0.196034
Si Si5 0.984263 0.640237 0.442865
Si Si6 0.023698 0.852353 0.193306
Si Si7 0.187210 0.501565 0.159779
Si Si8 0.570852 0.134839 0.262533
O O1 0.528270 0.281634 0.825069
O O2 0.180939 0.349724 0.717284
O O3 0.580583 0.435568 0.849074
O O4 0.280145 0.409317 0.081242
O O5 0.908454 0.188494 0.662917
O O6 0.501034 0.170986 0.478889
O O7 0.755181 0.306334 0.560000
O O8 0.285101 0.906637 0.193226
O O9 0.787809 0.910726 0.240765
O O10 0.500000 0.000000 0.500000
O O11 0.565923 0.038285 0.210324
O O12 0.128032 0.310855 0.358058
O O13 0.358146 0.172557 0.178210
O O14 0.858357 0.170035 0.241304
O O15 0.031824 0.219595 0.997813
O O16 0.051338 0.544793 0.355407
O O17 0.000000 0.500000 0.000000
#
# Coordination Sequence:
#
# PCOD9001240 Si02
#       8
#     2   2   2   2   2   2   2   2
#     4   9  15  30  53  84 115 151 193 244 285 338
#     4  10  21  34  58  86 114 158 200 245 293 355
#     4  12  26  43  65  89 115 157 204 258 304 354
#     4  11  24  41  60  91 122 158 199 249 303 358
#     4   9  18  32  56  83 117 157 195 239 293 350
#     4  12  27  41  62  90 122 156 201 253 307 358
#     4   8  15  27  50  87 118 143 193 245 283 334
#     4  11  23  41  65  82 117 159 204 248 301 364
#
# _framework density 23.839714000000001
#
# number of rings (size 3 to 8) (size 9 to 14) (size 15 to 20)
#    0.000    1.750    2.500    1.875    5.250    3.000 
#    0.000    0.000    0.000    0.750    0.000   29.750 
#    0.000    0.000    0.000    0.000    0.000    0.000 
#
# Total GULP energy -89300.040875 kJ/mol
# GULP energy per Si atom -5581.252555 kJ/mol
# Density = 2.378545 g / cm^3
# Si number density = 23.839714 Si / 1000 Ang^3
#
#
#
# Elastic Constant Matrix: (Units=GPa)
#
#
# Indices 1 2 3 4 5 6 
#
# 1 101.8872 20.8233 15.6436 14.0856 3.0177 -13.1599
# 2 20.8233 36.0648 30.0607 11.2478 -6.1995 -7.6268
# 3 15.6436 30.0607 113.0666 16.5100 9.5761 -16.7676
# 4 14.0856 11.2478 16.5100 32.8157 -5.1495 -4.2782
# 5 3.0177 -6.1995 9.5761 -5.1495 34.7813 10.4708
# 6 -13.1599 -7.6268 -16.7676 -4.2782 10.4708 39.0219
#
#
#
# Elastic Compliance Matrix: (Units=1/GPa)
#
#
# Indices 1 2 3 4 5 6 
#
# 1 0.012266 -0.007329 0.001868 -0.003873 -0.004772 0.004363
# 2 -0.007329 0.044537 -0.011469 -0.004817 0.011732 -0.002372
# 3 0.001868 -0.011469 0.013920 -0.004410 -0.008553 0.006181
# 4 -0.003873 -0.004817 -0.004410 0.036811 0.006716 -0.001909
# 5 -0.004772 0.011732 -0.008553 0.006716 0.038385 -0.012555
# 6 0.004363 -0.002372 0.006181 -0.001909 -0.012555 0.032450
#
#
# Mechanical properties :
#
#
# Convention : Reuss Voigt Hill
#
# Bulk Modulus (GPa) = 27.12728 42.67488 34.90108
# Shear Modulus (GPa) = 22.27014 33.62317 27.94665
#
# Velocity S-wave (km/s) = 3.05972 3.75958 3.42756
# Velocity P-wave (km/s) = 4.88736 6.06511 5.50780
#
# Compressibility (1/GPa) = 0.03686327
#
# Stress axis : x y z
#
# Youngs Moduli (GPa) = 81.52567 22.45339 71.83866
#
# Poissons Ratio (x) = 0.16456 -0.13420
# Poissons Ratio (y) = 0.59752 0.82390
# Poissons Ratio (z) = -0.15230 0.25751
#
# Static dielectric constant tensor:
#      x y z
#    x 1.979230 0.020210 -0.068320 
#    y 0.020210 1.894710 0.062240 
#    z -0.068320 0.062240 1.995580 
# 
# From -- ./inp_files/44767.got.cif
#   From: 2010.05.17/outbox.cif.g08.bks.cpg/sg2_23_cif.got.tgz:44767.got - 2010.06.03 11:33:40.
