data_PCOD9001720
_publ_section_title
;
Structure prediction by ZEFSAII (Michael W. Deem and Ramdas Pophale) SiO2 
 PCOD9001720
Probable space group: P -1
;
_chemical_formula_sum "Si O2"
_cell_formula_units_Z 14
_cell_length_a 5.102048
_cell_length_b 13.667507
_cell_length_c 7.900051
_cell_angle_alpha 92.606434
_cell_angle_beta 99.373081
_cell_angle_gamma 89.579263
_cell_volume 542.971210
_symmetry_space_group_name_H-M "P -1"
_symmetry_group_IT_number 2
_symmetry_cell_setting 'triclinic'
loop_
_space_group_symop_operation_xyz
x,y,z
-x,-y,-z
loop_
_atom_site_type_symbol
_atom_site_label
_atom_site_fract_x
_atom_site_fract_y
_atom_site_fract_z
Si Si1 0.452013 0.263713 0.872559
Si Si2 0.001236 0.867041 0.648042
Si Si3 0.271104 0.033110 0.112871
Si Si4 0.912795 0.581947 0.752751
Si Si5 0.941795 0.368635 0.834064
Si Si6 0.675479 0.928796 0.310157
Si Si7 0.398065 0.691363 0.718542
O O1 0.720711 0.283823 0.798580
O O2 0.328257 0.155845 0.839195
O O3 0.223714 0.335712 0.789958
O O4 0.532270 0.286003 0.075381
O O5 0.225345 0.784599 0.649109
O O6 0.793493 0.871248 0.475525
O O7 0.160936 0.970293 0.678233
O O8 0.819119 0.865543 0.799339
O O9 0.372385 0.967389 0.278842
O O10 0.500000 0.000000 0.000000
O O11 0.000000 0.000000 0.000000
O O12 0.840415 0.468174 0.747628
O O13 0.673060 0.650756 0.670310
O O14 0.182149 0.603954 0.683489
O O15 0.988910 0.609813 0.958676
#
# Coordination Sequence:
#
# PCOD9001720 Si02
#       7
#     2   2   2   2   2   2   2
#     4  10  21  35  61  94 124 167 220 268 322 383
#     4  11  26  46  66  95 139 182 222 268 331 398
#     4  12  25  44  69  94 125 168 224 279 322 377
#     4   9  18  35  60  92 125 162 209 273 333 380
#     4   9  18  35  59  91 127 160 210 273 331 384
#     4  11  26  45  66  96 138 184 220 268 333 395
#     4  10  21  36  63  94 125 166 221 269 320 386
#
# _framework density 25.784054999999999
#
# number of rings (size 3 to 8) (size 9 to 14) (size 15 to 20)
#    0.000    1.714    1.429    2.143    4.000    5.714 
#    0.000    0.000    0.000    5.143    0.000    0.000 
#    0.000    0.000    0.000    0.000    0.000    0.000 
#
# Total GULP energy -78189.892830 kJ/mol
# GULP energy per Si atom -5584.992345 kJ/mol
# Density = 2.572537 g / cm^3
# Si number density = 25.784055 Si / 1000 Ang^3
#
#
#
# Elastic Constant Matrix: (Units=GPa)
#
#
# Indices 1 2 3 4 5 6 
#
# 1 162.9187 43.0000 35.0699 -18.6312 26.3152 -19.2675
# 2 43.0000 117.9592 3.8528 -24.2630 11.7003 -15.0160
# 3 35.0699 3.8528 47.9952 -13.0850 14.1597 -11.2919
# 4 -18.6312 -24.2630 -13.0850 13.9974 -8.1925 13.3340
# 5 26.3152 11.7003 14.1597 -8.1925 26.7146 -12.0739
# 6 -19.2675 -15.0160 -11.2919 13.3340 -12.0739 51.2022
#
#
#
# Elastic Compliance Matrix: (Units=1/GPa)
#
#
# Indices 1 2 3 4 5 6 
#
# 1 0.008594 -0.002602 -0.004749 -0.000813 -0.004833 0.000495
# 2 -0.002602 0.016455 0.010082 0.038152 -0.000038 -0.003875
# 3 -0.004749 0.010082 0.037088 0.045578 -0.007339 -0.004252
# 4 -0.000813 0.038152 0.045578 0.217280 0.011700 -0.032890
# 5 -0.004833 -0.000038 -0.007339 0.011700 0.052330 0.005844
# 6 0.000495 -0.003875 -0.004252 -0.032890 0.005844 0.027586
#
#
# Mechanical properties :
#
#
# Convention : Reuss Voigt Hill
#
# Bulk Modulus (GPa) = 14.79374 54.74649 34.77011
# Shear Modulus (GPa) = 13.28360 34.84619 24.06490
#
# Velocity S-wave (km/s) = 2.27224 3.68021 3.05835
# Velocity P-wave (km/s) = 3.55444 6.27195 5.09762
#
# Compressibility (1/GPa) = 0.06759616
#
# Stress axis : x y z
#
# Youngs Moduli (GPa) = 116.36631 60.77200 26.96322
#
# Poissons Ratio (x) = 0.15814 0.12806
# Poissons Ratio (y) = 0.30281 -0.27184
# Poissons Ratio (z) = 0.55268 -0.61269
#
# Static dielectric constant tensor:
#      x y z
#    x 1.989180 0.039500 -0.070880 
#    y 0.039500 2.054950 -0.049170 
#    z -0.070880 -0.049170 2.199800 
# 
# From -- ./inp_files/132437.got.cif
#   From: 2010.05.17/outbox.cif.g08.bks.cpg/sg2_67_cif.got.tgz:132437.got - 2010.06.03 11:33:40.
