data_PCOD9001080
_publ_section_title
;
Structure prediction by ZEFSAII (Michael W. Deem and Ramdas Pophale) SiO2 
 PCOD9001080
Probable space group: P -1
;
_chemical_formula_sum "Si O2"
_cell_formula_units_Z 14
_cell_length_a 11.506603
_cell_length_b 7.499755
_cell_length_c 8.611233
_cell_angle_alpha 81.937661
_cell_angle_beta 71.576480
_cell_angle_gamma 59.162626
_cell_volume 605.143922
_symmetry_space_group_name_H-M "P -1"
_symmetry_group_IT_number 2
_symmetry_cell_setting 'triclinic'
loop_
_space_group_symop_operation_xyz
x,y,z
-x,-y,-z
loop_
_atom_site_type_symbol
_atom_site_label
_atom_site_fract_x
_atom_site_fract_y
_atom_site_fract_z
Si Si1 0.146971 0.415159 0.816490
Si Si2 0.775068 0.786221 0.506931
Si Si3 0.699016 0.978375 0.003210
Si Si4 0.878233 0.016245 0.245884
Si Si5 0.606476 0.722556 0.847161
Si Si6 0.822034 0.321464 0.962624
Si Si7 0.943549 0.797876 0.718314
O O1 0.194815 0.379829 0.620712
O O2 0.211839 0.182678 0.879102
O O3 0.984986 0.597532 0.835908
O O4 0.195762 0.526869 0.904832
O O5 0.651943 0.791993 0.661991
O O6 0.901707 0.743179 0.579039
O O7 0.766505 0.983675 0.396833
O O8 0.560373 0.188632 0.085387
O O9 0.641546 0.846419 0.947330
O O10 0.803799 0.988219 0.830585
O O11 0.937198 0.138420 0.314556
O O12 0.823186 0.139990 0.090858
O O13 0.022749 0.798030 0.169862
O O14 0.704615 0.477522 0.872190
#
# Coordination Sequence:
#
# PCOD9001080 Si02
#       7
#     2   2   2   2   2   2   2
#     4  10  21  33  61  90 115 146 195 248 289 333
#     4  11  23  34  61  91 123 143 189 253 297 333
#     4   9  19  36  62  82 114 155 204 236 273 349
#     4  10  22  36  60  88 122 151 190 241 297 344
#     4   9  20  39  59  86 113 156 201 236 281 343
#     4   9  21  39  59  85 116 159 196 230 289 354
#     4  10  21  37  57  90 116 156 190 240 292 349
#
# _framework density 23.134993999999999
#
# number of rings (size 3 to 8) (size 9 to 14) (size 15 to 20)
#    0.000    2.286    0.000    1.286   14.000    0.571 
#    0.000    0.714    0.000   21.429    0.000    0.000 
#    0.000    0.000    0.000    0.000    0.000    0.000 
#
# Total GULP energy -77953.659646 kJ/mol
# GULP energy per Si atom -5568.118546 kJ/mol
# Density = 2.308234 g / cm^3
# Si number density = 23.134994 Si / 1000 Ang^3
#
#
#
# Elastic Constant Matrix: (Units=GPa)
#
#
# Indices 1 2 3 4 5 6 
#
# 1 50.7408 18.8398 28.3475 5.4176 -7.5162 4.9705
# 2 18.8398 127.8395 46.1949 0.8685 -26.2203 0.6735
# 3 28.3475 46.1949 118.8535 -0.8680 -1.3683 -9.3973
# 4 5.4176 0.8685 -0.8680 26.3514 9.1908 -2.1662
# 5 -7.5162 -26.2203 -1.3683 9.1908 38.8265 5.1357
# 6 4.9705 0.6735 -9.3973 -2.1662 5.1357 40.7608
#
#
#
# Elastic Compliance Matrix: (Units=1/GPa)
#
#
# Indices 1 2 3 4 5 6 
#
# 1 0.026148 0.000352 -0.006841 -0.008916 0.007996 -0.006253
# 2 0.000352 0.011273 -0.004598 -0.003871 0.008779 -0.002601
# 3 -0.006841 -0.004598 0.012167 0.004307 -0.005636 0.004654
# 4 -0.008916 -0.003871 0.004307 0.046173 -0.015993 0.006613
# 5 0.007996 0.008779 -0.005636 -0.015993 0.037883 -0.008043
# 6 -0.006253 -0.002601 0.004654 0.006613 -0.008043 0.027777
#
#
# Mechanical properties :
#
#
# Convention : Reuss Voigt Hill
#
# Bulk Modulus (GPa) = 36.47805 53.79979 45.13892
# Shear Modulus (GPa) = 25.94279 34.79118 30.36698
#
# Velocity S-wave (km/s) = 3.35231 3.88214 3.62691
# Velocity P-wave (km/s) = 5.54849 6.58786 6.09038
#
# Compressibility (1/GPa) = 0.02741375
#
# Stress axis : x y z
#
# Youngs Moduli (GPa) = 38.24398 88.71056 82.18946
#
# Poissons Ratio (x) = -0.03122 0.56223
# Poissons Ratio (y) = -0.01346 0.37792
# Poissons Ratio (z) = 0.26162 0.40790
#
# Static dielectric constant tensor:
#      x y z
#    x 2.019510 0.079340 0.028440 
#    y 0.079340 1.949810 -0.019430 
#    z 0.028440 -0.019430 1.908330 
# 
# From -- ./inp_files/238288.got.cif
#   From: 2010.05.17/outbox.cif.g08.bks.cpg/sg2_120_cif.got.tgz:238288.got - 2010.06.03 11:33:40.
