data_PCOD9001403
_publ_section_title
;
Structure prediction by ZEFSAII (Michael W. Deem and Ramdas Pophale) SiO2 
 PCOD9001403
Probable space group: P -1
;
_chemical_formula_sum "Si O2"
_cell_formula_units_Z 12
_cell_length_a 9.417537
_cell_length_b 8.850210
_cell_length_c 14.601785
_cell_angle_alpha 56.053216
_cell_angle_beta 44.769780
_cell_angle_gamma 49.104047
_cell_volume 637.779135
_symmetry_space_group_name_H-M "P -1"
_symmetry_group_IT_number 2
_symmetry_cell_setting 'triclinic'
loop_
_space_group_symop_operation_xyz
x,y,z
-x,-y,-z
loop_
_atom_site_type_symbol
_atom_site_label
_atom_site_fract_x
_atom_site_fract_y
_atom_site_fract_z
Si Si1 0.751724 0.340189 0.467790
Si Si2 0.956672 0.611397 0.213625
Si Si3 0.835603 0.714745 0.043067
Si Si4 0.626413 0.761037 0.933545
Si Si5 0.884925 0.095306 0.865172
Si Si6 0.130391 0.971190 0.317194
O O1 0.500000 0.500000 0.500000
O O2 0.779591 0.217514 0.590702
O O3 0.884967 0.478630 0.358787
O O4 0.889612 0.153655 0.397094
O O5 0.193854 0.457313 0.111469
O O6 0.979998 0.795580 0.188529
O O7 0.785453 0.687448 0.179963
O O8 0.650647 0.785714 0.023759
O O9 0.000000 0.500000 0.000000
O O10 0.957200 0.862009 0.937477
O O11 0.704848 0.918844 0.797852
O O12 0.374183 0.799998 0.018195
O O13 0.890004 0.099393 0.751565
#
# Coordination Sequence:
#
# PCOD9001403 Si02
#       6
#     2   2   2   2   2   2
#     4  10  22  38  61  78 108 158 196 234 267 341
#     4  10  21  35  54  87 116 140 186 232 286 330
#     4   9  18  33  53  79 110 144 182 220 266 341
#     4   9  19  35  59  82 110 150 180 224 285 343
#     4  11  20  34  58  85 117 142 172 243 294 327
#     4   9  20  39  57  83 111 146 201 228 273 342
#
# _framework density 18.815290999999998
#
# number of rings (size 3 to 8) (size 9 to 14) (size 15 to 20)
#    0.000    2.333    0.000    4.000    4.667    0.667 
#    0.000    0.833    0.000    0.000    0.000    0.000 
#    0.000    0.000    0.000    0.000    0.000    0.000 
#
# Total GULP energy -66864.428522 kJ/mol
# GULP energy per Si atom -5572.035710 kJ/mol
# Density = 1.877247 g / cm^3
# Si number density = 18.815291 Si / 1000 Ang^3
#
#
#
# Elastic Constant Matrix: (Units=GPa)
#
#
# Indices 1 2 3 4 5 6 
#
# 1 43.6595 28.5111 21.7116 -9.7069 -1.3765 3.6980
# 2 28.5111 116.1435 27.5026 -8.5241 -3.1351 -7.4253
# 3 21.7116 27.5026 64.0352 -8.9219 13.4253 -6.6802
# 4 -9.7069 -8.5241 -8.9219 36.6281 -3.9903 -4.7873
# 5 -1.3765 -3.1351 13.4253 -3.9903 26.6251 -5.4598
# 6 3.6980 -7.4253 -6.6802 -4.7873 -5.4598 36.0151
#
#
#
# Elastic Compliance Matrix: (Units=1/GPa)
#
#
# Indices 1 2 3 4 5 6 
#
# 1 0.033183 -0.005589 -0.009861 0.005091 0.005802 -0.004832
# 2 -0.005589 0.011075 -0.003105 0.001088 0.003345 0.002933
# 3 -0.009861 -0.003105 0.023287 0.001460 -0.011763 0.003103
# 4 0.005091 0.001088 0.001460 0.030455 0.005206 0.004810
# 5 0.005802 0.003345 -0.011763 0.005206 0.046111 0.005594
# 6 -0.004832 0.002933 0.003103 0.004810 0.005594 0.030930
#
#
# Mechanical properties :
#
#
# Convention : Reuss Voigt Hill
#
# Bulk Modulus (GPa) = 32.85966 42.14320 37.50143
# Shear Modulus (GPa) = 22.49240 29.59453 26.04347
#
# Velocity S-wave (km/s) = 3.46125 3.97028 3.72447
# Velocity P-wave (km/s) = 5.78584 6.59276 6.20244
#
# Compressibility (1/GPa) = 0.03043245
#
# Stress axis : x y z
#
# Youngs Moduli (GPa) = 30.13617 90.29262 42.94246
#
# Poissons Ratio (x) = 0.50467 0.42348
# Poissons Ratio (y) = 0.16844 0.13336
# Poissons Ratio (z) = 0.29719 0.28040
#
# Static dielectric constant tensor:
#      x y z
#    x 1.659010 -0.047570 0.021110 
#    y -0.047570 1.697230 0.002980 
#    z 0.021110 0.002980 1.666800 
# 
# From -- ./inp_files/160919.got.cif
#   From: 2010.05.17/outbox.cif.g08.bks.cpg/sg2_81_cif.got.tgz:160919.got - 2010.06.03 11:33:40.
