data_PCOD9001382
_publ_section_title
;
Structure prediction by ZEFSAII (Michael W. Deem and Ramdas Pophale) SiO2 
 PCOD9001382
Probable space group: P -1
;
_chemical_formula_sum "Si O2"
_cell_formula_units_Z 16
_cell_length_a 27.739888
_cell_length_b 24.022125
_cell_length_c 17.312255
_cell_angle_alpha 155.776914
_cell_angle_beta 17.204246
_cell_angle_gamma 166.269255
_cell_volume 788.602876
_symmetry_space_group_name_H-M "P -1"
_symmetry_group_IT_number 2
_symmetry_cell_setting 'triclinic'
loop_
_space_group_symop_operation_xyz
x,y,z
-x,-y,-z
loop_
_atom_site_type_symbol
_atom_site_label
_atom_site_fract_x
_atom_site_fract_y
_atom_site_fract_z
Si Si1 0.958713 0.390954 0.321661
Si Si2 0.280769 0.181511 0.032377
Si Si3 0.757325 0.667569 0.140277
Si Si4 0.981770 0.207675 0.431103
Si Si5 0.567118 0.120870 0.440482
Si Si6 0.623114 0.361333 0.362422
Si Si7 0.145590 0.568077 0.741773
Si Si8 0.853422 0.627846 0.787442
O O1 0.854112 0.291514 0.268172
O O2 0.989384 0.571655 0.516566
O O3 0.680368 0.150495 0.493943
O O4 0.226364 0.478098 0.043737
O O5 0.463327 0.197358 0.724822
O O6 0.503226 0.369638 0.997507
O O7 0.201091 0.257709 0.201812
O O8 0.975372 0.897104 0.154363
O O9 0.472146 0.558769 0.425157
O O10 0.913194 0.769256 0.945548
O O11 0.017602 0.376536 0.631830
O O12 0.054637 0.258276 0.293034
O O13 0.660059 0.927704 0.579614
O O14 0.635626 0.183101 0.324572
O O15 0.704197 0.411904 0.393213
O O16 0.891417 0.481499 0.058768
#
# Coordination Sequence:
#
# PCOD9001382 Si02
#       8
#     2   2   2   2   2   2   2   2
#     4   9  18  35  52  86 108 142 177 225 271 323
#     4   9  19  32  50  85 111 139 170 224 279 322
#     4  10  21  35  54  81 117 136 184 225 265 328
#     4  11  21  33  58  85 110 139 184 222 275 327
#     4   9  18  33  60  76 112 144 180 217 277 321
#     4  10  25  37  56  83 107 149 185 220 271 318
#     4  11  21  41  57  76 113 148 181 226 268 325
#     4  11  20  31  57  85 111 146 170 221 289 315
#
# _framework density 20.289045999999999
#
# number of rings (size 3 to 8) (size 9 to 14) (size 15 to 20)
#    0.000    2.000    2.500    2.625    5.250    1.000 
#    0.000    0.625    0.000    0.750    0.000    0.000 
#    0.000    0.000    0.000    0.000    0.000    0.000 
#
# Total GULP energy -89239.869988 kJ/mol
# GULP energy per Si atom -5577.491874 kJ/mol
# Density = 2.024287 g / cm^3
# Si number density = 20.289046 Si / 1000 Ang^3
#
#
#
# Elastic Constant Matrix: (Units=GPa)
#
#
# Indices 1 2 3 4 5 6 
#
# 1 74.6016 -0.4965 25.1286 1.3863 -25.2365 6.3644
# 2 -0.4965 36.2997 -0.2664 3.1092 -5.4879 3.0082
# 3 25.1286 -0.2664 63.1490 5.1891 -37.2486 -7.6520
# 4 1.3863 3.1092 5.1891 19.8143 0.4070 -5.5076
# 5 -25.2365 -5.4879 -37.2486 0.4070 37.6649 2.6022
# 6 6.3644 3.0082 -7.6520 -5.5076 2.6022 32.8816
#
#
#
# Elastic Compliance Matrix: (Units=1/GPa)
#
#
# Indices 1 2 3 4 5 6 
#
# 1 0.018425 0.003052 0.000258 -0.003629 0.013462 -0.005459
# 2 0.003052 0.030923 0.007674 -0.008546 0.014524 -0.004215
# 3 0.000258 0.007674 0.043008 -0.012346 0.043700 0.003730
# 4 -0.003629 -0.008546 -0.012346 0.058359 -0.017191 0.009747
# 5 0.013462 0.014524 0.043700 -0.017191 0.081301 -0.003078
# 6 -0.005459 -0.004215 0.003730 0.009747 -0.003078 0.034598
#
#
# Mechanical properties :
#
#
# Convention : Reuss Voigt Hill
#
# Bulk Modulus (GPa) = 8.74689 24.75351 16.75020
# Shear Modulus (GPa) = 17.68324 28.05113 22.86719
#
# Velocity S-wave (km/s) = 2.95543 3.72233 3.36083
# Velocity P-wave (km/s) = 3.99582 5.54087 4.83052
#
# Compressibility (1/GPa) = 0.11432633
#
# Stress axis : x y z
#
# Youngs Moduli (GPa) = 54.27447 32.33788 23.25150
#
# Poissons Ratio (x) = -0.09871 -0.00601
# Poissons Ratio (y) = -0.16566 -0.17844
# Poissons Ratio (z) = -0.01403 -0.24817
#
# Static dielectric constant tensor:
#      x y z
#    x 1.769820 0.020320 -0.039240 
#    y 0.020320 1.783960 -0.001910 
#    z -0.039240 -0.001910 1.698140 
# 
# From -- ./inp_files/317478.got.cif
#   From: 2010.05.17/outbox.cif.g08.bks.cpg/sg2_159_cif.got.tgz:317478.got - 2010.06.03 11:33:40.
