data_PCOD9001232
_publ_section_title
;
Structure prediction by ZEFSAII (Michael W. Deem and Ramdas Pophale) SiO2 
 PCOD9001232
Probable space group: P -1
;
_chemical_formula_sum "Si O2"
_cell_formula_units_Z 14
_cell_length_a 8.792748
_cell_length_b 13.102776
_cell_length_c 7.342733
_cell_angle_alpha 132.808730
_cell_angle_beta 103.489533
_cell_angle_gamma 91.591534
_cell_volume 582.551412
_symmetry_space_group_name_H-M "P -1"
_symmetry_group_IT_number 2
_symmetry_cell_setting 'triclinic'
loop_
_space_group_symop_operation_xyz
x,y,z
-x,-y,-z
loop_
_atom_site_type_symbol
_atom_site_label
_atom_site_fract_x
_atom_site_fract_y
_atom_site_fract_z
Si Si1 0.102974 0.178792 0.434801
Si Si2 0.316743 0.078857 0.656710
Si Si3 0.680358 0.786019 0.802898
Si Si4 0.256288 0.446782 0.011052
Si Si5 0.419002 0.666410 0.048492
Si Si6 0.268409 0.911528 0.773607
Si Si7 0.667148 0.381570 0.432156
O O1 0.198819 0.083378 0.462227
O O2 0.193173 0.228338 0.330115
O O3 0.919461 0.093410 0.253870
O O4 0.115673 0.324350 0.731789
O O5 0.299647 0.934779 0.593670
O O6 0.268866 0.176796 0.927929
O O7 0.499598 0.163730 0.756136
O O8 0.521965 0.654069 0.602247
O O9 0.634244 0.936895 0.924247
O O10 0.415730 0.386748 0.956056
O O11 0.234051 0.486998 0.261238
O O12 0.305599 0.598823 0.101537
O O13 0.326585 0.602914 0.762318
O O14 0.289898 0.766282 0.685578
#
# Coordination Sequence:
#
# PCOD9001232 Si02
#       7
#     2   2   2   2   2   2   2
#     4  11  20  39  57  81 113 149 184 225 263 337
#     4   8  19  34  58  83 105 144 186 226 273 315
#     4   9  20  35  59  80 107 143 188 224 268 323
#     4  10  21  34  58  83 108 147 190 218 272 329
#     4   9  18  36  58  82 108 142 190 233 261 320
#     4  10  22  37  56  84 118 141 179 227 285 328
#     4  11  20  38  56  86 114 141 178 238 277 317
#
# _framework density 24.032212000000001
#
# number of rings (size 3 to 8) (size 9 to 14) (size 15 to 20)
#    0.857    1.429    0.000    4.286    0.000    2.857 
#    2.571    2.143    0.000    0.000    0.000    0.000 
#    0.000    0.000    0.000    0.000    0.000    0.000 
#
# Total GULP energy -78155.460391 kJ/mol
# GULP energy per Si atom -5582.532885 kJ/mol
# Density = 2.397751 g / cm^3
# Si number density = 24.032212 Si / 1000 Ang^3
#
#
#
# Elastic Constant Matrix: (Units=GPa)
#
#
# Indices 1 2 3 4 5 6 
#
# 1 25.0812 10.4357 7.0669 -13.7509 -3.0754 11.0399
# 2 10.4357 84.8943 -3.8693 -7.7768 2.5361 5.1988
# 3 7.0669 -3.8693 63.7251 -1.5232 -3.3301 1.3628
# 4 -13.7509 -7.7768 -1.5232 41.2549 -1.1968 -11.5179
# 5 -3.0754 2.5361 -3.3301 -1.1968 15.2030 -1.5737
# 6 11.0399 5.1988 1.3628 -11.5179 -1.5737 21.4354
#
#
#
# Elastic Compliance Matrix: (Units=1/GPa)
#
#
# Indices 1 2 3 4 5 6 
#
# 1 0.062562 -0.005672 -0.005900 0.013656 0.011074 -0.022320
# 2 -0.005672 0.012674 0.001257 0.000391 -0.002980 -0.000241
# 3 -0.005900 0.001257 0.016497 -0.000630 0.002318 0.001517
# 4 0.013656 0.000391 -0.000630 0.031963 0.006166 0.010540
# 5 0.011074 -0.002980 0.002318 0.006166 0.069850 0.003313
# 6 -0.022320 -0.000241 0.001517 0.010540 0.003313 0.064016
#
#
# Mechanical properties :
#
#
# Convention : Reuss Voigt Hill
#
# Bulk Modulus (GPa) = 14.06427 22.32968 18.19697
# Shear Modulus (GPa) = 16.56225 26.24983 21.40604
#
# Velocity S-wave (km/s) = 2.62805 3.30855 2.98774
# Velocity P-wave (km/s) = 3.88250 4.88948 4.41480
#
# Compressibility (1/GPa) = 0.07110217
#
# Stress axis : x y z
#
# Youngs Moduli (GPa) = 15.98417 78.90446 60.61841
#
# Poissons Ratio (x) = 0.44758 0.35764
# Poissons Ratio (y) = 0.09067 -0.07622
# Poissons Ratio (z) = 0.09430 -0.09921
#
# Static dielectric constant tensor:
#      x y z
#    x 1.902610 -0.055380 -0.042700 
#    y -0.055380 1.992590 0.059850 
#    z -0.042700 0.059850 1.952480 
# 
# From -- ./inp_files/204315.got.cif
#   From: 2010.05.17/outbox.cif.g08.bks.cpg/sg2_103_cif.got.tgz:204315.got - 2010.06.03 11:33:40.
