data_PCOD9001106
_publ_section_title
;
Structure prediction by ZEFSAII (Michael W. Deem and Ramdas Pophale) SiO2 
 PCOD9001106
Probable space group: P -1
;
_chemical_formula_sum "Si O2"
_cell_formula_units_Z 16
_cell_length_a 13.001340
_cell_length_b 6.170691
_cell_length_c 13.172913
_cell_angle_alpha 74.119384
_cell_angle_beta 92.131554
_cell_angle_gamma 48.767465
_cell_volume 729.049550
_symmetry_space_group_name_H-M "P -1"
_symmetry_group_IT_number 2
_symmetry_cell_setting 'triclinic'
loop_
_space_group_symop_operation_xyz
x,y,z
-x,-y,-z
loop_
_atom_site_type_symbol
_atom_site_label
_atom_site_fract_x
_atom_site_fract_y
_atom_site_fract_z
Si Si1 0.180212 0.281394 0.427612
Si Si2 0.365013 0.230013 0.105093
Si Si3 0.064920 0.669052 0.583949
Si Si4 0.339222 0.123590 0.757323
Si Si5 0.250954 0.617337 0.260720
Si Si6 0.331208 0.712309 0.940580
Si Si7 0.466070 0.822902 0.580740
Si Si8 0.152332 0.153745 0.068069
O O1 0.126862 0.450196 0.514049
O O2 0.195614 0.480559 0.333970
O O3 0.062524 0.289026 0.382147
O O4 0.333182 0.925213 0.499903
O O5 0.315880 0.432294 0.179851
O O6 0.275751 0.139333 0.108894
O O7 0.536741 0.953837 0.159373
O O8 0.324348 0.452146 0.980021
O O9 0.195531 0.486163 0.691015
O O10 0.000000 0.000000 0.500000
O O11 0.303957 0.924452 0.820434
O O12 0.406088 0.987098 0.666458
O O13 0.381723 0.522178 0.344494
O O14 0.141554 0.974429 0.175107
O O15 0.500000 0.500000 0.000000
O O16 0.218223 0.960906 0.990226
O O17 0.500000 0.000000 0.500000
O O18 0.000000 0.500000 0.000000
#
# Coordination Sequence:
#
# PCOD9001106 Si02
#       8
#     2   2   2   2   2   2   2   2
#     4   9  19  35  54  77 108 143 179 225 278 328
#     4   9  20  38  57  79 110 144 185 237 281 327
#     4  10  21  34  50  79 112 140 179 228 276 332
#     4   9  18  34  56  79 105 145 189 224 274 337
#     4   9  19  36  58  79 107 147 184 223 280 341
#     4   9  20  39  59  81 112 149 190 233 278 338
#     4   8  15  33  57  79 104 139 185 228 268 327
#     4  11  24  37  55  87 116 144 189 237 285 339
#
# _framework density 21.946383000000001
#
# number of rings (size 3 to 8) (size 9 to 14) (size 15 to 20)
#    0.000    2.750    0.000    0.750    0.000    9.000 
#    0.000    5.000    0.000    9.000    0.000    0.000 
#    0.000    0.000    0.000    0.000    0.000    0.000 
#
# Total GULP energy -89187.672536 kJ/mol
# GULP energy per Si atom -5574.229533 kJ/mol
# Density = 2.189643 g / cm^3
# Si number density = 21.946383 Si / 1000 Ang^3
#
#
#
# Elastic Constant Matrix: (Units=GPa)
#
#
# Indices 1 2 3 4 5 6 
#
# 1 110.3611 25.6306 57.2590 -24.7457 -0.3150 -12.6167
# 2 25.6306 45.6330 40.2041 -11.3074 11.9773 -16.0630
# 3 57.2590 40.2041 141.2932 -33.9475 -10.6564 -15.5833
# 4 -24.7457 -11.3074 -33.9475 44.9211 -12.2541 3.2036
# 5 -0.3150 11.9773 -10.6564 -12.2541 36.2493 -1.6489
# 6 -12.6167 -16.0630 -15.5833 3.2036 -1.6489 23.7265
#
#
#
# Elastic Compliance Matrix: (Units=1/GPa)
#
#
# Indices 1 2 3 4 5 6 
#
# 1 0.012453 -0.003340 -0.002641 0.004422 0.002029 0.002169
# 2 -0.003340 0.045607 -0.012520 -0.006770 -0.020140 0.020392
# 3 -0.002641 -0.012520 0.014927 0.009945 0.011837 -0.000597
# 4 0.004422 -0.006770 0.009945 0.035122 0.017106 0.000747
# 5 0.002029 -0.020140 0.011837 0.017106 0.043336 -0.004080
# 6 0.002169 0.020392 -0.000597 0.000747 -0.004080 0.056329
#
#
# Mechanical properties :
#
#
# Convention : Reuss Voigt Hill
#
# Bulk Modulus (GPa) = 27.79081 60.38609 44.08845
# Shear Modulus (GPa) = 19.47254 32.59228 26.03241
#
# Velocity S-wave (km/s) = 2.98195 3.85786 3.44784
# Velocity P-wave (km/s) = 4.95445 6.88616 5.99857
#
# Compressibility (1/GPa) = 0.03598312
#
# Stress axis : x y z
#
# Youngs Moduli (GPa) = 80.30462 21.92628 66.99368
#
# Poissons Ratio (x) = 0.07324 0.17695
# Poissons Ratio (y) = 0.26825 0.83877
# Poissons Ratio (z) = 0.21211 0.27452
#
# Static dielectric constant tensor:
#      x y z
#    x 1.834250 -0.011710 0.032710 
#    y -0.011710 1.813700 -0.008190 
#    z 0.032710 -0.008190 1.829100 
# 
# From -- ./inp_files/85142.got.cif
#   From: 2010.05.17/outbox.cif.g08.bks.cpg/sg2_43_cif.got.tgz:85142.got - 2010.06.03 11:33:40.
