data_PCOD9001446
_publ_section_title
;
Structure prediction by ZEFSAII (Michael W. Deem and Ramdas Pophale) SiO2 
 PCOD9001446
Probable space group: P -1
;
_chemical_formula_sum "Si O2"
_cell_formula_units_Z 14
_cell_length_a 17.023933
_cell_length_b 11.110961
_cell_length_c 7.938499
_cell_angle_alpha 145.142293
_cell_angle_beta 129.097779
_cell_angle_gamma 41.680589
_cell_volume 570.068992
_symmetry_space_group_name_H-M "P -1"
_symmetry_group_IT_number 2
_symmetry_cell_setting 'triclinic'
loop_
_space_group_symop_operation_xyz
x,y,z
-x,-y,-z
loop_
_atom_site_type_symbol
_atom_site_label
_atom_site_fract_x
_atom_site_fract_y
_atom_site_fract_z
Si Si1 0.126643 0.955131 0.681494
Si Si2 0.692420 0.234699 0.753991
Si Si3 0.914586 0.620407 0.679983
Si Si4 0.294037 0.465893 0.199654
Si Si5 0.336310 0.325962 0.603613
Si Si6 0.869040 0.761897 0.301787
Si Si7 0.532353 0.002074 0.261628
O O1 0.231344 0.670630 0.496054
O O2 0.160544 0.094370 0.748064
O O3 0.000000 0.000000 0.500000
O O4 0.107234 0.112111 0.001198
O O5 0.699836 0.378587 0.768073
O O6 0.592377 0.166473 0.514516
O O7 0.815031 0.973899 0.614917
O O8 0.666294 0.418636 0.083894
O O9 0.793946 0.626507 0.505882
O O10 0.000000 0.500000 0.500000
O O11 0.992975 0.429499 0.714154
O O12 0.200228 0.381932 0.941752
O O13 0.420674 0.209564 0.063325
O O14 0.398860 0.176399 0.346342
O O15 0.406080 0.160904 0.671534
#
# Coordination Sequence:
#
# PCOD9001446 Si02
#       7
#     2   2   2   2   2   2   2
#     4  11  23  40  65  87 122 171 204 234 307 384
#     4   9  17  33  60  85 113 159 204 239 298 364
#     4  12  24  39  59  95 132 151 203 260 301 350
#     4   9  18  36  63  85 109 156 209 243 283 369
#     4  10  21  35  55  88 128 160 196 258 301 357
#     4  10  21  39  61  89 123 165 198 242 308 369
#     4   9  18  37  60  84 120 165 204 242 310 358
#
# _framework density 24.558430999999999
#
# number of rings (size 3 to 8) (size 9 to 14) (size 15 to 20)
#    0.000    2.000    1.429    3.429    2.000    0.571 
#    2.571    0.714    0.000    7.714    0.000    0.000 
#    0.000    0.000    0.000    0.000    0.000    0.000 
#
# Total GULP energy -78290.030345 kJ/mol
# GULP energy per Si atom -5592.145025 kJ/mol
# Density = 2.450253 g / cm^3
# Si number density = 24.558431 Si / 1000 Ang^3
#
#
#
# Elastic Constant Matrix: (Units=GPa)
#
#
# Indices 1 2 3 4 5 6 
#
# 1 122.7058 21.9772 72.6827 16.3297 -24.4920 -17.2384
# 2 21.9772 75.3156 47.3022 34.0380 -8.7330 -27.4977
# 3 72.6827 47.3022 195.1204 33.4237 -23.2121 -17.9063
# 4 16.3297 34.0380 33.4237 39.3790 -0.8695 -11.1965
# 5 -24.4920 -8.7330 -23.2121 -0.8695 44.2959 10.4080
# 6 -17.2384 -27.4977 -17.9063 -11.1965 10.4080 45.5937
#
#
#
# Elastic Compliance Matrix: (Units=1/GPa)
#
#
# Indices 1 2 3 4 5 6 
#
# 1 0.011413 0.000981 -0.003468 -0.001943 0.004150 0.002120
# 2 0.000981 0.027129 -0.002577 -0.018566 0.001642 0.010786
# 3 -0.003468 -0.002577 0.007694 -0.003115 0.001784 -0.001016
# 4 -0.001943 -0.018566 -0.003115 0.044482 -0.005251 -0.001033
# 5 0.004150 0.001642 0.001784 -0.005251 0.027011 -0.004196
# 6 0.002120 0.010786 -0.001016 -0.001033 -0.004196 0.029545
#
#
# Mechanical properties :
#
#
# Convention : Reuss Voigt Hill
#
# Bulk Modulus (GPa) = 27.69445 75.22955 51.46200
# Shear Modulus (GPa) = 29.50953 42.59904 36.05428
#
# Velocity S-wave (km/s) = 3.47018 4.16937 3.83574
# Velocity P-wave (km/s) = 5.23045 7.34014 6.37319
#
# Compressibility (1/GPa) = 0.03610832
#
# Stress axis : x y z
#
# Youngs Moduli (GPa) = 87.62027 36.86153 129.96992
#
# Poissons Ratio (x) = -0.03617 0.45075
# Poissons Ratio (y) = -0.08597 0.33489
# Poissons Ratio (z) = 0.30388 0.09498
#
# Static dielectric constant tensor:
#      x y z
#    x 1.930500 0.052660 -0.101590 
#    y 0.052660 2.035260 0.001400 
#    z -0.101590 0.001400 1.962710 
# 
# From -- ./inp_files/60992.got.cif
#   From: 2010.05.17/outbox.cif.g08.bks.cpg/sg2_31_cif.got.tgz:60992.got - 2010.06.03 11:33:40.
