data_PCOD9001132
_publ_section_title
;
Structure prediction by ZEFSAII (Michael W. Deem and Ramdas Pophale) SiO2 
 PCOD9001132
Probable space group: P -1
;
_chemical_formula_sum "Si O2"
_cell_formula_units_Z 14
_cell_length_a 15.041918
_cell_length_b 15.610208
_cell_length_c 10.256361
_cell_angle_alpha 67.422715
_cell_angle_beta 59.406985
_cell_angle_gamma 18.938387
_cell_volume 630.545766
_symmetry_space_group_name_H-M "P -1"
_symmetry_group_IT_number 2
_symmetry_cell_setting 'triclinic'
loop_
_space_group_symop_operation_xyz
x,y,z
-x,-y,-z
loop_
_atom_site_type_symbol
_atom_site_label
_atom_site_fract_x
_atom_site_fract_y
_atom_site_fract_z
Si Si1 0.411713 0.243173 0.095106
Si Si2 0.133750 0.820928 0.118544
Si Si3 0.123935 0.791410 0.502894
Si Si4 0.082470 0.471673 0.812009
Si Si5 0.006379 0.227243 0.891591
Si Si6 0.720622 0.964750 0.739299
Si Si7 0.223562 0.726603 0.753299
O O1 0.129820 0.408514 0.197289
O O2 0.251819 0.476121 0.111913
O O3 0.680187 0.997075 0.145818
O O4 0.564194 0.119866 0.907672
O O5 0.969170 0.860839 0.200338
O O6 0.500000 0.500000 0.000000
O O7 0.020378 0.980990 0.228758
O O8 0.000000 0.000000 0.000000
O O9 0.235500 0.668679 0.637724
O O10 0.428714 0.527817 0.338246
O O11 0.864237 0.935082 0.586214
O O12 0.000000 0.000000 0.500000
O O13 0.967760 0.674284 0.758598
O O14 0.456675 0.150841 0.728056
O O15 0.000000 0.500000 0.000000
O O16 0.873489 0.270124 0.076057
#
# Coordination Sequence:
#
# PCOD9001132 Si02
#       7
#     2   2   2   2   2   2   2
#     4  11  19  33  55  82 111 140 188 231 288 342
#     4  10  22  37  56  82 114 152 192 236 287 332
#     4  11  24  36  58  82 119 162 194 225 277 348
#     4  10  21  34  53  79 112 148 183 236 291 341
#     4  11  20  34  58  83 111 150 182 236 286 333
#     4  11  21  35  53  79 117 150 185 227 289 339
#     4  10  23  37  53  83 119 152 193 231 276 347
#
# _framework density 22.202988999999999
#
# number of rings (size 3 to 8) (size 9 to 14) (size 15 to 20)
#    0.000    1.429    1.429    6.857    8.000    0.000 
#    0.000    0.000    0.000    0.000    0.000    6.000 
#    0.000    0.000    0.000    0.000    0.000    0.000 
#
# Total GULP energy -78133.966475 kJ/mol
# GULP energy per Si atom -5580.997605 kJ/mol
# Density = 2.215245 g / cm^3
# Si number density = 22.202989 Si / 1000 Ang^3
#
#
#
# Elastic Constant Matrix: (Units=GPa)
#
#
# Indices 1 2 3 4 5 6 
#
# 1 66.5732 -7.0112 17.7750 2.5642 -9.7919 -4.2844
# 2 -7.0112 112.8744 9.3276 12.5035 0.6546 5.3967
# 3 17.7750 9.3276 40.2439 8.4421 -6.5086 -2.4246
# 4 2.5642 12.5035 8.4421 21.2260 0.7917 -8.0140
# 5 -9.7919 0.6546 -6.5086 0.7917 32.8926 6.7754
# 6 -4.2844 5.3967 -2.4246 -8.0140 6.7754 50.4207
#
#
#
# Elastic Compliance Matrix: (Units=1/GPa)
#
#
# Indices 1 2 3 4 5 6 
#
# 1 0.017807 0.001702 -0.007621 -0.000087 0.003667 0.000458
# 2 0.001702 0.009884 -0.001802 -0.006101 0.000521 -0.002040
# 3 -0.007621 -0.001802 0.031660 -0.011287 0.004580 -0.001342
# 4 -0.000087 -0.006101 -0.011287 0.059304 -0.005685 0.010293
# 5 0.003667 0.000521 0.004580 -0.005685 0.033543 -0.004935
# 6 0.000458 -0.002040 -0.001342 0.010293 -0.004935 0.022325
#
#
# Mechanical properties :
#
#
# Convention : Reuss Voigt Hill
#
# Bulk Modulus (GPa) = 22.77337 28.87491 25.82414
# Shear Modulus (GPa) = 24.43787 34.21453 29.32620
#
# Velocity S-wave (km/s) = 3.32121 3.92980 3.63825
# Velocity P-wave (km/s) = 4.99864 5.79865 5.41344
#
# Compressibility (1/GPa) = 0.04391094
#
# Stress axis : x y z
#
# Youngs Moduli (GPa) = 56.15686 101.16986 31.58590
#
# Poissons Ratio (x) = -0.17222 0.24071
# Poissons Ratio (y) = -0.09560 0.05691
# Poissons Ratio (z) = 0.42796 0.18228
#
# Static dielectric constant tensor:
#      x y z
#    x 1.970450 -0.057400 0.009120 
#    y -0.057400 1.821300 0.032840 
#    z 0.009120 0.032840 1.813440 
# 
# From -- ./inp_files/127142.got.cif
#   From: 2010.05.17/outbox.cif.g08.bks.cpg/sg2_64_cif.got.tgz:127142.got - 2010.06.03 11:33:40.
