data_PCOD9001591
_publ_section_title
;
Structure prediction by ZEFSAII (Michael W. Deem and Ramdas Pophale) SiO2 
 PCOD9001591
Probable space group: P -1
;
_chemical_formula_sum "Si O2"
_cell_formula_units_Z 16
_cell_length_a 10.497129
_cell_length_b 7.892880
_cell_length_c 19.258340
_cell_angle_alpha 47.696268
_cell_angle_beta 48.530228
_cell_angle_gamma 81.724654
_cell_volume 741.631517
_symmetry_space_group_name_H-M "P -1"
_symmetry_group_IT_number 2
_symmetry_cell_setting 'triclinic'
loop_
_space_group_symop_operation_xyz
x,y,z
-x,-y,-z
loop_
_atom_site_type_symbol
_atom_site_label
_atom_site_fract_x
_atom_site_fract_y
_atom_site_fract_z
Si Si1 0.925130 0.501615 0.104679
Si Si2 0.392870 0.717112 0.182508
Si Si3 0.658754 0.038211 0.662284
Si Si4 0.326534 0.833489 0.948927
Si Si5 0.989116 0.626213 0.395980
Si Si6 0.836112 0.024938 0.366866
Si Si7 0.239149 0.367875 0.196916
Si Si8 0.490708 0.329334 0.317189
O O1 0.851718 0.210768 0.246621
O O2 0.732515 0.527304 0.173456
O O3 0.000000 0.500000 0.000000
O O4 0.110370 0.724900 0.023462
O O5 0.354682 0.579031 0.159617
O O6 0.376487 0.485355 0.302569
O O7 0.213395 0.766004 0.245570
O O8 0.603618 0.984261 0.056950
O O9 0.491272 0.015506 0.780970
O O10 0.743699 0.886037 0.718932
O O11 0.558584 0.862631 0.678473
O O12 0.825091 0.344606 0.495402
O O13 0.325896 0.559690 0.043911
O O14 0.000000 0.500000 0.500000
O O15 0.914537 0.830550 0.370808
O O16 0.997544 0.226364 0.312209
O O17 0.613198 0.846891 0.528475
#
# Coordination Sequence:
#
# PCOD9001591 Si02
#       8
#     2   2   2   2   2   2   2   2
#     4  11  25  45  64  87 122 174 221 255 296 363
#     4  11  22  38  63  95 129 159 198 260 322 375
#     4  11  20  35  63  90 130 162 201 253 317 375
#     4  11  21  38  59  87 128 168 207 253 310 365
#     4  12  20  37  63  97 129 153 197 260 325 377
#     4  11  22  41  68  94 125 164 207 258 313 367
#     4  10  21  35  58  98 127 161 200 248 320 388
#     4  11  22  41  66  91 122 168 213 255 302 368
#
# _framework density 21.574055999999999
#
# number of rings (size 3 to 8) (size 9 to 14) (size 15 to 20)
#    0.000    1.000    5.000    1.875    0.000    3.500 
#    2.250    0.625    2.750    0.000    0.000    0.000 
#    0.000    0.000    0.000    0.000    0.000    0.000 
#
# Total GULP energy -89273.714675 kJ/mol
# GULP energy per Si atom -5579.607167 kJ/mol
# Density = 2.152495 g / cm^3
# Si number density = 21.574056 Si / 1000 Ang^3
#
#
#
# Elastic Constant Matrix: (Units=GPa)
#
#
# Indices 1 2 3 4 5 6 
#
# 1 61.8456 26.7563 40.5071 5.3533 -13.3383 -2.9693
# 2 26.7563 68.1766 19.5057 -3.4056 -8.3183 4.4152
# 3 40.5071 19.5057 86.7470 8.0027 -5.8426 9.9218
# 4 5.3533 -3.4056 8.0027 34.7160 -0.1211 -8.5613
# 5 -13.3383 -8.3183 -5.8426 -0.1211 45.2307 -8.2927
# 6 -2.9693 4.4152 9.9218 -8.5613 -8.2927 21.9999
#
#
#
# Elastic Compliance Matrix: (Units=1/GPa)
#
#
# Indices 1 2 3 4 5 6 
#
# 1 0.031763 -0.008221 -0.014424 0.001725 0.009024 0.016515
# 2 -0.008221 0.018281 -0.000009 0.002111 0.000234 -0.003865
# 3 -0.014424 -0.000009 0.020275 -0.006209 -0.004435 -0.015177
# 4 0.001725 0.002111 -0.006209 0.034451 0.003355 0.017281
# 5 0.009024 0.000234 -0.004435 0.003355 0.026931 0.014629
# 6 0.016515 -0.003865 -0.015177 0.017281 0.014629 0.067543
#
#
# Mechanical properties :
#
#
# Convention : Reuss Voigt Hill
#
# Bulk Modulus (GPa) = 39.98068 43.36749 41.67408
# Shear Modulus (GPa) = 19.77164 29.05598 24.41381
#
# Velocity S-wave (km/s) = 3.03058 3.67386 3.36762
# Velocity P-wave (km/s) = 5.55139 6.17589 5.87195
#
# Compressibility (1/GPa) = 0.02501208
#
# Stress axis : x y z
#
# Youngs Moduli (GPa) = 31.48328 54.70180 49.32236
#
# Poissons Ratio (x) = 0.44971 0.71140
# Poissons Ratio (y) = 0.25883 0.00042
# Poissons Ratio (z) = 0.45410 0.00047
#
# Static dielectric constant tensor:
#      x y z
#    x 1.792830 0.009240 -0.021950 
#    y 0.009240 1.794510 -0.024360 
#    z -0.021950 -0.024360 1.847940 
# 
# From -- ./inp_files/609989.got.cif
#   From: 2010.05.17/outbox.cif.g08.bks.cpg/sg2_305_cif.got.tgz:609989.got - 2010.06.03 11:33:40.
