data_PCOD9001985
_publ_section_title
;
Structure prediction by ZEFSAII (Michael W. Deem and Ramdas Pophale) SiO2 
 PCOD9001985
Probable space group: P -1
;
_chemical_formula_sum "Si O2"
_cell_formula_units_Z 16
_cell_length_a 20.835033
_cell_length_b 11.559743
_cell_length_c 17.347919
_cell_angle_alpha 142.550248
_cell_angle_beta 21.183326
_cell_angle_gamma 131.096406
_cell_volume 850.187882
_symmetry_space_group_name_H-M "P -1"
_symmetry_group_IT_number 2
_symmetry_cell_setting 'triclinic'
loop_
_space_group_symop_operation_xyz
x,y,z
-x,-y,-z
loop_
_atom_site_type_symbol
_atom_site_label
_atom_site_fract_x
_atom_site_fract_y
_atom_site_fract_z
Si Si1 0.504337 0.733577 0.193638
Si Si2 0.071342 0.533034 0.854144
Si Si3 0.610758 0.759024 0.758220
Si Si4 0.847161 0.972268 0.096402
Si Si5 0.283319 0.211277 0.720607
Si Si6 0.702104 0.578079 0.726579
Si Si7 0.910794 0.622093 0.743064
Si Si8 0.413792 0.628037 0.482405
O O1 0.361443 0.617728 0.310570
O O2 0.394075 0.976217 0.448256
O O3 0.592156 0.684011 0.983163
O O4 0.687768 0.656498 0.004573
O O5 0.193681 0.329854 0.559304
O O6 0.228026 0.636748 0.743280
O O7 0.898370 0.675475 0.069590
O O8 0.000000 0.500000 0.000000
O O9 0.645367 0.710573 0.783759
O O10 0.511025 0.601089 0.758529
O O11 0.500000 0.000000 0.000000
O O12 0.773789 0.818215 0.143701
O O13 0.680856 0.189172 0.377110
O O14 0.916779 0.848645 0.872720
O O15 0.000000 0.000000 0.000000
O O16 0.427321 0.328532 0.624380
O O17 0.929907 0.512517 0.446163
O O18 0.000000 0.500000 0.500000
#
# Coordination Sequence:
#
# PCOD9001985 Si02
#       8
#     2   2   2   2   2   2   2   2
#     4  10  22  34  63  98 126 165 195 254 327 400
#     4  10  25  44  63  90 125 167 223 271 314 374
#     4  10  23  45  67  84 125 173 219 269 320 378
#     4  12  20  37  65  99 134 168 204 262 337 400
#     4  12  22  37  68  95 129 162 211 262 328 390
#     4  10  21  39  59  90 133 163 205 253 324 386
#     4  10  21  36  55  91 135 160 201 251 317 390
#     4  10  23  39  65  94 123 163 214 269 318 389
#
# _framework density 18.819368999999998
#
# number of rings (size 3 to 8) (size 9 to 14) (size 15 to 20)
#    0.750    0.750    2.500    3.375    3.500    0.500 
#    0.000    0.625    0.000    0.000    0.000    0.000 
#    0.000    0.000    0.000    0.000    0.000    0.000 
#
# Total GULP energy -89086.731054 kJ/mol
# GULP energy per Si atom -5567.920691 kJ/mol
# Density = 1.877654 g / cm^3
# Si number density = 18.819369 Si / 1000 Ang^3
#
#
#
# Elastic Constant Matrix: (Units=GPa)
#
#
# Indices 1 2 3 4 5 6 
#
# 1 82.7134 63.5993 48.2415 2.9932 10.2093 2.6414
# 2 63.5993 98.9947 58.8729 11.0812 -10.6396 -2.7476
# 3 48.2415 58.8729 115.3372 15.3986 -3.6018 2.3099
# 4 2.9932 11.0812 15.3986 42.8936 6.1816 2.7151
# 5 10.2093 -10.6396 -3.6018 6.1816 28.3276 -3.3491
# 6 2.6414 -2.7476 2.3099 2.7151 -3.3491 39.8139
#
#
#
# Elastic Compliance Matrix: (Units=1/GPa)
#
#
# Indices 1 2 3 4 5 6 
#
# 1 0.037698 -0.025593 -0.004735 0.009981 -0.026798 -0.006927
# 2 -0.025593 0.032821 -0.004236 -0.009033 0.023790 0.006826
# 3 -0.004735 -0.004236 0.013399 -0.003743 0.002603 -0.000281
# 4 0.009981 -0.009033 -0.003743 0.028609 -0.014207 -0.004215
# 5 -0.026798 0.023790 0.002603 -0.014207 0.058408 0.009151
# 6 -0.006927 0.006826 -0.000281 -0.004215 0.009151 0.027121
#
#
# Mechanical properties :
#
#
# Convention : Reuss Voigt Hill
#
# Bulk Modulus (GPa) = 67.61193 70.94141 69.27667
# Shear Modulus (GPa) = 18.37472 30.62912 24.50192
#
# Velocity S-wave (km/s) = 3.12809 4.03864 3.61217
# Velocity P-wave (km/s) = 7.00367 7.71527 7.36806
#
# Compressibility (1/GPa) = 0.01479029
#
# Stress axis : x y z
#
# Youngs Moduli (GPa) = 26.52673 30.46870 74.62970
#
# Poissons Ratio (x) = 0.77979 0.35335
# Poissons Ratio (y) = 0.67890 0.31614
# Poissons Ratio (z) = 0.12560 0.12907
#
# Static dielectric constant tensor:
#      x y z
#    x 1.681680 0.030860 0.057250 
#    y 0.030860 1.653640 -0.018600 
#    z 0.057250 -0.018600 1.727310 
# 
# From -- ./inp_files/577826.got.cif
#   From: 2010.05.17/outbox.cif.g08.bks.cpg/sg2_289_cif.got.tgz:577826.got - 2010.06.03 11:33:40.
