data_PCOD9001457
_publ_section_title
;
Structure prediction by ZEFSAII (Michael W. Deem and Ramdas Pophale) SiO2 
 PCOD9001457
Probable space group: P -1
;
_chemical_formula_sum "Si O2"
_cell_formula_units_Z 16
_cell_length_a 12.973128
_cell_length_b 15.058788
_cell_length_c 13.989102
_cell_angle_alpha 37.421279
_cell_angle_beta 136.040921
_cell_angle_gamma 151.596061
_cell_volume 787.834325
_symmetry_space_group_name_H-M "P -1"
_symmetry_group_IT_number 2
_symmetry_cell_setting 'triclinic'
loop_
_space_group_symop_operation_xyz
x,y,z
-x,-y,-z
loop_
_atom_site_type_symbol
_atom_site_label
_atom_site_fract_x
_atom_site_fract_y
_atom_site_fract_z
Si Si1 0.825568 0.421835 0.528653
Si Si2 0.301451 0.463625 0.027469
Si Si3 0.116050 0.222832 0.794003
Si Si4 0.455861 0.988965 0.741061
Si Si5 0.602342 0.794651 0.101792
Si Si6 0.693570 0.793296 0.880749
Si Si7 0.538687 0.185669 0.820151
Si Si8 0.012327 0.518957 0.781178
O O1 0.772163 0.550735 0.359392
O O2 0.610724 0.168609 0.610385
O O3 0.000000 0.500000 0.500000
O O4 0.942698 0.498350 0.644058
O O5 0.459770 0.654468 0.889874
O O6 0.081265 0.397583 0.938228
O O7 0.414594 0.568148 0.115579
O O8 0.306495 0.300974 0.134808
O O9 0.182425 0.134580 0.846835
O O10 0.195526 0.235255 0.941815
O O11 0.855557 0.045223 0.769268
O O12 0.444033 0.100811 0.722756
O O13 0.221870 0.762712 0.745030
O O14 0.579119 0.937439 0.914836
O O15 0.566826 0.781044 0.202414
O O16 0.797376 0.395828 0.804738
O O17 0.500000 0.000000 0.000000
#
# Coordination Sequence:
#
# PCOD9001457 Si02
#       8
#     2   2   2   2   2   2   2   2
#     4  11  24  37  57  86 115 156 189 224 283 345
#     4   9  18  32  54  82 111 143 184 229 284 331
#     4  10  21  35  56  79 115 147 191 229 281 336
#     4   9  21  39  58  83 119 149 188 234 288 331
#     4   9  19  36  59  85 107 145 190 238 278 333
#     4   9  19  34  54  79 114 149 182 234 284 329
#     4   9  19  35  60  89 112 143 192 240 288 324
#     4  10  21  38  57  82 120 149 188 234 281 339
#
# _framework density 20.308838999999999
#
# number of rings (size 3 to 8) (size 9 to 14) (size 15 to 20)
#    0.000    2.500    0.000    0.750   12.250    5.000 
#    6.750    2.500    0.000    1.500    0.000    0.000 
#    0.000    0.000    0.000    0.000    0.000    0.000 
#
# Total GULP energy -89228.648241 kJ/mol
# GULP energy per Si atom -5576.790515 kJ/mol
# Density = 2.026261 g / cm^3
# Si number density = 20.308839 Si / 1000 Ang^3
#
#
#
# Elastic Constant Matrix: (Units=GPa)
#
#
# Indices 1 2 3 4 5 6 
#
# 1 102.3613 18.9531 6.6812 -6.8718 -9.8694 -14.3122
# 2 18.9531 95.7714 14.4763 -22.9010 -6.9652 4.0691
# 3 6.6812 14.4763 40.5923 -16.0618 -6.3639 5.1074
# 4 -6.8718 -22.9010 -16.0618 24.9831 5.6350 -3.9938
# 5 -9.8694 -6.9652 -6.3639 5.6350 22.3874 -3.5045
# 6 -14.3122 4.0691 5.1074 -3.9938 -3.5045 26.0535
#
#
#
# Elastic Compliance Matrix: (Units=1/GPa)
#
#
# Indices 1 2 3 4 5 6 
#
# 1 0.011872 -0.001927 -0.001081 0.000859 0.005345 0.007885
# 2 -0.001927 0.013715 0.000400 0.012010 0.000289 -0.001399
# 3 -0.001081 0.000400 0.033753 0.020384 0.003537 -0.003673
# 4 0.000859 0.012010 0.020384 0.066404 -0.006186 0.003947
# 5 0.005345 0.000289 0.003537 -0.006186 0.050945 0.008102
# 6 0.007885 -0.001399 -0.003673 0.003947 0.008102 0.045348
#
#
# Mechanical properties :
#
#
# Convention : Reuss Voigt Hill
#
# Bulk Modulus (GPa) = 18.47649 35.43848 26.95748
# Shear Modulus (GPa) = 20.38366 27.92575 24.15471
#
# Velocity S-wave (km/s) = 3.17153 3.71220 3.45246
# Velocity P-wave (km/s) = 4.74647 5.98845 5.40326
#
# Compressibility (1/GPa) = 0.05412284
#
# Stress axis : x y z
#
# Youngs Moduli (GPa) = 84.22993 72.91424 29.62711
#
# Poissons Ratio (x) = 0.14050 0.03203
# Poissons Ratio (y) = 0.16231 -0.01184
# Poissons Ratio (z) = 0.09106 -0.02913
#
# Static dielectric constant tensor:
#      x y z
#    x 1.751760 0.005520 0.013040 
#    y 0.005520 1.709010 0.002650 
#    z 0.013040 0.002650 1.713210 
# 
# From -- ./inp_files/451157.got.cif
#   From: 2010.05.17/outbox.cif.g08.bks.cpg/sg2_226_cif.got.tgz:451157.got - 2010.06.03 11:33:40.
