data_PCOD9001968
_publ_section_title
;
Structure prediction by ZEFSAII (Michael W. Deem and Ramdas Pophale) SiO2 
 PCOD9001968
Probable space group: P -1
;
_chemical_formula_sum "Si O2"
_cell_formula_units_Z 16
_cell_length_a 14.739757
_cell_length_b 7.393256
_cell_length_c 7.803000
_cell_angle_alpha 117.498030
_cell_angle_beta 92.138171
_cell_angle_gamma 116.121138
_cell_volume 645.589320
_symmetry_space_group_name_H-M "P -1"
_symmetry_group_IT_number 2
_symmetry_cell_setting 'triclinic'
loop_
_space_group_symop_operation_xyz
x,y,z
-x,-y,-z
loop_
_atom_site_type_symbol
_atom_site_label
_atom_site_fract_x
_atom_site_fract_y
_atom_site_fract_z
Si Si1 0.273239 0.410102 0.489135
Si Si2 0.889971 0.752818 0.884782
Si Si3 0.798569 0.082565 0.545051
Si Si4 0.788371 0.033171 0.123259
Si Si5 0.599157 0.074254 0.664496
Si Si6 0.414416 0.302801 0.242292
Si Si7 0.003754 0.498552 0.710038
Si Si8 0.416057 0.723274 0.912919
O O1 0.170348 0.345470 0.343709
O O2 0.363833 0.450557 0.376395
O O3 0.320051 0.616321 0.723808
O O4 0.242901 0.170222 0.482138
O O5 0.931263 0.575815 0.845234
O O6 0.821703 0.832060 0.023983
O O7 0.000000 0.000000 0.000000
O O8 0.778935 0.068786 0.335775
O O9 0.716806 0.163307 0.640272
O O10 0.928293 0.222005 0.631957
O O11 0.876521 0.285805 0.155024
O O12 0.678955 0.912982 0.964700
O O13 0.500000 0.000000 0.500000
O O14 0.569434 0.830982 0.655980
O O15 0.611062 0.270167 0.889547
O O16 0.520537 0.412658 0.185206
O O17 0.000000 0.500000 0.500000
O O18 0.500000 0.000000 0.000000
#
# Coordination Sequence:
#
# PCOD9001968 Si02
#       8
#     2   2   2   2   2   2   2   2
#     4  10  21  38  60  88 122 155 199 252 297 345
#     4   9  19  38  61  86 115 155 202 239 286 362
#     4  10  21  38  58  89 124 154 194 255 303 341
#     4   9  18  37  61  84 114 159 203 240 293 361
#     4  10  21  36  55  85 120 151 195 249 297 345
#     4   9  19  37  59  82 115 158 200 240 292 359
#     4   9  19  35  59  86 116 155 194 235 294 359
#     4  10  21  37  59  86 115 159 202 238 293 360
#
# _framework density 24.783556999999998
#
# number of rings (size 3 to 8) (size 9 to 14) (size 15 to 20)
#    0.000    2.500    0.000    1.125    0.000    7.000 
#    0.000   25.000    0.000    0.000    0.000    0.000 
#    0.000    0.000    0.000    0.000    0.000    0.000 
#
# Total GULP energy -89217.376159 kJ/mol
# GULP energy per Si atom -5576.086010 kJ/mol
# Density = 2.472715 g / cm^3
# Si number density = 24.783557 Si / 1000 Ang^3
#
#
#
# Elastic Constant Matrix: (Units=GPa)
#
#
# Indices 1 2 3 4 5 6 
#
# 1 78.8663 6.5101 29.8113 -10.9606 -9.3077 21.7778
# 2 6.5101 57.2894 10.1674 4.3691 -1.4411 24.9305
# 3 29.8113 10.1674 136.7306 2.4282 1.5525 23.9676
# 4 -10.9606 4.3691 2.4282 29.0411 9.5656 3.3243
# 5 -9.3077 -1.4411 1.5525 9.5656 47.4425 0.3171
# 6 21.7778 24.9305 23.9676 3.3243 0.3171 31.8360
#
#
#
# Elastic Compliance Matrix: (Units=1/GPa)
#
#
# Indices 1 2 3 4 5 6 
#
# 1 0.018684 0.004564 -0.001804 0.007517 0.002453 -0.015806
# 2 0.004564 0.028195 0.001506 -0.000268 0.001933 -0.026326
# 3 -0.001804 0.001506 0.008742 -0.000770 -0.000396 -0.006443
# 4 0.007517 -0.000268 -0.000770 0.040533 -0.006624 -0.008518
# 5 0.002453 0.001933 -0.000396 -0.006624 0.022983 -0.002431
# 6 -0.015806 -0.026326 -0.006443 -0.008518 -0.002431 0.068603
#
#
# Mechanical properties :
#
#
# Convention : Reuss Voigt Hill
#
# Bulk Modulus (GPa) = 15.58785 40.65153 28.11969
# Shear Modulus (GPa) = 24.92632 36.75707 30.84169
#
# Velocity S-wave (km/s) = 3.17481 3.85531 3.53149
# Velocity P-wave (km/s) = 4.44325 6.02131 5.29144
#
# Compressibility (1/GPa) = 0.06415252
#
# Stress axis : x y z
#
# Youngs Moduli (GPa) = 53.52303 35.46782 114.38433
#
# Poissons Ratio (x) = -0.16186 0.20631
# Poissons Ratio (y) = -0.24426 -0.17225
# Poissons Ratio (z) = 0.09653 -0.05341
#
# Static dielectric constant tensor:
#      x y z
#    x 2.450940 0.031570 0.163810 
#    y 0.031570 2.011340 0.079280 
#    z 0.163810 0.079280 2.169780 
# 
# From -- ./inp_files/299521.got.cif
#   From: 2010.05.17/outbox.cif.g08.bks.cpg/sg2_150_cif.got.tgz:299521.got - 2010.06.03 11:33:40.
