data_PCOD9001416
_publ_section_title
;
Structure prediction by ZEFSAII (Michael W. Deem and Ramdas Pophale) SiO2 
 PCOD9001416
Probable space group: P -1
;
_chemical_formula_sum "Si O2"
_cell_formula_units_Z 12
_cell_length_a 8.418734
_cell_length_b 6.357553
_cell_length_c 21.759077
_cell_angle_alpha 64.542084
_cell_angle_beta 62.361207
_cell_angle_gamma 116.858964
_cell_volume 540.920874
_symmetry_space_group_name_H-M "P -1"
_symmetry_group_IT_number 2
_symmetry_cell_setting 'triclinic'
loop_
_space_group_symop_operation_xyz
x,y,z
-x,-y,-z
loop_
_atom_site_type_symbol
_atom_site_label
_atom_site_fract_x
_atom_site_fract_y
_atom_site_fract_z
Si Si1 0.419569 0.809681 0.472070
Si Si2 0.741780 0.887034 0.865206
Si Si3 0.191562 0.327705 0.834455
Si Si4 0.182351 0.136285 0.664506
Si Si5 0.315907 0.202879 0.404309
Si Si6 0.778021 0.465416 0.066912
O O1 0.195859 0.354119 0.583293
O O2 0.720894 0.004953 0.364552
O O3 0.500000 0.000000 0.500000
O O4 0.287915 0.891161 0.449084
O O5 0.553612 0.883983 0.862943
O O6 0.500000 0.500000 0.000000
O O7 0.014478 0.248326 0.817223
O O8 0.876265 0.849681 0.795221
O O9 0.502267 0.546578 0.722749
O O10 0.257490 0.567232 0.849170
O O11 0.959919 0.889530 0.958481
O O12 0.454357 0.479165 0.621701
O O13 0.000000 0.000000 0.500000
O O14 0.000000 0.500000 0.000000
#
# Coordination Sequence:
#
# PCOD9001416 Si02
#       6
#     2   2   2   2   2   2
#     4   9  19  35  55  78 107 146 187 228 276 329
#     4   9  19  37  59  81 111 148 183 230 283 330
#     4   9  21  39  54  82 116 143 188 232 274 341
#     4   9  19  37  56  79 112 147 191 231 272 338
#     4  10  21  35  55  82 113 147 184 232 284 331
#     4  10  21  37  59  84 111 147 187 232 284 333
#
# _framework density 22.184391999999999
#
# number of rings (size 3 to 8) (size 9 to 14) (size 15 to 20)
#    0.000    2.667    0.000    0.000    0.000   10.667 
#    0.000   11.667    0.000    0.000    0.000    0.000 
#    0.000    0.000    0.000    0.000    0.000    0.000 
#
# Total GULP energy -66939.260036 kJ/mol
# GULP energy per Si atom -5578.271670 kJ/mol
# Density = 2.213390 g / cm^3
# Si number density = 22.184392 Si / 1000 Ang^3
#
#
#
# Elastic Constant Matrix: (Units=GPa)
#
#
# Indices 1 2 3 4 5 6 
#
# 1 93.8336 52.7821 33.8337 21.1400 -30.5064 -4.5291
# 2 52.7821 88.1116 29.8296 37.8406 -9.5779 1.2974
# 3 33.8337 29.8296 132.7477 41.2860 -18.9654 -5.1895
# 4 21.1400 37.8406 41.2860 44.7263 -8.8044 0.1199
# 5 -30.5064 -9.5779 -18.9654 -8.8044 39.4593 1.3789
# 6 -4.5291 1.2974 -5.1895 0.1199 1.3789 36.3143
#
#
#
# Elastic Compliance Matrix: (Units=1/GPa)
#
#
# Indices 1 2 3 4 5 6 
#
# 1 0.022748 -0.013879 -0.002414 0.006031 0.014318 0.002424
# 2 -0.013879 0.026455 0.002570 -0.019644 -0.007388 -0.001964
# 3 -0.002414 0.002570 0.011329 -0.011165 0.001669 0.001199
# 4 0.006031 -0.019644 -0.011165 0.047445 0.005132 -0.000493
# 5 0.014318 -0.007388 0.001669 0.005132 0.036535 0.000884
# 6 0.002424 -0.001964 0.001199 -0.000493 0.000884 0.028049
#
#
# Mechanical properties :
#
#
# Convention : Reuss Voigt Hill
#
# Bulk Modulus (GPa) = 30.22523 60.84262 45.53393
# Shear Modulus (GPa) = 23.69250 37.31648 30.50449
#
# Velocity S-wave (km/s) = 3.27154 4.10580 3.71218
# Velocity P-wave (km/s) = 5.28439 7.06839 6.24047
#
# Compressibility (1/GPa) = 0.03308494
#
# Stress axis : x y z
#
# Youngs Moduli (GPa) = 43.95969 37.79961 88.27069
#
# Poissons Ratio (x) = 0.52462 0.21313
# Poissons Ratio (y) = 0.61011 -0.22684
# Poissons Ratio (z) = 0.10614 -0.09714
#
# Static dielectric constant tensor:
#      x y z
#    x 1.848160 0.029010 0.025200 
#    y 0.029010 1.822280 -0.027450 
#    z 0.025200 -0.027450 1.820510 
# 
# From -- ./inp_files/19948.got.cif
#   From: 2010.05.17/outbox.cif.g08.bks.cpg/sg2_10_cif.got.tgz:19948.got - 2010.06.03 11:33:40.
