data_PCOD9001607
_publ_section_title
;
Structure prediction by ZEFSAII (Michael W. Deem and Ramdas Pophale) SiO2 
 PCOD9001607
Probable space group: P -1
;
_chemical_formula_sum "Si O2"
_cell_formula_units_Z 16
_cell_length_a 17.409459
_cell_length_b 4.984229
_cell_length_c 26.162781
_cell_angle_alpha 58.609147
_cell_angle_beta 22.539154
_cell_angle_gamma 60.234377
_cell_volume 742.018886
_symmetry_space_group_name_H-M "P -1"
_symmetry_group_IT_number 2
_symmetry_cell_setting 'triclinic'
loop_
_space_group_symop_operation_xyz
x,y,z
-x,-y,-z
loop_
_atom_site_type_symbol
_atom_site_label
_atom_site_fract_x
_atom_site_fract_y
_atom_site_fract_z
Si Si1 0.295070 0.443091 0.519949
Si Si2 0.701246 0.281076 0.403033
Si Si3 0.762331 0.968554 0.952433
Si Si4 0.861361 0.378631 0.024158
Si Si5 0.276803 0.624607 0.780228
Si Si6 0.033261 0.210996 0.842670
Si Si7 0.880080 0.315528 0.749494
Si Si8 0.632664 0.942428 0.872466
O O1 0.246665 0.676933 0.573273
O O2 0.508518 0.507852 0.357487
O O3 0.104287 0.433840 0.601010
O O4 0.316776 0.081897 0.562882
O O5 0.500000 0.500000 0.500000
O O6 0.862719 0.457634 0.252669
O O7 0.880892 0.217003 0.888711
O O8 0.863941 0.026189 0.828706
O O9 0.527057 0.006897 0.080060
O O10 0.787652 0.666343 0.004003
O O11 0.726967 0.331225 0.160573
O O12 0.900861 0.117466 0.982273
O O13 0.086861 0.427624 0.900831
O O14 0.217045 0.955139 0.756394
O O15 0.736444 0.598290 0.833321
O O16 0.801645 0.192123 0.755713
O O17 0.500000 0.000000 0.000000
#
# Coordination Sequence:
#
# PCOD9001607 Si02
#       8
#     2   2   2   2   2   2   2   2
#     4  12  24  40  60  89 127 167 199 244 309 367
#     4  12  23  36  60  88 127 163 200 242 306 366
#     4  10  21  35  59  89 116 152 196 252 305 357
#     4  10  22  39  61  84 120 160 215 248 293 353
#     4  10  23  40  56  87 120 167 208 248 290 357
#     4  11  21  35  60  87 121 157 201 253 302 359
#     4  11  22  38  60  93 126 155 196 250 312 376
#     4  10  22  38  62  90 125 154 194 252 318 365
#
# _framework density 21.562792999999999
#
# number of rings (size 3 to 8) (size 9 to 14) (size 15 to 20)
#    0.000    1.250    2.500    4.500    7.000    0.000 
#    0.000    0.000    0.000    1.500    0.000    0.000 
#    0.000    0.000    0.000    0.000    0.000    0.000 
#
# Total GULP energy -89267.447858 kJ/mol
# GULP energy per Si atom -5579.215491 kJ/mol
# Density = 2.151372 g / cm^3
# Si number density = 21.562793 Si / 1000 Ang^3
#
#
#
# Elastic Constant Matrix: (Units=GPa)
#
#
# Indices 1 2 3 4 5 6 
#
# 1 107.9146 19.4575 57.3409 8.8366 -7.7880 -9.4137
# 2 19.4575 84.0542 15.1627 11.7172 -1.6896 -6.3631
# 3 57.3409 15.1627 93.9464 11.6017 -1.3304 -9.8197
# 4 8.8366 11.7172 11.6017 25.0837 -1.1523 -1.9159
# 5 -7.7880 -1.6896 -1.3304 -1.1523 38.1594 8.7408
# 6 -9.4137 -6.3631 -9.8197 -1.9159 8.7408 27.7607
#
#
#
# Elastic Compliance Matrix: (Units=1/GPa)
#
#
# Indices 1 2 3 4 5 6 
#
# 1 0.014214 -0.001661 -0.008265 -0.000243 0.002359 0.000756
# 2 -0.001661 0.013223 -0.000243 -0.005334 -0.000414 0.002144
# 3 -0.008265 -0.000243 0.016604 -0.004492 -0.002020 0.003341
# 4 -0.000243 -0.005334 -0.004492 0.044556 0.000929 -0.000111
# 5 0.002359 -0.000414 -0.002020 0.000929 0.028683 -0.008976
# 6 0.000756 0.002144 0.003341 -0.000111 -0.008976 0.040770
#
#
# Mechanical properties :
#
#
# Convention : Reuss Voigt Hill
#
# Bulk Modulus (GPa) = 42.19114 52.20415 47.19764
# Shear Modulus (GPa) = 26.84014 31.13103 28.98558
#
# Velocity S-wave (km/s) = 3.53192 3.80378 3.67037
# Velocity P-wave (km/s) = 6.02011 6.59958 6.31649
#
# Compressibility (1/GPa) = 0.02370166
#
# Stress axis : x y z
#
# Youngs Moduli (GPa) = 70.35435 75.62545 60.22810
#
# Poissons Ratio (x) = 0.12561 0.49779
# Poissons Ratio (y) = 0.11685 0.01466
# Poissons Ratio (z) = 0.58148 0.01841
#
# Static dielectric constant tensor:
#      x y z
#    x 1.860880 0.048800 -0.016660 
#    y 0.048800 1.900640 0.029970 
#    z -0.016660 0.029970 1.830050 
# 
# From -- ./inp_files/482709.got.cif
#   From: 2010.05.17/outbox.cif.g08.bks.cpg/sg2_242_cif.got.tgz:482709.got - 2010.06.03 11:33:40.
