data_PCOD9001589
_publ_section_title
;
Structure prediction by ZEFSAII (Michael W. Deem and Ramdas Pophale) SiO2 
 PCOD9001589
Probable space group: P -1
;
_chemical_formula_sum "Si O2"
_cell_formula_units_Z 16
_cell_length_a 20.010846
_cell_length_b 12.009131
_cell_length_c 9.612490
_cell_angle_alpha 47.025848
_cell_angle_beta 152.580970
_cell_angle_gamma 135.764836
_cell_volume 734.535136
_symmetry_space_group_name_H-M "P -1"
_symmetry_group_IT_number 2
_symmetry_cell_setting 'triclinic'
loop_
_space_group_symop_operation_xyz
x,y,z
-x,-y,-z
loop_
_atom_site_type_symbol
_atom_site_label
_atom_site_fract_x
_atom_site_fract_y
_atom_site_fract_z
Si Si1 0.882007 0.037485 0.465446
Si Si2 0.328539 0.981072 0.647640
Si Si3 0.216888 0.491526 0.041986
Si Si4 0.121800 0.153241 0.016127
Si Si5 0.877335 0.314612 0.056643
Si Si6 0.771693 0.506020 0.487828
Si Si7 0.654626 0.322353 0.157116
Si Si8 0.672695 0.687534 0.366737
O O1 0.778135 0.067023 0.373489
O O2 0.843249 0.128362 0.186087
O O3 0.824475 0.845333 0.511877
O O4 0.057650 0.123125 0.766485
O O5 0.285252 0.828787 0.594647
O O6 0.285145 0.127566 0.371858
O O7 0.500000 0.000000 0.000000
O O8 0.119899 0.322844 0.930411
O O9 0.316476 0.431762 0.388498
O O10 0.132557 0.586353 0.903780
O O11 0.310381 0.605041 0.994849
O O12 0.000000 0.000000 0.000000
O O13 0.051820 0.381832 0.269944
O O14 0.767727 0.353917 0.706798
O O15 0.733114 0.456140 0.301639
O O16 0.667628 0.596958 0.290061
O O17 0.475229 0.264018 0.914373
#
# Coordination Sequence:
#
# PCOD9001589 Si02
#       8
#     2   2   2   2   2   2   2   2
#     4  11  21  40  66  92 125 165 210 262 318 369
#     4  11  21  38  62  98 129 162 202 262 325 367
#     4  11  21  38  66  96 125 160 210 266 314 369
#     4  10  21  35  58  97 128 155 197 265 319 364
#     4  10  23  42  65  91 121 169 212 259 317 374
#     4  10  25  42  60  89 127 168 213 255 313 378
#     4  12  23  39  66  93 127 165 213 260 314 376
#     4  11  23  42  62  89 134 170 204 256 318 381
#
# _framework density 21.782485999999999
#
# number of rings (size 3 to 8) (size 9 to 14) (size 15 to 20)
#    0.000    1.250    5.000    1.500    3.500    2.500 
#    0.000    1.875    0.000    0.000    0.000    0.000 
#    0.000    0.000    0.000    0.000    0.000    0.000 
#
# Total GULP energy -89280.905109 kJ/mol
# GULP energy per Si atom -5580.056569 kJ/mol
# Density = 2.173291 g / cm^3
# Si number density = 21.782486 Si / 1000 Ang^3
#
#
#
# Elastic Constant Matrix: (Units=GPa)
#
#
# Indices 1 2 3 4 5 6 
#
# 1 82.5890 15.8689 14.3087 -13.5292 1.7814 -12.5930
# 2 15.8689 48.7257 8.1146 -9.1817 1.9744 -8.3329
# 3 14.3087 8.1146 62.4524 -6.0655 8.9176 1.6836
# 4 -13.5292 -9.1817 -6.0655 29.7141 4.9209 -3.3257
# 5 1.7814 1.9744 8.9176 4.9209 20.5710 -4.3643
# 6 -12.5930 -8.3329 1.6836 -3.3257 -4.3643 27.0000
#
#
#
# Elastic Compliance Matrix: (Units=1/GPa)
#
#
# Indices 1 2 3 4 5 6 
#
# 1 0.015182 -0.001970 -0.002803 0.006550 0.000108 0.007472
# 2 -0.001970 0.024166 -0.001974 0.007230 -0.001471 0.007315
# 3 -0.002803 -0.001974 0.018635 0.002979 -0.009251 -0.004207
# 4 0.006550 0.007230 0.002979 0.042231 -0.010841 0.008550
# 5 0.000108 -0.001471 -0.009251 -0.010841 0.057058 0.008061
# 6 0.007472 0.007315 -0.004207 0.008550 0.008061 0.045398
#
#
# Mechanical properties :
#
#
# Convention : Reuss Voigt Hill
#
# Bulk Modulus (GPa) = 22.47711 30.03905 26.25808
# Shear Modulus (GPa) = 21.64562 25.82202 23.73382
#
# Velocity S-wave (km/s) = 3.15575 3.44677 3.30446
# Velocity P-wave (km/s) = 4.86000 5.44616 5.16141
#
# Compressibility (1/GPa) = 0.04448970
#
# Stress axis : x y z
#
# Youngs Moduli (GPa) = 65.86595 41.37985 53.66362
#
# Poissons Ratio (x) = 0.08151 0.15043
# Poissons Ratio (y) = 0.12975 0.10592
# Poissons Ratio (z) = 0.18463 0.08167
#
# Static dielectric constant tensor:
#      x y z
#    x 1.787000 -0.010980 -0.025070 
#    y -0.010980 1.843900 0.017690 
#    z -0.025070 0.017690 1.865650 
# 
# From -- ./inp_files/332995.got.cif
#   From: 2010.05.17/outbox.cif.g08.bks.cpg/sg2_167_cif.got.tgz:332995.got - 2010.06.03 11:33:40.
