data_PCOD9001745
_publ_section_title
;
Structure prediction by ZEFSAII (Michael W. Deem and Ramdas Pophale) SiO2 
 PCOD9001745
Probable space group: P -1
;
_chemical_formula_sum "Si O2"
_cell_formula_units_Z 14
_cell_length_a 16.439099
_cell_length_b 12.961027
_cell_length_c 20.649513
_cell_angle_alpha 156.941186
_cell_angle_beta 160.362032
_cell_angle_gamma 29.735172
_cell_volume 579.099479
_symmetry_space_group_name_H-M "P -1"
_symmetry_group_IT_number 2
_symmetry_cell_setting 'triclinic'
loop_
_space_group_symop_operation_xyz
x,y,z
-x,-y,-z
loop_
_atom_site_type_symbol
_atom_site_label
_atom_site_fract_x
_atom_site_fract_y
_atom_site_fract_z
Si Si1 0.831078 0.620310 0.812059
Si Si2 0.693992 0.072875 0.633407
Si Si3 0.326842 0.488513 0.760238
Si Si4 0.802907 0.600463 0.253098
Si Si5 0.180428 0.776758 0.539446
Si Si6 0.204079 0.837077 0.372914
Si Si7 0.676908 0.990067 0.011648
O O1 0.773482 0.464799 0.614476
O O2 0.667646 0.852849 0.854117
O O3 0.812754 0.399145 0.726301
O O4 0.093453 0.751112 0.076979
O O5 0.770237 0.785461 0.497294
O O6 0.500000 0.000000 0.500000
O O7 0.639440 0.214761 0.604924
O O8 0.190592 0.553263 0.763036
O O9 0.607487 0.473502 0.985341
O O10 0.313857 0.703333 0.819079
O O11 0.049572 0.656268 0.433676
O O12 0.712009 0.893962 0.375289
O O13 0.434372 0.913134 0.821872
O O14 0.000000 0.000000 0.500000
O O15 0.925366 0.890050 0.172036
#
# Coordination Sequence:
#
# PCOD9001745 Si02
#       7
#     2   2   2   2   2   2   2
#     4  11  23  43  63  90 130 165 206 255 316 363
#     4  10  21  35  62  89 121 164 205 249 299 368
#     4  10  21  40  62  89 126 168 204 245 318 366
#     4  10  21  39  63  90 123 163 206 253 306 367
#     4  12  22  40  67  94 119 160 216 261 302 365
#     4  10  22  42  62  90 128 166 204 254 318 362
#     4  11  23  39  64  92 124 167 205 257 309 371
#
# _framework density 24.175466
#
# number of rings (size 3 to 8) (size 9 to 14) (size 15 to 20)
#    0.000    1.429    2.857    3.000    0.000    5.714 
#    0.000    9.286    0.000    0.000    0.000    0.000 
#    0.000    0.000    0.000    0.000    0.000    0.000 
#
# Total GULP energy -78296.082664 kJ/mol
# GULP energy per Si atom -5592.577333 kJ/mol
# Density = 2.412044 g / cm^3
# Si number density = 24.175466 Si / 1000 Ang^3
#
#
#
# Elastic Constant Matrix: (Units=GPa)
#
#
# Indices 1 2 3 4 5 6 
#
# 1 132.4434 10.1559 42.2670 -18.6389 47.3051 6.3902
# 2 10.1559 32.7090 20.7876 -8.9193 0.4975 16.0724
# 3 42.2670 20.7876 146.1241 4.5333 29.8317 9.8855
# 4 -18.6389 -8.9193 4.5333 31.6376 -8.4050 6.4403
# 5 47.3051 0.4975 29.8317 -8.4050 63.0464 2.4016
# 6 6.3902 16.0724 9.8855 6.4403 2.4016 24.0809
#
#
#
# Elastic Compliance Matrix: (Units=1/GPa)
#
#
# Indices 1 2 3 4 5 6 
#
# 1 0.011682 0.002245 -0.002240 0.007086 -0.006591 -0.004916
# 2 0.002245 0.075617 -0.010760 0.038695 0.010179 -0.058011
# 3 -0.002240 -0.010760 0.009689 -0.008145 -0.004148 0.006391
# 4 0.007086 0.038695 -0.008145 0.058137 0.007531 -0.040663
# 5 -0.006591 0.010179 -0.004148 0.007531 0.023988 -0.007749
# 6 -0.004916 -0.058011 0.006391 -0.040663 -0.007749 0.090574
#
#
# Mechanical properties :
#
#
# Convention : Reuss Voigt Hill
#
# Bulk Modulus (GPa) = 13.24928 50.85528 32.05228
# Shear Modulus (GPa) = 15.80491 39.62405 27.71448
#
# Velocity S-wave (km/s) = 2.55964 4.05287 3.38951
# Velocity P-wave (km/s) = 3.77201 6.55611 5.34840
#
# Compressibility (1/GPa) = 0.07547582
#
# Stress axis : x y z
#
# Youngs Moduli (GPa) = 85.60517 13.22461 103.20506
#
# Poissons Ratio (x) = -0.02968 0.23117
# Poissons Ratio (y) = -0.19214 1.11054
# Poissons Ratio (z) = 0.19175 0.14230
#
# Static dielectric constant tensor:
#      x y z
#    x 1.962700 -0.012570 -0.024850 
#    y -0.012570 1.941470 -0.023670 
#    z -0.024850 -0.023670 1.934930 
# 
# From -- ./inp_files/298112.got.cif
#   From: 2010.05.17/outbox.cif.g08.bks.cpg/sg2_150_cif.got.tgz:298112.got - 2010.06.03 11:33:40.
