data_PCOD9001714
_publ_section_title
;
Structure prediction by ZEFSAII (Michael W. Deem and Ramdas Pophale) SiO2 
 PCOD9001714
Probable space group: P -1
;
_chemical_formula_sum "Si O2"
_cell_formula_units_Z 16
_cell_length_a 9.980526
_cell_length_b 9.265393
_cell_length_c 17.574964
_cell_angle_alpha 124.862375
_cell_angle_beta 148.025142
_cell_angle_gamma 57.983474
_cell_volume 702.325248
_symmetry_space_group_name_H-M "P -1"
_symmetry_group_IT_number 2
_symmetry_cell_setting 'triclinic'
loop_
_space_group_symop_operation_xyz
x,y,z
-x,-y,-z
loop_
_atom_site_type_symbol
_atom_site_label
_atom_site_fract_x
_atom_site_fract_y
_atom_site_fract_z
Si Si1 0.050160 0.209568 0.979787
Si Si2 0.754565 0.933157 0.554937
Si Si3 0.486273 0.387438 0.718956
Si Si4 0.798720 0.524703 0.151051
Si Si5 0.810437 0.267290 0.577873
Si Si6 0.878702 0.159114 0.154355
Si Si7 0.393414 0.315207 0.037792
Si Si8 0.388708 0.407062 0.309243
O O1 0.236937 0.244787 0.010030
O O2 0.176796 0.293477 0.137983
O O3 0.769768 0.299574 0.851353
O O4 0.049618 0.999927 0.917058
O O5 0.695306 0.764850 0.425894
O O6 0.963280 0.880293 0.704109
O O7 0.500000 0.000000 0.500000
O O8 0.819789 0.092508 0.580352
O O9 0.429994 0.540298 0.800493
O O10 0.502534 0.487585 0.676877
O O11 0.926764 0.342037 0.192365
O O12 0.911310 0.683732 0.298154
O O13 0.500000 0.500000 0.000000
O O14 0.811180 0.588643 0.089007
O O15 0.608734 0.276536 0.415662
O O16 0.711986 0.439139 0.633865
O O17 0.581930 0.175665 0.040595
#
# Coordination Sequence:
#
# PCOD9001714 Si02
#       8
#     2   2   2   2   2   2   2   2
#     4  11  21  38  64  95 128 160 214 261 305 368
#     4  12  23  40  61  94 126 163 208 261 308 364
#     4  11  21  39  63  93 128 161 214 259 306 369
#     4  10  22  40  63  90 122 165 207 248 306 379
#     4  11  22  39  62  90 125 163 205 254 318 364
#     4  11  23  39  64  88 127 166 211 255 313 368
#     4  10  22  40  63  91 123 169 206 256 312 369
#     4  10  21  35  61  93 125 163 203 255 314 367
#
# _framework density 22.781468
#
# number of rings (size 3 to 8) (size 9 to 14) (size 15 to 20)
#    0.000    1.250    2.500    4.875    1.750    2.500 
#    0.000    3.125    0.000    9.000    0.000    0.000 
#    0.000    0.000    0.000    0.000    0.000    0.000 
#
# Total GULP energy -89424.856943 kJ/mol
# GULP energy per Si atom -5589.053559 kJ/mol
# Density = 2.272962 g / cm^3
# Si number density = 22.781468 Si / 1000 Ang^3
#
#
#
# Elastic Constant Matrix: (Units=GPa)
#
#
# Indices 1 2 3 4 5 6 
#
# 1 33.1942 16.0824 8.3660 -9.5665 2.8610 6.1282
# 2 16.0824 146.8391 68.6707 -8.0550 1.6029 27.7700
# 3 8.3660 68.6707 152.1745 -19.2198 -6.1406 21.7488
# 4 -9.5665 -8.0550 -19.2198 42.2675 1.5253 3.2771
# 5 2.8610 1.6029 -6.1406 1.5253 24.7440 8.8920
# 6 6.1282 27.7700 21.7488 3.2771 8.8920 31.7003
#
#
#
# Elastic Compliance Matrix: (Units=1/GPa)
#
#
# Indices 1 2 3 4 5 6 
#
# 1 0.034778 -0.002849 0.001077 0.008301 -0.002211 -0.005204
# 2 -0.002849 0.009835 -0.003356 0.000137 0.001031 -0.006066
# 3 0.001077 -0.003356 0.009488 0.004186 0.004118 -0.005366
# 4 0.008301 0.000137 0.004186 0.028032 0.001151 -0.007817
# 5 -0.002211 0.001031 0.004118 0.001151 0.047578 -0.016766
# 6 -0.005204 -0.006066 -0.005366 -0.007817 -0.016766 0.047058
#
#
# Mechanical properties :
#
#
# Convention : Reuss Voigt Hill
#
# Bulk Modulus (GPa) = 22.80718 57.60511 40.20615
# Shear Modulus (GPa) = 24.79656 35.68162 30.23909
#
# Velocity S-wave (km/s) = 3.30275 3.96189 3.64724
# Velocity P-wave (km/s) = 4.95754 6.80218 5.95176
#
# Compressibility (1/GPa) = 0.04384584
#
# Stress axis : x y z
#
# Youngs Moduli (GPa) = 28.75342 101.67824 105.39295
#
# Poissons Ratio (x) = 0.28967 -0.11347
# Poissons Ratio (y) = 0.08191 0.35367
# Poissons Ratio (z) = -0.03096 0.34120
#
# Static dielectric constant tensor:
#      x y z
#    x 1.926180 -0.019520 0.051430 
#    y -0.019520 1.845730 0.014100 
#    z 0.051430 0.014100 1.889050 
# 
# From -- ./inp_files/566166.got.cif
#   From: 2010.05.17/outbox.cif.g08.bks.cpg/sg2_284_cif.got.tgz:566166.got - 2010.06.03 11:33:40.
