data_PCOD9001966
_publ_section_title
;
Structure prediction by ZEFSAII (Michael W. Deem and Ramdas Pophale) SiO2 
 PCOD9001966
Probable space group: P -1
;
_chemical_formula_sum "Si O2"
_cell_formula_units_Z 12
_cell_length_a 5.379418
_cell_length_b 19.636871
_cell_length_c 5.346917
_cell_angle_alpha 82.213350
_cell_angle_beta 60.756263
_cell_angle_gamma 98.115872
_cell_volume 474.035347
_symmetry_space_group_name_H-M "P -1"
_symmetry_group_IT_number 2
_symmetry_cell_setting 'triclinic'
loop_
_space_group_symop_operation_xyz
x,y,z
-x,-y,-z
loop_
_atom_site_type_symbol
_atom_site_label
_atom_site_fract_x
_atom_site_fract_y
_atom_site_fract_z
Si Si1 0.446828 0.915364 0.054581
Si Si2 0.918733 0.440664 0.354122
Si Si3 0.654840 0.731498 0.863815
Si Si4 0.316850 0.403768 0.829454
Si Si5 0.061584 0.866256 0.769890
Si Si6 0.955952 0.300626 0.685494
O O1 0.264328 0.885857 0.412093
O O2 0.769893 0.898029 0.891094
O O3 0.253162 0.890524 0.911359
O O4 0.500000 0.000000 0.000000
O O5 0.928576 0.359319 0.459917
O O6 0.000000 0.500000 0.500000
O O7 0.573437 0.431609 0.493664
O O8 0.175710 0.458306 0.016592
O O9 0.915649 0.781822 0.865723
O O10 0.787631 0.735107 0.518946
O O11 0.567851 0.648188 0.014693
O O12 0.354138 0.751465 0.074681
O O13 0.056783 0.351193 0.842483
#
# Coordination Sequence:
#
# PCOD9001966 Si02
#       6
#     2   2   2   2   2   2
#     4  12  26  49  73 107 147 189 236 291 350 415
#     4  10  21  36  55  85 115 154 208 254 319 400
#     4  10  23  37  59  88 123 159 215 268 329 399
#     4  10  21  37  57  81 117 160 197 268 324 381
#     4  12  26  44  74 107 140 192 238 291 350 424
#     4  10  21  39  57  84 121 160 204 270 328 387
#
# _framework density 25.314567
#
# number of rings (size 3 to 8) (size 9 to 14) (size 15 to 20)
#    0.000    1.333    0.000    5.000    4.667    1.333 
#    0.000    0.000    0.000    0.000    0.000    0.000 
#    0.000    0.000    0.000    0.000    0.000    0.000 
#
# Total GULP energy -67032.407666 kJ/mol
# GULP energy per Si atom -5586.033972 kJ/mol
# Density = 2.525695 g / cm^3
# Si number density = 25.314567 Si / 1000 Ang^3
#
#
#
# Elastic Constant Matrix: (Units=GPa)
#
#
# Indices 1 2 3 4 5 6 
#
# 1 122.9718 27.9467 68.0338 8.0538 -9.5351 14.0355
# 2 27.9467 101.1104 49.4170 3.5222 -1.5497 6.5827
# 3 68.0338 49.4170 244.4919 12.1163 -23.0632 8.0836
# 4 8.0538 3.5222 12.1163 40.8370 7.7619 -3.4342
# 5 -9.5351 -1.5497 -23.0632 7.7619 38.3071 12.7595
# 6 14.0355 6.5827 8.0836 -3.4342 12.7595 54.5658
#
#
#
# Elastic Compliance Matrix: (Units=1/GPa)
#
#
# Indices 1 2 3 4 5 6 
#
# 1 0.010314 -0.001515 -0.002124 -0.002010 0.002597 -0.002889
# 2 -0.001515 0.011267 -0.001931 0.000039 -0.000938 -0.000462
# 3 -0.002124 -0.001931 0.005509 -0.001771 0.003382 -0.000939
# 4 -0.002010 0.000039 -0.001771 0.027426 -0.008627 0.004518
# 5 0.002597 -0.000938 0.003382 -0.008627 0.033651 -0.009468
# 6 -0.002889 -0.000462 -0.000939 0.004518 -0.009468 0.021763
#
#
# Mechanical properties :
#
#
# Convention : Reuss Voigt Hill
#
# Bulk Modulus (GPa) = 62.69183 84.37432 73.53308
# Shear Modulus (GPa) = 39.56154 48.28708 43.92431
#
# Velocity S-wave (km/s) = 3.95751 4.37221 4.17002
# Velocity P-wave (km/s) = 6.76028 7.67405 7.23161
#
# Compressibility (1/GPa) = 0.01595104
#
# Stress axis : x y z
#
# Youngs Moduli (GPa) = 96.95608 88.75538 181.51532
#
# Poissons Ratio (x) = 0.13445 0.38549
# Poissons Ratio (y) = 0.14688 0.35049
# Poissons Ratio (z) = 0.20591 0.17138
#
# Static dielectric constant tensor:
#      x y z
#    x 2.083960 -0.098550 0.048360 
#    y -0.098550 2.021220 -0.057740 
#    z 0.048360 -0.057740 2.157680 
# 
# From -- ./inp_files/8428.got.cif
#   From: 2010.05.17/outbox.cif.g08.bks.cpg/sg2_5_cif.got.tgz:8428.got - 2010.06.03 11:33:40.
