data_PCOD9001621
_publ_section_title
;
Structure prediction by ZEFSAII (Michael W. Deem and Ramdas Pophale) SiO2 
 PCOD9001621
Probable space group: P -1
;
_chemical_formula_sum "Si O2"
_cell_formula_units_Z 14
_cell_length_a 5.344566
_cell_length_b 8.480970
_cell_length_c 23.144618
_cell_angle_alpha 38.199586
_cell_angle_beta 125.613826
_cell_angle_gamma 117.041828
_cell_volume 527.401136
_symmetry_space_group_name_H-M "P -1"
_symmetry_group_IT_number 2
_symmetry_cell_setting 'triclinic'
loop_
_space_group_symop_operation_xyz
x,y,z
-x,-y,-z
loop_
_atom_site_type_symbol
_atom_site_label
_atom_site_fract_x
_atom_site_fract_y
_atom_site_fract_z
Si Si1 0.358014 0.456764 0.571454
Si Si2 0.171399 0.376469 0.979975
Si Si3 0.739573 0.726334 0.264706
Si Si4 0.171517 0.484514 0.213828
Si Si5 0.104845 0.282759 0.390215
Si Si6 0.446416 0.979227 0.653976
Si Si7 0.205119 0.156668 0.160843
O O1 0.377562 0.287818 0.681548
O O2 0.544019 0.712498 0.541463
O O3 0.000000 0.500000 0.500000
O O4 0.497064 0.274117 0.592246
O O5 0.085618 0.386312 0.898397
O O6 0.911750 0.564411 0.916451
O O7 0.500000 0.500000 0.000000
O O8 0.188099 0.137770 0.094688
O O9 0.460637 0.676972 0.197589
O O10 0.936597 0.467342 0.359155
O O11 0.958180 0.959820 0.211055
O O12 0.090727 0.435272 0.283542
O O13 0.306467 0.204291 0.292207
O O14 0.882457 0.049311 0.413037
O O15 0.472750 0.861281 0.756348
#
# Coordination Sequence:
#
# PCOD9001621 Si02
#       7
#     2   2   2   2   2   2   2
#     4  11  25  42  66  96 120 159 213 261 311 375
#     4  10  21  35  59  93 125 160 214 257 292 367
#     4  10  22  41  64  88 127 165 206 258 313 372
#     4   9  21  39  61  92 124 168 208 250 308 368
#     4  10  21  41  63  92 126 163 206 252 314 376
#     4  10  21  39  67  86 123 171 201 252 316 367
#     4  10  21  37  60  92 121 167 211 248 311 362
#
# _framework density 26.545261
#
# number of rings (size 3 to 8) (size 9 to 14) (size 15 to 20)
#    0.000    2.000    1.429    0.857    6.000    2.857 
#    0.000    7.857    0.000    0.000    0.000    0.000 
#    0.000    0.000    0.000    0.000    0.000    0.000 
#
# Total GULP energy -78195.129897 kJ/mol
# GULP energy per Si atom -5585.366421 kJ/mol
# Density = 2.648484 g / cm^3
# Si number density = 26.545261 Si / 1000 Ang^3
#
#
#
# Elastic Constant Matrix: (Units=GPa)
#
#
# Indices 1 2 3 4 5 6 
#
# 1 55.7825 46.3126 6.6877 10.0432 -5.1717 2.4599
# 2 46.3126 159.1338 58.4596 29.8381 3.3955 21.9108
# 3 6.6877 58.4596 128.9956 33.8182 1.5578 15.2483
# 4 10.0432 29.8381 33.8182 55.7289 12.1585 10.9920
# 5 -5.1717 3.3955 1.5578 12.1585 48.5052 0.0653
# 6 2.4599 21.9108 15.2483 10.9920 0.0653 60.8513
#
#
#
# Elastic Compliance Matrix: (Units=1/GPa)
#
#
# Indices 1 2 3 4 5 6 
#
# 1 0.025204 -0.008153 0.002970 -0.003187 0.003959 0.001744
# 2 -0.008153 0.010618 -0.003785 -0.001201 -0.001187 -0.002327
# 3 0.002970 -0.003785 0.010734 -0.005264 0.001557 -0.000498
# 4 -0.003187 -0.001201 -0.005264 0.024186 -0.006146 -0.002482
# 5 0.003959 -0.001187 0.001557 -0.006146 0.022611 0.000963
# 6 0.001744 -0.002327 -0.000498 -0.002482 0.000963 0.017773
#
#
# Mechanical properties :
#
#
# Convention : Reuss Voigt Hill
#
# Bulk Modulus (GPa) = 34.94254 62.98130 48.96192
# Shear Modulus (GPa) = 36.07468 48.51386 42.29427
#
# Velocity S-wave (km/s) = 3.69044 4.27967 3.99593
# Velocity P-wave (km/s) = 5.59921 6.94250 6.30672
#
# Compressibility (1/GPa) = 0.02861841
#
# Stress axis : x y z
#
# Youngs Moduli (GPa) = 39.67699 94.17777 93.16543
#
# Poissons Ratio (x) = 0.76783 -0.27667
# Poissons Ratio (y) = 0.32349 0.35264
# Poissons Ratio (z) = -0.11783 0.35648
#
# Static dielectric constant tensor:
#      x y z
#    x 2.121640 0.025980 -0.041190 
#    y 0.025980 2.071190 0.014680 
#    z -0.041190 0.014680 2.193960 
# 
# From -- ./inp_files/37709.got.cif
#   From: 2010.05.17/outbox.cif.g08.bks.cpg/sg2_19_cif.got.tgz:37709.got - 2010.06.03 11:33:40.
