data_PCOD9001098
_publ_section_title
;
Structure prediction by ZEFSAII (Michael W. Deem and Ramdas Pophale) SiO2 
 PCOD9001098
Probable space group: P -1
;
_chemical_formula_sum "Si O2"
_cell_formula_units_Z 14
_cell_length_a 16.483672
_cell_length_b 10.165608
_cell_length_c 9.973542
_cell_angle_alpha 58.693066
_cell_angle_beta 117.698834
_cell_angle_gamma 155.527603
_cell_volume 591.356361
_symmetry_space_group_name_H-M "P -1"
_symmetry_group_IT_number 2
_symmetry_cell_setting 'triclinic'
loop_
_space_group_symop_operation_xyz
x,y,z
-x,-y,-z
loop_
_atom_site_type_symbol
_atom_site_label
_atom_site_fract_x
_atom_site_fract_y
_atom_site_fract_z
Si Si1 0.084738 0.759956 0.104045
Si Si2 0.108706 0.828472 0.670988
Si Si3 0.359797 0.329021 0.816819
Si Si4 0.478181 0.604357 0.319468
Si Si5 0.982218 0.653783 0.380826
Si Si6 0.830835 0.649375 0.893406
Si Si7 0.745564 0.548971 0.181885
O O1 0.054843 0.532609 0.211774
O O2 0.075012 0.810664 0.221431
O O3 0.907416 0.587429 0.983384
O O4 0.277212 0.099704 0.993636
O O5 0.182775 0.062898 0.710969
O O6 0.068334 0.841526 0.488458
O O7 0.300595 0.001656 0.715387
O O8 0.529494 0.501437 0.770895
O O9 0.389900 0.541458 0.787503
O O10 0.500000 0.500000 0.500000
O O11 0.313697 0.490220 0.252877
O O12 0.769944 0.414971 0.329869
O O13 0.000000 0.500000 0.500000
O O14 0.717903 0.500437 0.027735
O O15 0.034922 0.049132 0.843989
#
# Coordination Sequence:
#
# PCOD9001098 Si02
#       7
#     2   2   2   2   2   2   2
#     4   9  17  35  56  77  97 134 182 210 242 303
#     4   9  19  32  52  77 107 134 164 213 259 297
#     4   9  20  32  52  79 102 133 171 216 256 296
#     4  10  21  34  47  76 109 138 166 206 270 307
#     4   9  17  31  54  77 101 132 168 211 253 297
#     4   9  18  32  53  74 100 135 173 209 253 303
#     4   9  17  33  53  76  98 133 178 213 242 300
#
# _framework density 23.674386999999999
#
# number of rings (size 3 to 8) (size 9 to 14) (size 15 to 20)
#    0.857    2.000    0.000    2.143    0.000    1.714 
#    2.571    0.000    0.000    0.000    0.000    9.000 
#    0.000    0.000    0.000    0.000    0.000    0.000 
#
# Total GULP energy -77937.412162 kJ/mol
# GULP energy per Si atom -5566.958012 kJ/mol
# Density = 2.362050 g / cm^3
# Si number density = 23.674387 Si / 1000 Ang^3
#
#
#
# Elastic Constant Matrix: (Units=GPa)
#
#
# Indices 1 2 3 4 5 6 
#
# 1 75.3871 5.7505 40.7210 14.6279 0.8111 2.0270
# 2 5.7505 20.4290 19.2179 10.4870 10.7759 7.7878
# 3 40.7210 19.2179 124.9955 22.9693 8.6790 12.5894
# 4 14.6279 10.4870 22.9693 30.6740 0.3327 5.4817
# 5 0.8111 10.7759 8.6790 0.3327 40.2048 8.5417
# 6 2.0270 7.7878 12.5894 5.4817 8.5417 24.9640
#
#
#
# Elastic Compliance Matrix: (Units=1/GPa)
#
#
# Indices 1 2 3 4 5 6 
#
# 1 0.016776 0.002107 -0.004977 -0.005296 -0.000147 0.001704
# 2 0.002107 0.078437 -0.006655 -0.020710 -0.017149 -0.010869
# 3 -0.004977 -0.006655 0.011557 -0.003548 -0.000038 -0.002556
# 4 -0.005296 -0.020710 -0.003548 0.045439 0.006819 -0.003631
# 5 -0.000147 -0.017149 -0.000038 0.006819 0.030841 -0.006669
# 6 0.001704 -0.010869 -0.002556 -0.003631 -0.006669 0.047678
#
#
# Mechanical properties :
#
#
# Convention : Reuss Voigt Hill
#
# Bulk Modulus (GPa) = 11.40000 39.13229 25.26614
# Shear Modulus (GPa) = 17.91993 29.51004 23.71499
#
# Velocity S-wave (km/s) = 2.75423 3.53441 3.16842
# Velocity P-wave (km/s) = 3.86525 5.76379 4.90721
#
# Compressibility (1/GPa) = 0.08771931
#
# Stress axis : x y z
#
# Youngs Moduli (GPa) = 59.60820 12.74903 86.52674
#
# Poissons Ratio (x) = -0.02686 0.43068
# Poissons Ratio (y) = -0.12558 0.57583
# Poissons Ratio (z) = 0.29670 0.08484
#
# Static dielectric constant tensor:
#      x y z
#    x 1.965080 0.019300 -0.009940 
#    y 0.019300 2.016660 0.009290 
#    z -0.009940 0.009290 1.953430 
# 
# From -- ./inp_files/330791.got.cif
#   From: 2010.05.17/outbox.cif.g08.bks.cpg/sg2_166_cif.got.tgz:330791.got - 2010.06.03 11:33:40.
