data_PCOD9001330
_publ_section_title
;
Structure prediction by ZEFSAII (Michael W. Deem and Ramdas Pophale) SiO2 
 PCOD9001330
Probable space group: P -1
;
_chemical_formula_sum "Si O2"
_cell_formula_units_Z 16
_cell_length_a 15.101029
_cell_length_b 5.477651
_cell_length_c 20.916131
_cell_angle_alpha 90.007960
_cell_angle_beta 155.363249
_cell_angle_gamma 79.543890
_cell_volume 649.404716
_symmetry_space_group_name_H-M "P -1"
_symmetry_group_IT_number 2
_symmetry_cell_setting 'triclinic'
loop_
_space_group_symop_operation_xyz
x,y,z
-x,-y,-z
loop_
_atom_site_type_symbol
_atom_site_label
_atom_site_fract_x
_atom_site_fract_y
_atom_site_fract_z
Si Si1 0.389513 0.805041 0.015078
Si Si2 0.714581 0.642285 0.540390
Si Si3 0.890513 0.054247 0.515179
Si Si4 0.840941 0.079101 0.629571
Si Si5 0.196096 0.901899 0.184597
Si Si6 0.888566 0.556182 0.306680
Si Si7 0.980177 0.509951 0.909848
Si Si8 0.445585 0.277066 0.132313
O O1 0.609913 0.695151 0.110850
O O2 0.418859 0.540850 0.074788
O O3 0.124997 0.937163 0.815190
O O4 0.418564 0.039949 0.074672
O O5 0.739756 0.375498 0.592713
O O6 0.467197 0.766088 0.340340
O O7 0.944645 0.527219 0.645698
O O8 0.739920 0.883796 0.592842
O O9 0.040658 0.729329 0.611018
O O10 0.772585 0.113203 0.509016
O O11 0.689956 0.154807 0.330820
O O12 0.041018 0.228629 0.611319
O O13 0.149585 0.676202 0.191608
O O14 0.149869 0.174141 0.191756
O O15 0.000000 0.000000 0.000000
O O16 0.000000 0.500000 0.000000
O O17 0.234394 0.382989 0.044866
#
# Coordination Sequence:
#
# PCOD9001330 Si02
#       8
#     2   2   2   2   2   2   2   2
#     4  12  26  45  65  97 140 190 208 259 343 408
#     4  10  21  38  65 102 128 170 226 282 311 379
#     4  10  23  39  67  96 129 174 230 279 306 372
#     4  10  23  41  68  94 135 179 225 270 320 384
#     4  10  21  34  65  99 128 158 211 281 337 373
#     4  10  23  38  66  96 142 173 222 266 327 387
#     4  10  23  38  65  97 124 166 214 279 319 390
#     4  12  26  43  69  97 139 170 224 271 336 399
#
# _framework density 24.63795
#
# number of rings (size 3 to 8) (size 9 to 14) (size 15 to 20)
#    0.000    1.500    0.000    3.750   14.000    7.000 
#    0.000    0.000    0.000   15.000    0.000    0.000 
#    0.000    0.000    0.000    0.000    0.000    0.000 
#
# Total GULP energy -89531.921945 kJ/mol
# GULP energy per Si atom -5595.745122 kJ/mol
# Density = 2.458187 g / cm^3
# Si number density = 24.637950 Si / 1000 Ang^3
#
#
#
# Elastic Constant Matrix: (Units=GPa)
#
#
# Indices 1 2 3 4 5 6 
#
# 1 69.2684 35.2707 25.0575 3.7003 -4.6518 -5.8023
# 2 35.2707 253.7968 56.3401 -1.7940 -2.9081 57.0229
# 3 25.0575 56.3401 148.7493 -1.1383 4.2869 8.5792
# 4 3.7003 -1.7940 -1.1383 31.5963 -1.9503 3.7896
# 5 -4.6518 -2.9081 4.2869 -1.9503 38.9325 1.8676
# 6 -5.8023 57.0229 8.5792 3.7896 1.8676 24.3439
#
#
#
# Elastic Compliance Matrix: (Units=1/GPa)
#
#
# Indices 1 2 3 4 5 6 
#
# 1 0.022599 -0.009117 -0.002061 -0.006618 0.000550 0.028456
# 2 -0.009117 0.013121 -0.001517 0.005890 0.001957 -0.033441
# 3 -0.002061 -0.001517 0.007658 0.000308 -0.001207 0.000407
# 4 -0.006618 0.005890 0.000308 0.035459 0.002408 -0.021186
# 5 0.000550 0.001957 -0.001207 0.002408 0.026459 -0.006433
# 6 0.028456 -0.033441 0.000407 -0.021186 -0.006433 0.129840
#
#
# Mechanical properties :
#
#
# Convention : Reuss Voigt Hill
#
# Bulk Modulus (GPa) = 55.59272 78.35012 66.97142
# Shear Modulus (GPa) = 18.76013 42.65096 30.70554
#
# Velocity S-wave (km/s) = 2.76240 4.16517 3.53409
# Velocity P-wave (km/s) = 5.72602 7.41628 6.62527
#
# Compressibility (1/GPa) = 0.01798797
#
# Stress axis : x y z
#
# Youngs Moduli (GPa) = 44.25045 76.21173 130.58105
#
# Poissons Ratio (x) = 0.69482 0.26918
# Poissons Ratio (y) = 0.40343 0.19804
# Poissons Ratio (z) = 0.09122 0.11559
#
# Static dielectric constant tensor:
#      x y z
#    x 1.864460 0.062660 0.032550 
#    y 0.062660 2.076870 -0.009600 
#    z 0.032550 -0.009600 1.899270 
# 
# From -- ./inp_files/612682.got.cif
#   From: 2010.05.17/outbox.cif.g08.bks.cpg/sg2_307_cif.got.tgz:612682.got - 2010.06.03 11:33:40.
