data_PCOD9001174
_publ_section_title
;
Structure prediction by ZEFSAII (Michael W. Deem and Ramdas Pophale) SiO2 
 PCOD9001174
Probable space group: P -1
;
_chemical_formula_sum "Si O2"
_cell_formula_units_Z 14
_cell_length_a 9.929331
_cell_length_b 17.483946
_cell_length_c 8.209334
_cell_angle_alpha 148.420262
_cell_angle_beta 56.141555
_cell_angle_gamma 129.116144
_cell_volume 578.383115
_symmetry_space_group_name_H-M "P -1"
_symmetry_group_IT_number 2
_symmetry_cell_setting 'triclinic'
loop_
_space_group_symop_operation_xyz
x,y,z
-x,-y,-z
loop_
_atom_site_type_symbol
_atom_site_label
_atom_site_fract_x
_atom_site_fract_y
_atom_site_fract_z
Si Si1 0.023465 0.730254 0.389771
Si Si2 0.702528 0.303214 0.627943
Si Si3 0.851538 0.601973 0.835424
Si Si4 0.529409 0.804641 0.710469
Si Si5 0.798561 0.343978 0.169182
Si Si6 0.382412 0.470501 0.686177
Si Si7 0.119466 0.107086 0.477090
O O1 0.155201 0.758889 0.503069
O O2 0.999021 0.866445 0.541437
O O3 0.115541 0.651340 0.054311
O O4 0.788756 0.733964 0.188125
O O5 0.797366 0.463610 0.754236
O O6 0.569542 0.196894 0.393925
O O7 0.602485 0.364847 0.945012
O O8 0.060117 0.681576 0.849934
O O9 0.824137 0.626382 0.376459
O O10 0.387434 0.792140 0.924417
O O11 0.559627 0.641366 0.434950
O O12 0.723283 0.926330 0.776761
O O13 0.797715 0.511122 0.537825
O O14 0.500000 0.500000 0.500000
O O15 0.000000 0.000000 0.500000
#
# Coordination Sequence:
#
# PCOD9001174 Si02
#       7
#     2   2   2   2   2   2   2
#     4  10  21  37  54  87 118 150 181 233 293 339
#     4  11  19  34  54  86 123 140 179 241 299 333
#     4   9  18  32  56  85 112 147 180 229 295 336
#     4  10  21  34  55  88 112 148 190 233 285 339
#     4   9  17  31  56  84 116 138 182 233 291 335
#     4  11  21  31  51  85 124 149 176 224 290 351
#     4  10  21  39  57  77 116 160 195 227 273 338
#
# _framework density 24.205409
#
# number of rings (size 3 to 8) (size 9 to 14) (size 15 to 20)
#    0.000    2.000    4.286    1.714    4.000    0.000 
#    0.000    3.571    0.000    0.000    0.000   53.000 
#    0.000    0.571    0.000    0.000    0.000    0.000 
#
# Total GULP energy -78047.866323 kJ/mol
# GULP energy per Si atom -5574.847595 kJ/mol
# Density = 2.415032 g / cm^3
# Si number density = 24.205409 Si / 1000 Ang^3
#
#
#
# Elastic Constant Matrix: (Units=GPa)
#
#
# Indices 1 2 3 4 5 6 
#
# 1 162.7333 55.8868 21.9877 -10.1907 -14.8399 -19.8837
# 2 55.8868 148.2359 28.4569 -27.4080 -15.3873 7.7751
# 3 21.9877 28.4569 67.5236 -26.5528 -7.7188 5.4119
# 4 -10.1907 -27.4080 -26.5528 34.5755 4.0120 -12.2682
# 5 -14.8399 -15.3873 -7.7188 4.0120 22.9772 -13.8618
# 6 -19.8837 7.7751 5.4119 -12.2682 -13.8618 41.6421
#
#
#
# Elastic Compliance Matrix: (Units=1/GPa)
#
#
# Indices 1 2 3 4 5 6 
#
# 1 0.009012 -0.002400 -0.000773 0.002121 0.008618 0.008346
# 2 -0.002400 0.009172 -0.000369 0.005907 0.003492 0.000092
# 3 -0.000773 -0.000369 0.022448 0.017410 0.006142 0.003956
# 4 0.002121 0.005907 0.017410 0.052254 0.012411 0.017173
# 5 0.008618 0.003492 0.006142 0.012411 0.068990 0.029287
# 6 0.008346 0.000092 0.003956 0.017173 0.029287 0.042276
#
#
# Mechanical properties :
#
#
# Convention : Reuss Voigt Hill
#
# Bulk Modulus (GPa) = 29.80799 65.68396 47.74598
# Shear Modulus (GPa) = 22.48015 37.98307 30.23161
#
# Velocity S-wave (km/s) = 3.05080 3.96561 3.53790
# Velocity P-wave (km/s) = 4.97506 6.93996 6.03797
#
# Compressibility (1/GPa) = 0.03354805
#
# Stress axis : x y z
#
# Youngs Moduli (GPa) = 110.96103 109.03230 44.54721
#
# Poissons Ratio (x) = 0.26171 0.03442
# Poissons Ratio (y) = 0.26634 0.01644
# Poissons Ratio (z) = 0.08573 0.04023
#
# Static dielectric constant tensor:
#      x y z
#    x 2.025290 -0.000600 -0.003420 
#    y -0.000600 1.986860 0.002450 
#    z -0.003420 0.002450 2.087750 
# 
# From -- ./inp_files/265825.got.cif
#   From: 2010.05.17/outbox.cif.g08.bks.cpg/sg2_133_cif.got.tgz:265825.got - 2010.06.03 11:33:40.
