data_PCOD9001241
_publ_section_title
;
Structure prediction by ZEFSAII (Michael W. Deem and Ramdas Pophale) SiO2 
 PCOD9001241
Probable space group: P -1
;
_chemical_formula_sum "Si O2"
_cell_formula_units_Z 14
_cell_length_a 11.997797
_cell_length_b 15.244564
_cell_length_c 13.424791
_cell_angle_alpha 159.979513
_cell_angle_beta 128.327033
_cell_angle_gamma 53.548342
_cell_volume 658.854790
_symmetry_space_group_name_H-M "P -1"
_symmetry_group_IT_number 2
_symmetry_cell_setting 'triclinic'
loop_
_space_group_symop_operation_xyz
x,y,z
-x,-y,-z
loop_
_atom_site_type_symbol
_atom_site_label
_atom_site_fract_x
_atom_site_fract_y
_atom_site_fract_z
Si Si1 0.639812 0.478378 0.741487
Si Si2 0.025452 0.776391 0.856434
Si Si3 0.360048 0.283475 0.794183
Si Si4 0.085122 0.127191 0.889747
Si Si5 0.312303 0.736911 0.098388
Si Si6 0.047965 0.584552 0.225135
Si Si7 0.408170 0.056856 0.912554
O O1 0.781393 0.423241 0.696931
O O2 0.577365 0.199351 0.420444
O O3 0.683686 0.603665 0.002918
O O4 0.549886 0.692487 0.857821
O O5 0.000000 0.500000 0.500000
O O6 0.183603 0.765528 0.979991
O O7 0.922252 0.836752 0.957955
O O8 0.000000 0.000000 0.000000
O O9 0.532318 0.278976 0.883412
O O10 0.313802 0.996557 0.441847
O O11 0.306837 0.481556 0.890302
O O12 0.245014 0.102793 0.908496
O O13 0.007167 0.872076 0.541449
O O14 0.009485 0.374367 0.060002
O O15 0.000000 0.500000 0.000000
O O16 0.500000 0.000000 0.000000
#
# Coordination Sequence:
#
# PCOD9001241 Si02
#       7
#     2   2   2   2   2   2   2
#     4  10  21  34  58  87 111 144 198 230 292 361
#     4  12  26  42  62  89 122 167 211 243 304 366
#     4  10  21  40  61  89 116 153 200 255 303 354
#     4  10  23  39  56  86 119 148 195 242 283 348
#     4  10  23  39  61  85 120 155 201 254 303 346
#     4  10  21  36  58  88 115 149 183 232 304 354
#     4  10  21  38  56  83 117 155 188 237 289 348
#
# _framework density 21.248992000000001
#
# number of rings (size 3 to 8) (size 9 to 14) (size 15 to 20)
#    0.000    1.714    0.000    3.429    4.000    2.286 
#    0.000    0.000    0.000    0.000    0.000    0.000 
#    0.000    0.000    0.000    0.000    0.000    0.000 
#
# Total GULP energy -78217.355641 kJ/mol
# GULP energy per Si atom -5586.953974 kJ/mol
# Density = 2.120063 g / cm^3
# Si number density = 21.248992 Si / 1000 Ang^3
#
#
#
# Elastic Constant Matrix: (Units=GPa)
#
#
# Indices 1 2 3 4 5 6 
#
# 1 37.6962 30.2789 37.0920 19.1965 -18.7266 2.1394
# 2 30.2789 32.5333 -63.9725 -14.9682 20.2086 -10.9035
# 3 37.0920 -63.9725 46.5946 -14.1827 4.0575 -6.1367
# 4 19.1965 -14.9682 -14.1827 28.4028 9.6370 -2.0531
# 5 -18.7266 20.2086 4.0575 9.6370 16.1137 -7.4326
# 6 2.1394 -10.9035 -6.1367 -2.0531 -7.4326 36.6615
#
#
#
# Elastic Compliance Matrix: (Units=1/GPa)
#
#
# Indices 1 2 3 4 5 6 
#
# 1 0.009214 0.009116 0.006800 0.003207 -0.003028 0.002878
# 2 0.009116 0.005214 -0.003453 -0.008777 0.011198 0.002219
# 3 0.006800 -0.003453 0.007906 -0.007745 0.016137 0.002737
# 4 0.003207 -0.008777 -0.007745 0.023959 0.001198 -0.002509
# 5 -0.003028 0.011198 0.016137 0.001198 0.047008 0.015805
# 6 0.002878 0.002219 0.002737 -0.002509 0.015805 0.031291
#
#
# Mechanical properties :
#
#
# Convention : Reuss Voigt Hill
#
# Bulk Modulus (GPa) = 21.15977 13.73564 17.44771
# Shear Modulus (GPa) = 43.32055 23.79730 33.55893
#
# Velocity S-wave (km/s) = 4.52011 3.35016 3.97838
# Velocity P-wave (km/s) = 6.10094 4.63065 5.41592
#
# Compressibility (1/GPa) = 0.04725950
#
# Stress axis : x y z
#
# Youngs Moduli (GPa) = 108.52914 191.79975 126.49095
#
# Poissons Ratio (x) = -1.74845 -0.86012
# Poissons Ratio (y) = -0.98935 0.43676
# Poissons Ratio (z) = -0.73798 0.66227
#
# Static dielectric constant tensor:
#      x y z
#    x 1.786390 -0.026260 0.020090 
#    y -0.026260 1.776680 0.062690 
#    z 0.020090 0.062690 1.798410 
# 
# From -- ./inp_files/66533.got.cif
#   From: 2010.05.17/outbox.cif.g08.bks.cpg/sg2_34_cif.got.tgz:66533.got - 2010.06.03 11:33:40.
