data_PCOD9001256
_publ_section_title
;
Structure prediction by ZEFSAII (Michael W. Deem and Ramdas Pophale) SiO2 
 PCOD9001256
Probable space group: P -1
;
_chemical_formula_sum "Si O2"
_cell_formula_units_Z 14
_cell_length_a 14.132140
_cell_length_b 9.163512
_cell_length_c 11.498792
_cell_angle_alpha 53.757512
_cell_angle_beta 29.387853
_cell_angle_gamma 65.450434
_cell_volume 570.362022
_symmetry_space_group_name_H-M "P -1"
_symmetry_group_IT_number 2
_symmetry_cell_setting 'triclinic'
loop_
_space_group_symop_operation_xyz
x,y,z
-x,-y,-z
loop_
_atom_site_type_symbol
_atom_site_label
_atom_site_fract_x
_atom_site_fract_y
_atom_site_fract_z
Si Si1 0.585921 0.687228 0.244459
Si Si2 0.690184 0.084732 0.484408
Si Si3 0.971421 0.717545 0.151507
Si Si4 0.576702 0.825823 0.544665
Si Si5 0.460260 0.425558 0.905462
Si Si6 0.843385 0.608202 0.570038
Si Si7 0.021750 0.647124 0.799417
O O1 0.500000 0.500000 0.500000
O O2 0.506730 0.841195 0.325539
O O3 0.508190 0.673591 0.201151
O O4 0.818679 0.707281 0.975822
O O5 0.813475 0.167407 0.427868
O O6 0.621631 0.876084 0.609293
O O7 0.842183 0.179267 0.173237
O O8 0.946044 0.495068 0.267168
O O9 0.774962 0.786280 0.292225
O O10 0.974516 0.753910 0.268653
O O11 0.425439 0.623646 0.802152
O O12 0.500000 0.000000 0.500000
O O13 0.654820 0.483781 0.753836
O O14 0.264858 0.329224 0.232362
O O15 0.000000 0.500000 0.500000
O O16 0.000000 0.500000 0.000000
#
# Coordination Sequence:
#
# PCOD9001256 Si02
#       7
#     2   2   2   2   2   2   2
#     4  12  21  37  63  88 126 160 204 258 308 357
#     4  11  23  36  57  94 128 156 192 250 316 378
#     4  10  21  40  59  92 121 156 209 251 298 360
#     4  11  24  36  59  87 135 166 189 249 317 377
#     4  10  24  42  60  96 120 160 213 248 304 364
#     4  10  21  38  66  86 121 161 210 261 288 350
#     4  10  21  34  59  86 123 161 203 251 297 362
#
# _framework density 24.545812000000002
#
# number of rings (size 3 to 8) (size 9 to 14) (size 15 to 20)
#    0.000    1.429    2.857    3.857   10.000    0.000 
#    0.000    0.000    0.000   13.714    0.000   27.000 
#    0.000    0.000    0.000    0.000    0.000    0.000 
#
# Total GULP energy -78127.202696 kJ/mol
# GULP energy per Si atom -5580.514478 kJ/mol
# Density = 2.448994 g / cm^3
# Si number density = 24.545812 Si / 1000 Ang^3
#
#
#
# Elastic Constant Matrix: (Units=GPa)
#
#
# Indices 1 2 3 4 5 6 
#
# 1 89.5996 19.6265 33.3133 17.3675 -4.0664 -9.0585
# 2 19.6265 102.3971 47.2692 37.7331 -4.1722 10.3770
# 3 33.3133 47.2692 117.6659 43.6024 13.7472 0.0400
# 4 17.3675 37.7331 43.6024 43.5595 -1.9979 1.6391
# 5 -4.0664 -4.1722 13.7472 -1.9979 51.6675 7.6407
# 6 -9.0585 10.3770 0.0400 1.6391 7.6407 46.9906
#
#
#
# Elastic Compliance Matrix: (Units=1/GPa)
#
#
# Indices 1 2 3 4 5 6 
#
# 1 0.013051 -0.000736 -0.002939 -0.001659 0.001312 0.002525
# 2 -0.000736 0.015210 -0.002268 -0.010396 0.001881 -0.003442
# 3 -0.002939 -0.002268 0.015572 -0.012737 -0.005230 0.001216
# 4 -0.001659 -0.010396 -0.012737 0.045578 0.004224 -0.000290
# 5 0.001312 0.001881 -0.005230 0.004224 0.021732 -0.003839
# 6 0.002525 -0.003442 0.001216 -0.000290 -0.003839 0.023161
#
#
# Mechanical properties :
#
#
# Convention : Reuss Voigt Hill
#
# Bulk Modulus (GPa) = 31.30055 56.67564 43.98810
# Shear Modulus (GPa) = 31.87962 42.40711 37.14336
#
# Velocity S-wave (km/s) = 3.60777 4.16104 3.89424
# Velocity P-wave (km/s) = 5.48947 6.79893 6.17899
#
# Compressibility (1/GPa) = 0.03194832
#
# Stress axis : x y z
#
# Youngs Moduli (GPa) = 76.62217 65.74412 64.21749
#
# Poissons Ratio (x) = 0.04839 0.18871
# Poissons Ratio (y) = 0.05639 0.14565
# Poissons Ratio (z) = 0.22516 0.14912
#
# Static dielectric constant tensor:
#      x y z
#    x 2.125390 0.010150 -0.019600 
#    y 0.010150 2.090900 0.029300 
#    z -0.019600 0.029300 1.993380 
# 
# From -- ./inp_files/445588.got.cif
#   From: 2010.05.17/outbox.cif.g08.bks.cpg/sg2_223_cif.got.tgz:445588.got - 2010.06.03 11:33:40.
