data_PCOD9001371
_publ_section_title
;
Structure prediction by ZEFSAII (Michael W. Deem and Ramdas Pophale) SiO2 
 PCOD9001371
Probable space group: P -1
;
_chemical_formula_sum "Si O2"
_cell_formula_units_Z 16
_cell_length_a 13.879302
_cell_length_b 5.704398
_cell_length_c 12.206523
_cell_angle_alpha 64.507182
_cell_angle_beta 51.707427
_cell_angle_gamma 89.698109
_cell_volume 636.332671
_symmetry_space_group_name_H-M "P -1"
_symmetry_group_IT_number 2
_symmetry_cell_setting 'triclinic'
loop_
_space_group_symop_operation_xyz
x,y,z
-x,-y,-z
loop_
_atom_site_type_symbol
_atom_site_label
_atom_site_fract_x
_atom_site_fract_y
_atom_site_fract_z
Si Si1 0.705043 0.331820 0.368760
Si Si2 0.974516 0.021743 0.743633
Si Si3 0.326464 0.869689 0.232045
Si Si4 0.890969 0.192176 0.127080
Si Si5 0.914831 0.337184 0.414310
Si Si6 0.237224 0.110547 0.915252
Si Si7 0.522827 0.068295 0.259025
Si Si8 0.505620 0.596066 0.101480
O O1 0.749932 0.189929 0.264089
O O2 0.813294 0.358252 0.384285
O O3 0.716966 0.626182 0.251534
O O4 0.559829 0.142995 0.547888
O O5 0.000152 0.352942 0.661463
O O6 0.075288 0.997659 0.770545
O O7 0.007418 0.851001 0.653559
O O8 0.830518 0.855075 0.931205
O O9 0.180597 0.815656 0.386284
O O10 0.362028 0.600517 0.231205
O O11 0.418138 0.984495 0.249997
O O12 0.387091 0.090724 0.048259
O O13 0.884394 0.107535 0.023837
O O14 0.000000 0.500000 0.000000
O O15 0.350069 0.983737 0.861389
O O16 0.544319 0.393069 0.195641
O O17 0.500000 0.500000 0.000000
#
# Coordination Sequence:
#
# PCOD9001371 Si02
#       8
#     2   2   2   2   2   2   2   2
#     4  10  21  35  53  82 123 161 203 250 299 352
#     4  11  22  37  57  87 120 165 214 254 298 347
#     4   9  20  39  63  91 116 147 190 264 311 369
#     4  11  21  36  56  80 114 171 215 260 285 345
#     4  10  22  36  64  89 118 155 213 264 295 361
#     4  12  22  36  55  81 128 167 206 246 301 355
#     4  10  23  36  56  90 121 159 199 247 308 379
#     4   9  19  38  64  90 114 149 195 242 319 372
#
# _framework density 25.144082000000001
#
# number of rings (size 3 to 8) (size 9 to 14) (size 15 to 20)
#    0.000    1.750    2.500    2.250    7.000    1.500 
#    0.000    0.000    0.000    1.500    0.000    0.000 
#    0.000    0.000    0.000    0.000    0.000    0.000 
#
# Total GULP energy -89411.958522 kJ/mol
# GULP energy per Si atom -5588.247408 kJ/mol
# Density = 2.508685 g / cm^3
# Si number density = 25.144082 Si / 1000 Ang^3
#
#
#
# Elastic Constant Matrix: (Units=GPa)
#
#
# Indices 1 2 3 4 5 6 
#
# 1 66.9544 26.5177 14.8556 1.0759 -4.9692 -1.6578
# 2 26.5177 158.2295 87.5573 20.1785 -8.0465 -23.8040
# 3 14.8556 87.5573 173.0177 17.8426 -14.3837 -14.2999
# 4 1.0759 20.1785 17.8426 39.7989 -4.0544 -2.6869
# 5 -4.9692 -8.0465 -14.3837 -4.0544 15.4637 11.6163
# 6 -1.6578 -23.8040 -14.2999 -2.6869 11.6163 36.1445
#
#
#
# Elastic Compliance Matrix: (Units=1/GPa)
#
#
# Indices 1 2 3 4 5 6 
#
# 1 0.016581 -0.003365 0.000414 0.001548 0.006924 -0.003402
# 2 -0.003365 0.010580 -0.004654 -0.003325 -0.005703 0.006558
# 3 0.000414 -0.004654 0.008612 -0.000937 0.006931 -0.001936
# 4 0.001548 -0.003325 -0.000937 0.027742 0.007237 -0.002753
# 5 0.006924 -0.005703 0.006931 0.007237 0.095426 -0.030827
# 6 -0.003402 0.006558 -0.001936 -0.002753 -0.030827 0.040766
#
#
# Mechanical properties :
#
#
# Convention : Reuss Voigt Hill
#
# Bulk Modulus (GPa) = 48.63183 72.89588 60.76385
# Shear Modulus (GPa) = 22.54561 36.23282 29.38922
#
# Velocity S-wave (km/s) = 2.99767 3.80018 3.42253
# Velocity P-wave (km/s) = 5.60041 6.95049 6.31166
#
# Compressibility (1/GPa) = 0.02056267
#
# Stress axis : x y z
#
# Youngs Moduli (GPa) = 60.30939 94.51831 116.11117
#
# Poissons Ratio (x) = 0.31806 -0.04807
# Poissons Ratio (y) = 0.20294 0.54043
# Poissons Ratio (z) = -0.02497 0.43993
#
# Static dielectric constant tensor:
#      x y z
#    x 2.036070 0.033120 0.015070 
#    y 0.033120 2.182190 -0.046950 
#    z 0.015070 -0.046950 1.996050 
# 
# From -- ./inp_files/127439.got.cif
#   From: 2010.05.17/outbox.cif.g08.bks.cpg/sg2_64_cif.got.tgz:127439.got - 2010.06.03 11:33:40.
