data_PCOD9001268
_publ_section_title
;
Structure prediction by ZEFSAII (Michael W. Deem and Ramdas Pophale) SiO2 
 PCOD9001268
Probable space group: P -1
;
_chemical_formula_sum "Si O2"
_cell_formula_units_Z 14
_cell_length_a 11.953227
_cell_length_b 21.065177
_cell_length_c 5.107925
_cell_angle_alpha 57.301332
_cell_angle_beta 54.114244
_cell_angle_gamma 31.287339
_cell_volume 538.792695
_symmetry_space_group_name_H-M "P -1"
_symmetry_group_IT_number 2
_symmetry_cell_setting 'triclinic'
loop_
_space_group_symop_operation_xyz
x,y,z
-x,-y,-z
loop_
_atom_site_type_symbol
_atom_site_label
_atom_site_fract_x
_atom_site_fract_y
_atom_site_fract_z
Si Si1 0.477570 0.092154 0.442056
Si Si2 0.608125 0.116078 0.682828
Si Si3 0.108232 0.774839 0.558724
Si Si4 0.180961 0.820814 0.859499
Si Si5 0.833157 0.611947 0.278019
Si Si6 0.576314 0.580667 0.586816
Si Si7 0.004856 0.677554 0.568916
O O1 0.612050 0.045880 0.629112
O O2 0.209298 0.218678 0.551493
O O3 0.500000 0.000000 0.500000
O O4 0.570320 0.107976 0.052001
O O5 0.781703 0.109268 0.426684
O O6 0.375934 0.256424 0.594893
O O7 0.037845 0.836867 0.801568
O O8 0.376832 0.645904 0.519244
O O9 0.015843 0.740942 0.619711
O O10 0.087499 0.850383 0.207922
O O11 0.423185 0.672515 0.838835
O O12 0.710299 0.600450 0.299848
O O13 0.000000 0.500000 0.500000
O O14 0.956524 0.622905 0.920968
O O15 0.764803 0.434917 0.657486
#
# Coordination Sequence:
#
# PCOD9001268 Si02
#       7
#     2   2   2   2   2   2   2
#     4  11  24  42  64  90 119 156 208 263 305 344
#     4  10  21  40  65  87 116 163 200 247 308 355
#     4  10  22  38  57  89 132 160 198 235 296 370
#     4   9  21  36  62  86 125 163 196 232 296 375
#     4  10  21  34  59  93 125 158 204 243 295 372
#     4   9  21  36  56  87 126 163 195 233 293 374
#     4  11  23  37  60  92 124 163 201 254 303 348
#
# _framework density 25.984017999999999
#
# number of rings (size 3 to 8) (size 9 to 14) (size 15 to 20)
#    0.857    1.143    0.000    3.000    6.000    4.000 
#    0.000    0.000    0.000    5.143    0.000    0.000 
#    0.000    0.000    0.000    0.000    0.000    0.000 
#
# Total GULP energy -78291.975197 kJ/mol
# GULP energy per Si atom -5592.283943 kJ/mol
# Density = 2.592488 g / cm^3
# Si number density = 25.984018 Si / 1000 Ang^3
#
#
#
# Elastic Constant Matrix: (Units=GPa)
#
#
# Indices 1 2 3 4 5 6 
#
# 1 103.1411 27.3937 -4.6169 8.7504 -8.5241 -4.3345
# 2 27.3937 76.5878 -7.3283 2.3480 5.4243 -16.8585
# 3 -4.6169 -7.3283 57.5933 2.5280 -4.9300 -14.4034
# 4 8.7504 2.3480 2.5280 23.0621 8.8091 3.7791
# 5 -8.5241 5.4243 -4.9300 8.8091 34.7673 -7.4568
# 6 -4.3345 -16.8585 -14.4034 3.7791 -7.4568 45.8768
#
#
#
# Elastic Compliance Matrix: (Units=1/GPa)
#
#
# Indices 1 2 3 4 5 6 
#
# 1 0.011961 -0.003940 0.001699 -0.006862 0.005900 0.001740
# 2 -0.003940 0.016358 0.003336 -0.001089 -0.001363 0.006554
# 3 0.001699 0.003336 0.021310 -0.007585 0.006948 0.009831
# 4 -0.006862 -0.001089 -0.007585 0.056067 -0.019189 -0.011168
# 5 0.005900 -0.001363 0.006948 -0.019189 0.038428 0.010065
# 6 0.001740 0.006554 0.009831 -0.011168 0.010065 0.030013
#
#
# Mechanical properties :
#
#
# Convention : Reuss Voigt Hill
#
# Bulk Modulus (GPa) = 19.29821 29.80213 24.55017
# Shear Modulus (GPa) = 26.42427 35.53284 30.97855
#
# Velocity S-wave (km/s) = 3.19241 3.70197 3.45659
# Velocity P-wave (km/s) = 4.58604 5.45592 5.03978
#
# Compressibility (1/GPa) = 0.05181828
#
# Stress axis : x y z
#
# Youngs Moduli (GPa) = 83.60602 61.13182 46.92604
#
# Poissons Ratio (x) = 0.24087 -0.07972
# Poissons Ratio (y) = 0.32942 -0.15654
# Poissons Ratio (z) = -0.14203 -0.20393
#
# Static dielectric constant tensor:
#      x y z
#    x 2.001870 -0.007060 -0.008480 
#    y -0.007060 2.226460 0.037840 
#    z -0.008480 0.037840 1.986650 
# 
# From -- ./inp_files/82457.got.cif
#   From: 2010.05.17/outbox.cif.g08.bks.cpg/sg2_42_cif.got.tgz:82457.got - 2010.06.03 11:33:40.
