data_PCOD9001159
_publ_section_title
;
Structure prediction by ZEFSAII (Michael W. Deem and Ramdas Pophale) SiO2 
 PCOD9001159
Probable space group: P -1
;
_chemical_formula_sum "Si O2"
_cell_formula_units_Z 16
_cell_length_a 11.932072
_cell_length_b 12.646767
_cell_length_c 9.059440
_cell_angle_alpha 85.771905
_cell_angle_beta 125.897410
_cell_angle_gamma 126.884341
_cell_volume 799.980389
_symmetry_space_group_name_H-M "P -1"
_symmetry_group_IT_number 2
_symmetry_cell_setting 'triclinic'
loop_
_space_group_symop_operation_xyz
x,y,z
-x,-y,-z
loop_
_atom_site_type_symbol
_atom_site_label
_atom_site_fract_x
_atom_site_fract_y
_atom_site_fract_z
Si Si1 0.571889 0.931093 0.868407
Si Si2 0.325789 0.493402 0.497220
Si Si3 0.838555 0.022070 0.807806
Si Si4 0.641924 0.203490 0.007312
Si Si5 0.764970 0.740568 0.773634
Si Si6 0.230753 0.811972 0.418212
Si Si7 0.003315 0.377748 0.479331
Si Si8 0.779420 0.367860 0.810228
O O1 0.512382 0.844585 0.983968
O O2 0.394123 0.836558 0.630500
O O3 0.748351 0.981898 0.906714
O O4 0.588787 0.063459 0.908657
O O5 0.552961 0.612094 0.690800
O O6 0.245070 0.348001 0.360947
O O7 0.199361 0.445841 0.549135
O O8 0.294408 0.576794 0.354984
O O9 0.734144 0.048844 0.615668
O O10 0.802838 0.883283 0.742003
O O11 0.056575 0.177977 0.983831
O O12 0.836969 0.280012 0.238059
O O13 0.672192 0.301476 0.889440
O O14 0.220403 0.742400 0.266163
O O15 0.053580 0.711277 0.404515
O O16 0.000000 0.500000 0.500000
O O17 0.000000 0.500000 0.000000
#
# Coordination Sequence:
#
# PCOD9001159 Si02
#       8
#     2   2   2   2   2   2   2   2
#     4  10  21  36  61  90 129 150 190 263 321 358
#     4  11  22  41  63  87 128 161 211 244 300 379
#     4  11  21  41  63  85 121 165 217 246 294 368
#     4  10  21  34  55 100 123 152 180 245 342 356
#     4  10  25  40  63  82 117 184 209 240 288 363
#     4  11  22  35  64  98 119 155 201 263 319 361
#     4  11  21  38  61  95 128 154 189 260 329 361
#     4  12  20  35  63  94 125 151 196 259 313 366
#
# _framework density 20.000491
#
# number of rings (size 3 to 8) (size 9 to 14) (size 15 to 20)
#    0.000    1.250    3.750    2.625    3.500    0.000 
#    0.000    1.250   11.000    0.000    0.000    0.000 
#    0.000    0.000    0.000    0.000    0.000    0.000 
#
# Total GULP energy -89281.104943 kJ/mol
# GULP energy per Si atom -5580.069059 kJ/mol
# Density = 1.995497 g / cm^3
# Si number density = 20.000491 Si / 1000 Ang^3
#
#
#
# Elastic Constant Matrix: (Units=GPa)
#
#
# Indices 1 2 3 4 5 6 
#
# 1 111.6051 45.2804 17.6984 -1.5244 -4.5752 23.5607
# 2 45.2804 91.1307 15.5220 -8.9776 -17.8932 14.7580
# 3 17.6984 15.5220 48.9578 10.4371 -3.0289 13.3429
# 4 -1.5244 -8.9776 10.4371 34.9664 7.6964 -6.7902
# 5 -4.5752 -17.8932 -3.0289 7.6964 21.9580 2.6740
# 6 23.5607 14.7580 13.3429 -6.7902 2.6740 43.1043
#
#
#
# Elastic Compliance Matrix: (Units=1/GPa)
#
#
# Indices 1 2 3 4 5 6 
#
# 1 0.012287 -0.005483 -0.001299 -0.001115 -0.001143 -0.004542
# 2 -0.005483 0.017074 -0.002308 0.001637 0.012199 -0.002633
# 3 -0.001299 -0.002308 0.027149 -0.012077 0.006952 -0.009238
# 4 -0.001115 0.001637 -0.012077 0.037999 -0.015188 0.010715
# 5 -0.001143 0.012199 0.006952 -0.015188 0.062989 -0.012004
# 6 -0.004542 -0.002633 -0.009238 0.010715 -0.012004 0.031876
#
#
# Mechanical properties :
#
#
# Convention : Reuss Voigt Hill
#
# Bulk Modulus (GPa) = 26.08820 45.41058 35.74939
# Shear Modulus (GPa) = 22.69328 31.55192 27.12260
#
# Velocity S-wave (km/s) = 3.37209 3.97616 3.68652
# Velocity P-wave (km/s) = 5.31351 6.62071 6.00280
#
# Compressibility (1/GPa) = 0.03833150
#
# Stress axis : x y z
#
# Youngs Moduli (GPa) = 81.38494 58.57024 36.83340
#
# Poissons Ratio (x) = 0.32112 0.04784
# Poissons Ratio (y) = 0.44621 0.08500
# Poissons Ratio (z) = 0.10571 0.13516
#
# Static dielectric constant tensor:
#      x y z
#    x 1.674120 0.099020 0.095890 
#    y 0.099020 1.582670 -0.012670 
#    z 0.095890 -0.012670 1.650130 
# 
# From -- ./inp_files/262592.got.cif
#   From: 2010.05.17/outbox.cif.g08.bks.cpg/sg2_132_cif.got.tgz:262592.got - 2010.06.03 11:33:40.
