data_PCOD9001253
_publ_section_title
;
Structure prediction by ZEFSAII (Michael W. Deem and Ramdas Pophale) SiO2 
 PCOD9001253
Probable space group: P -1
;
_chemical_formula_sum "Si O2"
_cell_formula_units_Z 14
_cell_length_a 16.989469
_cell_length_b 5.165920
_cell_length_c 13.928932
_cell_angle_alpha 70.305653
_cell_angle_beta 143.997468
_cell_angle_gamma 115.890724
_cell_volume 646.172535
_symmetry_space_group_name_H-M "P -1"
_symmetry_group_IT_number 2
_symmetry_cell_setting 'triclinic'
loop_
_space_group_symop_operation_xyz
x,y,z
-x,-y,-z
loop_
_atom_site_type_symbol
_atom_site_label
_atom_site_fract_x
_atom_site_fract_y
_atom_site_fract_z
Si Si1 0.716057 0.734942 0.331920
Si Si2 0.096793 0.662480 0.488568
Si Si3 0.575379 0.549502 0.855704
Si Si4 0.945315 0.741558 0.863458
Si Si5 0.317916 0.995442 0.931392
Si Si6 0.053611 0.648533 0.796617
Si Si7 0.203742 0.292540 0.100967
O O1 0.784306 0.494607 0.392926
O O2 0.655015 0.855228 0.163404
O O3 0.832925 0.008848 0.455473
O O4 0.589542 0.601435 0.296307
O O5 0.000000 0.500000 0.500000
O O6 0.007454 0.597922 0.310653
O O7 0.601512 0.792792 0.932659
O O8 0.655473 0.687893 0.820184
O O9 0.642813 0.302464 0.990153
O O10 0.934468 0.681470 0.747300
O O11 0.809321 0.738059 0.792960
O O12 0.071538 0.032590 0.967055
O O13 0.000000 0.500000 0.000000
O O14 0.151011 0.919329 0.800651
O O15 0.162833 0.569917 0.987024
#
# Coordination Sequence:
#
# PCOD9001253 Si02
#       7
#     2   2   2   2   2   2   2
#     4  12  25  40  57  85 123 163 203 231 288 347
#     4  12  26  40  59  82 122 166 203 240 270 348
#     4  11  22  38  60  88 120 156 191 247 299 348
#     4   9  17  34  56  92 109 143 185 247 311 340
#     4  11  21  36  61  86 117 157 196 246 294 339
#     4  10  21  34  59  83 121 149 197 238 299 335
#     4   9  19  33  60  88 116 140 190 250 305 342
#
# _framework density 21.666039000000001
#
# number of rings (size 3 to 8) (size 9 to 14) (size 15 to 20)
#    0.000    1.429    2.857    3.000    4.000    0.000 
#    0.000    0.000    0.000    1.714    0.000    0.000 
#    0.000    0.000    0.000    0.000    0.000    0.000 
#
# Total GULP energy -78182.699501 kJ/mol
# GULP energy per Si atom -5584.478536 kJ/mol
# Density = 2.161673 g / cm^3
# Si number density = 21.666039 Si / 1000 Ang^3
#
#
#
# Elastic Constant Matrix: (Units=GPa)
#
#
# Indices 1 2 3 4 5 6 
#
# 1 161.9324 11.4124 33.7284 15.4378 -1.2080 37.2325
# 2 11.4124 56.7061 -3.1316 3.6391 0.1851 11.4953
# 3 33.7284 -3.1316 37.6637 14.6975 -0.1694 11.5761
# 4 15.4378 3.6391 14.6975 28.4780 -5.8480 7.7746
# 5 -1.2080 0.1851 -0.1694 -5.8480 33.0693 14.0090
# 6 37.2325 11.4953 11.5761 7.7746 14.0090 32.5610
#
#
#
# Elastic Compliance Matrix: (Units=1/GPa)
#
#
# Indices 1 2 3 4 5 6 
#
# 1 0.010183 0.000011 -0.006113 0.002350 0.006123 -0.012670
# 2 0.000011 0.020153 0.005585 -0.001800 0.004006 -0.010407
# 3 -0.006113 0.005585 0.040740 -0.017304 -0.001035 -0.004888
# 4 0.002350 -0.001800 -0.017304 0.049934 0.014860 -0.014216
# 5 0.006123 0.004006 -0.001035 0.014860 0.046440 -0.031577
# 6 -0.012670 -0.010407 -0.004888 -0.014216 -0.031577 0.067590
#
#
# Mechanical properties :
#
#
# Convention : Reuss Voigt Hill
#
# Bulk Modulus (GPa) = 14.27750 37.81341 26.04545
# Shear Modulus (GPa) = 19.27362 33.10786 26.19074
#
# Velocity S-wave (km/s) = 2.98581 3.91333 3.48061
# Velocity P-wave (km/s) = 4.30010 6.15708 5.31039
#
# Compressibility (1/GPa) = 0.07004027
#
# Stress axis : x y z
#
# Youngs Moduli (GPa) = 98.20583 49.62019 24.54591
#
# Poissons Ratio (x) = -0.00053 0.15006
# Poissons Ratio (y) = -0.00104 -0.13709
# Poissons Ratio (z) = 0.60037 -0.27713
#
# Static dielectric constant tensor:
#      x y z
#    x 1.885180 -0.009120 0.033150 
#    y -0.009120 1.837380 -0.020330 
#    z 0.033150 -0.020330 1.776530 
# 
# From -- ./inp_files/120213.got.cif
#   From: 2010.05.17/outbox.cif.g08.bks.cpg/sg2_61_cif.got.tgz:120213.got - 2010.06.03 11:33:40.
