data_PCOD9001353
_publ_section_title
;
Structure prediction by ZEFSAII (Michael W. Deem and Ramdas Pophale) SiO2 
 PCOD9001353
Probable space group: P -1
;
_chemical_formula_sum "Si O2"
_cell_formula_units_Z 15
_cell_length_a 15.838409
_cell_length_b 11.291428
_cell_length_c 11.641617
_cell_angle_alpha 27.480670
_cell_angle_beta 125.404742
_cell_angle_gamma 136.789598
_cell_volume 642.709369
_symmetry_space_group_name_H-M "P -1"
_symmetry_group_IT_number 2
_symmetry_cell_setting 'triclinic'
loop_
_space_group_symop_operation_xyz
x,y,z
-x,-y,-z
loop_
_atom_site_type_symbol
_atom_site_label
_atom_site_fract_x
_atom_site_fract_y
_atom_site_fract_z
Si Si1 0.630702 0.346231 0.105996
Si Si2 0.265147 0.384201 0.468331
Si Si3 0.538222 0.394195 0.764339
Si Si4 0.153232 0.503711 0.697073
Si Si5 0.236816 0.871370 0.994672
Si Si6 0.865722 0.127378 0.839010
Si Si7 0.567726 0.303627 0.453960
Si Si8 0.500000 0.500000 0.000000
O O1 0.739345 0.341191 0.254451
O O2 0.491074 0.064186 0.289991
O O3 0.614973 0.332416 0.970065
O O4 0.624154 0.624935 0.908465
O O5 0.388050 0.513483 0.375218
O O6 0.192924 0.521724 0.242626
O O7 0.313887 0.530759 0.509153
O O8 0.192201 0.018533 0.742639
O O9 0.531979 0.674109 0.567474
O O10 0.391646 0.095493 0.911011
O O11 0.178309 0.729939 0.415526
O O12 0.017164 0.385583 0.741968
O O13 0.146390 0.194201 0.920036
O O14 0.198672 0.901081 0.066318
O O15 0.574134 0.459099 0.205674
#
# Coordination Sequence:
#
# PCOD9001353 Si02
#       8
#     2   2   2   2   2   2   2   1
#     4  11  23  34  58  82 121 160 183 248 296 360
#     4  11  23  37  60  86 120 156 200 239 290 348
#     4  10  23  37  54  90 116 157 196 238 296 352
#     4  10  24  40  63  83 122 157 199 248 287 357
#     4  11  21  36  62  86 114 153 197 251 282 349
#     4  10  23  43  60  89 113 159 206 241 294 344
#     4  10  21  35  51  83 118 158 185 235 289 362
#     4  10  24  34  48  90 124 148 196 228 306 362
#
# _framework density 23.338697
#
# number of rings (size 3 to 8) (size 9 to 14) (size 15 to 20)
#    0.000    1.600    1.333    3.200   13.067    0.000 
#    0.000    0.000    0.000    1.600    0.000    0.000 
#    0.000    0.000    0.000    0.000    0.000    0.000 
#
# Total GULP energy -83522.604141 kJ/mol
# GULP energy per Si atom -5568.173609 kJ/mol
# Density = 2.328558 g / cm^3
# Si number density = 23.338697 Si / 1000 Ang^3
#
#
#
# Elastic Constant Matrix: (Units=GPa)
#
#
# Indices 1 2 3 4 5 6 
#
# 1 66.7730 8.2734 41.9754 10.1912 -12.7931 -9.3459
# 2 8.2734 36.4351 14.0473 18.9580 -7.8200 6.5307
# 3 41.9754 14.0473 166.6800 20.4679 -3.7469 0.5796
# 4 10.1912 18.9580 20.4679 33.7201 -7.3472 -0.6643
# 5 -12.7931 -7.8200 -3.7469 -7.3472 36.2355 11.4054
# 6 -9.3459 6.5307 0.5796 -0.6643 11.4054 24.5719
#
#
#
# Elastic Compliance Matrix: (Units=1/GPa)
#
#
# Indices 1 2 3 4 5 6 
#
# 1 0.020010 -0.002780 -0.004657 -0.000714 0.003726 0.006711
# 2 -0.002780 0.045419 -0.000032 -0.022867 0.009963 -0.018371
# 3 -0.004657 -0.000032 0.007578 -0.003441 -0.001083 -0.001532
# 4 -0.000714 -0.022867 -0.003441 0.045300 0.001644 0.006349
# 5 0.003726 0.009963 -0.001083 0.001644 0.037065 -0.018365
# 6 0.006711 -0.018371 -0.001532 0.006349 -0.018365 0.056864
#
#
# Mechanical properties :
#
#
# Convention : Reuss Voigt Hill
#
# Bulk Modulus (GPa) = 17.22051 44.27558 30.74804
# Shear Modulus (GPa) = 20.28155 32.61165 26.44660
#
# Velocity S-wave (km/s) = 2.95109 3.74213 3.36990
# Velocity P-wave (km/s) = 4.35964 6.13869 5.32400
#
# Compressibility (1/GPa) = 0.05807030
#
# Stress axis : x y z
#
# Youngs Moduli (GPa) = 49.97488 22.01726 131.95311
#
# Poissons Ratio (x) = 0.06121 0.61448
# Poissons Ratio (y) = 0.13893 0.00420
# Poissons Ratio (z) = 0.23272 0.00070
#
# Static dielectric constant tensor:
#      x y z
#    x 1.033520 0.905150 -1.135130 
#    y 0.905150 0.948080 1.222260 
#    z -1.135130 1.222260 0.286480 
# 
# From -- ./inp_files/123293.got.cif
#   From: 2010.05.17/outbox.cif.g08.bks.cpg/sg2_62_cif.got.tgz:123293.got - 2010.06.03 11:33:40.
