data_PCOD9001354
_publ_section_title
;
Structure prediction by ZEFSAII (Michael W. Deem and Ramdas Pophale) SiO2 
 PCOD9001354
Probable space group: P -1
;
_chemical_formula_sum "Si O2"
_cell_formula_units_Z 16
_cell_length_a 16.084099
_cell_length_b 9.609319
_cell_length_c 9.008106
_cell_angle_alpha 46.703722
_cell_angle_beta 89.890839
_cell_angle_gamma 69.200347
_cell_volume 885.536485
_symmetry_space_group_name_H-M "P -1"
_symmetry_group_IT_number 2
_symmetry_cell_setting 'triclinic'
loop_
_space_group_symop_operation_xyz
x,y,z
-x,-y,-z
loop_
_atom_site_type_symbol
_atom_site_label
_atom_site_fract_x
_atom_site_fract_y
_atom_site_fract_z
Si Si1 0.430633 0.850409 0.463473
Si Si2 0.630530 0.700531 0.712243
Si Si3 0.898754 0.516095 0.497635
Si Si4 0.241187 0.520063 0.659147
Si Si5 0.743521 0.015496 0.171932
Si Si6 0.671340 0.334379 0.211064
Si Si7 0.211919 0.652065 0.235572
Si Si8 0.398537 0.018228 0.019740
O O1 0.540293 0.776451 0.549548
O O2 0.401723 0.687865 0.662855
O O3 0.372991 0.087314 0.370043
O O4 0.408847 0.879707 0.268395
O O5 0.723321 0.544989 0.731370
O O6 0.623568 0.552257 0.952018
O O7 0.858986 0.475173 0.371761
O O8 0.886347 0.351596 0.731253
O O9 0.000000 0.500000 0.500000
O O10 0.818712 0.760153 0.365252
O O11 0.248619 0.658296 0.691716
O O12 0.257500 0.598848 0.439837
O O13 0.322861 0.271761 0.864588
O O14 0.715225 0.134201 0.242785
O O15 0.788941 0.136193 0.986158
O O16 0.648042 0.048081 0.066325
O O17 0.500000 0.000000 0.000000
#
# Coordination Sequence:
#
# PCOD9001354 Si02
#       8
#     2   2   2   2   2   2   2   2
#     4  11  22  32  56  76 117 157 194 221 282 310
#     4  10  21  35  51  84 112 153 188 238 264 331
#     4   9  20  39  63  84 110 142 184 232 285 347
#     4   9  20  37  56  81 114 144 185 231 275 328
#     4  10  22  37  61  83 112 153 185 230 287 327
#     4  11  21  37  55  82 114 147 191 235 273 328
#     4   9  19  37  59  80 114 140 193 223 288 325
#     4  11  22  36  55  80 117 156 197 228 269 329
#
# _framework density 18.068144
#
# number of rings (size 3 to 8) (size 9 to 14) (size 15 to 20)
#    0.750    1.250    1.250    2.625    3.500    2.500 
#    0.000    5.000    0.000    3.000    0.000    0.000 
#    0.000    0.000    0.000    0.000    0.000    0.000 
#
# Total GULP energy -89194.793954 kJ/mol
# GULP energy per Si atom -5574.674622 kJ/mol
# Density = 1.802702 g / cm^3
# Si number density = 18.068144 Si / 1000 Ang^3
#
#
#
# Elastic Constant Matrix: (Units=GPa)
#
#
# Indices 1 2 3 4 5 6 
#
# 1 115.8811 29.9919 24.7657 10.0234 -6.1849 19.3496
# 2 29.9919 72.8282 4.6318 19.2860 5.2282 23.4379
# 3 24.7657 4.6318 63.2827 12.7063 -19.8421 -3.2732
# 4 10.0234 19.2860 12.7063 25.1100 5.0303 0.0384
# 5 -6.1849 5.2282 -19.8421 5.0303 26.8515 4.5781
# 6 19.3496 23.4379 -3.2732 0.0384 4.5781 16.8070
#
#
#
# Elastic Compliance Matrix: (Units=1/GPa)
#
#
# Indices 1 2 3 4 5 6 
#
# 1 0.012957 0.003181 -0.003643 -0.006650 0.004548 -0.021286
# 2 0.003181 0.042883 0.004629 -0.039352 0.014500 -0.066421
# 3 -0.003643 0.004629 0.028464 -0.021271 0.023816 -0.003156
# 4 -0.006650 -0.039352 -0.021271 0.091044 -0.038345 0.068627
# 5 0.004548 0.014500 0.023816 -0.038345 0.066890 -0.038951
# 6 -0.021286 -0.066421 -0.003156 0.068627 -0.038951 0.186470
#
#
# Mechanical properties :
#
#
# Convention : Reuss Voigt Hill
#
# Bulk Modulus (GPa) = 10.79488 41.19676 25.99582
# Shear Modulus (GPa) = 11.08020 26.59387 18.83704
#
# Velocity S-wave (km/s) = 2.47907 3.84065 3.23237
# Velocity P-wave (km/s) = 3.76588 6.52056 5.32445
#
# Compressibility (1/GPa) = 0.09263648
#
# Stress axis : x y z
#
# Youngs Moduli (GPa) = 77.17699 23.31945 35.13158
#
# Poissons Ratio (x) = -0.07417 0.12800
# Poissons Ratio (y) = -0.24547 -0.16262
# Poissons Ratio (z) = 0.28118 -0.10794
#
# Static dielectric constant tensor:
#      x y z
#    x 1.615540 0.024860 -0.027230 
#    y 0.024860 1.620560 0.000070 
#    z -0.027230 0.000070 1.628850 
# 
# From -- ./inp_files/297493.got.cif
#   From: 2010.05.17/outbox.cif.g08.bks.cpg/sg2_149_cif.got.tgz:297493.got - 2010.06.03 11:33:40.
