data_PCOD9001631
_publ_section_title
;
Structure prediction by ZEFSAII (Michael W. Deem and Ramdas Pophale) SiO2 
 PCOD9001631
Probable space group: P -1
;
_chemical_formula_sum "Si O2"
_cell_formula_units_Z 16
_cell_length_a 7.590733
_cell_length_b 10.193979
_cell_length_c 17.660539
_cell_angle_alpha 129.112268
_cell_angle_beta 108.500695
_cell_angle_gamma 44.667217
_cell_volume 723.471759
_symmetry_space_group_name_H-M "P -1"
_symmetry_group_IT_number 2
_symmetry_cell_setting 'triclinic'
loop_
_space_group_symop_operation_xyz
x,y,z
-x,-y,-z
loop_
_atom_site_type_symbol
_atom_site_label
_atom_site_fract_x
_atom_site_fract_y
_atom_site_fract_z
Si Si1 0.999551 0.265383 0.853670
Si Si2 0.328620 0.376434 0.942085
Si Si3 0.191655 0.891582 0.841077
Si Si4 0.718263 0.377741 0.704003
Si Si5 0.093258 0.414363 0.275457
Si Si6 0.709454 0.997123 0.746023
Si Si7 0.494322 0.839046 0.388986
Si Si8 0.292295 0.043388 0.042810
O O1 0.904459 0.256311 0.758137
O O2 0.090217 0.399364 0.904967
O O3 0.791262 0.396912 0.942032
O O4 0.234091 0.011558 0.828171
O O5 0.481489 0.262927 0.843572
O O6 0.540245 0.167991 0.952393
O O7 0.452846 0.624894 0.789607
O O8 0.971844 0.917673 0.782740
O O9 0.129718 0.021991 0.959169
O O10 0.822492 0.446609 0.682136
O O11 0.646945 0.232864 0.618036
O O12 0.265563 0.204743 0.285413
O O13 0.133064 0.279276 0.154973
O O14 0.792601 0.604513 0.326219
O O15 0.659060 0.023437 0.659685
O O16 0.500000 0.000000 0.500000
O O17 0.500000 0.000000 0.000000
#
# Coordination Sequence:
#
# PCOD9001631 Si02
#       8
#     2   2   2   2   2   2   2   2
#     4  11  21  36  62  97 142 189 224 268 323 404
#     4  10  21  35  59  96 141 186 225 267 321 404
#     4  12  22  37  64 100 143 186 214 268 329 409
#     4  12  24  46  71 102 139 183 229 279 346 408
#     4  11  25  45  73 102 144 183 226 280 337 407
#     4  11  25  44  65 102 135 178 232 284 344 409
#     4  12  29  52  74  98 130 176 239 305 356 401
#     4  11  19  36  63 103 148 186 223 257 327 412
#
# _framework density 22.115583000000001
#
# number of rings (size 3 to 8) (size 9 to 14) (size 15 to 20)
#    0.000    0.750    6.250    1.500    3.500    4.500 
#    0.000    0.625    0.000    0.000    0.000    0.000 
#    0.000    0.000    0.000    0.000    0.000    0.000 
#
# Total GULP energy -89380.293398 kJ/mol
# GULP energy per Si atom -5586.268337 kJ/mol
# Density = 2.206525 g / cm^3
# Si number density = 22.115583 Si / 1000 Ang^3
#
#
#
# Elastic Constant Matrix: (Units=GPa)
#
#
# Indices 1 2 3 4 5 6 
#
# 1 105.3320 29.1565 38.6882 -9.3797 27.2757 8.5249
# 2 29.1565 71.1631 16.2802 -3.5391 1.6053 10.3952
# 3 38.6882 16.2802 56.6496 -6.3654 17.7433 0.2718
# 4 -9.3797 -3.5391 -6.3654 24.6691 -0.6340 -2.0314
# 5 27.2757 1.6053 17.7433 -0.6340 28.5472 6.0713
# 6 8.5249 10.3952 0.2718 -2.0314 6.0713 35.9551
#
#
#
# Elastic Compliance Matrix: (Units=1/GPa)
#
#
# Indices 1 2 3 4 5 6 
#
# 1 0.016291 -0.004901 -0.005651 0.003715 -0.011647 -0.000226
# 2 -0.004901 0.017535 -0.004014 -0.000620 0.007272 -0.005140
# 3 -0.005651 -0.004014 0.026866 0.004276 -0.011948 0.004556
# 4 0.003715 -0.000620 0.004276 0.043035 -0.005785 0.002674
# 5 -0.011647 0.007272 -0.011948 -0.005785 0.054929 -0.008853
# 6 -0.000226 -0.005140 0.004556 0.002674 -0.008853 0.030964
#
#
# Mechanical properties :
#
#
# Convention : Reuss Voigt Hill
#
# Bulk Modulus (GPa) = 31.68702 44.59939 38.14320
# Shear Modulus (GPa) = 21.80810 27.76894 24.78852
#
# Velocity S-wave (km/s) = 3.14362 3.54733 3.35156
# Velocity P-wave (km/s) = 5.24743 6.08180 5.67996
#
# Compressibility (1/GPa) = 0.03155866
#
# Stress axis : x y z
#
# Youngs Moduli (GPa) = 61.38281 57.02954 37.22194
#
# Poissons Ratio (x) = 0.27953 0.21033
# Poissons Ratio (y) = 0.30087 0.14942
# Poissons Ratio (z) = 0.34686 0.22894
#
# Static dielectric constant tensor:
#      x y z
#    x 1.937350 0.042990 -0.006890 
#    y 0.042990 1.826860 0.043880 
#    z -0.006890 0.043880 1.800940 
# 
# From -- ./inp_files/500857.got.cif
#   From: 2010.05.17/outbox.cif.g08.bks.cpg/sg2_251_cif.got.tgz:500857.got - 2010.06.03 11:33:40.
