data_PCOD9001364
_publ_section_title
;
Structure prediction by ZEFSAII (Michael W. Deem and Ramdas Pophale) SiO2 
 PCOD9001364
Probable space group: P -1
;
_chemical_formula_sum "Si O2"
_cell_formula_units_Z 14
_cell_length_a 13.011230
_cell_length_b 21.238021
_cell_length_c 11.633894
_cell_angle_alpha 28.993830
_cell_angle_beta 132.637813
_cell_angle_gamma 150.360769
_cell_volume 723.115363
_symmetry_space_group_name_H-M "P -1"
_symmetry_group_IT_number 2
_symmetry_cell_setting 'triclinic'
loop_
_space_group_symop_operation_xyz
x,y,z
-x,-y,-z
loop_
_atom_site_type_symbol
_atom_site_label
_atom_site_fract_x
_atom_site_fract_y
_atom_site_fract_z
Si Si1 0.863718 0.600946 0.207505
Si Si2 0.444254 0.027800 0.167667
Si Si3 0.206754 0.676664 0.231458
Si Si4 0.742552 0.378513 0.254647
Si Si5 0.764795 0.686763 0.402781
Si Si6 0.778852 0.424837 0.947799
Si Si7 0.016941 0.898920 0.017683
O O1 0.766134 0.433935 0.497315
O O2 0.731234 0.481389 0.180014
O O3 0.106399 0.713872 0.180945
O O4 0.894772 0.763684 0.025676
O O5 0.405254 0.851509 0.456846
O O6 0.213872 0.937729 0.126061
O O7 0.581707 0.133480 0.984583
O O8 0.589935 0.209326 0.082092
O O9 0.171717 0.406432 0.349821
O O10 0.997549 0.511893 0.249412
O O11 0.704945 0.396870 0.067844
O O12 0.500000 0.500000 0.500000
O O13 0.853644 0.771007 0.206659
O O14 0.872587 0.880050 0.250409
O O15 0.000000 0.500000 0.000000
#
# Coordination Sequence:
#
# PCOD9001364 Si02
#       7
#     2   2   2   2   2   2   2
#     4   9  18  38  56  87 129 158 197 260 291 368
#     4  12  20  35  65  93 120 168 198 256 313 345
#     4   9  18  34  54  92 127 147 202 253 294 353
#     4  10  21  35  52  93 125 153 201 247 300 371
#     4  11  25  44  61  92 121 163 209 254 301 367
#     4  12  22  40  63  88 129 160 200 259 309 356
#     4  11  22  39  66  89 118 161 217 245 303 366
#
# _framework density 19.360672999999998
#
# number of rings (size 3 to 8) (size 9 to 14) (size 15 to 20)
#    0.857    0.571    4.286    2.143    0.000    2.286 
#    0.000    0.714    0.000    0.857    0.000    0.000 
#    0.000    0.000    0.000    0.000    0.000    0.000 
#
# Total GULP energy -78123.989320 kJ/mol
# GULP energy per Si atom -5580.284951 kJ/mol
# Density = 1.931661 g / cm^3
# Si number density = 19.360673 Si / 1000 Ang^3
#
#
#
# Elastic Constant Matrix: (Units=GPa)
#
#
# Indices 1 2 3 4 5 6 
#
# 1 56.2720 21.8297 40.1456 -14.0728 8.0572 -18.7153
# 2 21.8297 76.3582 36.1888 -11.4956 14.0332 -34.0836
# 3 40.1456 36.1888 106.2678 -21.9229 0.7080 -14.7357
# 4 -14.0728 -11.4956 -21.9229 23.2527 -5.5661 11.1019
# 5 8.0572 14.0332 0.7080 -5.5661 37.5336 -11.0113
# 6 -18.7153 -34.0836 -14.7357 11.1019 -11.0113 38.9289
#
#
#
# Elastic Compliance Matrix: (Units=1/GPa)
#
#
# Indices 1 2 3 4 5 6 
#
# 1 0.028217 0.001673 -0.009043 0.004067 -0.003101 0.009570
# 2 0.001673 0.025174 -0.007214 -0.003937 -0.004349 0.020006
# 3 -0.009043 -0.007214 0.016561 0.010530 0.004054 -0.006250
# 4 0.004067 -0.003937 0.010530 0.061164 0.005545 -0.013380
# 5 -0.003101 -0.004349 0.004054 0.005545 0.030656 0.003325
# 6 0.009570 0.020006 -0.006250 -0.013380 0.003325 0.050195
#
#
# Mechanical properties :
#
#
# Convention : Reuss Voigt Hill
#
# Bulk Modulus (GPa) = 24.51864 48.35846 36.43855
# Shear Modulus (GPa) = 19.62862 29.32531 24.47696
#
# Velocity S-wave (km/s) = 3.18754 3.89612 3.55950
# Velocity P-wave (km/s) = 5.12239 6.72841 5.97956
#
# Compressibility (1/GPa) = 0.04078529
#
# Stress axis : x y z
#
# Youngs Moduli (GPa) = 35.43930 39.72423 60.38129
#
# Poissons Ratio (x) = -0.06645 0.54601
# Poissons Ratio (y) = -0.05928 0.43556
# Poissons Ratio (z) = 0.32047 0.28655
#
# Static dielectric constant tensor:
#      x y z
#    x 1.711200 -0.040800 0.005160 
#    y -0.040800 1.705530 -0.022500 
#    z 0.005160 -0.022500 1.654050 
# 
# From -- ./inp_files/434590.got.cif
#   From: 2010.05.17/outbox.cif.g08.bks.cpg/sg2_218_cif.got.tgz:434590.got - 2010.06.03 11:33:40.
