data_PCOD9001196
_publ_section_title
;
Structure prediction by ZEFSAII (Michael W. Deem and Ramdas Pophale) SiO2 
 PCOD9001196
Probable space group: P -1
;
_chemical_formula_sum "Si O2"
_cell_formula_units_Z 16
_cell_length_a 8.700028
_cell_length_b 15.100912
_cell_length_c 5.109160
_cell_angle_alpha 81.264840
_cell_angle_beta 90.602962
_cell_angle_gamma 127.233535
_cell_volume 525.389690
_symmetry_space_group_name_H-M "P -1"
_symmetry_group_IT_number 2
_symmetry_cell_setting 'triclinic'
loop_
_space_group_symop_operation_xyz
x,y,z
-x,-y,-z
loop_
_atom_site_type_symbol
_atom_site_label
_atom_site_fract_x
_atom_site_fract_y
_atom_site_fract_z
Si Si1 0.891675 0.033652 0.794766
Si Si2 0.747819 0.817382 0.624643
Si Si3 0.636422 0.006604 0.216065
Si Si4 0.065544 0.765016 0.103547
Si Si5 0.423262 0.648629 0.833889
Si Si6 0.026141 0.597105 0.773080
Si Si7 0.284007 0.445178 0.613360
Si Si8 0.390510 0.744595 0.331870
O O1 0.055578 0.117170 0.551668
O O2 0.740184 0.910869 0.723343
O O3 0.849017 0.099888 0.982369
O O4 0.000000 0.000000 0.000000
O O5 0.666296 0.716253 0.871750
O O6 0.541047 0.726607 0.516363
O O7 0.578505 0.883158 0.263063
O O8 0.697494 0.066346 0.457876
O O9 0.500000 0.000000 0.000000
O O10 0.220924 0.759553 0.253411
O O11 0.863077 0.688767 0.284816
O O12 0.032411 0.694790 0.874959
O O13 0.324649 0.518627 0.839647
O O14 0.246397 0.657150 0.638724
O O15 0.379689 0.685372 0.083501
O O16 0.855255 0.542845 0.580531
O O17 0.000000 0.500000 0.000000
O O18 0.500000 0.500000 0.500000
#
# Coordination Sequence:
#
# PCOD9001196 Si02
#       8
#     2   2   2   2   2   2   2   2
#     4   9  19  33  56  88 123 155 203 248 304 372
#     4   8  17  37  57  81 120 163 199 250 303 366
#     4  10  21  34  56  90 127 155 203 255 303 372
#     4  10  24  36  62  96 123 162 209 256 310 376
#     4   8  21  39  63  88 120 166 214 247 315 374
#     4   9  22  42  60  93 123 166 211 254 319 367
#     4  12  23  42  67  89 126 165 210 269 315 361
#     4   8  20  38  59  83 124 163 200 253 309 368
#
# _framework density 30.453586000000001
#
# number of rings (size 3 to 8) (size 9 to 14) (size 15 to 20)
#    2.250    0.250    0.000    1.875    3.500    3.000 
#    0.000    1.250    0.000    0.000    0.000    0.000 
#    0.000    0.000    0.000    0.000    0.000    0.000 
#
# Total GULP energy -89074.293681 kJ/mol
# GULP energy per Si atom -5567.143355 kJ/mol
# Density = 3.038427 g / cm^3
# Si number density = 30.453586 Si / 1000 Ang^3
#
#
#
# Elastic Constant Matrix: (Units=GPa)
#
#
# Indices 1 2 3 4 5 6 
#
# 1 126.4539 48.3622 36.7827 2.5359 -2.0439 26.2624
# 2 48.3622 238.8338 75.3788 -3.8310 -7.7803 1.9474
# 3 36.7827 75.3788 158.4570 28.8122 1.5521 -6.2184
# 4 2.5359 -3.8310 28.8122 67.7288 -10.7376 -13.5912
# 5 -2.0439 -7.7803 1.5521 -10.7376 46.1039 -1.5713
# 6 26.2624 1.9474 -6.2184 -13.5912 -1.5713 76.8638
#
#
#
# Elastic Compliance Matrix: (Units=1/GPa)
#
#
# Indices 1 2 3 4 5 6 
#
# 1 0.009653 -0.001422 -0.001620 -0.000446 0.000020 -0.003472
# 2 -0.001422 0.005338 -0.002519 0.001736 0.001343 0.000481
# 3 -0.001620 -0.002519 0.008634 -0.003902 -0.001676 0.000592
# 4 -0.000446 0.001736 -0.003902 0.017893 0.004676 0.003052
# 5 0.000020 0.001343 -0.001676 0.004676 0.023101 0.001122
# 6 -0.003472 0.000481 0.000592 0.003052 0.001122 0.014795
#
#
# Mechanical properties :
#
#
# Convention : Reuss Voigt Hill
#
# Bulk Modulus (GPa) = 79.97438 93.86579 86.92009
# Shear Modulus (GPa) = 52.79611 62.35403 57.57507
#
# Velocity S-wave (km/s) = 4.16824 4.52985 4.35280
# Velocity P-wave (km/s) = 7.03447 7.63210 7.33937
#
# Compressibility (1/GPa) = 0.01250400
#
# Stress axis : x y z
#
# Youngs Moduli (GPa) = 103.59246 187.34861 115.81636
#
# Poissons Ratio (x) = 0.26635 0.18760
# Poissons Ratio (y) = 0.14727 0.29176
# Poissons Ratio (z) = 0.16780 0.47195
#
# Static dielectric constant tensor:
#      x y z
#    x 2.422630 0.148040 -0.218640 
#    y 0.148040 2.500670 -0.291850 
#    z -0.218640 -0.291850 2.537970 
# 
# From -- ./inp_files/47885.got.cif
#   From: 2010.05.17/outbox.cif.g08.bks.cpg/sg2_24_cif.got.tgz:47885.got - 2010.06.03 11:33:40.
