data_PCOD9001915
_publ_section_title
;
Structure prediction by ZEFSAII (Michael W. Deem and Ramdas Pophale) SiO2 
 PCOD9001915
Probable space group: P -1
;
_chemical_formula_sum "Si O2"
_cell_formula_units_Z 16
_cell_length_a 20.966106
_cell_length_b 10.093289
_cell_length_c 18.559934
_cell_angle_alpha 135.862070
_cell_angle_beta 162.053457
_cell_angle_gamma 34.600778
_cell_volume 637.392113
_symmetry_space_group_name_H-M "P -1"
_symmetry_group_IT_number 2
_symmetry_cell_setting 'triclinic'
loop_
_space_group_symop_operation_xyz
x,y,z
-x,-y,-z
loop_
_atom_site_type_symbol
_atom_site_label
_atom_site_fract_x
_atom_site_fract_y
_atom_site_fract_z
Si Si1 0.775719 0.012634 0.367171
Si Si2 0.345468 0.211129 0.326081
Si Si3 0.554507 0.667271 0.087645
Si Si4 0.069475 0.237977 0.411477
Si Si5 0.472760 0.504557 0.294634
Si Si6 0.490562 0.718053 0.605917
Si Si7 0.815201 0.835277 0.191768
Si Si8 0.919990 0.704573 0.787939
O O1 0.678399 0.290812 0.374550
O O2 0.923723 0.860722 0.540100
O O3 0.914775 0.856927 0.383312
O O4 0.481973 0.082755 0.082083
O O5 0.414975 0.371477 0.501607
O O6 0.313305 0.273015 0.230829
O O7 0.117388 0.256613 0.149987
O O8 0.622605 0.925494 0.522513
O O9 0.719980 0.712391 0.335464
O O10 0.762559 0.503270 0.179523
O O11 0.500000 0.500000 0.000000
O O12 0.276874 0.939102 0.871921
O O13 0.199100 0.004578 0.406455
O O14 0.454556 0.353696 0.279397
O O15 0.154146 0.705777 0.010439
O O16 0.500000 0.500000 0.500000
O O17 0.995914 0.557132 0.246875
#
# Coordination Sequence:
#
# PCOD9001915 Si02
#       8
#     2   2   2   2   2   2   2   2
#     4   8  16  33  57  80 106 139 174 214 269 324
#     4  10  21  36  54  80 108 140 183 220 262 318
#     4  10  21  36  56  82 111 143 181 224 274 324
#     4   9  19  37  57  80 113 144 176 225 271 318
#     4   9  18  36  57  79 107 139 175 220 267 317
#     4   9  19  36  59  83 109 146 184 220 270 321
#     4   9  18  34  56  80 106 141 178 218 271 323
#     4  10  21  36  55  77 108 143 176 221 267 314
#
# _framework density 25.102288000000001
#
# number of rings (size 3 to 8) (size 9 to 14) (size 15 to 20)
#    0.000    2.750    0.000    1.125    0.000    8.500 
#    0.000    7.500    0.000    0.000    0.000    0.000 
#    0.000    0.000    0.000    0.000    0.000    0.000 
#
# Total GULP energy -89385.882969 kJ/mol
# GULP energy per Si atom -5586.617686 kJ/mol
# Density = 2.504515 g / cm^3
# Si number density = 25.102288 Si / 1000 Ang^3
#
#
#
# Elastic Constant Matrix: (Units=GPa)
#
#
# Indices 1 2 3 4 5 6 
#
# 1 82.6433 24.6614 -0.7522 -2.7498 -5.6431 -10.6130
# 2 24.6614 150.6014 16.6014 -9.8614 0.4128 -24.4675
# 3 -0.7522 16.6014 51.5263 -7.3855 11.3023 -8.4550
# 4 -2.7498 -9.8614 -7.3855 42.0607 -0.3918 11.6036
# 5 -5.6431 0.4128 11.3023 -0.3918 27.7424 -1.3317
# 6 -10.6130 -24.4675 -8.4550 11.6036 -1.3317 44.5883
#
#
#
# Elastic Compliance Matrix: (Units=1/GPa)
#
#
# Indices 1 2 3 4 5 6 
#
# 1 0.013128 -0.001851 0.000593 -0.000088 0.002566 0.002321
# 2 -0.001851 0.007732 -0.002021 0.000425 0.000497 0.003324
# 3 0.000593 -0.002021 0.022835 0.002841 -0.008999 0.002354
# 4 -0.000088 0.000425 0.002841 0.026028 -0.001105 -0.006056
# 5 0.002566 0.000497 -0.008999 -0.001105 0.040243 0.000667
# 6 0.002321 0.003324 0.002354 -0.006056 0.000667 0.026846
#
#
# Mechanical properties :
#
#
# Convention : Reuss Voigt Hill
#
# Bulk Modulus (GPa) = 26.92651 40.64357 33.78504
# Shear Modulus (GPa) = 32.10277 39.16229 35.63253
#
# Velocity S-wave (km/s) = 3.58002 3.95411 3.77170
# Velocity P-wave (km/s) = 5.27624 6.08875 5.69700
#
# Compressibility (1/GPa) = 0.03713811
#
# Stress axis : x y z
#
# Youngs Moduli (GPa) = 76.17120 129.32679 43.79257
#
# Poissons Ratio (x) = 0.23937 -0.02598
# Poissons Ratio (y) = 0.14098 0.08851
# Poissons Ratio (z) = -0.04519 0.26139
#
# Static dielectric constant tensor:
#      x y z
#    x 2.044590 0.025110 0.037020 
#    y 0.025110 2.028350 -0.022140 
#    z 0.037020 -0.022140 2.067480 
# 
# From -- ./inp_files/602081.got.cif
#   From: 2010.05.17/outbox.cif.g08.bks.cpg/sg2_302_cif.got.tgz:602081.got - 2010.06.03 11:33:40.
