data_PCOD9001437
_publ_section_title
;
Structure prediction by ZEFSAII (Michael W. Deem and Ramdas Pophale) SiO2 
 PCOD9001437
Probable space group: P -1
;
_chemical_formula_sum "Si O2"
_cell_formula_units_Z 16
_cell_length_a 11.551393
_cell_length_b 11.952033
_cell_length_c 14.642290
_cell_angle_alpha 115.724711
_cell_angle_beta 151.641962
_cell_angle_gamma 81.517903
_cell_volume 723.622117
_symmetry_space_group_name_H-M "P -1"
_symmetry_group_IT_number 2
_symmetry_cell_setting 'triclinic'
loop_
_space_group_symop_operation_xyz
x,y,z
-x,-y,-z
loop_
_atom_site_type_symbol
_atom_site_label
_atom_site_fract_x
_atom_site_fract_y
_atom_site_fract_z
Si Si1 0.455259 0.912750 0.344372
Si Si2 0.354625 0.031790 0.151536
Si Si3 0.430255 0.573213 0.710220
Si Si4 0.238249 0.575451 0.113553
Si Si5 0.448331 0.374326 0.987135
Si Si6 0.676231 0.924585 0.211551
Si Si7 0.883813 0.349242 0.625883
Si Si8 0.106578 0.085349 0.834914
O O1 0.349467 0.745120 0.233791
O O2 0.500000 0.000000 0.500000
O O3 0.262341 0.930134 0.140722
O O4 0.771276 0.999848 0.545605
O O5 0.581610 0.204248 0.398326
O O6 0.522150 0.994422 0.179114
O O7 0.108283 0.019659 0.911319
O O8 0.506795 0.452990 0.696466
O O9 0.202856 0.585708 0.495714
O O10 0.368137 0.556149 0.768830
O O11 0.729937 0.738357 0.971853
O O12 0.069586 0.479442 0.872836
O O13 0.000000 0.500000 0.000000
O O14 0.496184 0.249082 0.942471
O O15 0.101854 0.296308 0.736828
O O16 0.500000 0.500000 0.000000
O O17 0.714133 0.929751 0.128918
O O18 0.000000 0.000000 0.500000
#
# Coordination Sequence:
#
# PCOD9001437 Si02
#       8
#     2   2   2   2   2   2   2   2
#     4  12  25  42  65  92 123 158 204 260 308 362
#     4  11  22  40  65  93 124 164 206 256 305 361
#     4   9  21  40  61  86 118 160 202 245 297 359
#     4  11  24  42  64  87 119 161 202 248 307 365
#     4  10  21  35  55  86 127 163 198 242 296 355
#     4  11  19  36  63  91 126 166 203 250 306 358
#     4  10  21  40  61  85 120 160 202 245 300 357
#     4  10  22  41  64  92 126 161 208 254 304 363
#
# _framework density 22.110987999999999
#
# number of rings (size 3 to 8) (size 9 to 14) (size 15 to 20)
#    0.000    1.500    2.500    3.375    3.500    2.500 
#    0.000    0.000    0.000    0.000    0.000    0.000 
#    0.000    0.000    0.000    0.000    0.000    0.000 
#
# Total GULP energy -89329.640144 kJ/mol
# GULP energy per Si atom -5583.102509 kJ/mol
# Density = 2.206066 g / cm^3
# Si number density = 22.110988 Si / 1000 Ang^3
#
#
#
# Elastic Constant Matrix: (Units=GPa)
#
#
# Indices 1 2 3 4 5 6 
#
# 1 55.6609 42.2811 9.0029 12.3876 -14.3576 12.0242
# 2 42.2811 124.3711 32.6727 -5.2283 -30.7033 18.5903
# 3 9.0029 32.6727 44.8461 1.3011 -12.6196 -0.8879
# 4 12.3876 -5.2283 1.3011 44.8317 1.6600 -10.8408
# 5 -14.3576 -30.7033 -12.6196 1.6600 23.1804 -0.0190
# 6 12.0242 18.5903 -0.8879 -10.8408 -0.0190 35.4046
#
#
#
# Elastic Compliance Matrix: (Units=1/GPa)
#
#
# Indices 1 2 3 4 5 6 
#
# 1 0.031259 -0.007288 0.002565 -0.012561 0.011995 -0.010564
# 2 -0.007288 0.016675 -0.007047 0.002269 0.013568 -0.005755
# 3 0.002565 -0.007047 0.029398 -0.001978 0.008404 0.002965
# 4 -0.012561 0.002269 -0.001978 0.029291 -0.007939 0.011989
# 5 0.011995 0.013568 0.008404 -0.007939 0.073674 -0.013379
# 6 -0.010564 -0.005755 0.002965 0.011989 -0.013379 0.038593
#
#
# Mechanical properties :
#
#
# Convention : Reuss Voigt Hill
#
# Bulk Modulus (GPa) = 18.59009 43.64352 31.11680
# Shear Modulus (GPa) = 19.20412 30.07812 24.64112
#
# Velocity S-wave (km/s) = 2.95029 3.69226 3.34193
# Velocity P-wave (km/s) = 4.47565 6.16103 5.38469
#
# Compressibility (1/GPa) = 0.05379211
#
# Stress axis : x y z
#
# Youngs Moduli (GPa) = 31.99067 59.97141 34.01547
#
# Poissons Ratio (x) = 0.43710 -0.08726
# Poissons Ratio (y) = 0.23316 0.23970
# Poissons Ratio (z) = -0.08207 0.42261
#
# Static dielectric constant tensor:
#      x y z
#    x 1.648010 0.148070 0.049780 
#    y 0.148070 1.757460 -0.006160 
#    z 0.049780 -0.006160 1.802220 
# 
# From -- ./inp_files/258405.got.cif
#   From: 2010.05.17/outbox.cif.g08.bks.cpg/sg2_130_cif.got.tgz:258405.got - 2010.06.03 11:33:40.
