data_PCOD9001332
_publ_section_title
;
Structure prediction by ZEFSAII (Michael W. Deem and Ramdas Pophale) SiO2 
 PCOD9001332
Probable space group: P -1
;
_chemical_formula_sum "Si O2"
_cell_formula_units_Z 16
_cell_length_a 7.867593
_cell_length_b 28.013720
_cell_length_c 5.164045
_cell_angle_alpha 88.375759
_cell_angle_beta 84.906642
_cell_angle_gamma 143.019541
_cell_volume 672.523519
_symmetry_space_group_name_H-M "P -1"
_symmetry_group_IT_number 2
_symmetry_cell_setting 'triclinic'
loop_
_space_group_symop_operation_xyz
x,y,z
-x,-y,-z
loop_
_atom_site_type_symbol
_atom_site_label
_atom_site_fract_x
_atom_site_fract_y
_atom_site_fract_z
Si Si1 0.764728 0.757217 0.344627
Si Si2 0.689415 0.219180 0.415669
Si Si3 0.656277 0.786533 0.847959
Si Si4 0.813142 0.079049 0.552222
Si Si5 0.066316 0.372091 0.673741
Si Si6 0.413674 0.523008 0.806205
Si Si7 0.212896 0.323644 0.021278
Si Si8 0.101822 0.051827 0.728326
O O1 0.623859 0.758047 0.137974
O O2 0.090300 0.850414 0.328670
O O3 0.759183 0.704694 0.221673
O O4 0.611207 0.735012 0.641434
O O5 0.514594 0.204712 0.207818
O O6 0.963472 0.250703 0.267071
O O7 0.827458 0.294488 0.540667
O O8 0.444606 0.138277 0.632434
O O9 0.984115 0.874355 0.735079
O O10 0.935012 0.064444 0.718984
O O11 0.500000 0.000000 0.500000
O O12 0.106715 0.436213 0.747108
O O13 0.357173 0.426847 0.464997
O O14 0.077135 0.342141 0.930625
O O15 0.484071 0.590029 0.915102
O O16 0.500000 0.500000 0.000000
O O17 0.000000 0.000000 0.500000
O O18 0.000000 0.000000 0.000000
#
# Coordination Sequence:
#
# PCOD9001332 Si02
#       8
#     2   2   2   2   2   2   2   2
#     4  10  23  41  63  88 129 168 211 260 329 393
#     4  10  23  39  65  94 123 173 219 268 325 391
#     4   9  23  41  61  85 126 170 212 258 329 388
#     4   9  23  44  66  88 123 172 219 269 340 394
#     4   9  18  33  61  94 130 161 211 265 323 377
#     4   8  16  33  54  96 132 163 198 270 319 374
#     4  10  21  34  66  98 126 162 221 267 317 386
#     4  11  27  45  66  93 131 171 223 285 330 384
#
# _framework density 23.790987999999999
#
# number of rings (size 3 to 8) (size 9 to 14) (size 15 to 20)
#    0.750    1.750    0.000    0.000   10.500    2.500 
#    0.000    0.000    0.000    1.500    0.000    0.000 
#    0.000    0.000    0.000    0.000    0.000    0.000 
#
# Total GULP energy -89178.065617 kJ/mol
# GULP energy per Si atom -5573.629101 kJ/mol
# Density = 2.373684 g / cm^3
# Si number density = 23.790988 Si / 1000 Ang^3
#
#
#
# Elastic Constant Matrix: (Units=GPa)
#
#
# Indices 1 2 3 4 5 6 
#
# 1 37.4150 4.7157 13.5122 -4.3856 -2.1164 -19.5694
# 2 4.7157 141.7951 38.9606 12.6032 -12.0885 -33.2858
# 3 13.5122 38.9606 121.0672 -3.2562 1.8521 -3.3460
# 4 -4.3856 12.6032 -3.2562 44.2806 -8.0689 -5.1849
# 5 -2.1164 -12.0885 1.8521 -8.0689 22.5664 5.8522
# 6 -19.5694 -33.2858 -3.3460 -5.1849 5.8522 24.6658
#
#
#
# Elastic Compliance Matrix: (Units=1/GPa)
#
#
# Indices 1 2 3 4 5 6 
#
# 1 0.077288 0.021150 -0.012630 0.011338 0.000204 0.090482
# 2 0.021150 0.017520 -0.006905 0.001624 0.002331 0.039274
# 3 -0.012630 -0.006905 0.011408 -0.000787 -0.001539 -0.017591
# 4 0.011338 0.001624 -0.000787 0.026298 0.007559 0.014814
# 5 0.000204 0.002331 -0.001539 0.007559 0.050289 -0.007244
# 6 0.090482 0.039274 -0.017591 0.014814 -0.007244 0.167774
#
#
# Mechanical properties :
#
#
# Convention : Reuss Voigt Hill
#
# Bulk Modulus (GPa) = 9.13695 46.07271 27.60483
# Shear Modulus (GPa) = 13.02658 34.50848 23.76753
#
# Velocity S-wave (km/s) = 2.34250 3.81266 3.16415
# Velocity P-wave (km/s) = 3.34145 6.22812 4.99773
#
# Compressibility (1/GPa) = 0.10944576
#
# Stress axis : x y z
#
# Youngs Moduli (GPa) = 12.93855 57.07696 87.65916
#
# Poissons Ratio (x) = -1.20715 1.10711
# Poissons Ratio (y) = -0.27364 0.60530
# Poissons Ratio (z) = 0.16341 0.39413
#
# Static dielectric constant tensor:
#      x y z
#    x 1.961550 -0.036860 0.008160 
#    y -0.036860 2.245620 0.016000 
#    z 0.008160 0.016000 1.967020 
# 
# From -- ./inp_files/47864.got.cif
#   From: 2010.05.17/outbox.cif.g08.bks.cpg/sg2_24_cif.got.tgz:47864.got - 2010.06.03 11:33:40.
