data_PCOD9001439
_publ_section_title
;
Structure prediction by ZEFSAII (Michael W. Deem and Ramdas Pophale) SiO2 
 PCOD9001439
Probable space group: P -1
;
_chemical_formula_sum "Si O2"
_cell_formula_units_Z 16
_cell_length_a 8.166904
_cell_length_b 9.766373
_cell_length_c 9.322318
_cell_angle_alpha 106.095543
_cell_angle_beta 102.330663
_cell_angle_gamma 92.624914
_cell_volume 693.549520
_symmetry_space_group_name_H-M "P -1"
_symmetry_group_IT_number 2
_symmetry_cell_setting 'triclinic'
loop_
_space_group_symop_operation_xyz
x,y,z
-x,-y,-z
loop_
_atom_site_type_symbol
_atom_site_label
_atom_site_fract_x
_atom_site_fract_y
_atom_site_fract_z
Si Si1 0.766478 0.491287 0.386861
Si Si2 0.218245 0.294900 0.300480
Si Si3 0.674166 0.583610 0.105809
Si Si4 0.418831 0.806138 0.669351
Si Si5 0.712042 0.218249 0.690505
Si Si6 0.856587 0.941380 0.566157
Si Si7 0.023069 0.504838 0.200490
Si Si8 0.387451 0.129454 0.760889
O O1 0.731562 0.564473 0.550902
O O2 0.659699 0.567345 0.270983
O O3 0.705699 0.323019 0.325722
O O4 0.949747 0.520030 0.354651
O O5 0.389686 0.227707 0.276926
O O6 0.111384 0.182781 0.353764
O O7 0.107559 0.357273 0.174187
O O8 0.848706 0.516278 0.084915
O O9 0.693625 0.753188 0.125509
O O10 0.500000 0.500000 0.000000
O O11 0.376988 0.797749 0.488189
O O12 0.390427 0.965420 0.762529
O O13 0.574534 0.202476 0.784254
O O14 0.840390 0.360371 0.759309
O O15 0.808920 0.078223 0.681549
O O16 0.706721 0.883797 0.414212
O O17 0.000000 0.000000 0.500000
#
# Coordination Sequence:
#
# PCOD9001439 Si02
#       8
#     2   2   2   2   2   2   2   2
#     4  10  21  35  55  87 113 152 183 228 286 331
#     4  12  19  34  52  92 125 142 179 221 293 353
#     4  10  23  44  60  77 104 149 210 245 274 321
#     4  11  21  32  55  89 123 154 170 221 292 356
#     4  11  19  35  52  89 126 148 182 216 287 355
#     4  11  20  30  53  86 127 155 176 220 276 353
#     4  10  24  33  58  85 115 147 189 229 287 329
#     4  11  21  37  56  82 118 157 189 222 284 337
#
# _framework density 23.06973
#
# number of rings (size 3 to 8) (size 9 to 14) (size 15 to 20)
#    0.750    0.500    5.000    3.000    5.250    0.000 
#    0.000    1.250    0.000    0.750    0.000    0.000 
#    0.000    0.000    0.000    0.000    0.000    0.000 
#
# Total GULP energy -89339.414614 kJ/mol
# GULP energy per Si atom -5583.713413 kJ/mol
# Density = 2.301722 g / cm^3
# Si number density = 23.069730 Si / 1000 Ang^3
#
#
#
# Elastic Constant Matrix: (Units=GPa)
#
#
# Indices 1 2 3 4 5 6 
#
# 1 89.6298 62.9194 29.4257 14.5812 24.3423 -6.1245
# 2 62.9194 177.9905 41.5944 43.4414 14.4032 -17.0572
# 3 29.4257 41.5944 41.4837 12.2486 2.1814 -13.3989
# 4 14.5812 43.4414 12.2486 31.4838 1.1270 3.4490
# 5 24.3423 14.4032 2.1814 1.1270 24.0867 5.8913
# 6 -6.1245 -17.0572 -13.3989 3.4490 5.8913 51.9792
#
#
#
# Elastic Compliance Matrix: (Units=1/GPa)
#
#
# Indices 1 2 3 4 5 6 
#
# 1 0.023071 -0.003640 -0.011103 -0.000726 -0.020349 0.001017
# 2 -0.003640 0.011612 -0.003850 -0.013122 -0.003189 0.003621
# 3 -0.011103 -0.003850 0.039420 -0.005956 0.008514 0.007020
# 4 -0.000726 -0.013122 -0.005956 0.053343 0.009194 -0.010508
# 5 -0.020349 -0.003189 0.008514 0.009194 0.065045 -0.009232
# 6 0.001017 0.003621 0.007020 -0.010508 -0.009232 0.024100
#
#
# Mechanical properties :
#
#
# Convention : Reuss Voigt Hill
#
# Bulk Modulus (GPa) = 27.08661 64.10923 45.59792
# Shear Modulus (GPa) = 18.79121 33.18757 25.98939
#
# Velocity S-wave (km/s) = 2.85711 3.79697 3.36006
# Velocity P-wave (km/s) = 4.75928 6.86093 5.90437
#
# Compressibility (1/GPa) = 0.03691860
#
# Stress axis : x y z
#
# Youngs Moduli (GPa) = 43.34399 86.11658 25.36801
#
# Poissons Ratio (x) = 0.31344 0.28166
# Poissons Ratio (y) = 0.15776 0.09766
# Poissons Ratio (z) = 0.48125 0.33152
#
# Static dielectric constant tensor:
#      x y z
#    x 2.002800 -0.020280 -0.022400 
#    y -0.020280 1.917170 -0.048880 
#    z -0.022400 -0.048880 1.967670 
# 
# From -- ./inp_files/221128.got.cif
#   From: 2010.05.17/outbox.cif.g08.bks.cpg/sg2_111_cif.got.tgz:221128.got - 2010.06.03 11:33:40.
