data_PCOD9001023
_publ_section_title
;
Structure prediction by ZEFSAII (Michael W. Deem and Ramdas Pophale) SiO2 
 PCOD9001023
Probable space group: P -1
;
_chemical_formula_sum "Si O2"
_cell_formula_units_Z 14
_cell_length_a 17.965658
_cell_length_b 10.542903
_cell_length_c 5.080336
_cell_angle_alpha 110.365804
_cell_angle_beta 97.453628
_cell_angle_gamma 36.798772
_cell_volume 521.019316
_symmetry_space_group_name_H-M "P -1"
_symmetry_group_IT_number 2
_symmetry_cell_setting 'triclinic'
loop_
_space_group_symop_operation_xyz
x,y,z
-x,-y,-z
loop_
_atom_site_type_symbol
_atom_site_label
_atom_site_fract_x
_atom_site_fract_y
_atom_site_fract_z
Si Si1 0.590608 0.620270 0.629050
Si Si2 0.902664 0.761529 0.069981
Si Si3 0.182664 0.661397 0.849102
Si Si4 0.199255 0.531806 0.264222
Si Si5 0.418547 0.027877 0.265918
Si Si6 0.862871 0.981660 0.702709
Si Si7 0.352215 0.871033 0.487359
O O1 0.718979 0.445281 0.736874
O O2 0.490797 0.652826 0.529285
O O3 0.502172 0.852606 0.928460
O O4 0.669474 0.537950 0.334633
O O5 0.920211 0.860390 0.354886
O O6 0.756608 0.932695 0.204713
O O7 0.908241 0.801993 0.803734
O O8 0.000000 0.500000 0.000000
O O9 0.161935 0.568591 0.976782
O O10 0.131853 0.881782 0.059401
O O11 0.112130 0.709584 0.587527
O O12 0.295314 0.283071 0.259170
O O13 0.500000 0.000000 0.500000
O O14 0.371450 0.968542 0.369713
O O15 0.710028 0.164977 0.715210
#
# Coordination Sequence:
#
# PCOD9001023 Si02
#       7
#     2   2   2   2   2   2   2
#     4  10  21  34  54  81 127 159 208 222 289 332
#     4  10  22  42  66  87 113 148 198 256 307 348
#     4  10  22  36  56  83 121 171 189 235 282 361
#     4  10  21  33  54  80 120 167 208 222 284 329
#     4  12  21  37  55  84 124 168 202 252 272 340
#     4  10  22  42  60  90 123 146 198 245 304 359
#     4  10  23  34  61  87 122 154 200 246 298 339
#
# _framework density 26.870407
#
# number of rings (size 3 to 8) (size 9 to 14) (size 15 to 20)
#    1.714    0.000    1.429    4.286    2.000    1.143 
#    0.000    2.143    0.000    0.000    0.000    6.000 
#    0.000    0.000    0.000    0.000    0.000    0.000 
#
# Total GULP energy -77977.591131 kJ/mol
# GULP energy per Si atom -5569.827938 kJ/mol
# Density = 2.680925 g / cm^3
# Si number density = 26.870407 Si / 1000 Ang^3
#
#
#
# Elastic Constant Matrix: (Units=GPa)
#
#
# Indices 1 2 3 4 5 6 
#
# 1 77.9117 19.9489 15.9111 -4.2077 8.4052 -3.7502
# 2 19.9489 49.3236 31.9488 5.5480 -12.9145 13.2027
# 3 15.9111 31.9488 174.3442 5.8202 -12.4228 12.4823
# 4 -4.2077 5.5480 5.8202 31.8490 -5.2148 -3.5380
# 5 8.4052 -12.9145 -12.4228 -5.2148 47.4551 -4.6951
# 6 -3.7502 13.2027 12.4823 -3.5380 -4.6951 40.8557
#
#
#
# Elastic Compliance Matrix: (Units=1/GPa)
#
#
# Indices 1 2 3 4 5 6 
#
# 1 0.016131 -0.008896 -0.000597 0.003512 -0.004622 0.004311
# 2 -0.008896 0.031335 -0.003515 -0.005801 0.007606 -0.009497
# 3 -0.000597 -0.003515 0.006571 -0.000652 0.000709 -0.000902
# 4 0.003512 -0.005801 -0.000652 0.033921 0.001906 0.005553
# 5 -0.004622 0.007606 0.000709 0.001906 0.024343 -0.000136
# 6 0.004311 -0.009497 -0.000902 0.005553 -0.000136 0.028682
#
#
# Mechanical properties :
#
#
# Convention : Reuss Voigt Hill
#
# Bulk Modulus (GPa) = 35.68804 48.57745 42.13275
# Shear Modulus (GPa) = 28.35453 39.61668 33.98561
#
# Velocity S-wave (km/s) = 3.25196 3.84391 3.56026
# Velocity P-wave (km/s) = 5.23552 6.14967 5.71092
#
# Compressibility (1/GPa) = 0.02802059
#
# Stress axis : x y z
#
# Youngs Moduli (GPa) = 61.99371 31.91293 152.18048
#
# Poissons Ratio (x) = 0.28391 0.09086
# Poissons Ratio (y) = 0.55152 0.53487
# Poissons Ratio (z) = 0.03701 0.11217
#
# Static dielectric constant tensor:
#      x y z
#    x 2.266660 -0.097560 0.027800 
#    y -0.097560 2.180940 -0.058090 
#    z 0.027800 -0.058090 2.197990 
# 
# From -- ./inp_files/123287.got.cif
#   From: 2010.05.17/outbox.cif.g08.bks.cpg/sg2_62_cif.got.tgz:123287.got - 2010.06.03 11:33:40.
