data_PCOD9001444
_publ_section_title
;
Structure prediction by ZEFSAII (Michael W. Deem and Ramdas Pophale) SiO2 
 PCOD9001444
Probable space group: P -1
;
_chemical_formula_sum "Si O2"
_cell_formula_units_Z 16
_cell_length_a 5.451540
_cell_length_b 12.800507
_cell_length_c 12.453477
_cell_angle_alpha 93.305486
_cell_angle_beta 82.149656
_cell_angle_gamma 87.142889
_cell_volume 857.992729
_symmetry_space_group_name_H-M "P -1"
_symmetry_group_IT_number 2
_symmetry_cell_setting 'triclinic'
loop_
_space_group_symop_operation_xyz
x,y,z
-x,-y,-z
loop_
_atom_site_type_symbol
_atom_site_label
_atom_site_fract_x
_atom_site_fract_y
_atom_site_fract_z
Si Si1 0.182571 0.745166 0.803166
Si Si2 0.807060 0.754819 0.227939
Si Si3 0.792549 0.374536 0.427189
Si Si4 0.481467 0.242706 0.044918
Si Si5 0.296620 0.857822 0.169241
Si Si6 0.129324 0.064193 0.089716
Si Si7 0.249693 0.376148 0.560691
Si Si8 0.090593 0.380571 0.999299
O O1 0.167577 0.691614 0.687309
O O2 0.457412 0.754803 0.833790
O O3 0.059396 0.862308 0.824779
O O4 0.063898 0.674088 0.899858
O O5 0.545570 0.815722 0.213535
O O6 0.770221 0.688262 0.332843
O O7 0.890247 0.676248 0.120778
O O8 0.035513 0.829635 0.234621
O O9 0.523704 0.354020 0.492523
O O10 0.781197 0.498779 0.408913
O O11 0.023357 0.352467 0.492922
O O12 0.295636 0.150387 0.032082
O O13 0.696532 0.203400 0.949360
O O14 0.370444 0.355847 0.023747
O O15 0.285081 0.980112 0.147409
O O16 0.000000 0.000000 0.000000
O O17 0.000000 0.500000 0.000000
#
# Coordination Sequence:
#
# PCOD9001444 Si02
#       8
#     2   2   2   2   2   2   2   2
#     4  11  22  37  59  94 120 158 200 258 305 362
#     4  11  22  39  61  88 122 158 206 243 305 371
#     4  10  23  41  67  89 119 157 215 252 303 349
#     4  10  21  35  55  87 127 160 200 243 301 369
#     4  11  21  37  58  89 120 160 201 243 301 369
#     4  11  21  36  59  87 127 164 202 249 304 372
#     4  10  22  44  64  89 116 166 207 257 295 361
#     4  10  21  36  53  88 127 161 188 244 312 381
#
# _framework density 18.648178999999999
#
# number of rings (size 3 to 8) (size 9 to 14) (size 15 to 20)
#    0.000    1.500    2.500    3.375    5.250    0.500 
#    4.500    0.000    0.000    4.500    0.000    0.000 
#    0.000    0.000    0.000    0.000    0.000    0.000 
#
# Total GULP energy -89188.811581 kJ/mol
# GULP energy per Si atom -5574.300724 kJ/mol
# Density = 1.860573 g / cm^3
# Si number density = 18.648179 Si / 1000 Ang^3
#
#
#
# Elastic Constant Matrix: (Units=GPa)
#
#
# Indices 1 2 3 4 5 6 
#
# 1 112.5505 65.4915 59.1941 0.8261 8.7072 -7.8765
# 2 65.4915 121.5483 63.5161 -4.1909 4.7769 -35.7974
# 3 59.1941 63.5161 127.6704 5.4813 10.3582 -7.5146
# 4 0.8261 -4.1909 5.4813 33.8669 1.4120 0.2627
# 5 8.7072 4.7769 10.3582 1.4120 22.9788 -2.9567
# 6 -7.8765 -35.7974 -7.5146 0.2627 -2.9567 27.8048
#
#
#
# Elastic Compliance Matrix: (Units=1/GPa)
#
#
# Indices 1 2 3 4 5 6 
#
# 1 0.015446 -0.009441 -0.002642 -0.000891 -0.003788 -0.008888
# 2 -0.009441 0.025441 -0.007173 0.004111 0.004953 0.028629
# 3 -0.002642 -0.007173 0.012650 -0.002652 -0.003943 -0.006958
# 4 -0.000891 0.004111 -0.002652 0.030485 -0.000685 0.003963
# 5 -0.003788 0.004953 -0.003943 -0.000685 0.046932 0.009235
# 6 -0.008888 0.028629 -0.006958 0.003963 0.009235 0.069370
#
#
# Mechanical properties :
#
#
# Convention : Reuss Voigt Hill
#
# Bulk Modulus (GPa) = 66.55534 82.01919 74.28727
# Shear Modulus (GPa) = 20.50492 28.50127 24.50309
#
# Velocity S-wave (km/s) = 3.31957 3.91368 3.62880
# Velocity P-wave (km/s) = 7.10353 8.03121 7.58157
#
# Compressibility (1/GPa) = 0.01502509
#
# Stress axis : x y z
#
# Youngs Moduli (GPa) = 64.74298 39.30644 79.04997
#
# Poissons Ratio (x) = 0.37110 0.20884
# Poissons Ratio (y) = 0.61126 0.56701
# Poissons Ratio (z) = 0.17105 0.28194
#
# Static dielectric constant tensor:
#      x y z
#    x 1.812390 0.001190 -0.002760 
#    y 0.001190 1.619640 -0.008380 
#    z -0.002760 -0.008380 1.620130 
# 
# From -- ./inp_files/110396.got.cif
#   From: 2010.05.17/outbox.cif.g08.bks.cpg/sg2_56_cif.got.tgz:110396.got - 2010.06.03 11:33:40.
