data_PCOD9001558
_publ_section_title
;
Structure prediction by ZEFSAII (Michael W. Deem and Ramdas Pophale) SiO2 
 PCOD9001558
Probable space group: P -1
;
_chemical_formula_sum "Si O2"
_cell_formula_units_Z 10
_cell_length_a 14.390438
_cell_length_b 18.059065
_cell_length_c 16.977440
_cell_angle_alpha 16.716860
_cell_angle_beta 151.619710
_cell_angle_gamma 156.903038
_cell_volume 497.825278
_symmetry_space_group_name_H-M "P -1"
_symmetry_group_IT_number 2
_symmetry_cell_setting 'triclinic'
loop_
_space_group_symop_operation_xyz
x,y,z
-x,-y,-z
loop_
_atom_site_type_symbol
_atom_site_label
_atom_site_fract_x
_atom_site_fract_y
_atom_site_fract_z
Si Si1 0.395845 0.656765 0.533959
Si Si2 0.794122 0.277156 0.245348
Si Si3 0.151305 0.653170 0.599122
Si Si4 0.755704 0.774073 0.000111
Si Si5 0.857503 0.849465 0.626411
O O1 0.211095 0.423820 0.838561
O O2 0.415451 0.478921 0.804649
O O3 0.573062 0.680378 0.575821
O O4 0.517799 0.014350 0.286805
O O5 0.821210 0.322374 0.312097
O O6 0.914455 0.110281 0.468483
O O7 0.889312 0.593416 0.947832
O O8 0.126371 0.497141 0.473042
O O9 0.292376 0.991717 0.317012
O O10 0.000000 0.000000 0.000000
O O11 0.000000 0.000000 0.500000
#
# Coordination Sequence:
#
# PCOD9001558 Si02
#       5
#     2   2   2   2   2
#     4   9  23  36  62  81 118 155 190 221 293 330
#     4  10  23  38  60  86 114 147 196 232 284 337
#     4  11  22  38  58  87 122 147 188 235 271 344
#     4  10  21  35  58  87 120 154 186 224 279 341
#     4  10  22  42  61  81 115 148 191 245 287 331
#
# _framework density 20.087368999999999
#
# number of rings (size 3 to 8) (size 9 to 14) (size 15 to 20)
#    1.200    0.800    0.000    4.200    8.400    1.600 
#    0.000    2.000    0.000    0.000    0.000    0.000 
#    0.000    0.000    0.000    0.000    0.000    0.000 
#
# Total GULP energy -55812.882496 kJ/mol
# GULP energy per Si atom -5581.288250 kJ/mol
# Density = 2.004165 g / cm^3
# Si number density = 20.087369 Si / 1000 Ang^3
#
#
#
# Elastic Constant Matrix: (Units=GPa)
#
#
# Indices 1 2 3 4 5 6 
#
# 1 127.1391 56.0749 47.8200 -28.2070 -11.3248 6.1477
# 2 56.0749 67.4800 44.3487 -11.7431 -10.9246 0.9914
# 3 47.8200 44.3487 144.9959 -40.1540 -5.7835 -6.5977
# 4 -28.2070 -11.7431 -40.1540 35.1500 -0.9505 -0.0283
# 5 -11.3248 -10.9246 -5.7835 -0.9505 39.4730 -10.3374
# 6 6.1477 0.9914 -6.5977 -0.0283 -10.3374 34.2829
#
#
#
# Elastic Compliance Matrix: (Units=1/GPa)
#
#
# Indices 1 2 3 4 5 6 
#
# 1 0.014536 -0.010991 0.001098 0.009275 0.001054 -0.001752
# 2 -0.010991 0.027626 -0.006575 -0.007002 0.003621 0.000993
# 3 0.001098 -0.006575 0.012243 0.012709 0.001317 0.002757
# 4 0.009275 -0.007002 0.012709 0.048191 0.004358 0.002339
# 5 0.001054 0.003621 0.001317 0.004358 0.029235 0.008779
# 6 -0.001752 0.000993 0.002757 0.002339 0.008779 0.032634
#
#
# Mechanical properties :
#
#
# Convention : Reuss Voigt Hill
#
# Bulk Modulus (GPa) = 46.57342 70.67802 58.62572
# Shear Modulus (GPa) = 24.44320 34.53928 29.49124
#
# Velocity S-wave (km/s) = 3.49211 4.15113 3.83580
# Velocity P-wave (km/s) = 6.28455 7.63135 6.99046
#
# Compressibility (1/GPa) = 0.02147147
#
# Stress axis : x y z
#
# Youngs Moduli (GPa) = 68.79446 36.19740 81.68085
#
# Poissons Ratio (x) = 0.39784 -0.08972
# Poissons Ratio (y) = 0.75610 0.53702
# Poissons Ratio (z) = -0.07557 0.23798
#
# Static dielectric constant tensor:
#      x y z
#    x 1.690960 0.018130 0.043160 
#    y 0.018130 1.744970 0.011740 
#    z 0.043160 0.011740 1.738560 
# 
# From -- ./inp_files/15847.got.cif
#   From: 2010.05.17/outbox.cif.g08.bks.cpg/sg2_8_cif.got.tgz:15847.got - 2010.06.03 11:33:40.
