data_PCOD9001263
_publ_section_title
;
Structure prediction by ZEFSAII (Michael W. Deem and Ramdas Pophale) SiO2 
 PCOD9001263
Probable space group: P -1
;
_chemical_formula_sum "Si O2"
_cell_formula_units_Z 13
_cell_length_a 21.586884
_cell_length_b 14.970833
_cell_length_c 6.079316
_cell_angle_alpha 111.128536
_cell_angle_beta 77.775110
_cell_angle_gamma 162.120383
_cell_volume 500.017038
_symmetry_space_group_name_H-M "P -1"
_symmetry_group_IT_number 2
_symmetry_cell_setting 'triclinic'
loop_
_space_group_symop_operation_xyz
x,y,z
-x,-y,-z
loop_
_atom_site_type_symbol
_atom_site_label
_atom_site_fract_x
_atom_site_fract_y
_atom_site_fract_z
Si Si1 0.272641 0.785569 0.634063
Si Si2 0.287179 0.156240 0.995889
Si Si3 0.000000 0.000000 0.000000
Si Si4 0.525987 0.750705 0.862341
Si Si5 0.873893 0.942011 0.617607
Si Si6 0.165048 0.766266 0.312797
Si Si7 0.843771 0.585743 0.565719
O O1 0.254329 0.807134 0.426484
O O2 0.013148 0.426252 0.595714
O O3 0.322480 0.745331 0.582220
O O4 0.436863 0.089014 0.932242
O O5 0.318776 0.090156 0.957281
O O6 0.265203 0.174116 0.266904
O O7 0.500000 0.500000 0.000000
O O8 0.068439 0.873312 0.777982
O O9 0.190241 0.361310 0.248149
O O10 0.059631 0.028473 0.205227
O O11 0.281993 0.345758 0.689033
O O12 0.619190 0.876157 0.655435
O O13 0.081397 0.284601 0.625488
O O14 0.000000 0.500000 0.000000
#
# Coordination Sequence:
#
# PCOD9001263 Si02
#       7
#     2   2   1   2   2   2   2
#     4  10  21  34  59  88 127 163 197 245 305 378
#     4  11  22  34  60 100 127 156 196 244 309 378
#     4  10  26  44  62  86 114 168 222 260 300 358
#     4  11  22  35  60  96 128 159 194 250 314 373
#     4  11  24  41  65  87 124 164 209 259 305 362
#     4   9  18  33  52  88 133 164 188 229 304 378
#     4  11  22  42  64  87 122 165 207 255 307 366
#
# _framework density 25.999115
#
# number of rings (size 3 to 8) (size 9 to 14) (size 15 to 20)
#    0.000    1.538    1.538    4.615    4.308    3.692 
#    0.000    0.769    0.000    2.769    0.000    0.000 
#    0.000    0.000    0.000    0.000    0.000    0.000 
#
# Total GULP energy -72486.481351 kJ/mol
# GULP energy per Si atom -5575.883181 kJ/mol
# Density = 2.593994 g / cm^3
# Si number density = 25.999115 Si / 1000 Ang^3
#
#
#
# Elastic Constant Matrix: (Units=GPa)
#
#
# Indices 1 2 3 4 5 6 
#
# 1 99.8974 41.0644 42.2813 1.7805 -11.7556 -39.3628
# 2 41.0644 104.9501 10.9225 -5.4238 -10.8256 -22.2158
# 3 42.2813 10.9225 106.1787 8.7926 -2.0772 -15.2335
# 4 1.7805 -5.4238 8.7926 25.7787 -16.3194 7.8860
# 5 -11.7556 -10.8256 -2.0772 -16.3194 57.2301 3.2930
# 6 -39.3628 -22.2158 -15.2335 7.8860 3.2930 46.5206
#
#
#
# Elastic Compliance Matrix: (Units=1/GPa)
#
#
# Indices 1 2 3 4 5 6 
#
# 1 0.019314 -0.004326 -0.005007 -0.003884 0.001099 0.013218
# 2 -0.004326 0.011902 0.000431 0.003736 0.002365 0.001364
# 3 -0.005007 0.000431 0.011883 -0.005181 -0.002044 0.000884
# 4 -0.003884 0.003736 -0.005181 0.056384 0.016601 -0.013932
# 5 0.001099 0.002365 -0.002044 0.016601 0.022982 -0.003050
# 6 0.013218 0.001364 0.000884 -0.013932 -0.003050 0.036198
#
#
# Mechanical properties :
#
#
# Convention : Reuss Voigt Hill
#
# Bulk Modulus (GPa) = 39.53115 55.50696 47.51906
# Shear Modulus (GPa) = 27.04181 40.35640 33.69910
#
# Velocity S-wave (km/s) = 3.22856 3.94410 3.60413
# Velocity P-wave (km/s) = 5.39778 6.49131 5.96964
#
# Compressibility (1/GPa) = 0.02529650
#
# Stress axis : x y z
#
# Youngs Moduli (GPa) = 51.77513 84.02115 84.15194
#
# Poissons Ratio (x) = 0.36343 0.42132
# Poissons Ratio (y) = 0.22395 -0.03625
# Poissons Ratio (z) = 0.25922 -0.03619
#
# Static dielectric constant tensor:
#      x y z
#    x 2.830700 0.211840 -0.192590 
#    y 0.211840 2.127350 -0.031900 
#    z -0.192590 -0.031900 2.060480 
# 
# From -- ./inp_files/61474.got.cif
#   From: 2010.05.17/outbox.cif.g08.bks.cpg/sg2_31_cif.got.tgz:61474.got - 2010.06.03 11:33:40.
