data_PCOD9001964
_publ_section_title
;
Structure prediction by ZEFSAII (Michael W. Deem and Ramdas Pophale) SiO2 
 PCOD9001964
Probable space group: P -1
;
_chemical_formula_sum "Si O2"
_cell_formula_units_Z 16
_cell_length_a 10.848608
_cell_length_b 19.311982
_cell_length_c 7.743383
_cell_angle_alpha 104.044352
_cell_angle_beta 87.550637
_cell_angle_gamma 29.327288
_cell_volume 651.150918
_symmetry_space_group_name_H-M "P -1"
_symmetry_group_IT_number 2
_symmetry_cell_setting 'triclinic'
loop_
_space_group_symop_operation_xyz
x,y,z
-x,-y,-z
loop_
_atom_site_type_symbol
_atom_site_label
_atom_site_fract_x
_atom_site_fract_y
_atom_site_fract_z
Si Si1 0.940924 0.272431 0.640451
Si Si2 0.454478 0.780201 0.688535
Si Si3 0.775304 0.198953 0.997696
Si Si4 0.672135 0.407418 0.256090
Si Si5 0.655059 0.202751 0.669511
Si Si6 0.225569 0.159671 0.927554
Si Si7 0.426475 0.908383 0.309597
Si Si8 0.700447 0.796522 0.603595
O O1 0.074334 0.217289 0.787595
O O2 0.025251 0.297662 0.533046
O O3 0.594617 0.440437 0.768003
O O4 0.105522 0.116223 0.455486
O O5 0.434514 0.738175 0.827206
O O6 0.484222 0.722131 0.468006
O O7 0.685923 0.724994 0.644843
O O8 0.114629 0.991197 0.836516
O O9 0.800020 0.262319 0.121222
O O10 0.644169 0.269685 0.854052
O O11 0.500000 0.500000 0.500000
O O12 0.955234 0.308657 0.164609
O O13 0.545973 0.189825 0.769471
O O14 0.000000 0.000000 0.500000
O O15 0.383954 0.150369 0.877401
O O16 0.475843 0.967428 0.822989
O O17 0.547577 0.861209 0.465292
#
# Coordination Sequence:
#
# PCOD9001964 Si02
#       8
#     2   2   2   2   2   2   2   2
#     4   9  19  34  60  86 109 150 186 232 296 347
#     4   9  17  35  61  83 113 146 190 247 287 325
#     4  10  21  36  55  85 113 152 193 236 285 343
#     4  12  25  39  50  80 126 154 189 232 288 352
#     4   9  18  33  60  91 112 140 192 245 285 342
#     4   9  17  37  60  82 111 148 191 241 279 338
#     4   8  16  33  63  92 107 135 197 243 286 337
#     4   8  14  33  62  87 110 138 190 245 287 333
#
# _framework density 24.571874999999999
#
# number of rings (size 3 to 8) (size 9 to 14) (size 15 to 20)
#    0.000    2.750    1.250    1.875    1.750    3.000 
#    4.500    1.875    0.000    2.250    0.000    0.000 
#    0.000    0.000    0.000    0.000    0.000    0.000 
#
# Total GULP energy -89389.185372 kJ/mol
# GULP energy per Si atom -5586.824086 kJ/mol
# Density = 2.451595 g / cm^3
# Si number density = 24.571875 Si / 1000 Ang^3
#
#
#
# Elastic Constant Matrix: (Units=GPa)
#
#
# Indices 1 2 3 4 5 6 
#
# 1 40.1817 12.8495 23.5249 -11.3511 -21.5720 12.5732
# 2 12.8495 41.0827 17.6579 -9.5517 -10.0692 -1.0706
# 3 23.5249 17.6579 115.1824 -21.5265 -12.3906 5.9746
# 4 -11.3511 -9.5517 -21.5265 28.9478 -5.0081 -7.1767
# 5 -21.5720 -10.0692 -12.3906 -5.0081 46.3723 -7.8047
# 6 12.5732 -1.0706 5.9746 -7.1767 -7.8047 22.6966
#
#
#
# Elastic Compliance Matrix: (Units=1/GPa)
#
#
# Indices 1 2 3 4 5 6 
#
# 1 0.047401 -0.005956 -0.003422 0.013650 0.018817 -0.014852
# 2 -0.005956 0.031208 -0.001411 0.010735 0.006607 0.010810
# 3 -0.003422 -0.001411 0.011097 0.007312 0.002188 0.001973
# 4 0.013650 0.010735 0.007312 0.056019 0.019270 0.015359
# 5 0.018817 0.006607 0.002188 0.019270 0.035712 0.007685
# 6 -0.014852 0.010810 0.001973 0.015359 0.007685 0.059777
#
#
# Mechanical properties :
#
#
# Convention : Reuss Voigt Hill
#
# Bulk Modulus (GPa) = 14.67874 33.83460 24.25667
# Shear Modulus (GPa) = 17.51306 29.09764 23.30535
#
# Velocity S-wave (km/s) = 2.67259 3.44493 3.08304
# Velocity P-wave (km/s) = 3.93833 5.44270 4.75044
#
# Compressibility (1/GPa) = 0.06812575
#
# Stress axis : x y z
#
# Youngs Moduli (GPa) = 21.09668 32.04340 90.11572
#
# Poissons Ratio (x) = 0.19085 0.30841
# Poissons Ratio (y) = 0.12565 0.12719
# Poissons Ratio (z) = 0.07220 0.04523
#
# Static dielectric constant tensor:
#      x y z
#    x 2.138420 -0.040440 0.038520 
#    y -0.040440 1.938940 -0.017440 
#    z 0.038520 -0.017440 1.933370 
# 
# From -- ./inp_files/282073.got.cif
#   From: 2010.05.17/outbox.cif.g08.bks.cpg/sg2_142_cif.got.tgz:282073.got - 2010.06.03 11:33:40.
