data_PCOD9001544
_publ_section_title
;
Structure prediction by ZEFSAII (Michael W. Deem and Ramdas Pophale) SiO2 
 PCOD9001544
Probable space group: P -1
;
_chemical_formula_sum "Si O2"
_cell_formula_units_Z 15
_cell_length_a 16.465133
_cell_length_b 7.912451
_cell_length_c 6.757964
_cell_angle_alpha 98.202837
_cell_angle_beta 128.674120
_cell_angle_gamma 73.043677
_cell_volume 656.553877
_symmetry_space_group_name_H-M "P -1"
_symmetry_group_IT_number 2
_symmetry_cell_setting 'triclinic'
loop_
_space_group_symop_operation_xyz
x,y,z
-x,-y,-z
loop_
_atom_site_type_symbol
_atom_site_label
_atom_site_fract_x
_atom_site_fract_y
_atom_site_fract_z
Si Si1 0.770807 0.348130 0.265577
Si Si2 0.455341 0.384526 0.129438
Si Si3 0.740071 0.789584 0.702138
Si Si4 0.500000 0.000000 0.000000
Si Si5 0.534599 0.697784 0.410506
Si Si6 0.889187 0.609842 0.583206
Si Si7 0.133957 0.511098 0.896818
Si Si8 0.318328 0.955998 0.991508
O O1 0.850482 0.429873 0.531445
O O2 0.822300 0.340840 0.122234
O O3 0.660129 0.504202 0.108632
O O4 0.748761 0.161092 0.242658
O O5 0.533906 0.515554 0.273766
O O6 0.439300 0.343408 0.328365
O O7 0.511041 0.202153 0.078725
O O8 0.614288 0.808754 0.462782
O O9 0.813775 0.769733 0.617865
O O10 0.744775 0.924986 0.906038
O O11 0.783639 0.598919 0.840208
O O12 0.615321 0.947389 0.035050
O O13 0.413844 0.816950 0.231504
O O14 0.874823 0.619629 0.324315
O O15 0.014528 0.581070 0.811133
#
# Coordination Sequence:
#
# PCOD9001544 Si02
#       8
#     2   2   2   1   2   2   2   2
#     4   9  19  41  59  82 116 158 191 239 296 353
#     4  10  21  35  58  79 116 152 193 236 285 341
#     4  12  21  37  60  89 117 155 194 245 286 347
#     4  12  24  36  50  86 122 154 192 244 276 336
#     4  10  21  38  53  83 113 158 193 228 281 361
#     4   9  21  36  69  82 109 154 202 238 299 346
#     4   9  19  41  63  86 111 149 202 246 289 350
#     4  11  25  35  55  86 125 153 193 239 289 343
#
# _framework density 22.846564000000001
#
# number of rings (size 3 to 8) (size 9 to 14) (size 15 to 20)
#    0.800    1.067    2.667    0.800    3.733    1.067 
#    0.000    1.333    0.000    0.000    0.000    0.000 
#    0.000    0.000    0.000    0.000    0.000    0.000 
#
# Total GULP energy -83517.907507 kJ/mol
# GULP energy per Si atom -5567.860500 kJ/mol
# Density = 2.279456 g / cm^3
# Si number density = 22.846564 Si / 1000 Ang^3
#
#
#
# Elastic Constant Matrix: (Units=GPa)
#
#
# Indices 1 2 3 4 5 6 
#
# 1 111.0318 33.4598 15.1573 10.4858 4.8611 -22.4881
# 2 33.4598 95.5289 2.7198 35.9817 3.0475 -11.7252
# 3 15.1573 2.7198 26.6567 9.0026 7.6062 -5.5779
# 4 10.4858 35.9817 9.0026 24.3087 2.2992 -2.2784
# 5 4.8611 3.0475 7.6062 2.2992 31.0700 2.4871
# 6 -22.4881 -11.7252 -5.5779 -2.2784 2.4871 35.6999
#
#
#
# Elastic Compliance Matrix: (Units=1/GPa)
#
#
# Indices 1 2 3 4 5 6 
#
# 1 0.012243 -0.006110 -0.007570 0.007072 -0.000387 0.005001
# 2 -0.006110 0.032724 0.020400 -0.052327 -0.003938 0.007021
# 3 -0.007570 0.020400 0.061522 -0.047592 -0.013110 0.009420
# 4 0.007072 -0.052327 -0.047592 0.131361 0.006938 -0.012267
# 5 -0.000387 -0.003938 -0.013110 0.006938 0.035779 -0.005635
# 6 0.005001 0.007021 0.009420 -0.012267 -0.005635 0.034549
#
#
# Mechanical properties :
#
#
# Convention : Reuss Voigt Hill
#
# Bulk Modulus (GPa) = 8.33823 37.32124 22.82974
# Shear Modulus (GPa) = 14.93815 30.34109 22.63962
#
# Velocity S-wave (km/s) = 2.55982 3.64818 3.15134
# Velocity P-wave (km/s) = 3.52058 5.84095 4.82240
#
# Compressibility (1/GPa) = 0.11992949
#
# Stress axis : x y z
#
# Youngs Moduli (GPa) = 81.67906 30.55844 16.25445
#
# Poissons Ratio (x) = 0.18672 0.12304
# Poissons Ratio (y) = 0.49908 -0.33159
# Poissons Ratio (z) = 0.61828 -0.62340
#
# Static dielectric constant tensor:
#      x y z
#    x 1.969790 0.018880 -0.146710 
#    y 0.018880 1.913980 -0.128810 
#    z -0.146710 -0.128810 2.140260 
# 
# From -- ./inp_files/326511.got.cif
#   From: 2010.05.17/outbox.cif.g08.bks.cpg/sg2_164_cif.got.tgz:326511.got - 2010.06.03 11:33:40.
