data_PCOD9001325
_publ_section_title
;
Structure prediction by ZEFSAII (Michael W. Deem and Ramdas Pophale) SiO2 
 PCOD9001325
Probable space group: P -1
;
_chemical_formula_sum "Si O2"
_cell_formula_units_Z 12
_cell_length_a 11.791328
_cell_length_b 21.759331
_cell_length_c 5.283224
_cell_angle_alpha 96.951337
_cell_angle_beta 72.612339
_cell_angle_gamma 157.467694
_cell_volume 448.978995
_symmetry_space_group_name_H-M "P -1"
_symmetry_group_IT_number 2
_symmetry_cell_setting 'triclinic'
loop_
_space_group_symop_operation_xyz
x,y,z
-x,-y,-z
loop_
_atom_site_type_symbol
_atom_site_label
_atom_site_fract_x
_atom_site_fract_y
_atom_site_fract_z
Si Si1 0.916194 0.204832 0.705299
Si Si2 0.347717 0.238067 0.177496
Si Si3 0.590344 0.493848 0.148418
Si Si4 0.777166 0.261870 0.611962
Si Si5 0.379742 0.073638 0.277710
Si Si6 0.676933 0.377621 0.534641
O O1 0.791816 0.194518 0.582819
O O2 0.281223 0.352772 0.478313
O O3 0.035281 0.305684 0.909278
O O4 0.683797 0.031384 0.779640
O O5 0.541287 0.397905 0.079372
O O6 0.548241 0.300521 0.299557
O O7 0.379636 0.226714 0.867024
O O8 0.977779 0.071862 0.459676
O O9 0.500000 0.500000 0.000000
O O10 0.632216 0.208823 0.409851
O O11 0.152200 0.470628 0.526115
O O12 0.530174 0.165992 0.951763
O O13 0.000000 0.500000 0.500000
#
# Coordination Sequence:
#
# PCOD9001325 Si02
#       6
#     2   2   2   2   2   2
#     4  10  22  36  60  97 138 179 216 254 324 402
#     4  11  24  46  69  98 136 174 224 275 331 400
#     4  10  21  34  64  98 135 178 223 262 318 394
#     4  12  24  44  63 101 137 176 220 278 323 389
#     4  11  26  40  67 100 143 176 209 262 347 402
#     4  12  26  48  75  96 123 175 237 287 330 384
#
# _framework density 26.727305999999999
#
# number of rings (size 3 to 8) (size 9 to 14) (size 15 to 20)
#    0.000    1.000    1.667    4.500   11.667    0.000 
#    0.000    5.000    0.000    0.000    0.000    0.000 
#    0.000    0.000    0.000    0.000    0.000    0.000 
#
# Total GULP energy -67114.152019 kJ/mol
# GULP energy per Si atom -5592.846002 kJ/mol
# Density = 2.666647 g / cm^3
# Si number density = 26.727306 Si / 1000 Ang^3
#
#
#
# Elastic Constant Matrix: (Units=GPa)
#
#
# Indices 1 2 3 4 5 6 
#
# 1 99.9352 7.6254 3.7286 5.3203 15.3364 0.5986
# 2 7.6254 102.2664 29.6721 -7.9012 11.1736 -0.9326
# 3 3.7286 29.6721 173.0778 -5.9853 -2.1728 -4.6797
# 4 5.3203 -7.9012 -5.9853 45.1832 12.9659 1.5710
# 5 15.3364 11.1736 -2.1728 12.9659 30.9654 -0.7594
# 6 0.5986 -0.9326 -4.6797 1.5710 -0.7594 38.4285
#
#
#
# Elastic Compliance Matrix: (Units=1/GPa)
#
#
# Indices 1 2 3 4 5 6 
#
# 1 0.010853 -0.000114 -0.000283 0.000244 -0.005464 -0.000324
# 2 -0.000114 0.011186 -0.001875 0.003306 -0.005501 -0.000199
# 3 -0.000283 -0.001875 0.006145 0.000149 0.001204 0.000725
# 4 0.000244 0.003306 0.000149 0.026285 -0.012339 -0.001224
# 5 -0.005464 -0.005501 0.001204 -0.012339 0.042272 0.001438
# 6 -0.000324 -0.000199 0.000725 -0.001224 0.001438 0.026189
#
#
# Mechanical properties :
#
#
# Convention : Reuss Voigt Hill
#
# Bulk Modulus (GPa) = 42.30339 50.81465 46.55902
# Shear Modulus (GPa) = 36.93992 45.19896 41.06944
#
# Velocity S-wave (km/s) = 3.72170 4.11678 3.92421
# Velocity P-wave (km/s) = 5.85920 6.45373 6.16364
#
# Compressibility (1/GPa) = 0.02363877
#
# Stress axis : x y z
#
# Youngs Moduli (GPa) = 92.13822 89.40034 162.72857
#
# Poissons Ratio (x) = 0.01021 0.04608
# Poissons Ratio (y) = 0.01052 0.30516
# Poissons Ratio (z) = 0.02609 0.16765
#
# Static dielectric constant tensor:
#      x y z
#    x 2.265730 -0.083700 -0.059580 
#    y -0.083700 2.085840 0.025870 
#    z -0.059580 0.025870 2.146270 
# 
# From -- ./inp_files/24061.got.cif
#   From: 2010.05.17/outbox.cif.g08.bks.cpg/sg2_13_cif.got.tgz:24061.got - 2010.06.03 11:33:40.
