data_PCOD9001225
_publ_section_title
;
Structure prediction by ZEFSAII (Michael W. Deem and Ramdas Pophale) SiO2 
 PCOD9001225
Probable space group: P -1
;
_chemical_formula_sum "Si O2"
_cell_formula_units_Z 12
_cell_length_a 9.124972
_cell_length_b 8.836091
_cell_length_c 10.215505
_cell_angle_alpha 40.069683
_cell_angle_beta 74.630984
_cell_angle_gamma 68.797628
_cell_volume 494.224811
_symmetry_space_group_name_H-M "P -1"
_symmetry_group_IT_number 2
_symmetry_cell_setting 'triclinic'
loop_
_space_group_symop_operation_xyz
x,y,z
-x,-y,-z
loop_
_atom_site_type_symbol
_atom_site_label
_atom_site_fract_x
_atom_site_fract_y
_atom_site_fract_z
Si Si1 0.817790 0.441503 0.613894
Si Si2 0.420805 0.153522 0.287849
Si Si3 0.823380 0.138541 0.421624
Si Si4 0.097529 0.430701 0.743259
Si Si5 0.349426 0.699530 0.052760
Si Si6 0.951738 0.072960 0.155036
O O1 0.801534 0.629334 0.374715
O O2 0.656798 0.391556 0.736321
O O3 0.920939 0.518938 0.656763
O O4 0.929930 0.191001 0.696102
O O5 0.365437 0.440103 0.147677
O O6 0.500000 0.000000 0.500000
O O7 0.284521 0.018405 0.386472
O O8 0.530601 0.165921 0.128742
O O9 0.813044 0.397424 0.315681
O O10 0.831287 0.141923 0.259902
O O11 0.000000 0.000000 0.500000
O O12 0.061197 0.252498 0.979848
O O13 0.173979 0.877253 0.965646
#
# Coordination Sequence:
#
# PCOD9001225 Si02
#       6
#     2   2   2   2   2   2
#     4  10  21  39  63  94 127 166 206 257 313 374
#     4  11  24  42  63  92 128 170 207 257 315 371
#     4  12  22  39  64  98 126 158 213 269 305 363
#     4  10  21  34  57  93 126 157 201 254 312 354
#     4  10  22  40  66  91 122 172 215 246 308 390
#     4  11  21  38  67  96 125 164 209 261 313 366
#
# _framework density 24.280448
#
# number of rings (size 3 to 8) (size 9 to 14) (size 15 to 20)
#    0.000    1.333    3.333    4.500    2.333    1.333 
#    0.000    0.833    0.000    7.000    0.000    0.000 
#    0.000    0.000    0.000    0.000    0.000    0.000 
#
# Total GULP energy -66804.994716 kJ/mol
# GULP energy per Si atom -5567.082893 kJ/mol
# Density = 2.422518 g / cm^3
# Si number density = 24.280448 Si / 1000 Ang^3
#
#
#
# Elastic Constant Matrix: (Units=GPa)
#
#
# Indices 1 2 3 4 5 6 
#
# 1 50.5835 4.4923 50.1433 -4.7871 -36.1860 -8.1462
# 2 4.4923 74.8390 51.7800 3.3659 -26.2260 -3.7207
# 3 50.1433 51.7800 239.5651 11.6623 -80.8833 -16.0407
# 4 -4.7871 3.3659 11.6623 56.9300 -12.7178 -7.2249
# 5 -36.1860 -26.2260 -80.8833 -12.7178 62.6385 2.8585
# 6 -8.1462 -3.7207 -16.0407 -7.2249 2.8585 25.8662
#
#
#
# Elastic Compliance Matrix: (Units=1/GPa)
#
#
# Indices 1 2 3 4 5 6 
#
# 1 0.045164 0.008645 -0.000472 0.012209 0.030888 0.015171
# 2 0.008645 0.017940 -0.002165 0.002831 0.010118 0.003633
# 3 -0.000472 -0.002165 0.008082 0.000989 0.009284 0.003802
# 4 0.012209 0.002831 0.000989 0.022493 0.013643 0.009641
# 5 0.030888 0.010118 0.009284 0.013643 0.052119 0.014992
# 6 0.015171 0.003633 0.003802 0.009641 0.014992 0.047355
#
#
# Mechanical properties :
#
#
# Convention : Reuss Voigt Hill
#
# Bulk Modulus (GPa) = 12.01902 64.20207 38.11055
# Shear Modulus (GPa) = 23.93799 46.32507 35.13153
#
# Velocity S-wave (km/s) = 3.14330 4.37271 3.80795
# Velocity P-wave (km/s) = 4.25848 7.21064 5.92149
#
# Compressibility (1/GPa) = 0.08320144
#
# Stress axis : x y z
#
# Youngs Moduli (GPa) = 22.14146 55.74011 123.73060
#
# Poissons Ratio (x) = -0.48185 0.05837
# Poissons Ratio (y) = -0.19140 0.26794
# Poissons Ratio (z) = 0.01044 0.12070
#
# Static dielectric constant tensor:
#      x y z
#    x 2.064060 0.267540 0.110800 
#    y 0.267540 2.519740 0.474780 
#    z 0.110800 0.474780 2.023830 
# 
# From -- ./inp_files/230923.got.cif
#   From: 2010.05.17/outbox.cif.g08.bks.cpg/sg2_116_cif.got.tgz:230923.got - 2010.06.03 11:33:40.
