data_PCOD9001882
_publ_section_title
;
Structure prediction by ZEFSAII (Michael W. Deem and Ramdas Pophale) SiO2 
 PCOD9001882
Probable space group: P -1
;
_chemical_formula_sum "Si O2"
_cell_formula_units_Z 16
_cell_length_a 9.015908
_cell_length_b 7.669277
_cell_length_c 15.171925
_cell_angle_alpha 128.695036
_cell_angle_beta 58.765042
_cell_angle_gamma 105.766833
_cell_volume 697.932443
_symmetry_space_group_name_H-M "P -1"
_symmetry_group_IT_number 2
_symmetry_cell_setting 'triclinic'
loop_
_space_group_symop_operation_xyz
x,y,z
-x,-y,-z
loop_
_atom_site_type_symbol
_atom_site_label
_atom_site_fract_x
_atom_site_fract_y
_atom_site_fract_z
Si Si1 0.637209 0.849701 0.995162
Si Si2 0.987151 0.628857 0.856844
Si Si3 0.024632 0.740385 0.395145
Si Si4 0.904661 0.067427 0.245127
Si Si5 0.234925 0.418970 0.864532
Si Si6 0.812499 0.493924 0.507594
Si Si7 0.731876 0.157701 0.914024
Si Si8 0.619298 0.494632 0.729281
O O1 0.635882 0.672322 0.858633
O O2 0.801478 0.765756 0.975568
O O3 0.674935 0.075212 0.003553
O O4 0.441561 0.860627 0.096329
O O5 0.958823 0.389682 0.743804
O O6 0.113825 0.562772 0.877080
O O7 0.065632 0.792927 0.810061
O O8 0.852487 0.644503 0.459700
O O9 0.210771 0.673054 0.361814
O O10 0.000000 0.000000 0.500000
O O11 0.827595 0.828399 0.182823
O O12 0.096681 0.002836 0.208202
O O13 0.798591 0.241966 0.397207
O O14 0.434091 0.398628 0.764446
O O15 0.230064 0.585836 0.003043
O O16 0.657834 0.582167 0.647172
O O17 0.000000 0.500000 0.500000
#
# Coordination Sequence:
#
# PCOD9001882 Si02
#       8
#     2   2   2   2   2   2   2   2
#     4   8  16  34  59  78 108 140 184 230 268 315
#     4   9  20  37  53  81 111 141 182 223 275 319
#     4   9  18  35  56  78 106 143 182 226 269 316
#     4  10  21  36  53  81 115 143 180 224 274 325
#     4  11  22  35  57  82 112 148 181 219 274 330
#     4   9  18  34  56  77 106 143 178 223 270 318
#     4   9  17  34  59  80 104 149 183 223 274 317
#     4   9  19  36  55  82 109 143 182 220 275 323
#
# _framework density 22.924852999999999
#
# number of rings (size 3 to 8) (size 9 to 14) (size 15 to 20)
#    0.000    2.750    0.000    2.625    3.500    2.500 
#    2.250    1.875    0.000    0.000    0.000    0.000 
#    0.000    0.000    0.000    0.000    0.000    0.000 
#
# Total GULP energy -89270.413068 kJ/mol
# GULP energy per Si atom -5579.400817 kJ/mol
# Density = 2.287268 g / cm^3
# Si number density = 22.924853 Si / 1000 Ang^3
#
#
#
# Elastic Constant Matrix: (Units=GPa)
#
#
# Indices 1 2 3 4 5 6 
#
# 1 75.4789 48.7897 22.2163 -1.9772 -6.9672 12.5221
# 2 48.7897 103.7851 41.5671 24.2058 -10.4431 15.7380
# 3 22.2163 41.5671 82.2007 8.7162 -11.2081 8.2603
# 4 -1.9772 24.2058 8.7162 46.5634 4.7542 -1.8704
# 5 -6.9672 -10.4431 -11.2081 4.7542 26.7791 -0.0357
# 6 12.5221 15.7380 8.2603 -1.8704 -0.0357 31.5636
#
#
#
# Elastic Compliance Matrix: (Units=1/GPa)
#
#
# Indices 1 2 3 4 5 6 
#
# 1 0.020954 -0.010750 -0.000708 0.006536 -0.000201 -0.002380
# 2 -0.010750 0.020607 -0.005137 -0.010933 0.005023 -0.005308
# 3 -0.000708 -0.005137 0.015801 -0.000838 0.004573 -0.001337
# 4 0.006536 -0.010933 -0.000838 0.028601 -0.007985 0.004764
# 5 -0.000201 0.005023 0.004573 -0.007985 0.042575 -0.004047
# 6 -0.002380 -0.005308 -0.001337 0.004764 -0.004047 0.035900
#
#
# Mechanical properties :
#
#
# Convention : Reuss Voigt Hill
#
# Bulk Modulus (GPa) = 41.37327 54.06788 47.72057
# Shear Modulus (GPa) = 24.30876 30.90734 27.60805
#
# Velocity S-wave (km/s) = 3.25986 3.67577 3.47405
# Velocity P-wave (km/s) = 5.67939 6.45377 6.07892
#
# Compressibility (1/GPa) = 0.02417020
#
# Stress axis : x y z
#
# Youngs Moduli (GPa) = 47.72398 48.52732 63.28582
#
# Poissons Ratio (x) = 0.52169 0.04481
# Poissons Ratio (y) = 0.51305 0.32513
# Poissons Ratio (z) = 0.03379 0.24931
#
# Static dielectric constant tensor:
#      x y z
#    x 1.906780 -0.057940 0.030060 
#    y -0.057940 1.980670 -0.064930 
#    z 0.030060 -0.064930 1.877630 
# 
# From -- ./inp_files/197010.got.cif
#   From: 2010.05.17/outbox.cif.g08.bks.cpg/sg2_99_cif.got.tgz:197010.got - 2010.06.03 11:33:40.
