data_PCOD9001827
_publ_section_title
;
Structure prediction by ZEFSAII (Michael W. Deem and Ramdas Pophale) SiO2 
 PCOD9001827
Probable space group: P -1
;
_chemical_formula_sum "Si O2"
_cell_formula_units_Z 16
_cell_length_a 32.826377
_cell_length_b 13.392214
_cell_length_c 19.568126
_cell_angle_alpha 160.814157
_cell_angle_beta 17.336501
_cell_angle_gamma 153.007495
_cell_volume 837.574520
_symmetry_space_group_name_H-M "P -1"
_symmetry_group_IT_number 2
_symmetry_cell_setting 'triclinic'
loop_
_space_group_symop_operation_xyz
x,y,z
-x,-y,-z
loop_
_atom_site_type_symbol
_atom_site_label
_atom_site_fract_x
_atom_site_fract_y
_atom_site_fract_z
Si Si1 0.814008 0.314335 0.333272
Si Si2 0.001464 0.149402 0.795187
Si Si3 0.990932 0.757927 0.419935
Si Si4 0.712846 0.454855 0.147210
Si Si5 0.468024 0.419346 0.363750
Si Si6 0.641617 0.900985 0.429781
Si Si7 0.688448 0.861460 0.666767
Si Si8 0.601860 0.792687 0.904286
O O1 0.890396 0.522088 0.398684
O O2 0.693775 0.542450 0.638675
O O3 0.747653 0.054745 0.313579
O O4 0.907481 0.168483 0.026206
O O5 0.159942 0.065705 0.510425
O O6 0.964498 0.942959 0.655071
O O7 0.000000 0.500000 0.000000
O O8 0.000000 0.000000 0.500000
O O9 0.137421 0.561449 0.070837
O O10 0.585768 0.626337 0.503247
O O11 0.710172 0.627854 0.191461
O O12 0.674963 0.107672 0.988914
O O13 0.526774 0.740503 0.467847
O O14 0.330380 0.386549 0.520988
O O15 0.595073 0.161653 0.983487
O O16 0.549894 0.143736 0.780979
O O17 0.613099 0.718043 0.758420
#
# Coordination Sequence:
#
# PCOD9001827 Si02
#       8
#     2   2   2   2   2   2   2   2
#     4  12  26  41  61  93 131 165 197 254 317 361
#     4  12  22  39  64  91 123 157 208 258 292 368
#     4  12  22  40  67  92 118 165 212 251 300 367
#     4  11  19  39  66  86 117 162 210 250 293 365
#     4  10  21  35  65  90 118 160 205 256 303 361
#     4  11  23  41  59  92 126 161 200 253 314 359
#     4  11  19  37  62  96 113 150 218 258 294 349
#     4  11  19  41  65  85 121 159 206 256 292 364
#
# _framework density 19.102778000000001
#
# number of rings (size 3 to 8) (size 9 to 14) (size 15 to 20)
#    0.000    0.750    7.500    1.875    0.000    0.500 
#    2.250    3.125    0.000    0.000    0.000    0.000 
#    0.000    0.000    0.000    0.000    0.000    0.000 
#
# Total GULP energy -89126.398423 kJ/mol
# GULP energy per Si atom -5570.399901 kJ/mol
# Density = 1.905930 g / cm^3
# Si number density = 19.102778 Si / 1000 Ang^3
#
#
#
# Elastic Constant Matrix: (Units=GPa)
#
#
# Indices 1 2 3 4 5 6 
#
# 1 102.8859 55.2578 19.9521 -4.8846 20.9645 6.1227
# 2 55.2578 120.6086 27.3392 -6.9542 23.3379 -22.7630
# 3 19.9521 27.3392 70.7837 -12.9271 5.3119 -5.1792
# 4 -4.8846 -6.9542 -12.9271 21.2514 -4.3335 6.5615
# 5 20.9645 23.3379 5.3119 -4.3335 28.8916 0.0802
# 6 6.1227 -22.7630 -5.1792 6.5615 0.0802 27.4975
#
#
#
# Elastic Compliance Matrix: (Units=1/GPa)
#
#
# Indices 1 2 3 4 5 6 
#
# 1 0.016059 -0.008168 -0.001361 0.002773 -0.004358 -0.011242
# 2 -0.008168 0.017264 -0.003472 -0.005173 -0.008203 0.016714
# 3 -0.001361 -0.003472 0.017414 0.010101 0.002110 -0.001708
# 4 0.002773 -0.005173 0.010101 0.059338 0.009257 -0.017184
# 5 -0.004358 -0.008203 0.002110 0.009257 0.045422 -0.007764
# 6 -0.011242 0.016714 -0.001708 -0.017184 -0.007764 0.056508
#
#
# Mechanical properties :
#
#
# Convention : Reuss Voigt Hill
#
# Bulk Modulus (GPa) = 40.42854 55.48628 47.95741
# Shear Modulus (GPa) = 20.30449 28.31004 24.30726
#
# Velocity S-wave (km/s) = 3.26376 3.85383 3.57101
# Velocity P-wave (km/s) = 5.95084 6.99371 6.49324
#
# Compressibility (1/GPa) = 0.02473500
#
# Stress axis : x y z
#
# Youngs Moduli (GPa) = 62.27154 57.92434 57.42622
#
# Poissons Ratio (x) = 0.47310 0.07816
# Poissons Ratio (y) = 0.50861 0.19938
# Poissons Ratio (z) = 0.08475 0.20111
#
# Static dielectric constant tensor:
#      x y z
#    x 1.755480 0.044650 0.066230 
#    y 0.044650 1.633910 0.011670 
#    z 0.066230 0.011670 1.734120 
# 
# From -- ./inp_files/345274.got.cif
#   From: 2010.05.17/outbox.cif.g08.bks.cpg/sg2_173_cif.got.tgz:345274.got - 2010.06.03 11:33:40.
