data_PCOD9001707
_publ_section_title
;
Structure prediction by ZEFSAII (Michael W. Deem and Ramdas Pophale) SiO2 
 PCOD9001707
Probable space group: P -1
;
_chemical_formula_sum "Si O2"
_cell_formula_units_Z 16
_cell_length_a 9.269945
_cell_length_b 21.005326
_cell_length_c 15.131407
_cell_angle_alpha 33.388019
_cell_angle_beta 38.697020
_cell_angle_gamma 31.427235
_cell_volume 821.349371
_symmetry_space_group_name_H-M "P -1"
_symmetry_group_IT_number 2
_symmetry_cell_setting 'triclinic'
loop_
_space_group_symop_operation_xyz
x,y,z
-x,-y,-z
loop_
_atom_site_type_symbol
_atom_site_label
_atom_site_fract_x
_atom_site_fract_y
_atom_site_fract_z
Si Si1 0.621586 0.831900 0.646057
Si Si2 0.766058 0.129291 0.057884
Si Si3 0.101752 0.804957 0.250823
Si Si4 0.723345 0.691757 0.577270
Si Si5 0.670395 0.902948 0.114821
Si Si6 0.766964 0.257079 0.539044
Si Si7 0.143114 0.418456 0.617674
Si Si8 0.260676 0.901311 0.424998
O O1 0.466180 0.814245 0.820789
O O2 0.583251 0.774134 0.639921
O O3 0.961601 0.740088 0.603816
O O4 0.500000 0.000000 0.500000
O O5 0.694829 0.222410 0.895921
O O6 0.851643 0.973893 0.170924
O O7 0.056087 0.101000 0.989316
O O8 0.231854 0.777737 0.317852
O O9 0.950785 0.726021 0.404800
O O10 0.483377 0.758768 0.539336
O O11 0.915704 0.521078 0.681988
O O12 0.782343 0.739056 0.235653
O O13 0.443204 0.958100 0.239657
O O14 0.500000 0.000000 0.000000
O O15 0.447890 0.391806 0.515140
O O16 0.826358 0.136803 0.580001
O O17 0.000000 0.500000 0.500000
O O18 0.000000 0.000000 0.500000
#
# Coordination Sequence:
#
# PCOD9001707 Si02
#       8
#     2   2   2   2   2   2   2   2
#     4  11  22  37  63  95 135 166 216 277 328 388
#     4  11  20  38  61  88 136 168 206 270 332 386
#     4  10  21  35  61  91 124 166 213 259 328 383
#     4  11  21  40  64  96 122 176 217 265 331 377
#     4  11  24  40  65 100 129 178 219 277 326 383
#     4  10  21  38  59  94 121 166 220 264 313 388
#     4  11  21  43  67  92 134 173 225 270 321 400
#     4  11  22  36  65  97 127 163 218 271 319 385
#
# _framework density 19.480139999999999
#
# number of rings (size 3 to 8) (size 9 to 14) (size 15 to 20)
#    0.000    1.250    6.250    2.250    1.750    2.000 
#    0.000    0.625    0.000    6.750    0.000    0.000 
#    0.000    0.000    0.000    0.000    0.000    0.000 
#
# Total GULP energy -89263.775256 kJ/mol
# GULP energy per Si atom -5578.985953 kJ/mol
# Density = 1.943580 g / cm^3
# Si number density = 19.480140 Si / 1000 Ang^3
#
#
#
# Elastic Constant Matrix: (Units=GPa)
#
#
# Indices 1 2 3 4 5 6 
#
# 1 117.5720 30.8553 42.8906 10.2505 19.4217 -9.7627
# 2 30.8553 109.2668 48.3172 12.3592 14.8555 -0.3497
# 3 42.8906 48.3172 111.7646 28.9493 22.6455 0.9817
# 4 10.2505 12.3592 28.9493 40.3131 9.4577 -0.0858
# 5 19.4217 14.8555 22.6455 9.4577 32.7483 4.0191
# 6 -9.7627 -0.3497 0.9817 -0.0858 4.0191 33.9402
#
#
#
# Elastic Compliance Matrix: (Units=1/GPa)
#
#
# Indices 1 2 3 4 5 6 
#
# 1 0.010905 -0.001224 -0.002978 0.000816 -0.004548 0.003751
# 2 -0.001224 0.011581 -0.004256 0.000205 -0.001655 0.000087
# 3 -0.002978 -0.004256 0.014745 -0.007539 -0.004218 -0.000847
# 4 0.000816 0.000205 -0.007539 0.030994 -0.004445 0.001060
# 5 -0.004548 -0.001655 -0.004218 -0.004445 0.038899 -0.005821
# 6 0.003751 0.000087 -0.000847 0.001060 -0.005821 0.031260
#
#
# Mechanical properties :
#
#
# Convention : Reuss Voigt Hill
#
# Bulk Modulus (GPa) = 49.22532 64.74775 56.98654
# Shear Modulus (GPa) = 30.85039 35.83634 33.34336
#
# Velocity S-wave (km/s) = 3.98387 4.29375 4.14171
# Velocity P-wave (km/s) = 6.81806 7.60866 7.22418
#
# Compressibility (1/GPa) = 0.02031475
#
# Stress axis : x y z
#
# Youngs Moduli (GPa) = 91.70202 86.34471 67.82018
#
# Poissons Ratio (x) = 0.10571 0.20199
# Poissons Ratio (y) = 0.11227 0.28861
# Poissons Ratio (z) = 0.27312 0.36745
#
# Static dielectric constant tensor:
#      x y z
#    x 1.739240 0.024140 0.002760 
#    y 0.024140 1.701150 0.009250 
#    z 0.002760 0.009250 1.699730 
# 
# From -- ./inp_files/416662.got.cif
#   From: 2010.05.17/outbox.cif.g08.bks.cpg/sg2_209_cif.got.tgz:416662.got - 2010.06.03 11:33:40.
