data_PCOD9001876
_publ_section_title
;
Structure prediction by ZEFSAII (Michael W. Deem and Ramdas Pophale) SiO2 
 PCOD9001876
Probable space group: P -1
;
_chemical_formula_sum "Si O2"
_cell_formula_units_Z 16
_cell_length_a 18.260384
_cell_length_b 5.795321
_cell_length_c 9.131581
_cell_angle_alpha 129.483173
_cell_angle_beta 110.396633
_cell_angle_gamma 72.776035
_cell_volume 695.358706
_symmetry_space_group_name_H-M "P -1"
_symmetry_group_IT_number 2
_symmetry_cell_setting 'triclinic'
loop_
_space_group_symop_operation_xyz
x,y,z
-x,-y,-z
loop_
_atom_site_type_symbol
_atom_site_label
_atom_site_fract_x
_atom_site_fract_y
_atom_site_fract_z
Si Si1 0.396737 0.940157 0.770391
Si Si2 0.309390 0.608372 0.979320
Si Si3 0.038401 0.651428 0.776744
Si Si4 0.543563 0.161623 0.896313
Si Si5 0.822982 0.621538 0.044300
Si Si6 0.868090 0.541286 0.733836
Si Si7 0.244281 0.727050 0.656482
Si Si8 0.959440 0.946235 0.604589
O O1 0.354690 0.275973 0.862432
O O2 0.476766 0.937585 0.730365
O O3 0.325884 0.732382 0.624758
O O4 0.425473 0.897095 0.940712
O O5 0.247864 0.579529 0.054043
O O6 0.265717 0.668709 0.817891
O O7 0.376757 0.832064 0.138658
O O8 0.100544 0.574710 0.916172
O O9 0.064585 0.385709 0.571118
O O10 0.950794 0.639933 0.776363
O O11 0.023458 0.938367 0.775659
O O12 0.500000 0.500000 0.000000
O O13 0.802710 0.937623 0.243090
O O14 0.830970 0.709670 0.916390
O O15 0.808539 0.506640 0.547023
O O16 0.890534 0.204822 0.677757
O O17 0.000000 0.000000 0.500000
#
# Coordination Sequence:
#
# PCOD9001876 Si02
#       8
#     2   2   2   2   2   2   2   2
#     4   8  15  29  51  81 109 141 182 218 264 328
#     4   9  19  31  53  80 109 146 178 225 273 317
#     4  10  21  36  56  77 104 143 185 226 277 328
#     4   8  13  27  51  82 112 139 179 221 265 321
#     4  11  23  36  54  80 109 142 186 227 272 330
#     4  11  23  37  55  78 108 144 184 228 273 326
#     4  10  21  36  53  78 112 143 180 226 274 319
#     4   9  20  36  57  78 100 138 182 232 277 322
#
# _framework density 23.009706999999999
#
# number of rings (size 3 to 8) (size 9 to 14) (size 15 to 20)
#    0.000    2.500    1.250    0.375    5.250    1.500 
#    0.000    0.000    0.000    0.750    0.000   78.750 
#    0.000    0.000    0.000    0.000    0.000    0.000 
#
# Total GULP energy -89201.941300 kJ/mol
# GULP energy per Si atom -5575.121331 kJ/mol
# Density = 2.295734 g / cm^3
# Si number density = 23.009707 Si / 1000 Ang^3
#
#
#
# Elastic Constant Matrix: (Units=GPa)
#
#
# Indices 1 2 3 4 5 6 
#
# 1 158.0000 6.4219 49.7698 -13.1284 25.0766 34.1707
# 2 6.4219 77.2808 10.7192 -30.7367 5.8193 -12.0242
# 3 49.7698 10.7192 64.3625 -9.0716 -0.1402 0.5157
# 4 -13.1284 -30.7367 -9.0716 24.8604 -1.8543 5.1905
# 5 25.0766 5.8193 -0.1402 -1.8543 18.6883 -8.0404
# 6 34.1707 -12.0242 0.5157 5.1905 -8.0404 35.9746
#
#
#
# Elastic Compliance Matrix: (Units=1/GPa)
#
#
# Indices 1 2 3 4 5 6 
#
# 1 0.054140 0.011679 -0.038208 0.037065 -0.105553 -0.075912
# 2 0.011679 0.028790 -0.008212 0.039503 -0.026347 -0.012941
# 3 -0.038208 -0.008212 0.043389 -0.019883 0.074767 0.052504
# 4 0.037065 0.039503 -0.019883 0.107056 -0.074739 -0.053869
# 5 -0.105553 -0.026347 0.074767 -0.074739 0.265554 0.160517
# 6 -0.075912 -0.012941 0.052504 -0.053869 0.160517 0.138473
#
#
# Mechanical properties :
#
#
# Convention : Reuss Voigt Hill
#
# Bulk Modulus (GPa) = 17.59359 48.16277 32.87818
# Shear Modulus (GPa) = 6.88867 31.42016 19.15441
#
# Velocity S-wave (km/s) = 1.73214 3.69930 2.88835
# Velocity P-wave (km/s) = 3.41514 6.26286 5.04413
#
# Compressibility (1/GPa) = 0.05683890
#
# Stress axis : x y z
#
# Youngs Moduli (GPa) = 18.47075 34.73388 23.04711
#
# Poissons Ratio (x) = -0.40567 0.88057
# Poissons Ratio (y) = -0.21573 0.18927
# Poissons Ratio (z) = 0.70572 0.28524
#
# Static dielectric constant tensor:
#      x y z
#    x 1.940150 0.054790 0.042950 
#    y 0.054790 1.936210 0.031280 
#    z 0.042950 0.031280 1.882990 
# 
# From -- ./inp_files/82828.got.cif
#   From: 2010.05.17/outbox.cif.g08.bks.cpg/sg2_42_cif.got.tgz:82828.got - 2010.06.03 11:33:40.
