data_PCOD9001638
_publ_section_title
;
Structure prediction by ZEFSAII (Michael W. Deem and Ramdas Pophale) SiO2 
 PCOD9001638
Probable space group: P -1
;
_chemical_formula_sum "Si O2"
_cell_formula_units_Z 16
_cell_length_a 8.018244
_cell_length_b 14.382694
_cell_length_c 14.801527
_cell_angle_alpha 30.030506
_cell_angle_beta 90.958137
_cell_angle_gamma 109.636744
_cell_volume 654.414420
_symmetry_space_group_name_H-M "P -1"
_symmetry_group_IT_number 2
_symmetry_cell_setting 'triclinic'
loop_
_space_group_symop_operation_xyz
x,y,z
-x,-y,-z
loop_
_atom_site_type_symbol
_atom_site_label
_atom_site_fract_x
_atom_site_fract_y
_atom_site_fract_z
Si Si1 0.357041 0.352826 0.209562
Si Si2 0.648968 0.394753 0.842038
Si Si3 0.880004 0.164032 0.314464
Si Si4 0.493312 0.274259 0.667699
Si Si5 0.224883 0.482904 0.688378
Si Si6 0.227662 0.047493 0.018441
Si Si7 0.091026 0.428042 0.469521
Si Si8 0.010588 0.409959 0.930557
O O1 0.435422 0.518757 0.158838
O O2 0.111413 0.252612 0.277371
O O3 0.318533 0.108477 0.430823
O O4 0.500000 0.500000 0.000000
O O5 0.444967 0.163755 0.981876
O O6 0.802548 0.593516 0.598846
O O7 0.803632 0.358514 0.923855
O O8 0.865785 0.353358 0.203005
O O9 0.912348 0.194951 0.181372
O O10 0.500000 0.500000 0.500000
O O11 0.545164 0.295961 0.543686
O O12 0.289584 0.052979 0.909161
O O13 0.706554 0.350273 0.657528
O O14 0.190700 0.243539 0.861757
O O15 0.175765 0.461860 0.811682
O O16 0.058210 0.514223 0.618132
O O17 0.037830 0.804615 0.272288
#
# Coordination Sequence:
#
# PCOD9001638 Si02
#       8
#     2   2   2   2   2   2   2   2
#     4  10  21  35  60  87 115 154 200 244 302 360
#     4   9  21  39  54  89 120 148 201 251 284 355
#     4   9  20  39  59  83 119 157 193 249 303 354
#     4   9  20  40  59  91 126 151 200 252 285 355
#     4  10  21  36  62  90 116 158 201 240 291 361
#     4  10  22  39  62  85 124 159 196 248 297 348
#     4  10  21  40  62  85 121 164 195 241 302 348
#     4   9  19  39  60  84 121 157 198 248 302 357
#
# _framework density 24.449337
#
# number of rings (size 3 to 8) (size 9 to 14) (size 15 to 20)
#    0.000    2.500    0.000    0.375    3.500    5.500 
#    2.250   13.125    0.000    0.000    0.000    0.000 
#    0.000    0.000    0.000    0.000    0.000    0.000 
#
# Total GULP energy -89460.719197 kJ/mol
# GULP energy per Si atom -5591.294950 kJ/mol
# Density = 2.439369 g / cm^3
# Si number density = 24.449337 Si / 1000 Ang^3
#
#
#
# Elastic Constant Matrix: (Units=GPa)
#
#
# Indices 1 2 3 4 5 6 
#
# 1 67.7492 22.8258 3.0586 6.8673 -1.8466 1.7326
# 2 22.8258 107.5886 69.3187 38.3142 -22.4297 -28.1347
# 3 3.0586 69.3187 186.7219 32.0986 -20.1522 -20.3408
# 4 6.8673 38.3142 32.0986 41.0346 -6.6694 -11.2654
# 5 -1.8466 -22.4297 -20.1522 -6.6694 37.4248 9.4601
# 6 1.7326 -28.1347 -20.3408 -11.2654 9.4601 43.3947
#
#
#
# Elastic Compliance Matrix: (Units=1/GPa)
#
#
# Indices 1 2 3 4 5 6 
#
# 1 0.016589 -0.005508 0.001255 0.000314 -0.000900 -0.003368
# 2 -0.005508 0.020463 -0.004007 -0.012126 0.005858 0.007184
# 3 0.001255 -0.004007 0.007295 -0.001977 0.001239 -0.000012
# 4 0.000314 -0.012126 -0.001977 0.037215 -0.002013 0.001299
# 5 -0.000900 0.005858 0.001239 -0.002013 0.031232 -0.002917
# 6 -0.003368 0.007184 -0.000012 0.001299 -0.002917 0.028804
#
#
# Mechanical properties :
#
#
# Convention : Reuss Voigt Hill
#
# Bulk Modulus (GPa) = 35.93704 61.38512 48.66108
# Shear Modulus (GPa) = 29.86956 42.16127 36.01541
#
# Velocity S-wave (km/s) = 3.49906 4.15714 3.84221
# Velocity P-wave (km/s) = 5.57271 6.94291 6.29520
#
# Compressibility (1/GPa) = 0.02782644
#
# Stress axis : x y z
#
# Youngs Moduli (GPa) = 60.27989 48.86829 137.08256
#
# Poissons Ratio (x) = 0.26919 -0.17207
# Poissons Ratio (y) = 0.33205 0.54932
# Poissons Ratio (z) = -0.07566 0.19583
#
# Static dielectric constant tensor:
#      x y z
#    x 2.036000 0.005310 0.031050 
#    y 0.005310 1.975180 -0.004930 
#    z 0.031050 -0.004930 1.926330 
# 
# From -- ./inp_files/504990.got.cif
#   From: 2010.05.17/outbox.cif.g08.bks.cpg/sg2_253_cif.got.tgz:504990.got - 2010.06.03 11:33:40.
