data_PCOD9001154
_publ_section_title
;
Structure prediction by ZEFSAII (Michael W. Deem and Ramdas Pophale) SiO2 
 PCOD9001154
Probable space group: P -1
;
_chemical_formula_sum "Si O2"
_cell_formula_units_Z 14
_cell_length_a 16.845190
_cell_length_b 6.228067
_cell_length_c 9.049790
_cell_angle_alpha 103.220175
_cell_angle_beta 130.587782
_cell_angle_gamma 64.512291
_cell_volume 649.020368
_symmetry_space_group_name_H-M "P -1"
_symmetry_group_IT_number 2
_symmetry_cell_setting 'triclinic'
loop_
_space_group_symop_operation_xyz
x,y,z
-x,-y,-z
loop_
_atom_site_type_symbol
_atom_site_label
_atom_site_fract_x
_atom_site_fract_y
_atom_site_fract_z
Si Si1 0.634050 0.504410 0.792763
Si Si2 0.086171 0.889740 0.449847
Si Si3 0.911023 0.707518 0.076657
Si Si4 0.958253 0.813360 0.840782
Si Si5 0.554354 0.730918 0.458283
Si Si6 0.743512 0.160052 0.114972
Si Si7 0.471253 0.962800 0.122916
O O1 0.654360 0.555067 0.653995
O O2 0.543468 0.376628 0.666433
O O3 0.577252 0.771081 0.827636
O O4 0.730034 0.346148 0.995293
O O5 0.202012 0.781001 0.663005
O O6 0.029901 0.730349 0.270857
O O7 0.091542 0.077541 0.361287
O O8 0.000000 0.000000 0.500000
O O9 0.936271 0.434033 0.095368
O O10 0.818426 0.901756 0.095109
O O11 0.886772 0.762070 0.881112
O O12 0.000000 0.000000 0.000000
O O13 0.571737 0.783584 0.317944
O O14 0.500000 0.000000 0.500000
O O15 0.624721 0.146312 0.007742
O O16 0.500000 0.000000 0.000000
#
# Coordination Sequence:
#
# PCOD9001154 Si02
#       7
#     2   2   2   2   2   2   2
#     4   9  18  35  57  76 105 140 182 227 268 321
#     4   9  19  34  54  81 112 143 177 219 274 324
#     4   9  19  36  58  80 109 145 183 224 266 319
#     4   9  18  35  57  79 109 148 182 218 268 321
#     4   8  16  34  57  76  98 140 184 221 272 320
#     4  10  21  34  54  85 109 141 185 224 271 322
#     4  10  21  36  55  81 112 144 180 225 274 323
#
# _framework density 21.570974
#
# number of rings (size 3 to 8) (size 9 to 14) (size 15 to 20)
#    0.000    2.857    0.000    0.000    0.000    9.143 
#    0.000   10.000    0.000    6.857    0.000    0.000 
#    0.000    0.000    0.000    0.000    0.000    0.000 
#
# Total GULP energy -77945.076337 kJ/mol
# GULP energy per Si atom -5567.505453 kJ/mol
# Density = 2.152188 g / cm^3
# Si number density = 21.570974 Si / 1000 Ang^3
#
#
#
# Elastic Constant Matrix: (Units=GPa)
#
#
# Indices 1 2 3 4 5 6 
#
# 1 57.8537 8.4826 46.2789 -11.6300 -24.8803 18.9486
# 2 8.4826 79.0632 51.2230 -20.5376 -9.5432 20.2310
# 3 46.2789 51.2230 153.1705 -38.5875 -42.5181 22.2195
# 4 -11.6300 -20.5376 -38.5875 38.6261 15.6478 -8.2657
# 5 -24.8803 -9.5432 -42.5181 15.6478 32.3215 -4.4784
# 6 18.9486 20.2310 22.2195 -8.2657 -4.4784 23.6462
#
#
#
# Elastic Compliance Matrix: (Units=1/GPa)
#
#
# Indices 1 2 3 4 5 6 
#
# 1 0.040151 0.008651 -0.004561 -0.005079 0.025453 -0.032245
# 2 0.008651 0.021269 -0.005923 0.003802 0.000801 -0.018083
# 3 -0.004561 -0.005923 0.014386 0.005190 0.011028 -0.000893
# 4 -0.005079 0.003802 0.005190 0.038573 -0.013687 0.006831
# 5 0.025453 0.000801 0.011028 -0.013687 0.068685 -0.023221
# 6 -0.032245 -0.018083 -0.000893 0.006831 -0.023221 0.082429
#
#
# Mechanical properties :
#
#
# Convention : Reuss Voigt Hill
#
# Bulk Modulus (GPa) = 13.86181 55.78403 34.82292
# Shear Modulus (GPa) = 17.05287 31.19229 24.12258
#
# Velocity S-wave (km/s) = 2.81472 3.80680 3.34771
# Velocity P-wave (km/s) = 4.12354 6.72600 5.57865
#
# Compressibility (1/GPa) = 0.07214065
#
# Stress axis : x y z
#
# Youngs Moduli (GPa) = 24.90573 47.01709 69.51351
#
# Poissons Ratio (x) = -0.40675 0.31703
# Poissons Ratio (y) = -0.21546 0.41173
# Poissons Ratio (z) = 0.11359 0.27849
#
# Static dielectric constant tensor:
#      x y z
#    x 2.348390 0.159450 0.544070 
#    y 0.159450 1.828430 0.146330 
#    z 0.544070 0.146330 2.487530 
# 
# From -- ./inp_files/36740.got.cif
#   From: 2010.05.17/outbox.cif.g08.bks.cpg/sg2_19_cif.got.tgz:36740.got - 2010.06.03 11:33:40.
