data_PCOD9001275
_publ_section_title
;
Structure prediction by ZEFSAII (Michael W. Deem and Ramdas Pophale) SiO2 
 PCOD9001275
Probable space group: P -1
;
_chemical_formula_sum "Si O2"
_cell_formula_units_Z 16
_cell_length_a 11.670139
_cell_length_b 12.229325
_cell_length_c 11.482282
_cell_angle_alpha 137.889502
_cell_angle_beta 35.277743
_cell_angle_gamma 132.828085
_cell_volume 622.890644
_symmetry_space_group_name_H-M "P -1"
_symmetry_group_IT_number 2
_symmetry_cell_setting 'triclinic'
loop_
_space_group_symop_operation_xyz
x,y,z
-x,-y,-z
loop_
_atom_site_type_symbol
_atom_site_label
_atom_site_fract_x
_atom_site_fract_y
_atom_site_fract_z
Si Si1 0.543865 0.964790 0.071249
Si Si2 0.139820 0.112673 0.813812
Si Si3 0.589964 0.104370 0.643790
Si Si4 0.514341 0.623486 0.744016
Si Si5 0.150747 0.191559 0.126760
Si Si6 0.346822 0.662866 0.676597
Si Si7 0.271146 0.535550 0.232190
Si Si8 0.890225 0.541718 0.954019
O O1 0.356271 0.918347 0.280973
O O2 0.661454 0.141895 0.166416
O O3 0.620836 0.788264 0.852510
O O4 0.500000 0.000000 0.000000
O O5 0.357566 0.057948 0.587747
O O6 0.989844 0.938824 0.777548
O O7 0.145136 0.269469 0.851821
O O8 0.067125 0.166405 0.042435
O O9 0.702416 0.269064 0.614672
O O10 0.363830 0.133201 0.879145
O O11 0.514920 0.661038 0.635971
O O12 0.584969 0.449691 0.571385
O O13 0.276890 0.587421 0.942303
O O14 0.170135 0.388317 0.285318
O O15 0.123554 0.557393 0.802939
O O16 0.500000 0.500000 0.000000
O O17 0.162303 0.505240 0.173741
#
# Coordination Sequence:
#
# PCOD9001275 Si02
#       8
#     2   2   2   2   2   2   2   2
#     4  10  21  39  63  93 128 165 210 262 315 381
#     4  10  21  34  60  87 119 154 205 257 311 376
#     4  11  19  37  59  84 118 166 201 250 319 372
#     4  10  21  41  63  89 125 167 205 261 318 372
#     4   9  20  38  55  84 120 155 204 258 310 375
#     4  10  22  39  63  91 123 163 213 258 316 372
#     4   9  20  37  59  84 123 161 202 255 315 375
#     4  11  20  39  59  89 121 161 207 257 310 374
#
# _framework density 25.686689999999999
#
# number of rings (size 3 to 8) (size 9 to 14) (size 15 to 20)
#    0.000    2.000    1.250    2.250    0.000    0.500 
#    4.500    6.250    0.000    9.750    0.000    0.000 
#    0.000    0.000    0.000    0.000    0.000    0.000 
#
# Total GULP energy -89139.985936 kJ/mol
# GULP energy per Si atom -5571.249121 kJ/mol
# Density = 2.562823 g / cm^3
# Si number density = 25.686690 Si / 1000 Ang^3
#
#
#
# Elastic Constant Matrix: (Units=GPa)
#
#
# Indices 1 2 3 4 5 6 
#
# 1 64.8777 8.1212 16.9535 8.0560 10.6157 10.8190
# 2 8.1212 120.7507 25.2951 19.5242 7.1705 13.4784
# 3 16.9535 25.2951 98.9580 28.7421 8.5838 15.2620
# 4 8.0560 19.5242 28.7421 46.4808 5.7333 0.4985
# 5 10.6157 7.1705 8.5838 5.7333 33.3632 1.1794
# 6 10.8190 13.4784 15.2620 0.4985 1.1794 43.2429
#
#
#
# Elastic Compliance Matrix: (Units=1/GPa)
#
#
# Indices 1 2 3 4 5 6 
#
# 1 0.017391 0.000091 -0.001609 -0.001431 -0.004764 -0.003665
# 2 0.000091 0.009344 -0.001001 -0.003153 -0.001149 -0.002514
# 3 -0.001609 -0.001001 0.013526 -0.007458 -0.001332 -0.003937
# 4 -0.001431 -0.003153 -0.007458 0.027890 -0.001872 0.003703
# 5 -0.004764 -0.001149 -0.001332 -0.001872 0.032359 0.001159
# 6 -0.003665 -0.002514 -0.003937 0.003703 0.001159 0.026141
#
#
# Mechanical properties :
#
#
# Convention : Reuss Voigt Hill
#
# Bulk Modulus (GPa) = 28.39056 42.81401 35.60228
# Shear Modulus (GPa) = 34.86060 40.23183 37.54621
#
# Velocity S-wave (km/s) = 3.68794 3.96188 3.82737
# Velocity P-wave (km/s) = 5.40474 6.13455 5.78117
#
# Compressibility (1/GPa) = 0.03522298
#
# Stress axis : x y z
#
# Youngs Moduli (GPa) = 57.50127 107.02349 73.93387
#
# Poissons Ratio (x) = -0.00970 0.11893
# Poissons Ratio (y) = -0.00521 0.07399
# Poissons Ratio (z) = 0.09249 0.10710
#
# Static dielectric constant tensor:
#      x y z
#    x 2.209720 -0.015090 0.000060 
#    y -0.015090 2.088820 0.020190 
#    z 0.000060 0.020190 2.058780 
# 
# From -- ./inp_files/347209.got.cif
#   From: 2010.05.17/outbox.cif.g08.bks.cpg/sg2_174_cif.got.tgz:347209.got - 2010.06.03 11:33:40.
