data_PCOD9001957
_publ_section_title
;
Structure prediction by ZEFSAII (Michael W. Deem and Ramdas Pophale) SiO2 
 PCOD9001957
Probable space group: P -1
;
_chemical_formula_sum "Si O2"
_cell_formula_units_Z 16
_cell_length_a 14.993659
_cell_length_b 6.204499
_cell_length_c 12.088379
_cell_angle_alpha 126.612497
_cell_angle_beta 65.398982
_cell_angle_gamma 87.677941
_cell_volume 753.743064
_symmetry_space_group_name_H-M "P -1"
_symmetry_group_IT_number 2
_symmetry_cell_setting 'triclinic'
loop_
_space_group_symop_operation_xyz
x,y,z
-x,-y,-z
loop_
_atom_site_type_symbol
_atom_site_label
_atom_site_fract_x
_atom_site_fract_y
_atom_site_fract_z
Si Si1 0.068828 0.849883 0.022293
Si Si2 0.960330 0.271158 0.368501
Si Si3 0.756056 0.425272 0.677259
Si Si4 0.749986 0.893288 0.006541
Si Si5 0.363841 0.621809 0.478843
Si Si6 0.764869 0.739646 0.200231
Si Si7 0.601659 0.530858 0.339509
Si Si8 0.910669 0.873609 0.535395
O O1 0.158874 0.985317 0.029469
O O2 0.130348 0.506064 0.878502
O O3 0.987097 0.967676 0.201096
O O4 0.000000 0.000000 0.000000
O O5 0.855321 0.369472 0.526741
O O6 0.941194 0.541763 0.377425
O O7 0.064745 0.197199 0.369168
O O8 0.739776 0.685247 0.851486
O O9 0.659093 0.490108 0.661381
O O10 0.798109 0.116903 0.629784
O O11 0.776796 0.719685 0.055565
O O12 0.645846 0.186309 0.178581
O O13 0.475232 0.661903 0.428710
O O14 0.372762 0.446944 0.536245
O O15 0.265790 0.930434 0.645252
O O16 0.666391 0.664552 0.270780
O O17 0.000000 0.000000 0.500000
#
# Coordination Sequence:
#
# PCOD9001957 Si02
#       8
#     2   2   2   2   2   2   2   2
#     4  11  24  36  59  86 123 162 206 246 295 357
#     4  10  21  36  55  82 122 162 199 243 293 350
#     4  11  23  36  62  90 122 156 207 246 301 359
#     4  10  22  41  59  90 120 160 198 253 305 362
#     4  10  22  40  66  94 116 157 204 256 300 369
#     4  10  22  41  63  84 123 159 201 247 309 360
#     4   9  21  43  66  88 122 156 201 251 315 356
#     4   9  18  34  53  76 113 157 193 236 287 344
#
# _framework density 21.227391999999998
#
# number of rings (size 3 to 8) (size 9 to 14) (size 15 to 20)
#    0.000    2.000    0.000    3.375    7.000    3.000 
#    0.000    0.625    0.000    0.000    0.000    0.000 
#    0.000    0.000    0.000    0.000    0.000    0.000 
#
# Total GULP energy -89227.262729 kJ/mol
# GULP energy per Si atom -5576.703921 kJ/mol
# Density = 2.117908 g / cm^3
# Si number density = 21.227392 Si / 1000 Ang^3
#
#
#
# Elastic Constant Matrix: (Units=GPa)
#
#
# Indices 1 2 3 4 5 6 
#
# 1 76.2746 27.0585 33.2239 9.5869 11.6639 -24.8045
# 2 27.0585 75.6169 12.9490 1.8064 1.9720 -6.4910
# 3 33.2239 12.9490 91.0887 2.1051 7.8443 -18.3052
# 4 9.5869 1.8064 2.1051 28.3473 -4.8114 -8.3752
# 5 11.6639 1.9720 7.8443 -4.8114 33.8117 -5.0402
# 6 -24.8045 -6.4910 -18.3052 -8.3752 -5.0402 29.2032
#
#
#
# Elastic Compliance Matrix: (Units=1/GPa)
#
#
# Indices 1 2 3 4 5 6 
#
# 1 0.022668 -0.006024 -0.004217 -0.003907 -0.005067 0.013276
# 2 -0.006024 0.015267 -0.000401 0.000841 0.001172 -0.001531
# 3 -0.004217 -0.000401 0.013653 0.001905 -0.000624 0.005326
# 4 -0.003907 0.000841 0.001905 0.041174 0.008403 0.011322
# 5 -0.005067 0.001172 -0.000624 0.008403 0.033147 0.003696
# 6 0.013276 -0.001531 0.005326 0.011322 0.003696 0.052402
#
#
# Mechanical properties :
#
#
# Convention : Reuss Voigt Hill
#
# Bulk Modulus (GPa) = 32.99929 43.27144 38.13536
# Shear Modulus (GPa) = 23.84398 29.58904 26.71651
#
# Velocity S-wave (km/s) = 3.35515 3.73756 3.55151
# Velocity P-wave (km/s) = 5.53071 6.24938 5.90100
#
# Compressibility (1/GPa) = 0.03030369
#
# Stress axis : x y z
#
# Youngs Moduli (GPa) = 44.11571 65.50166 73.24145
#
# Poissons Ratio (x) = 0.39459 0.30885
# Poissons Ratio (y) = 0.26576 0.02938
# Poissons Ratio (z) = 0.18603 0.02628
#
# Static dielectric constant tensor:
#      x y z
#    x 1.819220 0.021580 0.086420 
#    y 0.021580 1.858990 0.057400 
#    z 0.086420 0.057400 1.904300 
# 
# From -- ./inp_files/108820.got.cif
#   From: 2010.05.17/outbox.cif.g08.bks.cpg/sg2_55_cif.got.tgz:108820.got - 2010.06.03 11:33:40.
