data_PCOD9001818
_publ_section_title
;
Structure prediction by ZEFSAII (Michael W. Deem and Ramdas Pophale) SiO2 
 PCOD9001818
Probable space group: P -1
;
_chemical_formula_sum "Si O2"
_cell_formula_units_Z 16
_cell_length_a 11.515088
_cell_length_b 9.290635
_cell_length_c 11.294957
_cell_angle_alpha 125.991446
_cell_angle_beta 73.117846
_cell_angle_gamma 70.894682
_cell_volume 716.377446
_symmetry_space_group_name_H-M "P -1"
_symmetry_group_IT_number 2
_symmetry_cell_setting 'triclinic'
loop_
_space_group_symop_operation_xyz
x,y,z
-x,-y,-z
loop_
_atom_site_type_symbol
_atom_site_label
_atom_site_fract_x
_atom_site_fract_y
_atom_site_fract_z
Si Si1 0.137362 0.304574 0.953691
Si Si2 0.835486 0.108851 0.532535
Si Si3 0.245296 0.872136 0.075333
Si Si4 0.085830 0.964092 0.805217
Si Si5 0.511406 0.116830 0.443072
Si Si6 0.658592 0.001626 0.689699
Si Si7 0.689732 0.504856 0.934977
Si Si8 0.379750 0.601030 0.692129
O O1 0.066333 0.185645 0.965301
O O2 0.308650 0.068193 0.743375
O O3 0.193690 0.433595 0.063984
O O4 0.000000 0.500000 0.000000
O O5 0.861503 0.077163 0.369465
O O6 0.761630 0.996031 0.552358
O O7 0.717300 0.374592 0.741354
O O8 0.000000 0.000000 0.500000
O O9 0.253046 0.038252 0.234206
O O10 0.274066 0.676578 0.061562
O O11 0.364722 0.762234 0.876233
O O12 0.075217 0.992159 0.130182
O O13 0.213989 0.748579 0.744780
O O14 0.443240 0.367270 0.625263
O O15 0.500000 0.000000 0.500000
O O16 0.390949 0.151641 0.397920
O O17 0.488965 0.261371 0.879152
O O18 0.500000 0.500000 0.500000
#
# Coordination Sequence:
#
# PCOD9001818 Si02
#       8
#     2   2   2   2   2   2   2   2
#     4  11  20  38  61  97 129 166 214 269 318 379
#     4  11  19  37  63  99 130 166 217 271 325 389
#     4  11  22  43  60  91 131 180 217 265 329 399
#     4  12  24  40  65  93 137 172 218 269 337 393
#     4  11  24  44  69 100 129 172 225 275 322 391
#     4  10  22  38  66  94 131 168 225 273 325 378
#     4  10  21  35  64  97 128 167 219 274 326 371
#     4  12  27  44  66  96 133 177 219 271 337 395
#
# _framework density 22.334593999999999
#
# number of rings (size 3 to 8) (size 9 to 14) (size 15 to 20)
#    0.000    1.000    5.000    4.125    3.500    0.000 
#    0.000    2.500    0.000    0.000    0.000    0.000 
#    0.000    0.000    0.000    0.000    0.000    0.000 
#
# Total GULP energy -89327.640336 kJ/mol
# GULP energy per Si atom -5582.977521 kJ/mol
# Density = 2.228376 g / cm^3
# Si number density = 22.334594 Si / 1000 Ang^3
#
#
#
# Elastic Constant Matrix: (Units=GPa)
#
#
# Indices 1 2 3 4 5 6 
#
# 1 119.6196 -2.3965 14.7943 -5.8588 -2.7364 -8.8387
# 2 -2.3965 52.6091 9.3233 -3.1471 -3.9801 -13.6784
# 3 14.7943 9.3233 70.0913 -30.2339 6.9506 0.9577
# 4 -5.8588 -3.1471 -30.2339 42.5813 -8.2064 0.6036
# 5 -2.7364 -3.9801 6.9506 -8.2064 34.0243 4.2074
# 6 -8.8387 -13.6784 0.9577 0.6036 4.2074 14.8996
#
#
#
# Elastic Compliance Matrix: (Units=1/GPa)
#
#
# Indices 1 2 3 4 5 6 
#
# 1 0.009382 0.003138 -0.002764 -0.000459 0.000525 0.008494
# 2 0.003138 0.027067 -0.005418 -0.001641 0.000803 0.026898
# 3 -0.002764 -0.005418 0.022218 0.014972 -0.000740 -0.008439
# 4 -0.000459 -0.001641 0.014972 0.035153 0.005913 -0.005835
# 5 0.000525 0.000803 -0.000740 0.005913 0.032120 -0.008213
# 6 0.008494 0.026898 -0.008439 -0.005835 -0.008213 0.099946
#
#
# Mechanical properties :
#
#
# Convention : Reuss Voigt Hill
#
# Bulk Modulus (GPa) = 20.58468 31.75136 26.16802
# Shear Modulus (GPa) = 19.82822 33.00762 26.41792
#
# Velocity S-wave (km/s) = 2.98280 3.84848 3.44295
# Velocity P-wave (km/s) = 4.59340 5.83051 5.24853
#
# Compressibility (1/GPa) = 0.04857982
#
# Stress axis : x y z
#
# Youngs Moduli (GPa) = 106.59097 36.94488 45.00903
#
# Poissons Ratio (x) = -0.11593 0.12439
# Poissons Ratio (y) = -0.33447 0.24385
# Poissons Ratio (z) = 0.29457 0.20016
#
# Static dielectric constant tensor:
#      x y z
#    x 1.930820 0.024920 -0.026610 
#    y 0.024920 1.820660 -0.048340 
#    z -0.026610 -0.048340 1.877960 
# 
# From -- ./inp_files/418099.got.cif
#   From: 2010.05.17/outbox.cif.g08.bks.cpg/sg2_210_cif.got.tgz:418099.got - 2010.06.03 11:33:40.
