data_PCOD9001062
_publ_section_title
;
Structure prediction by ZEFSAII (Michael W. Deem and Ramdas Pophale) SiO2 
 PCOD9001062
Probable space group: P -1
;
_chemical_formula_sum "Si O2"
_cell_formula_units_Z 14
_cell_length_a 13.361635
_cell_length_b 11.866571
_cell_length_c 12.165562
_cell_angle_alpha 130.405866
_cell_angle_beta 33.854397
_cell_angle_gamma 106.552936
_cell_volume 656.228952
_symmetry_space_group_name_H-M "P -1"
_symmetry_group_IT_number 2
_symmetry_cell_setting 'triclinic'
loop_
_space_group_symop_operation_xyz
x,y,z
-x,-y,-z
loop_
_atom_site_type_symbol
_atom_site_label
_atom_site_fract_x
_atom_site_fract_y
_atom_site_fract_z
Si Si1 0.622325 0.737069 0.803854
Si Si2 0.998246 0.133266 0.313897
Si Si3 0.471265 0.686609 0.121835
Si Si4 0.873106 0.484875 0.775659
Si Si5 0.326637 0.236173 0.696029
Si Si6 0.527094 0.123460 0.208085
Si Si7 0.840693 0.932057 0.101826
O O1 0.563416 0.754150 0.740943
O O2 0.879203 0.571258 0.487293
O O3 0.482210 0.708878 0.997396
O O4 0.571167 0.930415 0.012446
O O5 0.774715 0.146409 0.507695
O O6 0.923205 0.291730 0.572060
O O7 0.065613 0.182370 0.170918
O O8 0.225249 0.941727 0.023883
O O9 0.500000 0.500000 0.000000
O O10 0.684531 0.645570 0.967262
O O11 0.775630 0.562511 0.034565
O O12 0.358675 0.212033 0.520752
O O13 0.179511 0.178184 0.851549
O O14 0.582142 0.100831 0.421504
O O15 0.000000 0.000000 0.000000
#
# Coordination Sequence:
#
# PCOD9001062 Si02
#       7
#     2   2   2   2   2   2   2
#     4  10  21  37  61  78 116 152 198 236 278 360
#     4   9  20  36  58  83 117 148 193 236 291 346
#     4  10  21  33  58  90 112 144 191 252 293 332
#     4  10  21  35  58  86 112 148 192 239 288 348
#     4  10  22  35  58  83 121 152 191 243 296 343
#     4   9  21  40  55  84 110 159 196 228 288 353
#     4  10  21  35  55  88 119 153 190 244 295 347
#
# _framework density 21.334018
#
# number of rings (size 3 to 8) (size 9 to 14) (size 15 to 20)
#    0.000    2.286    0.000    1.286   14.000    1.143 
#    0.000    0.000    0.000    3.429    0.000    0.000 
#    0.000    0.000    0.000    0.000    0.000    0.000 
#
# Total GULP energy -78003.784003 kJ/mol
# GULP energy per Si atom -5571.698857 kJ/mol
# Density = 2.128546 g / cm^3
# Si number density = 21.334018 Si / 1000 Ang^3
#
#
#
# Elastic Constant Matrix: (Units=GPa)
#
#
# Indices 1 2 3 4 5 6 
#
# 1 95.1376 48.5761 60.6792 -22.2764 5.4431 -17.6445
# 2 48.5761 73.3725 41.6315 -26.6139 -5.5964 -13.7858
# 3 60.6792 41.6315 157.0214 -30.4975 16.0491 -11.9365
# 4 -22.2764 -26.6139 -30.4975 32.1331 7.5813 14.4787
# 5 5.4431 -5.5964 16.0491 7.5813 44.1360 -8.3886
# 6 -17.6445 -13.7858 -11.9365 14.4787 -8.3886 26.5548
#
#
#
# Elastic Compliance Matrix: (Units=1/GPa)
#
#
# Indices 1 2 3 4 5 6 
#
# 1 0.019170 -0.009493 -0.004764 -0.002087 -0.000195 0.006744
# 2 -0.009493 0.025265 -0.000746 0.012984 0.002447 0.000167
# 3 -0.004764 -0.000746 0.010644 0.010710 -0.006482 -0.006655
# 4 -0.002087 0.012984 0.010710 0.071538 -0.021022 -0.035478
# 5 -0.000195 0.002447 -0.006482 -0.021022 0.032768 0.020040
# 6 0.006744 0.000167 -0.006655 -0.035478 0.020040 0.064909
#
#
# Mechanical properties :
#
#
# Convention : Reuss Voigt Hill
#
# Bulk Modulus (GPa) = 39.88284 69.70058 54.79171
# Shear Modulus (GPa) = 19.03628 32.20776 25.62202
#
# Velocity S-wave (km/s) = 2.99037 3.88969 3.46930
# Velocity P-wave (km/s) = 5.53698 7.27426 6.46425
#
# Compressibility (1/GPa) = 0.02507344
#
# Stress axis : x y z
#
# Youngs Moduli (GPa) = 52.16545 39.58112 93.95041
#
# Poissons Ratio (x) = 0.37575 0.44755
# Poissons Ratio (y) = 0.49522 0.07004
# Poissons Ratio (z) = 0.24850 0.02951
#
# Static dielectric constant tensor:
#      x y z
#    x 1.866440 0.082310 -0.017220 
#    y 0.082310 1.739480 0.025870 
#    z -0.017220 0.025870 1.789380 
# 
# From -- ./inp_files/390882.got.cif
#   From: 2010.05.17/outbox.cif.g08.bks.cpg/sg2_196_cif.got.tgz:390882.got - 2010.06.03 11:33:40.
