data_PCOD9001194
_publ_section_title
;
Structure prediction by ZEFSAII (Michael W. Deem and Ramdas Pophale) SiO2 
 PCOD9001194
Probable space group: P -1
;
_chemical_formula_sum "Si O2"
_cell_formula_units_Z 14
_cell_length_a 11.584689
_cell_length_b 9.098740
_cell_length_c 11.621729
_cell_angle_alpha 46.785579
_cell_angle_beta 141.094618
_cell_angle_gamma 133.141805
_cell_volume 529.322214
_symmetry_space_group_name_H-M "P -1"
_symmetry_group_IT_number 2
_symmetry_cell_setting 'triclinic'
loop_
_space_group_symop_operation_xyz
x,y,z
-x,-y,-z
loop_
_atom_site_type_symbol
_atom_site_label
_atom_site_fract_x
_atom_site_fract_y
_atom_site_fract_z
Si Si1 0.630128 0.073601 0.948680
Si Si2 0.723836 0.496514 0.534149
Si Si3 0.943715 0.931728 0.364446
Si Si4 0.423935 0.258803 0.119294
Si Si5 0.176784 0.691422 0.588992
Si Si6 0.698000 0.556169 0.734673
Si Si7 0.093279 0.386222 0.895015
O O1 0.843468 0.082070 0.147003
O O2 0.584152 0.911082 0.894815
O O3 0.500000 0.000000 0.000000
O O4 0.616935 0.300777 0.788822
O O5 0.789698 0.688124 0.388517
O O6 0.769119 0.621552 0.626056
O O7 0.492156 0.385051 0.409393
O O8 0.863422 0.349027 0.721152
O O9 0.115762 0.900721 0.438767
O O10 0.000000 0.000000 0.500000
O O11 0.616920 0.262673 0.337381
O O12 0.500000 0.500000 0.000000
O O13 0.210513 0.235490 0.015659
O O14 0.179349 0.606415 0.768735
O O15 0.000000 0.500000 0.500000
O O16 0.844110 0.590340 0.936280
#
# Coordination Sequence:
#
# PCOD9001194 Si02
#       7
#     2   2   2   2   2   2   2
#     4  12  21  37  63  93 127 157 209 261 313 370
#     4  10  23  40  64  91 129 165 213 253 314 374
#     4  11  21  35  60  95 120 157 203 262 305 360
#     4  10  21  36  58  92 125 165 197 259 318 370
#     4  10  21  34  56  89 125 157 201 250 315 372
#     4  11  23  41  66  92 125 169 209 258 314 375
#     4  10  21  38  63  87 123 167 209 248 312 376
#
# _framework density 26.448917000000002
#
# number of rings (size 3 to 8) (size 9 to 14) (size 15 to 20)
#    0.000    1.429    1.429    6.429    4.000    0.000 
#    0.000    0.714    0.000    6.857    0.000    0.000 
#    0.000    0.000    0.000    0.000    0.000    0.000 
#
# Total GULP energy -78299.065783 kJ/mol
# GULP energy per Si atom -5592.790413 kJ/mol
# Density = 2.638872 g / cm^3
# Si number density = 26.448917 Si / 1000 Ang^3
#
#
#
# Elastic Constant Matrix: (Units=GPa)
#
#
# Indices 1 2 3 4 5 6 
#
# 1 136.8678 39.9401 44.2184 -21.9244 32.1589 -16.2692
# 2 39.9401 77.4295 16.0120 5.5957 7.4886 -20.6630
# 3 44.2184 16.0120 155.3382 5.5940 42.4419 -3.8193
# 4 -21.9244 5.5957 5.5940 29.4293 -8.4410 2.9227
# 5 32.1589 7.4886 42.4419 -8.4410 69.9802 -12.9882
# 6 -16.2692 -20.6630 -3.8193 2.9227 -12.9882 45.4955
#
#
#
# Elastic Compliance Matrix: (Units=1/GPa)
#
#
# Indices 1 2 3 4 5 6 
#
# 1 0.012054 -0.006198 -0.002582 0.010046 -0.002092 0.000036
# 2 -0.006198 0.018495 0.000028 -0.008515 0.001135 0.007057
# 3 -0.002582 0.000028 0.008646 -0.004846 -0.004880 -0.001267
# 4 0.010046 -0.008515 -0.004846 0.045467 0.004276 -0.002382
# 5 -0.002092 0.001135 -0.004880 0.004276 0.019466 0.004640
# 6 0.000036 0.007057 -0.001267 -0.002382 0.004640 0.026570
#
#
# Mechanical properties :
#
#
# Convention : Reuss Voigt Hill
#
# Bulk Modulus (GPa) = 46.09996 63.33073 54.71535
# Shear Modulus (GPa) = 32.16836 46.94534 39.55685
#
# Velocity S-wave (km/s) = 3.49125 4.21758 3.87149
# Velocity P-wave (km/s) = 5.80685 6.90752 6.38096
#
# Compressibility (1/GPa) = 0.02169199
#
# Stress axis : x y z
#
# Youngs Moduli (GPa) = 82.95953 54.06850 115.65627
#
# Poissons Ratio (x) = 0.33511 0.29860
# Poissons Ratio (y) = 0.51417 -0.00323
# Poissons Ratio (z) = 0.21418 -0.00151
#
# Static dielectric constant tensor:
#      x y z
#    x 1.824760 0.762370 -0.014460 
#    y 0.762370 0.731550 0.141820 
#    z -0.014460 0.141820 2.114400 
# 
# From -- ./inp_files/257777.got.cif
#   From: 2010.05.17/outbox.cif.g08.bks.cpg/sg2_129_cif.got.tgz:257777.got - 2010.06.03 11:33:40.
