data_PCOD9001033
_publ_section_title
;
Structure prediction by ZEFSAII (Michael W. Deem and Ramdas Pophale) SiO2 
 PCOD9001033
Probable space group: P -1
;
_chemical_formula_sum "Si O2"
_cell_formula_units_Z 14
_cell_length_a 5.109758
_cell_length_b 11.446799
_cell_length_c 15.692788
_cell_angle_alpha 70.712100
_cell_angle_beta 109.591557
_cell_angle_gamma 103.960254
_cell_volume 807.365184
_symmetry_space_group_name_H-M "P -1"
_symmetry_group_IT_number 2
_symmetry_cell_setting 'triclinic'
loop_
_space_group_symop_operation_xyz
x,y,z
-x,-y,-z
loop_
_atom_site_type_symbol
_atom_site_label
_atom_site_fract_x
_atom_site_fract_y
_atom_site_fract_z
Si Si1 0.750757 0.392525 0.106241
Si Si2 0.498159 0.679051 0.444473
Si Si3 0.510142 0.439152 0.705502
Si Si4 0.918812 0.398632 0.429140
Si Si5 0.935701 0.704959 0.691954
Si Si6 0.280453 0.087806 0.483056
Si Si7 0.331391 0.562196 0.095393
O O1 0.503917 0.448886 0.115177
O O2 0.883225 0.294916 0.202995
O O3 0.008199 0.506258 0.093053
O O4 0.656445 0.355234 0.008867
O O5 0.428049 0.645851 0.346973
O O6 0.250949 0.645717 0.494045
O O7 0.617668 0.821427 0.447944
O O8 0.753772 0.601630 0.515038
O O9 0.204770 0.479728 0.646318
O O10 0.722488 0.572303 0.699468
O O11 0.537062 0.382021 0.815544
O O12 0.866299 0.305025 0.366229
O O13 0.778131 0.819692 0.622994
O O14 0.500000 0.000000 0.500000
O O15 0.000000 0.000000 0.500000
#
# Coordination Sequence:
#
# PCOD9001033 Si02
#       7
#     2   2   2   2   2   2   2
#     4   9  17  31  45  72  97 134 152 192 240 292
#     4  11  24  32  51  69 102 131 164 199 243 292
#     4  11  20  32  51  78 100 131 156 197 250 296
#     4  11  19  31  44  76  97 129 159 189 235 299
#     4  10  21  33  55  71 102 131 166 199 247 291
#     4  11  23  37  48  68  96 132 173 206 233 280
#     4   9  18  28  47  70 106 122 157 190 238 301
#
# _framework density 17.340357000000001
#
# number of rings (size 3 to 8) (size 9 to 14) (size 15 to 20)
#    0.000    1.714    4.286    2.571    2.000    0.000 
#    0.000    0.000    0.000    0.000    0.000    2.000 
#    0.000    0.000    0.000    0.714    0.000    0.000 
#
# Total GULP energy -78008.177110 kJ/mol
# GULP energy per Si atom -5572.012651 kJ/mol
# Density = 1.730089 g / cm^3
# Si number density = 17.340357 Si / 1000 Ang^3
#
#
#
# Elastic Constant Matrix: (Units=GPa)
#
#
# Indices 1 2 3 4 5 6 
#
# 1 106.8526 24.6565 25.2917 4.8448 -0.2557 -8.0644
# 2 24.6565 75.5241 46.8974 3.7885 2.7368 -9.9489
# 3 25.2917 46.8974 173.2031 22.5846 -0.9055 -14.7324
# 4 4.8448 3.7885 22.5846 21.6309 -5.6855 0.9016
# 5 -0.2557 2.7368 -0.9055 -5.6855 19.9798 1.7742
# 6 -8.0644 -9.9489 -14.7324 0.9016 1.7742 24.1697
#
#
#
# Elastic Compliance Matrix: (Units=1/GPa)
#
#
# Indices 1 2 3 4 5 6 
#
# 1 0.010319 -0.002773 -0.000370 -0.001565 -0.000141 0.002145
# 2 -0.002773 0.017229 -0.004079 0.001011 -0.002633 0.003836
# 3 -0.000370 -0.004079 0.008359 -0.008569 -0.001838 0.003747
# 4 -0.001565 0.001011 -0.008569 0.060292 0.017397 -0.008856
# 5 -0.000141 -0.002633 -0.001838 0.017397 0.055898 -0.007004
# 6 0.002145 0.003836 0.003747 -0.008856 -0.007004 0.046797
#
#
# Mechanical properties :
#
#
# Convention : Reuss Voigt Hill
#
# Bulk Modulus (GPa) = 46.59461 61.03010 53.81236
# Shear Modulus (GPa) = 22.67647 30.40503 26.54075
#
# Velocity S-wave (km/s) = 3.62017 4.19194 3.91650
# Velocity P-wave (km/s) = 6.66357 7.66170 7.18000
#
# Compressibility (1/GPa) = 0.02146171
#
# Stress axis : x y z
#
# Youngs Moduli (GPa) = 96.91219 58.04080 119.63651
#
# Poissons Ratio (x) = 0.16093 0.04429
# Poissons Ratio (y) = 0.26871 0.48806
# Poissons Ratio (z) = 0.03588 0.23678
#
# Static dielectric constant tensor:
#      x y z
#    x 1.658440 0.023180 0.008170 
#    y 0.023180 1.594780 0.032130 
#    z 0.008170 0.032130 1.656640 
# 
# From -- ./inp_files/481575.got.cif
#   From: 2010.05.17/outbox.cif.g08.bks.cpg/sg2_241_cif.got.tgz:481575.got - 2010.06.03 11:33:40.
