data_PCOD9001443
_publ_section_title
;
Structure prediction by ZEFSAII (Michael W. Deem and Ramdas Pophale) SiO2 
 PCOD9001443
Probable space group: P -1
;
_chemical_formula_sum "Si O2"
_cell_formula_units_Z 16
_cell_length_a 8.633657
_cell_length_b 14.377835
_cell_length_c 13.882470
_cell_angle_alpha 29.789721
_cell_angle_beta 119.167171
_cell_angle_gamma 119.674534
_cell_volume 737.194508
_symmetry_space_group_name_H-M "P -1"
_symmetry_group_IT_number 2
_symmetry_cell_setting 'triclinic'
loop_
_space_group_symop_operation_xyz
x,y,z
-x,-y,-z
loop_
_atom_site_type_symbol
_atom_site_label
_atom_site_fract_x
_atom_site_fract_y
_atom_site_fract_z
Si Si1 0.362871 0.323405 0.793327
Si Si2 0.621122 0.249370 0.565376
Si Si3 0.202216 0.506024 0.087891
Si Si4 0.499751 0.866333 0.813606
Si Si5 0.382816 0.795899 0.167355
Si Si6 0.057322 0.569059 0.188377
Si Si7 0.989235 0.671394 0.417908
Si Si8 0.319753 0.342792 0.093560
O O1 0.376903 0.531706 0.658783
O O2 0.512542 0.339208 0.742155
O O3 0.177841 0.248870 0.748848
O O4 0.395983 0.183518 0.013787
O O5 0.614023 0.246761 0.681001
O O6 0.816400 0.202491 0.637647
O O7 0.478006 0.083926 0.624767
O O8 0.320981 0.707056 0.910967
O O9 0.273074 0.344333 0.191496
O O10 0.173867 0.499407 0.199498
O O11 0.000000 0.500000 0.000000
O O12 0.615372 0.830832 0.786645
O O13 0.179814 0.759203 0.097664
O O14 0.500000 0.000000 0.000000
O O15 0.043968 0.419418 0.405629
O O16 0.859273 0.603122 0.062416
O O17 0.000000 0.500000 0.500000
O O18 0.500000 0.500000 0.000000
#
# Coordination Sequence:
#
# PCOD9001443 Si02
#       8
#     2   2   2   2   2   2   2   2
#     4  11  22  37  59  88 128 172 199 232 308 363
#     4  11  23  38  57  89 133 157 205 246 291 377
#     4   9  19  37  64  88 114 158 207 261 307 352
#     4  11  21  38  63  93 118 162 203 252 311 355
#     4  12  22  36  57  92 127 168 199 239 291 375
#     4  11  19  37  60  88 126 160 204 250 308 356
#     4  10  21  35  55  87 125 168 195 239 298 366
#     4   9  20  36  62  89 112 155 212 257 308 355
#
# _framework density 21.703907000000001
#
# number of rings (size 3 to 8) (size 9 to 14) (size 15 to 20)
#    0.000    1.500    5.000    1.875    0.000    1.500 
#    0.000    0.000    0.000   28.500    0.000    0.000 
#    0.000    0.000    0.000    0.000    0.000    0.000 
#
# Total GULP energy -89217.190899 kJ/mol
# GULP energy per Si atom -5576.074431 kJ/mol
# Density = 2.165451 g / cm^3
# Si number density = 21.703907 Si / 1000 Ang^3
#
#
#
# Elastic Constant Matrix: (Units=GPa)
#
#
# Indices 1 2 3 4 5 6 
#
# 1 117.7111 40.9724 12.5516 -0.2357 -8.6116 -9.4684
# 2 40.9724 97.5916 23.3071 -7.2035 1.9398 -5.5168
# 3 12.5516 23.3071 53.3170 -7.7249 -5.1946 5.0912
# 4 -0.2357 -7.2035 -7.7249 18.7297 1.8322 0.8969
# 5 -8.6116 1.9398 -5.1946 1.8322 27.0868 7.5382
# 6 -9.4684 -5.5168 5.0912 0.8969 7.5382 56.8677
#
#
#
# Elastic Compliance Matrix: (Units=1/GPa)
#
#
# Indices 1 2 3 4 5 6 
#
# 1 0.010412 -0.004403 -0.000603 -0.002188 0.003395 0.000945
# 2 -0.004403 0.013708 -0.004986 0.003479 -0.003995 0.001518
# 3 -0.000603 -0.004986 0.022938 0.007207 0.005028 -0.003418
# 4 -0.002188 0.003479 0.007207 0.058039 -0.003164 -0.001168
# 5 0.003395 -0.003995 0.005028 -0.003164 0.041038 -0.005662
# 6 0.000945 0.001518 -0.003418 -0.001168 -0.005662 0.018964
#
#
# Mechanical properties :
#
#
# Convention : Reuss Voigt Hill
#
# Bulk Modulus (GPa) = 36.93589 46.92019 41.92804
# Shear Modulus (GPa) = 25.75878 33.32275 29.54077
#
# Velocity S-wave (km/s) = 3.44877 3.92259 3.69329
# Velocity P-wave (km/s) = 5.73705 6.49468 6.12758
#
# Compressibility (1/GPa) = 0.02707394
#
# Stress axis : x y z
#
# Youngs Moduli (GPa) = 96.04061 72.94958 43.59626
#
# Poissons Ratio (x) = 0.32120 0.02629
# Poissons Ratio (y) = 0.42287 0.21737
# Poissons Ratio (z) = 0.05791 0.36373
#
# Static dielectric constant tensor:
#      x y z
#    x 1.847750 0.006360 0.023400 
#    y 0.006360 1.862850 -0.003490 
#    z 0.023400 -0.003490 1.660790 
# 
# From -- ./inp_files/305282.got.cif
#   From: 2010.05.17/outbox.cif.g08.bks.cpg/sg2_153_cif.got.tgz:305282.got - 2010.06.03 11:33:40.
