data_PCOD9001249
_publ_section_title
;
Structure prediction by ZEFSAII (Michael W. Deem and Ramdas Pophale) SiO2 
 PCOD9001249
Probable space group: P -1
;
_chemical_formula_sum "Si O2"
_cell_formula_units_Z 16
_cell_length_a 21.305255
_cell_length_b 14.090492
_cell_length_c 5.039597
_cell_angle_alpha 83.045988
_cell_angle_beta 78.219362
_cell_angle_gamma 28.983107
_cell_volume 712.338167
_symmetry_space_group_name_H-M "P -1"
_symmetry_group_IT_number 2
_symmetry_cell_setting 'triclinic'
loop_
_space_group_symop_operation_xyz
x,y,z
-x,-y,-z
loop_
_atom_site_type_symbol
_atom_site_label
_atom_site_fract_x
_atom_site_fract_y
_atom_site_fract_z
Si Si1 0.859930 0.719538 0.933823
Si Si2 0.695913 0.091189 0.234378
Si Si3 0.825135 0.558595 0.030290
Si Si4 0.428657 0.455166 0.594560
Si Si5 0.999532 0.698292 0.527405
Si Si6 0.668423 0.245090 0.693831
Si Si7 0.242218 0.552558 0.999904
Si Si8 0.931814 0.189073 0.436129
O O1 0.784142 0.719885 0.939483
O O2 0.902500 0.736879 0.660808
O O3 0.000000 0.500000 0.000000
O O4 0.775751 0.895152 0.142820
O O5 0.542768 0.265697 0.367697
O O6 0.739687 0.086841 0.465146
O O7 0.705982 0.158840 0.976697
O O8 0.950387 0.372864 0.792325
O O9 0.875817 0.485966 0.314379
O O10 0.728739 0.596952 0.031785
O O11 0.513378 0.415549 0.726446
O O12 0.329345 0.648884 0.438750
O O13 0.357987 0.469970 0.830054
O O14 0.974317 0.841784 0.578969
O O15 0.120763 0.736074 0.843190
O O16 0.190919 0.635821 0.313300
O O17 0.000000 0.000000 0.500000
#
# Coordination Sequence:
#
# PCOD9001249 Si02
#       8
#     2   2   2   2   2   2   2   2
#     4  10  21  37  60  81 111 151 184 232 285 321
#     4  10  21  36  55  87 114 137 189 235 269 335
#     4   9  19  36  51  77 103 137 184 221 259 326
#     4   9  21  37  60  81 115 147 183 225 286 324
#     4   9  19  34  53  75 105 142 179 216 268 323
#     4   9  21  36  57  80 118 138 183 233 274 324
#     4  10  21  34  59  74 108 152 179 218 281 329
#     4  10  21  36  51  84 114 138 183 226 266 337
#
# _framework density 22.461241000000001
#
# number of rings (size 3 to 8) (size 9 to 14) (size 15 to 20)
#    0.750    1.750    0.000    1.125    1.750    6.000 
#    0.000    1.875    0.000    0.750    0.000    0.000 
#    0.000    0.000    0.000    0.000    0.000    0.000 
#
# Total GULP energy -89313.835329 kJ/mol
# GULP energy per Si atom -5582.114708 kJ/mol
# Density = 2.241012 g / cm^3
# Si number density = 22.461241 Si / 1000 Ang^3
#
#
#
# Elastic Constant Matrix: (Units=GPa)
#
#
# Indices 1 2 3 4 5 6 
#
# 1 108.6110 17.3576 22.9685 -3.6730 -34.8348 25.4448
# 2 17.3576 78.6708 22.2612 2.3492 -5.1312 29.2970
# 3 22.9685 22.2612 103.2363 -6.6518 -18.8289 8.1537
# 4 -3.6730 2.3492 -6.6518 33.8941 2.3742 3.5671
# 5 -34.8348 -5.1312 -18.8289 2.3742 42.2991 -9.4779
# 6 25.4448 29.2970 8.1537 3.5671 -9.4779 26.6799
#
#
#
# Elastic Compliance Matrix: (Units=1/GPa)
#
#
# Indices 1 2 3 4 5 6 
#
# 1 0.015392 0.002845 -0.001082 0.002142 0.009170 -0.014501
# 2 0.002845 0.023667 -0.003950 0.001129 -0.003045 -0.028727
# 3 -0.001082 -0.003950 0.011431 0.001762 0.004332 0.003179
# 4 0.002142 0.001129 0.001762 0.030938 -0.000906 -0.008280
# 5 0.009170 -0.003045 0.004332 -0.000906 0.034032 0.005485
# 6 -0.014501 -0.028727 0.003179 -0.008280 0.005485 0.084940
#
#
# Mechanical properties :
#
#
# Convention : Reuss Voigt Hill
#
# Bulk Modulus (GPa) = 21.68467 46.18809 33.93638
# Shear Modulus (GPa) = 22.71207 35.77001 29.24104
#
# Velocity S-wave (km/s) = 3.18334 3.99497 3.61202
# Velocity P-wave (km/s) = 4.81526 6.47208 5.70414
#
# Compressibility (1/GPa) = 0.04611554
#
# Stress axis : x y z
#
# Youngs Moduli (GPa) = 64.96797 42.25338 87.47767
#
# Poissons Ratio (x) = -0.12019 0.09466
# Poissons Ratio (y) = -0.18480 0.34553
# Poissons Ratio (z) = 0.07030 0.16690
#
# Static dielectric constant tensor:
#      x y z
#    x 1.913400 -0.039490 -0.005370 
#    y -0.039490 1.903840 0.007380 
#    z -0.005370 0.007380 1.811380 
# 
# From -- ./inp_files/124025.got.cif
#   From: 2010.05.17/outbox.cif.g08.bks.cpg/sg2_63_cif.got.tgz:124025.got - 2010.06.03 11:33:40.
