data_PCOD9001428
_publ_section_title
;
Structure prediction by ZEFSAII (Michael W. Deem and Ramdas Pophale) SiO2 
 PCOD9001428
Probable space group: P -1
;
_chemical_formula_sum "Si O2"
_cell_formula_units_Z 16
_cell_length_a 14.154691
_cell_length_b 5.138392
_cell_length_c 13.470617
_cell_angle_alpha 110.003825
_cell_angle_beta 115.868187
_cell_angle_gamma 79.846588
_cell_volume 827.969547
_symmetry_space_group_name_H-M "P -1"
_symmetry_group_IT_number 2
_symmetry_cell_setting 'triclinic'
loop_
_space_group_symop_operation_xyz
x,y,z
-x,-y,-z
loop_
_atom_site_type_symbol
_atom_site_label
_atom_site_fract_x
_atom_site_fract_y
_atom_site_fract_z
Si Si1 0.289947 0.994735 0.113159
Si Si2 0.432980 0.782357 0.000123
Si Si3 0.834634 0.527329 0.965057
Si Si4 0.843252 0.675990 0.773052
Si Si5 0.085985 0.776949 0.394562
Si Si6 0.784078 0.216047 0.220224
Si Si7 0.147997 0.204728 0.634198
Si Si8 0.019977 0.022296 0.826783
O O1 0.400217 0.877358 0.109360
O O2 0.208682 0.745257 0.042461
O O3 0.257939 0.235136 0.051120
O O4 0.262716 0.143201 0.225619
O O5 0.500000 0.500000 0.000000
O O6 0.323895 0.760517 0.886501
O O7 0.500000 0.000000 0.000000
O O8 0.853148 0.482372 0.850120
O O9 0.928817 0.692563 0.077605
O O10 0.853341 0.496703 0.654889
O O11 0.942698 0.875116 0.847678
O O12 0.976310 0.723412 0.393915
O O13 0.046199 0.930347 0.297072
O O14 0.150960 0.981880 0.518366
O O15 0.798938 0.504903 0.321993
O O16 0.800477 0.952540 0.266910
O O17 0.882922 0.181175 0.186392
#
# Coordination Sequence:
#
# PCOD9001428 Si02
#       8
#     2   2   2   2   2   2   2   2
#     4  10  23  39  55  85 119 151 192 237 291 362
#     4  12  25  42  67  91 114 146 195 248 310 360
#     4  10  22  34  53  80 121 158 192 230 281 354
#     4  10  21  35  55  84 125 162 197 231 285 343
#     4  10  22  33  54  86 119 171 200 239 262 337
#     4  11  22  40  60  85 118 161 188 249 292 346
#     4  10  23  37  56  82 126 156 210 230 281 333
#     4  11  21  33  58  83 130 158 207 221 293 336
#
# _framework density 19.324380000000001
#
# number of rings (size 3 to 8) (size 9 to 14) (size 15 to 20)
#    0.750    0.750    2.500    2.625    7.000    2.500 
#    0.000    0.000    0.000    0.000    0.000    5.250 
#    0.000    0.000    0.000    0.000    0.000    0.000 
#
# Total GULP energy -89200.687576 kJ/mol
# GULP energy per Si atom -5575.042974 kJ/mol
# Density = 1.928040 g / cm^3
# Si number density = 19.324380 Si / 1000 Ang^3
#
#
#
# Elastic Constant Matrix: (Units=GPa)
#
#
# Indices 1 2 3 4 5 6 
#
# 1 103.6278 34.8277 21.9529 19.4869 -8.0044 -22.3417
# 2 34.8277 80.6071 9.3315 22.7358 -2.2358 -19.8751
# 3 21.9529 9.3315 48.9068 22.5209 -9.7179 -9.6532
# 4 19.4869 22.7358 22.5209 33.1330 -5.3605 -3.4794
# 5 -8.0044 -2.2358 -9.7179 -5.3605 24.2752 6.1756
# 6 -22.3417 -19.8751 -9.6532 -3.4794 6.1756 41.8045
#
#
#
# Elastic Compliance Matrix: (Units=1/GPa)
#
#
# Indices 1 2 3 4 5 6 
#
# 1 0.012904 -0.003416 -0.002845 -0.002684 0.001134 0.004224
# 2 -0.003416 0.019168 0.005640 -0.014536 -0.002276 0.007716
# 3 -0.002845 0.005640 0.034012 -0.023636 0.006427 0.006098
# 4 -0.002684 -0.014536 -0.023636 0.057350 0.003403 -0.009533
# 5 0.001134 -0.002276 0.006427 0.003403 0.046086 -0.005517
# 6 0.004224 0.007716 0.006098 -0.009533 -0.005517 0.031277
#
#
# Mechanical properties :
#
#
# Convention : Reuss Voigt Hill
#
# Bulk Modulus (GPa) = 15.42178 40.59621 28.00899
# Shear Modulus (GPa) = 22.35608 30.97786 26.66697
#
# Velocity S-wave (km/s) = 3.40499 4.00815 3.71882
# Velocity P-wave (km/s) = 4.84318 6.51719 5.74152
#
# Compressibility (1/GPa) = 0.06484335
#
# Stress axis : x y z
#
# Youngs Moduli (GPa) = 77.49696 52.16980 29.40096
#
# Poissons Ratio (x) = 0.17820 0.08365
# Poissons Ratio (y) = 0.26471 -0.16583
# Poissons Ratio (z) = 0.22049 -0.29426
#
# Static dielectric constant tensor:
#      x y z
#    x 1.701640 -0.029600 -0.045560 
#    y -0.029600 1.738070 0.024660 
#    z -0.045560 0.024660 1.682920 
# 
# From -- ./inp_files/574759.got.cif
#   From: 2010.05.17/outbox.cif.g08.bks.cpg/sg2_288_cif.got.tgz:574759.got - 2010.06.03 11:33:40.
