data_PCOD9001071
_publ_section_title
;
Structure prediction by ZEFSAII (Michael W. Deem and Ramdas Pophale) SiO2 
 PCOD9001071
Probable space group: P -1
;
_chemical_formula_sum "Si O2"
_cell_formula_units_Z 16
_cell_length_a 9.715748
_cell_length_b 8.263239
_cell_length_c 14.304034
_cell_angle_alpha 54.324683
_cell_angle_beta 70.574169
_cell_angle_gamma 90.940355
_cell_volume 845.941591
_symmetry_space_group_name_H-M "P -1"
_symmetry_group_IT_number 2
_symmetry_cell_setting 'triclinic'
loop_
_space_group_symop_operation_xyz
x,y,z
-x,-y,-z
loop_
_atom_site_type_symbol
_atom_site_label
_atom_site_fract_x
_atom_site_fract_y
_atom_site_fract_z
Si Si1 0.720321 0.119093 0.572756
Si Si2 0.914221 0.068346 0.218107
Si Si3 0.154464 0.641950 0.710484
Si Si4 0.091246 0.214937 0.951767
Si Si5 0.397281 0.440170 0.741732
Si Si6 0.397577 0.195129 0.640402
Si Si7 0.999926 0.738240 0.424797
Si Si8 0.310077 0.269676 0.420546
O O1 0.823930 0.297146 0.422211
O O2 0.564005 0.164511 0.620959
O O3 0.834882 0.121413 0.630097
O O4 0.680637 0.913250 0.588584
O O5 0.903492 0.193585 0.272770
O O6 0.744110 0.001362 0.237122
O O7 0.954455 0.854048 0.305764
O O8 0.032605 0.206163 0.073347
O O9 0.062153 0.409191 0.836043
O O10 0.325454 0.635254 0.703142
O O11 0.273629 0.261646 0.884631
O O12 0.000000 0.000000 0.000000
O O13 0.387757 0.369077 0.659411
O O14 0.570651 0.515428 0.708267
O O15 0.365142 0.237089 0.525089
O O16 0.000000 0.500000 0.500000
O O17 0.864731 0.736497 0.528715
#
# Coordination Sequence:
#
# PCOD9001071 Si02
#       8
#     2   2   2   2   2   2   2   2
#     4  12  22  38  58  92 122 153 191 242 305 362
#     4  11  21  40  59  86 120 157 196 246 287 354
#     4  10  21  34  62  87 118 149 195 240 299 332
#     4  10  21  37  59  90 117 152 203 248 292 332
#     4  10  21  33  59  91 115 151 192 250 296 338
#     4  11  19  33  60  86 120 148 194 245 297 338
#     4  11  26  37  60  85 124 160 191 237 305 360
#     4  11  21  37  57  88 121 154 193 245 299 355
#
# _framework density 18.913837000000001
#
# number of rings (size 3 to 8) (size 9 to 14) (size 15 to 20)
#    0.750    0.500    5.000    3.000    5.250    0.000 
#    0.000    0.000    0.000    5.250    0.000    0.000 
#    0.000    0.000    0.000    0.000    0.000    0.000 
#
# Total GULP energy -89114.442534 kJ/mol
# GULP energy per Si atom -5569.652658 kJ/mol
# Density = 1.887079 g / cm^3
# Si number density = 18.913837 Si / 1000 Ang^3
#
#
#
# Elastic Constant Matrix: (Units=GPa)
#
#
# Indices 1 2 3 4 5 6 
#
# 1 107.1170 25.1166 25.7452 6.5722 -25.3321 -2.4410
# 2 25.1166 91.9416 25.4560 -0.4374 -8.7706 -8.1330
# 3 25.7452 25.4560 73.4674 -0.7341 -25.7626 -0.0983
# 4 6.5722 -0.4374 -0.7341 30.2115 -0.9721 -7.7494
# 5 -25.3321 -8.7706 -25.7626 -0.9721 24.8842 -2.7120
# 6 -2.4410 -8.1330 -0.0983 -7.7494 -2.7120 26.5338
#
#
#
# Elastic Compliance Matrix: (Units=1/GPa)
#
#
# Indices 1 2 3 4 5 6 
#
# 1 0.013010 -0.002447 0.000987 -0.002098 0.013454 0.001213
# 2 -0.002447 0.012903 -0.004234 0.001580 -0.001830 0.003989
# 3 0.000987 -0.004234 0.023024 0.001485 0.023595 0.001724
# 4 -0.002098 0.001580 0.001485 0.036585 0.002614 0.011249
# 5 0.013454 -0.001830 0.023595 0.002614 0.078812 0.009583
# 6 0.001213 0.003989 0.001724 0.011249 0.009583 0.043293
#
#
# Mechanical properties :
#
#
# Convention : Reuss Voigt Hill
#
# Bulk Modulus (GPa) = 26.63111 47.24017 36.93564
# Shear Modulus (GPa) = 21.59544 29.40645 25.50094
#
# Velocity S-wave (km/s) = 3.38269 3.94732 3.67586
# Velocity P-wave (km/s) = 5.41919 6.76800 6.13080
#
# Compressibility (1/GPa) = 0.03755007
#
# Stress axis : x y z
#
# Youngs Moduli (GPa) = 76.86291 77.50195 43.43348
#
# Poissons Ratio (x) = 0.18962 -0.04288
# Poissons Ratio (y) = 0.18806 0.18390
# Poissons Ratio (z) = -0.07589 0.32814
#
# Static dielectric constant tensor:
#      x y z
#    x 1.676340 -0.001150 -0.020520 
#    y -0.001150 1.675620 -0.006500 
#    z -0.020520 -0.006500 1.696880 
# 
# From -- ./inp_files/378726.got.cif
#   From: 2010.05.17/outbox.cif.g08.bks.cpg/sg2_190_cif.got.tgz:378726.got - 2010.06.03 11:33:40.
