data_PCOD9001448
_publ_section_title
;
Structure prediction by ZEFSAII (Michael W. Deem and Ramdas Pophale) SiO2 
 PCOD9001448
Probable space group: P -1
;
_chemical_formula_sum "Si O2"
_cell_formula_units_Z 16
_cell_length_a 5.204268
_cell_length_b 11.445536
_cell_length_c 29.766832
_cell_angle_alpha 26.062369
_cell_angle_beta 112.460930
_cell_angle_gamma 109.327909
_cell_volume 719.579979
_symmetry_space_group_name_H-M "P -1"
_symmetry_group_IT_number 2
_symmetry_cell_setting 'triclinic'
loop_
_space_group_symop_operation_xyz
x,y,z
-x,-y,-z
loop_
_atom_site_type_symbol
_atom_site_label
_atom_site_fract_x
_atom_site_fract_y
_atom_site_fract_z
Si Si1 0.977614 0.816413 0.429912
Si Si2 0.215628 0.780544 0.270983
Si Si3 0.254174 0.716079 0.398163
Si Si4 0.252235 0.666174 0.761854
Si Si5 0.786364 0.849871 0.507014
Si Si6 0.311677 0.101586 0.994374
Si Si7 0.602061 0.680399 0.690553
Si Si8 0.428693 0.169006 0.806401
O O1 0.000808 0.493369 0.546730
O O2 0.917986 0.870877 0.459284
O O3 0.198894 0.877956 0.384165
O O4 0.733427 0.032507 0.322267
O O5 0.260903 0.836549 0.307546
O O6 0.246707 0.459165 0.379699
O O7 0.426183 0.896429 0.208846
O O8 0.900640 0.860229 0.208940
O O9 0.500000 0.500000 0.500000
O O10 0.447884 0.620968 0.747529
O O11 0.930684 0.645313 0.731314
O O12 0.307362 0.422151 0.882996
O O13 0.498944 0.020840 0.432137
O O14 0.000000 0.000000 0.500000
O O15 0.434680 0.990539 0.087600
O O16 0.500000 0.000000 0.000000
O O17 0.000000 0.000000 0.000000
O O18 0.491137 0.474954 0.717799
#
# Coordination Sequence:
#
# PCOD9001448 Si02
#       8
#     2   2   2   2   2   2   2   2
#     4   9  23  38  62  87 123 157 217 255 310 358
#     4  11  26  38  60  87 127 166 206 256 315 366
#     4  10  23  42  65  87 118 169 221 263 302 374
#     4  11  22  39  60  93 119 163 205 259 300 364
#     4  10  21  35  55  90 126 163 188 241 311 390
#     4  12  22  39  64  90 127 172 209 250 306 380
#     4  11  22  35  57  86 131 160 200 240 302 382
#     4  12  23  39  58  90 127 168 204 249 315 371
#
# _framework density 22.235195000000001
#
# number of rings (size 3 to 8) (size 9 to 14) (size 15 to 20)
#    0.000    1.250    3.750    1.500   12.250    1.500 
#    0.000    0.000    0.000    1.500    0.000    0.000 
#    0.000    0.000    0.000    0.000    0.000    0.000 
#
# Total GULP energy -89272.931049 kJ/mol
# GULP energy per Si atom -5579.558191 kJ/mol
# Density = 2.218459 g / cm^3
# Si number density = 22.235195 Si / 1000 Ang^3
#
#
#
# Elastic Constant Matrix: (Units=GPa)
#
#
# Indices 1 2 3 4 5 6 
#
# 1 117.9328 2.7364 30.5036 16.1457 -3.5022 -19.3672
# 2 2.7364 62.2477 19.5778 19.1881 -3.2742 -7.5122
# 3 30.5036 19.5778 127.9515 19.3106 0.3332 -14.8333
# 4 16.1457 19.1881 19.3106 30.2289 -2.3077 -6.6998
# 5 -3.5022 -3.2742 0.3332 -2.3077 28.0571 14.3077
# 6 -19.3672 -7.5122 -14.8333 -6.6998 14.3077 33.7437
#
#
#
# Elastic Compliance Matrix: (Units=1/GPa)
#
#
# Indices 1 2 3 4 5 6 
#
# 1 0.010309 0.002050 -0.001402 -0.004819 -0.001661 0.005504
# 2 0.002050 0.020666 -0.001449 -0.012714 0.000389 0.002451
# 3 -0.001402 -0.001449 0.009321 -0.003750 -0.002422 0.003253
# 4 -0.004819 -0.012714 -0.003750 0.046546 0.000982 0.001581
# 5 -0.001661 0.000389 -0.002422 0.000982 0.046537 -0.021468
# 6 0.005504 0.002451 0.003253 0.001581 -0.021468 0.044187
#
#
# Mechanical properties :
#
#
# Convention : Reuss Voigt Hill
#
# Bulk Modulus (GPa) = 25.84359 45.97418 35.90889
# Shear Modulus (GPa) = 26.03305 35.42689 30.72997
#
# Velocity S-wave (km/s) = 3.42541 3.99592 3.72162
# Velocity P-wave (km/s) = 5.22424 6.48159 5.88658
#
# Compressibility (1/GPa) = 0.03869432
#
# Stress axis : x y z
#
# Youngs Moduli (GPa) = 97.00559 48.38891 107.28946
#
# Poissons Ratio (x) = -0.09919 0.15037
# Poissons Ratio (y) = -0.19886 0.15544
# Poissons Ratio (z) = 0.13596 0.07011
#
# Static dielectric constant tensor:
#      x y z
#    x 2.148440 0.339580 -0.068420 
#    y 0.339580 2.157720 -0.106040 
#    z -0.068420 -0.106040 1.857350 
# 
# From -- ./inp_files/615489.got.cif
#   From: 2010.05.17/outbox.cif.g08.bks.cpg/sg2_308_cif.got.tgz:615489.got - 2010.06.03 11:33:40.
