data_PCOD9001909
_publ_section_title
;
Structure prediction by ZEFSAII (Michael W. Deem and Ramdas Pophale) SiO2 
 PCOD9001909
Probable space group: P -1
;
_chemical_formula_sum "Si O2"
_cell_formula_units_Z 14
_cell_length_a 12.951371
_cell_length_b 11.206104
_cell_length_c 7.618699
_cell_angle_alpha 105.208431
_cell_angle_beta 92.306247
_cell_angle_gamma 147.414145
_cell_volume 496.749179
_symmetry_space_group_name_H-M "P -1"
_symmetry_group_IT_number 2
_symmetry_cell_setting 'triclinic'
loop_
_space_group_symop_operation_xyz
x,y,z
-x,-y,-z
loop_
_atom_site_type_symbol
_atom_site_label
_atom_site_fract_x
_atom_site_fract_y
_atom_site_fract_z
Si Si1 0.711981 0.039604 0.724532
Si Si2 0.833856 0.524128 0.684399
Si Si3 0.853616 0.329617 0.168203
Si Si4 0.954714 0.746264 0.412421
Si Si5 0.785086 0.897707 0.894277
Si Si6 0.835981 0.819754 0.188993
Si Si7 0.557251 0.140070 0.817719
O O1 0.872093 0.167968 0.627777
O O2 0.875045 0.271533 0.969629
O O3 0.557268 0.997639 0.686530
O O4 0.641313 0.838060 0.740849
O O5 0.641832 0.320576 0.740932
O O6 0.914606 0.466367 0.656803
O O7 0.820538 0.551429 0.492821
O O8 0.025655 0.819767 0.885006
O O9 0.675207 0.080846 0.192521
O O10 0.722974 0.306635 0.064103
O O11 0.798443 0.653130 0.227225
O O12 0.121454 0.026834 0.611185
O O13 0.923074 0.956826 0.795962
O O14 0.689577 0.712261 0.972798
#
# Coordination Sequence:
#
# PCOD9001909 Si02
#       7
#     2   2   2   2   2   2   2
#     4   8  15  27  42  66  93 119 150 182 222 273
#     4  10  17  27  48  72  91 123 149 181 225 275
#     4   8  17  31  46  64  94 122 156 183 216 258
#     4   9  16  25  43  69  94 119 150 181 239 269
#     4   8  14  24  44  67  87 117 159 182 224 261
#     4   8  14  26  40  67  95 112 150 202 213 268
#     4   9  17  30  48  65  99 116 153 190 213 259
#
# _framework density 28.183237999999999
#
# number of rings (size 3 to 8) (size 9 to 14) (size 15 to 20)
#    0.857    2.571    0.000    0.429    0.000    0.571 
#    0.000    0.714    0.000    0.000    0.000  126.000 
#    0.000    0.000    0.000    0.000    0.000    0.000 
#
# Total GULP energy -78035.686058 kJ/mol
# GULP energy per Si atom -5573.977576 kJ/mol
# Density = 2.811909 g / cm^3
# Si number density = 28.183238 Si / 1000 Ang^3
#
#
#
# Elastic Constant Matrix: (Units=GPa)
#
#
# Indices 1 2 3 4 5 6 
#
# 1 148.9988 37.8851 40.2770 -12.0561 -9.2512 -13.6842
# 2 37.8851 122.5656 47.5719 -51.5788 1.8043 9.2678
# 3 40.2770 47.5719 130.7857 -41.6412 2.9765 -2.6438
# 4 -12.0561 -51.5788 -41.6412 52.0019 -2.5434 7.7761
# 5 -9.2512 1.8043 2.9765 -2.5434 54.4052 -12.1767
# 6 -13.6842 9.2678 -2.6438 7.7761 -12.1767 45.6147
#
#
#
# Elastic Compliance Matrix: (Units=1/GPa)
#
#
# Indices 1 2 3 4 5 6 
#
# 1 0.008673 -0.004020 -0.002667 -0.004697 0.002600 0.004759
# 2 -0.004020 0.017390 0.000475 0.017835 -0.002327 -0.008373
# 3 -0.002667 0.000475 0.011158 0.009046 -0.001125 -0.002092
# 4 -0.004697 0.017835 0.009046 0.044869 -0.002668 -0.012870
# 5 0.002600 -0.002327 -0.001125 -0.002668 0.020424 0.007094
# 6 0.004759 -0.008373 -0.002092 -0.012870 0.007094 0.029018
#
#
# Mechanical properties :
#
#
# Convention : Reuss Voigt Hill
#
# Bulk Modulus (GPa) = 40.32880 72.64645 56.48763
# Shear Modulus (GPa) = 32.84648 48.84543 40.84596
#
# Velocity S-wave (km/s) = 3.41759 4.16761 3.81110
# Velocity P-wave (km/s) = 5.46935 6.99936 6.28112
#
# Compressibility (1/GPa) = 0.02479618
#
# Stress axis : x y z
#
# Youngs Moduli (GPa) = 115.29925 57.50340 89.62145
#
# Poissons Ratio (x) = 0.23119 0.23903
# Poissons Ratio (y) = 0.46356 -0.04257
# Poissons Ratio (z) = 0.30751 -0.02731
#
# Static dielectric constant tensor:
#      x y z
#    x 2.311890 -0.089990 0.122030 
#    y -0.089990 2.257520 0.082920 
#    z 0.122030 0.082920 2.325880 
# 
# From -- ./inp_files/258563.got.cif
#   From: 2010.05.17/outbox.cif.g08.bks.cpg/sg2_130_cif.got.tgz:258563.got - 2010.06.03 11:33:40.
