data_PCOD9001953
_publ_section_title
;
Structure prediction by ZEFSAII (Michael W. Deem and Ramdas Pophale) SiO2 
 PCOD9001953
Probable space group: P -1
;
_chemical_formula_sum "Si O2"
_cell_formula_units_Z 16
_cell_length_a 13.082806
_cell_length_b 23.402399
_cell_length_c 12.826295
_cell_angle_alpha 150.049251
_cell_angle_beta 22.481891
_cell_angle_gamma 149.762801
_cell_volume 707.240150
_symmetry_space_group_name_H-M "P -1"
_symmetry_group_IT_number 2
_symmetry_cell_setting 'triclinic'
loop_
_space_group_symop_operation_xyz
x,y,z
-x,-y,-z
loop_
_atom_site_type_symbol
_atom_site_label
_atom_site_fract_x
_atom_site_fract_y
_atom_site_fract_z
Si Si1 0.093007 0.436174 0.685401
Si Si2 0.720857 0.594065 0.331084
Si Si3 0.675393 0.740800 0.410102
Si Si4 0.463854 0.700297 0.327385
Si Si5 0.132761 0.967146 0.926714
Si Si6 0.284624 0.884813 0.077311
Si Si7 0.302563 0.008000 0.472428
Si Si8 0.903660 0.679248 0.724289
O O1 0.385300 0.549428 0.596748
O O2 0.119871 0.353761 0.628296
O O3 0.100218 0.384836 0.483173
O O4 0.827952 0.481080 0.024744
O O5 0.777437 0.674532 0.302366
O O6 0.558042 0.668486 0.300838
O O7 0.965037 0.848648 0.278620
O O8 0.423385 0.782367 0.759093
O O9 0.575642 0.849269 0.451507
O O10 0.130873 0.655890 0.551284
O O11 0.611736 0.654239 0.020838
O O12 0.018005 0.822190 0.817061
O O13 0.470194 0.008979 0.685849
O O14 0.999093 0.015226 0.226660
O O15 0.000000 0.000000 0.000000
O O16 0.284395 0.921868 0.255917
O O17 0.500000 0.000000 0.000000
#
# Coordination Sequence:
#
# PCOD9001953 Si02
#       8
#     2   2   2   2   2   2   2   2
#     4  10  21  43  66  87 122 153 211 247 322 365
#     4  10  23  42  65  91 118 160 193 272 311 357
#     4  12  24  40  62  91 127 158 211 253 310 364
#     4  10  21  37  57  86 122 156 196 239 300 362
#     4  10  21  37  56  84 122 156 197 249 294 350
#     4  12  24  37  61  91 122 166 205 247 296 368
#     4  10  21  36  55  81 119 159 198 236 298 352
#     4  10  21  37  62  86 113 165 199 238 301 370
#
# _framework density 22.623151
#
# number of rings (size 3 to 8) (size 9 to 14) (size 15 to 20)
#    0.000    1.500    1.250    3.750    3.500    2.000 
#    0.000    3.750    0.000    0.000    0.000    0.000 
#    0.000    0.000    0.000    0.000    0.000    0.000 
#
# Total GULP energy -89468.645016 kJ/mol
# GULP energy per Si atom -5591.790314 kJ/mol
# Density = 2.257166 g / cm^3
# Si number density = 22.623151 Si / 1000 Ang^3
#
#
#
# Elastic Constant Matrix: (Units=GPa)
#
#
# Indices 1 2 3 4 5 6 
#
# 1 111.7209 14.4825 2.0126 17.0623 7.8596 -0.3331
# 2 14.4825 9.8962 6.0838 -2.4958 -0.2308 -3.8579
# 3 2.0126 6.0838 103.3632 0.4275 8.4249 11.2754
# 4 17.0623 -2.4958 0.4275 17.5913 10.4163 3.9217
# 5 7.8596 -0.2308 8.4249 10.4163 43.3131 3.8972
# 6 -0.3331 -3.8579 11.2754 3.9217 3.8972 24.9778
#
#
#
# Elastic Compliance Matrix: (Units=1/GPa)
#
#
# Indices 1 2 3 4 5 6 
#
# 1 0.015741 -0.029955 0.001650 -0.020050 0.001690 -0.002277
# 2 -0.029955 0.175092 -0.012157 0.052238 -0.006067 0.024877
# 3 0.001650 -0.012157 0.011206 -0.001159 -0.001683 -0.006470
# 4 -0.020050 0.052238 -0.001159 0.095526 -0.018490 -0.003789
# 5 0.001690 -0.006067 -0.001683 -0.018490 0.027664 -0.001568
# 6 -0.002277 0.024877 -0.006470 -0.003789 -0.001568 0.047608
#
#
# Mechanical properties :
#
#
# Convention : Reuss Voigt Hill
#
# Bulk Modulus (GPa) = 8.25674 30.01532 19.13603
# Shear Modulus (GPa) = 10.11875 30.66987 20.39431
#
# Velocity S-wave (km/s) = 2.11718 3.68596 3.00572
# Velocity P-wave (km/s) = 3.10390 5.60458 4.53021
#
# Compressibility (1/GPa) = 0.12111316
#
# Stress axis : x y z
#
# Youngs Moduli (GPa) = 63.52929 5.71129 89.23969
#
# Poissons Ratio (x) = 0.17108 -0.14727
# Poissons Ratio (y) = 1.90304 1.08493
# Poissons Ratio (z) = -0.10484 0.06944
#
# Static dielectric constant tensor:
#      x y z
#    x 1.855160 -0.031020 0.000670 
#    y -0.031020 1.886050 0.011170 
#    z 0.000670 0.011170 1.796940 
# 
# From -- ./inp_files/69113.got.cif
#   From: 2010.05.17/outbox.cif.g08.bks.cpg/sg2_35_cif.got.tgz:69113.got - 2010.06.03 11:33:40.
