data_PCOD9001924
_publ_section_title
;
Structure prediction by ZEFSAII (Michael W. Deem and Ramdas Pophale) SiO2 
 PCOD9001924
Probable space group: P -1
;
_chemical_formula_sum "Si O2"
_cell_formula_units_Z 14
_cell_length_a 8.852224
_cell_length_b 9.555286
_cell_length_c 10.543000
_cell_angle_alpha 55.769684
_cell_angle_beta 99.414808
_cell_angle_gamma 91.054982
_cell_volume 724.413441
_symmetry_space_group_name_H-M "P -1"
_symmetry_group_IT_number 2
_symmetry_cell_setting 'triclinic'
loop_
_space_group_symop_operation_xyz
x,y,z
-x,-y,-z
loop_
_atom_site_type_symbol
_atom_site_label
_atom_site_fract_x
_atom_site_fract_y
_atom_site_fract_z
Si Si1 0.903347 0.673680 0.354056
Si Si2 0.875569 0.954401 0.405789
Si Si3 0.011367 0.586343 0.150187
Si Si4 0.162927 0.676218 0.879021
Si Si5 0.642540 0.476149 0.806205
Si Si6 0.433472 0.162771 0.484252
Si Si7 0.460350 0.328969 0.652717
O O1 0.942147 0.829317 0.368236
O O2 0.720810 0.662191 0.349034
O O3 0.000000 0.500000 0.500000
O O4 0.943916 0.696026 0.201209
O O5 0.744701 0.861659 0.505230
O O6 0.806449 0.135133 0.249059
O O7 0.000000 0.000000 0.500000
O O8 0.188601 0.520713 0.237714
O O9 0.906224 0.432903 0.186179
O O10 0.032629 0.680831 0.970673
O O11 0.309915 0.575584 0.018018
O O12 0.554642 0.661179 0.679699
O O13 0.554777 0.334850 0.792845
O O14 0.499286 0.185171 0.624457
O O15 0.500000 0.000000 0.500000
O O16 0.500000 0.500000 0.500000
#
# Coordination Sequence:
#
# PCOD9001924 Si02
#       7
#     2   2   2   2   2   2   2
#     4  11  21  35  58  87 113 149 188 235 282 335
#     4  11  23  37  59  85 114 143 195 238 277 338
#     4   9  19  37  61  78 116 146 191 225 291 333
#     4   9  20  38  61  81 116 150 187 234 287 331
#     4   9  18  38  59  76 112 153 182 228 283 335
#     4  10  21  36  54  82 114 145 187 236 279 331
#     4   9  19  35  55  80 112 148 188 226 276 337
#
# _framework density 19.325980000000001
#
# number of rings (size 3 to 8) (size 9 to 14) (size 15 to 20)
#    0.857    1.429    0.000    4.286    0.000    6.286 
#    0.000    7.143    0.000    0.000    0.000    0.000 
#    0.000    0.000    0.000    0.000    0.000    0.000 
#
# Total GULP energy -77984.300399 kJ/mol
# GULP energy per Si atom -5570.307171 kJ/mol
# Density = 1.928199 g / cm^3
# Si number density = 19.325980 Si / 1000 Ang^3
#
#
#
# Elastic Constant Matrix: (Units=GPa)
#
#
# Indices 1 2 3 4 5 6 
#
# 1 33.2013 39.4430 8.6118 12.7265 13.2864 6.3378
# 2 39.4430 158.9375 29.3526 21.7801 18.2868 2.0683
# 3 8.6118 29.3526 48.9566 -2.5488 10.8940 1.3059
# 4 12.7265 21.7801 -2.5488 30.0187 5.1483 1.2816
# 5 13.2864 18.2868 10.8940 5.1483 25.7429 7.5151
# 6 6.3378 2.0683 1.3059 1.2816 7.5151 36.6896
#
#
#
# Elastic Compliance Matrix: (Units=1/GPa)
#
#
# Indices 1 2 3 4 5 6 
#
# 1 0.054381 -0.009584 -0.000591 -0.013031 -0.016972 -0.004901
# 2 -0.009584 0.009978 -0.004548 -0.003640 0.000114 0.001359
# 3 -0.000591 -0.004548 0.025622 0.007235 -0.009061 0.001050
# 4 -0.013031 -0.003640 0.007235 0.042487 -0.002612 0.001250
# 5 -0.016972 0.000114 -0.009061 -0.002612 0.054143 -0.007751
# 6 -0.004901 0.001359 0.001050 0.001250 -0.007751 0.029532
#
#
# Mechanical properties :
#
#
# Convention : Reuss Voigt Hill
#
# Bulk Modulus (GPa) = 16.51930 43.99003 30.25466
# Shear Modulus (GPa) = 18.81346 29.40277 24.10811
#
# Velocity S-wave (km/s) = 3.12345 3.90476 3.53575
# Velocity P-wave (km/s) = 4.64480 6.56819 5.68838
#
# Compressibility (1/GPa) = 0.06053524
#
# Stress axis : x y z
#
# Youngs Moduli (GPa) = 18.38888 100.21908 39.02933
#
# Poissons Ratio (x) = 0.96052 0.02305
# Poissons Ratio (y) = 0.17624 0.17750
# Poissons Ratio (z) = 0.01086 0.45578
#
# Static dielectric constant tensor:
#      x y z
#    x 1.678220 0.003730 0.010990 
#    y 0.003730 1.686970 0.027680 
#    z 0.010990 0.027680 1.669210 
# 
# From -- ./inp_files/187686.got.cif
#   From: 2010.05.17/outbox.cif.g08.bks.cpg/sg2_94_cif.got.tgz:187686.got - 2010.06.03 11:33:40.
