data_PCOD9001430
_publ_section_title
;
Structure prediction by ZEFSAII (Michael W. Deem and Ramdas Pophale) SiO2 
 PCOD9001430
Probable space group: P -1
;
_chemical_formula_sum "Si O2"
_cell_formula_units_Z 14
_cell_length_a 12.052092
_cell_length_b 14.773547
_cell_length_c 7.890089
_cell_angle_alpha 128.810034
_cell_angle_beta 100.121455
_cell_angle_gamma 122.324879
_cell_volume 583.646836
_symmetry_space_group_name_H-M "P -1"
_symmetry_group_IT_number 2
_symmetry_cell_setting 'triclinic'
loop_
_space_group_symop_operation_xyz
x,y,z
-x,-y,-z
loop_
_atom_site_type_symbol
_atom_site_label
_atom_site_fract_x
_atom_site_fract_y
_atom_site_fract_z
Si Si1 0.256597 0.523399 0.379913
Si Si2 0.146189 0.665433 0.578174
Si Si3 0.018711 0.691273 0.287975
Si Si4 0.415876 0.052638 0.601402
Si Si5 0.588472 0.671102 0.459277
Si Si6 0.329074 0.501864 0.846445
Si Si7 0.857688 0.109073 0.982648
O O1 0.308519 0.702476 0.645160
O O2 0.444731 0.600660 0.484265
O O3 0.124830 0.423894 0.052248
O O4 0.094585 0.335079 0.254297
O O5 0.000000 0.500000 0.500000
O O6 0.014628 0.571329 0.260686
O O7 0.219352 0.856716 0.871455
O O8 0.255826 0.907891 0.544813
O O9 0.909326 0.691265 0.382335
O O10 0.274974 0.978381 0.323584
O O11 0.500000 0.000000 0.500000
O O12 0.590242 0.302875 0.966854
O O13 0.462223 0.589002 0.154628
O O14 0.796683 0.928175 0.810615
O O15 0.628628 0.569525 0.347720
#
# Coordination Sequence:
#
# PCOD9001430 Si02
#       7
#     2   2   2   2   2   2   2
#     4   9  19  34  58  82 112 146 186 232 275 329
#     4  10  21  35  55  85 115 150 183 229 289 332
#     4  10  21  36  58  82 113 150 181 231 284 326
#     4  10  22  35  58  89 111 141 189 234 275 335
#     4   9  18  36  56  83 108 149 188 229 272 327
#     4   9  20  35  58  82 113 143 190 232 271 329
#     4   9  20  36  53  83 115 145 182 232 280 329
#
# _framework density 23.987109
#
# number of rings (size 3 to 8) (size 9 to 14) (size 15 to 20)
#    0.000    2.571    0.000    0.429   12.000    1.714 
#    0.000    6.429    0.000    4.286    0.000    0.000 
#    0.000    0.000    0.000    0.000    0.000    0.000 
#
# Total GULP energy -78216.751007 kJ/mol
# GULP energy per Si atom -5586.910786 kJ/mol
# Density = 2.393251 g / cm^3
# Si number density = 23.987109 Si / 1000 Ang^3
#
#
#
# Elastic Constant Matrix: (Units=GPa)
#
#
# Indices 1 2 3 4 5 6 
#
# 1 224.0623 72.9772 54.0030 34.3925 -28.7319 18.6226
# 2 72.9772 117.6023 42.5571 11.9170 -0.6387 13.8861
# 3 54.0030 42.5571 68.5255 10.7988 -10.0228 -8.2632
# 4 34.3925 11.9170 10.7988 32.0318 -7.3309 -0.0007
# 5 -28.7319 -0.6387 -10.0228 -7.3309 41.1064 -1.6804
# 6 18.6226 13.8861 -8.2632 -0.0007 -1.6804 30.5981
#
#
#
# Elastic Compliance Matrix: (Units=1/GPa)
#
#
# Indices 1 2 3 4 5 6 
#
# 1 0.007800 -0.002311 -0.003924 -0.005436 0.003303 -0.004577
# 2 -0.002311 0.013749 -0.008015 -0.000800 -0.003793 -0.007206
# 3 -0.003924 -0.008015 0.024808 -0.000333 0.003651 0.012926
# 4 -0.005436 -0.000800 -0.000333 0.038168 0.003067 0.003751
# 5 0.003303 -0.003793 0.003651 0.003067 0.028105 0.002241
# 6 -0.004577 -0.007206 0.012926 0.003751 0.002241 0.042351
#
#
# Mechanical properties :
#
#
# Convention : Reuss Voigt Hill
#
# Bulk Modulus (GPa) = 55.99985 83.25163 69.62574
# Shear Modulus (GPa) = 26.39450 36.79078 31.59264
#
# Velocity S-wave (km/s) = 3.32077 3.92059 3.63308
# Velocity P-wave (km/s) = 6.17251 7.43484 6.83289
#
# Compressibility (1/GPa) = 0.01785719
#
# Stress axis : x y z
#
# Youngs Moduli (GPa) = 128.20962 72.73191 40.30934
#
# Poissons Ratio (x) = 0.16808 0.15816
# Poissons Ratio (y) = 0.29629 0.32309
# Poissons Ratio (z) = 0.50305 0.58296
#
# Static dielectric constant tensor:
#      x y z
#    x 1.882540 0.011990 -0.007290 
#    y 0.011990 1.960170 -0.065260 
#    z -0.007290 -0.065260 1.980500 
# 
# From -- ./inp_files/271109.got.cif
#   From: 2010.05.17/outbox.cif.g08.bks.cpg/sg2_136_cif.got.tgz:271109.got - 2010.06.03 11:33:40.
