data_PCOD9001856
_publ_section_title
;
Structure prediction by ZEFSAII (Michael W. Deem and Ramdas Pophale) SiO2 
 PCOD9001856
Probable space group: P -1
;
_chemical_formula_sum "Si O2"
_cell_formula_units_Z 16
_cell_length_a 18.787794
_cell_length_b 7.016849
_cell_length_c 18.453352
_cell_angle_alpha 132.608169
_cell_angle_beta 158.765373
_cell_angle_gamma 57.745890
_cell_volume 603.710037
_symmetry_space_group_name_H-M "P -1"
_symmetry_group_IT_number 2
_symmetry_cell_setting 'triclinic'
loop_
_space_group_symop_operation_xyz
x,y,z
-x,-y,-z
loop_
_atom_site_type_symbol
_atom_site_label
_atom_site_fract_x
_atom_site_fract_y
_atom_site_fract_z
Si Si1 0.642242 0.288354 0.423066
Si Si2 0.864919 0.104218 0.956293
Si Si3 0.032942 0.319368 0.869599
Si Si4 0.091261 0.383270 0.371624
Si Si5 0.811355 0.716860 0.224959
Si Si6 0.765220 0.013715 0.113947
Si Si7 0.604477 0.312349 0.143208
Si Si8 0.448958 0.638881 0.417210
O O1 0.773878 0.383812 0.499203
O O2 0.549807 0.524233 0.417372
O O3 0.438824 0.035213 0.141797
O O4 0.780891 0.242787 0.609172
O O5 0.902422 0.421864 0.058406
O O6 0.614071 0.951080 0.666220
O O7 0.976957 0.111190 0.142517
O O8 0.000000 0.000000 0.000000
O O9 0.196487 0.493350 0.131423
O O10 0.076542 0.058657 0.809011
O O11 0.265056 0.445512 0.615515
O O12 0.907415 0.479108 0.251508
O O13 0.742758 0.781807 0.096174
O O14 0.612187 0.647691 0.071318
O O15 0.000000 0.000000 0.500000
O O16 0.770708 0.276247 0.234375
O O17 0.500000 0.000000 0.000000
O O18 0.500000 0.500000 0.500000
#
# Coordination Sequence:
#
# PCOD9001856 Si02
#       8
#     2   2   2   2   2   2   2   2
#     4  10  18  33  50  77 104 142 184 226 269 333
#     4  11  21  38  58  82 113 152 188 238 281 327
#     4  10  21  35  61  81 113 145 193 229 285 330
#     4  11  18  29  48  76 113 146 184 221 279 331
#     4  11  16  24  42  72 114 152 169 215 282 330
#     4  10  17  27  47  78 116 147 177 225 283 332
#     4  10  18  25  43  75 120 145 171 219 287 328
#     4  11  24  41  58  81 110 148 194 237 286 337
#
# _framework density 26.502789
#
# number of rings (size 3 to 8) (size 9 to 14) (size 15 to 20)
#    0.000    1.500   10.000    0.375    0.000    0.500 
#    2.250    0.000    0.000    0.000    0.000    3.500 
#    0.000   14.750    0.000    0.375    0.000    0.000 
#
# Total GULP energy -89195.520345 kJ/mol
# GULP energy per Si atom -5574.720022 kJ/mol
# Density = 2.644247 g / cm^3
# Si number density = 26.502789 Si / 1000 Ang^3
#
#
#
# Elastic Constant Matrix: (Units=GPa)
#
#
# Indices 1 2 3 4 5 6 
#
# 1 78.8040 15.0927 30.5456 6.7640 -2.7832 -22.3092
# 2 15.0927 66.2784 41.0527 0.5699 9.5283 -28.9175
# 3 30.5456 41.0527 220.7241 -3.9660 -19.7271 -4.7667
# 4 6.7640 0.5699 -3.9660 48.5765 -1.7615 -0.5464
# 5 -2.7832 9.5283 -19.7271 -1.7615 43.7995 0.6225
# 6 -22.3092 -28.9175 -4.7667 -0.5464 0.6225 35.3885
#
#
#
# Elastic Compliance Matrix: (Units=1/GPa)
#
#
# Indices 1 2 3 4 5 6 
#
# 1 0.017153 0.004287 -0.003053 -0.002587 -0.001519 0.013892
# 2 0.004287 0.032236 -0.006930 -0.001598 -0.010328 0.028268
# 3 -0.003053 -0.006930 0.006508 0.001121 0.004386 -0.006771
# 4 -0.002587 -0.001598 0.001121 0.021086 0.001571 -0.002487
# 5 -0.001519 -0.010328 0.004386 0.001571 0.027152 -0.009260
# 6 0.013892 0.028268 -0.006771 -0.002487 -0.009260 0.059327
#
#
# Mechanical properties :
#
#
# Convention : Reuss Voigt Hill
#
# Bulk Modulus (GPa) = 22.46967 59.90984 41.18976
# Shear Modulus (GPa) = 26.35890 44.16058 35.25974
#
# Velocity S-wave (km/s) = 3.15710 4.08642 3.65144
# Velocity P-wave (km/s) = 4.66759 6.70218 5.77519
#
# Compressibility (1/GPa) = 0.04450444
#
# Stress axis : x y z
#
# Youngs Moduli (GPa) = 58.29716 31.02135 153.65784
#
# Poissons Ratio (x) = -0.13299 0.46919
# Poissons Ratio (y) = -0.24993 1.06487
# Poissons Ratio (z) = 0.17801 0.21498
#
# Static dielectric constant tensor:
#      x y z
#    x 2.140330 -0.068520 -0.110850 
#    y -0.068520 1.810200 -0.386110 
#    z -0.110850 -0.386110 1.929650 
# 
# From -- ./inp_files/601247.got.cif
#   From: 2010.05.17/outbox.cif.g08.bks.cpg/sg2_301_cif.got.tgz:601247.got - 2010.06.03 11:33:40.
