data_PCOD9001896
_publ_section_title
;
Structure prediction by ZEFSAII (Michael W. Deem and Ramdas Pophale) SiO2 
 PCOD9001896
Probable space group: P -1
;
_chemical_formula_sum "Si O2"
_cell_formula_units_Z 16
_cell_length_a 16.913017
_cell_length_b 11.389474
_cell_length_c 9.346655
_cell_angle_alpha 83.869028
_cell_angle_beta 46.672141
_cell_angle_gamma 47.224640
_cell_volume 711.321030
_symmetry_space_group_name_H-M "P -1"
_symmetry_group_IT_number 2
_symmetry_cell_setting 'triclinic'
loop_
_space_group_symop_operation_xyz
x,y,z
-x,-y,-z
loop_
_atom_site_type_symbol
_atom_site_label
_atom_site_fract_x
_atom_site_fract_y
_atom_site_fract_z
Si Si1 0.824154 0.169050 0.080889
Si Si2 0.461912 0.359941 0.658571
Si Si3 0.138069 0.539162 0.419421
Si Si4 0.477111 0.862912 0.633089
Si Si5 0.193007 0.257277 0.744090
Si Si6 0.876336 0.726271 0.469666
Si Si7 0.419408 0.811936 0.143936
Si Si8 0.812280 0.024955 0.845637
O O1 0.642180 0.261147 0.364710
O O2 0.732053 0.381637 0.140965
O O3 0.874824 0.067190 0.876120
O O4 0.000000 0.000000 0.000000
O O5 0.427020 0.277834 0.612348
O O6 0.538477 0.267110 0.735821
O O7 0.119154 0.420199 0.508571
O O8 0.068146 0.596837 0.332866
O O9 0.362819 0.376928 0.169742
O O10 0.985924 0.768960 0.651446
O O11 0.634082 0.809942 0.510540
O O12 0.285584 0.106007 0.781667
O O13 0.386837 0.851281 0.854309
O O14 0.137498 0.225971 0.684342
O O15 0.000000 0.500000 0.000000
O O16 0.687640 0.961594 0.747527
O O17 0.266793 0.872871 0.229430
#
# Coordination Sequence:
#
# PCOD9001896 Si02
#       8
#     2   2   2   2   2   2   2   2
#     4  10  24  45  70  90 121 157 208 264 322 378
#     4  10  23  43  65  95 119 165 205 259 323 370
#     4  10  22  36  60  88 127 171 209 249 306 363
#     4  10  22  39  57  88 129 160 208 255 306 362
#     4  11  22  33  58  89 125 167 209 252 298 364
#     4  10  21  36  53  90 126 170 211 247 296 370
#     4  11  22  40  64  88 129 162 205 258 308 371
#     4  10  23  42  62  92 122 165 211 255 311 372
#
# _framework density 22.493359000000002
#
# number of rings (size 3 to 8) (size 9 to 14) (size 15 to 20)
#    0.000    1.750    1.250    1.875    1.750   10.500 
#    0.000    1.250    0.000    0.000    0.000    0.000 
#    0.000    0.000    0.000    0.000    0.000    0.000 
#
# Total GULP energy -89367.549906 kJ/mol
# GULP energy per Si atom -5585.471869 kJ/mol
# Density = 2.244216 g / cm^3
# Si number density = 22.493359 Si / 1000 Ang^3
#
#
#
# Elastic Constant Matrix: (Units=GPa)
#
#
# Indices 1 2 3 4 5 6 
#
# 1 114.6038 53.0703 32.0004 30.2660 20.3339 -35.1036
# 2 53.0703 98.6460 32.3777 36.3970 4.3943 -22.1622
# 3 32.0004 32.3777 67.7417 25.5113 15.6723 -12.4044
# 4 30.2660 36.3970 25.5113 40.4857 5.4002 -5.3566
# 5 20.3339 4.3943 15.6723 5.4002 26.8727 4.5616
# 6 -35.1036 -22.1622 -12.4044 -5.3566 4.5616 34.0382
#
#
#
# Elastic Compliance Matrix: (Units=1/GPa)
#
#
# Indices 1 2 3 4 5 6 
#
# 1 0.023378 -0.003459 0.004192 -0.010884 -0.021551 0.024561
# 2 -0.003459 0.018244 -0.002108 -0.012103 0.002393 0.005317
# 3 0.004192 -0.002108 0.024795 -0.013019 -0.016740 0.012182
# 4 -0.010884 -0.012103 -0.013019 0.048079 0.011164 -0.017779
# 5 -0.021551 0.002393 -0.016740 0.011164 0.066403 -0.033910
# 6 0.024561 0.005317 0.012182 -0.017779 -0.033910 0.064356
#
#
# Mechanical properties :
#
#
# Convention : Reuss Voigt Hill
#
# Bulk Modulus (GPa) = 15.70668 57.32094 36.51381
# Shear Modulus (GPa) = 18.57162 31.18221 24.87691
#
# Velocity S-wave (km/s) = 2.87653 3.72732 3.32922
# Velocity P-wave (km/s) = 4.24624 6.63798 5.57195
#
# Compressibility (1/GPa) = 0.06366719
#
# Stress axis : x y z
#
# Youngs Moduli (GPa) = 42.77478 54.81387 40.33033
#
# Poissons Ratio (x) = 0.18961 -0.16906
# Poissons Ratio (y) = 0.14797 0.08500
# Poissons Ratio (z) = -0.17931 0.11553
#
# Static dielectric constant tensor:
#      x y z
#    x 1.849890 0.008620 0.033080 
#    y 0.008620 1.851620 -0.032220 
#    z 0.033080 -0.032220 1.820870 
# 
# From -- ./inp_files/70855.got.cif
#   From: 2010.05.17/outbox.cif.g08.bks.cpg/sg2_36_cif.got.tgz:70855.got - 2010.06.03 11:33:40.
