data_PCOD9001656
_publ_section_title
;
Structure prediction by ZEFSAII (Michael W. Deem and Ramdas Pophale) SiO2 
 PCOD9001656
Probable space group: P -1
;
_chemical_formula_sum "Si O2"
_cell_formula_units_Z 15
_cell_length_a 11.772868
_cell_length_b 8.406564
_cell_length_c 8.504328
_cell_angle_alpha 86.068741
_cell_angle_beta 72.529526
_cell_angle_gamma 62.316221
_cell_volume 708.427884
_symmetry_space_group_name_H-M "P -1"
_symmetry_group_IT_number 2
_symmetry_cell_setting 'triclinic'
loop_
_space_group_symop_operation_xyz
x,y,z
-x,-y,-z
loop_
_atom_site_type_symbol
_atom_site_label
_atom_site_fract_x
_atom_site_fract_y
_atom_site_fract_z
Si Si1 0.500000 0.500000 0.000000
Si Si2 0.998412 0.747461 0.465340
Si Si3 0.656698 0.946499 0.903336
Si Si4 0.217122 0.373272 0.342041
Si Si5 0.872501 0.140405 0.346697
Si Si6 0.386875 0.738013 0.335339
Si Si7 0.520568 0.802567 0.548247
Si Si8 0.711776 0.160469 0.121526
O O1 0.561846 0.415100 0.805751
O O2 0.364240 0.661450 0.963001
O O3 0.128894 0.585486 0.344845
O O4 0.035877 0.776247 0.626418
O O5 0.880863 0.692350 0.529244
O O6 0.948879 0.930823 0.378039
O O7 0.727747 0.740323 0.832745
O O8 0.653149 0.072901 0.750922
O O9 0.500000 0.000000 0.000000
O O10 0.729924 0.996739 0.009261
O O11 0.344236 0.313155 0.405769
O O12 0.738667 0.232372 0.506087
O O13 0.831227 0.154476 0.180672
O O14 0.508583 0.705618 0.403555
O O15 0.396820 0.835202 0.708444
O O16 0.500000 0.000000 0.500000
#
# Coordination Sequence:
#
# PCOD9001656 Si02
#       8
#     1   2   2   2   2   2   2   2
#     4  10  24  36  54 100 122 154 188 250 330 366
#     4  10  23  38  62  86 120 166 216 250 289 356
#     4  11  19  36  59  91 127 158 186 253 329 365
#     4  11  21  37  60  91 123 155 212 252 296 369
#     4  10  21  42  63  85 118 170 209 252 300 361
#     4  10  21  35  60  90 124 150 201 257 312 368
#     4  11  19  35  63  94 117 154 199 261 317 361
#     4  10  22  37  62  91 126 156 201 254 317 372
#
# _framework density 21.173645
#
# number of rings (size 3 to 8) (size 9 to 14) (size 15 to 20)
#    0.000    1.600    4.000    0.800    3.733    1.067 
#    0.000    1.333    0.000    0.000    0.000    0.000 
#    0.000    0.000    0.000    0.000    0.000    0.000 
#
# Total GULP energy -83552.191488 kJ/mol
# GULP energy per Si atom -5570.146099 kJ/mol
# Density = 2.112545 g / cm^3
# Si number density = 21.173645 Si / 1000 Ang^3
#
#
#
# Elastic Constant Matrix: (Units=GPa)
#
#
# Indices 1 2 3 4 5 6 
#
# 1 56.8880 14.4018 20.8027 0.6818 33.1855 -4.8958
# 2 14.4018 102.7080 28.8551 33.4562 18.9450 -17.3374
# 3 20.8027 28.8551 94.9290 21.0516 43.5014 -4.5075
# 4 0.6818 33.4562 21.0516 36.3660 -1.4792 -6.2325
# 5 33.1855 18.9450 43.5014 -1.4792 44.2710 -4.5244
# 6 -4.8958 -17.3374 -4.5075 -6.2325 -4.5244 19.8812
#
#
#
# Elastic Compliance Matrix: (Units=1/GPa)
#
#
# Indices 1 2 3 4 5 6 
#
# 1 0.036909 0.003381 0.013296 -0.013003 -0.042480 0.001309
# 2 0.003381 0.018278 0.005485 -0.019236 -0.015524 0.008452
# 3 0.013296 0.005485 0.032535 -0.026535 -0.045501 -0.003239
# 4 -0.013003 -0.019236 -0.026535 0.063471 0.046635 0.004516
# 5 -0.042480 -0.015524 -0.045501 0.046635 0.107838 0.004845
# 6 0.001309 0.008452 -0.003239 0.004516 0.004845 0.059776
#
#
# Mechanical properties :
#
#
# Convention : Reuss Voigt Hill
#
# Bulk Modulus (GPa) = 7.57312 42.51603 25.04457
# Shear Modulus (GPa) = 15.69876 32.80134 24.25005
#
# Velocity S-wave (km/s) = 2.72587 3.94021 3.38789
# Velocity P-wave (km/s) = 3.67309 6.38933 5.21130
#
# Compressibility (1/GPa) = 0.13204600
#
# Stress axis : x y z
#
# Youngs Moduli (GPa) = 27.09334 54.71137 30.73652
#
# Poissons Ratio (x) = -0.18499 -0.40868
# Poissons Ratio (y) = -0.09161 -0.16858
# Poissons Ratio (z) = -0.36024 -0.30007
#
# Static dielectric constant tensor:
#      x y z
#    x 1.802530 0.027690 0.004620 
#    y 0.027690 1.795810 0.017850 
#    z 0.004620 0.017850 1.759690 
# 
# From -- ./inp_files/167756.got.cif
#   From: 2010.05.17/outbox.cif.g08.bks.cpg/sg2_84_cif.got.tgz:167756.got - 2010.06.03 11:33:40.
