data_PCOD9001454
_publ_section_title
;
Structure prediction by ZEFSAII (Michael W. Deem and Ramdas Pophale) SiO2 
 PCOD9001454
Probable space group: P -1
;
_chemical_formula_sum "Si O2"
_cell_formula_units_Z 12
_cell_length_a 8.584007
_cell_length_b 22.270293
_cell_length_c 5.533564
_cell_angle_alpha 101.830461
_cell_angle_beta 99.110994
_cell_angle_gamma 27.024670
_cell_volume 469.744455
_symmetry_space_group_name_H-M "P -1"
_symmetry_group_IT_number 2
_symmetry_cell_setting 'triclinic'
loop_
_space_group_symop_operation_xyz
x,y,z
-x,-y,-z
loop_
_atom_site_type_symbol
_atom_site_label
_atom_site_fract_x
_atom_site_fract_y
_atom_site_fract_z
Si Si1 0.388168 0.324547 0.205937
Si Si2 0.549017 0.824591 0.143055
Si Si3 0.191692 0.055219 0.474376
Si Si4 0.220430 0.043747 0.977306
Si Si5 0.583502 0.618977 0.240965
Si Si6 0.318732 0.583723 0.272724
O O1 0.432213 0.323772 0.503849
O O2 0.970694 0.458127 0.219567
O O3 0.434615 0.359617 0.032711
O O4 0.531620 0.213067 0.019419
O O5 0.928526 0.696002 0.239857
O O6 0.326768 0.938518 0.381808
O O7 0.453231 0.903607 0.962760
O O8 0.024151 0.115000 0.740358
O O9 0.500000 0.000000 0.500000
O O10 0.003721 0.129519 0.236209
O O11 0.500000 0.000000 0.000000
O O12 0.329709 0.653566 0.305978
O O13 0.500000 0.500000 0.500000
O O14 0.500000 0.500000 0.000000
#
# Coordination Sequence:
#
# PCOD9001454 Si02
#       6
#     2   2   2   2   2   2
#     4  10  21  35  56  72 103 148 182 217 259 311
#     4  10  22  32  60  80 104 142 185 214 271 316
#     4   8  16  29  48  78 107 123 167 229 271 298
#     4   8  16  30  49  78 107 124 167 232 273 297
#     4  10  22  38  49  74 111 142 178 223 260 304
#     4  12  25  37  53  80 111 145 182 220 263 318
#
# _framework density 25.545805000000001
#
# number of rings (size 3 to 8) (size 9 to 14) (size 15 to 20)
#    1.000    1.333    1.667    1.000    9.333    0.000 
#    0.000    0.000    0.000    0.000    0.000    7.000 
#    0.000    0.000    0.000    0.000    0.000    0.000 
#
# Total GULP energy -66868.579093 kJ/mol
# GULP energy per Si atom -5572.381591 kJ/mol
# Density = 2.548766 g / cm^3
# Si number density = 25.545805 Si / 1000 Ang^3
#
#
#
# Elastic Constant Matrix: (Units=GPa)
#
#
# Indices 1 2 3 4 5 6 
#
# 1 69.9601 5.0111 39.9918 -9.5901 9.2719 18.2788
# 2 5.0111 67.9842 50.7577 -32.8499 6.3897 19.8283
# 3 39.9918 50.7577 226.7906 -43.2692 -7.3935 0.4321
# 4 -9.5901 -32.8499 -43.2692 71.2103 -7.4571 0.3755
# 5 9.2719 6.3897 -7.3935 -7.4571 51.6734 8.9331
# 6 18.2788 19.8283 0.4321 0.3755 8.9331 37.2945
#
#
#
# Elastic Compliance Matrix: (Units=1/GPa)
#
#
# Indices 1 2 3 4 5 6 
#
# 1 0.020961 0.008042 -0.004914 0.003351 -0.002570 -0.013910
# 2 0.008042 0.029766 -0.005936 0.011209 -0.000971 -0.019579
# 3 -0.004914 -0.005936 0.006830 0.000918 0.001856 0.005031
# 4 0.003351 0.011209 0.000918 0.020536 0.002566 -0.008434
# 5 -0.002570 -0.000971 0.001856 0.002566 0.021146 -0.003337
# 6 -0.013910 -0.019579 0.005031 -0.008434 -0.003337 0.044866
#
#
# Mechanical properties :
#
#
# Convention : Reuss Voigt Hill
#
# Bulk Modulus (GPa) = 19.25245 61.80623 40.52934
# Shear Modulus (GPa) = 29.93359 49.96727 39.95043
#
# Velocity S-wave (km/s) = 3.42681 4.42745 3.95888
# Velocity P-wave (km/s) = 4.81770 7.09812 6.06603
#
# Compressibility (1/GPa) = 0.05194143
#
# Stress axis : x y z
#
# Youngs Moduli (GPa) = 47.70715 33.59534 146.40377
#
# Poissons Ratio (x) = -0.27016 0.71943
# Poissons Ratio (y) = -0.38364 0.86900
# Poissons Ratio (z) = 0.23443 0.19941
#
# Static dielectric constant tensor:
#      x y z
#    x 2.062880 -0.114360 0.069410 
#    y -0.114360 2.137000 -0.074860 
#    z 0.069410 -0.074860 2.051460 
# 
# From -- ./inp_files/50664.got.cif
#   From: 2010.05.17/outbox.cif.g08.bks.cpg/sg2_26_cif.got.tgz:50664.got - 2010.06.03 11:33:40.
