data_PCOD9001471
_publ_section_title
;
Structure prediction by ZEFSAII (Michael W. Deem and Ramdas Pophale) SiO2 
 PCOD9001471
Probable space group: P -1
;
_chemical_formula_sum "Si O2"
_cell_formula_units_Z 16
_cell_length_a 9.519612
_cell_length_b 9.497686
_cell_length_c 21.325947
_cell_angle_alpha 127.180820
_cell_angle_beta 151.125065
_cell_angle_gamma 58.141468
_cell_volume 741.842365
_symmetry_space_group_name_H-M "P -1"
_symmetry_group_IT_number 2
_symmetry_cell_setting 'triclinic'
loop_
_space_group_symop_operation_xyz
x,y,z
-x,-y,-z
loop_
_atom_site_type_symbol
_atom_site_label
_atom_site_fract_x
_atom_site_fract_y
_atom_site_fract_z
Si Si1 0.599619 0.151627 0.627519
Si Si2 0.032944 0.327737 0.509064
Si Si3 0.952432 0.677538 0.238628
Si Si4 0.239010 0.375603 0.337436
Si Si5 0.939994 0.092409 0.209763
Si Si6 0.483519 0.942529 0.082698
Si Si7 0.453801 0.098979 0.240840
Si Si8 0.851450 0.829407 0.366858
O O1 0.313200 0.227975 0.565864
O O2 0.793085 0.294575 0.704369
O O3 0.500000 0.000000 0.500000
O O4 0.820942 0.060967 0.737689
O O5 0.106707 0.334452 0.614494
O O6 0.000000 0.500000 0.500000
O O7 0.741930 0.209650 0.361944
O O8 0.006103 0.798724 0.353138
O O9 0.993797 0.486717 0.234160
O O10 0.650052 0.758966 0.116653
O O11 0.500000 0.500000 0.500000
O O12 0.330339 0.225980 0.281306
O O13 0.110811 0.275024 0.320371
O O14 0.743530 0.061498 0.186030
O O15 0.738194 0.084154 0.067645
O O16 0.333212 0.038075 0.109075
O O17 0.533781 0.907155 0.250028
O O18 0.000000 0.000000 0.500000
#
# Coordination Sequence:
#
# PCOD9001471 Si02
#       8
#     2   2   2   2   2   2   2   2
#     4  11  20  35  58  84 112 152 198 237 287 351
#     4  11  21  33  53  84 119 150 186 239 298 347
#     4  10  21  35  56  84 117 152 193 246 296 349
#     4  12  23  36  58  93 126 152 191 250 311 352
#     4  10  22  40  65  87 115 157 205 248 288 356
#     4   9  21  43  64  83 112 162 211 240 286 354
#     4  10  21  37  58  83 119 158 196 241 291 357
#     4   9  17  33  51  74 109 152 191 229 284 345
#
# _framework density 21.567923
#
# number of rings (size 3 to 8) (size 9 to 14) (size 15 to 20)
#    0.000    1.750    0.000    6.750    0.000    4.000 
#    0.000    0.000    0.000   15.000    0.000    0.000 
#    0.000    0.000    0.000    0.000    0.000    0.000 
#
# Total GULP energy -89189.300106 kJ/mol
# GULP energy per Si atom -5574.331257 kJ/mol
# Density = 2.151883 g / cm^3
# Si number density = 21.567923 Si / 1000 Ang^3
#
#
#
# Elastic Constant Matrix: (Units=GPa)
#
#
# Indices 1 2 3 4 5 6 
#
# 1 78.7233 34.2879 19.9267 -11.7116 -0.8234 0.3206
# 2 34.2879 101.2884 14.4213 -22.7220 3.5848 26.1443
# 3 19.9267 14.4213 45.0640 -17.6377 -5.1646 3.8057
# 4 -11.7116 -22.7220 -17.6377 27.6014 8.1559 -4.5294
# 5 -0.8234 3.5848 -5.1646 8.1559 36.1903 -2.2235
# 6 0.3206 26.1443 3.8057 -4.5294 -2.2235 44.5134
#
#
#
# Elastic Compliance Matrix: (Units=1/GPa)
#
#
# Indices 1 2 3 4 5 6 
#
# 1 0.016733 -0.006146 -0.006285 -0.001535 0.000678 0.003904
# 2 -0.006146 0.017035 0.002565 0.013025 -0.004956 -0.009102
# 3 -0.006285 0.002565 0.031974 0.019629 -0.000394 -0.002217
# 4 -0.001535 0.013025 0.019629 0.062005 -0.012721 -0.003643
# 5 0.000678 -0.004956 -0.000394 -0.012721 0.031145 0.003201
# 6 0.003904 -0.009102 -0.002217 -0.003643 0.003201 0.027762
#
#
# Mechanical properties :
#
#
# Convention : Reuss Voigt Hill
#
# Bulk Modulus (GPa) = 21.73469 40.26081 30.99775
# Shear Modulus (GPa) = 22.55060 32.09033 27.32047
#
# Velocity S-wave (km/s) = 3.23702 3.86148 3.56296
# Velocity P-wave (km/s) = 4.90615 6.21200 5.59728
#
# Compressibility (1/GPa) = 0.04600940
#
# Stress axis : x y z
#
# Youngs Moduli (GPa) = 59.76130 58.70292 31.27565
#
# Poissons Ratio (x) = 0.36077 0.19658
# Poissons Ratio (y) = 0.36728 -0.08022
# Poissons Ratio (z) = 0.37562 -0.15057
#
# Static dielectric constant tensor:
#      x y z
#    x 1.824360 0.012130 -0.007830 
#    y 0.012130 1.825310 -0.052160 
#    z -0.007830 -0.052160 1.817960 
# 
# From -- ./inp_files/559102.got.cif
#   From: 2010.05.17/outbox.cif.g08.bks.cpg/sg2_280_cif.got.tgz:559102.got - 2010.06.03 11:33:40.
