data_PCOD9001027
_publ_section_title
;
Structure prediction by ZEFSAII (Michael W. Deem and Ramdas Pophale) SiO2 
 PCOD9001027
Probable space group: P -1
;
_chemical_formula_sum "Si O2"
_cell_formula_units_Z 16
_cell_length_a 5.201940
_cell_length_b 11.673104
_cell_length_c 15.702947
_cell_angle_alpha 107.506204
_cell_angle_beta 113.511623
_cell_angle_gamma 74.545910
_cell_volume 822.089401
_symmetry_space_group_name_H-M "P -1"
_symmetry_group_IT_number 2
_symmetry_cell_setting 'triclinic'
loop_
_space_group_symop_operation_xyz
x,y,z
-x,-y,-z
loop_
_atom_site_type_symbol
_atom_site_label
_atom_site_fract_x
_atom_site_fract_y
_atom_site_fract_z
Si Si1 0.527875 0.639182 0.015787
Si Si2 0.319046 0.117876 0.106993
Si Si3 0.933366 0.341874 0.177206
Si Si4 0.128799 0.718870 0.135002
Si Si5 0.910824 0.973307 0.120633
Si Si6 0.802572 0.387960 0.352468
Si Si7 0.776201 0.439116 0.724943
Si Si8 0.203416 0.589912 0.463316
O O1 0.850623 0.661089 0.058017
O O2 0.356422 0.711934 0.087374
O O3 0.500000 0.500000 0.000000
O O4 0.349664 0.676094 0.914645
O O5 0.191133 0.255034 0.146236
O O6 0.654012 0.071549 0.144101
O O7 0.215984 0.089103 0.992236
O O8 0.161858 0.036854 0.131755
O O9 0.968231 0.484224 0.208787
O O10 0.925763 0.313083 0.269934
O O11 0.019169 0.860648 0.171175
O O12 0.256209 0.641680 0.215852
O O13 0.485598 0.451737 0.301472
O O14 0.831593 0.329571 0.437521
O O15 0.968668 0.502381 0.408329
O O16 0.799455 0.362291 0.622858
O O17 0.500000 0.500000 0.500000
#
# Coordination Sequence:
#
# PCOD9001027 Si02
#       8
#     2   2   2   2   2   2   2   2
#     4  12  24  35  50  80 119 151 181 218 278 332
#     4  10  22  37  55  72 102 143 198 236 268 307
#     4  11  22  33  53  82 108 147 182 233 275 325
#     4  12  24  38  54  78 113 153 189 223 268 333
#     4  10  22  39  53  72 100 151 194 235 267 306
#     4   9  18  32  55  78 113 140 175 220 279 334
#     4  10  21  33  54  84 112 143 179 222 280 339
#     4   8  16  34  51  78 112 140 174 217 270 341
#
# _framework density 19.462602
#
# number of rings (size 3 to 8) (size 9 to 14) (size 15 to 20)
#    0.000    1.750    2.500    1.875    8.750    0.000 
#    0.000    0.000    0.000    0.000    0.000    1.750 
#    0.000    0.000    0.000    0.000    0.000    0.000 
#
# Total GULP energy -89288.224179 kJ/mol
# GULP energy per Si atom -5580.514011 kJ/mol
# Density = 1.941830 g / cm^3
# Si number density = 19.462602 Si / 1000 Ang^3
#
#
#
# Elastic Constant Matrix: (Units=GPa)
#
#
# Indices 1 2 3 4 5 6 
#
# 1 59.7535 -4.0643 25.1301 2.6883 -7.1335 -7.5520
# 2 -4.0643 54.5495 15.3918 -0.4506 -6.5500 -2.3079
# 3 25.1301 15.3918 113.4929 -7.9293 -22.2623 -4.8350
# 4 2.6883 -0.4506 -7.9293 8.3885 -4.1615 -3.6557
# 5 -7.1335 -6.5500 -22.2623 -4.1615 33.6382 6.6971
# 6 -7.5520 -2.3079 -4.8350 -3.6557 6.6971 25.4676
#
#
#
# Elastic Compliance Matrix: (Units=1/GPa)
#
#
# Indices 1 2 3 4 5 6 
#
# 1 0.020158 0.003057 -0.005609 -0.010328 -0.000905 0.003945
# 2 0.003057 0.019697 -0.002942 -0.001027 0.002125 0.001427
# 3 -0.005609 -0.002942 0.013766 0.019856 0.009604 0.001008
# 4 -0.010328 -0.001027 0.019856 0.162133 0.027493 0.016657
# 5 -0.000905 0.002125 0.009604 0.027493 0.040705 -0.005010
# 6 0.003945 0.001427 0.001008 0.016657 -0.005010 0.044465
#
#
# Mechanical properties :
#
#
# Convention : Reuss Voigt Hill
#
# Bulk Modulus (GPa) = 23.45602 33.41232 28.43417
# Shear Modulus (GPa) = 15.33166 26.25474 20.79320
#
# Velocity S-wave (km/s) = 2.80973 3.67684 3.27213
# Velocity P-wave (km/s) = 4.75438 5.93550 5.37747
#
# Compressibility (1/GPa) = 0.04263298
#
# Stress axis : x y z
#
# Youngs Moduli (GPa) = 49.60924 50.76892 72.64133
#
# Poissons Ratio (x) = -0.15522 0.40745
# Poissons Ratio (y) = -0.15168 0.21374
# Poissons Ratio (z) = 0.27826 0.14938
#
# Static dielectric constant tensor:
#      x y z
#    x 1.805590 -0.002810 0.013580 
#    y -0.002810 1.689260 -0.004230 
#    z 0.013580 -0.004230 1.767340 
# 
# From -- ./inp_files/77584.got.cif
#   From: 2010.05.17/outbox.cif.g08.bks.cpg/sg2_39_cif.got.tgz:77584.got - 2010.06.03 11:33:40.
