data_PCOD9001734
_publ_section_title
;
Structure prediction by ZEFSAII (Michael W. Deem and Ramdas Pophale) SiO2 
 PCOD9001734
Probable space group: P -1
;
_chemical_formula_sum "Si O2"
_cell_formula_units_Z 12
_cell_length_a 7.732402
_cell_length_b 12.338040
_cell_length_c 13.448855
_cell_angle_alpha 57.264225
_cell_angle_beta 134.887792
_cell_angle_gamma 142.928682
_cell_volume 547.224345
_symmetry_space_group_name_H-M "P -1"
_symmetry_group_IT_number 2
_symmetry_cell_setting 'triclinic'
loop_
_space_group_symop_operation_xyz
x,y,z
-x,-y,-z
loop_
_atom_site_type_symbol
_atom_site_label
_atom_site_fract_x
_atom_site_fract_y
_atom_site_fract_z
Si Si1 0.367196 0.760331 0.831875
Si Si2 0.249561 0.180606 0.574997
Si Si3 0.694024 0.169293 0.425610
Si Si4 0.022365 0.528611 0.349951
Si Si5 0.216830 0.317458 0.912143
Si Si6 0.508852 0.962459 0.135376
O O1 0.534680 0.882996 0.738708
O O2 0.083716 0.569360 0.755413
O O3 0.264975 0.845632 0.811950
O O4 0.608391 0.756332 0.995335
O O5 0.573936 0.327553 0.564232
O O6 0.362779 0.132542 0.737497
O O7 0.039050 0.226496 0.500970
O O8 0.000000 0.000000 0.500000
O O9 0.817564 0.353861 0.423490
O O10 0.500000 0.000000 0.500000
O O11 0.885864 0.624331 0.247618
O O12 0.872096 0.170314 0.907855
O O13 0.500000 0.500000 0.000000
O O14 0.500000 0.000000 0.000000
#
# Coordination Sequence:
#
# PCOD9001734 Si02
#       6
#     2   2   2   2   2   2
#     4   9  19  38  62  86 123 156 197 245 305 346
#     4  11  20  39  60  85 126 164 194 242 305 357
#     4  10  21  35  62  86 118 153 205 241 300 350
#     4   8  19  36  63  86 119 162 197 241 305 355
#     4   9  18  37  60  81 119 158 189 245 303 350
#     4  11  23  36  61  90 115 160 207 244 293 355
#
# _framework density 21.928850000000001
#
# number of rings (size 3 to 8) (size 9 to 14) (size 15 to 20)
#    1.000    1.333    1.667    1.000    2.333    0.000 
#    0.000    8.333    3.667    0.000    0.000    0.000 
#    0.000    0.000    0.000    0.000    0.000    0.000 
#
# Total GULP energy -66851.340251 kJ/mol
# GULP energy per Si atom -5570.945021 kJ/mol
# Density = 2.187894 g / cm^3
# Si number density = 21.928850 Si / 1000 Ang^3
#
#
#
# Elastic Constant Matrix: (Units=GPa)
#
#
# Indices 1 2 3 4 5 6 
#
# 1 20.0794 13.8310 16.8456 -13.6531 12.5144 -6.5462
# 2 13.8310 110.7865 42.2444 -19.5039 1.3004 8.2542
# 3 16.8456 42.2444 76.5760 -28.1883 17.2543 7.9657
# 4 -13.6531 -19.5039 -28.1883 51.0052 -5.7386 2.1643
# 5 12.5144 1.3004 17.2543 -5.7386 40.1939 -2.0402
# 6 -6.5462 8.2542 7.9657 2.1643 -2.0402 26.3032
#
#
#
# Elastic Compliance Matrix: (Units=1/GPa)
#
#
# Indices 1 2 3 4 5 6 
#
# 1 0.093960 -0.007438 -0.009331 0.013610 -0.021759 0.025737
# 2 -0.007438 0.012386 -0.005665 0.000244 0.004193 -0.003717
# 3 -0.009331 -0.005665 0.023521 0.007999 -0.006314 -0.008815
# 4 0.013610 0.000244 0.007999 0.027400 -0.003852 -0.001665
# 5 -0.021759 0.004193 -0.006314 -0.003852 0.033583 -0.001897
# 6 0.025737 -0.003717 -0.008815 -0.001665 -0.001897 0.048249
#
#
# Mechanical properties :
#
#
# Convention : Reuss Voigt Hill
#
# Bulk Modulus (GPa) = 11.76492 39.25377 25.50934
# Shear Modulus (GPa) = 16.01027 32.46851 24.23939
#
# Velocity S-wave (km/s) = 2.70497 3.85207 3.32831
# Velocity P-wave (km/s) = 3.89005 6.14198 5.14084
#
# Compressibility (1/GPa) = 0.08499847
#
# Stress axis : x y z
#
# Youngs Moduli (GPa) = 10.64283 80.73785 42.51564
#
# Poissons Ratio (x) = 0.60056 0.39670
# Poissons Ratio (y) = 0.07917 0.24084
# Poissons Ratio (z) = 0.09931 0.45737
#
# Static dielectric constant tensor:
#      x y z
#    x 1.817440 -0.054070 -0.034830 
#    y -0.054070 1.839070 -0.019620 
#    z -0.034830 -0.019620 1.907680 
# 
# From -- ./inp_files/329874.got.cif
#   From: 2010.05.17/outbox.cif.g08.bks.cpg/sg2_165_cif.got.tgz:329874.got - 2010.06.03 11:33:40.
