data_PCOD9001543
_publ_section_title
;
Structure prediction by ZEFSAII (Michael W. Deem and Ramdas Pophale) SiO2 
 PCOD9001543
Probable space group: P -1
;
_chemical_formula_sum "Si O2"
_cell_formula_units_Z 14
_cell_length_a 14.295185
_cell_length_b 15.852025
_cell_length_c 12.011997
_cell_angle_alpha 145.914921
_cell_angle_beta 31.009594
_cell_angle_gamma 152.027527
_cell_volume 628.511782
_symmetry_space_group_name_H-M "P -1"
_symmetry_group_IT_number 2
_symmetry_cell_setting 'triclinic'
loop_
_space_group_symop_operation_xyz
x,y,z
-x,-y,-z
loop_
_atom_site_type_symbol
_atom_site_label
_atom_site_fract_x
_atom_site_fract_y
_atom_site_fract_z
Si Si1 0.403697 0.616344 0.696832
Si Si2 0.717535 0.387374 0.947089
Si Si3 0.932466 0.052649 0.447764
Si Si4 0.521692 0.054091 0.283930
Si Si5 0.867536 0.428162 0.441783
Si Si6 0.197998 0.944471 0.185630
Si Si7 0.671773 0.570468 0.654625
O O1 0.500000 0.500000 0.500000
O O2 0.614332 0.835185 0.735040
O O3 0.326721 0.553972 0.581348
O O4 0.241323 0.575792 0.921750
O O5 0.942871 0.494862 0.763170
O O6 0.580718 0.162254 0.824808
O O7 0.556982 0.445529 0.135910
O O8 0.012687 0.932224 0.282335
O O9 0.126330 0.215075 0.349437
O O10 0.691693 0.942625 0.513651
O O11 0.909604 0.145629 0.684063
O O12 0.690473 0.203187 0.366258
O O13 0.665717 0.108252 0.081784
O O14 0.729061 0.510915 0.643422
O O15 0.000000 0.500000 0.500000
#
# Coordination Sequence:
#
# PCOD9001543 Si02
#       7
#     2   2   2   2   2   2   2
#     4   9  17  35  61  98 135 167 198 253 321 394
#     4  10  23  45  68  98 135 166 217 266 325 401
#     4  11  20  35  64  96 139 169 202 259 319 399
#     4  11  23  43  65  96 126 173 218 268 325 379
#     4  12  29  47  68  92 124 176 232 279 323 372
#     4  10  21  35  58 101 137 170 213 242 326 402
#     4  11  22  43  66 100 137 173 209 265 333 381
#
# _framework density 22.274842
#
# number of rings (size 3 to 8) (size 9 to 14) (size 15 to 20)
#    0.000    1.429    5.714    1.286    2.000    5.143 
#    0.000    0.714    0.000    0.000    0.000    0.000 
#    0.000    0.000    0.000    0.000    0.000    0.000 
#
# Total GULP energy -78323.746716 kJ/mol
# GULP energy per Si atom -5594.553337 kJ/mol
# Density = 2.222414 g / cm^3
# Si number density = 22.274842 Si / 1000 Ang^3
#
#
#
# Elastic Constant Matrix: (Units=GPa)
#
#
# Indices 1 2 3 4 5 6 
#
# 1 123.0628 25.7975 27.7919 18.3345 -18.6487 24.1491
# 2 25.7975 72.9338 27.3359 9.5838 -0.8363 17.0519
# 3 27.7919 27.3359 52.8916 -4.7557 -23.6958 11.9310
# 4 18.3345 9.5838 -4.7557 32.3127 8.3272 -1.1730
# 5 -18.6487 -0.8363 -23.6958 8.3272 27.9563 0.9534
# 6 24.1491 17.0519 11.9310 -1.1730 0.9534 33.3294
#
#
#
# Elastic Compliance Matrix: (Units=1/GPa)
#
#
# Indices 1 2 3 4 5 6 
#
# 1 0.014094 -0.001068 0.000684 -0.011510 0.013743 -0.010709
# 2 -0.001068 0.021254 -0.014655 -0.005250 -0.010772 -0.004731
# 3 0.000684 -0.014655 0.046260 0.000191 0.039535 -0.010682
# 4 -0.011510 -0.005250 0.000191 0.045097 -0.021555 0.013162
# 5 0.013743 -0.010772 0.039535 -0.021555 0.085289 -0.021797
# 6 -0.010709 -0.004731 -0.010682 0.013162 -0.021797 0.045094
#
#
# Mechanical properties :
#
#
# Convention : Reuss Voigt Hill
#
# Bulk Modulus (GPa) = 19.40592 45.63764 32.52178
# Shear Modulus (GPa) = 16.42893 29.91721 23.17307
#
# Velocity S-wave (km/s) = 2.71874 3.66880 3.22891
# Velocity P-wave (km/s) = 4.31119 6.20320 5.34163
#
# Compressibility (1/GPa) = 0.05153066
#
# Stress axis : x y z
#
# Youngs Moduli (GPa) = 70.95080 47.05043 21.61707
#
# Poissons Ratio (x) = 0.05024 -0.01478
# Poissons Ratio (y) = 0.07576 0.31679
# Poissons Ratio (z) = -0.04851 0.68950
#
# Static dielectric constant tensor:
#      x y z
#    x 1.846400 -0.011540 -0.021770 
#    y -0.011540 1.852370 0.002090 
#    z -0.021770 0.002090 1.825700 
# 
# From -- ./inp_files/456820.got.cif
#   From: 2010.05.17/outbox.cif.g08.bks.cpg/sg2_229_cif.got.tgz:456820.got - 2010.06.03 11:33:40.
