data_PCOD9001813
_publ_section_title
;
Structure prediction by ZEFSAII (Michael W. Deem and Ramdas Pophale) SiO2 
 PCOD9001813
Probable space group: P -1
;
_chemical_formula_sum "Si O2"
_cell_formula_units_Z 16
_cell_length_a 11.866298
_cell_length_b 17.302639
_cell_length_c 9.142708
_cell_angle_alpha 51.578993
_cell_angle_beta 61.553877
_cell_angle_gamma 31.397752
_cell_volume 759.434874
_symmetry_space_group_name_H-M "P -1"
_symmetry_group_IT_number 2
_symmetry_cell_setting 'triclinic'
loop_
_space_group_symop_operation_xyz
x,y,z
-x,-y,-z
loop_
_atom_site_type_symbol
_atom_site_label
_atom_site_fract_x
_atom_site_fract_y
_atom_site_fract_z
Si Si1 0.746946 0.878005 0.992899
Si Si2 0.968702 0.859417 0.647874
Si Si3 0.871233 0.939366 0.110905
Si Si4 0.300540 0.557192 0.366191
Si Si5 0.520147 0.732389 0.849961
Si Si6 0.863828 0.118350 0.222687
Si Si7 0.878139 0.496235 0.682591
Si Si8 0.657574 0.501147 0.267767
O O1 0.779637 0.925279 0.059163
O O2 0.936433 0.677120 0.133243
O O3 0.777992 0.920889 0.774732
O O4 0.500000 0.000000 0.000000
O O5 0.102852 0.818012 0.752951
O O6 0.111299 0.693810 0.666966
O O7 0.909387 0.988289 0.432036
O O8 0.074837 0.759117 0.273377
O O9 0.678569 0.081381 0.176942
O O10 0.973809 0.964148 0.917757
O O11 0.251091 0.505633 0.333789
O O12 0.484643 0.528103 0.281165
O O13 0.368689 0.462684 0.586932
O O14 0.382354 0.732088 0.855460
O O15 0.698824 0.657380 0.711797
O O16 0.640274 0.609756 0.057063
O O17 0.000000 0.500000 0.500000
#
# Coordination Sequence:
#
# PCOD9001813 Si02
#       8
#     2   2   2   2   2   2   2   2
#     4  10  23  45  64  86 126 172 215 262 308 366
#     4  10  21  38  59  97 125 170 207 255 313 381
#     4  10  22  41  63  95 131 166 205 254 318 381
#     4  10  23  42  64  93 136 166 199 260 321 381
#     4  12  23  39  66  98 125 165 207 261 317 377
#     4  10  21  35  64  94 135 161 204 251 322 385
#     4  11  26  47  65  90 125 171 220 262 310 369
#     4  11  22  37  66  99 130 160 207 259 327 371
#
# _framework density 21.068297000000001
#
# number of rings (size 3 to 8) (size 9 to 14) (size 15 to 20)
#    0.000    1.500    2.500    1.875    5.250    2.000 
#    2.250    2.500    0.000    0.000    0.000    0.000 
#    0.000    0.000    0.000    0.000    0.000    0.000 
#
# Total GULP energy -89258.399389 kJ/mol
# GULP energy per Si atom -5578.649962 kJ/mol
# Density = 2.102034 g / cm^3
# Si number density = 21.068297 Si / 1000 Ang^3
#
#
#
# Elastic Constant Matrix: (Units=GPa)
#
#
# Indices 1 2 3 4 5 6 
#
# 1 40.5817 27.3349 19.9104 7.1580 5.4563 -19.2245
# 2 27.3349 123.6389 42.5653 32.2514 -7.9077 -8.0132
# 3 19.9104 42.5653 79.0018 12.2373 5.7922 -3.9145
# 4 7.1580 32.2514 12.2373 21.0031 -2.4949 -1.8784
# 5 5.4563 -7.9077 5.7922 -2.4949 24.0670 1.3878
# 6 -19.2245 -8.0132 -3.9145 -1.8784 1.3878 29.8031
#
#
#
# Elastic Compliance Matrix: (Units=1/GPa)
#
#
# Indices 1 2 3 4 5 6 
#
# 1 0.048084 -0.007604 -0.005491 -0.000570 -0.013801 0.028858
# 2 -0.007604 0.016841 -0.004656 -0.020018 0.006450 -0.002550
# 3 -0.005491 -0.004656 0.017004 -0.001629 -0.004404 -0.002458
# 4 -0.000570 -0.020018 -0.001629 0.079670 0.002263 -0.001048
# 5 -0.013801 0.006450 -0.004404 0.002263 0.048663 -0.009870
# 6 0.028858 -0.002550 -0.002458 -0.001048 -0.009870 0.051553
#
#
# Mechanical properties :
#
#
# Convention : Reuss Voigt Hill
#
# Bulk Modulus (GPa) = 21.53921 46.98265 34.26093
# Shear Modulus (GPa) = 15.98501 25.20209 20.59355
#
# Velocity S-wave (km/s) = 2.75748 3.46238 3.12984
# Velocity P-wave (km/s) = 4.51486 6.19134 5.41833
#
# Compressibility (1/GPa) = 0.04642696
#
# Stress axis : x y z
#
# Youngs Moduli (GPa) = 20.79673 59.37876 58.80988
#
# Poissons Ratio (x) = 0.45151 0.32295
# Poissons Ratio (y) = 0.15814 0.27381
# Poissons Ratio (z) = 0.11420 0.27646
#
# Static dielectric constant tensor:
#      x y z
#    x 1.789120 0.009760 0.002960 
#    y 0.009760 1.762590 0.017660 
#    z 0.002960 0.017660 1.783690 
# 
# From -- ./inp_files/178864.got.cif
#   From: 2010.05.17/outbox.cif.g08.bks.cpg/sg2_90_cif.got.tgz:178864.got - 2010.06.03 11:33:40.
