data_PCOD9001419
_publ_section_title
;
Structure prediction by ZEFSAII (Michael W. Deem and Ramdas Pophale) SiO2 
 PCOD9001419
Probable space group: P -1
;
_chemical_formula_sum "Si O2"
_cell_formula_units_Z 16
_cell_length_a 5.436752
_cell_length_b 17.808968
_cell_length_c 10.041865
_cell_angle_alpha 126.610307
_cell_angle_beta 111.785753
_cell_angle_gamma 92.777253
_cell_volume 675.582419
_symmetry_space_group_name_H-M "P -1"
_symmetry_group_IT_number 2
_symmetry_cell_setting 'triclinic'
loop_
_space_group_symop_operation_xyz
x,y,z
-x,-y,-z
loop_
_atom_site_type_symbol
_atom_site_label
_atom_site_fract_x
_atom_site_fract_y
_atom_site_fract_z
Si Si1 0.662327 0.946881 0.071565
Si Si2 0.681000 0.306390 0.577198
Si Si3 0.946595 0.909362 0.495033
Si Si4 0.076755 0.464656 0.120274
Si Si5 0.080576 0.822494 0.975723
Si Si6 0.093936 0.300904 0.443041
Si Si7 0.272177 0.795140 0.275088
Si Si8 0.594209 0.476628 0.143269
O O1 0.401419 0.890258 0.061455
O O2 0.838740 0.875680 0.981524
O O3 0.915881 0.038161 0.285755
O O4 0.500000 0.000000 0.000000
O O5 0.759798 0.421713 0.669118
O O6 0.343659 0.257641 0.468155
O O7 0.781131 0.301951 0.744447
O O8 0.832521 0.260359 0.450562
O O9 0.611071 0.846050 0.372560
O O10 0.140249 0.853785 0.411709
O O11 0.000000 0.000000 0.500000
O O12 0.312905 0.417403 0.103244
O O13 0.802389 0.417489 0.103669
O O14 0.000000 0.500000 0.000000
O O15 0.117141 0.792620 0.102287
O O16 0.993936 0.728674 0.756818
O O17 0.240857 0.417587 0.640065
O O18 0.500000 0.500000 0.000000
#
# Coordination Sequence:
#
# PCOD9001419 Si02
#       8
#     2   2   2   2   2   2   2   2
#     4  12  27  41  60  83 107 147 194 244 289 341
#     4  10  21  35  55  86 109 146 188 230 282 331
#     4  12  23  43  61  78 106 151 201 230 289 347
#     4   8  14  27  48  76 108 136 173 223 268 318
#     4  12  24  42  56  83 116 148 187 237 300 338
#     4  10  21  35  55  83 115 143 181 237 283 327
#     4  12  24  39  61  81 112 151 191 242 283 348
#     4   8  14  27  48  76 105 139 176 216 268 323
#
# _framework density 23.683268999999999
#
# number of rings (size 3 to 8) (size 9 to 14) (size 15 to 20)
#    0.000    1.500    2.500    3.000    5.250    0.000 
#    0.000    0.000    0.000    0.000    0.000   28.000 
#    0.000    0.000    0.000    0.000    0.000    0.000 
#
# Total GULP energy -89145.687145 kJ/mol
# GULP energy per Si atom -5571.605447 kJ/mol
# Density = 2.362937 g / cm^3
# Si number density = 23.683269 Si / 1000 Ang^3
#
#
#
# Elastic Constant Matrix: (Units=GPa)
#
#
# Indices 1 2 3 4 5 6 
#
# 1 264.2339 17.2271 24.4974 7.0619 -13.4560 0.1845
# 2 17.2271 42.0825 6.4993 6.0545 2.1491 -3.9975
# 3 24.4974 6.4993 137.2804 -7.4149 -12.4793 -15.1930
# 4 7.0619 6.0545 -7.4149 27.5897 -0.9611 1.6016
# 5 -13.4560 2.1491 -12.4793 -0.9611 36.4375 -2.3026
# 6 0.1845 -3.9975 -15.1930 1.6016 -2.3026 26.5106
#
#
#
# Elastic Compliance Matrix: (Units=1/GPa)
#
#
# Indices 1 2 3 4 5 6 
#
# 1 0.004032 -0.001552 -0.000619 -0.000785 0.001319 -0.000455
# 2 -0.001552 0.025860 -0.001105 -0.005857 -0.002415 0.003421
# 3 -0.000619 -0.001105 0.008388 0.002486 0.003076 0.004762
# 4 -0.000785 -0.005857 0.002486 0.038557 0.001821 -0.001624
# 5 0.001319 -0.002415 0.003076 0.001821 0.029418 0.003834
# 6 -0.000455 0.003421 0.004762 -0.001624 0.003834 0.041400
#
#
# Mechanical properties :
#
#
# Convention : Reuss Voigt Hill
#
# Bulk Modulus (GPa) = 31.51787 60.00493 45.76140
# Shear Modulus (GPa) = 30.34315 44.46577 37.40446
#
# Velocity S-wave (km/s) = 3.58328 4.33773 3.97843
# Velocity P-wave (km/s) = 5.51877 7.10488 6.36145
#
# Compressibility (1/GPa) = 0.03172803
#
# Stress axis : x y z
#
# Youngs Moduli (GPa) = 248.04184 38.66984 119.21892
#
# Poissons Ratio (x) = 0.06003 0.07377
# Poissons Ratio (y) = 0.38506 0.13168
# Poissons Ratio (z) = 0.15348 0.04271
#
# Static dielectric constant tensor:
#      x y z
#    x 1.918790 0.024790 0.032650 
#    y 0.024790 1.873230 0.011760 
#    z 0.032650 0.011760 1.912280 
# 
# From -- ./inp_files/47981.got.cif
#   From: 2010.05.17/outbox.cif.g08.bks.cpg/sg2_24_cif.got.tgz:47981.got - 2010.06.03 11:33:40.
