data_PCOD9001815
_publ_section_title
;
Structure prediction by ZEFSAII (Michael W. Deem and Ramdas Pophale) SiO2 
 PCOD9001815
Probable space group: P -1
;
_chemical_formula_sum "Si O2"
_cell_formula_units_Z 14
_cell_length_a 24.151732
_cell_length_b 5.534457
_cell_length_c 14.855051
_cell_angle_alpha 112.480541
_cell_angle_beta 158.467735
_cell_angle_gamma 66.235092
_cell_volume 666.812705
_symmetry_space_group_name_H-M "P -1"
_symmetry_group_IT_number 2
_symmetry_cell_setting 'triclinic'
loop_
_space_group_symop_operation_xyz
x,y,z
-x,-y,-z
loop_
_atom_site_type_symbol
_atom_site_label
_atom_site_fract_x
_atom_site_fract_y
_atom_site_fract_z
Si Si1 0.166769 0.629075 0.180643
Si Si2 0.499320 0.276460 0.088016
Si Si3 0.250979 0.477314 0.608916
Si Si4 0.387698 0.946467 0.239111
Si Si5 0.908312 0.983525 0.731804
Si Si6 0.487078 0.326898 0.289079
Si Si7 0.059763 0.190235 0.842952
O O1 0.339178 0.645783 0.418737
O O2 0.139479 0.730130 0.255404
O O3 0.123134 0.349886 0.045134
O O4 0.053268 0.838711 0.983094
O O5 0.649452 0.387872 0.294048
O O6 0.485959 0.255216 0.171600
O O7 0.352006 0.456324 0.848450
O O8 0.500000 0.000000 0.000000
O O9 0.226587 0.192485 0.491399
O O10 0.078046 0.617237 0.383920
O O11 0.400634 0.627781 0.207903
O O12 0.500000 0.000000 0.500000
O O13 0.436774 0.104780 0.247952
O O14 0.211202 0.066635 0.004834
O O15 0.963962 0.983595 0.714096
#
# Coordination Sequence:
#
# PCOD9001815 Si02
#       7
#     2   2   2   2   2   2   2
#     4  10  21  35  64  96 137 170 229 282 351 413
#     4  11  25  46  72 100 137 174 233 298 358 410
#     4  10  23  41  71  97 133 176 225 292 361 403
#     4  12  27  46  70 101 146 192 234 280 338 419
#     4  10  21  37  64 101 132 174 225 289 358 411
#     4  12  27  44  72 105 137 189 238 282 346 417
#     4  11  22  40  64  94 138 183 226 283 345 408
#
# _framework density 20.995401000000001
#
# number of rings (size 3 to 8) (size 9 to 14) (size 15 to 20)
#    0.000    1.143    1.429    4.286   10.000    1.143 
#    0.000    1.429    0.000    0.000    0.000    0.000 
#    0.000    0.000    0.000    0.000    0.000    0.000 
#
# Total GULP energy -78123.542497 kJ/mol
# GULP energy per Si atom -5580.253035 kJ/mol
# Density = 2.094761 g / cm^3
# Si number density = 20.995401 Si / 1000 Ang^3
#
#
#
# Elastic Constant Matrix: (Units=GPa)
#
#
# Indices 1 2 3 4 5 6 
#
# 1 103.5710 43.1747 37.6078 -6.6873 4.8827 16.1964
# 2 43.1747 76.7391 33.6053 5.5529 1.8320 -1.5676
# 3 37.6078 33.6053 127.6877 -21.9749 8.4831 -1.5306
# 4 -6.6873 5.5529 -21.9749 28.8165 2.5391 4.8073
# 5 4.8827 1.8320 8.4831 2.5391 43.2621 -5.2417
# 6 16.1964 -1.5676 -1.5306 4.8073 -5.2417 31.6328
#
#
#
# Elastic Compliance Matrix: (Units=1/GPa)
#
#
# Indices 1 2 3 4 5 6 
#
# 1 0.016019 -0.009140 -0.001116 0.006574 -0.002821 -0.010176
# 2 -0.009140 0.021285 -0.004986 -0.011549 0.002719 0.007699
# 3 -0.001116 -0.004986 0.011304 0.009721 -0.002575 -0.001033
# 4 0.006574 -0.011549 0.009721 0.048418 -0.006442 -0.011894
# 5 -0.002821 0.002719 -0.002575 -0.006442 0.024998 0.006576
# 6 -0.010176 0.007699 -0.001033 -0.011894 0.006576 0.040051
#
#
# Mechanical properties :
#
#
# Convention : Reuss Voigt Hill
#
# Bulk Modulus (GPa) = 55.17228 59.64150 57.40689
# Shear Modulus (GPa) = 25.17606 33.64960 29.41283
#
# Velocity S-wave (km/s) = 3.46659 4.00773 3.74694
# Velocity P-wave (km/s) = 6.50833 7.06290 6.79128
#
# Compressibility (1/GPa) = 0.01812504
#
# Stress axis : x y z
#
# Youngs Moduli (GPa) = 62.42450 46.98144 88.46379
#
# Poissons Ratio (x) = 0.42943 0.09870
# Poissons Ratio (y) = 0.57058 0.44104
# Poissons Ratio (z) = 0.06965 0.23423
#
# Static dielectric constant tensor:
#      x y z
#    x 1.768520 0.026910 -0.012130 
#    y 0.026910 1.819720 -0.016660 
#    z -0.012130 -0.016660 1.769270 
# 
# From -- ./inp_files/68972.got.cif
#   From: 2010.05.17/outbox.cif.g08.bks.cpg/sg2_35_cif.got.tgz:68972.got - 2010.06.03 11:33:40.
