data_PCOD9001193
_publ_section_title
;
Structure prediction by ZEFSAII (Michael W. Deem and Ramdas Pophale) SiO2 
 PCOD9001193
Probable space group: P -1
;
_chemical_formula_sum "Si O2"
_cell_formula_units_Z 14
_cell_length_a 14.743506
_cell_length_b 5.511509
_cell_length_c 22.296434
_cell_angle_alpha 77.155966
_cell_angle_beta 21.473945
_cell_angle_gamma 74.575323
_cell_volume 637.731364
_symmetry_space_group_name_H-M "P -1"
_symmetry_group_IT_number 2
_symmetry_cell_setting 'triclinic'
loop_
_space_group_symop_operation_xyz
x,y,z
-x,-y,-z
loop_
_atom_site_type_symbol
_atom_site_label
_atom_site_fract_x
_atom_site_fract_y
_atom_site_fract_z
Si Si1 0.466812 0.749521 0.465982
Si Si2 0.014130 0.543929 0.417874
Si Si3 0.284854 0.455186 0.502656
Si Si4 0.231117 0.897154 0.720753
Si Si5 0.254114 0.594411 0.104855
Si Si6 0.193611 0.995040 0.326529
Si Si7 0.262917 0.164186 0.019462
O O1 0.500000 0.500000 0.500000
O O2 0.328377 0.716927 0.491579
O O3 0.292623 0.924976 0.610357
O O4 0.736722 0.831770 0.287955
O O5 0.180912 0.289520 0.303379
O O6 0.000000 0.500000 0.500000
O O7 0.751863 0.553648 0.544912
O O8 0.110256 0.810184 0.337642
O O9 0.538947 0.275957 0.377254
O O10 0.017468 0.405031 0.695970
O O11 0.971593 0.798901 0.883762
O O12 0.253940 0.390310 0.061233
O O13 0.262285 0.884766 0.064341
O O14 0.500000 0.500000 0.000000
O O15 0.000000 0.000000 0.500000
O O16 0.474502 0.868211 0.175304
#
# Coordination Sequence:
#
# PCOD9001193 Si02
#       7
#     2   2   2   2   2   2   2
#     4   9  17  33  50  81 123 170 198 232 292 374
#     4  10  23  43  67  90 115 162 220 265 311 366
#     4  11  22  36  61  89 131 169 208 252 314 376
#     4  10  21  34  56  88 128 171 205 245 311 372
#     4  12  25  37  57  94 133 166 203 251 308 378
#     4  10  22  43  66  87 115 164 212 262 318 360
#     4  12  23  39  60  91 130 163 205 258 307 380
#
# _framework density 21.952819000000002
#
# number of rings (size 3 to 8) (size 9 to 14) (size 15 to 20)
#    0.000    1.429    1.429    5.571    4.000    0.000 
#    0.000    0.000    0.000    6.857    0.000    0.000 
#    0.000    0.000    0.000    0.000    0.000    0.000 
#
# Total GULP energy -77948.530249 kJ/mol
# GULP energy per Si atom -5567.752161 kJ/mol
# Density = 2.190285 g / cm^3
# Si number density = 21.952819 Si / 1000 Ang^3
#
#
#
# Elastic Constant Matrix: (Units=GPa)
#
#
# Indices 1 2 3 4 5 6 
#
# 1 134.4574 39.3308 58.9187 1.6395 -44.1537 15.1706
# 2 39.3308 113.2221 22.6650 6.1776 -11.3889 25.4483
# 3 58.9187 22.6650 122.9132 9.2513 -33.0849 4.9877
# 4 1.6395 6.1776 9.2513 25.1312 -4.1703 -18.4185
# 5 -44.1537 -11.3889 -33.0849 -4.1703 41.0308 -7.0007
# 6 15.1706 25.4483 4.9877 -18.4185 -7.0007 35.4652
#
#
#
# Elastic Compliance Matrix: (Units=1/GPa)
#
#
# Indices 1 2 3 4 5 6 
#
# 1 0.013386 -0.003510 -0.003006 0.004372 0.011759 0.001807
# 2 -0.003510 0.015208 -0.000243 -0.019215 -0.005182 -0.020379
# 3 -0.003006 -0.000243 0.011383 -0.003862 0.005295 -0.001101
# 4 0.004372 -0.019215 -0.003862 0.097208 0.017465 0.066393
# 5 0.011759 -0.005182 0.005295 0.017465 0.044321 0.015763
# 6 0.001807 -0.020379 -0.001101 0.066393 0.015763 0.079793
#
#
# Mechanical properties :
#
#
# Convention : Reuss Voigt Hill
#
# Bulk Modulus (GPa) = 37.79864 68.04688 52.92276
# Shear Modulus (GPa) = 17.62816 36.97065 27.29940
#
# Velocity S-wave (km/s) = 2.83680 4.10823 3.53022
# Velocity P-wave (km/s) = 5.29013 7.31898 6.38565
#
# Compressibility (1/GPa) = 0.02645598
#
# Stress axis : x y z
#
# Youngs Moduli (GPa) = 74.70734 65.75547 87.85410
#
# Poissons Ratio (x) = 0.23080 0.26413
# Poissons Ratio (y) = 0.26222 0.02139
# Poissons Ratio (z) = 0.22461 0.01601
#
# Static dielectric constant tensor:
#      x y z
#    x 1.832580 0.141960 -0.096210 
#    y 0.141960 1.773580 0.299040 
#    z -0.096210 0.299040 1.584610 
# 
# From -- ./inp_files/79699.got.cif
#   From: 2010.05.17/outbox.cif.g08.bks.cpg/sg2_40_cif.got.tgz:79699.got - 2010.06.03 11:33:40.
