data_PCOD9001304
_publ_section_title
;
Structure prediction by ZEFSAII (Michael W. Deem and Ramdas Pophale) SiO2 
 PCOD9001304
Probable space group: P -1
;
_chemical_formula_sum "Si O2"
_cell_formula_units_Z 16
_cell_length_a 15.959199
_cell_length_b 10.861130
_cell_length_c 12.218304
_cell_angle_alpha 148.474067
_cell_angle_beta 49.479027
_cell_angle_gamma 118.475979
_cell_volume 825.844042
_symmetry_space_group_name_H-M "P -1"
_symmetry_group_IT_number 2
_symmetry_cell_setting 'triclinic'
loop_
_space_group_symop_operation_xyz
x,y,z
-x,-y,-z
loop_
_atom_site_type_symbol
_atom_site_label
_atom_site_fract_x
_atom_site_fract_y
_atom_site_fract_z
Si Si1 0.554072 0.238731 0.620388
Si Si2 0.017180 0.276923 0.901193
Si Si3 0.346663 0.253888 0.534585
Si Si4 0.353114 0.432653 0.072285
Si Si5 0.402307 0.943029 0.786790
Si Si6 0.819285 0.067225 0.650062
Si Si7 0.780969 0.220984 0.038895
Si Si8 0.217293 0.377554 0.951760
O O1 0.652136 0.313355 0.669324
O O2 0.500000 0.000000 0.500000
O O3 0.595163 0.220664 0.448258
O O4 0.446836 0.434264 0.899057
O O5 0.077500 0.061663 0.609038
O O6 0.103579 0.309346 0.949030
O O7 0.000000 0.500000 0.000000
O O8 0.893822 0.258347 0.032300
O O9 0.293702 0.520730 0.738131
O O10 0.478502 0.163234 0.338953
O O11 0.280400 0.071172 0.395483
O O12 0.313783 0.252077 0.690094
O O13 0.252130 0.350015 0.028173
O O14 0.393270 0.216806 0.960841
O O15 0.298682 0.915755 0.929155
O O16 0.792445 0.340703 0.844180
O O17 0.828761 0.078095 0.780657
#
# Coordination Sequence:
#
# PCOD9001304 Si02
#       8
#     2   2   2   2   2   2   2   2
#     4   9  20  35  58  80 115 153 196 236 278 342
#     4  11  20  40  62  89 111 152 203 250 291 344
#     4  10  21  36  57  89 122 155 191 241 298 351
#     4  10  21  37  58  89 115 160 201 234 288 351
#     4  11  23  37  58  86 128 161 189 238 297 355
#     4  10  21  34  62  85 116 148 197 251 296 341
#     4  11  23  38  57  89 122 158 196 240 302 352
#     4  10  21  35  61  89 116 147 206 247 286 341
#
# _framework density 19.374117999999999
#
# number of rings (size 3 to 8) (size 9 to 14) (size 15 to 20)
#    0.000    1.750    5.000    0.750    5.250    2.500 
#    0.000    0.625    0.000    1.500    0.000    0.000 
#    0.000    0.000    0.000    0.000    0.000    0.000 
#
# Total GULP energy -89132.408577 kJ/mol
# GULP energy per Si atom -5570.775536 kJ/mol
# Density = 1.933002 g / cm^3
# Si number density = 19.374118 Si / 1000 Ang^3
#
#
#
# Elastic Constant Matrix: (Units=GPa)
#
#
# Indices 1 2 3 4 5 6 
#
# 1 118.2722 39.8849 27.0573 0.2797 3.7905 23.0713
# 2 39.8849 74.6666 22.6592 4.4069 -7.6867 17.5785
# 3 27.0573 22.6592 49.4664 17.8939 5.6706 7.4272
# 4 0.2797 4.4069 17.8939 14.4098 10.0083 -1.3483
# 5 3.7905 -7.6867 5.6706 10.0083 29.4920 -2.2484
# 6 23.0713 17.5785 7.4272 -1.3483 -2.2484 23.2905
#
#
#
# Elastic Compliance Matrix: (Units=1/GPa)
#
#
# Indices 1 2 3 4 5 6 
#
# 1 0.013918 -0.004645 -0.010483 0.019080 -0.007962 -0.006602
# 2 -0.004645 0.020552 -0.002925 -0.009789 0.009101 -0.009666
# 3 -0.010483 -0.002925 0.055655 -0.080232 0.016485 -0.008210
# 4 0.019080 -0.009789 -0.080232 0.216211 -0.061374 0.020664
# 5 -0.007962 0.009101 0.016485 -0.061374 0.054770 -0.002504
# 6 -0.006602 -0.009666 -0.008210 0.020664 -0.002504 0.060344
#
#
# Mechanical properties :
#
#
# Convention : Reuss Voigt Hill
#
# Bulk Modulus (GPa) = 18.51184 46.84532 32.67858
# Shear Modulus (GPa) = 10.51392 23.62540 17.06966
#
# Velocity S-wave (km/s) = 2.33207 3.49582 2.97148
# Velocity P-wave (km/s) = 4.10208 6.36602 5.35506
#
# Compressibility (1/GPa) = 0.05401949
#
# Stress axis : x y z
#
# Youngs Moduli (GPa) = 71.85184 48.65791 17.96775
#
# Poissons Ratio (x) = 0.22599 0.18836
# Poissons Ratio (y) = 0.33372 0.05255
# Poissons Ratio (z) = 0.75324 0.14231
#
# Static dielectric constant tensor:
#      x y z
#    x 1.793420 -0.000130 0.000480 
#    y -0.000130 1.655310 0.023160 
#    z 0.000480 0.023160 1.711610 
# 
# From -- ./inp_files/109181.got.cif
#   From: 2010.05.17/outbox.cif.g08.bks.cpg/sg2_55_cif.got.tgz:109181.got - 2010.06.03 11:33:40.
