data_PCOD9001081
_publ_section_title
;
Structure prediction by ZEFSAII (Michael W. Deem and Ramdas Pophale) SiO2 
 PCOD9001081
Probable space group: P -1
;
_chemical_formula_sum "Si O2"
_cell_formula_units_Z 16
_cell_length_a 14.074251
_cell_length_b 14.817300
_cell_length_c 10.917595
_cell_angle_alpha 113.373561
_cell_angle_beta 49.075040
_cell_angle_gamma 151.367115
_cell_volume 717.540376
_symmetry_space_group_name_H-M "P -1"
_symmetry_group_IT_number 2
_symmetry_cell_setting 'triclinic'
loop_
_space_group_symop_operation_xyz
x,y,z
-x,-y,-z
loop_
_atom_site_type_symbol
_atom_site_label
_atom_site_fract_x
_atom_site_fract_y
_atom_site_fract_z
Si Si1 0.197612 0.740411 0.787968
Si Si2 0.754397 0.442831 0.391780
Si Si3 0.257137 0.525909 0.133644
Si Si4 0.314445 0.893384 0.276176
Si Si5 0.604489 0.802049 0.218017
Si Si6 0.854525 0.648567 0.204574
Si Si7 0.401864 0.091276 0.097465
Si Si8 0.776841 0.700392 0.065510
O O1 0.139970 0.584931 0.770701
O O2 0.059096 0.669318 0.736749
O O3 0.520585 0.987081 0.671835
O O4 0.029627 0.690102 0.000168
O O5 0.501847 0.238900 0.582359
O O6 0.696620 0.479786 0.353014
O O7 0.989448 0.651191 0.396959
O O8 0.379395 0.657624 0.223743
O O9 0.289231 0.431385 0.045840
O O10 0.436912 0.699804 0.965535
O O11 0.395245 0.049785 0.220017
O O12 0.447044 0.893120 0.092562
O O13 0.656909 0.721868 0.144287
O O14 0.890353 0.053219 0.077198
O O15 0.692957 0.601393 0.217056
O O16 0.088452 0.875850 0.197568
#
# Coordination Sequence:
#
# PCOD9001081 Si02
#       8
#     2   2   2   2   2   2   2   2
#     4  10  21  33  61  93 120 154 193 229 287 361
#     4  11  22  37  60  89 126 152 183 247 300 342
#     4  11  21  37  64  85 111 157 206 234 282 354
#     4   9  19  33  53  88 127 148 183 235 286 347
#     4  11  25  43  58  84 120 155 199 249 298 339
#     4   9  19  37  64  90 113 151 202 238 284 350
#     4   9  16  32  59  88 115 152 190 234 283 346
#     4  10  23  43  66  81 108 159 209 247 285 350
#
# _framework density 22.298397000000001
#
# number of rings (size 3 to 8) (size 9 to 14) (size 15 to 20)
#    0.000    2.000    2.500    1.500    3.500    2.000 
#    0.000    3.125    0.000    1.500    0.000    0.000 
#    0.000    0.000    0.000    0.000    0.000    0.000 
#
# Total GULP energy -89305.274419 kJ/mol
# GULP energy per Si atom -5581.579651 kJ/mol
# Density = 2.224765 g / cm^3
# Si number density = 22.298397 Si / 1000 Ang^3
#
#
#
# Elastic Constant Matrix: (Units=GPa)
#
#
# Indices 1 2 3 4 5 6 
#
# 1 48.7276 6.5361 -10.8830 15.7431 -43.6891 14.4631
# 2 6.5361 65.3504 -31.9685 31.2532 -68.5660 12.8880
# 3 -10.8830 -31.9685 -22.9584 40.0706 -88.4599 21.5516
# 4 15.7431 31.2532 40.0706 -27.9938 82.2985 -19.1944
# 5 -43.6891 -68.5660 -88.4599 82.2985 -202.5844 41.9749
# 6 14.4631 12.8880 21.5516 -19.1944 41.9749 37.7200
#
#
#
# Elastic Compliance Matrix: (Units=1/GPa)
#
#
# Indices 1 2 3 4 5 6 
#
# 1 0.023926 -0.007382 -0.021218 0.029496 0.018552 -0.000164
# 2 -0.007382 0.014089 0.011084 -0.020122 -0.016282 -0.000438
# 3 -0.021218 0.011084 0.103829 -0.097174 -0.085835 -0.008906
# 4 0.029496 -0.020122 -0.097174 0.287456 0.162975 0.016005
# 5 0.018552 -0.016282 -0.085835 0.162975 0.103436 0.015321
# 6 -0.000164 -0.000438 -0.008906 0.016005 0.015321 0.022908
#
#
# Mechanical properties :
#
#
# Convention : Reuss Voigt Hill
#
# Bulk Modulus (GPa) = 9.36207 2.05430 5.70819
# Shear Modulus (GPa) = 7.98367 -30.07597 -11.04615
#
# Velocity S-wave (km/s) = 1.89424 -3.67658 -2.22812
# Velocity P-wave (km/s) = 2.99864 4.13518 2.01344
#
# Compressibility (1/GPa) = 0.10681402
#
# Stress axis : x y z
#
# Youngs Moduli (GPa) = 41.79528 70.97639 9.63123
#
# Poissons Ratio (x) = 0.52391 0.20435
# Poissons Ratio (y) = 0.30851 -0.10676
# Poissons Ratio (z) = 0.88681 -0.78673
#
# Static dielectric constant tensor:
#      x y z
#    x 1.844930 0.019760 0.005820 
#    y 0.019760 1.825290 -0.002160 
#    z 0.005820 -0.002160 1.811860 
# 
# From -- ./inp_files/454837.got.cif
#   From: 2010.05.17/outbox.cif.g08.bks.cpg/sg2_228_cif.got.tgz:454837.got - 2010.06.03 11:33:40.
