data_PCOD9001129
_publ_section_title
;
Structure prediction by ZEFSAII (Michael W. Deem and Ramdas Pophale) SiO2 
 PCOD9001129
Probable space group: P -1
;
_chemical_formula_sum "Si O2"
_cell_formula_units_Z 16
_cell_length_a 8.950861
_cell_length_b 14.769257
_cell_length_c 17.936543
_cell_angle_alpha 159.798701
_cell_angle_beta 90.325385
_cell_angle_gamma 92.960494
_cell_volume 807.574172
_symmetry_space_group_name_H-M "P -1"
_symmetry_group_IT_number 2
_symmetry_cell_setting 'triclinic'
loop_
_space_group_symop_operation_xyz
x,y,z
-x,-y,-z
loop_
_atom_site_type_symbol
_atom_site_label
_atom_site_fract_x
_atom_site_fract_y
_atom_site_fract_z
Si Si1 0.878286 0.963935 0.759196
Si Si2 0.332748 0.414536 0.107434
Si Si3 0.440051 0.043890 0.442146
Si Si4 0.615882 0.183713 0.884479
Si Si5 0.921267 0.710079 0.114846
Si Si6 0.123796 0.162291 0.040585
Si Si7 0.301747 0.224168 0.714239
Si Si8 0.070227 0.601500 0.658117
O O1 0.853989 0.645399 0.504921
O O2 0.726435 0.084150 0.866700
O O3 0.959955 0.100596 0.790402
O O4 0.990195 0.054970 0.898587
O O5 0.438924 0.695031 0.338256
O O6 0.448294 0.214686 0.932256
O O7 0.210306 0.415818 0.041758
O O8 0.250951 0.323109 0.113499
O O9 0.304127 0.053050 0.506591
O O10 0.388755 0.024504 0.343287
O O11 0.536991 0.808019 0.273232
O O12 0.691442 0.472199 0.075939
O O13 0.831853 0.855626 0.289193
O O14 0.000000 0.500000 0.000000
O O15 0.165619 0.895309 0.872061
O O16 0.059572 0.341955 0.241036
O O17 0.000000 0.500000 0.500000
#
# Coordination Sequence:
#
# PCOD9001129 Si02
#       8
#     2   2   2   2   2   2   2   2
#     4  10  22  36  60  87 113 152 189 234 287 332
#     4  10  23  37  59  83 114 153 192 235 284 336
#     4  10  22  34  56  78 109 162 202 227 277 336
#     4  11  21  39  55  78 121 153 190 236 279 331
#     4  11  21  38  56  81 122 154 192 243 277 323
#     4   9  20  40  62  89 113 140 187 238 286 340
#     4  10  21  34  53  77 110 160 197 233 275 321
#     4   9  19  38  65  87 113 144 180 232 294 346
#
# _framework density 19.812418999999998
#
# number of rings (size 3 to 8) (size 9 to 14) (size 15 to 20)
#    0.000    2.000    2.500    0.375    5.250    3.000 
#    0.000    1.875    0.000    7.500    0.000    0.000 
#    0.000    0.000    0.000    0.000    0.000    0.000 
#
# Total GULP energy -89219.726343 kJ/mol
# GULP energy per Si atom -5576.232896 kJ/mol
# Density = 1.976733 g / cm^3
# Si number density = 19.812419 Si / 1000 Ang^3
#
#
#
# Elastic Constant Matrix: (Units=GPa)
#
#
# Indices 1 2 3 4 5 6 
#
# 1 70.7217 39.0449 34.0208 5.8958 -16.6945 3.5784
# 2 39.0449 100.0066 38.0652 3.9603 -16.7351 16.1292
# 3 34.0208 38.0652 84.8759 1.5208 -17.9653 1.8678
# 4 5.8958 3.9603 1.5208 30.3996 4.2161 -17.7404
# 5 -16.6945 -16.7351 -17.9653 4.2161 19.1325 -2.7988
# 6 3.5784 16.1292 1.8678 -17.7404 -2.7988 26.7725
#
#
#
# Elastic Compliance Matrix: (Units=1/GPa)
#
#
# Indices 1 2 3 4 5 6 
#
# 1 0.022295 -0.003931 -0.004135 -0.007865 0.013259 -0.004148
# 2 -0.003931 0.017826 -0.003964 -0.012777 0.008696 -0.017494
# 3 -0.004135 -0.003964 0.017061 0.001260 0.009186 0.003546
# 4 -0.007865 -0.012777 0.001260 0.070093 -0.024616 0.052534
# 5 0.013259 0.008696 0.009186 -0.024616 0.083260 -0.015259
# 6 -0.004148 -0.017494 0.003546 0.052534 -0.015259 0.081414
#
#
# Mechanical properties :
#
#
# Convention : Reuss Voigt Hill
#
# Bulk Modulus (GPa) = 30.19238 53.09624 41.64431
# Shear Modulus (GPa) = 15.28821 24.89247 20.09034
#
# Velocity S-wave (km/s) = 2.78087 3.54843 3.18783
# Velocity P-wave (km/s) = 5.05798 6.60652 5.88342
#
# Compressibility (1/GPa) = 0.03312094
#
# Stress axis : x y z
#
# Youngs Moduli (GPa) = 44.85339 56.09851 58.61415
#
# Poissons Ratio (x) = 0.22055 0.24234
# Poissons Ratio (y) = 0.17634 0.23236
# Poissons Ratio (z) = 0.18545 0.22238
#
# Static dielectric constant tensor:
#      x y z
#    x 1.711010 -0.021790 -0.018570 
#    y -0.021790 1.745860 0.013370 
#    z -0.018570 0.013370 1.722850 
# 
# From -- ./inp_files/48288.got.cif
#   From: 2010.05.17/outbox.cif.g08.bks.cpg/sg2_25_cif.got.tgz:48288.got - 2010.06.03 11:33:40.
