data_PCOD9001913
_publ_section_title
;
Structure prediction by ZEFSAII (Michael W. Deem and Ramdas Pophale) SiO2 
 PCOD9001913
Probable space group: P -1
;
_chemical_formula_sum "Si O2"
_cell_formula_units_Z 16
_cell_length_a 15.022033
_cell_length_b 15.502135
_cell_length_c 11.475836
_cell_angle_alpha 110.015495
_cell_angle_beta 71.627389
_cell_angle_gamma 161.270999
_cell_volume 805.909441
_symmetry_space_group_name_H-M "P -1"
_symmetry_group_IT_number 2
_symmetry_cell_setting 'triclinic'
loop_
_space_group_symop_operation_xyz
x,y,z
-x,-y,-z
loop_
_atom_site_type_symbol
_atom_site_label
_atom_site_fract_x
_atom_site_fract_y
_atom_site_fract_z
Si Si1 0.750436 0.852568 0.132389
Si Si2 0.221780 0.551419 0.543676
Si Si3 0.197613 0.916384 0.075933
Si Si4 0.329269 0.851316 0.623675
Si Si5 0.680383 0.155058 0.114443
Si Si6 0.259839 0.982346 0.623644
Si Si7 0.217202 0.550422 0.806892
Si Si8 0.790942 0.686884 0.024702
O O1 0.496787 0.625553 0.038966
O O2 0.734556 0.919225 0.261786
O O3 0.731273 0.730168 0.129247
O O4 0.045636 0.136913 0.079485
O O5 0.138117 0.583240 0.583980
O O6 0.312427 0.616639 0.667920
O O7 0.987453 0.262647 0.477246
O O8 0.461236 0.764308 0.448750
O O9 0.052052 0.749989 0.178066
O O10 0.523566 0.230627 0.112666
O O11 0.173530 0.808194 0.946443
O O12 0.009226 0.825445 0.066542
O O13 0.459371 0.968642 0.756111
O O14 0.221352 0.856104 0.661973
O O15 0.500000 0.000000 0.500000
O O16 0.860022 0.412759 0.148557
O O17 0.500000 0.000000 0.000000
#
# Coordination Sequence:
#
# PCOD9001913 Si02
#       8
#     2   2   2   2   2   2   2   2
#     4  10  21  37  57  83 112 141 180 233 292 343
#     4  10  21  36  54  79 113 148 185 228 278 332
#     4  11  20  35  58  81 108 147 188 229 279 340
#     4   9  19  34  54  82 115 150 190 233 279 337
#     4   9  19  34  53  82 115 150 189 232 280 337
#     4  11  20  35  57  80 107 147 188 229 278 339
#     4  10  21  36  54  80 113 148 185 228 278 333
#     4  10  21  37  57  83 112 141 179 234 292 343
#
# _framework density 19.853346999999999
#
# number of rings (size 3 to 8) (size 9 to 14) (size 15 to 20)
#    0.000    2.000    0.000    3.750    0.000    2.000 
#    0.000   11.250    0.000    4.500    0.000    0.000 
#    0.000    0.000    0.000    0.000    0.000    0.000 
#
# Total GULP energy -89100.069501 kJ/mol
# GULP energy per Si atom -5568.754344 kJ/mol
# Density = 1.980816 g / cm^3
# Si number density = 19.853347 Si / 1000 Ang^3
#
#
#
# Elastic Constant Matrix: (Units=GPa)
#
#
# Indices 1 2 3 4 5 6 
#
# 1 95.7735 -3.2536 53.4614 17.6037 -12.7802 6.7362
# 2 -3.2536 89.8343 25.3705 9.4653 -13.8655 -2.1210
# 3 53.4614 25.3705 112.3981 8.8382 -17.3234 -12.6054
# 4 17.6037 9.4653 8.8382 31.3168 -8.6748 0.6354
# 5 -12.7802 -13.8655 -17.3234 -8.6748 33.7507 3.9555
# 6 6.7362 -2.1210 -12.6054 0.6354 3.9555 23.6123
#
#
#
# Elastic Compliance Matrix: (Units=1/GPa)
#
#
# Indices 1 2 3 4 5 6 
#
# 1 0.018888 0.004609 -0.010118 -0.008102 0.003020 -0.010664
# 2 0.004609 0.013631 -0.004640 -0.004155 0.004267 -0.003171
# 3 -0.010118 -0.004640 0.016026 0.002903 0.001990 0.010613
# 4 -0.008102 -0.004155 0.002903 0.038696 0.006502 0.001357
# 5 0.003020 0.004267 0.001990 0.006502 0.035875 -0.005600
# 6 -0.010664 -0.003171 0.010613 0.001357 -0.005600 0.051676
#
#
# Mechanical properties :
#
#
# Convention : Reuss Voigt Hill
#
# Bulk Modulus (GPa) = 35.40229 49.90692 42.65461
# Shear Modulus (GPa) = 24.44951 32.56447 28.50699
#
# Velocity S-wave (km/s) = 3.51309 4.05439 3.79341
# Velocity P-wave (km/s) = 5.85887 6.86366 6.38107
#
# Compressibility (1/GPa) = 0.02824676
#
# Stress axis : x y z
#
# Youngs Moduli (GPa) = 52.94400 73.36439 62.40041
#
# Poissons Ratio (x) = -0.33817 0.63135
# Poissons Ratio (y) = -0.24404 0.28956
# Poissons Ratio (z) = 0.53567 0.34044
#
# Static dielectric constant tensor:
#      x y z
#    x 1.755120 0.010290 -0.000400 
#    y 0.010290 1.700060 0.018020 
#    z -0.000400 0.018020 1.723070 
# 
# From -- ./inp_files/367845.got.cif
#   From: 2010.05.17/outbox.cif.g08.bks.cpg/sg2_184_cif.got.tgz:367845.got - 2010.06.03 11:33:40.
