data_PCOD9001865
_publ_section_title
;
Structure prediction by ZEFSAII (Michael W. Deem and Ramdas Pophale) SiO2 
 PCOD9001865
Probable space group: P -1
;
_chemical_formula_sum "Si O2"
_cell_formula_units_Z 16
_cell_length_a 13.809139
_cell_length_b 7.313604
_cell_length_c 8.891801
_cell_angle_alpha 125.636358
_cell_angle_beta 64.003872
_cell_angle_gamma 127.040878
_cell_volume 577.268352
_symmetry_space_group_name_H-M "P -1"
_symmetry_group_IT_number 2
_symmetry_cell_setting 'triclinic'
loop_
_space_group_symop_operation_xyz
x,y,z
-x,-y,-z
loop_
_atom_site_type_symbol
_atom_site_label
_atom_site_fract_x
_atom_site_fract_y
_atom_site_fract_z
Si Si1 0.742936 0.003406 0.508376
Si Si2 0.076283 0.633857 0.191868
Si Si3 0.245881 0.928880 0.959372
Si Si4 0.437237 0.834034 0.312176
Si Si5 0.889551 0.501335 0.482462
Si Si6 0.805013 0.659405 0.881377
Si Si7 0.550423 0.595349 0.766700
Si Si8 0.344447 0.538831 0.667708
O O1 0.749148 0.746935 0.349926
O O2 0.833122 0.140810 0.649751
O O3 0.606834 0.959356 0.619496
O O4 0.780832 0.217462 0.453736
O O5 0.125315 0.744835 0.049349
O O6 0.110342 0.408319 0.101592
O O7 0.942608 0.569735 0.313413
O O8 0.207891 0.093985 0.955219
O O9 0.351809 0.147661 0.095884
O O10 0.306007 0.757418 0.780747
O O11 0.323062 0.597352 0.182246
O O12 0.501644 0.651560 0.206940
O O13 0.500000 0.000000 0.500000
O O14 0.859126 0.694013 0.688972
O O15 0.000000 0.500000 0.500000
O O16 0.442002 0.622038 0.775465
O O17 0.618616 0.523353 0.551146
#
# Coordination Sequence:
#
# PCOD9001865 Si02
#       8
#     2   2   2   2   2   2   2   2
#     4   9  16  32  54  79 102 134 184 214 258 327
#     4   9  17  35  59  75 106 144 173 223 274 303
#     4  11  21  35  53  82 109 139 180 218 266 319
#     4   9  15  29  53  75 100 136 176 216 260 306
#     4   7  14  30  57  79  98 142 177 215 270 311
#     4   8  18  31  51  82 108 135 181 220 253 327
#     4  10  21  36  52  74 110 145 172 221 265 313
#     4  11  21  33  54  77 107 143 176 217 265 319
#
# _framework density 27.716742
#
# number of rings (size 3 to 8) (size 9 to 14) (size 15 to 20)
#    0.000    3.250    2.500    0.375    0.000    0.500 
#    2.250    0.625    0.000   11.250    0.000    0.000 
#    0.000    0.000    0.000    0.000    0.000    0.000 
#
# Total GULP energy -89113.348264 kJ/mol
# GULP energy per Si atom -5569.584266 kJ/mol
# Density = 2.765366 g / cm^3
# Si number density = 27.716742 Si / 1000 Ang^3
#
#
#
# Elastic Constant Matrix: (Units=GPa)
#
#
# Indices 1 2 3 4 5 6 
#
# 1 76.8589 12.5952 22.0857 15.7645 -10.1153 -13.5313
# 2 12.5952 96.0024 58.0286 14.3911 -14.4379 -18.5680
# 3 22.0857 58.0286 154.9824 16.9421 -28.5263 -20.2105
# 4 15.7645 14.3911 16.9421 38.0520 -21.1497 -16.5268
# 5 -10.1153 -14.4379 -28.5263 -21.1497 39.1897 14.5714
# 6 -13.5313 -18.5680 -20.2105 -16.5268 14.5714 22.4263
#
#
#
# Elastic Compliance Matrix: (Units=1/GPa)
#
#
# Indices 1 2 3 4 5 6 
#
# 1 0.015031 0.000400 -0.001297 -0.003797 -0.001301 0.006278
# 2 0.000400 0.014730 -0.004629 -0.000710 -0.001453 0.008685
# 3 -0.001297 -0.004629 0.009341 0.001691 0.005003 0.001798
# 4 -0.003797 -0.000710 0.001691 0.046154 0.016817 0.021730
# 5 -0.001301 -0.001453 0.005003 0.016817 0.041954 -0.012345
# 6 0.006278 0.008685 0.001798 0.021730 -0.012345 0.081225
#
#
# Mechanical properties :
#
#
# Convention : Reuss Voigt Hill
#
# Bulk Modulus (GPa) = 35.65222 57.02918 46.34070
# Shear Modulus (GPa) = 21.84960 35.60922 28.72941
#
# Velocity S-wave (km/s) = 2.81075 3.58824 3.22302
# Velocity P-wave (km/s) = 4.83991 6.14716 5.53228
#
# Compressibility (1/GPa) = 0.02804875
#
# Stress axis : x y z
#
# Youngs Moduli (GPa) = 66.52895 67.88864 107.05490
#
# Poissons Ratio (x) = -0.02716 0.13889
# Poissons Ratio (y) = -0.02661 0.49559
# Poissons Ratio (z) = 0.08632 0.31428
#
# Static dielectric constant tensor:
#      x y z
#    x 2.171630 0.091530 -0.020080 
#    y 0.091530 2.439400 -0.173990 
#    z -0.020080 -0.173990 2.221800 
# 
# From -- ./inp_files/460868.got.cif
#   From: 2010.05.17/outbox.cif.g08.bks.cpg/sg2_231_cif.got.tgz:460868.got - 2010.06.03 11:33:40.
