data_PCOD9001417
_publ_section_title
;
Structure prediction by ZEFSAII (Michael W. Deem and Ramdas Pophale) SiO2 
 PCOD9001417
Probable space group: P -1
;
_chemical_formula_sum "Si O2"
_cell_formula_units_Z 16
_cell_length_a 9.692419
_cell_length_b 25.034562
_cell_length_c 9.209880
_cell_angle_alpha 132.709348
_cell_angle_beta 30.977400
_cell_angle_gamma 133.511599
_cell_volume 810.677845
_symmetry_space_group_name_H-M "P -1"
_symmetry_group_IT_number 2
_symmetry_cell_setting 'triclinic'
loop_
_space_group_symop_operation_xyz
x,y,z
-x,-y,-z
loop_
_atom_site_type_symbol
_atom_site_label
_atom_site_fract_x
_atom_site_fract_y
_atom_site_fract_z
Si Si1 0.464553 0.874191 0.610001
Si Si2 0.960199 0.291428 0.856001
Si Si3 0.146645 0.077984 0.095702
Si Si4 0.400791 0.591807 0.242846
Si Si5 0.059493 0.974980 0.240959
Si Si6 0.078830 0.445538 0.163047
Si Si7 0.518174 0.749086 0.545231
Si Si8 0.723177 0.176474 0.620811
O O1 0.746900 0.929483 0.389088
O O2 0.555343 0.825561 0.563705
O O3 0.308645 0.822387 0.521987
O O4 0.264031 0.921657 0.942202
O O5 0.838503 0.255066 0.746658
O O6 0.220896 0.262606 0.621250
O O7 0.730120 0.262750 0.136794
O O8 0.038259 0.383034 0.959053
O O9 0.933891 0.127685 0.376468
O O10 0.430735 0.128901 0.865582
O O11 0.188961 0.048623 0.162947
O O12 0.000000 0.000000 0.000000
O O13 0.230315 0.534615 0.169000
O O14 0.440780 0.680903 0.370535
O O15 0.212026 0.565340 0.510152
O O16 0.703187 0.579016 0.970601
O O17 0.000000 0.000000 0.500000
#
# Coordination Sequence:
#
# PCOD9001417 Si02
#       8
#     2   2   2   2   2   2   2   2
#     4  12  24  42  56  82 114 144 177 225 282 333
#     4  10  21  35  55  85 108 144 183 226 265 317
#     4  12  23  43  61  78 104 143 188 224 268 336
#     4   8  14  27  48  75 105 143 170 217 265 307
#     4  12  27  41  60  83 105 139 183 235 277 320
#     4   8  14  27  48  75 108 134 179 218 257 307
#     4  10  21  35  55  82 114 141 182 224 272 319
#     4  12  24  39  61  80 110 147 181 224 276 328
#
# _framework density 19.736568999999999
#
# number of rings (size 3 to 8) (size 9 to 14) (size 15 to 20)
#    0.000    1.500    2.500    3.000    5.250    0.000 
#    0.000    0.000    0.000    0.750    0.000    0.000 
#    0.000   24.000    0.000    0.000    0.000    3.500 
#
# Total GULP energy -89275.523426 kJ/mol
# GULP energy per Si atom -5579.720214 kJ/mol
# Density = 1.969165 g / cm^3
# Si number density = 19.736569 Si / 1000 Ang^3
#
#
#
# Elastic Constant Matrix: (Units=GPa)
#
#
# Indices 1 2 3 4 5 6 
#
# 1 58.5649 30.0148 7.6883 12.2268 6.5138 18.5721
# 2 30.0148 48.9896 19.8590 10.5442 5.6027 30.9725
# 3 7.6883 19.8590 109.7666 -1.7944 -24.4247 5.0371
# 4 12.2268 10.5442 -1.7944 27.7044 8.0028 7.7669
# 5 6.5138 5.6027 -24.4247 8.0028 22.9701 2.3378
# 6 18.5721 30.9725 5.0371 7.7669 2.3378 34.0192
#
#
#
# Elastic Compliance Matrix: (Units=1/GPa)
#
#
# Indices 1 2 3 4 5 6 
#
# 1 0.025844 -0.015663 0.000633 -0.005483 -0.001065 0.001382
# 2 -0.015663 0.072829 -0.014878 0.000214 -0.023724 -0.053971
# 3 0.000633 -0.014878 0.015681 -0.002140 0.019850 0.010002
# 4 -0.005483 0.000214 -0.002140 0.044493 -0.015667 -0.005966
# 5 -0.001065 -0.023724 0.019850 -0.015667 0.074387 0.017707
# 6 0.001382 -0.053971 0.010002 -0.005966 0.017707 0.076443
#
#
# Mechanical properties :
#
#
# Convention : Reuss Voigt Hill
#
# Bulk Modulus (GPa) = 18.33538 36.93837 27.63687
# Shear Modulus (GPa) = 12.89753 27.58935 20.24344
#
# Velocity S-wave (km/s) = 2.55911 3.74288 3.20610
# Velocity P-wave (km/s) = 4.24762 6.11843 5.26676
#
# Compressibility (1/GPa) = 0.05453938
#
# Stress axis : x y z
#
# Youngs Moduli (GPa) = 38.69366 13.73079 63.77296
#
# Poissons Ratio (x) = 0.21506 -0.04039
# Poissons Ratio (y) = 0.60604 0.94881
# Poissons Ratio (z) = -0.02451 0.20429
#
# Static dielectric constant tensor:
#      x y z
#    x 1.724600 0.063420 0.015200 
#    y 0.063420 1.779330 0.026380 
#    z 0.015200 0.026380 1.676680 
# 
# From -- ./inp_files/42261.got.cif
#   From: 2010.05.17/outbox.cif.g08.bks.cpg/sg2_22_cif.got.tgz:42261.got - 2010.06.03 11:33:40.
