data_PCOD9001774
_publ_section_title
;
Structure prediction by ZEFSAII (Michael W. Deem and Ramdas Pophale) SiO2 
 PCOD9001774
Probable space group: P -1
;
_chemical_formula_sum "Si O2"
_cell_formula_units_Z 14
_cell_length_a 5.338999
_cell_length_b 22.435108
_cell_length_c 11.331943
_cell_angle_alpha 150.038721
_cell_angle_beta 73.926131
_cell_angle_gamma 117.965394
_cell_volume 572.385677
_symmetry_space_group_name_H-M "P -1"
_symmetry_group_IT_number 2
_symmetry_cell_setting 'triclinic'
loop_
_space_group_symop_operation_xyz
x,y,z
-x,-y,-z
loop_
_atom_site_type_symbol
_atom_site_label
_atom_site_fract_x
_atom_site_fract_y
_atom_site_fract_z
Si Si1 0.534000 0.671056 0.279475
Si Si2 0.168006 0.929415 0.296877
Si Si3 0.195622 0.268727 0.187235
Si Si4 0.641883 0.164047 0.532607
Si Si5 0.111677 0.444385 0.071852
Si Si6 0.127593 0.654454 0.824940
Si Si7 0.966689 0.848328 0.733513
O O1 0.613466 0.799453 0.406431
O O2 0.595037 0.572672 0.015346
O O3 0.717199 0.743160 0.496199
O O4 0.201012 0.579771 0.217067
O O5 0.154690 0.793522 0.116244
O O6 0.509044 0.036173 0.414013
O O7 0.000000 0.000000 0.500000
O O8 0.997533 0.873383 0.099026
O O9 0.101953 0.231108 0.269993
O O10 0.546027 0.320474 0.210024
O O11 0.082601 0.361979 0.289138
O O12 0.875554 0.305591 0.802655
O O13 0.742850 0.130460 0.338491
O O14 0.025100 0.448887 0.224859
O O15 0.000000 0.000000 0.000000
#
# Coordination Sequence:
#
# PCOD9001774 Si02
#       7
#     2   2   2   2   2   2   2
#     4  10  23  40  66  96 127 173 220 274 328 392
#     4  10  21  35  62  96 132 163 217 266 338 385
#     4  10  24  41  61  95 130 172 217 267 324 393
#     4  11  22  38  67  96 127 173 215 279 329 389
#     4  10  22  42  64  95 131 168 223 273 331 390
#     4  10  23  41  64  92 133 174 212 274 327 392
#     4  11  24  41  65  93 135 172 222 270 330 392
#
# _framework density 24.459032000000001
#
# number of rings (size 3 to 8) (size 9 to 14) (size 15 to 20)
#    0.857    0.857    0.000    3.857    4.000    5.714 
#    0.000    1.429    0.000    0.000    0.000    0.000 
#    0.000    0.000    0.000    0.000    0.000    0.000 
#
# Total GULP energy -78022.358037 kJ/mol
# GULP energy per Si atom -5573.025574 kJ/mol
# Density = 2.440336 g / cm^3
# Si number density = 24.459032 Si / 1000 Ang^3
#
#
#
# Elastic Constant Matrix: (Units=GPa)
#
#
# Indices 1 2 3 4 5 6 
#
# 1 74.8025 30.5205 13.6591 -11.3451 3.1417 7.2976
# 2 30.5205 150.7731 25.6178 -10.5406 -2.9466 5.7483
# 3 13.6591 25.6178 118.0773 -7.7414 -3.7367 5.8025
# 4 -11.3451 -10.5406 -7.7414 36.9031 7.4903 4.7374
# 5 3.1417 -2.9466 -3.7367 7.4903 19.9568 -8.6229
# 6 7.2976 5.7483 5.8025 4.7374 -8.6229 35.8291
#
#
#
# Elastic Compliance Matrix: (Units=1/GPa)
#
#
# Indices 1 2 3 4 5 6 
#
# 1 0.016477 -0.002679 -0.000882 0.006447 -0.007975 -0.005555
# 2 -0.002679 0.007477 -0.001206 0.000954 0.000769 -0.000400
# 3 -0.000882 -0.001206 0.008991 0.001267 0.000701 -0.001082
# 4 0.006447 0.000954 0.001267 0.034693 -0.018261 -0.010653
# 5 -0.007975 0.000769 0.000701 -0.018261 0.067081 0.019946
# 6 -0.005555 -0.000400 -0.001082 -0.010653 0.019946 0.035490
#
#
# Mechanical properties :
#
#
# Convention : Reuss Voigt Hill
#
# Bulk Modulus (GPa) = 42.71211 53.69419 48.20315
# Shear Modulus (GPa) = 26.66028 36.79482 31.72755
#
# Velocity S-wave (km/s) = 3.30509 3.88280 3.60553
# Velocity P-wave (km/s) = 5.66264 6.48859 6.08964
#
# Compressibility (1/GPa) = 0.02341256
#
# Stress axis : x y z
#
# Youngs Moduli (GPa) = 60.68950 133.75041 111.22198
#
# Poissons Ratio (x) = 0.35832 0.09805
# Poissons Ratio (y) = 0.16259 0.13410
# Poissons Ratio (z) = 0.05350 0.16126
#
# Static dielectric constant tensor:
#      x y z
#    x 2.123790 -0.001730 -0.062130 
#    y -0.001730 1.922810 0.040270 
#    z -0.062130 0.040270 1.998940 
# 
# From -- ./inp_files/371104.got.cif
#   From: 2010.05.17/outbox.cif.g08.bks.cpg/sg2_186_cif.got.tgz:371104.got - 2010.06.03 11:33:40.
