data_PCOD9001679
_publ_section_title
;
Structure prediction by ZEFSAII (Michael W. Deem and Ramdas Pophale) SiO2 
 PCOD9001679
Probable space group: P -1
;
_chemical_formula_sum "Si O2"
_cell_formula_units_Z 12
_cell_length_a 20.322330
_cell_length_b 7.422119
_cell_length_c 9.449207
_cell_angle_alpha 48.150113
_cell_angle_beta 28.883307
_cell_angle_gamma 44.087824
_cell_volume 475.878129
_symmetry_space_group_name_H-M "P -1"
_symmetry_group_IT_number 2
_symmetry_cell_setting 'triclinic'
loop_
_space_group_symop_operation_xyz
x,y,z
-x,-y,-z
loop_
_atom_site_type_symbol
_atom_site_label
_atom_site_fract_x
_atom_site_fract_y
_atom_site_fract_z
Si Si1 0.203871 0.869063 0.948566
Si Si2 0.622858 0.544718 0.344517
Si Si3 0.381973 0.810652 0.202975
Si Si4 0.006662 0.680466 0.761436
Si Si5 0.706989 0.752875 0.629435
Si Si6 0.716714 0.984601 0.000408
O O1 0.233218 0.611222 0.939941
O O2 0.249543 0.060137 0.658456
O O3 0.306964 0.839595 0.907396
O O4 0.040291 0.031688 0.229728
O O5 0.500000 0.500000 0.500000
O O6 0.607528 0.836889 0.249531
O O7 0.635871 0.396336 0.545844
O O8 0.327188 0.087893 0.242846
O O9 0.290312 0.850463 0.212301
O O10 0.553890 0.731175 0.887301
O O11 0.156257 0.519749 0.484975
O O12 0.000000 0.500000 0.000000
O O13 0.868436 0.749330 0.880062
#
# Coordination Sequence:
#
# PCOD9001679 Si02
#       6
#     2   2   2   2   2   2
#     4   8  19  37  60  87 120 159 202 246 300 355
#     4  11  22  39  63  94 125 159 203 248 309 370
#     4  10  21  35  60  99 120 154 207 255 298 361
#     4   8  17  37  64  85 115 173 198 241 316 353
#     4   9  16  35  60  84 126 162 192 249 313 351
#     4  10  21  40  66  90 118 165 203 252 305 353
#
# _framework density 25.216542
#
# number of rings (size 3 to 8) (size 9 to 14) (size 15 to 20)
#    1.000    1.667    0.000    3.000    0.000    3.333 
#    0.000   14.167    0.000    7.000    0.000    0.000 
#    0.000    0.000    0.000    0.000    0.000    0.000 
#
# Total GULP energy -67075.312885 kJ/mol
# GULP energy per Si atom -5589.609407 kJ/mol
# Density = 2.515915 g / cm^3
# Si number density = 25.216542 Si / 1000 Ang^3
#
#
#
# Elastic Constant Matrix: (Units=GPa)
#
#
# Indices 1 2 3 4 5 6 
#
# 1 135.8865 38.7547 41.0472 -3.5391 30.8906 -22.0053
# 2 38.7547 96.7797 37.2986 10.2116 14.0370 -8.9363
# 3 41.0472 37.2986 88.9898 26.7299 1.0303 -2.4216
# 4 -3.5391 10.2116 26.7299 55.1651 -6.8301 -1.3367
# 5 30.8906 14.0370 1.0303 -6.8301 29.5954 -4.7240
# 6 -22.0053 -8.9363 -2.4216 -1.3367 -4.7240 42.9181
#
#
#
# Elastic Compliance Matrix: (Units=1/GPa)
#
#
# Indices 1 2 3 4 5 6 
#
# 1 0.012946 -0.001011 -0.006084 0.002671 -0.011421 0.004910
# 2 -0.001011 0.013591 -0.004884 -0.000820 -0.005180 0.001440
# 3 -0.006084 -0.004884 0.018255 -0.007676 0.005828 -0.002704
# 4 0.002671 -0.000820 -0.007676 0.022634 0.003386 0.001843
# 5 -0.011421 -0.005180 0.005828 0.003386 0.048561 -0.001155
# 6 0.004910 0.001440 -0.002704 0.001843 -0.001155 0.025895
#
#
# Mechanical properties :
#
#
# Convention : Reuss Voigt Hill
#
# Bulk Modulus (GPa) = 48.00062 61.76190 54.88126
# Shear Modulus (GPa) = 28.93738 39.17275 34.05507
#
# Velocity S-wave (km/s) = 3.39123 3.94566 3.67891
# Velocity P-wave (km/s) = 5.86606 6.73079 6.31325
#
# Compressibility (1/GPa) = 0.02083306
#
# Stress axis : x y z
#
# Youngs Moduli (GPa) = 77.24138 73.57817 54.77887
#
# Poissons Ratio (x) = 0.07441 0.33328
# Poissons Ratio (y) = 0.07812 0.26756
# Poissons Ratio (z) = 0.46994 0.35938
#
# Static dielectric constant tensor:
#      x y z
#    x 1.945670 -0.021600 -0.016790 
#    y -0.021600 2.013640 0.015280 
#    z -0.016790 0.015280 2.060560 
# 
# From -- ./inp_files/291295.got.cif
#   From: 2010.05.17/outbox.cif.g08.bks.cpg/sg2_146_cif.got.tgz:291295.got - 2010.06.03 11:33:40.
