data_PCOD9001414
_publ_section_title
;
Structure prediction by ZEFSAII (Michael W. Deem and Ramdas Pophale) SiO2 
 PCOD9001414
Probable space group: P -1
;
_chemical_formula_sum "Si O2"
_cell_formula_units_Z 16
_cell_length_a 7.288366
_cell_length_b 15.652295
_cell_length_c 19.928769
_cell_angle_alpha 21.219918
_cell_angle_beta 127.652570
_cell_angle_gamma 117.709951
_cell_volume 606.672155
_symmetry_space_group_name_H-M "P -1"
_symmetry_group_IT_number 2
_symmetry_cell_setting 'triclinic'
loop_
_space_group_symop_operation_xyz
x,y,z
-x,-y,-z
loop_
_atom_site_type_symbol
_atom_site_label
_atom_site_fract_x
_atom_site_fract_y
_atom_site_fract_z
Si Si1 0.226195 0.432508 0.450057
Si Si2 0.568091 0.648234 0.813982
Si Si3 0.024919 0.745753 0.059400
Si Si4 0.258250 0.898167 0.673568
Si Si5 0.940066 0.751876 0.260023
Si Si6 0.939703 0.163610 0.519308
Si Si7 0.142563 0.652000 0.010612
Si Si8 0.426924 0.125742 0.031652
O O1 0.245983 0.556598 0.292678
O O2 0.984567 0.347772 0.449257
O O3 0.159441 0.661432 0.319753
O O4 0.424784 0.173204 0.708422
O O5 0.479657 0.859575 0.698314
O O6 0.307260 0.709972 0.671169
O O7 0.670162 0.379273 0.073000
O O8 0.764879 0.593757 0.836587
O O9 0.024510 0.628899 0.072038
O O10 0.775073 0.799481 0.007646
O O11 0.057898 0.014330 0.866654
O O12 0.185379 0.086437 0.582604
O O13 0.000000 0.000000 0.500000
O O14 0.000000 0.500000 0.500000
O O15 0.698011 0.828713 0.102808
O O16 0.959489 0.898723 0.750349
O O17 0.382323 0.727737 0.024452
#
# Coordination Sequence:
#
# PCOD9001414 Si02
#       8
#     2   2   2   2   2   2   2   2
#     4  10  21  37  57  80 109 147 186 229 283 336
#     4   9  15  28  51  78 112 146 178 226 274 318
#     4  11  24  38  55  83 112 144 190 234 276 335
#     4   8  15  26  47  82 113 142 182 223 270 328
#     4  11  23  38  57  83 111 143 190 236 278 337
#     4   9  17  32  53  81 110 140 187 229 270 333
#     4  10  21  35  55  82 109 146 189 225 274 333
#     4  10  22  40  58  80 112 148 185 234 285 326
#
# _framework density 26.373386
#
# number of rings (size 3 to 8) (size 9 to 14) (size 15 to 20)
#    0.000    2.250    0.000    4.500    0.000    6.000 
#    0.000    0.000    0.000    0.750    0.000   86.625 
#    0.000    0.000    0.000    0.000    0.000    0.000 
#
# Total GULP energy -89481.229705 kJ/mol
# GULP energy per Si atom -5592.576857 kJ/mol
# Density = 2.631336 g / cm^3
# Si number density = 26.373386 Si / 1000 Ang^3
#
#
#
# Elastic Constant Matrix: (Units=GPa)
#
#
# Indices 1 2 3 4 5 6 
#
# 1 85.1406 48.4060 32.5953 10.5672 14.8312 -7.3488
# 2 48.4060 84.2807 23.0696 8.0353 8.8224 -35.4120
# 3 32.5953 23.0696 190.3820 24.9174 -3.3233 -9.2119
# 4 10.5672 8.0353 24.9174 44.8986 -4.5496 13.4719
# 5 14.8312 8.8224 -3.3233 -4.5496 34.4012 1.4284
# 6 -7.3488 -35.4120 -9.2119 13.4719 1.4284 49.6074
#
#
#
# Elastic Compliance Matrix: (Units=1/GPa)
#
#
# Indices 1 2 3 4 5 6 
#
# 1 0.020717 -0.013772 -0.002389 0.000543 -0.005260 -0.007201
# 2 -0.013772 0.030393 0.001005 -0.009964 -0.004019 0.022664
# 3 -0.002389 0.001005 0.006159 -0.003705 0.000774 0.002491
# 4 0.000543 -0.009964 -0.003705 0.031629 0.006832 -0.016506
# 5 -0.005260 -0.004019 0.000774 0.006832 0.033608 -0.006327
# 6 -0.007201 0.022664 0.002491 -0.016506 -0.006327 0.040397
#
#
# Mechanical properties :
#
#
# Convention : Reuss Voigt Hill
#
# Bulk Modulus (GPa) = 37.09557 63.10502 50.10029
# Shear Modulus (GPa) = 24.72807 42.83028 33.77918
#
# Velocity S-wave (km/s) = 3.06537 4.03426 3.58272
# Velocity P-wave (km/s) = 5.15992 6.75868 6.01267
#
# Compressibility (1/GPa) = 0.02695740
#
# Stress axis : x y z
#
# Youngs Moduli (GPa) = 48.26926 32.90269 162.37009
#
# Poissons Ratio (x) = 0.45312 0.38798
# Poissons Ratio (y) = 0.66474 -0.16326
# Poissons Ratio (z) = 0.11534 -0.03308
#
# Static dielectric constant tensor:
#      x y z
#    x 2.137870 -0.045720 0.020780 
#    y -0.045720 2.059580 0.029510 
#    z 0.020780 0.029510 2.062630 
# 
# From -- ./inp_files/561346.got.cif
#   From: 2010.05.17/outbox.cif.g08.bks.cpg/sg2_281_cif.got.tgz:561346.got - 2010.06.03 11:33:40.
