data_PCOD9001667
_publ_section_title
;
Structure prediction by ZEFSAII (Michael W. Deem and Ramdas Pophale) SiO2 
 PCOD9001667
Probable space group: P -1
;
_chemical_formula_sum "Si O2"
_cell_formula_units_Z 14
_cell_length_a 8.116075
_cell_length_b 5.176275
_cell_length_c 14.181089
_cell_angle_alpha 103.017202
_cell_angle_beta 82.846384
_cell_angle_gamma 98.487324
_cell_volume 571.514048
_symmetry_space_group_name_H-M "P -1"
_symmetry_group_IT_number 2
_symmetry_cell_setting 'triclinic'
loop_
_space_group_symop_operation_xyz
x,y,z
-x,-y,-z
loop_
_atom_site_type_symbol
_atom_site_label
_atom_site_fract_x
_atom_site_fract_y
_atom_site_fract_z
Si Si1 0.738021 0.947080 0.433040
Si Si2 0.219131 0.426294 0.049480
Si Si3 0.004580 0.757632 0.699012
Si Si4 0.950382 0.835100 0.119616
Si Si5 0.295040 0.463741 0.738213
Si Si6 0.471672 0.743402 0.911747
Si Si7 0.805271 0.518552 0.542403
O O1 0.627048 0.748969 0.351963
O O2 0.753063 0.766147 0.508474
O O3 0.913332 0.025441 0.367311
O O4 0.701878 0.238338 0.495336
O O5 0.085285 0.626066 0.097042
O O6 0.350261 0.367092 0.113115
O O7 0.338105 0.565403 0.970677
O O8 0.129850 0.169215 0.978727
O O9 0.155373 0.582948 0.694593
O O10 0.836814 0.596099 0.655722
O O11 0.977229 0.893066 0.812545
O O12 0.801430 0.719579 0.190220
O O13 0.399246 0.708990 0.807716
O O14 0.500000 0.000000 0.000000
O O15 0.000000 0.500000 0.500000
#
# Coordination Sequence:
#
# PCOD9001667 Si02
#       7
#     2   2   2   2   2   2   2
#     4  10  18  30  46  75 112 145 173 216 271 319
#     4   9  19  37  50  74 104 141 178 220 266 321
#     4  10  18  27  47  75 111 134 177 215 272 316
#     4   9  19  32  52  73 108 139 177 221 270 318
#     4  10  19  30  49  81 106 142 175 224 265 321
#     4  10  20  34  55  73 103 140 180 220 266 319
#     4  10  17  27  47  71 113 142 174 215 272 317
#
# _framework density 24.496335999999999
#
# number of rings (size 3 to 8) (size 9 to 14) (size 15 to 20)
#    0.000    2.286    2.857    2.571    2.000    2.286 
#    0.000    4.286    0.000    0.000    0.000    2.000 
#    0.000    5.857    0.000    0.143    0.000    0.000 
#
# Total GULP energy -78032.642931 kJ/mol
# GULP energy per Si atom -5573.760209 kJ/mol
# Density = 2.444058 g / cm^3
# Si number density = 24.496336 Si / 1000 Ang^3
#
#
#
# Elastic Constant Matrix: (Units=GPa)
#
#
# Indices 1 2 3 4 5 6 
#
# 1 -15.7202 2.2341 41.8668 8.6210 9.2714 11.9102
# 2 2.2341 102.5756 40.5364 22.2075 21.6439 9.2438
# 3 41.8668 40.5364 145.3509 42.7381 32.2984 9.4121
# 4 8.6210 22.2075 42.7381 40.5501 5.4623 10.3988
# 5 9.2714 21.6439 32.2984 5.4623 40.1542 1.1304
# 6 11.9102 9.2438 9.4121 10.3988 1.1304 20.4932
#
#
#
# Elastic Compliance Matrix: (Units=1/GPa)
#
#
# Indices 1 2 3 4 5 6 
#
# 1 -0.028274 -0.003507 0.009846 -0.006922 0.000964 0.016952
# 2 -0.003507 0.011981 0.000489 -0.005488 -0.005281 -0.000514
# 3 0.009846 0.000489 0.008761 -0.009256 -0.008189 -0.004818
# 4 -0.006922 -0.005488 -0.009256 0.040605 0.006766 -0.010228
# 5 0.000964 -0.005281 -0.008189 0.006766 0.033185 0.000319
# 6 0.016952 -0.000514 -0.004818 -0.010228 0.000319 0.046562
#
#
# Mechanical properties :
#
#
# Convention : Reuss Voigt Hill
#
# Bulk Modulus (GPa) = 163.32511 44.60899 103.96705
# Shear Modulus (GPa) = 49.40451 30.07743 39.74097
#
# Velocity S-wave (km/s) = 4.49577 3.50785 4.03218
# Velocity P-wave (km/s) = 9.68335 5.88699 8.01324
#
# Compressibility (1/GPa) = 0.00612276
#
# Stress axis : x y z
#
# Youngs Moduli (GPa) = -35.36817 83.46786 114.14523
#
# Poissons Ratio (x) = 0.29276 -1.12383
# Poissons Ratio (y) = -0.12405 -0.05587
# Poissons Ratio (z) = 0.34822 -0.04086
#
# Static dielectric constant tensor:
#      x y z
#    x 1.954390 0.049660 0.057220 
#    y 0.049660 2.028490 0.109260 
#    z 0.057220 0.109260 2.105670 
# 
# From -- ./inp_files/83115.got.cif
#   From: 2010.05.17/outbox.cif.g08.bks.cpg/sg2_42_cif.got.tgz:83115.got - 2010.06.03 11:33:40.
