data_PCOD9001405
_publ_section_title
;
Structure prediction by ZEFSAII (Michael W. Deem and Ramdas Pophale) SiO2 
 PCOD9001405
Probable space group: P -1
;
_chemical_formula_sum "Si O2"
_cell_formula_units_Z 16
_cell_length_a 11.612245
_cell_length_b 11.504001
_cell_length_c 11.643810
_cell_angle_alpha 89.163901
_cell_angle_beta 32.594291
_cell_angle_gamma 88.701284
_cell_volume 837.663933
_symmetry_space_group_name_H-M "P -1"
_symmetry_group_IT_number 2
_symmetry_cell_setting 'triclinic'
loop_
_space_group_symop_operation_xyz
x,y,z
-x,-y,-z
loop_
_atom_site_type_symbol
_atom_site_label
_atom_site_fract_x
_atom_site_fract_y
_atom_site_fract_z
Si Si1 0.385750 0.355287 0.030848
Si Si2 0.408190 0.153204 0.474726
Si Si3 0.164922 0.936969 0.776526
Si Si4 0.163197 0.580341 0.290405
Si Si5 0.300534 0.534303 0.514021
Si Si6 0.733029 0.634681 0.249164
Si Si7 0.959203 0.719668 0.842017
Si Si8 0.739395 0.684959 0.602361
O O1 0.284059 0.487084 0.107563
O O2 0.260203 0.280210 0.045355
O O3 0.331172 0.311612 0.206046
O O4 0.641186 0.362610 0.807301
O O5 0.655787 0.129041 0.295955
O O6 0.324908 0.246688 0.637238
O O7 0.359918 0.212201 0.392128
O O8 0.285200 0.034111 0.600228
O O9 0.051693 0.844527 0.791292
O O10 0.000000 0.000000 0.000000
O O11 0.000000 0.500000 0.500000
O O12 0.998803 0.675083 0.374757
O O13 0.523608 0.589358 0.360679
O O14 0.216493 0.459998 0.694395
O O15 0.332403 0.437264 0.391245
O O16 0.129478 0.636964 0.634122
O O17 0.910904 0.661153 0.006267
#
# Coordination Sequence:
#
# PCOD9001405 Si02
#       8
#     2   2   2   2   2   2   2   2
#     4  10  22  35  55  91 121 161 195 227 289 356
#     4  10  22  42  63  86 114 152 203 247 300 348
#     4  11  23  42  62  87 112 153 203 250 302 341
#     4   9  19  36  53  83 122 159 191 222 280 348
#     4  10  21  35  54  88 127 153 187 230 301 354
#     4  10  21  35  55  89 121 153 188 240 294 359
#     4  12  22  36  60  86 120 156 196 242 289 352
#     4  10  21  38  61  87 124 158 188 243 289 358
#
# _framework density 19.100738
#
# number of rings (size 3 to 8) (size 9 to 14) (size 15 to 20)
#    0.000    1.750    3.750    0.375    5.250    1.000 
#    0.000    0.625    0.000    1.500    0.000    0.000 
#    0.000    0.000    0.000    0.000    0.000    0.000 
#
# Total GULP energy -89317.118265 kJ/mol
# GULP energy per Si atom -5582.319892 kJ/mol
# Density = 1.905726 g / cm^3
# Si number density = 19.100738 Si / 1000 Ang^3
#
#
#
# Elastic Constant Matrix: (Units=GPa)
#
#
# Indices 1 2 3 4 5 6 
#
# 1 113.0724 57.8054 37.0731 -9.8423 -15.9502 4.0576
# 2 57.8054 96.3642 31.7863 -6.4011 -15.0688 8.2701
# 3 37.0731 31.7863 75.8259 1.8286 -3.9541 -0.2481
# 4 -9.8423 -6.4011 1.8286 22.9464 -0.0169 -10.2917
# 5 -15.9502 -15.0688 -3.9541 -0.0169 35.5938 -6.7227
# 6 4.0576 8.2701 -0.2481 -10.2917 -6.7227 35.9867
#
#
#
# Elastic Compliance Matrix: (Units=1/GPa)
#
#
# Indices 1 2 3 4 5 6 
#
# 1 0.014533 -0.006526 -0.004309 0.005727 0.003681 0.002157
# 2 -0.006526 0.016174 -0.003458 0.001039 0.003139 -0.002121
# 3 -0.004309 -0.003458 0.016764 -0.004192 -0.001552 -0.000093
# 4 0.005727 0.001039 -0.004192 0.053587 0.005482 0.015436
# 5 0.003681 0.003139 -0.001552 0.005482 0.032116 0.006420
# 6 0.002157 -0.002121 -0.000093 0.015436 0.006420 0.033646
#
#
# Mechanical properties :
#
#
# Convention : Reuss Voigt Hill
#
# Bulk Modulus (GPa) = 52.94851 59.84357 56.39604
# Shear Modulus (GPa) = 24.78905 29.47856 27.13380
#
# Velocity S-wave (km/s) = 3.60642 3.93277 3.77312
# Velocity P-wave (km/s) = 6.71733 7.21254 6.96934
#
# Compressibility (1/GPa) = 0.01888627
#
# Stress axis : x y z
#
# Youngs Moduli (GPa) = 68.80828 61.82617 59.64995
#
# Poissons Ratio (x) = 0.40345 0.25704
# Poissons Ratio (y) = 0.44901 0.20628
# Poissons Ratio (z) = 0.29651 0.21380
#
# Static dielectric constant tensor:
#      x y z
#    x 1.713300 -0.013860 0.000060 
#    y -0.013860 1.647850 -0.001770 
#    z 0.000060 -0.001770 1.680510 
# 
# From -- ./inp_files/70682.got.cif
#   From: 2010.05.17/outbox.cif.g08.bks.cpg/sg2_36_cif.got.tgz:70682.got - 2010.06.03 11:33:40.
