data_PCOD9001881
_publ_section_title
;
Structure prediction by ZEFSAII (Michael W. Deem and Ramdas Pophale) SiO2 
 PCOD9001881
Probable space group: P -1
;
_chemical_formula_sum "Si O2"
_cell_formula_units_Z 14
_cell_length_a 5.046442
_cell_length_b 13.811622
_cell_length_c 11.923779
_cell_angle_alpha 65.712121
_cell_angle_beta 57.421339
_cell_angle_gamma 55.189217
_cell_volume 568.461817
_symmetry_space_group_name_H-M "P -1"
_symmetry_group_IT_number 2
_symmetry_cell_setting 'triclinic'
loop_
_space_group_symop_operation_xyz
x,y,z
-x,-y,-z
loop_
_atom_site_type_symbol
_atom_site_label
_atom_site_fract_x
_atom_site_fract_y
_atom_site_fract_z
Si Si1 0.555360 0.297782 0.210049
Si Si2 0.740554 0.904107 0.862837
Si Si3 0.284996 0.925001 0.595502
Si Si4 0.325050 0.764157 0.460201
Si Si5 0.812711 0.167117 0.004588
Si Si6 0.110945 0.728086 0.289788
Si Si7 0.638306 0.533224 0.633252
O O1 0.977414 0.232103 0.173495
O O2 0.468037 0.195397 0.331421
O O3 0.359636 0.417679 0.265804
O O4 0.575700 0.284719 0.078219
O O5 0.919982 0.976673 0.726457
O O6 0.819075 0.892258 0.983574
O O7 0.367423 0.920216 0.901848
O O8 0.211031 0.873138 0.521457
O O9 0.500000 0.000000 0.500000
O O10 0.119235 0.778834 0.385555
O O11 0.356175 0.646851 0.574929
O O12 0.726735 0.736626 0.351633
O O13 0.817025 0.203575 0.860065
O O14 0.392463 0.588250 0.296442
O O15 0.000000 0.500000 0.500000
#
# Coordination Sequence:
#
# PCOD9001881 Si02
#       7
#     2   2   2   2   2   2   2
#     4   7  18  33  53  77 106 134 173 224 253 301
#     4   8  18  33  55  73 107 132 169 226 255 296
#     4   8  17  36  61  82 102 134 174 219 272 312
#     4  10  21  36  53  81 110 132 175 223 263 306
#     4   9  18  35  51  75 104 146 176 207 259 302
#     4  11  21  34  55  75 109 148 173 209 255 322
#     4   9  18  35  51  79 107 142 174 216 266 305
#
# _framework density 24.627863000000001
#
# number of rings (size 3 to 8) (size 9 to 14) (size 15 to 20)
#    1.714    1.143    0.000    1.286    0.000    5.143 
#    5.143    7.143    0.000   12.000    0.000    0.000 
#    0.000    0.000    0.000    0.000    0.000    0.000 
#
# Total GULP energy -78117.398946 kJ/mol
# GULP energy per Si atom -5579.814210 kJ/mol
# Density = 2.457181 g / cm^3
# Si number density = 24.627863 Si / 1000 Ang^3
#
#
#
# Elastic Constant Matrix: (Units=GPa)
#
#
# Indices 1 2 3 4 5 6 
#
# 1 93.7957 11.7984 26.7678 -11.0298 4.7493 9.1037
# 2 11.7984 121.0884 35.3818 5.1955 5.8831 -5.0326
# 3 26.7678 35.3818 133.0448 -0.2038 31.6524 10.3419
# 4 -11.0298 5.1955 -0.2038 41.5962 10.2379 -3.6547
# 5 4.7493 5.8831 31.6524 10.2379 27.1336 0.4740
# 6 9.1037 -5.0326 10.3419 -3.6547 0.4740 24.1798
#
#
#
# Elastic Compliance Matrix: (Units=1/GPa)
#
#
# Indices 1 2 3 4 5 6 
#
# 1 0.012026 -0.000931 -0.001607 0.003286 -0.001207 -0.003514
# 2 -0.000931 0.009360 -0.003128 -0.001723 0.002375 0.003330
# 3 -0.001607 -0.003128 0.012573 0.003277 -0.014863 -0.004637
# 4 0.003286 -0.001723 0.003277 0.028979 -0.014988 0.001677
# 5 -0.001207 0.002375 -0.014863 -0.014988 0.059476 0.003874
# 6 -0.003514 0.003330 -0.004637 0.001677 0.003874 0.045534
#
#
# Mechanical properties :
#
#
# Convention : Reuss Voigt Hill
#
# Bulk Modulus (GPa) = 44.19447 55.09165 49.64306
# Shear Modulus (GPa) = 26.76350 36.84732 31.80541
#
# Velocity S-wave (km/s) = 3.30011 3.87222 3.59756
# Velocity P-wave (km/s) = 5.70130 6.51232 6.12026
#
# Compressibility (1/GPa) = 0.02262726
#
# Stress axis : x y z
#
# Youngs Moduli (GPa) = 83.15611 106.83566 79.53616
#
# Poissons Ratio (x) = 0.09943 0.12778
# Poissons Ratio (y) = 0.07739 0.24883
# Poissons Ratio (z) = 0.13360 0.33423
#
# Static dielectric constant tensor:
#      x y z
#    x 1.991190 -0.081310 -0.015360 
#    y -0.081310 2.025170 0.025350 
#    z -0.015360 0.025350 1.978310 
# 
# From -- ./inp_files/361986.got.cif
#   From: 2010.05.17/outbox.cif.g08.bks.cpg/sg2_181_cif.got.tgz:361986.got - 2010.06.03 11:33:40.
