data_PCOD9001149
_publ_section_title
;
Structure prediction by ZEFSAII (Michael W. Deem and Ramdas Pophale) SiO2 
 PCOD9001149
Probable space group: P -1
;
_chemical_formula_sum "Si O2"
_cell_formula_units_Z 14
_cell_length_a 7.221332
_cell_length_b 13.282417
_cell_length_c 8.823088
_cell_angle_alpha 43.509311
_cell_angle_beta 71.882271
_cell_angle_gamma 80.349970
_cell_volume 551.581518
_symmetry_space_group_name_H-M "P -1"
_symmetry_group_IT_number 2
_symmetry_cell_setting 'triclinic'
loop_
_space_group_symop_operation_xyz
x,y,z
-x,-y,-z
loop_
_atom_site_type_symbol
_atom_site_label
_atom_site_fract_x
_atom_site_fract_y
_atom_site_fract_z
Si Si1 0.555118 0.740916 0.189640
Si Si2 0.856577 0.824557 0.599384
Si Si3 0.812790 0.300996 0.861953
Si Si4 0.306920 0.541396 0.688157
Si Si5 0.904936 0.633301 0.528086
Si Si6 0.751907 0.990192 0.717171
Si Si7 0.780051 0.278804 0.240949
O O1 0.355246 0.770210 0.123340
O O2 0.482088 0.651049 0.454016
O O3 0.659305 0.620787 0.195750
O O4 0.673998 0.898529 0.980618
O O5 0.716058 0.887937 0.688306
O O6 0.801317 0.737742 0.555296
O O7 0.991442 0.721140 0.773584
O O8 0.016523 0.962307 0.370287
O O9 0.016345 0.291071 0.731189
O O10 0.795428 0.476840 0.686806
O O11 0.776139 0.249555 0.097606
O O12 0.105084 0.589348 0.610975
O O13 0.294954 0.573720 0.834559
O O14 0.680575 0.144739 0.513945
#
# Coordination Sequence:
#
# PCOD9001149 Si02
#       7
#     2   2   2   2   2   2   2
#     4  10  21  36  54  82 113 139 172 232 270 317
#     4   8  18  36  56  81 101 144 189 214 257 322
#     4  10  21  34  54  83 116 135 176 225 279 311
#     4   9  20  36  57  81 100 145 194 210 262 317
#     4   9  19  37  57  79 107 146 179 223 262 321
#     4   9  19  35  58  79 111 137 185 222 261 317
#     4   9  19  35  55  80 104 142 185 217 260 323
#
# _framework density 25.38156
#
# number of rings (size 3 to 8) (size 9 to 14) (size 15 to 20)
#    0.857    2.000    0.000    0.000    4.000    2.857 
#    0.000    0.714    0.000    0.000    0.000    0.000 
#    0.000    0.000    0.000    0.000    0.000    0.000 
#
# Total GULP energy -78141.740913 kJ/mol
# GULP energy per Si atom -5581.552922 kJ/mol
# Density = 2.532379 g / cm^3
# Si number density = 25.381560 Si / 1000 Ang^3
#
#
#
# Elastic Constant Matrix: (Units=GPa)
#
#
# Indices 1 2 3 4 5 6 
#
# 1 28.0814 -6.4520 21.3378 -5.1563 -3.8617 2.8830
# 2 -6.4520 104.3359 -11.4941 -1.4678 7.3322 -14.6147
# 3 21.3378 -11.4941 102.2449 -14.5247 -10.8106 7.4226
# 4 -5.1563 -1.4678 -14.5247 17.4616 10.9493 4.5728
# 5 -3.8617 7.3322 -10.8106 10.9493 25.7261 -2.3894
# 6 2.8830 -14.6147 7.4226 4.5728 -2.3894 25.7784
#
#
#
# Elastic Compliance Matrix: (Units=1/GPa)
#
#
# Indices 1 2 3 4 5 6 
#
# 1 0.043440 0.001560 -0.007601 0.008022 -0.000837 -0.003286
# 2 0.001560 0.010699 0.000531 0.002491 -0.003188 0.005001
# 3 -0.007601 0.000531 0.013154 0.010271 -0.000555 -0.004510
# 4 0.008022 0.002491 0.010271 0.099560 -0.039773 -0.023790
# 5 -0.000837 -0.003188 -0.000555 -0.039773 0.057353 0.010818
# 6 -0.003286 0.005001 -0.004510 -0.023790 0.010818 0.048516
#
#
# Mechanical properties :
#
#
# Convention : Reuss Voigt Hill
#
# Bulk Modulus (GPa) = 17.77010 26.82727 22.29869
# Shear Modulus (GPa) = 16.52898 29.21125 22.87012
#
# Velocity S-wave (km/s) = 2.55467 3.39615 3.00501
# Velocity P-wave (km/s) = 3.96461 5.09617 4.56559
#
# Compressibility (1/GPa) = 0.05627429
#
# Stress axis : x y z
#
# Youngs Moduli (GPa) = 23.02032 93.46704 76.02166
#
# Poissons Ratio (x) = -0.14585 0.57781
# Poissons Ratio (y) = -0.03592 -0.04036
# Poissons Ratio (z) = 0.17497 -0.04962
#
# Static dielectric constant tensor:
#      x y z
#    x 2.059330 0.002090 0.001080 
#    y 0.002090 1.977090 0.028550 
#    z 0.001080 0.028550 2.052330 
# 
# From -- ./inp_files/201544.got.cif
#   From: 2010.05.17/outbox.cif.g08.bks.cpg/sg2_101_cif.got.tgz:201544.got - 2010.06.03 11:33:40.
