data_PCOD9001870
_publ_section_title
;
Structure prediction by ZEFSAII (Michael W. Deem and Ramdas Pophale) SiO2 
 PCOD9001870
Probable space group: P -1
;
_chemical_formula_sum "Si O2"
_cell_formula_units_Z 16
_cell_length_a 13.236689
_cell_length_b 11.801563
_cell_length_c 13.422250
_cell_angle_alpha 82.471099
_cell_angle_beta 148.086111
_cell_angle_gamma 73.731503
_cell_volume 730.869943
_symmetry_space_group_name_H-M "P -1"
_symmetry_group_IT_number 2
_symmetry_cell_setting 'triclinic'
loop_
_space_group_symop_operation_xyz
x,y,z
-x,-y,-z
loop_
_atom_site_type_symbol
_atom_site_label
_atom_site_fract_x
_atom_site_fract_y
_atom_site_fract_z
Si Si1 0.742210 0.830771 0.157957
Si Si2 0.511048 0.531511 0.762385
Si Si3 0.825808 0.274972 0.720978
Si Si4 0.172152 0.540569 0.142289
Si Si5 0.424776 0.312311 0.052532
Si Si6 0.781923 0.241519 0.169448
Si Si7 0.803944 0.022661 0.075831
Si Si8 0.130526 0.300979 0.515727
O O1 0.616447 0.804370 0.971838
O O2 0.887301 0.876756 0.230246
O O3 0.888609 0.687786 0.381055
O O4 0.500000 0.000000 0.000000
O O5 0.277319 0.603630 0.475495
O O6 0.796537 0.419180 0.946577
O O7 0.467161 0.675132 0.758837
O O8 0.552479 0.422377 0.896721
O O9 0.509070 0.368451 0.475389
O O10 0.940050 0.311460 0.894348
O O11 0.039101 0.080780 0.883790
O O12 0.000000 0.500000 0.000000
O O13 0.110666 0.508274 0.751048
O O14 0.630101 0.254706 0.137825
O O15 0.027878 0.219184 0.410738
O O16 0.885545 0.099659 0.195204
O O17 0.453676 0.180725 0.762680
#
# Coordination Sequence:
#
# PCOD9001870 Si02
#       8
#     2   2   2   2   2   2   2   2
#     4  10  21  36  52  87 121 166 205 235 294 337
#     4   9  21  39  63  93 110 159 202 239 305 345
#     4   9  22  40  65  92 111 148 201 251 303 351
#     4   9  20  43  66  92 113 141 202 260 296 354
#     4  11  21  38  61  86 126 165 202 244 282 359
#     4  11  23  39  56  88 131 159 202 238 284 364
#     4  11  24  37  56  88 125 159 195 249 295 353
#     4  10  22  37  54  82 123 168 205 236 287 349
#
# _framework density 21.891719999999999
#
# number of rings (size 3 to 8) (size 9 to 14) (size 15 to 20)
#    0.750    1.250    2.500    1.875    5.250    3.500 
#    2.250    0.625    0.000    3.750    0.000    0.000 
#    0.000    0.000    0.000    0.000    0.000    0.000 
#
# Total GULP energy -89178.417095 kJ/mol
# GULP energy per Si atom -5573.651068 kJ/mol
# Density = 2.184189 g / cm^3
# Si number density = 21.891720 Si / 1000 Ang^3
#
#
#
# Elastic Constant Matrix: (Units=GPa)
#
#
# Indices 1 2 3 4 5 6 
#
# 1 22.0102 18.4688 10.3989 7.9386 7.7027 -18.5996
# 2 18.4688 169.6719 24.0882 33.2664 14.5751 -30.1339
# 3 10.3989 24.0882 55.6966 7.4121 11.1965 -9.2156
# 4 7.9386 33.2664 7.4121 35.2428 -4.6425 1.2752
# 5 7.7027 14.5751 11.1965 -4.6425 23.3181 -2.2582
# 6 -18.5996 -30.1339 -9.2156 1.2752 -2.2582 35.9035
#
#
#
# Elastic Compliance Matrix: (Units=1/GPa)
#
#
# Indices 1 2 3 4 5 6 
#
# 1 0.156941 0.018167 0.000694 -0.064939 -0.067279 0.094803
# 2 0.018167 0.012318 0.000083 -0.018488 -0.015538 0.019451
# 3 0.000694 0.000083 0.021909 -0.006567 -0.011570 0.005558
# 4 -0.064939 -0.018488 -0.006567 0.069606 0.045130 -0.050477
# 5 -0.067279 -0.015538 -0.011570 0.045130 0.084797 -0.047133
# 6 0.094803 0.019451 0.005558 -0.050477 -0.047133 0.093544
#
#
# Mechanical properties :
#
#
# Convention : Reuss Voigt Hill
#
# Bulk Modulus (GPa) = 4.36575 39.25451 21.81013
# Shear Modulus (GPa) = 10.46945 31.85441 21.16193
#
# Velocity S-wave (km/s) = 2.18924 3.81870 3.11249
# Velocity P-wave (km/s) = 2.89636 6.11665 4.78552
#
# Compressibility (1/GPa) = 0.22905572
#
# Stress axis : x y z
#
# Youngs Moduli (GPa) = 6.37181 81.17891 45.64437
#
# Poissons Ratio (x) = -1.47477 -0.03168
# Poissons Ratio (y) = -0.11576 -0.00377
# Poissons Ratio (z) = -0.00442 -0.00671
#
# Static dielectric constant tensor:
#      x y z
#    x 1.959360 -0.037170 0.015700 
#    y -0.037170 1.805590 -0.025200 
#    z 0.015700 -0.025200 1.897440 
# 
# From -- ./inp_files/531179.got.cif
#   From: 2010.05.17/outbox.cif.g08.bks.cpg/sg2_266_cif.got.tgz:531179.got - 2010.06.03 11:33:40.
