data_PCOD9001122
_publ_section_title
;
Structure prediction by ZEFSAII (Michael W. Deem and Ramdas Pophale) SiO2 
 PCOD9001122
Probable space group: P -1
;
_chemical_formula_sum "Si O2"
_cell_formula_units_Z 16
_cell_length_a 14.650542
_cell_length_b 6.018336
_cell_length_c 20.657099
_cell_angle_alpha 104.712557
_cell_angle_beta 152.234718
_cell_angle_gamma 93.932814
_cell_volume 622.966540
_symmetry_space_group_name_H-M "P -1"
_symmetry_group_IT_number 2
_symmetry_cell_setting 'triclinic'
loop_
_space_group_symop_operation_xyz
x,y,z
-x,-y,-z
loop_
_atom_site_type_symbol
_atom_site_label
_atom_site_fract_x
_atom_site_fract_y
_atom_site_fract_z
Si Si1 0.031347 0.190221 0.438849
Si Si2 0.744727 0.904091 0.052578
Si Si3 0.696851 0.264915 0.742846
Si Si4 0.163100 0.454214 0.687555
Si Si5 0.721810 0.834494 0.581900
Si Si6 0.215790 0.152955 0.223362
Si Si7 0.582875 0.415923 0.807015
Si Si8 0.164330 0.774400 0.991142
O O1 0.059342 0.297633 0.539584
O O2 0.322407 0.337589 0.615530
O O3 0.942062 0.358508 0.357763
O O4 0.892474 0.827875 0.327403
O O5 0.473593 0.724605 0.904207
O O6 0.692456 0.652709 0.951434
O O7 0.807050 0.165491 0.063253
O O8 0.004847 0.039036 0.264174
O O9 0.401403 0.029422 0.514242
O O10 0.729498 0.466040 0.837145
O O11 0.910591 0.443307 0.832987
O O12 0.742374 0.063062 0.792629
O O13 0.462649 0.488808 0.382984
O O14 0.756216 0.851491 0.681554
O O15 0.938642 0.060227 0.034623
O O16 0.580331 0.160541 0.820261
#
# Coordination Sequence:
#
# PCOD9001122 Si02
#       8
#     2   2   2   2   2   2   2   2
#     4   9  20  37  58  89 120 157 196 250 312 368
#     4  10  22  36  60  90 111 149 197 251 299 354
#     4  11  22  38  55  81 122 161 191 237 295 357
#     4   9  19  37  61  87 122 150 198 258 311 356
#     4   9  19  36  57  80 111 152 203 238 287 351
#     4   9  19  36  54  79 111 158 199 241 286 339
#     4  11  24  35  57  87 117 156 194 241 306 358
#     4  10  21  34  52  82 118 149 192 239 285 355
#
# _framework density 25.683565000000002
#
# number of rings (size 3 to 8) (size 9 to 14) (size 15 to 20)
#    0.000    2.250    0.000    3.000    8.750    6.000 
#    0.000    0.000    0.000    1.500    0.000    0.000 
#    0.000    0.000    0.000    0.000    0.000    0.000 
#
# Total GULP energy -89071.326132 kJ/mol
# GULP energy per Si atom -5566.957883 kJ/mol
# Density = 2.562511 g / cm^3
# Si number density = 25.683565 Si / 1000 Ang^3
#
#
#
# Elastic Constant Matrix: (Units=GPa)
#
#
# Indices 1 2 3 4 5 6 
#
# 1 38.7388 26.7812 20.5366 -7.0012 4.4309 -6.5482
# 2 26.7812 113.3539 51.8608 -32.1315 8.4550 -11.3155
# 3 20.5366 51.8608 160.1178 -40.1182 18.9006 -7.8328
# 4 -7.0012 -32.1315 -40.1182 46.9100 5.1572 0.0734
# 5 4.4309 8.4550 18.9006 5.1572 35.6357 -11.6847
# 6 -6.5482 -11.3155 -7.8328 0.0734 -11.6847 32.1308
#
#
#
# Elastic Compliance Matrix: (Units=1/GPa)
#
#
# Indices 1 2 3 4 5 6 
#
# 1 0.031875 -0.006657 -0.002215 -0.001731 0.000258 0.003709
# 2 -0.006657 0.013448 -0.001332 0.007290 -0.001948 0.002330
# 3 -0.002215 -0.001332 0.009486 0.007505 -0.005762 -0.000720
# 4 -0.001731 0.007290 0.007505 0.033600 -0.010283 0.000228
# 5 0.000258 -0.001948 -0.005762 -0.010283 0.036759 0.011353
# 6 0.003709 0.002330 -0.000720 0.000228 0.011353 0.036652
#
#
# Mechanical properties :
#
#
# Convention : Reuss Voigt Hill
#
# Bulk Modulus (GPa) = 29.06777 56.72976 42.89877
# Shear Modulus (GPa) = 25.81390 37.13742 31.47566
#
# Velocity S-wave (km/s) = 3.17373 3.80670 3.50454
# Velocity P-wave (km/s) = 4.97718 6.43873 5.75454
#
# Compressibility (1/GPa) = 0.03440236
#
# Stress axis : x y z
#
# Youngs Moduli (GPa) = 31.37258 74.35977 105.41856
#
# Poissons Ratio (x) = 0.49502 0.23347
# Poissons Ratio (y) = 0.20885 0.14037
# Poissons Ratio (z) = 0.06948 0.09902
#
# Static dielectric constant tensor:
#      x y z
#    x 2.067400 0.019210 -0.002550 
#    y 0.019210 2.343050 -0.098480 
#    z -0.002550 -0.098480 2.054820 
# 
# From -- ./inp_files/620106.got.cif
#   From: 2010.05.17/outbox.cif.g08.bks.cpg/sg2_311_cif.got.tgz:620106.got - 2010.06.03 11:33:40.
