data_PCOD9001287
_publ_section_title
;
Structure prediction by ZEFSAII (Michael W. Deem and Ramdas Pophale) SiO2 
 PCOD9001287
Probable space group: P -1
;
_chemical_formula_sum "Si O2"
_cell_formula_units_Z 16
_cell_length_a 9.903984
_cell_length_b 9.697606
_cell_length_c 13.306980
_cell_angle_alpha 90.357227
_cell_angle_beta 147.440363
_cell_angle_gamma 106.650973
_cell_volume 577.933682
_symmetry_space_group_name_H-M "P -1"
_symmetry_group_IT_number 2
_symmetry_cell_setting 'triclinic'
loop_
_space_group_symop_operation_xyz
x,y,z
-x,-y,-z
loop_
_atom_site_type_symbol
_atom_site_label
_atom_site_fract_x
_atom_site_fract_y
_atom_site_fract_z
Si Si1 0.547682 0.315559 0.443073
Si Si2 0.823117 0.684046 0.622164
Si Si3 0.146000 0.785298 0.209794
Si Si4 0.207143 0.473080 0.702585
Si Si5 0.558994 0.129323 0.928234
Si Si6 0.773207 0.773407 0.152089
Si Si7 0.642108 0.417018 0.841369
Si Si8 0.327225 0.046099 0.168127
O O1 0.779795 0.507640 0.587128
O O2 0.254525 0.291484 0.312647
O O3 0.650691 0.229816 0.582516
O O4 0.498445 0.236158 0.304086
O O5 0.557569 0.662375 0.384809
O O6 0.168682 0.815400 0.823030
O O7 0.946757 0.829953 0.155061
O O8 0.351513 0.927483 0.261927
O O9 0.939258 0.603730 0.026437
O O10 0.089436 0.316740 0.702423
O O11 0.422294 0.447829 0.767189
O O12 0.000000 0.500000 0.500000
O O13 0.432850 0.631574 0.911125
O O14 0.268460 0.109001 0.799618
O O15 0.667935 0.284639 0.921113
O O16 0.558211 0.988523 0.862352
O O17 0.000000 0.000000 0.000000
#
# Coordination Sequence:
#
# PCOD9001287 Si02
#       8
#     2   2   2   2   2   2   2   2
#     4  11  24  40  63  95 126 174 213 268 326 387
#     4  11  22  39  68  98 129 164 220 269 324 386
#     4  11  23  41  65  94 138 168 216 270 330 387
#     4   9  17  32  58  91 133 167 207 258 319 382
#     4  11  22  43  68  95 134 167 217 272 320 388
#     4   9  21  38  60  97 130 171 206 265 333 380
#     4  10  21  34  61 100 128 166 209 264 324 377
#     4  12  25  44  64  92 129 175 224 270 325 385
#
# _framework density 27.684839
#
# number of rings (size 3 to 8) (size 9 to 14) (size 15 to 20)
#    0.000    1.500    2.500    3.375    3.500    1.000 
#    0.000    1.250    0.000    0.000    0.000    0.000 
#    0.000    0.000    0.000    0.000    0.000    0.000 
#
# Total GULP energy -89560.054724 kJ/mol
# GULP energy per Si atom -5597.503420 kJ/mol
# Density = 2.762183 g / cm^3
# Si number density = 27.684839 Si / 1000 Ang^3
#
#
#
# Elastic Constant Matrix: (Units=GPa)
#
#
# Indices 1 2 3 4 5 6 
#
# 1 117.1599 42.4982 9.5424 16.4406 -18.8035 -28.3918
# 2 42.4982 151.7685 40.1233 2.6743 -19.8444 -28.8466
# 3 9.5424 40.1233 96.4855 -21.2939 -14.2601 -21.6108
# 4 16.4406 2.6743 -21.2939 39.7039 -9.2943 -23.9452
# 5 -18.8035 -19.8444 -14.2601 -9.2943 30.7874 0.8877
# 6 -28.3918 -28.8466 -21.6108 -23.9452 0.8877 64.3199
#
#
#
# Elastic Compliance Matrix: (Units=1/GPa)
#
#
# Indices 1 2 3 4 5 6 
#
# 1 0.011226 -0.001821 0.002233 0.001558 0.007033 0.005372
# 2 -0.001821 0.008685 -0.001396 0.002609 0.004525 0.003531
# 3 0.002233 -0.001396 0.023673 0.027344 0.019159 0.018229
# 4 0.001558 0.002609 0.027344 0.069148 0.035127 0.036303
# 5 0.007033 0.004525 0.019159 0.035127 0.058484 0.023841
# 6 0.005372 0.003531 0.018229 0.036303 0.023841 0.038813
#
#
# Mechanical properties :
#
#
# Convention : Reuss Voigt Hill
#
# Bulk Modulus (GPa) = 24.02839 61.08241 42.55540
# Shear Modulus (GPa) = 22.13691 45.17890 33.65791
#
# Velocity S-wave (km/s) = 2.83080 4.04406 3.49055
# Velocity P-wave (km/s) = 4.40257 6.62701 5.62583
#
# Compressibility (1/GPa) = 0.04161745
#
# Stress axis : x y z
#
# Youngs Moduli (GPa) = 89.08081 115.14437 42.24200
#
# Poissons Ratio (x) = 0.20965 -0.09435
# Poissons Ratio (y) = 0.16219 0.05896
# Poissons Ratio (z) = -0.19896 0.16073
#
# Static dielectric constant tensor:
#      x y z
#    x 2.282220 -0.021860 -0.012390 
#    y -0.021860 2.163310 0.044070 
#    z -0.012390 0.044070 2.228640 
# 
# From -- ./inp_files/516039.got.cif
#   From: 2010.05.17/outbox.cif.g08.bks.cpg/sg2_259_cif.got.tgz:516039.got - 2010.06.03 11:33:40.
