data_PCOD9001959
_publ_section_title
;
Structure prediction by ZEFSAII (Michael W. Deem and Ramdas Pophale) SiO2 
 PCOD9001959
Probable space group: P -1
;
_chemical_formula_sum "Si O2"
_cell_formula_units_Z 14
_cell_length_a 4.788572
_cell_length_b 24.716984
_cell_length_c 5.539603
_cell_angle_alpha 89.507543
_cell_angle_beta 83.601296
_cell_angle_gamma 63.993582
_cell_volume 585.006584
_symmetry_space_group_name_H-M "P -1"
_symmetry_group_IT_number 2
_symmetry_cell_setting 'triclinic'
loop_
_space_group_symop_operation_xyz
x,y,z
-x,-y,-z
loop_
_atom_site_type_symbol
_atom_site_label
_atom_site_fract_x
_atom_site_fract_y
_atom_site_fract_z
Si Si1 0.890299 0.569715 0.549658
Si Si2 0.959489 0.266990 0.617807
Si Si3 0.690200 0.669366 0.182334
Si Si4 0.471747 0.055107 0.036918
Si Si5 0.303909 0.126065 0.574974
Si Si6 0.972899 0.057642 0.339844
Si Si7 0.240570 0.633326 0.748054
O O1 0.742680 0.609376 0.324102
O O2 0.607168 0.596824 0.771705
O O3 0.000000 0.500000 0.500000
O O4 0.168461 0.586986 0.589110
O O5 0.676599 0.293725 0.839507
O O6 0.812220 0.306388 0.392170
O O7 0.235238 0.285041 0.657421
O O8 0.091469 0.196424 0.576206
O O9 0.965023 0.651403 0.964894
O O10 0.218538 0.091387 0.360722
O O11 0.744406 0.067020 0.124640
O O12 0.276588 0.099467 0.840061
O O13 0.688783 0.989793 0.860415
O O14 0.669382 0.110235 0.521881
O O15 0.000000 0.000000 0.500000
#
# Coordination Sequence:
#
# PCOD9001959 Si02
#       7
#     2   2   2   2   2   2   2
#     4  10  21  36  55  83 114 146 190 236 285 349
#     4  10  22  38  57  83 113 149 194 239 290 352
#     4  10  21  37  58  82 113 151 189 239 293 343
#     4  11  24  41  62  91 123 157 202 249 299 362
#     4  11  23  41  62  88 123 158 199 253 301 354
#     4  10  24  40  62  91 118 158 202 241 303 361
#     4  10  21  37  56  81 112 148 190 236 287 345
#
# _framework density 23.931353999999999
#
# number of rings (size 3 to 8) (size 9 to 14) (size 15 to 20)
#    0.000    1.714    0.000    3.429    0.000    8.000 
#    0.000    0.000    0.000    0.000    0.000    0.000 
#    0.000    0.000    0.000    0.000    0.000    0.000 
#
# Total GULP energy -78042.615642 kJ/mol
# GULP energy per Si atom -5574.472546 kJ/mol
# Density = 2.387689 g / cm^3
# Si number density = 23.931354 Si / 1000 Ang^3
#
#
#
# Elastic Constant Matrix: (Units=GPa)
#
#
# Indices 1 2 3 4 5 6 
#
# 1 161.6059 59.0142 33.3946 2.3648 -26.7696 -3.2814
# 2 59.0142 193.6215 31.0431 2.0639 -6.1185 15.0384
# 3 33.3946 31.0431 89.7061 -1.9295 -30.5996 2.6013
# 4 2.3648 2.0639 -1.9295 18.6467 -9.8459 -9.5736
# 5 -26.7696 -6.1185 -30.5996 -9.8459 64.6278 14.8700
# 6 -3.2814 15.0384 2.6013 -9.5736 14.8700 31.0295
#
#
#
# Elastic Compliance Matrix: (Units=1/GPa)
#
#
# Indices 1 2 3 4 5 6 
#
# 1 0.007622 -0.002136 -0.001376 0.000882 0.002164 0.001192
# 2 -0.002136 0.006372 -0.001560 -0.002845 -0.000584 -0.003781
# 3 -0.001376 -0.001560 0.015033 0.004468 0.007770 -0.002994
# 4 0.000882 -0.002845 0.004468 0.068004 0.008420 0.018044
# 5 0.002164 -0.000584 0.007770 0.008420 0.023277 -0.008696
# 6 0.001192 -0.003781 -0.002994 0.018044 -0.008696 0.044172
#
#
# Mechanical properties :
#
#
# Convention : Reuss Voigt Hill
#
# Bulk Modulus (GPa) = 52.96108 76.87082 64.91595
# Shear Modulus (GPa) = 27.63688 44.29290 35.96489
#
# Velocity S-wave (km/s) = 3.40198 4.30680 3.88085
# Velocity P-wave (km/s) = 6.13268 7.54470 6.87503
#
# Compressibility (1/GPa) = 0.01888179
#
# Stress axis : x y z
#
# Youngs Moduli (GPa) = 131.20036 156.94846 66.52062
#
# Poissons Ratio (x) = 0.33526 0.09152
# Poissons Ratio (y) = 0.28026 0.10380
# Poissons Ratio (z) = 0.18050 0.24490
#
# Static dielectric constant tensor:
#      x y z
#    x 1.935030 -0.051430 -0.040640 
#    y -0.051430 1.851030 0.148420 
#    z -0.040640 0.148420 2.452860 
# 
# From -- ./inp_files/14063.got.cif
#   From: 2010.05.17/outbox.cif.g08.bks.cpg/sg2_8_cif.got.tgz:14063.got - 2010.06.03 11:33:40.
