data_PCOD9001385
_publ_section_title
;
Structure prediction by ZEFSAII (Michael W. Deem and Ramdas Pophale) SiO2 
 PCOD9001385
Probable space group: P -1
;
_chemical_formula_sum "Si O2"
_cell_formula_units_Z 14
_cell_length_a 8.284526
_cell_length_b 12.799475
_cell_length_c 12.598066
_cell_angle_alpha 144.755109
_cell_angle_beta 76.923507
_cell_angle_gamma 79.240952
_cell_volume 563.579935
_symmetry_space_group_name_H-M "P -1"
_symmetry_group_IT_number 2
_symmetry_cell_setting 'triclinic'
loop_
_space_group_symop_operation_xyz
x,y,z
-x,-y,-z
loop_
_atom_site_type_symbol
_atom_site_label
_atom_site_fract_x
_atom_site_fract_y
_atom_site_fract_z
Si Si1 0.321222 0.038675 0.197969
Si Si2 0.055277 0.174945 0.151538
Si Si3 0.597272 0.164597 0.308879
Si Si4 0.212269 0.334276 0.907723
Si Si5 0.400156 0.441826 0.349802
Si Si6 0.679018 0.109039 0.567424
Si Si7 0.976738 0.229957 0.576643
O O1 0.232156 0.137684 0.175151
O O2 0.407492 0.153508 0.340725
O O3 0.107537 0.116634 0.353997
O O4 0.515454 0.752980 0.915785
O O5 0.832393 0.409486 0.432164
O O6 0.172687 0.109982 0.965555
O O7 0.000000 0.000000 0.000000
O O8 0.560847 0.276595 0.287581
O O9 0.583916 0.363987 0.536519
O O10 0.423989 0.287893 0.788803
O O11 0.287817 0.070423 0.675911
O O12 0.000000 0.500000 0.000000
O O13 0.131158 0.498045 0.159188
O O14 0.786605 0.219109 0.609158
O O15 0.831686 0.940620 0.505198
#
# Coordination Sequence:
#
# PCOD9001385 Si02
#       7
#     2   2   2   2   2   2   2
#     4  11  22  33  51  83 108 134 181 225 264 317
#     4   9  18  35  54  73 102 143 181 215 267 319
#     4   9  19  34  53  74 100 137 182 220 261 318
#     4   9  18  36  60  81 103 138 182 222 265 326
#     4   9  18  35  53  71 104 141 172 219 270 313
#     4   9  19  38  59  78 107 149 182 213 273 330
#     4  10  21  35  54  82 113 142 180 226 268 321
#
# _framework density 24.841196
#
# number of rings (size 3 to 8) (size 9 to 14) (size 15 to 20)
#    0.000    2.571    0.000    3.000    0.000    4.571 
#    0.000    8.571    0.000    0.000    0.000    0.000 
#    0.000    0.000    0.000    0.000    0.000    0.000 
#
# Total GULP energy -78008.085859 kJ/mol
# GULP energy per Si atom -5572.006133 kJ/mol
# Density = 2.478466 g / cm^3
# Si number density = 24.841196 Si / 1000 Ang^3
#
#
#
# Elastic Constant Matrix: (Units=GPa)
#
#
# Indices 1 2 3 4 5 6 
#
# 1 141.1111 22.0012 48.9305 15.6194 -20.4854 15.5211
# 2 22.0012 41.9607 25.0436 0.4608 12.5865 0.7456
# 3 48.9305 25.0436 181.2675 4.1977 -0.5196 20.7433
# 4 15.6194 0.4608 4.1977 22.4836 7.3789 4.0022
# 5 -20.4854 12.5865 -0.5196 7.3789 44.2897 3.8606
# 6 15.5211 0.7456 20.7433 4.0022 3.8606 38.3232
#
#
#
# Elastic Compliance Matrix: (Units=1/GPa)
#
#
# Indices 1 2 3 4 5 6 
#
# 1 0.011816 -0.008146 -0.001362 -0.010333 0.009817 -0.003800
# 2 -0.008146 0.034684 -0.003444 0.009862 -0.015748 0.005045
# 3 -0.001362 -0.003444 0.006714 0.000090 0.000682 -0.003094
# 4 -0.010333 0.009862 0.000090 0.057090 -0.017066 -0.000299
# 5 0.009817 -0.015748 0.000682 -0.017066 0.034950 -0.005777
# 6 -0.003800 0.005045 -0.003094 -0.000299 -0.005777 0.029822
#
#
# Mechanical properties :
#
#
# Convention : Reuss Voigt Hill
#
# Bulk Modulus (GPa) = 36.61614 61.80998 49.21306
# Shear Modulus (GPa) = 23.80010 38.91023 31.35516
#
# Velocity S-wave (km/s) = 3.09866 3.96202 3.55663
# Velocity P-wave (km/s) = 5.25113 6.77246 6.05973
#
# Compressibility (1/GPa) = 0.02731036
#
# Stress axis : x y z
#
# Youngs Moduli (GPa) = 84.63292 28.83145 148.94276
#
# Poissons Ratio (x) = 0.23487 0.20282
# Poissons Ratio (y) = 0.68944 0.51293
# Poissons Ratio (z) = 0.11525 0.09929
#
# Static dielectric constant tensor:
#      x y z
#    x 2.019090 -0.057230 0.000880 
#    y -0.057230 2.030560 0.045680 
#    z 0.000880 0.045680 2.078800 
# 
# From -- ./inp_files/315068.got.cif
#   From: 2010.05.17/outbox.cif.g08.bks.cpg/sg2_158_cif.got.tgz:315068.got - 2010.06.03 11:33:40.
