data_PCOD9001988
_publ_section_title
;
Structure prediction by ZEFSAII (Michael W. Deem and Ramdas Pophale) SiO2 
 PCOD9001988
Probable space group: P -1
;
_chemical_formula_sum "Si O2"
_cell_formula_units_Z 16
_cell_length_a 14.390092
_cell_length_b 16.555588
_cell_length_c 5.137958
_cell_angle_alpha 122.754437
_cell_angle_beta 66.958493
_cell_angle_gamma 124.101161
_cell_volume 845.568667
_symmetry_space_group_name_H-M "P -1"
_symmetry_group_IT_number 2
_symmetry_cell_setting 'triclinic'
loop_
_space_group_symop_operation_xyz
x,y,z
-x,-y,-z
loop_
_atom_site_type_symbol
_atom_site_label
_atom_site_fract_x
_atom_site_fract_y
_atom_site_fract_z
Si Si1 0.869341 0.448551 0.642768
Si Si2 0.894628 0.045826 0.965264
Si Si3 0.721642 0.526730 0.584731
Si Si4 0.850433 0.903880 0.255840
Si Si5 0.370880 0.318060 0.839599
Si Si6 0.506880 0.387484 0.306128
Si Si7 0.925327 0.630038 0.245719
Si Si8 0.920030 0.268971 0.246577
O O1 0.794567 0.490371 0.631641
O O2 0.835537 0.323708 0.422004
O O3 0.000000 0.500000 0.500000
O O4 0.885307 0.503544 0.004347
O O5 0.032016 0.102455 0.933349
O O6 0.861932 0.961293 0.619934
O O7 0.862700 0.141276 0.106995
O O8 0.845972 0.982382 0.173556
O O9 0.633373 0.426467 0.339475
O O10 0.806075 0.620532 0.459827
O O11 0.657368 0.580606 0.916068
O O12 0.743075 0.789224 0.171760
O O13 0.419571 0.318343 0.503010
O O14 0.466107 0.334028 0.978532
O O15 0.500000 0.500000 0.500000
O O16 0.010593 0.681209 0.477717
O O17 0.990145 0.694104 0.028794
#
# Coordination Sequence:
#
# PCOD9001988 Si02
#       8
#     2   2   2   2   2   2   2   2
#     4  10  22  35  51  84 114 151 182 215 265 344
#     4  10  21  37  53  82 106 142 178 233 264 330
#     4  11  22  35  57  80 118 148 181 224 266 326
#     4  10  21  36  56  78 108 137 190 221 276 322
#     4  11  23  38  57  82 110 153 181 227 277 321
#     4  10  23  37  54  82 113 145 192 224 265 326
#     4  11  21  33  51  79 114 152 178 212 261 333
#     4  11  22  35  53  77 117 148 182 216 271 326
#
# _framework density 18.922177000000001
#
# number of rings (size 3 to 8) (size 9 to 14) (size 15 to 20)
#    0.000    1.500    2.500    4.125    7.000    2.000 
#    0.000    0.000    0.000    0.000    0.000    5.250 
#    0.000    0.000    0.000    0.000    0.000    0.000 
#
# Total GULP energy -89266.003706 kJ/mol
# GULP energy per Si atom -5579.125232 kJ/mol
# Density = 1.887911 g / cm^3
# Si number density = 18.922177 Si / 1000 Ang^3
#
#
#
# Elastic Constant Matrix: (Units=GPa)
#
#
# Indices 1 2 3 4 5 6 
#
# 1 86.9259 22.3603 14.2441 5.0005 12.2102 0.3785
# 2 22.3603 73.2549 2.7063 0.9249 11.5555 2.1493
# 3 14.2441 2.7063 37.0239 -10.6534 11.0996 -5.2582
# 4 5.0005 0.9249 -10.6534 33.6157 -6.9963 3.5718
# 5 12.2102 11.5555 11.0996 -6.9963 24.4606 1.8941
# 6 0.3785 2.1493 -5.2582 3.5718 1.8941 23.5969
#
#
#
# Elastic Compliance Matrix: (Units=1/GPa)
#
#
# Indices 1 2 3 4 5 6 
#
# 1 0.014097 -0.003359 -0.005173 -0.004557 -0.004404 -0.000030
# 2 -0.003359 0.015694 0.001939 -0.000701 -0.006795 -0.000292
# 3 -0.005173 0.001939 0.036340 0.008722 -0.012927 0.007722
# 4 -0.004557 -0.000701 0.008722 0.035537 0.009125 -0.004031
# 5 -0.004404 -0.006795 -0.012927 0.009125 0.055387 -0.008018
# 6 -0.000030 -0.000292 0.007722 -0.004031 -0.008018 0.045380
#
#
# Mechanical properties :
#
#
# Convention : Reuss Voigt Hill
#
# Bulk Modulus (GPa) = 18.88758 30.64733 24.76746
# Shear Modulus (GPa) = 21.43454 26.86090 24.14772
#
# Velocity S-wave (km/s) = 3.36932 3.77177 3.57621
# Velocity P-wave (km/s) = 5.01396 5.93296 5.49272
#
# Compressibility (1/GPa) = 0.05294484
#
# Stress axis : x y z
#
# Youngs Moduli (GPa) = 70.93914 63.71929 27.51793
#
# Poissons Ratio (x) = 0.21401 0.14235
# Poissons Ratio (y) = 0.23826 -0.05336
# Poissons Ratio (z) = 0.36698 -0.12355
#
# Static dielectric constant tensor:
#      x y z
#    x 1.713680 -0.020690 -0.015570 
#    y -0.020690 1.696180 -0.014240 
#    z -0.015570 -0.014240 1.708080 
# 
# From -- ./inp_files/99468.got.cif
#   From: 2010.05.17/outbox.cif.g08.bks.cpg/sg2_50_cif.got.tgz:99468.got - 2010.06.03 11:33:40.
