data_PCOD9001941
_publ_section_title
;
Structure prediction by ZEFSAII (Michael W. Deem and Ramdas Pophale) SiO2 
 PCOD9001941
Probable space group: P -1
;
_chemical_formula_sum "Si O2"
_cell_formula_units_Z 16
_cell_length_a 14.148765
_cell_length_b 13.391486
_cell_length_c 9.139318
_cell_angle_alpha 105.416523
_cell_angle_beta 149.849543
_cell_angle_gamma 81.965106
_cell_volume 823.824990
_symmetry_space_group_name_H-M "P -1"
_symmetry_group_IT_number 2
_symmetry_cell_setting 'triclinic'
loop_
_space_group_symop_operation_xyz
x,y,z
-x,-y,-z
loop_
_atom_site_type_symbol
_atom_site_label
_atom_site_fract_x
_atom_site_fract_y
_atom_site_fract_z
Si Si1 0.488517 0.666306 0.776851
Si Si2 0.354902 0.434700 0.609152
Si Si3 0.623915 0.113274 0.745445
Si Si4 0.983907 0.465608 0.297212
Si Si5 0.234017 0.732586 0.226358
Si Si6 0.297821 0.412909 0.196748
Si Si7 0.559829 0.768935 0.213184
Si Si8 0.993651 0.883629 0.885224
O O1 0.479311 0.549856 0.788092
O O2 0.302502 0.675352 0.434739
O O3 0.656485 0.677024 0.885489
O O4 0.508224 0.747633 0.966812
O O5 0.188275 0.456580 0.501104
O O6 0.267910 0.390957 0.319123
O O7 0.458562 0.345904 0.779993
O O8 0.596875 0.190785 0.603615
O O9 0.562895 0.161948 0.831766
O O10 0.500000 0.000000 0.500000
O O11 0.849901 0.109888 0.033319
O O12 0.000000 0.500000 0.500000
O O13 0.855421 0.351621 0.048471
O O14 0.876729 0.542190 0.089041
O O15 0.082142 0.807545 0.086017
O O16 0.500000 0.500000 0.500000
O O17 0.780859 0.826863 0.540873
O O18 0.000000 0.000000 0.000000
#
# Coordination Sequence:
#
# PCOD9001941 Si02
#       8
#     2   2   2   2   2   2   2   2
#     4  11  24  39  59  95 130 168 206 256 313 381
#     4  11  22  37  61  91 130 171 212 244 313 378
#     4  10  22  40  70  92 117 161 218 262 323 374
#     4  12  23  36  58  92 126 170 211 258 300 376
#     4  10  22  42  60  89 130 165 202 263 324 364
#     4  10  21  36  55  79 134 165 202 247 302 366
#     4  12  22  39  67  95 123 170 212 259 318 375
#     4  10  22  42  66  91 118 155 215 266 313 371
#
# _framework density 19.421600999999999
#
# number of rings (size 3 to 8) (size 9 to 14) (size 15 to 20)
#    0.750    0.500    5.000    2.250    3.500    0.000 
#    0.000    2.500    0.000    1.500    0.000    0.000 
#    0.000    0.000    0.000    0.000    0.000    0.000 
#
# Total GULP energy -89208.662577 kJ/mol
# GULP energy per Si atom -5575.541411 kJ/mol
# Density = 1.937740 g / cm^3
# Si number density = 19.421601 Si / 1000 Ang^3
#
#
#
# Elastic Constant Matrix: (Units=GPa)
#
#
# Indices 1 2 3 4 5 6 
#
# 1 115.1435 35.2999 33.1240 8.2505 -18.5668 -36.5352
# 2 35.2999 90.5175 40.5401 9.2766 -15.3730 -24.5991
# 3 33.1240 40.5401 68.0098 7.7998 -21.5442 -8.8828
# 4 8.2505 9.2766 7.7998 23.2064 -1.7752 3.5296
# 5 -18.5668 -15.3730 -21.5442 -1.7752 39.0066 6.1251
# 6 -36.5352 -24.5991 -8.8828 3.5296 6.1251 41.8354
#
#
#
# Elastic Compliance Matrix: (Units=1/GPa)
#
#
# Indices 1 2 3 4 5 6 
#
# 1 0.014398 0.000634 -0.004368 -0.005553 0.002535 0.012117
# 2 0.000634 0.018195 -0.008979 -0.005908 0.000715 0.009740
# 3 -0.004368 -0.008979 0.024439 -0.001650 0.008594 -0.005024
# 4 -0.005553 -0.005908 -0.001650 0.049779 -0.001634 -0.012634
# 5 0.002535 0.000715 0.008594 -0.001634 0.031807 -0.000059
# 6 0.012117 0.009740 -0.005024 -0.012634 -0.000059 0.040220
#
#
# Mechanical properties :
#
#
# Convention : Reuss Voigt Hill
#
# Bulk Modulus (GPa) = 31.63818 54.62209 43.13013
# Shear Modulus (GPa) = 23.27751 31.79015 27.53383
#
# Velocity S-wave (km/s) = 3.46575 4.05018 3.76931
# Velocity P-wave (km/s) = 5.68689 7.07513 6.41865
#
# Compressibility (1/GPa) = 0.03160738
#
# Stress axis : x y z
#
# Youngs Moduli (GPa) = 69.45169 54.95880 40.91863
#
# Poissons Ratio (x) = -0.03483 0.17873
# Poissons Ratio (y) = -0.04401 0.36739
# Poissons Ratio (z) = 0.30335 0.49345
#
# Static dielectric constant tensor:
#      x y z
#    x 1.728930 0.010870 0.014190 
#    y 0.010870 1.720430 -0.008300 
#    z 0.014190 -0.008300 1.683230 
# 
# From -- ./inp_files/315781.got.cif
#   From: 2010.05.17/outbox.cif.g08.bks.cpg/sg2_158_cif.got.tgz:315781.got - 2010.06.03 11:33:40.
