data_PCOD9001899
_publ_section_title
;
Structure prediction by ZEFSAII (Michael W. Deem and Ramdas Pophale) SiO2 
 PCOD9001899
Probable space group: P -1
;
_chemical_formula_sum "Si O2"
_cell_formula_units_Z 16
_cell_length_a 9.279241
_cell_length_b 5.009713
_cell_length_c 20.838859
_cell_angle_alpha 108.364947
_cell_angle_beta 133.320381
_cell_angle_gamma 73.352847
_cell_volume 665.400978
_symmetry_space_group_name_H-M "P -1"
_symmetry_group_IT_number 2
_symmetry_cell_setting 'triclinic'
loop_
_space_group_symop_operation_xyz
x,y,z
-x,-y,-z
loop_
_atom_site_type_symbol
_atom_site_label
_atom_site_fract_x
_atom_site_fract_y
_atom_site_fract_z
Si Si1 0.815865 0.326990 0.138341
Si Si2 0.737422 0.658455 0.525909
Si Si3 0.169891 0.895050 0.231566
Si Si4 0.393070 0.105163 0.893426
Si Si5 0.488950 0.841028 0.586983
Si Si6 0.073012 0.847535 0.712077
Si Si7 0.738214 0.293831 0.933462
Si Si8 0.188846 0.317624 0.121414
O O1 0.751502 0.619285 0.107104
O O2 0.885456 0.390164 0.237486
O O3 0.630551 0.145836 0.082684
O O4 0.996435 0.095104 0.155907
O O5 0.644937 0.679787 0.571660
O O6 0.671762 0.366783 0.457064
O O7 0.965613 0.720668 0.610182
O O8 0.625672 0.903963 0.468011
O O9 0.196465 0.571860 0.193262
O O10 0.374908 0.036344 0.308299
O O11 0.084095 0.924579 0.281053
O O12 0.591498 0.226948 0.940366
O O13 0.279646 0.987286 0.786937
O O14 0.693925 0.567318 0.896078
O O15 0.736605 0.008310 0.869235
O O16 0.959475 0.314770 0.028846
#
# Coordination Sequence:
#
# PCOD9001899 Si02
#       8
#     2   2   2   2   2   2   2   2
#     4   8  18  28  49  71 100 129 154 199 236 293
#     4   9  16  25  40  67  98 127 159 186 232 280
#     4   8  18  34  47  75 102 132 156 195 254 294
#     4   9  17  32  49  71  98 125 165 201 231 293
#     4   9  17  25  42  65  99 131 152 192 228 295
#     4   7  18  28  48  72 102 130 155 196 241 287
#     4  10  21  36  54  75  93 127 169 205 240 280
#     4  10  21  36  54  73 100 125 160 209 244 285
#
# _framework density 24.045649999999998
#
# number of rings (size 3 to 8) (size 9 to 14) (size 15 to 20)
#    1.500    1.500    0.000    0.750    1.750    6.000 
#    0.000    3.125    0.000    0.000    0.000    5.250 
#    0.000    0.000    0.000    0.000    0.000    0.000 
#
# Total GULP energy -89151.889125 kJ/mol
# GULP energy per Si atom -5571.993070 kJ/mol
# Density = 2.399092 g / cm^3
# Si number density = 24.045650 Si / 1000 Ang^3
#
#
#
# Elastic Constant Matrix: (Units=GPa)
#
#
# Indices 1 2 3 4 5 6 
#
# 1 82.8908 9.3755 29.9778 5.5836 18.1300 12.9507
# 2 9.3755 86.9345 20.9508 22.4821 9.1795 20.3679
# 3 29.9778 20.9508 124.0376 30.2409 37.3335 7.3010
# 4 5.5836 22.4821 30.2409 30.7822 11.5559 5.0950
# 5 18.1300 9.1795 37.3335 11.5559 26.6378 11.2147
# 6 12.9507 20.3679 7.3010 5.0950 11.2147 23.0249
#
#
#
# Elastic Compliance Matrix: (Units=1/GPa)
#
#
# Indices 1 2 3 4 5 6 
#
# 1 0.014786 0.000208 -0.002063 0.002333 -0.005956 -0.005461
# 2 0.000208 0.018061 -0.001721 -0.011858 0.008343 -0.016987
# 3 -0.002063 -0.001721 0.017093 -0.008354 -0.022594 0.010116
# 4 0.002333 -0.011858 -0.008354 0.052030 -0.010689 0.005519
# 5 -0.005956 0.008343 -0.022594 -0.010689 0.091463 -0.039049
# 6 -0.005461 -0.016987 0.010116 0.005519 -0.039049 0.076121
#
#
# Mechanical properties :
#
#
# Convention : Reuss Voigt Hill
#
# Bulk Modulus (GPa) = 23.37153 46.05232 34.71192
# Shear Modulus (GPa) = 17.18403 31.65956 24.42180
#
# Velocity S-wave (km/s) = 2.67618 3.63250 3.19037
# Velocity P-wave (km/s) = 4.39204 6.06523 5.29514
#
# Compressibility (1/GPa) = 0.04278710
#
# Stress axis : x y z
#
# Youngs Moduli (GPa) = 67.63366 55.36797 58.50300
#
# Poissons Ratio (x) = -0.01150 0.12070
# Poissons Ratio (y) = -0.01405 0.10067
# Poissons Ratio (z) = 0.13954 0.09528
#
# Static dielectric constant tensor:
#      x y z
#    x 1.927850 -0.004530 -0.090980 
#    y -0.004530 1.893070 -0.013450 
#    z -0.090980 -0.013450 2.013650 
# 
# From -- ./inp_files/605774.got.cif
#   From: 2010.05.17/outbox.cif.g08.bks.cpg/sg2_303_cif.got.tgz:605774.got - 2010.06.03 11:33:40.
