data_PCOD9001949
_publ_section_title
;
Structure prediction by ZEFSAII (Michael W. Deem and Ramdas Pophale) SiO2 
 PCOD9001949
Probable space group: P -1
;
_chemical_formula_sum "Si O2"
_cell_formula_units_Z 14
_cell_length_a 8.054079
_cell_length_b 17.889115
_cell_length_c 8.191487
_cell_angle_alpha 66.878772
_cell_angle_beta 143.335859
_cell_angle_gamma 119.813488
_cell_volume 611.427278
_symmetry_space_group_name_H-M "P -1"
_symmetry_group_IT_number 2
_symmetry_cell_setting 'triclinic'
loop_
_space_group_symop_operation_xyz
x,y,z
-x,-y,-z
loop_
_atom_site_type_symbol
_atom_site_label
_atom_site_fract_x
_atom_site_fract_y
_atom_site_fract_z
Si Si1 0.521382 0.271783 0.534559
Si Si2 0.309482 0.296975 0.825662
Si Si3 0.658936 0.471554 0.798581
Si Si4 0.746179 0.051779 0.389621
Si Si5 0.420950 0.110149 0.803934
Si Si6 0.357644 0.805891 0.643243
Si Si7 0.815222 0.628248 0.994776
O O1 0.462182 0.205076 0.692487
O O2 0.561049 0.219107 0.449764
O O3 0.270438 0.312284 0.259041
O O4 0.833070 0.347064 0.739921
O O5 0.512087 0.371237 0.807005
O O6 0.980043 0.252819 0.539744
O O7 0.442426 0.223527 0.045800
O O8 0.285207 0.344898 0.935240
O O9 0.500000 0.500000 0.500000
O O10 0.651393 0.530499 0.898410
O O11 0.000000 0.500000 0.000000
O O12 0.628235 0.096157 0.404564
O O13 0.095578 0.070538 0.660576
O O14 0.590934 0.952342 0.307152
O O15 0.671806 0.100771 0.129838
#
# Coordination Sequence:
#
# PCOD9001949 Si02
#       7
#     2   2   2   2   2   2   2
#     4  10  21  37  59  83 107 143 187 225 267 321
#     4  10  22  40  58  79 111 147 180 221 276 327
#     4  12  25  38  57  86 112 140 184 228 269 320
#     4  10  21  36  55  81 113 147 180 220 274 326
#     4  10  21  36  55  81 113 147 180 220 274 326
#     4  10  21  37  59  83 107 143 187 225 267 321
#     4  10  22  40  58  79 111 147 180 221 276 327
#
# _framework density 22.897243
#
# number of rings (size 3 to 8) (size 9 to 14) (size 15 to 20)
#    0.000    1.714    0.000    3.857    0.000    7.429 
#    0.000    5.714    0.000   10.286    0.000    0.000 
#    0.000    0.000    0.000    0.000    0.000    0.000 
#
# Total GULP energy -78344.753635 kJ/mol
# GULP energy per Si atom -5596.053831 kJ/mol
# Density = 2.284513 g / cm^3
# Si number density = 22.897243 Si / 1000 Ang^3
#
#
#
# Elastic Constant Matrix: (Units=GPa)
#
#
# Indices 1 2 3 4 5 6 
#
# 1 37.0098 0.4003 6.8417 1.6015 -0.6171 -13.4523
# 2 0.4003 70.7828 -10.3992 0.2270 -9.3699 -21.4017
# 3 6.8417 -10.3992 110.2820 5.1033 7.9059 7.1348
# 4 1.6015 0.2270 5.1033 26.8968 -5.1195 -10.1000
# 5 -0.6171 -9.3699 7.9059 -5.1195 25.8101 -4.9247
# 6 -13.4523 -21.4017 7.1348 -10.1000 -4.9247 46.8400
#
#
#
# Elastic Compliance Matrix: (Units=1/GPa)
#
#
# Indices 1 2 3 4 5 6 
#
# 1 0.032413 0.004366 -0.003214 0.005080 0.006951 0.013620
# 2 0.004366 0.019310 -0.000354 0.006485 0.010928 0.012678
# 3 -0.003214 -0.000354 0.010034 -0.004145 -0.004868 -0.004019
# 4 0.005080 0.006485 -0.004145 0.047065 0.016309 0.016917
# 5 0.006951 0.010928 -0.004868 0.016309 0.050769 0.016586
# 6 0.013620 0.012678 -0.004019 0.016917 0.016586 0.037057
#
#
# Mechanical properties :
#
#
# Convention : Reuss Voigt Hill
#
# Bulk Modulus (GPa) = 15.78378 23.52890 19.65634
# Shear Modulus (GPa) = 23.12996 34.65818 28.89407
#
# Velocity S-wave (km/s) = 3.18176 3.89477 3.55618
# Velocity P-wave (km/s) = 4.51734 5.52484 5.04630
#
# Compressibility (1/GPa) = 0.06335619
#
# Stress axis : x y z
#
# Youngs Moduli (GPa) = 30.85154 51.78571 99.65657
#
# Poissons Ratio (x) = -0.22612 0.32026
# Poissons Ratio (y) = -0.13471 0.03526
# Poissons Ratio (z) = 0.09915 0.01832
#
# Static dielectric constant tensor:
#      x y z
#    x 1.891700 -0.081630 -0.025690 
#    y -0.081630 1.843640 0.002930 
#    z -0.025690 0.002930 1.775080 
# 
# From -- ./inp_files/38477.got.cif
#   From: 2010.05.17/outbox.cif.g08.bks.cpg/sg2_20_cif.got.tgz:38477.got - 2010.06.03 11:33:40.
