data_PCOD9001001
_publ_section_title
;
Structure prediction by ZEFSAII (Michael W. Deem and Ramdas Pophale) SiO2 
 PCOD9001001
Probable space group: P -1
;
_chemical_formula_sum "Si O2"
_cell_formula_units_Z 16
_cell_length_a 12.366538
_cell_length_b 4.936934
_cell_length_c 29.370317
_cell_angle_alpha 94.763114
_cell_angle_beta 27.940508
_cell_angle_gamma 101.289138
_cell_volume 808.002017
_symmetry_space_group_name_H-M "P -1"
_symmetry_group_IT_number 2
_symmetry_cell_setting 'triclinic'
loop_
_space_group_symop_operation_xyz
x,y,z
-x,-y,-z
loop_
_atom_site_type_symbol
_atom_site_label
_atom_site_fract_x
_atom_site_fract_y
_atom_site_fract_z
Si Si1 0.042399 0.706433 0.615280
Si Si2 0.046550 0.482677 0.036915
Si Si3 0.376216 0.308367 0.501992
Si Si4 0.595009 0.178168 0.329331
Si Si5 0.482367 0.412950 0.174627
Si Si6 0.285673 0.272113 0.769750
Si Si7 0.630083 0.983551 0.180008
Si Si8 0.924870 0.211598 0.497441
O O1 0.175005 0.457144 0.560574
O O2 0.964361 0.751768 0.593400
O O3 0.796028 0.640724 0.733897
O O4 0.233458 0.991050 0.563836
O O5 0.914507 0.644843 0.122950
O O6 0.331804 0.602649 0.934805
O O7 0.902772 0.156315 0.092353
O O8 0.000000 0.500000 0.000000
O O9 0.500000 0.500000 0.500000
O O10 0.570745 0.292153 0.390670
O O11 0.608103 0.440509 0.294147
O O12 0.782311 0.000018 0.242377
O O13 0.584788 0.732598 0.157783
O O14 0.516010 0.210400 0.201264
O O15 0.455330 0.172860 0.742804
O O16 0.648635 0.070617 0.587214
O O17 0.000000 0.500000 0.500000
O O18 0.000000 0.000000 0.500000
#
# Coordination Sequence:
#
# PCOD9001001 Si02
#       8
#     2   2   2   2   2   2   2   2
#     4  11  24  41  57  97 111 151 205 241 297 373
#     4  10  21  33  51  83 118 178 215 226 260 328
#     4  11  24  49  70  83 110 141 198 276 322 361
#     4  11  24  38  56  89 109 151 201 248 291 358
#     4  11  23  33  56  78 128 156 206 245 267 329
#     4  12  21  34  54  80 125 152 212 232 266 336
#     4  11  20  33  49  80 119 178 205 224 264 316
#     4  11  23  33  52  77 125 163 183 216 284 354
#
# _framework density 19.801929000000001
#
# number of rings (size 3 to 8) (size 9 to 14) (size 15 to 20)
#    0.000    1.000    3.750    5.250    7.000    0.000 
#    0.000    0.000    0.000    0.000    0.000    5.250 
#    0.000    0.000    0.000    0.000    0.000    0.000 
#
# Total GULP energy -89133.196406 kJ/mol
# GULP energy per Si atom -5570.824775 kJ/mol
# Density = 1.975686 g / cm^3
# Si number density = 19.801929 Si / 1000 Ang^3
#
#
#
# Elastic Constant Matrix: (Units=GPa)
#
#
# Indices 1 2 3 4 5 6 
#
# 1 32.1856 26.4555 24.3393 5.3425 8.7612 10.6275
# 2 26.4555 146.9013 44.5530 3.4320 12.8615 -4.1944
# 3 24.3393 44.5530 114.9326 17.4972 14.0884 6.4282
# 4 5.3425 3.4320 17.4972 26.4437 1.4665 9.4332
# 5 8.7612 12.8615 14.0884 1.4665 17.1052 5.1950
# 6 10.6275 -4.1944 6.4282 9.4332 5.1950 35.3652
#
#
#
# Elastic Compliance Matrix: (Units=1/GPa)
#
#
# Indices 1 2 3 4 5 6 
#
# 1 0.047581 -0.006239 -0.005563 -0.000092 -0.011343 -0.012336
# 2 -0.006239 0.008899 -0.002014 0.000300 -0.002972 0.003653
# 3 -0.005563 -0.002014 0.012350 -0.007160 -0.005786 0.001948
# 4 -0.000092 0.000300 -0.007160 0.046451 0.005323 -0.011807
# 5 -0.011343 -0.002972 -0.005786 0.005323 0.073268 -0.008075
# 6 -0.012336 0.003653 0.001948 -0.011807 -0.008075 0.036398
#
#
# Mechanical properties :
#
#
# Convention : Reuss Voigt Hill
#
# Bulk Modulus (GPa) = 24.27302 53.85725 39.06514
# Shear Modulus (GPa) = 18.77496 29.02760 23.90128
#
# Velocity S-wave (km/s) = 3.08253 3.83286 3.47799
# Velocity P-wave (km/s) = 4.99538 6.84432 5.99160
#
# Compressibility (1/GPa) = 0.04119800
#
# Stress axis : x y z
#
# Youngs Moduli (GPa) = 21.01666 112.36966 80.97129
#
# Poissons Ratio (x) = 0.70103 0.45048
# Poissons Ratio (y) = 0.13111 0.16309
# Poissons Ratio (z) = 0.11693 0.22634
#
# Static dielectric constant tensor:
#      x y z
#    x 1.709110 -0.031050 -0.002460 
#    y -0.031050 1.752310 0.050970 
#    z -0.002460 0.050970 1.875900 
# 
# From -- ./inp_files/617921.got.cif
#   From: 2010.05.17/outbox.cif.g08.bks.cpg/sg2_309_cif.got.tgz:617921.got - 2010.06.03 11:33:40.
