data_PCOD9001434
_publ_section_title
;
Structure prediction by ZEFSAII (Michael W. Deem and Ramdas Pophale) SiO2 
 PCOD9001434
Probable space group: P -1
;
_chemical_formula_sum "Si O2"
_cell_formula_units_Z 14
_cell_length_a 8.590890
_cell_length_b 11.920509
_cell_length_c 12.735809
_cell_angle_alpha 35.446819
_cell_angle_beta 75.221205
_cell_angle_gamma 90.673376
_cell_volume 672.978453
_symmetry_space_group_name_H-M "P -1"
_symmetry_group_IT_number 2
_symmetry_cell_setting 'triclinic'
loop_
_space_group_symop_operation_xyz
x,y,z
-x,-y,-z
loop_
_atom_site_type_symbol
_atom_site_label
_atom_site_fract_x
_atom_site_fract_y
_atom_site_fract_z
Si Si1 0.639628 0.167739 0.009733
Si Si2 0.522123 0.716878 0.381916
Si Si3 0.380373 0.413642 0.324938
Si Si4 0.099233 0.699135 0.955997
Si Si5 0.047841 0.072060 0.556298
Si Si6 0.691744 0.104245 0.608049
Si Si7 0.278930 0.624870 0.786664
O O1 0.816109 0.244600 0.987916
O O2 0.608561 0.941180 0.136034
O O3 0.476089 0.096372 0.174088
O O4 0.628386 0.367815 0.802333
O O5 0.500000 0.500000 0.500000
O O6 0.627706 0.727476 0.463709
O O7 0.337899 0.714098 0.457905
O O8 0.216346 0.287389 0.375771
O O9 0.561618 0.444204 0.212057
O O10 0.226163 0.630792 0.911592
O O11 0.084774 0.895970 0.748805
O O12 0.904194 0.522845 0.122921
O O13 0.873290 0.092542 0.612175
O O14 0.000000 0.000000 0.500000
O O15 0.675386 0.154395 0.450514
#
# Coordination Sequence:
#
# PCOD9001434 Si02
#       7
#     2   2   2   2   2   2   2
#     4  10  22  38  61  87 117 157 191 251 294 353
#     4   9  21  43  66  87 113 150 199 256 303 350
#     4  11  23  39  61  87 124 155 200 242 299 348
#     4  11  21  35  56  86 126 158 208 232 288 350
#     4  12  22  35  58  88 123 167 194 235 286 355
#     4   9  20  38  56  86 118 153 196 244 292 345
#     4  10  21  35  55  86 119 167 195 244 281 350
#
# _framework density 20.803042999999999
#
# number of rings (size 3 to 8) (size 9 to 14) (size 15 to 20)
#    0.857    0.857    2.857    1.714    4.000    2.286 
#    0.000    0.714    0.000    4.286    0.000    0.000 
#    0.000    0.000    0.000    0.000    0.000    0.000 
#
# Total GULP energy -78035.362398 kJ/mol
# GULP energy per Si atom -5573.954457 kJ/mol
# Density = 2.075569 g / cm^3
# Si number density = 20.803043 Si / 1000 Ang^3
#
#
#
# Elastic Constant Matrix: (Units=GPa)
#
#
# Indices 1 2 3 4 5 6 
#
# 1 93.0932 24.0986 5.3858 -16.0617 -1.0930 -6.6128
# 2 24.0986 43.0135 -10.6247 -21.9862 -2.1699 -5.3992
# 3 5.3858 -10.6247 66.8411 -13.8047 12.7983 -3.7641
# 4 -16.0617 -21.9862 -13.8047 25.5146 -4.3761 1.6111
# 5 -1.0930 -2.1699 12.7983 -4.3761 39.4918 -8.6686
# 6 -6.6128 -5.3992 -3.7641 1.6111 -8.6686 16.8375
#
#
#
# Elastic Compliance Matrix: (Units=1/GPa)
#
#
# Indices 1 2 3 4 5 6 
#
# 1 0.013052 -0.006282 -0.001763 0.001902 0.001527 0.003322
# 2 -0.006282 0.077837 0.028830 0.078646 0.009216 0.026157
# 3 -0.001763 0.028830 0.028391 0.038234 -0.001084 0.010683
# 4 0.001902 0.078646 0.038234 0.129198 0.012584 0.028630
# 5 0.001527 0.009216 -0.001084 0.012584 0.031656 0.018407
# 6 0.003322 0.026157 0.010683 0.028630 0.018407 0.078209
#
#
# Mechanical properties :
#
#
# Convention : Reuss Voigt Hill
#
# Bulk Modulus (GPa) = 6.21692 26.74079 16.47885
# Shear Modulus (GPa) = 13.49927 28.64131 21.07029
#
# Velocity S-wave (km/s) = 2.55013 3.71453 3.18598
# Velocity P-wave (km/s) = 3.41553 5.59278 4.63384
#
# Compressibility (1/GPa) = 0.16085142
#
# Stress axis : x y z
#
# Youngs Moduli (GPa) = 76.61623 12.84731 35.22217
#
# Poissons Ratio (x) = 0.08070 0.06209
# Poissons Ratio (y) = 0.48129 -1.01545
# Poissons Ratio (z) = 0.13506 -0.37039
#
# Static dielectric constant tensor:
#      x y z
#    x 1.720300 0.000990 0.014320 
#    y 0.000990 1.786240 -0.023780 
#    z 0.014320 -0.023780 1.800270 
# 
# From -- ./inp_files/179763.got.cif
#   From: 2010.05.17/outbox.cif.g08.bks.cpg/sg2_90_cif.got.tgz:179763.got - 2010.06.03 11:33:40.
