data_PCOD9001350
_publ_section_title
;
Structure prediction by ZEFSAII (Michael W. Deem and Ramdas Pophale) SiO2 
 PCOD9001350
Probable space group: P -1
;
_chemical_formula_sum "Si O2"
_cell_formula_units_Z 16
_cell_length_a 23.508411
_cell_length_b 5.281148
_cell_length_c 11.378419
_cell_angle_alpha 110.382389
_cell_angle_beta 153.597194
_cell_angle_gamma 79.131390
_cell_volume 562.450717
_symmetry_space_group_name_H-M "P -1"
_symmetry_group_IT_number 2
_symmetry_cell_setting 'triclinic'
loop_
_space_group_symop_operation_xyz
x,y,z
-x,-y,-z
loop_
_atom_site_type_symbol
_atom_site_label
_atom_site_fract_x
_atom_site_fract_y
_atom_site_fract_z
Si Si1 0.702199 0.631095 0.095487
Si Si2 0.591559 0.789459 0.158943
Si Si3 0.052540 0.309871 0.206111
Si Si4 0.183121 0.418137 0.245467
Si Si5 0.927269 0.185681 0.180999
Si Si6 0.794078 0.066859 0.139562
Si Si7 0.443944 0.217025 0.501432
Si Si8 0.681397 0.161719 0.589390
O O1 0.792834 0.891985 0.227884
O O2 0.549694 0.524570 0.741105
O O3 0.739372 0.335124 0.105892
O O4 0.670334 0.736691 0.181362
O O5 0.698328 0.955420 0.481548
O O6 0.500000 0.500000 0.000000
O O7 0.500000 0.000000 0.000000
O O8 0.934531 0.446014 0.984602
O O9 0.054922 0.313641 0.352833
O O10 0.180930 0.461054 0.389025
O O11 0.000000 0.000000 0.000000
O O12 0.126937 0.118238 0.030905
O O13 0.318317 0.573003 0.449512
O O14 0.925984 0.179609 0.318299
O O15 0.801414 0.295285 0.925966
O O16 0.696133 0.837424 0.834179
O O17 0.500000 0.000000 0.500000
O O18 0.427803 0.065636 0.574776
#
# Coordination Sequence:
#
# PCOD9001350 Si02
#       8
#     2   2   2   2   2   2   2   2
#     4  11  22  39  51  75 105 144 189 231 271 319
#     4  12  26  41  58  74 107 152 201 238 270 314
#     4   8  15  30  48  82 117 141 165 212 277 347
#     4   9  17  29  54  79 115 140 175 218 276 341
#     4   9  19  32  55  83 115 139 177 222 284 343
#     4  10  22  34  55  78 106 139 180 226 282 329
#     4   9  19  33  52  73 106 135 179 227 280 325
#     4  10  21  35  51  81 104 149 187 229 274 322
#
# _framework density 28.446940999999999
#
# number of rings (size 3 to 8) (size 9 to 14) (size 15 to 20)
#    0.000    2.250    1.250    1.125   10.500    0.000 
#    0.000    0.000    0.000    0.000    0.000    1.750 
#    0.000    0.000    0.000    0.000    0.000    0.000 
#
# Total GULP energy -89341.205317 kJ/mol
# GULP energy per Si atom -5583.825332 kJ/mol
# Density = 2.838219 g / cm^3
# Si number density = 28.446941 Si / 1000 Ang^3
#
#
#
# Elastic Constant Matrix: (Units=GPa)
#
#
# Indices 1 2 3 4 5 6 
#
# 1 293.9266 81.2779 18.4996 -0.5182 -15.2765 28.8387
# 2 81.2779 149.0067 12.8741 -3.1782 -0.9470 4.0467
# 3 18.4996 12.8741 84.3510 13.5606 -15.1530 2.6069
# 4 -0.5182 -3.1782 13.5606 28.4898 6.7864 1.9408
# 5 -15.2765 -0.9470 -15.1530 6.7864 45.8475 5.1615
# 6 28.8387 4.0467 2.6069 1.9408 5.1615 57.4668
#
#
#
# Elastic Compliance Matrix: (Units=1/GPa)
#
#
# Indices 1 2 3 4 5 6 
#
# 1 0.004342 -0.002290 -0.000192 -0.000326 0.001626 -0.002144
# 2 -0.002290 0.008080 -0.001276 0.001742 -0.001355 0.000701
# 3 -0.000192 -0.001276 0.014565 -0.008472 0.006060 -0.000733
# 4 -0.000326 0.001742 -0.008472 0.041475 -0.008993 -0.000168
# 5 0.001626 -0.001355 0.006060 -0.008993 0.026000 -0.003027
# 6 -0.002144 0.000701 -0.000733 -0.000168 -0.003027 0.018739
#
#
# Mechanical properties :
#
#
# Convention : Reuss Voigt Hill
#
# Bulk Modulus (GPa) = 51.35817 83.62082 67.48950
# Shear Modulus (GPa) = 39.30582 54.00302 46.65442
#
# Velocity S-wave (km/s) = 3.72119 4.36176 4.05415
# Velocity P-wave (km/s) = 6.04617 7.40445 6.75951
#
# Compressibility (1/GPa) = 0.01947110
#
# Stress axis : x y z
#
# Youngs Moduli (GPa) = 230.31745 123.76155 68.65557
#
# Poissons Ratio (x) = 0.28343 0.01318
# Poissons Ratio (y) = 0.52746 0.08761
# Poissons Ratio (z) = 0.04421 0.15792
#
# Static dielectric constant tensor:
#      x y z
#    x 2.317420 0.090710 0.086180 
#    y 0.090710 2.614340 -0.065370 
#    z 0.086180 -0.065370 2.275040 
# 
# From -- ./inp_files/468203.got.cif
#   From: 2010.05.17/outbox.cif.g08.bks.cpg/sg2_235_cif.got.tgz:468203.got - 2010.06.03 11:33:40.
