data_PCOD9001675
_publ_section_title
;
Structure prediction by ZEFSAII (Michael W. Deem and Ramdas Pophale) SiO2 
 PCOD9001675
Probable space group: P -1
;
_chemical_formula_sum "Si O2"
_cell_formula_units_Z 16
_cell_length_a 11.949547
_cell_length_b 9.606041
_cell_length_c 16.538569
_cell_angle_alpha 36.032306
_cell_angle_beta 135.117366
_cell_angle_gamma 132.764793
_cell_volume 761.906862
_symmetry_space_group_name_H-M "P -1"
_symmetry_group_IT_number 2
_symmetry_cell_setting 'triclinic'
loop_
_space_group_symop_operation_xyz
x,y,z
-x,-y,-z
loop_
_atom_site_type_symbol
_atom_site_label
_atom_site_fract_x
_atom_site_fract_y
_atom_site_fract_z
Si Si1 0.213216 0.943512 0.718036
Si Si2 0.752880 0.816520 0.788987
Si Si3 0.005723 0.321533 0.404128
Si Si4 0.423758 0.799634 0.191181
Si Si5 0.135749 0.748134 0.465304
Si Si6 0.827129 0.324325 0.020892
Si Si7 0.275731 0.806047 0.286576
Si Si8 0.541942 0.331493 0.411989
O O1 0.112295 0.730040 0.709180
O O2 0.148023 0.173899 0.546305
O O3 0.410016 0.993259 0.799940
O O4 0.154700 0.872298 0.812151
O O5 0.755768 0.535681 0.926604
O O6 0.602906 0.807650 0.654615
O O7 0.884540 0.025998 0.707473
O O8 0.745446 0.931179 0.819523
O O9 0.112799 0.601161 0.326677
O O10 0.887160 0.211358 0.470442
O O11 0.294009 0.810717 0.048599
O O12 0.320225 0.759532 0.239844
O O13 0.499246 0.581279 0.299724
O O14 0.297164 0.666188 0.558513
O O15 0.000000 0.500000 0.500000
O O16 0.000000 0.500000 0.000000
O O17 0.425424 0.782221 0.432389
#
# Coordination Sequence:
#
# PCOD9001675 Si02
#       8
#     2   2   2   2   2   2   2   2
#     4  11  24  41  62  95 125 167 213 260 306 369
#     4  10  23  38  64  90 129 166 208 251 316 381
#     4  11  23  37  65  98 128 157 210 264 317 363
#     4  11  23  40  68  91 125 167 213 256 308 377
#     4  11  18  35  60  93 129 159 202 258 311 360
#     4  11  24  46  65  86 127 173 212 252 313 382
#     4  11  20  39  61  99 125 159 206 263 319 363
#     4  10  21  35  60  94 128 165 201 253 314 373
#
# _framework density 20.999942999999998
#
# number of rings (size 3 to 8) (size 9 to 14) (size 15 to 20)
#    0.000    1.250    3.750    3.750    3.500    2.000 
#    0.000    3.125    0.000    0.000    0.000    0.000 
#    0.000    0.000    0.000    0.000    0.000    0.000 
#
# Total GULP energy -89101.347762 kJ/mol
# GULP energy per Si atom -5568.834235 kJ/mol
# Density = 2.095215 g / cm^3
# Si number density = 20.999943 Si / 1000 Ang^3
#
#
#
# Elastic Constant Matrix: (Units=GPa)
#
#
# Indices 1 2 3 4 5 6 
#
# 1 71.3030 7.1618 5.0230 3.9649 -6.7331 -4.4322
# 2 7.1618 111.6403 26.1414 14.4806 6.9083 4.1340
# 3 5.0230 26.1414 41.5013 19.7983 -4.3023 2.7936
# 4 3.9649 14.4806 19.7983 27.7063 -1.1029 -2.7290
# 5 -6.7331 6.9083 -4.3023 -1.1029 17.7002 -3.9634
# 6 -4.4322 4.1340 2.7936 -2.7290 -3.9634 28.4065
#
#
#
# Elastic Compliance Matrix: (Units=1/GPa)
#
#
# Indices 1 2 3 4 5 6 
#
# 1 0.015091 -0.001413 -0.000096 -0.000732 0.007002 0.003476
# 2 -0.001413 0.011387 -0.006994 -0.001271 -0.007282 -0.002328
# 3 -0.000096 -0.006994 0.042693 -0.026849 0.010430 -0.004320
# 4 -0.000732 -0.001271 -0.026849 0.056800 -0.000970 0.008032
# 5 0.007002 -0.007282 0.010430 -0.000970 0.066795 0.010353
# 6 0.003476 -0.002328 -0.004320 0.008032 0.010353 0.038725
#
#
# Mechanical properties :
#
#
# Convention : Reuss Voigt Hill
#
# Bulk Modulus (GPa) = 19.16923 33.45521 26.31222
# Shear Modulus (GPa) = 18.80515 27.17049 22.98782
#
# Velocity S-wave (km/s) = 2.99571 3.60090 3.31216
# Velocity P-wave (km/s) = 4.59497 5.76665 5.21383
#
# Compressibility (1/GPa) = 0.05216693
#
# Stress axis : x y z
#
# Youngs Moduli (GPa) = 66.26358 87.81738 23.42324
#
# Poissons Ratio (x) = 0.12407 0.00224
# Poissons Ratio (y) = 0.09362 0.16381
# Poissons Ratio (z) = 0.00634 0.61416
#
# Static dielectric constant tensor:
#      x y z
#    x 1.770360 -0.073610 0.053300 
#    y -0.073610 1.780510 0.011760 
#    z 0.053300 0.011760 1.756640 
# 
# From -- ./inp_files/514965.got.cif
#   From: 2010.05.17/outbox.cif.g08.bks.cpg/sg2_258_cif.got.tgz:514965.got - 2010.06.03 11:33:40.
