data_PCOD9001191
_publ_section_title
;
Structure prediction by ZEFSAII (Michael W. Deem and Ramdas Pophale) SiO2 
 PCOD9001191
Probable space group: P -1
;
_chemical_formula_sum "Si O2"
_cell_formula_units_Z 16
_cell_length_a 5.321282
_cell_length_b 26.938522
_cell_length_c 14.604853
_cell_angle_alpha 30.616154
_cell_angle_beta 78.800739
_cell_angle_gamma 65.178973
_cell_volume 902.326127
_symmetry_space_group_name_H-M "P -1"
_symmetry_group_IT_number 2
_symmetry_cell_setting 'triclinic'
loop_
_space_group_symop_operation_xyz
x,y,z
-x,-y,-z
loop_
_atom_site_type_symbol
_atom_site_label
_atom_site_fract_x
_atom_site_fract_y
_atom_site_fract_z
Si Si1 0.046241 0.490870 0.864533
Si Si2 0.156119 0.184284 0.853093
Si Si3 0.653266 0.682481 0.727503
Si Si4 0.165447 0.602219 0.348657
Si Si5 0.862771 0.039768 0.048336
Si Si6 0.221328 0.664700 0.515099
Si Si7 0.161608 0.492288 0.352182
Si Si8 0.946487 0.201441 0.510636
O O1 0.217048 0.558993 0.727176
O O2 0.780105 0.577504 0.812622
O O3 0.946090 0.476676 0.793630
O O4 0.243620 0.376854 0.087213
O O5 0.956410 0.271572 0.808172
O O6 0.065717 0.257202 0.649516
O O7 0.508590 0.126583 0.932541
O O8 0.044764 0.095134 0.989633
O O9 0.302346 0.753970 0.621338
O O10 0.818650 0.754549 0.585125
O O11 0.500000 0.500000 0.500000
O O12 0.113241 0.595703 0.254752
O O13 0.995503 0.560846 0.493614
O O14 0.909012 0.931125 0.273587
O O15 0.000000 0.000000 0.000000
O O16 0.500794 0.608921 0.517906
O O17 0.230738 0.740595 0.474652
#
# Coordination Sequence:
#
# PCOD9001191 Si02
#       8
#     2   2   2   2   2   2   2   2
#     4  10  21  34  56  87 120 160 194 237 298 371
#     4  12  24  39  57  89 120 160 193 247 286 358
#     4  10  23  36  59  85 122 158 198 244 299 348
#     4  11  23  35  57  87 121 166 191 244 299 363
#     4  12  26  38  61  85 117 163 213 233 299 352
#     4  11  21  33  60  83 128 155 196 234 300 352
#     4  11  20  36  56  84 126 157 198 230 299 366
#     4  11  23  39  57  84 120 160 201 247 286 347
#
# _framework density 17.731947000000002
#
# number of rings (size 3 to 8) (size 9 to 14) (size 15 to 20)
#    0.000    1.000    5.000    1.875    7.000    1.500 
#    0.000    0.000    0.000    0.000    0.000    5.250 
#    0.000    0.000    0.000    0.000    0.000    0.000 
#
# Total GULP energy -89261.689680 kJ/mol
# GULP energy per Si atom -5578.855605 kJ/mol
# Density = 1.769159 g / cm^3
# Si number density = 17.731947 Si / 1000 Ang^3
#
#
#
# Elastic Constant Matrix: (Units=GPa)
#
#
# Indices 1 2 3 4 5 6 
#
# 1 53.1389 19.1907 22.1208 -5.6445 10.3878 6.4276
# 2 19.1907 82.0999 33.5095 -1.1515 4.8932 22.9531
# 3 22.1208 33.5095 85.2054 0.8955 1.9052 2.1492
# 4 -5.6445 -1.1515 0.8955 27.8386 4.2414 0.0652
# 5 10.3878 4.8932 1.9052 4.2414 31.7500 -7.4671
# 6 6.4276 22.9531 2.1492 0.0652 -7.4671 29.9714
#
#
#
# Elastic Compliance Matrix: (Units=1/GPa)
#
#
# Indices 1 2 3 4 5 6 
#
# 1 0.025132 -0.000847 -0.005860 0.006831 -0.010275 -0.006896
# 2 -0.000847 0.020387 -0.007254 0.001947 -0.006583 -0.016556
# 3 -0.005860 -0.007254 0.015880 -0.002624 0.004003 0.006676
# 4 0.006831 0.001947 -0.002624 0.038815 -0.008746 -0.005031
# 5 -0.010275 -0.006583 0.004003 -0.008746 0.040834 0.017151
# 6 -0.006896 -0.016556 0.006676 -0.005031 0.017151 0.051328
#
#
# Mechanical properties :
#
#
# Convention : Reuss Voigt Hill
#
# Bulk Modulus (GPa) = 29.86980 41.12070 35.49525
# Shear Modulus (GPa) = 21.60234 27.62022 24.61128
#
# Velocity S-wave (km/s) = 3.49416 3.95099 3.72958
# Velocity P-wave (km/s) = 5.75853 6.63734 6.21349
#
# Compressibility (1/GPa) = 0.03347863
#
# Stress axis : x y z
#
# Youngs Moduli (GPa) = 39.79009 49.05065 62.97223
#
# Poissons Ratio (x) = 0.04154 0.36900
# Poissons Ratio (y) = 0.03369 0.45678
# Poissons Ratio (z) = 0.23316 0.35580
#
# Static dielectric constant tensor:
#      x y z
#    x 1.690910 0.006050 0.026220 
#    y 0.006050 1.663410 -0.054610 
#    z 0.026220 -0.054610 1.654110 
# 
# From -- ./inp_files/83204.got.cif
#   From: 2010.05.17/outbox.cif.g08.bks.cpg/sg2_42_cif.got.tgz:83204.got - 2010.06.03 11:33:40.
