data_PCOD9001982
_publ_section_title
;
Structure prediction by ZEFSAII (Michael W. Deem and Ramdas Pophale) SiO2 
 PCOD9001982
Probable space group: P -1
;
_chemical_formula_sum "Si O2"
_cell_formula_units_Z 16
_cell_length_a 25.174619
_cell_length_b 5.427372
_cell_length_c 5.462756
_cell_angle_alpha 59.661945
_cell_angle_beta 108.247232
_cell_angle_gamma 94.322925
_cell_volume 608.656513
_symmetry_space_group_name_H-M "P -1"
_symmetry_group_IT_number 2
_symmetry_cell_setting 'triclinic'
loop_
_space_group_symop_operation_xyz
x,y,z
-x,-y,-z
loop_
_atom_site_type_symbol
_atom_site_label
_atom_site_fract_x
_atom_site_fract_y
_atom_site_fract_z
Si Si1 0.952905 0.042766 0.121186
Si Si2 0.183158 0.482515 0.723520
Si Si3 0.842664 0.923056 0.741101
Si Si4 0.709665 0.841481 0.127565
Si Si5 0.454806 0.276041 0.046413
Si Si6 0.672335 0.193220 0.395561
Si Si7 0.565637 0.901462 0.393561
Si Si8 0.076396 0.373308 0.365327
O O1 0.966583 0.799548 0.464712
O O2 0.888883 0.984270 0.983737
O O3 0.945860 0.383013 0.978475
O O4 0.000000 0.000000 0.000000
O O5 0.223035 0.248818 0.748139
O O6 0.117533 0.516883 0.537909
O O7 0.198890 0.796783 0.518513
O O8 0.185561 0.355153 0.064644
O O9 0.882342 0.854800 0.603328
O O10 0.691952 0.020573 0.258356
O O11 0.686926 0.523312 0.248812
O O12 0.693797 0.026932 0.762833
O O13 0.421778 0.269894 0.253435
O O14 0.497845 0.978514 0.257185
O O15 0.500000 0.500000 0.000000
O O16 0.421858 0.273044 0.748317
O O17 0.604947 0.159476 0.319567
#
# Coordination Sequence:
#
# PCOD9001982 Si02
#       8
#     2   2   2   2   2   2   2   2
#     4  10  21  36  55  89 125 157 205 255 325 408
#     4  10  23  39  64  87 123 161 222 280 326 412
#     4  10  21  39  61  89 119 163 213 271 331 390
#     4  12  28  49  73 107 142 193 242 297 373 431
#     4  10  21  40  66  97 128 181 232 282 345 407
#     4  12  28  49  73 109 148 193 236 301 368 432
#     4  10  23  39  65  97 135 177 234 286 344 422
#     4  10  21  37  59  86 116 166 206 265 328 383
#
# _framework density 26.287406000000001
#
# number of rings (size 3 to 8) (size 9 to 14) (size 15 to 20)
#    0.000    1.500    0.000    3.750    7.000    1.000 
#    0.000    0.000    0.000    0.000    0.000    0.000 
#    0.000    0.000    0.000    0.000    0.000    0.000 
#
# Total GULP energy -89380.980885 kJ/mol
# GULP energy per Si atom -5586.311305 kJ/mol
# Density = 2.622757 g / cm^3
# Si number density = 26.287406 Si / 1000 Ang^3
#
#
#
# Elastic Constant Matrix: (Units=GPa)
#
#
# Indices 1 2 3 4 5 6 
#
# 1 97.6649 21.9814 48.3504 3.1961 -2.4630 3.1072
# 2 21.9814 120.5193 67.4071 7.4409 -13.0602 6.4563
# 3 48.3504 67.4071 211.1031 0.2908 -34.5354 -9.4647
# 4 3.1961 7.4409 0.2908 39.6202 -7.5127 -4.7463
# 5 -2.4630 -13.0602 -34.5354 -7.5127 46.3481 -8.5680
# 6 3.1072 6.4563 -9.4647 -4.7463 -8.5680 48.5519
#
#
#
# Elastic Compliance Matrix: (Units=1/GPa)
#
#
# Indices 1 2 3 4 5 6 
#
# 1 0.011904 -0.000548 -0.003017 -0.001502 -0.002353 -0.001839
# 2 -0.000548 0.010519 -0.003398 -0.002258 -0.000391 -0.002316
# 3 -0.003017 -0.003398 0.007557 0.002264 0.005491 0.003308
# 4 -0.001502 -0.002258 0.002264 0.027516 0.006288 0.004637
# 5 -0.002353 -0.000391 0.005491 0.006288 0.027704 0.006777
# 6 -0.001839 -0.002316 0.003308 0.004637 0.006777 0.023316
#
#
# Mechanical properties :
#
#
# Convention : Reuss Voigt Hill
#
# Bulk Modulus (GPa) = 62.28778 78.30725 70.29751
# Shear Modulus (GPa) = 39.12558 46.34060 42.73309
#
# Velocity S-wave (km/s) = 3.86213 4.20318 4.03626
# Velocity P-wave (km/s) = 6.60564 7.30816 6.96576
#
# Compressibility (1/GPa) = 0.01605451
#
# Stress axis : x y z
#
# Youngs Moduli (GPa) = 84.00340 95.06653 132.33354
#
# Poissons Ratio (x) = 0.05205 0.39926
# Poissons Ratio (y) = 0.04599 0.44968
# Poissons Ratio (z) = 0.25344 0.32305
#
# Static dielectric constant tensor:
#      x y z
#    x 2.110670 -0.011060 0.014650 
#    y -0.011060 2.211080 0.161150 
#    z 0.014650 0.161150 2.431680 
# 
# From -- ./inp_files/13498.got.cif
#   From: 2010.05.17/outbox.cif.g08.bks.cpg/sg2_7_cif.got.tgz:13498.got - 2010.06.03 11:33:40.
