data_PCOD9001387
_publ_section_title
;
Structure prediction by ZEFSAII (Michael W. Deem and Ramdas Pophale) SiO2 
 PCOD9001387
Probable space group: P -1
;
_chemical_formula_sum "Si O2"
_cell_formula_units_Z 14
_cell_length_a 12.054360
_cell_length_b 12.218242
_cell_length_c 14.438645
_cell_angle_alpha 94.976217
_cell_angle_beta 160.915987
_cell_angle_gamma 83.166577
_cell_volume 688.184277
_symmetry_space_group_name_H-M "P -1"
_symmetry_group_IT_number 2
_symmetry_cell_setting 'triclinic'
loop_
_space_group_symop_operation_xyz
x,y,z
-x,-y,-z
loop_
_atom_site_type_symbol
_atom_site_label
_atom_site_fract_x
_atom_site_fract_y
_atom_site_fract_z
Si Si1 0.749231 0.905029 0.817802
Si Si2 0.433859 0.165147 0.124236
Si Si3 0.330835 0.636177 0.778134
Si Si4 0.264216 0.785470 0.095045
Si Si5 0.895707 0.959382 0.297078
Si Si6 0.469602 0.377748 0.862240
Si Si7 0.174760 0.086761 0.380714
O O1 0.688192 0.864631 0.871144
O O2 0.392365 0.973503 0.510686
O O3 0.921594 0.800413 0.887933
O O4 0.000000 0.000000 0.000000
O O5 0.499573 0.287868 0.155524
O O6 0.817068 0.097358 0.411514
O O7 0.151936 0.129741 0.828384
O O8 0.493675 0.508824 0.889569
O O9 0.927683 0.638947 0.445488
O O10 0.372275 0.671624 0.920527
O O11 0.368811 0.679119 0.107199
O O12 0.574346 0.818415 0.404935
O O13 0.155461 0.879790 0.938751
O O14 0.060631 0.061717 0.391442
O O15 0.500000 0.000000 0.000000
#
# Coordination Sequence:
#
# PCOD9001387 Si02
#       7
#     2   2   2   2   2   2   2
#     4   9  20  39  56  81 119 155 191 228 278 341
#     4  11  23  38  58  82 115 159 186 232 294 332
#     4  10  22  41  59  84 116 146 190 243 296 340
#     4  11  21  35  61  82 109 153 196 231 280 338
#     4  11  23  35  52  83 119 149 188 229 278 346
#     4  10  22  39  62  85 111 148 192 244 292 337
#     4  10  21  35  54  82 116 150 189 227 279 339
#
# _framework density 20.343388999999998
#
# number of rings (size 3 to 8) (size 9 to 14) (size 15 to 20)
#    0.000    1.714    0.000    5.143    6.000    3.429 
#    0.000    0.714    0.000    0.000    0.000   16.000 
#    0.000    0.000    0.000    0.000    0.000    0.000 
#
# Total GULP energy -78019.751725 kJ/mol
# GULP energy per Si atom -5572.839409 kJ/mol
# Density = 2.029709 g / cm^3
# Si number density = 20.343389 Si / 1000 Ang^3
#
#
#
# Elastic Constant Matrix: (Units=GPa)
#
#
# Indices 1 2 3 4 5 6 
#
# 1 77.5674 36.5057 10.4194 9.6475 9.8123 -4.5828
# 2 36.5057 73.7026 16.0892 1.4830 10.0452 2.2657
# 3 10.4194 16.0892 83.5884 4.3290 -7.0992 4.8987
# 4 9.6475 1.4830 4.3290 13.2374 -2.9337 0.9738
# 5 9.8123 10.0452 -7.0992 -2.9337 39.6629 -6.7556
# 6 -4.5828 2.2657 4.8987 0.9738 -6.7556 39.6968
#
#
#
# Elastic Compliance Matrix: (Units=1/GPa)
#
#
# Indices 1 2 3 4 5 6 
#
# 1 0.019425 -0.008892 -0.000414 -0.013929 -0.003216 0.002596
# 2 -0.008892 0.019027 -0.002932 0.004776 -0.003201 -0.002413
# 3 -0.000414 -0.002932 0.013024 -0.002940 0.002799 -0.000939
# 4 -0.013929 0.004776 -0.002940 0.088028 0.007821 -0.002346
# 5 -0.003216 -0.003201 0.002799 0.007821 0.028604 0.004142
# 6 0.002596 -0.002413 -0.000939 -0.002346 0.004142 0.026507
#
#
# Mechanical properties :
#
#
# Convention : Reuss Voigt Hill
#
# Bulk Modulus (GPa) = 37.03579 40.09853 38.56716
# Shear Modulus (GPa) = 21.92115 29.97571 25.94843
#
# Velocity S-wave (km/s) = 3.28618 3.84277 3.57532
# Velocity P-wave (km/s) = 5.71344 6.28035 6.00359
#
# Compressibility (1/GPa) = 0.02700091
#
# Stress axis : x y z
#
# Youngs Moduli (GPa) = 51.47940 52.55699 76.77999
#
# Poissons Ratio (x) = 0.46736 0.03175
# Poissons Ratio (y) = 0.45778 0.22510
# Poissons Ratio (z) = 0.02129 0.15408
#
# Static dielectric constant tensor:
#      x y z
#    x 1.832380 -0.058220 0.023320 
#    y -0.058220 1.749580 -0.014880 
#    z 0.023320 -0.014880 1.748940 
# 
# From -- ./inp_files/63427.got.cif
#   From: 2010.05.17/outbox.cif.g08.bks.cpg/sg2_32_cif.got.tgz:63427.got - 2010.06.03 11:33:40.
