data_PCOD9001300
_publ_section_title
;
Structure prediction by ZEFSAII (Michael W. Deem and Ramdas Pophale) SiO2 
 PCOD9001300
Probable space group: P -1
;
_chemical_formula_sum "Si O2"
_cell_formula_units_Z 14
_cell_length_a 8.667672
_cell_length_b 15.025602
_cell_length_c 8.561939
_cell_angle_alpha 44.412058
_cell_angle_beta 132.791802
_cell_angle_gamma 122.647325
_cell_volume 569.443097
_symmetry_space_group_name_H-M "P -1"
_symmetry_group_IT_number 2
_symmetry_cell_setting 'triclinic'
loop_
_space_group_symop_operation_xyz
x,y,z
-x,-y,-z
loop_
_atom_site_type_symbol
_atom_site_label
_atom_site_fract_x
_atom_site_fract_y
_atom_site_fract_z
Si Si1 0.203987 0.851491 0.904004
Si Si2 0.149917 0.627980 0.924232
Si Si3 0.953420 0.038730 0.641550
Si Si4 0.067821 0.768450 0.374690
Si Si5 0.639874 0.766563 0.407400
Si Si6 0.354951 0.374936 0.725586
Si Si7 0.584307 0.399161 0.308489
O O1 0.129538 0.712924 0.956881
O O2 0.209221 0.938736 0.638977
O O3 0.042199 0.902364 0.852779
O O4 0.433977 0.840544 0.144361
O O5 0.071180 0.693459 0.635124
O O6 0.398933 0.629053 0.060329
O O7 0.000000 0.500000 0.000000
O O8 0.162199 0.131267 0.615606
O O9 0.887331 0.087186 0.705388
O O10 0.246546 0.699751 0.494941
O O11 0.826135 0.730902 0.198724
O O12 0.638859 0.655043 0.416270
O O13 0.613322 0.692369 0.644464
O O14 0.308861 0.510578 0.592498
O O15 0.500000 0.500000 0.000000
#
# Coordination Sequence:
#
# PCOD9001300 Si02
#       7
#     2   2   2   2   2   2   2
#     4   9  19  36  63  92 118 155 205 254 300 349
#     4  10  21  34  61  94 122 153 201 252 297 367
#     4   9  19  39  65  89 115 158 212 253 295 355
#     4  10  22  37  58  85 124 161 197 251 305 362
#     4  10  22  38  63  90 117 159 212 250 295 368
#     4  10  22  39  58  86 119 165 201 243 302 366
#     4  12  24  39  56  90 134 164 196 253 319 361
#
# _framework density 24.585425000000001
#
# number of rings (size 3 to 8) (size 9 to 14) (size 15 to 20)
#    0.000    2.000    1.429    1.286   10.000    0.000 
#    2.571    0.714    0.000    7.714    0.000    0.000 
#    0.000    0.000    0.000    0.000    0.000    0.000 
#
# Total GULP energy -78109.000232 kJ/mol
# GULP energy per Si atom -5579.214302 kJ/mol
# Density = 2.452947 g / cm^3
# Si number density = 24.585425 Si / 1000 Ang^3
#
#
#
# Elastic Constant Matrix: (Units=GPa)
#
#
# Indices 1 2 3 4 5 6 
#
# 1 121.3805 51.6131 36.5835 -9.5406 32.4836 -27.9650
# 2 51.6131 94.6466 -0.5085 -11.2290 9.0026 -37.6113
# 3 36.5835 -0.5085 100.7262 -1.2229 21.8633 6.9912
# 4 -9.5406 -11.2290 -1.2229 21.3150 3.4567 19.6873
# 5 32.4836 9.0026 21.8633 3.4567 35.1240 -11.9298
# 6 -27.9650 -37.6113 6.9912 19.6873 -11.9298 54.5426
#
#
#
# Elastic Compliance Matrix: (Units=1/GPa)
#
#
# Indices 1 2 3 4 5 6 
#
# 1 0.015472 -0.007176 -0.002926 0.006235 -0.011759 -0.001463
# 2 -0.007176 0.018049 0.000313 -0.006256 0.006657 0.012441
# 3 -0.002926 0.000313 0.013793 0.009003 -0.009708 -0.008425
# 4 0.006235 -0.006256 0.009003 0.091727 -0.033283 -0.042660
# 5 -0.011759 0.006657 -0.009708 -0.033283 0.055062 0.023863
# 6 -0.001463 0.012441 -0.008425 -0.042660 0.023863 0.047860
#
#
# Mechanical properties :
#
#
# Convention : Reuss Voigt Hill
#
# Bulk Modulus (GPa) = 36.05391 54.68105 45.36748
# Shear Modulus (GPa) = 18.46473 37.46734 27.96603
#
# Velocity S-wave (km/s) = 2.74349 3.90804 3.37635
# Velocity P-wave (km/s) = 4.97315 6.53094 5.80454
#
# Compressibility (1/GPa) = 0.02773624
#
# Stress axis : x y z
#
# Youngs Moduli (GPa) = 64.63469 55.40462 72.49876
#
# Poissons Ratio (x) = 0.39759 0.21212
# Poissons Ratio (y) = 0.46382 -0.02270
# Poissons Ratio (z) = 0.18911 -0.01735
#
# Static dielectric constant tensor:
#      x y z
#    x 2.043100 -0.096940 0.047580 
#    y -0.096940 2.101840 -0.011840 
#    z 0.047580 -0.011840 2.052330 
# 
# From -- ./inp_files/199958.got.cif
#   From: 2010.05.17/outbox.cif.g08.bks.cpg/sg2_100_cif.got.tgz:199958.got - 2010.06.03 11:33:40.
