data_PCOD9001858
_publ_section_title
;
Structure prediction by ZEFSAII (Michael W. Deem and Ramdas Pophale) SiO2 
 PCOD9001858
Probable space group: P -1
;
_chemical_formula_sum "Si O2"
_cell_formula_units_Z 12
_cell_length_a 19.448176
_cell_length_b 7.004440
_cell_length_c 4.944688
_cell_angle_alpha 109.937457
_cell_angle_beta 106.559256
_cell_angle_gamma 122.930531
_cell_volume 426.705703
_symmetry_space_group_name_H-M "P -1"
_symmetry_group_IT_number 2
_symmetry_cell_setting 'triclinic'
loop_
_space_group_symop_operation_xyz
x,y,z
-x,-y,-z
loop_
_atom_site_type_symbol
_atom_site_label
_atom_site_fract_x
_atom_site_fract_y
_atom_site_fract_z
Si Si1 0.633102 0.018512 0.488488
Si Si2 0.091690 0.749565 0.524023
Si Si3 0.860597 0.540209 0.923539
Si Si4 0.122775 0.181087 0.415942
Si Si5 0.715007 0.745318 0.638591
Si Si6 0.499847 0.738218 0.685095
O O1 0.668321 0.854764 0.504524
O O2 0.580420 0.993462 0.689402
O O3 0.738613 0.323376 0.653723
O O4 0.546281 0.855370 0.088687
O O5 0.115327 0.625034 0.268283
O O6 0.000000 0.500000 0.500000
O O7 0.063821 0.892845 0.384215
O O8 0.193315 0.000735 0.934994
O O9 0.907253 0.809032 0.913169
O O10 0.873096 0.614308 0.289427
O O11 0.230964 0.286838 0.538652
O O12 0.619250 0.448315 0.536663
O O13 0.500000 0.500000 0.500000
#
# Coordination Sequence:
#
# PCOD9001858 Si02
#       6
#     2   2   2   2   2   2
#     4  11  22  42  73 109 146 201 245 293 368 443
#     4  12  29  53  81 110 146 201 252 308 382 447
#     4  12  26  49  76 110 156 190 244 314 366 443
#     4  12  27  48  77 111 153 192 247 312 377 430
#     4  11  23  47  74 109 156 192 250 313 364 441
#     4  10  21  35  73 110 142 197 251 291 364 438
#
# _framework density 28.122427999999999
#
# number of rings (size 3 to 8) (size 9 to 14) (size 15 to 20)
#    0.000    0.667    3.333    6.000    2.333    2.000 
#    0.000    5.000    0.000    0.000    0.000    0.000 
#    0.000    0.000    0.000    0.000    0.000    0.000 
#
# Total GULP energy -67365.558781 kJ/mol
# GULP energy per Si atom -5613.796565 kJ/mol
# Density = 2.805842 g / cm^3
# Si number density = 28.122428 Si / 1000 Ang^3
#
#
#
# Elastic Constant Matrix: (Units=GPa)
#
#
# Indices 1 2 3 4 5 6 
#
# 1 188.8580 41.5131 51.7362 -11.9867 -21.7494 23.0648
# 2 41.5131 161.7384 34.6562 -7.6353 8.7134 22.5714
# 3 51.7362 34.6562 181.0770 -12.6776 -0.6407 16.0439
# 4 -11.9867 -7.6353 -12.6776 52.9506 10.5453 10.3643
# 5 -21.7494 8.7134 -0.6407 10.5453 49.9800 -2.8085
# 6 23.0648 22.5714 16.0439 10.3643 -2.8085 65.8254
#
#
#
# Elastic Compliance Matrix: (Units=1/GPa)
#
#
# Indices 1 2 3 4 5 6 
#
# 1 0.006515 -0.001279 -0.001428 0.000679 0.002813 -0.001483
# 2 -0.001279 0.007154 -0.000721 0.001436 -0.002237 -0.002151
# 3 -0.001428 -0.000721 0.006257 0.001428 -0.000775 -0.001036
# 4 0.000679 0.001436 0.001428 0.021440 -0.004722 -0.004655
# 5 0.002813 -0.002237 -0.000775 -0.004722 0.022703 0.001682
# 6 -0.001483 -0.002151 -0.001036 -0.004655 0.001682 0.017506
#
#
# Mechanical properties :
#
#
# Convention : Reuss Voigt Hill
#
# Bulk Modulus (GPa) = 76.49915 87.49825 81.99870
# Shear Modulus (GPa) = 53.88626 60.66905 57.27766
#
# Velocity S-wave (km/s) = 4.38211 4.64973 4.51791
# Velocity P-wave (km/s) = 7.27084 7.74646 7.51241
#
# Compressibility (1/GPa) = 0.01307204
#
# Stress axis : x y z
#
# Youngs Moduli (GPa) = 153.48057 139.78317 159.81080
#
# Poissons Ratio (x) = 0.17877 0.22820
# Poissons Ratio (y) = 0.19628 0.11516
# Poissons Ratio (z) = 0.21916 0.10073
#
# Static dielectric constant tensor:
#      x y z
#    x 2.213300 0.013940 0.051980 
#    y 0.013940 2.424590 0.071100 
#    z 0.051980 0.071100 2.086620 
# 
# From -- ./inp_files/115237.got.cif
#   From: 2010.05.17/outbox.cif.g08.bks.cpg/sg2_58_cif.got.tgz:115237.got - 2010.06.03 11:33:40.
