data_PCOD9001808
_publ_section_title
;
Structure prediction by ZEFSAII (Michael W. Deem and Ramdas Pophale) SiO2 
 PCOD9001808
Probable space group: P -1
;
_chemical_formula_sum "Si O2"
_cell_formula_units_Z 14
_cell_length_a 10.159333
_cell_length_b 5.283570
_cell_length_c 12.326989
_cell_angle_alpha 97.669410
_cell_angle_beta 49.869947
_cell_angle_gamma 97.121765
_cell_volume 500.756315
_symmetry_space_group_name_H-M "P -1"
_symmetry_group_IT_number 2
_symmetry_cell_setting 'triclinic'
loop_
_space_group_symop_operation_xyz
x,y,z
-x,-y,-z
loop_
_atom_site_type_symbol
_atom_site_label
_atom_site_fract_x
_atom_site_fract_y
_atom_site_fract_z
Si Si1 0.274273 0.997376 0.262791
Si Si2 0.191627 0.583959 0.948817
Si Si3 0.382549 0.357250 0.466980
Si Si4 0.855108 0.068697 0.172790
Si Si5 0.193698 0.133689 0.090389
Si Si6 0.954897 0.681060 0.435904
Si Si7 0.494622 0.171839 0.693755
O O1 0.285097 0.167373 0.159556
O O2 0.164109 0.120961 0.425177
O O3 0.136108 0.769403 0.293542
O O4 0.447988 0.909282 0.219733
O O5 0.241373 0.360826 0.992258
O O6 0.220804 0.844720 0.018518
O O7 0.254489 0.705391 0.806332
O O8 0.000000 0.500000 0.000000
O O9 0.500000 0.500000 0.500000
O O10 0.179728 0.399109 0.590400
O O11 0.426395 0.541060 0.348795
O O12 0.418829 0.056456 0.431661
O O13 0.981515 0.128772 0.209000
O O14 0.704410 0.847979 0.241867
O O15 0.000000 0.000000 0.000000
O O16 0.000000 0.500000 0.500000
#
# Coordination Sequence:
#
# PCOD9001808 Si02
#       7
#     2   2   2   2   2   2   2
#     4  10  23  39  60  96 125 171 218 251 328 384
#     4   9  19  38  58  87 123 154 202 270 311 357
#     4  11  25  42  63  97 130 165 219 265 319 383
#     4   9  21  42  64  91 127 165 214 266 322 369
#     4  10  21  35  64  90 116 161 217 252 305 395
#     4  10  21  41  63  84 136 172 201 273 316 377
#     4  11  24  42  64  92 133 173 203 272 328 375
#
# _framework density 27.957709000000001
#
# number of rings (size 3 to 8) (size 9 to 14) (size 15 to 20)
#    0.000    2.000    1.429    1.714    4.000    8.000 
#    0.000    3.571    0.000    0.000    0.000    0.000 
#    0.000    0.000    0.000    0.000    0.000    0.000 
#
# Total GULP energy -78023.222052 kJ/mol
# GULP energy per Si atom -5573.087289 kJ/mol
# Density = 2.789408 g / cm^3
# Si number density = 27.957709 Si / 1000 Ang^3
#
#
#
# Elastic Constant Matrix: (Units=GPa)
#
#
# Indices 1 2 3 4 5 6 
#
# 1 190.2107 27.2317 25.0420 2.6640 1.9933 -28.2976
# 2 27.2317 155.7003 20.4567 -5.9844 -9.9301 -28.9113
# 3 25.0420 20.4567 48.8283 1.5112 8.1401 -14.5428
# 4 2.6640 -5.9844 1.5112 47.5207 -7.8318 0.2808
# 5 1.9933 -9.9301 8.1401 -7.8318 59.9864 -13.4490
# 6 -28.2976 -28.9113 -14.5428 0.2808 -13.4490 46.7259
#
#
#
# Elastic Compliance Matrix: (Units=1/GPa)
#
#
# Indices 1 2 3 4 5 6 
#
# 1 0.006025 -0.000149 -0.002229 -0.000181 0.000744 0.003078
# 2 -0.000149 0.007912 -0.002309 0.001532 0.002931 0.004921
# 3 -0.002229 -0.002309 0.024298 -0.001441 -0.002906 0.003956
# 4 -0.000181 0.001532 -0.001441 0.021878 0.003602 0.001295
# 5 0.000744 0.002931 -0.002906 0.003602 0.019558 0.006967
# 6 0.003078 0.004921 0.003956 0.001295 0.006967 0.029539
#
#
# Mechanical properties :
#
#
# Convention : Reuss Voigt Hill
#
# Bulk Modulus (GPa) = 34.64917 60.02223 47.33570
# Shear Modulus (GPa) = 39.00067 52.31385 45.65726
#
# Velocity S-wave (km/s) = 3.73901 4.33040 4.04553
# Velocity P-wave (km/s) = 5.57320 6.82047 6.22813
#
# Compressibility (1/GPa) = 0.02886072
#
# Stress axis : x y z
#
# Youngs Moduli (GPa) = 165.98140 126.39765 41.15605
#
# Poissons Ratio (x) = 0.01881 0.09175
# Poissons Ratio (y) = 0.02470 0.09502
# Poissons Ratio (z) = 0.37001 0.29181
#
# Static dielectric constant tensor:
#      x y z
#    x 2.471760 0.160520 0.039520 
#    y 0.160520 2.508610 0.042390 
#    z 0.039520 0.042390 2.379420 
# 
# From -- ./inp_files/488385.got.cif
#   From: 2010.05.17/outbox.cif.g08.bks.cpg/sg2_245_cif.got.tgz:488385.got - 2010.06.03 11:33:40.
