data_PCOD9001741
_publ_section_title
;
Structure prediction by ZEFSAII (Michael W. Deem and Ramdas Pophale) SiO2 
 PCOD9001741
Probable space group: P -1
;
_chemical_formula_sum "Si O2"
_cell_formula_units_Z 16
_cell_length_a 6.483094
_cell_length_b 11.474323
_cell_length_c 9.943423
_cell_angle_alpha 96.346754
_cell_angle_beta 76.448381
_cell_angle_gamma 125.875298
_cell_volume 582.337225
_symmetry_space_group_name_H-M "P -1"
_symmetry_group_IT_number 2
_symmetry_cell_setting 'triclinic'
loop_
_space_group_symop_operation_xyz
x,y,z
-x,-y,-z
loop_
_atom_site_type_symbol
_atom_site_label
_atom_site_fract_x
_atom_site_fract_y
_atom_site_fract_z
Si Si1 0.157995 0.898847 0.983549
Si Si2 0.929878 0.531670 0.346425
Si Si3 0.859741 0.349268 0.924997
Si Si4 0.910282 0.032786 0.698976
Si Si5 0.424227 0.032121 0.684872
Si Si6 0.575597 0.655127 0.970211
Si Si7 0.393778 0.298816 0.339237
Si Si8 0.898645 0.289827 0.411910
O O1 0.331515 0.001709 0.850196
O O2 0.868519 0.787071 0.959533
O O3 0.228700 0.787893 0.993017
O O4 0.143090 0.962702 0.133926
O O5 0.627164 0.417125 0.411019
O O6 0.970966 0.404894 0.296709
O O7 0.957500 0.621767 0.223856
O O8 0.130158 0.640096 0.441542
O O9 0.599908 0.322562 0.902861
O O10 0.000000 0.500000 0.000000
O O11 0.741020 0.090717 0.661443
O O12 0.737823 0.869741 0.650813
O O13 0.220586 0.074794 0.659224
O O14 0.306917 0.875281 0.614604
O O15 0.515817 0.659973 0.823855
O O16 0.500000 0.500000 0.000000
O O17 0.161721 0.309695 0.404458
#
# Coordination Sequence:
#
# PCOD9001741 Si02
#       8
#     2   2   2   2   2   2   2   2
#     4  12  24  37  59  90 124 161 205 251 314 379
#     4  11  21  38  58  91 120 160 209 252 316 373
#     4  12  23  37  59  84 127 162 197 255 313 379
#     4  11  24  37  64  93 128 163 207 258 315 373
#     4  11  22  41  62  94 127 161 206 264 315 362
#     4  12  22  35  57  86 123 162 197 247 319 371
#     4  11  20  37  59  88 124 155 204 260 313 368
#     4  10  21  35  62  88 120 158 207 261 311 369
#
# _framework density 27.475489
#
# number of rings (size 3 to 8) (size 9 to 14) (size 15 to 20)
#    0.000    0.750    6.250    3.375    1.750    0.000 
#    0.000    0.000    0.000    3.750    0.000    0.000 
#    0.000    0.000    0.000    0.000    0.000    0.000 
#
# Total GULP energy -89136.381040 kJ/mol
# GULP energy per Si atom -5571.023815 kJ/mol
# Density = 2.741295 g / cm^3
# Si number density = 27.475489 Si / 1000 Ang^3
#
#
#
# Elastic Constant Matrix: (Units=GPa)
#
#
# Indices 1 2 3 4 5 6 
#
# 1 191.8243 43.4342 18.3717 -1.6640 5.5398 7.8984
# 2 43.4342 109.7595 16.1507 15.5950 11.3339 -7.1274
# 3 18.3717 16.1507 66.8665 9.9863 24.2045 -12.7057
# 4 -1.6640 15.5950 9.9863 44.5318 2.7755 5.5238
# 5 5.5398 11.3339 24.2045 2.7755 34.0916 7.7282
# 6 7.8984 -7.1274 -12.7057 5.5238 7.7282 32.3184
#
#
#
# Elastic Compliance Matrix: (Units=1/GPa)
#
#
# Indices 1 2 3 4 5 6 
#
# 1 0.006355 -0.003008 -0.003522 0.002470 0.003361 -0.004827
# 2 -0.003008 0.011756 0.002166 -0.005146 -0.006011 0.006496
# 3 -0.003522 0.002166 0.029670 -0.008515 -0.025161 0.020475
# 4 0.002470 -0.005146 -0.008515 0.027214 0.007768 -0.011595
# 5 0.003361 -0.006011 -0.025161 0.007768 0.053972 -0.026273
# 6 -0.004827 0.006496 0.020475 -0.011595 -0.026273 0.049868
#
#
# Mechanical properties :
#
#
# Convention : Reuss Voigt Hill
#
# Bulk Modulus (GPa) = 25.60705 58.26261 41.93483
# Shear Modulus (GPa) = 24.92752 41.55460 33.24106
#
# Velocity S-wave (km/s) = 3.01535 3.89321 3.48205
# Velocity P-wave (km/s) = 4.63285 6.43900 5.60910
#
# Compressibility (1/GPa) = 0.03905174
#
# Stress axis : x y z
#
# Youngs Moduli (GPa) = 157.36630 85.06200 33.70408
#
# Poissons Ratio (x) = 0.25585 0.11871
# Poissons Ratio (y) = 0.47333 -0.07299
# Poissons Ratio (z) = 0.55428 -0.18421
#
# Static dielectric constant tensor:
#      x y z
#    x 2.445680 -0.072530 -0.004270 
#    y -0.072530 2.098090 -0.024610 
#    z -0.004270 -0.024610 2.355190 
# 
# From -- ./inp_files/364751.got.cif
#   From: 2010.05.17/outbox.cif.g08.bks.cpg/sg2_183_cif.got.tgz:364751.got - 2010.06.03 11:33:40.
