data_PCOD9001147
_publ_section_title
;
Structure prediction by ZEFSAII (Michael W. Deem and Ramdas Pophale) SiO2 
 PCOD9001147
Probable space group: P -1
;
_chemical_formula_sum "Si O2"
_cell_formula_units_Z 16
_cell_length_a 8.341707
_cell_length_b 19.702397
_cell_length_c 15.730452
_cell_angle_alpha 27.229247
_cell_angle_beta 145.272867
_cell_angle_gamma 142.588655
_cell_volume 653.571279
_symmetry_space_group_name_H-M "P -1"
_symmetry_group_IT_number 2
_symmetry_cell_setting 'triclinic'
loop_
_space_group_symop_operation_xyz
x,y,z
-x,-y,-z
loop_
_atom_site_type_symbol
_atom_site_label
_atom_site_fract_x
_atom_site_fract_y
_atom_site_fract_z
Si Si1 0.617717 0.550361 0.656337
Si Si2 0.839033 0.205059 0.611139
Si Si3 0.191986 0.889370 0.676732
Si Si4 0.709839 0.778635 0.069700
Si Si5 0.184218 0.790178 0.589898
Si Si6 0.326356 0.343863 0.245671
Si Si7 0.305187 0.340120 0.998803
Si Si8 0.787886 0.453802 0.640108
O O1 0.484482 0.368318 0.800727
O O2 0.636582 0.591485 0.715935
O O3 0.371756 0.626171 0.424707
O O4 0.933092 0.630702 0.666163
O O5 0.007454 0.165520 0.810587
O O6 0.990751 0.388165 0.463504
O O7 0.877881 0.139892 0.605741
O O8 0.508926 0.215825 0.462777
O O9 0.171725 0.871721 0.584540
O O10 0.013096 0.731667 0.819569
O O11 0.520821 0.903025 0.834455
O O12 0.000000 0.000000 0.500000
O O13 0.747135 0.718224 0.057403
O O14 0.508680 0.763154 0.759273
O O15 0.471976 0.491923 0.089840
O O16 0.991463 0.353632 0.880352
O O17 0.500000 0.500000 0.500000
#
# Coordination Sequence:
#
# PCOD9001147 Si02
#       8
#     2   2   2   2   2   2   2   2
#     4   9  16  30  50  76 111 140 165 195 249 319
#     4  10  19  32  49  80 110 135 164 208 256 308
#     4  10  21  39  57  72  95 135 183 223 258 302
#     4   9  18  33  55  76 105 138 172 204 255 311
#     4  10  19  33  52  79 107 135 171 209 254 305
#     4   9  18  32  53  76 103 139 168 209 255 305
#     4   9  18  31  50  78 112 143 168 195 247 317
#     4  10  17  27  44  77 116 143 158 194 245 309
#
# _framework density 24.480879999999999
#
# number of rings (size 3 to 8) (size 9 to 14) (size 15 to 20)
#    0.000    2.500    1.250    1.500    0.000    8.000 
#    4.500    1.875    0.000    0.000    0.000    0.000 
#    0.000    0.000    0.000    0.000    0.000    0.000 
#
# Total GULP energy -89160.353014 kJ/mol
# GULP energy per Si atom -5572.522063 kJ/mol
# Density = 2.442516 g / cm^3
# Si number density = 24.480880 Si / 1000 Ang^3
#
#
#
# Elastic Constant Matrix: (Units=GPa)
#
#
# Indices 1 2 3 4 5 6 
#
# 1 30.3620 70.0408 101.8146 35.9599 4.0614 34.6277
# 2 70.0408 57.4983 6.4277 23.0968 -3.1539 -29.3153
# 3 101.8146 6.4277 37.8380 6.1543 9.5853 -66.3614
# 4 35.9599 23.0968 6.1543 38.4789 -2.3151 -14.1291
# 5 4.0614 -3.1539 9.5853 -2.3151 38.5882 4.2972
# 6 34.6277 -29.3153 -66.3614 -14.1291 4.2972 2.1551
#
#
#
# Elastic Compliance Matrix: (Units=1/GPa)
#
#
# Indices 1 2 3 4 5 6 
#
# 1 0.007349 -0.002255 0.005374 -0.001686 -0.003886 0.013403
# 2 -0.002255 0.022941 -0.008595 -0.012487 0.004242 -0.006684
# 3 0.005374 -0.008595 0.006868 -0.002728 -0.002650 -0.004377
# 4 -0.001686 -0.012487 -0.002728 0.034962 0.002133 -0.001801
# 5 -0.003886 0.004242 -0.002650 0.002133 0.027775 -0.002853
# 6 0.013403 -0.006684 -0.004377 -0.001801 -0.002853 0.016842
#
#
# Mechanical properties :
#
#
# Convention : Reuss Voigt Hill
#
# Bulk Modulus (GPa) = 38.16058 53.58495 45.87276
# Shear Modulus (GPa) = 36.65050 12.33877 24.49464
#
# Velocity S-wave (km/s) = 3.87344 2.24747 3.16660
# Velocity P-wave (km/s) = 5.96880 5.35451 5.66998
#
# Compressibility (1/GPa) = 0.02620505
#
# Stress axis : x y z
#
# Youngs Moduli (GPa) = 136.07019 43.59057 145.60659
#
# Poissons Ratio (x) = 0.09831 -0.78245
# Poissons Ratio (y) = 0.30688 1.25145
# Poissons Ratio (z) = -0.73120 0.37465
#
# Static dielectric constant tensor:
#      x y z
#    x 2.181280 -0.093160 -0.014770 
#    y -0.093160 2.041510 -0.036670 
#    z -0.014770 -0.036670 2.033840 
# 
# From -- ./inp_files/203277.got.cif
#   From: 2010.05.17/outbox.cif.g08.bks.cpg/sg2_102_cif.got.tgz:203277.got - 2010.06.03 11:33:40.
