data_PCOD9001895
_publ_section_title
;
Structure prediction by ZEFSAII (Michael W. Deem and Ramdas Pophale) SiO2 
 PCOD9001895
Probable space group: P -1
;
_chemical_formula_sum "Si O2"
_cell_formula_units_Z 16
_cell_length_a 11.151793
_cell_length_b 16.582746
_cell_length_c 5.247725
_cell_angle_alpha 78.020524
_cell_angle_beta 78.504775
_cell_angle_gamma 121.433836
_cell_volume 753.009374
_symmetry_space_group_name_H-M "P -1"
_symmetry_group_IT_number 2
_symmetry_cell_setting 'triclinic'
loop_
_space_group_symop_operation_xyz
x,y,z
-x,-y,-z
loop_
_atom_site_type_symbol
_atom_site_label
_atom_site_fract_x
_atom_site_fract_y
_atom_site_fract_z
Si Si1 0.363070 0.881784 0.629985
Si Si2 0.752616 0.061700 0.737311
Si Si3 0.926850 0.574463 0.217196
Si Si4 0.200799 0.558751 0.142519
Si Si5 0.319249 0.125034 0.859666
Si Si6 0.924119 0.025610 0.301189
Si Si7 0.962852 0.202207 0.935066
Si Si8 0.509740 0.767805 0.783505
O O1 0.314852 0.877549 0.358120
O O2 0.205534 0.839516 0.865801
O O3 0.425068 0.822180 0.753656
O O4 0.500000 0.000000 0.500000
O O5 0.781337 0.012502 0.517383
O O6 0.918803 0.148705 0.714443
O O7 0.659654 0.965523 0.029303
O O8 0.830964 0.496275 0.537205
O O9 0.092901 0.597366 0.150937
O O10 0.858953 0.522268 0.008149
O O11 0.940336 0.677751 0.175004
O O12 0.374510 0.650640 0.966577
O O13 0.410851 0.205041 0.542978
O O14 0.150736 0.051261 0.858159
O O15 0.372500 0.186949 0.060662
O O16 0.017632 0.143731 0.102972
O O17 0.000000 0.000000 0.500000
#
# Coordination Sequence:
#
# PCOD9001895 Si02
#       8
#     2   2   2   2   2   2   2   2
#     4  11  20  32  50  81 122 161 189 225 275 348
#     4  10  21  36  53  88 114 157 189 236 280 357
#     4  10  21  38  54  83 115 154 211 239 274 333
#     4  10  22  36  57  80 115 162 200 242 277 327
#     4  11  22  38  56  85 121 148 203 228 283 363
#     4  10  22  42  62  88 119 150 191 248 301 353
#     4  10  22  34  57  85 119 157 196 243 285 343
#     4  12  22  36  57  84 120 164 194 230 292 334
#
# _framework density 21.248075
#
# number of rings (size 3 to 8) (size 9 to 14) (size 15 to 20)
#    0.000    1.500    3.750    2.250    5.250    4.000 
#    0.000    0.000    0.000    0.000    0.000    5.250 
#    0.000    0.000    0.000    0.000    0.000    0.000 
#
# Total GULP energy -89166.949650 kJ/mol
# GULP energy per Si atom -5572.934353 kJ/mol
# Density = 2.119971 g / cm^3
# Si number density = 21.248075 Si / 1000 Ang^3
#
#
#
# Elastic Constant Matrix: (Units=GPa)
#
#
# Indices 1 2 3 4 5 6 
#
# 1 56.3173 7.3247 16.9754 -0.1316 17.1556 5.5219
# 2 7.3247 75.7213 33.9013 -12.3067 9.4178 2.3763
# 3 16.9754 33.9013 93.3062 10.8286 9.3164 5.7545
# 4 -0.1316 -12.3067 10.8286 37.0006 11.5267 4.5663
# 5 17.1556 9.4178 9.3164 11.5267 36.5711 -1.5099
# 6 5.5219 2.3763 5.7545 4.5663 -1.5099 24.0195
#
#
#
# Elastic Compliance Matrix: (Units=1/GPa)
#
#
# Indices 1 2 3 4 5 6 
#
# 1 0.023385 0.002684 -0.004335 0.007162 -0.013095 -0.006788
# 2 0.002684 0.019527 -0.007929 0.011773 -0.008119 -0.003398
# 3 -0.004335 -0.007929 0.015039 -0.007884 0.002723 -0.000152
# 4 0.007162 0.011773 -0.007884 0.039862 -0.017343 -0.009591
# 5 -0.013095 -0.008119 0.002723 -0.017343 0.040722 0.009018
# 6 -0.006788 -0.003398 -0.000152 -0.009591 0.009018 0.045956
#
#
# Mechanical properties :
#
#
# Convention : Reuss Voigt Hill
#
# Bulk Modulus (GPa) = 25.77873 37.97197 31.87535
# Shear Modulus (GPa) = 23.08600 30.66114 26.87357
#
# Velocity S-wave (km/s) = 3.29978 3.80282 3.56020
# Velocity P-wave (km/s) = 5.16495 6.09848 5.65102
#
# Compressibility (1/GPa) = 0.03879167
#
# Stress axis : x y z
#
# Youngs Moduli (GPa) = 42.76206 51.21233 66.49188
#
# Poissons Ratio (x) = -0.13747 0.28823
# Poissons Ratio (y) = -0.11478 0.52722
# Poissons Ratio (z) = 0.18537 0.40607
#
# Static dielectric constant tensor:
#      x y z
#    x 1.876660 0.002530 -0.020210 
#    y 0.002530 1.804430 0.093850 
#    z -0.020210 0.093850 1.892640 
# 
# From -- ./inp_files/81245.got.cif
#   From: 2010.05.17/outbox.cif.g08.bks.cpg/sg2_41_cif.got.tgz:81245.got - 2010.06.03 11:33:40.
