data_PCOD9001555
_publ_section_title
;
Structure prediction by ZEFSAII (Michael W. Deem and Ramdas Pophale) SiO2 
 PCOD9001555
Probable space group: P -1
;
_chemical_formula_sum "Si O2"
_cell_formula_units_Z 12
_cell_length_a 17.844104
_cell_length_b 11.700898
_cell_length_c 6.721104
_cell_angle_alpha 72.306695
_cell_angle_beta 59.009053
_cell_angle_gamma 26.840592
_cell_volume 497.393997
_symmetry_space_group_name_H-M "P -1"
_symmetry_group_IT_number 2
_symmetry_cell_setting 'triclinic'
loop_
_space_group_symop_operation_xyz
x,y,z
-x,-y,-z
loop_
_atom_site_type_symbol
_atom_site_label
_atom_site_fract_x
_atom_site_fract_y
_atom_site_fract_z
Si Si1 0.778125 0.963128 0.144172
Si Si2 0.779546 0.235698 0.944508
Si Si3 0.199407 0.458316 0.662865
Si Si4 0.071053 0.051951 0.495776
Si Si5 0.420035 0.989234 0.352566
Si Si6 0.379673 0.871852 0.159181
O O1 0.689444 0.992922 0.420503
O O2 0.784168 0.098012 0.106063
O O3 0.642005 0.104313 0.061764
O O4 0.002193 0.648652 0.937978
O O5 0.973339 0.083867 0.771785
O O6 0.779110 0.202312 0.725433
O O7 0.582788 0.550909 0.109130
O O8 0.358989 0.285474 0.709270
O O9 0.110988 0.679057 0.542218
O O10 0.302092 0.245772 0.472369
O O11 0.187759 0.028307 0.406369
O O12 0.400139 0.982971 0.150730
#
# Coordination Sequence:
#
# PCOD9001555 Si02
#       6
#     2   2   2   2   2   2
#     4  10  21  38  59  80 112 149 180 225 274 324
#     4   9  18  35  57  83 112 143 181 223 276 326
#     4   9  21  39  56  79 113 148 181 227 278 320
#     4   9  18  36  60  80 111 149 180 224 273 324
#     4  11  22  38  57  82 113 144 185 229 271 324
#     4  10  21  35  58  86 108 144 187 223 272 328
#
# _framework density 24.125743
#
# number of rings (size 3 to 8) (size 9 to 14) (size 15 to 20)
#    0.000    2.667    0.000    3.500    0.000    7.333 
#    0.000   11.667    0.000    0.000    0.000    0.000 
#    0.000    0.000    0.000    0.000    0.000    0.000 
#
# Total GULP energy -67041.585692 kJ/mol
# GULP energy per Si atom -5586.798808 kJ/mol
# Density = 2.407083 g / cm^3
# Si number density = 24.125743 Si / 1000 Ang^3
#
#
#
# Elastic Constant Matrix: (Units=GPa)
#
#
# Indices 1 2 3 4 5 6 
#
# 1 700.1919 65.5341 823.8993 -523.3174 408.6942 445.1421
# 2 65.5341 43.0215 93.3999 -27.7281 40.8395 43.4483
# 3 823.8993 93.3999 1258.2823 -772.1524 563.2516 653.9575
# 4 -523.3174 -27.7281 -772.1524 540.7754 -366.8920 -424.8308
# 5 408.6942 40.8395 563.2516 -366.8920 290.6592 305.2684
# 6 445.1421 43.4483 653.9575 -424.8308 305.2684 363.8685
#
#
#
# Elastic Compliance Matrix: (Units=1/GPa)
#
#
# Indices 1 2 3 4 5 6 
#
# 1 0.008540 -0.000753 -0.000927 -0.001109 -0.008559 -0.002807
# 2 -0.000753 0.050759 -0.010483 -0.030624 -0.010534 -0.013218
# 3 -0.000927 -0.010483 0.015398 0.007845 -0.001856 -0.014571
# 4 -0.001109 -0.030624 0.007845 0.042940 0.014726 0.028695
# 5 -0.008559 -0.010534 -0.001856 0.014726 0.044259 -0.004874
# 6 -0.002807 -0.013218 -0.014571 0.028695 -0.004874 0.071540
#
#
# Mechanical properties :
#
#
# Convention : Reuss Voigt Hill
#
# Bulk Modulus (GPa) = 19.85170 440.79580 230.32375
# Shear Modulus (GPa) = 18.21151 306.97143 162.59147
#
# Velocity S-wave (km/s) = 2.75045 11.29223 8.21825
# Velocity P-wave (km/s) = 4.28170 18.79158 13.62821
#
# Compressibility (1/GPa) = 0.05037352
#
# Stress axis : x y z
#
# Youngs Moduli (GPa) = 117.08947 19.70076 64.94538
#
# Poissons Ratio (x) = 0.01483 0.06017
# Poissons Ratio (y) = 0.08812 0.68081
# Poissons Ratio (z) = 0.10849 0.20652
#
# Static dielectric constant tensor:
#      x y z
#    x 1.960860 -0.011000 0.026480 
#    y -0.011000 1.894010 -0.048370 
#    z 0.026480 -0.048370 1.973130 
# 
# From -- ./inp_files/179587.got.cif
#   From: 2010.05.17/outbox.cif.g08.bks.cpg/sg2_90_cif.got.tgz:179587.got - 2010.06.03 11:33:40.
