data_PCOD9001068
_publ_section_title
;
Structure prediction by ZEFSAII (Michael W. Deem and Ramdas Pophale) SiO2 
 PCOD9001068
Probable space group: P -1
;
_chemical_formula_sum "Si O2"
_cell_formula_units_Z 14
_cell_length_a 9.343074
_cell_length_b 11.236493
_cell_length_c 9.084570
_cell_angle_alpha 77.116669
_cell_angle_beta 63.249409
_cell_angle_gamma 56.723081
_cell_volume 711.640105
_symmetry_space_group_name_H-M "P -1"
_symmetry_group_IT_number 2
_symmetry_cell_setting 'triclinic'
loop_
_space_group_symop_operation_xyz
x,y,z
-x,-y,-z
loop_
_atom_site_type_symbol
_atom_site_label
_atom_site_fract_x
_atom_site_fract_y
_atom_site_fract_z
Si Si1 0.407670 0.790860 0.149557
Si Si2 0.499394 0.487322 0.678581
Si Si3 0.394886 0.422038 0.132693
Si Si4 0.096519 0.052993 0.055143
Si Si5 0.072772 0.644102 0.838778
Si Si6 0.744135 0.769482 0.171749
Si Si7 0.022097 0.473068 0.669098
O O1 0.374326 0.674346 0.277974
O O2 0.222650 0.932503 0.147086
O O3 0.544806 0.811549 0.187701
O O4 0.518070 0.720336 0.964605
O O5 0.500000 0.500000 0.500000
O O6 0.557761 0.585380 0.713753
O O7 0.287393 0.534205 0.808651
O O8 0.172873 0.511615 0.193598
O O9 0.500000 0.500000 0.000000
O O10 0.956974 0.199071 0.166885
O O11 0.223428 0.098550 0.889680
O O12 0.000000 0.000000 0.000000
O O13 0.042857 0.594823 0.707936
O O14 0.907138 0.657726 0.015000
O O15 0.805752 0.679770 0.317770
O O16 0.000000 0.500000 0.500000
#
# Coordination Sequence:
#
# PCOD9001068 Si02
#       7
#     2   2   2   2   2   2   2
#     4  11  20  39  61  87 116 160 203 243 301 359
#     4  11  22  36  59  90 124 154 198 255 306 352
#     4  10  21  33  59  87 118 154 206 247 294 353
#     4  10  23  37  63  91 118 154 207 249 296 357
#     4  10  21  40  62  87 119 159 205 246 301 354
#     4  10  21  37  64  82 121 152 207 244 298 353
#     4  12  22  37  62  95 123 157 200 259 308 359
#
# _framework density 19.672864000000001
#
# number of rings (size 3 to 8) (size 9 to 14) (size 15 to 20)
#    0.857    0.571    2.857    4.286    4.000    0.000 
#    0.000    0.714    3.143    1.714    0.000    0.000 
#    0.000    0.000    0.000    0.000    0.000    0.000 
#
# Total GULP energy -78029.276460 kJ/mol
# GULP energy per Si atom -5573.519747 kJ/mol
# Density = 1.962809 g / cm^3
# Si number density = 19.672864 Si / 1000 Ang^3
#
#
#
# Elastic Constant Matrix: (Units=GPa)
#
#
# Indices 1 2 3 4 5 6 
#
# 1 124.6955 31.0987 20.9272 -2.6562 25.8048 8.3490
# 2 31.0987 94.1677 22.8407 -22.0708 14.8866 -3.5735
# 3 20.9272 22.8407 72.6480 -17.7277 28.6333 -0.2064
# 4 -2.6562 -22.0708 -17.7277 17.1555 -5.5016 3.5798
# 5 25.8048 14.8866 28.6333 -5.5016 41.2674 1.7256
# 6 8.3490 -3.5735 -0.2064 3.5798 1.7256 32.7225
#
#
#
# Elastic Compliance Matrix: (Units=1/GPa)
#
#
# Indices 1 2 3 4 5 6 
#
# 1 0.010166 -0.003671 -0.001222 -0.005512 -0.004830 -0.002145
# 2 -0.003671 0.017019 0.002179 0.022734 -0.002344 0.000445
# 3 -0.001222 0.002179 0.024793 0.024000 -0.013976 -0.001182
# 4 -0.005512 0.022734 0.024000 0.111098 -0.006270 -0.007783
# 5 -0.004830 -0.002344 -0.013976 -0.006270 0.036975 -0.000376
# 6 -0.002145 0.000445 -0.001182 -0.007783 -0.000376 0.032020
#
#
# Mechanical properties :
#
#
# Convention : Reuss Voigt Hill
#
# Bulk Modulus (GPa) = 21.48164 49.02716 35.25440
# Shear Modulus (GPa) = 19.76176 32.67206 26.21691
#
# Velocity S-wave (km/s) = 3.17285 4.07967 3.65450
# Velocity P-wave (km/s) = 4.93617 6.86782 5.98050
#
# Compressibility (1/GPa) = 0.04655139
#
# Stress axis : x y z
#
# Youngs Moduli (GPa) = 98.36957 58.75876 40.33341
#
# Poissons Ratio (x) = 0.21568 0.04928
# Poissons Ratio (y) = 0.36108 -0.08790
# Poissons Ratio (z) = 0.12020 -0.12805
#
# Static dielectric constant tensor:
#      x y z
#    x 1.718830 0.020270 -0.002610 
#    y 0.020270 1.701670 -0.003030 
#    z -0.002610 -0.003030 1.756650 
# 
# From -- ./inp_files/169300.got.cif
#   From: 2010.05.17/outbox.cif.g08.bks.cpg/sg2_85_cif.got.tgz:169300.got - 2010.06.03 11:33:40.
