data_PCOD9001600
_publ_section_title
;
Structure prediction by ZEFSAII (Michael W. Deem and Ramdas Pophale) SiO2 
 PCOD9001600
Probable space group: P -1
;
_chemical_formula_sum "Si O2"
_cell_formula_units_Z 12
_cell_length_a 4.984469
_cell_length_b 9.810739
_cell_length_c 26.181117
_cell_angle_alpha 32.882742
_cell_angle_beta 94.185895
_cell_angle_gamma 79.929282
_cell_volume 623.833020
_symmetry_space_group_name_H-M "P -1"
_symmetry_group_IT_number 2
_symmetry_cell_setting 'triclinic'
loop_
_space_group_symop_operation_xyz
x,y,z
-x,-y,-z
loop_
_atom_site_type_symbol
_atom_site_label
_atom_site_fract_x
_atom_site_fract_y
_atom_site_fract_z
Si Si1 0.564094 0.766167 0.905865
Si Si2 0.220478 0.093773 0.503859
Si Si3 0.006719 0.585088 0.058477
Si Si4 0.899577 0.630965 0.280470
Si Si5 0.488122 0.706106 0.084083
Si Si6 0.459524 0.448445 0.273067
O O1 0.762642 0.688398 0.882040
O O2 0.259686 0.043758 0.811696
O O3 0.500000 0.500000 0.000000
O O4 0.771876 0.775828 0.952437
O O5 0.061220 0.428821 0.394267
O O6 0.500000 0.000000 0.500000
O O7 0.354368 0.890192 0.617901
O O8 0.000000 0.000000 0.500000
O O9 0.206175 0.727034 0.040156
O O10 0.800234 0.530247 0.114328
O O11 0.637438 0.557641 0.279634
O O12 0.135900 0.548603 0.263039
O O13 0.457472 0.574885 0.178171
O O14 0.500000 0.000000 0.000000
#
# Coordination Sequence:
#
# PCOD9001600 Si02
#       6
#     2   2   2   2   2   2
#     4  11  24  39  60  79 115 154 196 240 268 329
#     4   8  16  34  54  83 110 137 182 236 281 329
#     4  11  25  40  54  82 115 153 196 231 277 333
#     4  10  21  35  60  85 110 145 190 233 286 326
#     4  12  24  37  57  83 119 154 186 229 289 352
#     4  10  21  35  59  86 115 144 180 235 292 338
#
# _framework density 19.235916
#
# number of rings (size 3 to 8) (size 9 to 14) (size 15 to 20)
#    0.000    1.667    1.667    2.500    7.000    0.000 
#    0.000    0.000    0.000    2.000    0.000    0.000 
#    0.000    0.000    0.000    0.000    0.000    0.000 
#
# Total GULP energy -66956.096358 kJ/mol
# GULP energy per Si atom -5579.674696 kJ/mol
# Density = 1.919213 g / cm^3
# Si number density = 19.235916 Si / 1000 Ang^3
#
#
#
# Elastic Constant Matrix: (Units=GPa)
#
#
# Indices 1 2 3 4 5 6 
#
# 1 97.2079 11.4356 23.3242 -5.9443 5.4468 4.6836
# 2 11.4356 52.5155 56.5284 -4.1689 4.0814 -6.7697
# 3 23.3242 56.5284 169.5370 -22.4913 3.5997 -10.3955
# 4 -5.9443 -4.1689 -22.4913 27.7842 -8.1011 6.0776
# 5 5.4468 4.0814 3.5997 -8.1011 25.7004 1.2752
# 6 4.6836 -6.7697 -10.3955 6.0776 1.2752 39.9449
#
#
#
# Elastic Compliance Matrix: (Units=1/GPa)
#
#
# Indices 1 2 3 4 5 6 
#
# 1 0.010935 -0.001389 -0.000947 0.001366 -0.001438 -0.001926
# 2 -0.001389 0.031378 -0.010819 -0.006801 -0.005509 0.003876
# 3 -0.000947 -0.010819 0.010572 0.007610 0.002848 -0.000220
# 4 0.001366 -0.006801 0.007610 0.047329 0.014991 -0.007012
# 5 -0.001438 -0.005509 0.002848 0.014991 0.044601 -0.003729
# 6 -0.001926 0.003876 -0.000220 -0.007012 -0.003729 0.027046
#
#
# Mechanical properties :
#
#
# Convention : Reuss Voigt Hill
#
# Bulk Modulus (GPa) = 37.63175 55.75966 46.69571
# Shear Modulus (GPa) = 24.15122 33.88405 29.01764
#
# Velocity S-wave (km/s) = 3.54719 4.20158 3.88817
# Velocity P-wave (km/s) = 6.03179 7.25175 6.66972
#
# Compressibility (1/GPa) = 0.02657330
#
# Stress axis : x y z
#
# Youngs Moduli (GPa) = 91.45005 31.86963 94.59250
#
# Poissons Ratio (x) = 0.04428 0.08962
# Poissons Ratio (y) = 0.12706 1.02337
# Poissons Ratio (z) = 0.08665 0.34479
#
# Static dielectric constant tensor:
#      x y z
#    x 1.687060 -0.002020 -0.002910 
#    y -0.002020 1.690700 -0.020250 
#    z -0.002910 -0.020250 1.758590 
# 
# From -- ./inp_files/603732.got.cif
#   From: 2010.05.17/outbox.cif.g08.bks.cpg/sg2_302_cif.got.tgz:603732.got - 2010.06.03 11:33:40.
