data_PCOD9001334
_publ_section_title
;
Structure prediction by ZEFSAII (Michael W. Deem and Ramdas Pophale) SiO2 
 PCOD9001334
Probable space group: P -1
;
_chemical_formula_sum "Si O2"
_cell_formula_units_Z 16
_cell_length_a 7.587521
_cell_length_b 11.244032
_cell_length_c 9.287129
_cell_angle_alpha 94.078504
_cell_angle_beta 99.150699
_cell_angle_gamma 53.512929
_cell_volume 628.640915
_symmetry_space_group_name_H-M "P -1"
_symmetry_group_IT_number 2
_symmetry_cell_setting 'triclinic'
loop_
_space_group_symop_operation_xyz
x,y,z
-x,-y,-z
loop_
_atom_site_type_symbol
_atom_site_label
_atom_site_fract_x
_atom_site_fract_y
_atom_site_fract_z
Si Si1 0.242248 0.382725 0.584309
Si Si2 0.065967 0.916850 0.153607
Si Si3 0.625648 0.831397 0.957485
Si Si4 0.095191 0.593356 0.055204
Si Si5 0.475135 0.169451 0.368389
Si Si6 0.542899 0.632592 0.113673
Si Si7 0.146163 0.092746 0.409419
Si Si8 0.034047 0.245250 0.669636
O O1 0.405447 0.310550 0.465173
O O2 0.321869 0.436256 0.725787
O O3 0.000000 0.500000 0.500000
O O4 0.231791 0.253489 0.642697
O O5 0.285999 0.749938 0.134383
O O6 0.096087 0.015137 0.275990
O O7 0.921168 0.881412 0.226502
O O8 0.000000 0.000000 0.000000
O O9 0.522744 0.814078 0.799334
O O10 0.587863 0.747751 0.066908
O O11 0.890913 0.749102 0.973463
O O12 0.500000 0.000000 0.000000
O O13 0.103406 0.613160 0.229458
O O14 0.329626 0.499724 0.998357
O O15 0.000000 0.500000 0.000000
O O16 0.688046 0.033381 0.464424
O O17 0.279781 0.147815 0.358727
O O18 0.957095 0.219903 0.504226
#
# Coordination Sequence:
#
# PCOD9001334 Si02
#       8
#     2   2   2   2   2   2   2   2
#     4  11  22  42  70 101 129 180 235 295 352 413
#     4  12  28  46  69 103 148 192 237 288 362 434
#     4  11  21  34  69 107 135 174 234 291 355 409
#     4  10  21  40  69 100 140 178 232 291 351 411
#     4  10  21  34  69 101 128 171 233 286 355 404
#     4  11  24  44  68  99 146 185 231 296 347 424
#     4  10  22  43  65  99 139 177 229 299 351 417
#     4  11  24  44  70  99 140 188 233 296 360 422
#
# _framework density 25.451730999999999
#
# number of rings (size 3 to 8) (size 9 to 14) (size 15 to 20)
#    0.000    1.250    3.750    2.625    8.750    0.500 
#    0.000    0.625    0.000    0.000    0.000    0.000 
#    0.000    0.000    0.000    0.000    0.000    0.000 
#
# Total GULP energy -89318.621653 kJ/mol
# GULP energy per Si atom -5582.413853 kJ/mol
# Density = 2.539380 g / cm^3
# Si number density = 25.451731 Si / 1000 Ang^3
#
#
#
# Elastic Constant Matrix: (Units=GPa)
#
#
# Indices 1 2 3 4 5 6 
#
# 1 60.4437 11.4637 10.7372 -2.8224 -11.0185 -12.6424
# 2 11.4637 102.3940 57.9151 28.9538 -7.9947 -24.7694
# 3 10.7372 57.9151 210.4006 28.1673 2.5628 -4.9992
# 4 -2.8224 28.9538 28.1673 66.3719 2.4288 -2.1478
# 5 -11.0185 -7.9947 2.5628 2.4288 12.5907 0.8817
# 6 -12.6424 -24.7694 -4.9992 -2.1478 0.8817 40.6707
#
#
#
# Elastic Compliance Matrix: (Units=1/GPa)
#
#
# Indices 1 2 3 4 5 6 
#
# 1 0.021644 0.001693 -0.001697 0.000409 0.019783 0.007144
# 2 0.001693 0.016782 -0.003864 -0.005785 0.013363 0.009677
# 3 -0.001697 -0.003864 0.006024 -0.000833 -0.004859 -0.002079
# 4 0.000409 -0.005785 -0.000833 0.018120 -0.006473 -0.002401
# 5 0.019783 0.013363 -0.004859 -0.006473 0.106686 0.011036
# 6 0.007144 0.009677 -0.002079 -0.002401 0.011036 0.032080
#
#
# Mechanical properties :
#
#
# Convention : Reuss Voigt Hill
#
# Bulk Modulus (GPa) = 27.23625 59.27445 43.25535
# Shear Modulus (GPa) = 22.59263 43.46815 33.03039
#
# Velocity S-wave (km/s) = 2.98260 4.13712 3.60636
# Velocity P-wave (km/s) = 4.75243 6.79415 5.86285
#
# Compressibility (1/GPa) = 0.03671578
#
# Stress axis : x y z
#
# Youngs Moduli (GPa) = 46.20196 59.58635 165.99275
#
# Poissons Ratio (x) = -0.10091 0.28163
# Poissons Ratio (y) = -0.07824 0.64145
# Poissons Ratio (z) = 0.07839 0.23026
#
# Static dielectric constant tensor:
#      x y z
#    x 2.158280 -0.019830 0.026460 
#    y -0.019830 2.125170 0.078210 
#    z 0.026460 0.078210 2.001620 
# 
# From -- ./inp_files/188641.got.cif
#   From: 2010.05.17/outbox.cif.g08.bks.cpg/sg2_95_cif.got.tgz:188641.got - 2010.06.03 11:33:40.
