data_PCOD9001489
_publ_section_title
;
Structure prediction by ZEFSAII (Michael W. Deem and Ramdas Pophale) SiO2 
 PCOD9001489
Probable space group: P -1
;
_chemical_formula_sum "Si O2"
_cell_formula_units_Z 14
_cell_length_a 10.499616
_cell_length_b 7.838049
_cell_length_c 13.981807
_cell_angle_alpha 126.152526
_cell_angle_beta 139.493687
_cell_angle_gamma 79.400169
_cell_volume 521.042921
_symmetry_space_group_name_H-M "P -1"
_symmetry_group_IT_number 2
_symmetry_cell_setting 'triclinic'
loop_
_space_group_symop_operation_xyz
x,y,z
-x,-y,-z
loop_
_atom_site_type_symbol
_atom_site_label
_atom_site_fract_x
_atom_site_fract_y
_atom_site_fract_z
Si Si1 0.633538 0.827236 0.606034
Si Si2 0.019193 0.739359 0.482839
Si Si3 0.202516 0.425460 0.880606
Si Si4 0.536351 0.030910 0.810213
Si Si5 0.979730 0.738606 0.088912
Si Si6 0.236612 0.847688 0.832264
Si Si7 0.836763 0.590634 0.769280
O O1 0.591340 0.958215 0.716006
O O2 0.751668 0.675606 0.658717
O O3 0.382516 0.617176 0.368493
O O4 0.778576 0.021843 0.672191
O O5 0.881693 0.757258 0.318101
O O6 0.278380 0.838936 0.628284
O O7 0.070116 0.850724 0.656371
O O8 0.865721 0.444647 0.313325
O O9 0.201807 0.323206 0.951875
O O10 0.000620 0.490055 0.799927
O O11 0.420603 0.691823 0.077207
O O12 0.718864 0.051742 0.000686
O O13 0.000000 0.500000 0.000000
O O14 0.941934 0.796587 0.978448
O O15 0.500000 0.000000 0.000000
#
# Coordination Sequence:
#
# PCOD9001489 Si02
#       7
#     2   2   2   2   2   2   2
#     4  11  20  32  48  67  99 134 165 199 231 278
#     4   9  16  29  45  68 100 119 149 199 240 289
#     4  10  19  30  47  72  96 130 161 193 240 280
#     4  10  17  27  46  70  94 126 155 195 242 279
#     4  10  20  32  46  68  96 132 167 199 233 277
#     4   8  16  28  45  68  95 120 151 191 247 285
#     4  10  21  32  45  67  98 134 168 197 231 275
#
# _framework density 26.869188000000001
#
# number of rings (size 3 to 8) (size 9 to 14) (size 15 to 20)
#    0.000    2.286    4.286    0.429    0.000    3.429 
#    0.000    0.000    0.000    0.000    0.000    1.000 
#    0.000   20.857    0.000    1.286    0.000    0.000 
#
# Total GULP energy -78141.428958 kJ/mol
# GULP energy per Si atom -5581.530640 kJ/mol
# Density = 2.680803 g / cm^3
# Si number density = 26.869188 Si / 1000 Ang^3
#
#
#
# Elastic Constant Matrix: (Units=GPa)
#
#
# Indices 1 2 3 4 5 6 
#
# 1 79.0529 9.4488 37.5233 7.2222 1.6351 -0.6738
# 2 9.4488 95.0891 19.9524 7.2912 13.2088 21.1473
# 3 37.5233 19.9524 134.2618 21.6672 11.8935 10.6518
# 4 7.2222 7.2912 21.6672 61.4824 17.2549 2.1230
# 5 1.6351 13.2088 11.8935 17.2549 48.4484 3.3290
# 6 -0.6738 21.1473 10.6518 2.1230 3.3290 37.2866
#
#
#
# Elastic Compliance Matrix: (Units=1/GPa)
#
#
# Indices 1 2 3 4 5 6 
#
# 1 0.014786 -0.001141 -0.004127 -0.000456 0.000847 0.002043
# 2 -0.001141 0.012678 -0.000773 -0.000098 -0.002730 -0.006741
# 3 -0.004127 -0.000773 0.009350 -0.002379 -0.000955 -0.002087
# 4 -0.000456 -0.000098 -0.002379 0.018876 -0.006110 0.000198
# 5 0.000847 -0.002730 -0.000955 -0.006110 0.023763 0.000063
# 6 0.002043 -0.006741 -0.002087 0.000198 0.000063 0.031258
#
#
# Mechanical properties :
#
#
# Convention : Reuss Voigt Hill
#
# Bulk Modulus (GPa) = 40.42911 49.13920 44.78416
# Shear Modulus (GPa) = 38.15735 45.54210 41.84972
#
# Velocity S-wave (km/s) = 3.77253 4.12145 3.95084
# Velocity P-wave (km/s) = 5.83569 6.40129 6.12502
#
# Compressibility (1/GPa) = 0.02473465
#
# Stress axis : x y z
#
# Youngs Moduli (GPa) = 67.63012 78.87802 106.94865
#
# Poissons Ratio (x) = 0.08996 0.44133
# Poissons Ratio (y) = 0.07713 0.08265
# Poissons Ratio (z) = 0.27908 0.06096
#
# Static dielectric constant tensor:
#      x y z
#    x 2.069820 0.021080 -0.021180 
#    y 0.021080 2.303760 -0.029390 
#    z -0.021180 -0.029390 2.106890 
# 
# From -- ./inp_files/264592.got.cif
#   From: 2010.05.17/outbox.cif.g08.bks.cpg/sg2_133_cif.got.tgz:264592.got - 2010.06.03 11:33:40.
