data_PCOD9001473
_publ_section_title
;
Structure prediction by ZEFSAII (Michael W. Deem and Ramdas Pophale) SiO2 
 PCOD9001473
Probable space group: P -1
;
_chemical_formula_sum "Si O2"
_cell_formula_units_Z 16
_cell_length_a 16.724344
_cell_length_b 16.776830
_cell_length_c 10.477151
_cell_angle_alpha 104.971060
_cell_angle_beta 103.615782
_cell_angle_gamma 18.212440
_cell_volume 887.104030
_symmetry_space_group_name_H-M "P -1"
_symmetry_group_IT_number 2
_symmetry_cell_setting 'triclinic'
loop_
_space_group_symop_operation_xyz
x,y,z
-x,-y,-z
loop_
_atom_site_type_symbol
_atom_site_label
_atom_site_fract_x
_atom_site_fract_y
_atom_site_fract_z
Si Si1 0.706003 0.377613 0.800346
Si Si2 0.847860 0.839967 0.508161
Si Si3 0.764905 0.739680 0.414731
Si Si4 0.983806 0.159375 0.572851
Si Si5 0.682369 0.639366 0.318402
Si Si6 0.923338 0.019150 0.856063
Si Si7 0.713301 0.278613 0.381523
Si Si8 0.647847 0.506076 0.111815
O O1 0.891242 0.121371 0.779062
O O2 0.431881 0.598979 0.754621
O O3 0.788099 0.353530 0.698902
O O4 0.696496 0.435234 0.953099
O O5 0.815897 0.782760 0.398362
O O6 0.907112 0.859560 0.445963
O O7 0.085488 0.603451 0.597836
O O8 0.585484 0.105411 0.597923
O O9 0.733588 0.683624 0.304276
O O10 0.000000 0.500000 0.500000
O O11 0.500000 0.000000 0.500000
O O12 0.876707 0.206777 0.434196
O O13 0.181710 0.907645 0.604508
O O14 0.666206 0.584993 0.182670
O O15 0.637853 0.253470 0.861459
O O16 0.132602 0.748108 0.827799
O O17 0.000000 0.000000 0.000000
O O18 0.500000 0.500000 0.500000
#
# Coordination Sequence:
#
# PCOD9001473 Si02
#       8
#     2   2   2   2   2   2   2   2
#     4  10  22  36  53  71 111 144 186 220 268 311
#     4  10  21  36  57  82 109 138 177 218 273 328
#     4   8  16  34  55  78 107 136 165 218 275 320
#     4  10  22  35  53  76 104 144 184 221 267 311
#     4  10  21  35  56  85 110 133 175 224 272 325
#     4  10  22  37  51  76 106 146 187 216 261 309
#     4   9  21  35  48  71 103 143 182 220 258 300
#     4  11  23  36  56  81 105 146 182 224 267 318
#
# _framework density 18.036214999999999
#
# number of rings (size 3 to 8) (size 9 to 14) (size 15 to 20)
#    0.000    2.250    0.000    2.250   10.500    4.000 
#    0.000    0.000    0.000    0.750    0.000    0.875 
#    0.000    0.000    0.000    0.000    0.000    0.000 
#
# Total GULP energy -89116.750857 kJ/mol
# GULP energy per Si atom -5569.796929 kJ/mol
# Density = 1.799516 g / cm^3
# Si number density = 18.036215 Si / 1000 Ang^3
#
#
#
# Elastic Constant Matrix: (Units=GPa)
#
#
# Indices 1 2 3 4 5 6 
#
# 1 177.2626 34.3799 67.3368 4.9700 26.8146 10.6683
# 2 34.3799 113.1584 23.9673 -6.9034 9.1297 -5.9901
# 3 67.3368 23.9673 99.7357 -0.3488 16.5732 10.3978
# 4 4.9700 -6.9034 -0.3488 23.9076 3.5055 4.6271
# 5 26.8146 9.1297 16.5732 3.5055 31.1326 5.2494
# 6 10.6683 -5.9901 10.3978 4.6271 5.2494 21.0594
#
#
#
# Elastic Compliance Matrix: (Units=1/GPa)
#
#
# Indices 1 2 3 4 5 6 
#
# 1 0.008343 -0.001395 -0.004520 -0.001403 -0.004031 -0.001078
# 2 -0.001395 0.010148 -0.001613 0.002650 -0.001938 0.004290
# 3 -0.004520 -0.001613 0.014452 0.002065 -0.002702 -0.005085
# 4 -0.001403 0.002650 0.002065 0.045177 -0.004338 -0.008399
# 5 -0.004031 -0.001938 -0.002702 -0.004338 0.039094 -0.005967
# 6 -0.001078 0.004290 -0.005085 -0.008399 -0.005967 0.055094
#
#
# Mechanical properties :
#
#
# Convention : Reuss Voigt Hill
#
# Bulk Modulus (GPa) = 55.90647 71.28054 63.59350
# Shear Modulus (GPa) = 25.86305 32.85143 29.35724
#
# Velocity S-wave (km/s) = 3.79086 4.27243 4.03883
# Velocity P-wave (km/s) = 7.08695 7.99655 7.55545
#
# Compressibility (1/GPa) = 0.01788702
#
# Stress axis : x y z
#
# Youngs Moduli (GPa) = 119.86168 98.54475 69.19291
#
# Poissons Ratio (x) = 0.13746 0.31277
# Poissons Ratio (y) = 0.16719 0.11160
# Poissons Ratio (z) = 0.54181 0.15894
#
# Static dielectric constant tensor:
#      x y z
#    x 1.676180 -0.055600 -0.023800 
#    y -0.055600 1.735310 0.044090 
#    z -0.023800 0.044090 1.658010 
# 
# From -- ./inp_files/54423.got.cif
#   From: 2010.05.17/outbox.cif.g08.bks.cpg/sg2_28_cif.got.tgz:54423.got - 2010.06.03 11:33:40.
