data_PCOD9001355
_publ_section_title
;
Structure prediction by ZEFSAII (Michael W. Deem and Ramdas Pophale) SiO2 
 PCOD9001355
Probable space group: P -1
;
_chemical_formula_sum "Si O2"
_cell_formula_units_Z 16
_cell_length_a 6.708808
_cell_length_b 26.162970
_cell_length_c 18.553282
_cell_angle_alpha 19.450975
_cell_angle_beta 80.877743
_cell_angle_gamma 70.119523
_cell_volume 872.518088
_symmetry_space_group_name_H-M "P -1"
_symmetry_group_IT_number 2
_symmetry_cell_setting 'triclinic'
loop_
_space_group_symop_operation_xyz
x,y,z
-x,-y,-z
loop_
_atom_site_type_symbol
_atom_site_label
_atom_site_fract_x
_atom_site_fract_y
_atom_site_fract_z
Si Si1 0.874575 0.409238 0.786136
Si Si2 0.046568 0.502905 0.907722
Si Si3 0.373364 0.436013 0.254887
Si Si4 0.595086 0.216598 0.222751
Si Si5 0.039353 0.029483 0.345997
Si Si6 0.844946 0.488705 0.460254
Si Si7 0.730273 0.263835 0.852956
Si Si8 0.096399 0.843462 0.445354
O O1 0.704563 0.530382 0.701858
O O2 0.740265 0.381452 0.763409
O O3 0.026771 0.490941 0.643196
O O4 0.045517 0.196638 0.089751
O O5 0.053447 0.682136 0.653840
O O6 0.830289 0.536933 0.824006
O O7 0.305271 0.308025 0.126975
O O8 0.000000 0.500000 0.000000
O O9 0.634596 0.238289 0.493208
O O10 0.400269 0.601823 0.010377
O O11 0.758576 0.119865 0.269855
O O12 0.763857 0.066691 0.473593
O O13 0.104822 0.878170 0.483170
O O14 0.843476 0.308634 0.719306
O O15 0.552949 0.655237 0.254042
O O16 0.000000 0.500000 0.500000
O O17 0.890702 0.045674 0.154610
#
# Coordination Sequence:
#
# PCOD9001355 Si02
#       8
#     2   2   2   2   2   2   2   2
#     4   9  19  34  56  79 103 137 175 217 259 307
#     4  11  22  34  52  75 106 148 181 212 261 310
#     4  10  21  36  51  75 109 143 177 214 259 308
#     4   9  19  35  51  72 105 139 176 220 262 303
#     4   9  17  34  54  74 103 136 175 224 261 298
#     4   9  18  34  58  84 107 129 164 213 264 316
#     4   9  19  36  58  81 104 134 170 212 264 311
#     4  10  21  35  52  75 106 137 173 216 259 309
#
# _framework density 18.337730000000001
#
# number of rings (size 3 to 8) (size 9 to 14) (size 15 to 20)
#    0.000    2.500    0.000    1.500    0.000   10.000 
#    0.000   10.625    0.000    7.500    0.000    0.000 
#    0.000    0.000    0.000    0.000    0.000    0.000 
#
# Total GULP energy -89120.796614 kJ/mol
# GULP energy per Si atom -5570.049788 kJ/mol
# Density = 1.829599 g / cm^3
# Si number density = 18.337730 Si / 1000 Ang^3
#
#
#
# Elastic Constant Matrix: (Units=GPa)
#
#
# Indices 1 2 3 4 5 6 
#
# 1 104.2147 36.6019 36.0710 4.2363 17.6804 -8.9881
# 2 36.6019 68.2362 31.0103 0.0571 6.2661 -6.6243
# 3 36.0710 31.0103 53.9894 11.3179 15.1094 -3.0956
# 4 4.2363 0.0571 11.3179 30.9975 -4.4968 -3.6590
# 5 17.6804 6.2661 15.1094 -4.4968 18.9299 2.3548
# 6 -8.9881 -6.6243 -3.0956 -3.6590 2.3548 10.4370
#
#
#
# Elastic Compliance Matrix: (Units=1/GPa)
#
#
# Indices 1 2 3 4 5 6 
#
# 1 0.015453 -0.004458 -0.003527 -0.001156 -0.011873 0.011705
# 2 -0.004458 0.023382 -0.014048 0.007839 0.008547 0.007654
# 3 -0.003527 -0.014048 0.041102 -0.018722 -0.029346 0.000295
# 4 -0.001156 0.007839 -0.018722 0.043546 0.022707 0.008570
# 5 -0.011873 0.008547 -0.029346 0.022707 0.093209 -0.026573
# 6 0.011705 0.007654 0.000295 0.008570 -0.026573 0.119838
#
#
# Mechanical properties :
#
#
# Convention : Reuss Voigt Hill
#
# Bulk Modulus (GPa) = 27.87852 48.20073 38.03963
# Shear Modulus (GPa) = 12.73713 20.25671 16.49692
#
# Velocity S-wave (km/s) = 2.63836 3.32723 3.00261
# Velocity P-wave (km/s) = 4.95147 6.41114 5.72799
#
# Compressibility (1/GPa) = 0.03586991
#
# Stress axis : x y z
#
# Youngs Moduli (GPa) = 64.71184 42.76754 24.32991
#
# Poissons Ratio (x) = 0.19068 0.08582
# Poissons Ratio (y) = 0.28852 0.34178
# Poissons Ratio (z) = 0.22826 0.60079
#
# Static dielectric constant tensor:
#      x y z
#    x 1.657610 -0.021660 -0.013780 
#    y -0.021660 1.656860 0.006860 
#    z -0.013780 0.006860 1.631700 
# 
# From -- ./inp_files/44696.got.cif
#   From: 2010.05.17/outbox.cif.g08.bks.cpg/sg2_23_cif.got.tgz:44696.got - 2010.06.03 11:33:40.
