data_PCOD9001040
_publ_section_title
;
Structure prediction by ZEFSAII (Michael W. Deem and Ramdas Pophale) SiO2 
 PCOD9001040
Probable space group: P -1
;
_chemical_formula_sum "Si O2"
_cell_formula_units_Z 14
_cell_length_a 6.903487
_cell_length_b 12.046453
_cell_length_c 18.564457
_cell_angle_alpha 154.516047
_cell_angle_beta 102.652974
_cell_angle_gamma 92.378117
_cell_volume 532.600616
_symmetry_space_group_name_H-M "P -1"
_symmetry_group_IT_number 2
_symmetry_cell_setting 'triclinic'
loop_
_space_group_symop_operation_xyz
x,y,z
-x,-y,-z
loop_
_atom_site_type_symbol
_atom_site_label
_atom_site_fract_x
_atom_site_fract_y
_atom_site_fract_z
Si Si1 0.184144 0.369236 0.368958
Si Si2 0.337112 0.722227 0.730514
Si Si3 0.848552 0.693863 0.988018
Si Si4 0.108397 0.267986 0.565878
Si Si5 0.374811 0.647776 0.928726
Si Si6 0.844531 0.615658 0.776136
Si Si7 0.769773 0.576534 0.067815
O O1 0.334587 0.611620 0.585307
O O2 0.307958 0.479736 0.366257
O O3 0.924956 0.327108 0.313899
O O4 0.096874 0.030082 0.192766
O O5 0.316286 0.506252 0.666594
O O6 0.574319 0.075892 0.958839
O O7 0.646765 0.759617 0.030299
O O8 0.774580 0.559030 0.821684
O O9 0.828299 0.516885 0.957071
O O10 0.239092 0.317270 0.681892
O O11 0.955000 0.409468 0.656091
O O12 0.953374 0.938520 0.319612
O O13 0.242015 0.608301 0.969279
O O14 0.000000 0.000000 0.000000
O O15 0.500000 0.500000 0.000000
#
# Coordination Sequence:
#
# PCOD9001040 Si02
#       7
#     2   2   2   2   2   2   2
#     4   8  14  27  52  78 102 135 180 220 260 308
#     4   9  16  28  54  82 102 135 183 223 264 319
#     4   9  17  36  54  79 108 143 184 225 263 326
#     4  11  20  36  59  83 111 145 180 231 281 316
#     4  10  21  33  56  84 115 138 184 230 274 321
#     4   9  19  32  57  84 111 139 184 229 274 326
#     4  10  21  36  58  82 108 148 194 221 258 336
#
# _framework density 26.286111999999999
#
# number of rings (size 3 to 8) (size 9 to 14) (size 15 to 20)
#    0.000    2.571    1.429    1.714    6.000    0.000 
#    0.000    3.571    3.143    2.571    0.000    0.000 
#    0.000    0.000    0.000    0.000    0.000    0.000 
#
# Total GULP energy -78038.803703 kJ/mol
# GULP energy per Si atom -5574.200265 kJ/mol
# Density = 2.622628 g / cm^3
# Si number density = 26.286112 Si / 1000 Ang^3
#
#
#
# Elastic Constant Matrix: (Units=GPa)
#
#
# Indices 1 2 3 4 5 6 
#
# 1 80.6893 39.6309 16.9458 -0.7939 -15.1521 28.0690
# 2 39.6309 204.9086 46.9361 -28.8346 -0.4343 54.2878
# 3 16.9458 46.9361 99.8786 -13.6376 6.5305 16.0895
# 4 -0.7939 -28.8346 -13.6376 41.8902 3.9917 -8.8212
# 5 -15.1521 -0.4343 6.5305 3.9917 29.8349 -6.9483
# 6 28.0690 54.2878 16.0895 -8.8212 -6.9483 55.3697
#
#
#
# Elastic Compliance Matrix: (Units=1/GPa)
#
#
# Indices 1 2 3 4 5 6 
#
# 1 0.017324 -0.001770 -0.002196 -0.003652 0.008358 -0.005942
# 2 -0.001770 0.007671 -0.001717 0.003677 -0.002259 -0.005823
# 3 -0.002196 -0.001717 0.011999 0.002935 -0.004338 -0.000767
# 4 -0.003652 0.003677 0.002935 0.028092 -0.005941 0.001124
# 5 0.008358 -0.002259 -0.004338 -0.005941 0.040253 0.003344
# 6 -0.005942 -0.005823 -0.000767 0.001124 0.003344 0.027603
#
#
# Mechanical properties :
#
#
# Convention : Reuss Voigt Hill
#
# Bulk Modulus (GPa) = 39.01597 65.83355 52.42476
# Shear Modulus (GPa) = 32.71178 44.21656 38.46417
#
# Velocity S-wave (km/s) = 3.53150 4.10582 3.82945
# Velocity P-wave (km/s) = 5.61282 6.89756 6.28809
#
# Compressibility (1/GPa) = 0.02563053
#
# Stress axis : x y z
#
# Youngs Moduli (GPa) = 57.72303 130.35977 83.33721
#
# Poissons Ratio (x) = 0.23068 0.18298
# Poissons Ratio (y) = 0.10215 0.14308
# Poissons Ratio (z) = 0.12674 0.22381
#
# Static dielectric constant tensor:
#      x y z
#    x 2.268330 -0.121300 -0.090350 
#    y -0.121300 2.194850 0.016920 
#    z -0.090350 0.016920 1.989920 
# 
# From -- ./inp_files/220142.got.cif
#   From: 2010.05.17/outbox.cif.g08.bks.cpg/sg2_111_cif.got.tgz:220142.got - 2010.06.03 11:33:40.
