data_PCOD9001278
_publ_section_title
;
Structure prediction by ZEFSAII (Michael W. Deem and Ramdas Pophale) SiO2 
 PCOD9001278
Probable space group: P -1
;
_chemical_formula_sum "Si O2"
_cell_formula_units_Z 14
_cell_length_a 6.290416
_cell_length_b 7.626549
_cell_length_c 14.414318
_cell_angle_alpha 60.230407
_cell_angle_beta 80.411867
_cell_angle_gamma 93.383291
_cell_volume 583.700267
_symmetry_space_group_name_H-M "P -1"
_symmetry_group_IT_number 2
_symmetry_cell_setting 'triclinic'
loop_
_space_group_symop_operation_xyz
x,y,z
-x,-y,-z
loop_
_atom_site_type_symbol
_atom_site_label
_atom_site_fract_x
_atom_site_fract_y
_atom_site_fract_z
Si Si1 0.900471 0.296856 0.501938
Si Si2 0.463509 0.104223 0.669676
Si Si3 0.603653 0.588468 0.084967
Si Si4 0.157726 0.167009 0.830672
Si Si5 0.079570 0.873141 0.651680
Si Si6 0.681888 0.794821 0.836606
Si Si7 0.271367 0.848630 0.043111
O O1 0.926922 0.286687 0.390943
O O2 0.000000 0.500000 0.500000
O O3 0.643037 0.249272 0.558780
O O4 0.008162 0.094037 0.572757
O O5 0.323688 0.936295 0.657183
O O6 0.608797 0.011600 0.761334
O O7 0.278429 0.194028 0.717470
O O8 0.722498 0.664826 0.150222
O O9 0.547225 0.349932 0.136681
O O10 0.356297 0.637267 0.084868
O O11 0.721118 0.719073 0.957124
O O12 0.902556 0.169431 0.857459
O O13 0.178713 0.946798 0.933836
O O14 0.897562 0.787492 0.763124
O O15 0.500000 0.000000 0.000000
#
# Coordination Sequence:
#
# PCOD9001278 Si02
#       7
#     2   2   2   2   2   2   2
#     4  10  24  48  72  95 126 169 212 274 344 403
#     4  11  23  41  67  98 130 164 216 273 329 385
#     4  10  21  38  58  89 136 177 218 254 305 381
#     4  10  21  34  60  91 123 171 219 261 310 378
#     4  10  24  44  69  97 134 163 216 275 335 390
#     4  10  23  39  61  91 133 179 207 264 321 372
#     4   9  19  34  56  80 126 165 216 258 299 363
#
# _framework density 23.984912999999999
#
# number of rings (size 3 to 8) (size 9 to 14) (size 15 to 20)
#    0.000    2.000    1.429    0.429    8.000    2.857 
#    2.571    2.857    0.000    0.000    0.000    0.000 
#    0.000    0.000    0.000    0.000    0.000    0.000 
#
# Total GULP energy -78119.696797 kJ/mol
# GULP energy per Si atom -5579.978343 kJ/mol
# Density = 2.393032 g / cm^3
# Si number density = 23.984913 Si / 1000 Ang^3
#
#
#
# Elastic Constant Matrix: (Units=GPa)
#
#
# Indices 1 2 3 4 5 6 
#
# 1 102.1806 33.3872 46.9309 18.3175 -37.8851 9.6293
# 2 33.3872 122.3441 31.9777 25.9697 -18.2750 23.8450
# 3 46.9309 31.9777 90.3106 27.5151 -40.1055 -5.2765
# 4 18.3175 25.9697 27.5151 37.5168 -7.3640 -3.5218
# 5 -37.8851 -18.2750 -40.1055 -7.3640 46.7617 8.3820
# 6 9.6293 23.8450 -5.2765 -3.5218 8.3820 41.5674
#
#
#
# Elastic Compliance Matrix: (Units=1/GPa)
#
#
# Indices 1 2 3 4 5 6 
#
# 1 0.016925 0.000338 -0.002296 -0.005070 0.012391 -0.007334
# 2 0.000338 0.012482 -0.000206 -0.008470 0.005262 -0.009043
# 3 -0.002296 -0.000206 0.023410 -0.012784 0.016256 -0.000739
# 4 -0.005070 -0.008470 -0.012784 0.042713 -0.013586 0.010769
# 5 0.012391 0.005262 0.016256 -0.013586 0.047907 -0.014637
# 6 -0.007334 -0.009043 -0.000739 0.010769 -0.014637 0.034714
#
#
# Mechanical properties :
#
#
# Convention : Reuss Voigt Hill
#
# Bulk Modulus (GPa) = 20.62365 59.93632 40.27999
# Shear Modulus (GPa) = 25.17088 38.67181 31.92134
#
# Velocity S-wave (km/s) = 3.24303 4.01975 3.65210
# Velocity P-wave (km/s) = 4.75818 6.82554 5.88337
#
# Compressibility (1/GPa) = 0.04848802
#
# Stress axis : x y z
#
# Youngs Moduli (GPa) = 59.08412 80.11668 42.71702
#
# Poissons Ratio (x) = -0.02707 0.09808
# Poissons Ratio (y) = -0.01997 0.00881
# Poissons Ratio (z) = 0.13566 0.01653
#
# Static dielectric constant tensor:
#      x y z
#    x 1.942470 -0.065770 0.041330 
#    y -0.065770 2.127730 -0.005530 
#    z 0.041330 -0.005530 1.907180 
# 
# From -- ./inp_files/478891.got.cif
#   From: 2010.05.17/outbox.cif.g08.bks.cpg/sg2_240_cif.got.tgz:478891.got - 2010.06.03 11:33:40.
