data_PCOD9001057
_publ_section_title
;
Structure prediction by ZEFSAII (Michael W. Deem and Ramdas Pophale) SiO2 
 PCOD9001057
Probable space group: P -1
;
_chemical_formula_sum "Si O2"
_cell_formula_units_Z 16
_cell_length_a 21.915646
_cell_length_b 13.554125
_cell_length_c 8.713670
_cell_angle_alpha 52.089442
_cell_angle_beta 48.562174
_cell_angle_gamma 20.729664
_cell_volume 686.735120
_symmetry_space_group_name_H-M "P -1"
_symmetry_group_IT_number 2
_symmetry_cell_setting 'triclinic'
loop_
_space_group_symop_operation_xyz
x,y,z
-x,-y,-z
loop_
_atom_site_type_symbol
_atom_site_label
_atom_site_fract_x
_atom_site_fract_y
_atom_site_fract_z
Si Si1 0.748487 0.872068 0.239903
Si Si2 0.487063 0.405374 0.987587
Si Si3 0.920361 0.410631 0.975515
Si Si4 0.191536 0.312146 0.376108
Si Si5 0.739467 0.186948 0.546365
Si Si6 0.855602 0.090718 0.111524
Si Si7 0.151544 0.533964 0.507820
Si Si8 0.815108 0.327105 0.449878
O O1 0.701440 0.921256 0.455089
O O2 0.933669 0.697710 0.086870
O O3 0.208542 0.327587 0.692911
O O4 0.596132 0.144914 0.133841
O O5 0.597166 0.291070 0.760280
O O6 0.282066 0.673701 0.014899
O O7 0.500000 0.500000 0.000000
O O8 0.773784 0.692238 0.851817
O O9 0.848652 0.398030 0.213468
O O10 0.041654 0.168710 0.881115
O O11 0.183998 0.450116 0.358248
O O12 0.000000 0.500000 0.500000
O O13 0.748963 0.196047 0.340852
O O14 0.707376 0.365581 0.509289
O O15 0.939217 0.857343 0.567861
O O16 0.000000 0.000000 0.000000
O O17 0.252351 0.510634 0.440568
O O18 0.000000 0.000000 0.500000
#
# Coordination Sequence:
#
# PCOD9001057 Si02
#       8
#     2   2   2   2   2   2   2   2
#     4   9  19  39  60  98 134 173 220 278 334 396
#     4  12  26  42  67  99 141 174 218 284 339 393
#     4  11  18  36  64  95 131 171 226 266 329 399
#     4   8  17  33  58  92 130 168 223 268 319 399
#     4  11  23  41  63  99 134 174 224 271 333 400
#     4  12  24  42  67  99 131 180 222 273 336 406
#     4   9  19  34  64  94 132 170 222 271 329 397
#     4  10  21  33  57  99 132 169 216 277 322 390
#
# _framework density 23.298648
#
# number of rings (size 3 to 8) (size 9 to 14) (size 15 to 20)
#    0.750    1.000    3.750    1.875    0.000    2.000 
#    0.000    0.000    0.000    7.500    0.000    0.000 
#    0.000    0.000    0.000    0.000    0.000    0.000 
#
# Total GULP energy -89252.341501 kJ/mol
# GULP energy per Si atom -5578.271344 kJ/mol
# Density = 2.324562 g / cm^3
# Si number density = 23.298648 Si / 1000 Ang^3
#
#
#
# Elastic Constant Matrix: (Units=GPa)
#
#
# Indices 1 2 3 4 5 6 
#
# 1 93.4277 32.7382 16.2234 -17.4352 11.2239 4.5850
# 2 32.7382 68.8886 48.1648 -33.0839 3.9316 -11.3462
# 3 16.2234 48.1648 163.9274 -34.9474 4.5576 -18.0101
# 4 -17.4352 -33.0839 -34.9474 43.9607 1.7144 2.8711
# 5 11.2239 3.9316 4.5576 1.7144 26.5327 -10.0679
# 6 4.5850 -11.3462 -18.0101 2.8711 -10.0679 28.9388
#
#
#
# Elastic Compliance Matrix: (Units=1/GPa)
#
#
# Indices 1 2 3 4 5 6 
#
# 1 0.014974 -0.007570 0.000378 0.001408 -0.008478 -0.008194
# 2 -0.007570 0.029686 -0.003599 0.015757 0.002110 0.009770
# 3 0.000378 -0.003599 0.008300 0.003826 -0.000048 0.003298
# 4 0.001408 0.015757 0.003826 0.038217 -0.004992 0.002808
# 5 -0.008478 0.002110 -0.000048 -0.004992 0.048726 0.019588
# 6 -0.008194 0.009770 0.003298 0.002808 0.019588 0.048273
#
#
# Mechanical properties :
#
#
# Convention : Reuss Voigt Hill
#
# Bulk Modulus (GPa) = 31.87030 57.83294 44.85162
# Shear Modulus (GPa) = 22.70478 35.16093 28.93285
#
# Velocity S-wave (km/s) = 3.12510 3.88898 3.52778
# Velocity P-wave (km/s) = 5.17015 6.71133 5.99050
#
# Compressibility (1/GPa) = 0.03137717
#
# Stress axis : x y z
#
# Youngs Moduli (GPa) = 66.78334 33.68568 120.48729
#
# Poissons Ratio (x) = 0.25499 -0.04552
# Poissons Ratio (y) = 0.50554 0.43366
# Poissons Ratio (z) = -0.02523 0.12124
#
# Static dielectric constant tensor:
#      x y z
#    x 1.897010 -0.003880 0.028910 
#    y -0.003880 2.027970 -0.067920 
#    z 0.028910 -0.067920 2.004090 
# 
# From -- ./inp_files/188364.got.cif
#   From: 2010.05.17/outbox.cif.g08.bks.cpg/sg2_95_cif.got.tgz:188364.got - 2010.06.03 11:33:40.
