data_PCOD9001438
_publ_section_title
;
Structure prediction by ZEFSAII (Michael W. Deem and Ramdas Pophale) SiO2 
 PCOD9001438
Probable space group: P -1
;
_chemical_formula_sum "Si O2"
_cell_formula_units_Z 14
_cell_length_a 10.265785
_cell_length_b 13.164366
_cell_length_c 12.914158
_cell_angle_alpha 30.057343
_cell_angle_beta 88.186659
_cell_angle_gamma 66.677374
_cell_volume 591.352377
_symmetry_space_group_name_H-M "P -1"
_symmetry_group_IT_number 2
_symmetry_cell_setting 'triclinic'
loop_
_space_group_symop_operation_xyz
x,y,z
-x,-y,-z
loop_
_atom_site_type_symbol
_atom_site_label
_atom_site_fract_x
_atom_site_fract_y
_atom_site_fract_z
Si Si1 0.970800 0.838290 0.387394
Si Si2 0.159973 0.201737 0.194124
Si Si3 0.744392 0.163104 0.676310
Si Si4 0.468194 0.044986 0.583427
Si Si5 0.297214 0.843590 0.712939
Si Si6 0.995443 0.631100 0.278918
Si Si7 0.312381 0.574876 0.252597
O O1 0.175317 0.580751 0.315706
O O2 0.995803 0.568158 0.625330
O O3 0.888540 0.018561 0.340263
O O4 0.812775 0.098377 0.078061
O O5 0.134965 0.100256 0.182072
O O6 0.319440 0.186495 0.171131
O O7 0.244069 0.958930 0.495273
O O8 0.000000 0.500000 0.000000
O O9 0.517083 0.399736 0.452462
O O10 0.829780 0.287945 0.544499
O O11 0.814430 0.979781 0.943129
O O12 0.366186 0.365705 0.338996
O O13 0.500000 0.000000 0.500000
O O14 0.352126 0.975808 0.665849
O O15 0.500000 0.500000 0.000000
O O16 0.000000 0.500000 0.500000
#
# Coordination Sequence:
#
# PCOD9001438 Si02
#       7
#     2   2   2   2   2   2   2
#     4  11  23  41  67  93 129 167 217 260 315 385
#     4  10  21  35  55  86 128 170 204 256 308 362
#     4  10  24  42  62  95 132 161 211 270 318 374
#     4   9  18  34  57  81 124 170 203 241 308 362
#     4  11  21  35  59  91 125 172 214 246 303 382
#     4  11  25  46  70  93 122 167 215 269 330 378
#     4  10  22  44  64  91 133 167 205 266 317 371
#
# _framework density 23.674548000000001
#
# number of rings (size 3 to 8) (size 9 to 14) (size 15 to 20)
#    0.000    1.714    1.429    3.429    8.000    4.571 
#    7.714    1.429    0.000    0.000    0.000    0.000 
#    0.000    0.000    0.000    0.000    0.000    0.000 
#
# Total GULP energy -78120.730748 kJ/mol
# GULP energy per Si atom -5580.052196 kJ/mol
# Density = 2.362066 g / cm^3
# Si number density = 23.674548 Si / 1000 Ang^3
#
#
#
# Elastic Constant Matrix: (Units=GPa)
#
#
# Indices 1 2 3 4 5 6 
#
# 1 132.3317 3.8419 47.0702 3.3674 7.1796 -17.0840
# 2 3.8419 60.3326 8.5630 16.3343 -2.9718 -5.7397
# 3 47.0702 8.5630 116.8403 6.5907 -1.1225 -11.6294
# 4 3.3674 16.3343 6.5907 33.8837 -0.8096 -12.4063
# 5 7.1796 -2.9718 -1.1225 -0.8096 26.9405 2.0145
# 6 -17.0840 -5.7397 -11.6294 -12.4063 2.0145 31.8384
#
#
#
# Elastic Compliance Matrix: (Units=1/GPa)
#
#
# Indices 1 2 3 4 5 6 
#
# 1 0.009511 -0.000214 -0.003473 0.001425 -0.003000 0.004541
# 2 -0.000214 0.019257 -0.000852 -0.009308 0.001919 -0.000703
# 3 -0.003473 -0.000852 0.010207 -0.000703 0.001134 0.001365
# 4 0.001425 -0.009308 -0.000703 0.039151 -0.001319 0.014169
# 5 -0.003000 0.001919 0.001134 -0.001319 0.038421 -0.003795
# 6 0.004541 -0.000703 0.001365 0.014169 -0.003795 0.039979
#
#
# Mechanical properties :
#
#
# Convention : Reuss Voigt Hill
#
# Bulk Modulus (GPa) = 33.44802 47.60609 40.52705
# Shear Modulus (GPa) = 28.47881 35.20116 31.83998
#
# Velocity S-wave (km/s) = 3.47209 3.86019 3.67127
# Velocity P-wave (km/s) = 5.49844 6.32616 5.92677
#
# Compressibility (1/GPa) = 0.02989713
#
# Stress axis : x y z
#
# Youngs Moduli (GPa) = 105.13969 51.92957 97.97466
#
# Poissons Ratio (x) = 0.01112 0.34028
# Poissons Ratio (y) = 0.02252 0.08343
# Poissons Ratio (z) = 0.36517 0.04422
#
# Static dielectric constant tensor:
#      x y z
#    x 2.053080 -0.009390 0.016440 
#    y -0.009390 2.005150 -0.061020 
#    z 0.016440 -0.061020 1.930010 
# 
# From -- ./inp_files/425010.got.cif
#   From: 2010.05.17/outbox.cif.g08.bks.cpg/sg2_213_cif.got.tgz:425010.got - 2010.06.03 11:33:40.
