data_PCOD9001866
_publ_section_title
;
Structure prediction by ZEFSAII (Michael W. Deem and Ramdas Pophale) SiO2 
 PCOD9001866
Probable space group: P -1
;
_chemical_formula_sum "Si O2"
_cell_formula_units_Z 12
_cell_length_a 12.619330
_cell_length_b 7.920130
_cell_length_c 7.195156
_cell_angle_alpha 119.029951
_cell_angle_beta 69.484749
_cell_angle_gamma 72.477624
_cell_volume 481.680431
_symmetry_space_group_name_H-M "P -1"
_symmetry_group_IT_number 2
_symmetry_cell_setting 'triclinic'
loop_
_space_group_symop_operation_xyz
x,y,z
-x,-y,-z
loop_
_atom_site_type_symbol
_atom_site_label
_atom_site_fract_x
_atom_site_fract_y
_atom_site_fract_z
Si Si1 0.538811 0.642525 0.203873
Si Si2 0.903511 0.749416 0.098366
Si Si3 0.260716 0.833683 0.974282
Si Si4 0.255845 0.741345 0.485530
Si Si5 0.020761 0.706325 0.627149
Si Si6 0.381456 0.051751 0.825257
O O1 0.669976 0.395167 0.064701
O O2 0.408257 0.626382 0.254163
O O3 0.562362 0.786958 0.114566
O O4 0.486256 0.824487 0.511771
O O5 0.836775 0.987450 0.382886
O O6 0.999511 0.752895 0.885589
O O7 0.000000 0.500000 0.000000
O O8 0.767395 0.792019 0.106968
O O9 0.263372 0.758908 0.716111
O O10 0.347074 0.951224 0.969920
O O11 0.106685 0.045061 0.239956
O O12 0.169177 0.636844 0.440489
O O13 0.000000 0.500000 0.500000
#
# Coordination Sequence:
#
# PCOD9001866 Si02
#       6
#     2   2   2   2   2   2
#     4   9  16  29  51  79 106 132 170 225 267 304
#     4   9  18  32  55  82 100 135 176 224 260 307
#     4   9  17  32  54  76 101 140 176 216 267 309
#     4   9  18  32  50  80 102 132 180 218 259 314
#     4  10  21  36  52  75 110 142 175 218 264 316
#     4   8  16  27  47  81 109 120 171 225 264 301
#
# _framework density 24.912782
#
# number of rings (size 3 to 8) (size 9 to 14) (size 15 to 20)
#    0.000    3.667    0.000    4.000    4.667    0.000 
#    3.000    1.667    0.000    4.000    0.000    0.000 
#    0.000    0.000    0.000    0.000    0.000    0.000 
#
# Total GULP energy -67054.886358 kJ/mol
# GULP energy per Si atom -5587.907197 kJ/mol
# Density = 2.485608 g / cm^3
# Si number density = 24.912782 Si / 1000 Ang^3
#
#
#
# Elastic Constant Matrix: (Units=GPa)
#
#
# Indices 1 2 3 4 5 6 
#
# 1 106.9660 71.2369 45.4844 10.3279 -10.3466 41.1667
# 2 71.2369 113.3994 29.4303 28.4546 -13.5542 13.1003
# 3 45.4844 29.4303 117.8063 14.7133 -31.6551 3.6414
# 4 10.3279 28.4546 14.7133 48.4895 -1.1264 -7.4543
# 5 -10.3466 -13.5542 -31.6551 -1.1264 28.0769 -5.4400
# 6 41.1667 13.1003 3.6414 -7.4543 -5.4400 65.9152
#
#
#
# Elastic Compliance Matrix: (Units=1/GPa)
#
#
# Indices 1 2 3 4 5 6 
#
# 1 0.028132 -0.015697 -0.009934 0.003766 -0.011048 -0.014387
# 2 -0.015697 0.020286 0.004589 -0.008906 0.009857 0.005325
# 3 -0.009934 0.004589 0.016345 -0.004295 0.017852 0.005377
# 4 0.003766 -0.008906 -0.004295 0.026533 -0.006276 0.002138
# 5 -0.011048 0.009857 0.017852 -0.006276 0.057731 0.008010
# 6 -0.014387 0.005325 0.005377 0.002138 0.008010 0.023704
#
#
# Mechanical properties :
#
#
# Convention : Reuss Voigt Hill
#
# Bulk Modulus (GPa) = 44.09654 70.05276 57.07465
# Shear Modulus (GPa) = 22.48457 41.29766 31.89112
#
# Velocity S-wave (km/s) = 3.00748 4.07589 3.58174
# Velocity P-wave (km/s) = 5.45882 7.09442 6.32967
#
# Compressibility (1/GPa) = 0.02267752
#
# Stress axis : x y z
#
# Youngs Moduli (GPa) = 35.54692 49.29472 61.18172
#
# Poissons Ratio (x) = 0.77380 0.60780
# Poissons Ratio (y) = 0.55800 -0.28077
# Poissons Ratio (z) = 0.35313 -0.22622
#
# Static dielectric constant tensor:
#      x y z
#    x 2.057210 0.017940 0.108870 
#    y 0.017940 1.951520 -0.038100 
#    z 0.108870 -0.038100 2.094570 
# 
# From -- ./inp_files/413606.got.cif
#   From: 2010.05.17/outbox.cif.g08.bks.cpg/sg2_207_cif.got.tgz:413606.got - 2010.06.03 11:33:40.
