data_PCOD9001192
_publ_section_title
;
Structure prediction by ZEFSAII (Michael W. Deem and Ramdas Pophale) SiO2 
 PCOD9001192
Probable space group: P -1
;
_chemical_formula_sum "Si O2"
_cell_formula_units_Z 16
_cell_length_a 7.952372
_cell_length_b 7.883015
_cell_length_c 23.678372
_cell_angle_alpha 120.640330
_cell_angle_beta 34.620219
_cell_angle_gamma 125.372714
_cell_volume 685.871121
_symmetry_space_group_name_H-M "P -1"
_symmetry_group_IT_number 2
_symmetry_cell_setting 'triclinic'
loop_
_space_group_symop_operation_xyz
x,y,z
-x,-y,-z
loop_
_atom_site_type_symbol
_atom_site_label
_atom_site_fract_x
_atom_site_fract_y
_atom_site_fract_z
Si Si1 0.682908 0.629837 0.711150
Si Si2 0.865508 0.063858 0.894549
Si Si3 0.860038 0.079074 0.709779
Si Si4 0.486206 0.216164 0.622580
Si Si5 0.985263 0.491524 0.071116
Si Si6 0.787730 0.196277 0.314881
Si Si7 0.618381 0.577595 0.418724
Si Si8 0.242428 0.169590 0.924662
O O1 0.612160 0.409228 0.662474
O O2 0.970983 0.674727 0.682231
O O3 0.368414 0.629028 0.831704
O O4 0.769791 0.834089 0.681837
O O5 0.928432 0.286701 0.885529
O O6 0.082779 0.130918 0.900873
O O7 0.999238 0.902173 0.798910
O O8 0.500000 0.000000 0.000000
O O9 0.569149 0.138681 0.820924
O O10 0.114480 0.138291 0.699582
O O11 0.051579 0.235095 0.635484
O O12 0.582648 0.320587 0.550333
O O13 0.492007 0.997560 0.611765
O O14 0.242578 0.380502 0.990727
O O15 0.000000 0.500000 0.000000
O O16 0.672962 0.368613 0.343298
O O17 0.500000 0.500000 0.500000
O O18 0.000000 0.000000 0.000000
#
# Coordination Sequence:
#
# PCOD9001192 Si02
#       8
#     2   2   2   2   2   2   2   2
#     4  11  20  43  65  93 137 178 221 279 334 410
#     4  11  25  37  59  96 136 178 227 268 329 402
#     4   9  23  40  65  92 133 171 222 277 339 386
#     4   9  23  43  69  95 131 173 220 281 346 398
#     4  10  21  34  56  87 136 169 222 264 308 392
#     4  11  23  42  70  94 134 181 217 276 348 396
#     4  10  25  47  71  99 133 172 229 289 347 409
#     4  11  22  37  61  93 129 178 223 266 328 394
#
# _framework density 23.327998999999998
#
# number of rings (size 3 to 8) (size 9 to 14) (size 15 to 20)
#    0.750    1.000    2.500    1.500    8.750    0.500 
#    0.000    2.500    0.000    0.000    0.000    0.000 
#    0.000    0.000    0.000    0.000    0.000    0.000 
#
# Total GULP energy -89111.469696 kJ/mol
# GULP energy per Si atom -5569.466856 kJ/mol
# Density = 2.327490 g / cm^3
# Si number density = 23.327999 Si / 1000 Ang^3
#
#
#
# Elastic Constant Matrix: (Units=GPa)
#
#
# Indices 1 2 3 4 5 6 
#
# 1 25.1981 16.4505 -3.4047 3.5756 0.0912 10.2395
# 2 16.4505 138.8157 23.6231 -16.5533 -7.7970 3.5316
# 3 -3.4047 23.6231 68.8452 -10.3509 2.7608 1.2952
# 4 3.5756 -16.5533 -10.3509 35.9258 -10.4828 12.1111
# 5 0.0912 -7.7970 2.7608 -10.4828 21.2637 8.4386
# 6 10.2395 3.5316 1.2952 12.1111 8.4386 33.8325
#
#
#
# Elastic Compliance Matrix: (Units=1/GPa)
#
#
# Indices 1 2 3 4 5 6 
#
# 1 0.050798 -0.006397 0.004779 -0.000766 0.002484 -0.015235
# 2 -0.006397 0.010310 -0.002764 0.009511 0.010903 -0.005158
# 3 0.004779 -0.002764 0.016389 0.004152 0.000203 -0.003322
# 4 -0.000766 0.009511 0.004152 0.057265 0.044043 -0.032405
# 5 0.002484 0.010903 0.000203 0.044043 0.088469 -0.039730
# 6 -0.015235 -0.005158 -0.003322 -0.032405 -0.039730 0.056344
#
#
# Mechanical properties :
#
#
# Convention : Reuss Voigt Hill
#
# Bulk Modulus (GPa) = 14.54917 34.02186 24.28552
# Shear Modulus (GPa) = 16.06420 31.28373 23.67397
#
# Velocity S-wave (km/s) = 2.62701 3.66599 3.18910
# Velocity P-wave (km/s) = 3.93089 5.70396 4.89832
#
# Compressibility (1/GPa) = 0.06873244
#
# Stress axis : x y z
#
# Youngs Moduli (GPa) = 19.68565 96.99198 61.01723
#
# Poissons Ratio (x) = 0.62050 -0.29162
# Poissons Ratio (y) = 0.12594 0.16867
# Poissons Ratio (z) = -0.09408 0.26812
#
# Static dielectric constant tensor:
#      x y z
#    x 1.903660 -0.110150 0.049080 
#    y -0.110150 2.083040 0.014250 
#    z 0.049080 0.014250 1.909730 
# 
# From -- ./inp_files/606433.got.cif
#   From: 2010.05.17/outbox.cif.g08.bks.cpg/sg2_304_cif.got.tgz:606433.got - 2010.06.03 11:33:40.
