data_PCOD9001495
_publ_section_title
;
Structure prediction by ZEFSAII (Michael W. Deem and Ramdas Pophale) SiO2 
 PCOD9001495
Probable space group: P -1
;
_chemical_formula_sum "Si O2"
_cell_formula_units_Z 16
_cell_length_a 9.893400
_cell_length_b 8.756177
_cell_length_c 10.539000
_cell_angle_alpha 70.695821
_cell_angle_beta 97.106541
_cell_angle_gamma 126.819728
_cell_volume 686.416171
_symmetry_space_group_name_H-M "P -1"
_symmetry_group_IT_number 2
_symmetry_cell_setting 'triclinic'
loop_
_space_group_symop_operation_xyz
x,y,z
-x,-y,-z
loop_
_atom_site_type_symbol
_atom_site_label
_atom_site_fract_x
_atom_site_fract_y
_atom_site_fract_z
Si Si1 0.971385 0.842377 0.695134
Si Si2 0.910526 0.236605 0.796926
Si Si3 0.182836 0.775052 0.923867
Si Si4 0.317151 0.224862 0.170693
Si Si5 0.808343 0.478311 0.602377
Si Si6 0.789875 0.703525 0.320910
Si Si7 0.485760 0.241173 0.815725
Si Si8 0.339594 0.565155 0.945994
O O1 0.041355 0.781261 0.835137
O O2 0.785040 0.782161 0.718616
O O3 0.945601 0.699157 0.618345
O O4 0.099751 0.084486 0.644289
O O5 0.891587 0.360881 0.653652
O O6 0.090044 0.275286 0.784701
O O7 0.772213 0.000863 0.820818
O O8 0.866239 0.271320 0.921553
O O9 0.208224 0.617988 0.906382
O O10 0.360160 0.998087 0.868222
O O11 0.516772 0.335494 0.172083
O O12 0.286587 0.344530 0.030335
O O13 0.752409 0.523036 0.453893
O O14 0.642882 0.342779 0.710079
O O15 0.630099 0.689881 0.257435
O O16 0.560536 0.318174 0.943419
#
# Coordination Sequence:
#
# PCOD9001495 Si02
#       8
#     2   2   2   2   2   2   2   2
#     4  10  23  40  61  89 120 157 195 251 295 354
#     4  11  22  38  64  85 125 153 198 248 296 355
#     4  11  22  39  61  95 121 152 193 244 315 350
#     4  10  21  35  56  91 118 159 186 241 301 357
#     4  12  22  43  62  86 119 164 204 239 290 352
#     4  10  25  40  62  87 119 162 204 241 288 349
#     4  11  21  38  64  89 116 157 195 250 292 354
#     4  11  20  36  59  89 129 150 191 238 307 366
#
# _framework density 23.309474000000002
#
# number of rings (size 3 to 8) (size 9 to 14) (size 15 to 20)
#    0.000    1.250    3.750    2.250    1.750    3.500 
#    2.250    0.000    0.000    0.750    0.000    0.000 
#    0.000    0.000    0.000    0.000    0.000    0.000 
#
# Total GULP energy -89529.534589 kJ/mol
# GULP energy per Si atom -5595.595912 kJ/mol
# Density = 2.325642 g / cm^3
# Si number density = 23.309474 Si / 1000 Ang^3
#
#
#
# Elastic Constant Matrix: (Units=GPa)
#
#
# Indices 1 2 3 4 5 6 
#
# 1 97.7667 22.7037 5.9976 -19.1409 19.6734 -14.0202
# 2 22.7037 85.9046 22.0263 -15.9976 3.7787 -19.4305
# 3 5.9976 22.0263 74.5689 -22.0416 21.3362 -2.3120
# 4 -19.1409 -15.9976 -22.0416 19.6968 -6.9328 7.7368
# 5 19.6734 3.7787 21.3362 -6.9328 28.6293 -9.2198
# 6 -14.0202 -19.4305 -2.3120 7.7368 -9.2198 28.9936
#
#
#
# Elastic Compliance Matrix: (Units=1/GPa)
#
#
# Indices 1 2 3 4 5 6 
#
# 1 0.016959 -0.003222 0.009923 0.021187 -0.014609 -0.003467
# 2 -0.003222 0.016653 -0.006211 0.002084 0.008806 0.011351
# 3 0.009923 -0.006211 0.032622 0.037898 -0.026012 -0.015147
# 4 0.021187 0.002084 0.037898 0.116866 -0.022391 -0.023642
# 5 -0.014609 0.008806 -0.026012 -0.022391 0.065342 0.023516
# 6 -0.003467 0.011351 -0.015147 -0.023642 0.023516 0.053000
#
#
# Mechanical properties :
#
#
# Convention : Reuss Voigt Hill
#
# Bulk Modulus (GPa) = 14.87820 39.96616 27.42218
# Shear Modulus (GPa) = 15.48623 29.29812 22.39218
#
# Velocity S-wave (km/s) = 2.58034 3.54915 3.10279
# Velocity P-wave (km/s) = 3.90824 5.82910 4.96250
#
# Compressibility (1/GPa) = 0.06721245
#
# Stress axis : x y z
#
# Youngs Moduli (GPa) = 58.96732 60.04814 30.65400
#
# Poissons Ratio (x) = 0.19349 -0.30418
# Poissons Ratio (y) = 0.19001 0.19040
# Poissons Ratio (z) = -0.58513 0.37298
#
# Static dielectric constant tensor:
#      x y z
#    x 1.881550 0.002330 -0.020350 
#    y 0.002330 1.905510 0.019340 
#    z -0.020350 0.019340 1.872310 
# 
# From -- ./inp_files/207125.got.cif
#   From: 2010.05.17/outbox.cif.g08.bks.cpg/sg2_104_cif.got.tgz:207125.got - 2010.06.03 11:33:40.
