data_PCOD9001901
_publ_section_title
;
Structure prediction by ZEFSAII (Michael W. Deem and Ramdas Pophale) SiO2 
 PCOD9001901
Probable space group: P -1
;
_chemical_formula_sum "Si O2"
_cell_formula_units_Z 14
_cell_length_a 5.377508
_cell_length_b 23.712979
_cell_length_c 8.027031
_cell_angle_alpha 144.098349
_cell_angle_beta 75.437179
_cell_angle_gamma 89.913782
_cell_volume 541.649238
_symmetry_space_group_name_H-M "P -1"
_symmetry_group_IT_number 2
_symmetry_cell_setting 'triclinic'
loop_
_space_group_symop_operation_xyz
x,y,z
-x,-y,-z
loop_
_atom_site_type_symbol
_atom_site_label
_atom_site_fract_x
_atom_site_fract_y
_atom_site_fract_z
Si Si1 0.285135 0.391412 0.079823
Si Si2 0.479709 0.185628 0.736241
Si Si3 0.990046 0.259069 0.376176
Si Si4 0.237360 0.540739 0.864625
Si Si5 0.079280 0.072057 0.530769
Si Si6 0.218919 0.914559 0.867906
Si Si7 0.565627 0.668864 0.475206
O O1 0.350619 0.308134 0.017744
O O2 0.467677 0.460174 0.238467
O O3 0.393053 0.339684 0.752691
O O4 0.968916 0.450506 0.230087
O O5 0.259409 0.136965 0.721286
O O6 0.534849 0.145834 0.439147
O O7 0.786112 0.143930 0.667609
O O8 0.894254 0.354081 0.752896
O O9 0.934698 0.160179 0.217541
O O10 0.761159 0.297910 0.363068
O O11 0.303350 0.251687 0.282197
O O12 0.282313 0.441840 0.734095
O O13 0.000000 0.000000 0.500000
O O14 0.280633 0.983073 0.163263
O O15 0.000000 0.000000 0.000000
#
# Coordination Sequence:
#
# PCOD9001901 Si02
#       7
#     2   2   2   2   2   2   2
#     4  10  17  27  48  72 108 139 179 214 267 332
#     4  11  21  38  60  82 109 149 189 234 278 330
#     4  10  18  29  44  72 108 142 180 212 269 332
#     4  10  17  28  44  73 117 147 164 216 289 329
#     4  11  25  41  57  79 114 149 193 235 284 333
#     4  10  22  36  59  84 111 150 187 236 281 328
#     4  10  18  27  46  71 118 146 166 216 288 330
#
# _framework density 25.846983999999999
#
# number of rings (size 3 to 8) (size 9 to 14) (size 15 to 20)
#    0.000    1.714    2.857    6.000    6.000    2.286 
#    0.000    0.000    0.000    0.000    0.000    0.000 
#    0.000   38.857    0.000    0.000    0.000    0.000 
#
# Total GULP energy -78273.391159 kJ/mol
# GULP energy per Si atom -5590.956511 kJ/mol
# Density = 2.578816 g / cm^3
# Si number density = 25.846984 Si / 1000 Ang^3
#
#
#
# Elastic Constant Matrix: (Units=GPa)
#
#
# Indices 1 2 3 4 5 6 
#
# 1 206.6341 31.0391 23.4738 16.6659 26.7769 0.0089
# 2 31.0391 98.0518 28.0469 47.4256 10.2723 -9.1655
# 3 23.4738 28.0469 69.1763 6.2272 13.8797 -7.1177
# 4 16.6659 47.4256 6.2272 55.6791 2.3855 -1.5105
# 5 26.7769 10.2723 13.8797 2.3855 49.2836 9.2335
# 6 0.0089 -9.1655 -7.1177 -1.5105 9.2335 42.6293
#
#
#
# Elastic Compliance Matrix: (Units=1/GPa)
#
#
# Indices 1 2 3 4 5 6 
#
# 1 0.005455 -0.000844 -0.000919 -0.000698 -0.002530 0.000187
# 2 -0.000844 0.020640 -0.005851 -0.016497 -0.002018 0.003313
# 3 -0.000919 -0.005851 0.017908 0.003501 -0.004004 0.002724
# 4 -0.000698 -0.016497 0.003501 0.031696 0.001711 -0.002210
# 5 -0.002530 -0.002018 -0.004004 0.001711 0.024313 -0.006307
# 6 0.000187 0.003313 0.002724 -0.002210 -0.006307 0.025913
#
#
# Mechanical properties :
#
#
# Convention : Reuss Voigt Hill
#
# Bulk Modulus (GPa) = 34.75211 59.88686 47.31949
# Shear Modulus (GPa) = 33.16876 48.93856 41.05366
#
# Velocity S-wave (km/s) = 3.58617 4.35604 3.98972
# Velocity P-wave (km/s) = 5.53371 6.96564 6.29055
#
# Compressibility (1/GPa) = 0.02877523
#
# Stress axis : x y z
#
# Youngs Moduli (GPa) = 183.32509 48.44995 55.83945
#
# Poissons Ratio (x) = 0.04088 0.05132
# Poissons Ratio (y) = 0.15468 0.32672
# Poissons Ratio (z) = 0.16850 0.28348
#
# Static dielectric constant tensor:
#      x y z
#    x 2.083060 0.026650 -0.017410 
#    y 0.026650 2.023550 -0.054000 
#    z -0.017410 -0.054000 1.837030 
# 
# From -- ./inp_files/80259.got.cif
#   From: 2010.05.17/outbox.cif.g08.bks.cpg/sg2_41_cif.got.tgz:80259.got - 2010.06.03 11:33:40.
