data_PCOD9001834
_publ_section_title
;
Structure prediction by ZEFSAII (Michael W. Deem and Ramdas Pophale) SiO2 
 PCOD9001834
Probable space group: P -1
;
_chemical_formula_sum "Si O2"
_cell_formula_units_Z 16
_cell_length_a 14.338053
_cell_length_b 12.026673
_cell_length_c 11.479549
_cell_angle_alpha 70.041500
_cell_angle_beta 28.960276
_cell_angle_gamma 56.494742
_cell_volume 748.422920
_symmetry_space_group_name_H-M "P -1"
_symmetry_group_IT_number 2
_symmetry_cell_setting 'triclinic'
loop_
_space_group_symop_operation_xyz
x,y,z
-x,-y,-z
loop_
_atom_site_type_symbol
_atom_site_label
_atom_site_fract_x
_atom_site_fract_y
_atom_site_fract_z
Si Si1 0.954357 0.608181 0.853398
Si Si2 0.973795 0.759247 0.562748
Si Si3 0.761388 0.359801 0.274018
Si Si4 0.706286 0.503324 0.832569
Si Si5 0.998787 0.653457 0.213945
Si Si6 0.380318 0.087348 0.305096
Si Si7 0.576500 0.195682 0.649047
Si Si8 0.632681 0.180103 0.871999
O O1 0.946742 0.724380 0.734915
O O2 0.092586 0.601968 0.817044
O O3 0.065656 0.454239 0.727020
O O4 0.684004 0.671338 0.140661
O O5 0.079063 0.605308 0.442333
O O6 0.150567 0.808520 0.343935
O O7 0.753012 0.867758 0.689838
O O8 0.500000 0.500000 0.500000
O O9 0.742662 0.236875 0.397002
O O10 0.893574 0.311310 0.023799
O O11 0.790542 0.435813 0.891977
O O12 0.500000 0.500000 0.000000
O O13 0.601755 0.668437 0.892968
O O14 0.784272 0.788231 0.467064
O O15 0.405812 0.943656 0.367669
O O16 0.617004 0.073081 0.012944
O O17 0.617482 0.172219 0.752120
#
# Coordination Sequence:
#
# PCOD9001834 Si02
#       8
#     2   2   2   2   2   2   2   2
#     4  12  23  42  71 100 126 172 231 275 325 387
#     4  10  21  35  65  97 135 169 213 269 333 395
#     4  12  26  46  72  96 127 174 234 277 324 383
#     4   9  18  34  62  99 128 164 211 267 331 379
#     4  11  23  44  66  98 136 174 219 274 328 393
#     4  11  25  42  62 100 141 172 209 273 338 398
#     4  12  25  42  67  97 134 176 221 272 327 394
#     4  11  19  38  61  96 133 173 214 267 328 389
#
# _framework density 21.378288000000001
#
# number of rings (size 3 to 8) (size 9 to 14) (size 15 to 20)
#    0.000    1.000    5.000    1.500    1.750    4.000 
#    2.250    0.625    0.000    0.000    0.000    0.000 
#    0.000    0.000    0.000    0.000    0.000    0.000 
#
# Total GULP energy -89387.298985 kJ/mol
# GULP energy per Si atom -5586.706187 kJ/mol
# Density = 2.132963 g / cm^3
# Si number density = 21.378288 Si / 1000 Ang^3
#
#
#
# Elastic Constant Matrix: (Units=GPa)
#
#
# Indices 1 2 3 4 5 6 
#
# 1 102.6440 15.2851 36.5159 -12.4930 10.4173 10.0366
# 2 15.2851 105.4149 30.4154 -21.9821 17.9220 24.9048
# 3 36.5159 30.4154 101.1985 -38.7850 8.1287 10.1609
# 4 -12.4930 -21.9821 -38.7850 36.1484 0.6369 -2.0818
# 5 10.4173 17.9220 8.1287 0.6369 31.6535 -6.8165
# 6 10.0366 24.9048 10.1609 -2.0818 -6.8165 23.7623
#
#
#
# Elastic Compliance Matrix: (Units=1/GPa)
#
#
# Indices 1 2 3 4 5 6 
#
# 1 0.012158 0.002665 -0.002931 0.002312 -0.006606 -0.008367
# 2 0.002665 0.022735 0.003747 0.017348 -0.021798 -0.031289
# 3 -0.002931 0.003747 0.020520 0.022747 -0.009511 -0.012199
# 4 0.002312 0.017348 0.022747 0.062095 -0.024219 -0.030393
# 5 -0.006606 -0.021798 -0.009511 -0.024219 0.058597 0.044391
# 6 -0.008367 -0.031289 -0.012199 -0.030393 0.044391 0.093698
#
#
# Mechanical properties :
#
#
# Convention : Reuss Voigt Hill
#
# Bulk Modulus (GPa) = 16.03242 52.63225 34.33234
# Shear Modulus (GPa) = 17.62834 33.44891 25.53862
#
# Velocity S-wave (km/s) = 2.87468 3.95982 3.46006
# Velocity P-wave (km/s) = 4.30512 6.75128 5.66189
#
# Compressibility (1/GPa) = 0.06237362
#
# Stress axis : x y z
#
# Youngs Moduli (GPa) = 82.24802 43.98583 48.73296
#
# Poissons Ratio (x) = -0.11721 0.14285
# Poissons Ratio (y) = -0.21917 -0.18260
# Poissons Ratio (z) = 0.24110 -0.16481
#
# Static dielectric constant tensor:
#      x y z
#    x 1.695050 0.017680 0.008010 
#    y 0.017680 1.815000 -0.006260 
#    z 0.008010 -0.006260 1.799340 
# 
# From -- ./inp_files/451208.got.cif
#   From: 2010.05.17/outbox.cif.g08.bks.cpg/sg2_226_cif.got.tgz:451208.got - 2010.06.03 11:33:40.
