data_PCOD9001932
_publ_section_title
;
Structure prediction by ZEFSAII (Michael W. Deem and Ramdas Pophale) SiO2 
 PCOD9001932
Probable space group: P -1
;
_chemical_formula_sum "Si O2"
_cell_formula_units_Z 16
_cell_length_a 16.339432
_cell_length_b 10.388389
_cell_length_c 6.743608
_cell_angle_alpha 56.724467
_cell_angle_beta 51.601852
_cell_angle_gamma 52.266412
_cell_volume 682.740154
_symmetry_space_group_name_H-M "P -1"
_symmetry_group_IT_number 2
_symmetry_cell_setting 'triclinic'
loop_
_space_group_symop_operation_xyz
x,y,z
-x,-y,-z
loop_
_atom_site_type_symbol
_atom_site_label
_atom_site_fract_x
_atom_site_fract_y
_atom_site_fract_z
Si Si1 0.203607 0.191925 0.761093
Si Si2 0.045262 0.624358 0.934114
Si Si3 0.921495 0.008442 0.417423
Si Si4 0.479565 0.257682 0.256875
Si Si5 0.606007 0.003439 0.608459
Si Si6 0.674010 0.054281 0.885105
Si Si7 0.762579 0.469588 0.589791
Si Si8 0.089034 0.732601 0.138756
O O1 0.202343 0.372391 0.557481
O O2 0.077560 0.214632 0.991543
O O3 0.261956 0.060600 0.609419
O O4 0.289050 0.107194 0.887656
O O5 0.082985 0.582651 0.140721
O O6 0.154412 0.617693 0.648995
O O7 0.000000 0.500000 0.000000
O O8 0.793506 0.055183 0.642122
O O9 0.911925 0.139201 0.142078
O O10 0.000000 0.000000 0.500000
O O11 0.984247 0.826572 0.367153
O O12 0.526969 0.172292 0.469059
O O13 0.374657 0.437028 0.296037
O O14 0.430742 0.139422 0.305851
O O15 0.592514 0.221397 0.986179
O O16 0.609513 0.026423 0.815860
O O17 0.801457 0.341206 0.822650
#
# Coordination Sequence:
#
# PCOD9001932 Si02
#       8
#     2   2   2   2   2   2   2   2
#     4   9  19  32  53  87 120 150 192 248 301 356
#     4  10  21  36  58  91 126 155 193 251 314 371
#     4  11  25  44  65  88 119 159 211 263 297 354
#     4   9  20  34  53  86 125 159 195 246 299 360
#     4   9  18  34  55  85 123 159 198 244 301 363
#     4  11  20  35  61  86 115 160 207 247 300 359
#     4  10  21  36  54  84 124 156 191 243 303 364
#     4  11  23  40  63  86 117 164 205 246 312 366
#
# _framework density 23.434975999999999
#
# number of rings (size 3 to 8) (size 9 to 14) (size 15 to 20)
#    0.000    2.000    0.000    4.125    0.000   10.000 
#    0.000    0.625    0.000    3.750    0.000    0.000 
#    0.000    0.000    0.000    0.000    0.000    0.000 
#
# Total GULP energy -89258.953955 kJ/mol
# GULP energy per Si atom -5578.684622 kJ/mol
# Density = 2.338164 g / cm^3
# Si number density = 23.434976 Si / 1000 Ang^3
#
#
#
# Elastic Constant Matrix: (Units=GPa)
#
#
# Indices 1 2 3 4 5 6 
#
# 1 81.0475 36.4324 44.5406 15.6425 12.6986 -17.9542
# 2 36.4324 97.0839 48.4343 20.0341 1.4630 -38.7744
# 3 44.5406 48.4343 114.1652 25.9577 12.8498 -15.7193
# 4 15.6425 20.0341 25.9577 40.8148 -2.3914 -12.1332
# 5 12.6986 1.4630 12.8498 -2.3914 43.7334 8.1786
# 6 -17.9542 -38.7744 -15.7193 -12.1332 8.1786 46.4101
#
#
#
# Elastic Compliance Matrix: (Units=1/GPa)
#
#
# Indices 1 2 3 4 5 6 
#
# 1 0.017796 -0.002614 -0.004392 -0.001970 -0.004552 0.003500
# 2 -0.002614 0.019363 -0.004913 -0.001486 -0.001012 0.013292
# 3 -0.004392 -0.004913 0.013788 -0.005450 -0.002514 -0.002115
# 4 -0.001970 -0.001486 -0.005450 0.030715 0.003228 0.003611
# 5 -0.004552 -0.001012 -0.002514 0.003228 0.026499 -0.007284
# 6 0.003500 0.013292 -0.002115 0.003611 -0.007284 0.035517
#
#
# Mechanical properties :
#
#
# Convention : Reuss Voigt Hill
#
# Bulk Modulus (GPa) = 36.88784 61.23459 49.06121
# Shear Modulus (GPa) = 28.32050 37.05093 32.68571
#
# Velocity S-wave (km/s) = 3.48008 3.98050 3.73867
# Velocity P-wave (km/s) = 5.65001 6.87839 6.29424
#
# Compressibility (1/GPa) = 0.02710920
#
# Stress axis : x y z
#
# Youngs Moduli (GPa) = 56.19288 51.64535 72.52779
#
# Poissons Ratio (x) = 0.13501 0.31851
# Poissons Ratio (y) = 0.14690 0.35632
# Poissons Ratio (z) = 0.24678 0.25372
#
# Static dielectric constant tensor:
#      x y z
#    x 1.949900 0.039360 -0.066560 
#    y 0.039360 1.961000 0.001790 
#    z -0.066560 0.001790 1.920120 
# 
# From -- ./inp_files/108823.got.cif
#   From: 2010.05.17/outbox.cif.g08.bks.cpg/sg2_55_cif.got.tgz:108823.got - 2010.06.03 11:33:40.
