data_PCOD9001031
_publ_section_title
;
Structure prediction by ZEFSAII (Michael W. Deem and Ramdas Pophale) SiO2 
 PCOD9001031
Probable space group: P -1
;
_chemical_formula_sum "Si O2"
_cell_formula_units_Z 16
_cell_length_a 16.866102
_cell_length_b 7.156247
_cell_length_c 9.676207
_cell_angle_alpha 51.345822
_cell_angle_beta 84.896580
_cell_angle_gamma 117.615551
_cell_volume 676.537950
_symmetry_space_group_name_H-M "P -1"
_symmetry_group_IT_number 2
_symmetry_cell_setting 'triclinic'
loop_
_space_group_symop_operation_xyz
x,y,z
-x,-y,-z
loop_
_atom_site_type_symbol
_atom_site_label
_atom_site_fract_x
_atom_site_fract_y
_atom_site_fract_z
Si Si1 0.876270 0.787701 0.148159
Si Si2 0.429801 0.668755 0.540214
Si Si3 0.648551 0.877907 0.422261
Si Si4 0.189440 0.568930 0.054548
Si Si5 0.741891 0.891613 0.979660
Si Si6 0.711845 0.231691 0.611916
Si Si7 0.953263 0.172862 0.228209
Si Si8 0.752304 0.696307 0.641305
O O1 0.801591 0.427388 0.385669
O O2 0.880579 0.940256 0.220684
O O3 0.825593 0.841337 0.008318
O O4 0.000000 0.000000 0.000000
O O5 0.555144 0.884354 0.443047
O O6 0.392512 0.400063 0.554638
O O7 0.390195 0.847068 0.409185
O O8 0.364738 0.440099 0.787618
O O9 0.674043 0.762214 0.602354
O O10 0.755967 0.211370 0.190835
O O11 0.210079 0.811946 0.057546
O O12 0.063491 0.259154 0.206312
O O13 0.251003 0.456401 0.146750
O O14 0.718905 0.989492 0.797808
O O15 0.728528 0.447935 0.640740
O O16 0.873607 0.024717 0.437405
O O17 0.000000 0.500000 0.000000
#
# Coordination Sequence:
#
# PCOD9001031 Si02
#       8
#     2   2   2   2   2   2   2   2
#     4  10  20  32  46  68  94 118 150 189 222 260
#     4   8  15  25  40  62  91 123 147 182 225 269
#     4   9  15  25  38  62  96 119 147 185 225 264
#     4  10  17  27  44  65  90 121 152 184 221 267
#     4   9  16  29  46  63  88 121 152 183 223 267
#     4   8  16  29  44  63  87 119 154 182 220 271
#     4  11  17  31  48  64  92 126 151 180 223 270
#     4   9  17  26  41  65  91 119 151 184 222 266
#
# _framework density 23.649819999999998
#
# number of rings (size 3 to 8) (size 9 to 14) (size 15 to 20)
#    0.000    2.750    2.500    1.875    0.000    1.500 
#    0.000    5.000    0.000    0.000    0.000    3.500 
#    0.000    6.000    0.000    0.000    0.000    0.000 
#
# Total GULP energy -89226.585234 kJ/mol
# GULP energy per Si atom -5576.661577 kJ/mol
# Density = 2.359599 g / cm^3
# Si number density = 23.649820 Si / 1000 Ang^3
#
#
#
# Elastic Constant Matrix: (Units=GPa)
#
#
# Indices 1 2 3 4 5 6 
#
# 1 159.4332 7.2244 69.1922 16.8748 22.1435 37.3268
# 2 7.2244 82.8763 20.4705 6.4381 17.2078 1.1475
# 3 69.1922 20.4705 89.9793 31.9211 39.5932 18.7273
# 4 16.8748 6.4381 31.9211 30.0136 12.5549 10.0692
# 5 22.1435 17.2078 39.5932 12.5549 46.0078 3.1900
# 6 37.3268 1.1475 18.7273 10.0692 3.1900 27.2765
#
#
#
# Elastic Compliance Matrix: (Units=1/GPa)
#
#
# Indices 1 2 3 4 5 6 
#
# 1 0.013116 0.000805 -0.010996 0.008038 0.001597 -0.013588
# 2 0.000805 0.013252 -0.002331 0.000611 -0.003514 0.000127
# 3 -0.010996 -0.002331 0.037217 -0.025331 -0.019033 0.001170
# 4 0.008038 0.000611 -0.025331 0.059972 0.002450 -0.016059
# 5 0.001597 -0.003514 -0.019033 0.002450 0.037594 0.005728
# 6 -0.013588 0.000127 0.001170 -0.016059 0.005728 0.059705
#
#
# Mechanical properties :
#
#
# Convention : Reuss Voigt Hill
#
# Bulk Modulus (GPa) = 25.94551 58.45145 42.19848
# Shear Modulus (GPa) = 19.32380 36.35302 27.83841
#
# Velocity S-wave (km/s) = 2.86156 3.92489 3.43462
# Velocity P-wave (km/s) = 4.68109 6.73117 5.79747
#
# Compressibility (1/GPa) = 0.03854231
#
# Stress axis : x y z
#
# Youngs Moduli (GPa) = 76.24101 75.46009 26.86912
#
# Poissons Ratio (x) = -0.06072 0.29544
# Poissons Ratio (y) = -0.06135 0.06263
# Poissons Ratio (z) = 0.83832 0.17588
#
# Static dielectric constant tensor:
#      x y z
#    x 1.966840 0.054460 -0.023300 
#    y 0.054460 3.110480 -0.224540 
#    z -0.023300 -0.224540 1.967070 
# 
# From -- ./inp_files/255933.got.cif
#   From: 2010.05.17/outbox.cif.g08.bks.cpg/sg2_128_cif.got.tgz:255933.got - 2010.06.03 11:33:40.
