data_PCOD9001480
_publ_section_title
;
Structure prediction by ZEFSAII (Michael W. Deem and Ramdas Pophale) SiO2 
 PCOD9001480
Probable space group: P -1
;
_chemical_formula_sum "Si O2"
_cell_formula_units_Z 16
_cell_length_a 14.020473
_cell_length_b 14.680942
_cell_length_c 8.627259
_cell_angle_alpha 122.383523
_cell_angle_beta 63.819634
_cell_angle_gamma 151.815484
_cell_volume 706.160891
_symmetry_space_group_name_H-M "P -1"
_symmetry_group_IT_number 2
_symmetry_cell_setting 'triclinic'
loop_
_space_group_symop_operation_xyz
x,y,z
-x,-y,-z
loop_
_atom_site_type_symbol
_atom_site_label
_atom_site_fract_x
_atom_site_fract_y
_atom_site_fract_z
Si Si1 0.185219 0.008290 0.647899
Si Si2 0.703089 0.478867 0.162090
Si Si3 0.721385 0.224873 0.372040
Si Si4 0.935520 0.880404 0.281745
Si Si5 0.310312 0.071150 0.256246
Si Si6 0.101558 0.698897 0.154461
Si Si7 0.523041 0.180998 0.759521
Si Si8 0.011435 0.369763 0.517829
O O1 0.119745 0.075765 0.762040
O O2 0.275750 0.068727 0.462487
O O3 0.350022 0.108442 0.743512
O O4 0.992385 0.762253 0.591740
O O5 0.745103 0.639084 0.235106
O O6 0.518364 0.294657 0.241632
O O7 0.913715 0.619971 0.210306
O O8 0.664941 0.375908 0.941520
O O9 0.625778 0.211391 0.568219
O O10 0.800106 0.389919 0.358716
O O11 0.920169 0.330758 0.385161
O O12 0.572710 0.998834 0.233907
O O13 0.000000 0.000000 0.500000
O O14 0.130214 0.972722 0.197020
O O15 0.275221 0.911041 0.130170
O O16 0.155996 0.742292 0.335647
O O17 0.000000 0.500000 0.000000
#
# Coordination Sequence:
#
# PCOD9001480 Si02
#       8
#     2   2   2   2   2   2   2   2
#     4   9  19  38  59  81 111 148 198 240 275 348
#     4  11  23  38  59  89 119 152 188 242 296 333
#     4   9  19  36  57  78 118 157 184 230 288 344
#     4   9  20  42  62  81 118 150 194 243 290 339
#     4   9  21  39  59  86 115 149 195 237 288 342
#     4  10  21  35  56  85 121 150 188 236 284 341
#     4  10  21  36  55  86 119 146 191 235 285 347
#     4   9  18  35  56  81 106 155 197 225 282 346
#
# _framework density 22.657727999999999
#
# number of rings (size 3 to 8) (size 9 to 14) (size 15 to 20)
#    0.000    2.500    0.000    1.500    3.500    4.000 
#    9.000    0.625    0.000    0.000    0.000    0.000 
#    0.000    0.000    0.000    0.000    0.000    0.000 
#
# Total GULP energy -89177.406735 kJ/mol
# GULP energy per Si atom -5573.587921 kJ/mol
# Density = 2.260616 g / cm^3
# Si number density = 22.657728 Si / 1000 Ang^3
#
#
#
# Elastic Constant Matrix: (Units=GPa)
#
#
# Indices 1 2 3 4 5 6 
#
# 1 116.4069 43.4266 1.3117 12.1602 -0.1438 -27.0887
# 2 43.4266 146.8373 16.3208 21.1172 -12.8868 -37.3545
# 3 1.3117 16.3208 49.3756 17.1488 -0.5544 -10.8696
# 4 12.1602 21.1172 17.1488 38.0290 -8.0250 -9.3551
# 5 -0.1438 -12.8868 -0.5544 -8.0250 24.3044 16.3689
# 6 -27.0887 -37.3545 -10.8696 -9.3551 16.3689 40.7296
#
#
#
# Elastic Compliance Matrix: (Units=1/GPa)
#
#
# Indices 1 2 3 4 5 6 
#
# 1 0.011877 -0.001561 0.003697 -0.003971 -0.008762 0.010063
# 2 -0.001561 0.009513 -0.000502 -0.002956 -0.000798 0.007194
# 3 0.003697 -0.000502 0.026991 -0.012774 -0.011062 0.010713
# 4 -0.003971 -0.002956 -0.012774 0.036475 0.014286 -0.006125
# 5 -0.008762 -0.000798 -0.011062 0.014286 0.067639 -0.033413
# 6 0.010063 0.007194 0.010713 -0.006125 -0.033413 0.052724
#
#
# Mechanical properties :
#
#
# Convention : Reuss Voigt Hill
#
# Bulk Modulus (GPa) = 19.36150 48.30421 33.83285
# Shear Modulus (GPa) = 22.81353 37.38331 30.09842
#
# Velocity S-wave (km/s) = 3.17657 4.06632 3.64867
# Velocity P-wave (km/s) = 4.69233 6.58878 5.71970
#
# Compressibility (1/GPa) = 0.05164890
#
# Stress axis : x y z
#
# Youngs Moduli (GPa) = 84.19497 105.11984 37.04901
#
# Poissons Ratio (x) = 0.16413 -0.13696
# Poissons Ratio (y) = 0.13146 0.01859
# Poissons Ratio (z) = -0.31125 0.05274
#
# Static dielectric constant tensor:
#      x y z
#    x 1.921400 -0.020950 0.040670 
#    y -0.020950 1.918740 -0.021220 
#    z 0.040670 -0.021220 1.933350 
# 
# From -- ./inp_files/315743.got.cif
#   From: 2010.05.17/outbox.cif.g08.bks.cpg/sg2_158_cif.got.tgz:315743.got - 2010.06.03 11:33:40.
