data_PCOD9001396
_publ_section_title
;
Structure prediction by ZEFSAII (Michael W. Deem and Ramdas Pophale) SiO2 
 PCOD9001396
Probable space group: P -1
;
_chemical_formula_sum "Si O2"
_cell_formula_units_Z 16
_cell_length_a 12.755772
_cell_length_b 5.839099
_cell_length_c 16.649456
_cell_angle_alpha 110.566972
_cell_angle_beta 37.445857
_cell_angle_gamma 122.733984
_cell_volume 626.826933
_symmetry_space_group_name_H-M "P -1"
_symmetry_group_IT_number 2
_symmetry_cell_setting 'triclinic'
loop_
_space_group_symop_operation_xyz
x,y,z
-x,-y,-z
loop_
_atom_site_type_symbol
_atom_site_label
_atom_site_fract_x
_atom_site_fract_y
_atom_site_fract_z
Si Si1 0.315999 0.378642 0.196140
Si Si2 0.851503 0.380768 0.975319
Si Si3 0.728446 0.161006 0.283605
Si Si4 0.597926 0.230254 0.677726
Si Si5 0.090693 0.929826 0.514068
Si Si6 0.915138 0.817066 0.107731
Si Si7 0.257544 0.750972 0.147549
Si Si8 0.798651 0.519149 0.427217
O O1 0.448469 0.576860 0.211382
O O2 0.342798 0.583691 0.129374
O O3 0.094630 0.284131 0.350719
O O4 0.319354 0.081604 0.153541
O O5 0.069219 0.598683 0.842165
O O6 0.899107 0.141849 0.948686
O O7 0.725732 0.306147 0.963748
O O8 0.802287 0.518131 0.097905
O O9 0.678127 0.301995 0.405511
O O10 0.580022 0.026947 0.285290
O O11 0.780847 0.918043 0.248701
O O12 0.744767 0.147345 0.624446
O O13 0.719647 0.396994 0.547093
O O14 0.201274 0.188832 0.537802
O O15 0.000000 0.000000 0.500000
O O16 0.000000 0.000000 0.000000
O O17 0.026139 0.602082 0.289462
#
# Coordination Sequence:
#
# PCOD9001396 Si02
#       8
#     2   2   2   2   2   2   2   2
#     4  11  22  37  58  88 120 167 215 254 297 348
#     4   9  20  39  64  95 115 151 190 256 316 372
#     4  10  23  36  56  92 120 158 198 250 308 369
#     4  12  22  36  56  80 129 166 208 244 298 353
#     4  11  21  37  56  79 116 169 219 256 288 342
#     4   9  19  39  66  89 117 147 194 247 320 376
#     4  10  22  36  64  92 121 154 214 264 295 356
#     4  10  21  35  54  84 120 165 205 247 298 350
#
# _framework density 25.525386999999998
#
# number of rings (size 3 to 8) (size 9 to 14) (size 15 to 20)
#    0.000    1.750    2.500    2.250    5.250    2.500 
#    0.000    0.000    0.000    1.500    0.000    0.000 
#    0.000    0.000    0.000    0.000    0.000    0.000 
#
# Total GULP energy -89378.362701 kJ/mol
# GULP energy per Si atom -5586.147669 kJ/mol
# Density = 2.546729 g / cm^3
# Si number density = 25.525387 Si / 1000 Ang^3
#
#
#
# Elastic Constant Matrix: (Units=GPa)
#
#
# Indices 1 2 3 4 5 6 
#
# 1 133.8436 86.6547 38.3488 8.4565 23.3996 2.7014
# 2 86.6547 152.4643 54.6503 28.0253 10.0718 18.7521
# 3 38.3488 54.6503 52.2807 16.3943 8.3812 3.0574
# 4 8.4565 28.0253 16.3943 47.7610 9.9134 5.9795
# 5 23.3996 10.0718 8.3812 9.9134 40.7594 2.6660
# 6 2.7014 18.7521 3.0574 5.9795 2.6660 40.5639
#
#
#
# Elastic Compliance Matrix: (Units=1/GPa)
#
#
# Indices 1 2 3 4 5 6 
#
# 1 0.014067 -0.007667 -0.002621 0.003983 -0.006785 0.002664
# 2 -0.007667 0.015620 -0.009558 -0.004661 0.004005 -0.005566
# 3 -0.002621 -0.009558 0.032780 -0.005180 -0.001811 0.003005
# 4 0.003983 -0.004661 -0.005180 0.026213 -0.006369 -0.001165
# 5 -0.006785 0.004005 -0.001811 -0.006369 0.029509 -0.002264
# 6 0.002664 -0.005566 0.003005 -0.001165 -0.002264 0.027142
#
#
# Mechanical properties :
#
#
# Convention : Reuss Voigt Hill
#
# Bulk Modulus (GPa) = 43.90900 77.54403 60.72652
# Shear Modulus (GPa) = 25.95836 36.41253 31.18544
#
# Velocity S-wave (km/s) = 3.19244 3.78103 3.49913
# Velocity P-wave (km/s) = 5.55233 7.03610 6.33779
#
# Compressibility (1/GPa) = 0.02277437
#
# Stress axis : x y z
#
# Youngs Moduli (GPa) = 71.08696 64.02144 30.50629
#
# Poissons Ratio (x) = 0.49088 0.07994
# Poissons Ratio (y) = 0.54506 0.29159
# Poissons Ratio (z) = 0.18629 0.61194
#
# Static dielectric constant tensor:
#      x y z
#    x 2.060970 -0.094580 -0.032120 
#    y -0.094580 2.216230 0.049070 
#    z -0.032120 0.049070 2.035720 
# 
# From -- ./inp_files/549443.got.cif
#   From: 2010.05.17/outbox.cif.g08.bks.cpg/sg2_275_cif.got.tgz:549443.got - 2010.06.03 11:33:40.
