data_PCOD9001658
_publ_section_title
;
Structure prediction by ZEFSAII (Michael W. Deem and Ramdas Pophale) SiO2 
 PCOD9001658
Probable space group: P -1
;
_chemical_formula_sum "Si O2"
_cell_formula_units_Z 14
_cell_length_a 10.926702
_cell_length_b 13.497474
_cell_length_c 13.104578
_cell_angle_alpha 134.748426
_cell_angle_beta 141.941996
_cell_angle_gamma 32.936945
_cell_volume 642.405235
_symmetry_space_group_name_H-M "P -1"
_symmetry_group_IT_number 2
_symmetry_cell_setting 'triclinic'
loop_
_space_group_symop_operation_xyz
x,y,z
-x,-y,-z
loop_
_atom_site_type_symbol
_atom_site_label
_atom_site_fract_x
_atom_site_fract_y
_atom_site_fract_z
Si Si1 0.889435 0.480274 0.131500
Si Si2 0.213572 0.222975 0.857975
Si Si3 0.209572 0.322585 0.580607
Si Si4 0.099615 0.768482 0.170270
Si Si5 0.512893 0.869541 0.709896
Si Si6 0.744195 0.012651 0.594146
Si Si7 0.287823 0.696553 0.457069
O O1 0.200203 0.325775 0.242096
O O2 0.816289 0.607256 0.076596
O O3 0.783110 0.604029 0.251894
O O4 0.809433 0.360062 0.960794
O O5 0.123511 0.221528 0.910972
O O6 0.994744 0.237993 0.659124
O O7 0.483245 0.029432 0.863523
O O8 0.507078 0.175139 0.627815
O O9 0.000000 0.500000 0.500000
O O10 0.136077 0.191405 0.445605
O O11 0.050394 0.953669 0.251770
O O12 0.311426 0.679591 0.336984
O O13 0.405437 0.939892 0.576996
O O14 0.331550 0.834808 0.619119
O O15 0.500000 0.500000 0.500000
#
# Coordination Sequence:
#
# PCOD9001658 Si02
#       7
#     2   2   2   2   2   2   2
#     4  12  22  38  62  92 125 160 200 249 304 356
#     4  10  21  35  60  90 127 159 196 242 298 363
#     4  11  23  40  68  87 111 159 213 253 297 356
#     4   9  23  39  59  92 131 155 195 251 304 361
#     4  11  19  35  61  85 120 160 203 242 295 356
#     4  10  22  42  62  88 117 156 208 254 298 357
#     4   9  18  34  57  86 120 163 199 233 285 358
#
# _framework density 21.793096999999999
#
# number of rings (size 3 to 8) (size 9 to 14) (size 15 to 20)
#    0.857    0.857    4.286    0.857    0.000    1.143 
#    0.000    3.571    0.000    0.000    0.000    0.000 
#    0.000    0.000    0.000    0.000    0.000    0.000 
#
# Total GULP energy -78019.714680 kJ/mol
# GULP energy per Si atom -5572.836763 kJ/mol
# Density = 2.174349 g / cm^3
# Si number density = 21.793097 Si / 1000 Ang^3
#
#
#
# Elastic Constant Matrix: (Units=GPa)
#
#
# Indices 1 2 3 4 5 6 
#
# 1 67.3879 31.7672 28.7122 20.7787 -13.1434 10.8416
# 2 31.7672 112.4466 28.5232 23.0279 -12.7485 19.2379
# 3 28.7122 28.5232 79.2393 27.3497 -10.4960 10.4848
# 4 20.7787 23.0279 27.3497 36.5200 -2.5743 -1.2336
# 5 -13.1434 -12.7485 -10.4960 -2.5743 22.4035 16.0864
# 6 10.8416 19.2379 10.4848 -1.2336 16.0864 41.3069
#
#
#
# Elastic Compliance Matrix: (Units=1/GPa)
#
#
# Indices 1 2 3 4 5 6 
#
# 1 0.028462 0.002960 0.002613 -0.018390 0.034311 -0.023423
# 2 0.002960 0.015953 0.003595 -0.013340 0.024709 -0.019140
# 3 0.002613 0.003595 0.023135 -0.019908 0.025637 -0.018811
# 4 -0.018390 -0.013340 -0.019908 0.059084 -0.046836 0.036097
# 5 0.034311 0.024709 0.025637 -0.046836 0.146951 -0.085647
# 6 -0.023423 -0.019140 -0.018811 0.036097 -0.085647 0.078477
#
#
# Mechanical properties :
#
#
# Convention : Reuss Voigt Hill
#
# Bulk Modulus (GPa) = 11.64344 48.56434 30.10389
# Shear Modulus (GPa) = 13.79861 31.38418 22.59140
#
# Velocity S-wave (km/s) = 2.51901 3.79898 3.22317
# Velocity P-wave (km/s) = 3.71683 6.44792 5.26263
#
# Compressibility (1/GPa) = 0.08588529
#
# Stress axis : x y z
#
# Youngs Moduli (GPa) = 35.13487 62.68485 43.22434
#
# Poissons Ratio (x) = -0.18554 -0.11294
# Poissons Ratio (y) = -0.10399 -0.15539
# Poissons Ratio (z) = -0.09181 -0.22535
#
# Static dielectric constant tensor:
#      x y z
#    x 1.874520 -0.029130 0.013010 
#    y -0.029130 1.825760 0.011610 
#    z 0.013010 0.011610 1.829680 
# 
# From -- ./inp_files/503890.got.cif
#   From: 2010.05.17/outbox.cif.g08.bks.cpg/sg2_252_cif.got.tgz:503890.got - 2010.06.03 11:33:40.
