data_PCOD9001753
_publ_section_title
;
Structure prediction by ZEFSAII (Michael W. Deem and Ramdas Pophale) SiO2 
 PCOD9001753
Probable space group: P -1
;
_chemical_formula_sum "Si O2"
_cell_formula_units_Z 16
_cell_length_a 9.579613
_cell_length_b 5.361823
_cell_length_c 32.006839
_cell_angle_alpha 116.037565
_cell_angle_beta 29.085369
_cell_angle_gamma 108.312952
_cell_volume 708.938472
_symmetry_space_group_name_H-M "P -1"
_symmetry_group_IT_number 2
_symmetry_cell_setting 'triclinic'
loop_
_space_group_symop_operation_xyz
x,y,z
-x,-y,-z
loop_
_atom_site_type_symbol
_atom_site_label
_atom_site_fract_x
_atom_site_fract_y
_atom_site_fract_z
Si Si1 0.241021 0.899734 0.266483
Si Si2 0.833853 0.611651 0.615672
Si Si3 0.776176 0.724379 0.311385
Si Si4 0.377164 0.096738 0.995031
Si Si5 0.603585 0.742259 0.596280
Si Si6 0.845111 0.013929 0.086225
Si Si7 0.093818 0.695047 0.144338
Si Si8 0.434683 0.379314 0.762292
O O1 0.328311 0.725431 0.272871
O O2 0.992993 0.813871 0.296169
O O3 0.130556 0.201081 0.339130
O O4 0.554457 0.877406 0.158802
O O5 0.731945 0.785765 0.612698
O O6 0.579893 0.448586 0.686046
O O7 0.117749 0.396693 0.513525
O O8 0.595236 0.498546 0.361282
O O9 0.980398 0.595894 0.210405
O O10 0.572947 0.997152 0.364002
O O11 0.236267 0.421717 0.061423
O O12 0.129355 0.919056 0.033606
O O13 0.671033 0.103281 0.892307
O O14 0.500000 0.000000 0.000000
O O15 0.727383 0.331299 0.154278
O O16 0.000000 0.000000 0.000000
O O17 0.810325 0.813217 0.199231
#
# Coordination Sequence:
#
# PCOD9001753 Si02
#       8
#     2   2   2   2   2   2   2   2
#     4  11  25  41  68  95 137 180 220 282 340 406
#     4  10  24  45  71  96 134 177 227 278 337 408
#     4  12  27  43  69 104 138 178 223 285 339 396
#     4  10  21  35  62  90 126 171 223 278 329 392
#     4  11  27  46  72 102 134 180 230 281 336 405
#     4  10  22  39  58  92 129 175 221 274 334 403
#     4  10  21  39  61  94 128 172 227 276 331 398
#     4  10  21  41  65  92 130 178 224 270 341 402
#
# _framework density 22.568954000000002
#
# number of rings (size 3 to 8) (size 9 to 14) (size 15 to 20)
#    0.000    1.500    1.250    2.250    7.000    3.500 
#    0.000    0.000    0.000    0.000    0.000    0.000 
#    0.000    0.000    0.000    0.000    0.000    0.000 
#
# Total GULP energy -89253.082319 kJ/mol
# GULP energy per Si atom -5578.317645 kJ/mol
# Density = 2.251759 g / cm^3
# Si number density = 22.568954 Si / 1000 Ang^3
#
#
#
# Elastic Constant Matrix: (Units=GPa)
#
#
# Indices 1 2 3 4 5 6 
#
# 1 109.8084 8.2870 10.6619 -30.2226 -19.3941 6.9205
# 2 8.2870 49.6745 16.5467 -0.9038 0.8112 0.5556
# 3 10.6619 16.5467 109.8485 -49.5655 2.3476 1.2702
# 4 -30.2226 -0.9038 -49.5655 -78.7210 -62.9186 -29.2931
# 5 -19.3941 0.8112 2.3476 -62.9186 7.4526 -13.0980
# 6 6.9205 0.5556 1.2702 -29.2931 -13.0980 30.7445
#
#
#
# Elastic Compliance Matrix: (Units=1/GPa)
#
#
# Indices 1 2 3 4 5 6 
#
# 1 0.009189 -0.000999 -0.001651 -0.002054 0.001090 -0.003475
# 2 -0.000999 0.021253 -0.002951 0.000437 0.001482 0.001010
# 3 -0.001651 -0.002951 0.010123 0.000540 -0.006724 -0.002343
# 4 -0.002054 0.000437 0.000540 0.000148 -0.013176 -0.005041
# 5 0.001090 0.001482 -0.006724 -0.013176 0.022598 -0.002921
# 6 -0.003475 0.001010 -0.002343 -0.005041 -0.002921 0.027340
#
#
# Mechanical properties :
#
#
# Convention : Reuss Voigt Hill
#
# Bulk Modulus (GPa) = 34.05747 37.81364 35.93555
# Shear Modulus (GPa) = 44.78734 7.48426 26.13580
#
# Velocity S-wave (km/s) = 4.45957 1.82301 3.40669
# Velocity P-wave (km/s) = 6.45292 4.60676 5.60635
#
# Compressibility (1/GPa) = 0.02936213
#
# Stress axis : x y z
#
# Youngs Moduli (GPa) = 108.83066 47.05214 98.78851
#
# Poissons Ratio (x) = 0.04701 0.16314
# Poissons Ratio (y) = 0.10873 0.29148
# Poissons Ratio (z) = 0.17972 0.13883
#
# Static dielectric constant tensor:
#      x y z
#    x 1.843800 0.051220 -0.037370 
#    y 0.051220 1.875780 0.007860 
#    z -0.037370 0.007860 1.896400 
# 
# From -- ./inp_files/38079.got.cif
#   From: 2010.05.17/outbox.cif.g08.bks.cpg/sg2_20_cif.got.tgz:38079.got - 2010.06.03 11:33:40.
