data_PCOD9001281
_publ_section_title
;
Structure prediction by ZEFSAII (Michael W. Deem and Ramdas Pophale) SiO2 
 PCOD9001281
Probable space group: P -1
;
_chemical_formula_sum "Si O2"
_cell_formula_units_Z 16
_cell_length_a 13.302328
_cell_length_b 7.849526
_cell_length_c 19.202360
_cell_angle_alpha 137.702800
_cell_angle_beta 151.071347
_cell_angle_gamma 43.606866
_cell_volume 634.324188
_symmetry_space_group_name_H-M "P -1"
_symmetry_group_IT_number 2
_symmetry_cell_setting 'triclinic'
loop_
_space_group_symop_operation_xyz
x,y,z
-x,-y,-z
loop_
_atom_site_type_symbol
_atom_site_label
_atom_site_fract_x
_atom_site_fract_y
_atom_site_fract_z
Si Si1 0.408564 0.111914 0.155617
Si Si2 0.822213 0.098078 0.480001
Si Si3 0.492935 0.711313 0.882401
Si Si4 0.804046 0.329856 0.769878
Si Si5 0.154773 0.258730 0.483841
Si Si6 0.344714 0.803458 0.217870
Si Si7 0.145006 0.876442 0.828258
Si Si8 0.389202 0.348583 0.442585
O O1 0.606651 0.018615 0.298753
O O2 0.505111 0.232481 0.182654
O O3 0.249486 0.359007 0.169191
O O4 0.286436 0.900697 0.988532
O O5 0.778831 0.410155 0.552776
O O6 0.864783 0.974574 0.545224
O O7 0.000000 0.000000 0.500000
O O8 0.659685 0.431144 0.909878
O O9 0.291890 0.705759 0.807584
O O10 0.500000 0.000000 0.000000
O O11 0.803217 0.242381 0.822686
O O12 0.593507 0.249486 0.587034
O O13 0.035475 0.182631 0.836987
O O14 0.399095 0.276110 0.635081
O O15 0.000000 0.500000 0.500000
O O16 0.069258 0.225269 0.343871
O O17 0.306436 0.116266 0.286184
O O18 0.500000 0.500000 0.500000
#
# Coordination Sequence:
#
# PCOD9001281 Si02
#       8
#     2   2   2   2   2   2   2   2
#     4   9  21  38  60  90 128 166 208 262 325 375
#     4  11  24  41  63  94 130 167 215 267 319 379
#     4   9  19  36  61  90 124 168 211 259 315 378
#     4  10  21  34  60  92 126 167 215 262 305 381
#     4  12  24  37  65  96 124 166 216 267 315 379
#     4  11  21  38  59  94 129 160 219 265 311 378
#     4  11  19  35  61  94 123 164 212 255 315 381
#     4  11  21  37  58  92 133 169 201 264 328 368
#
# _framework density 25.223694999999999
#
# number of rings (size 3 to 8) (size 9 to 14) (size 15 to 20)
#    0.000    1.500    3.750    1.500    3.500    0.000 
#    0.000    0.625    0.000    0.750    3.250    0.000 
#    0.000    0.000    0.000    0.000    0.000    0.000 
#
# Total GULP energy -89120.068227 kJ/mol
# GULP energy per Si atom -5570.004264 kJ/mol
# Density = 2.516628 g / cm^3
# Si number density = 25.223695 Si / 1000 Ang^3
#
#
#
# Elastic Constant Matrix: (Units=GPa)
#
#
# Indices 1 2 3 4 5 6 
#
# 1 81.2794 47.3411 13.2046 -0.1883 -10.1873 -17.0292
# 2 47.3411 135.8999 40.9652 22.2641 -12.5879 -35.3339
# 3 13.2046 40.9652 99.9234 23.9368 -13.0684 8.8396
# 4 -0.1883 22.2641 23.9368 35.5519 -4.7491 -3.9325
# 5 -10.1873 -12.5879 -13.0684 -4.7491 26.0484 8.6062
# 6 -17.0292 -35.3339 8.8396 -3.9325 8.6062 46.2666
#
#
#
# Elastic Compliance Matrix: (Units=1/GPa)
#
#
# Indices 1 2 3 4 5 6 
#
# 1 0.016455 -0.005503 -0.000707 0.004693 0.003717 0.001697
# 2 -0.005503 0.013766 -0.004901 -0.004565 -0.001892 0.009388
# 3 -0.000707 -0.004901 0.015572 -0.007501 0.006730 -0.008868
# 4 0.004693 -0.004565 -0.007501 0.036563 0.001719 0.002463
# 5 0.003717 -0.001892 0.006730 0.001719 0.045838 -0.009743
# 6 0.001697 0.009388 -0.008868 0.002463 -0.009743 0.033124
#
#
# Mechanical properties :
#
#
# Convention : Reuss Voigt Hill
#
# Bulk Modulus (GPa) = 42.42331 57.79162 50.10747
# Shear Modulus (GPa) = 26.12372 35.94616 31.03494
#
# Velocity S-wave (km/s) = 3.22169 3.77914 3.51149
# Velocity P-wave (km/s) = 5.54025 6.48104 6.02903
#
# Compressibility (1/GPa) = 0.02357194
#
# Stress axis : x y z
#
# Youngs Moduli (GPa) = 60.77061 72.64292 64.21896
#
# Poissons Ratio (x) = 0.39972 0.04540
# Poissons Ratio (y) = 0.33439 0.31474
# Poissons Ratio (z) = 0.04296 0.35602
#
# Static dielectric constant tensor:
#      x y z
#    x 2.089030 -0.033630 0.039510 
#    y -0.033630 2.088370 0.030230 
#    z 0.039510 0.030230 2.184990 
# 
# From -- ./inp_files/597277.got.cif
#   From: 2010.05.17/outbox.cif.g08.bks.cpg/sg2_299_cif.got.tgz:597277.got - 2010.06.03 11:33:40.
