data_PCOD9001028
_publ_section_title
;
Structure prediction by ZEFSAII (Michael W. Deem and Ramdas Pophale) SiO2 
 PCOD9001028
Probable space group: P -1
;
_chemical_formula_sum "Si O2"
_cell_formula_units_Z 16
_cell_length_a 12.693837
_cell_length_b 6.716678
_cell_length_c 13.772911
_cell_angle_alpha 121.265462
_cell_angle_beta 138.859666
_cell_angle_gamma 76.433355
_cell_volume 634.355348
_symmetry_space_group_name_H-M "P -1"
_symmetry_group_IT_number 2
_symmetry_cell_setting 'triclinic'
loop_
_space_group_symop_operation_xyz
x,y,z
-x,-y,-z
loop_
_atom_site_type_symbol
_atom_site_label
_atom_site_fract_x
_atom_site_fract_y
_atom_site_fract_z
Si Si1 0.632946 0.391883 0.952437
Si Si2 0.675854 0.463707 0.641155
Si Si3 0.130680 0.096606 0.226037
Si Si4 0.833617 0.406017 0.922066
Si Si5 0.775827 0.885656 0.239231
Si Si6 0.036906 0.633222 0.454189
Si Si7 0.849977 0.131472 0.142744
Si Si8 0.402646 0.067903 0.546227
O O1 0.799648 0.488001 0.024905
O O2 0.497264 0.240984 0.742703
O O3 0.619200 0.647077 0.052757
O O4 0.685200 0.203768 0.013800
O O5 0.500000 0.500000 0.500000
O O6 0.821696 0.674926 0.752093
O O7 0.695450 0.462576 0.770094
O O8 0.679998 0.202277 0.539369
O O9 0.938452 0.989785 0.095464
O O10 0.253164 0.155678 0.419361
O O11 0.187292 0.880675 0.158193
O O12 0.000000 0.500000 0.000000
O O13 0.897226 0.762721 0.354033
O O14 0.793783 0.145036 0.371596
O O15 0.830105 0.999001 0.198608
O O16 0.996423 0.387270 0.303314
O O17 0.000000 0.500000 0.500000
O O18 0.500000 0.000000 0.500000
#
# Coordination Sequence:
#
# PCOD9001028 Si02
#       8
#     2   2   2   2   2   2   2   2
#     4  11  20  34  51  77 107 138 187 223 258 321
#     4  11  20  35  54  66  96 149 191 221 260 304
#     4  11  22  36  51  76 107 146 184 223 272 312
#     4  11  22  33  47  73 108 137 174 226 268 308
#     4   9  18  33  57  83 110 138 167 218 278 319
#     4   8  16  34  56  83 112 135 165 213 272 335
#     4  10  21  33  54  85 109 134 177 223 272 322
#     4  11  21  39  49  70 104 148 192 223 258 314
#
# _framework density 25.222456999999999
#
# number of rings (size 3 to 8) (size 9 to 14) (size 15 to 20)
#    0.000    1.750    3.750    1.500    0.000    9.000 
#    0.000    0.000    0.000    0.750    0.000   30.625 
#    0.000    0.000    0.000    0.000    0.000    0.000 
#
# Total GULP energy -89141.496003 kJ/mol
# GULP energy per Si atom -5571.343500 kJ/mol
# Density = 2.516505 g / cm^3
# Si number density = 25.222457 Si / 1000 Ang^3
#
#
#
# Elastic Constant Matrix: (Units=GPa)
#
#
# Indices 1 2 3 4 5 6 
#
# 1 26.9557 18.2439 6.2008 -9.3059 8.1512 10.0201
# 2 18.2439 169.3540 60.7916 -6.3491 -5.1919 16.8343
# 3 6.2008 60.7916 145.4926 7.2016 -10.5870 -3.0736
# 4 -9.3059 -6.3491 7.2016 66.2831 -1.0329 -0.7357
# 5 8.1512 -5.1919 -10.5870 -1.0329 17.1409 -0.0652
# 6 10.0201 16.8343 -3.0736 -0.7357 -0.0652 32.2688
#
#
#
# Elastic Compliance Matrix: (Units=1/GPa)
#
#
# Indices 1 2 3 4 5 6 
#
# 1 0.058858 -0.004001 -0.003830 0.007628 -0.031169 -0.016443
# 2 -0.004001 0.007819 -0.003011 0.000518 0.002431 -0.003107
# 3 -0.003830 -0.003011 0.008913 -0.001656 0.006328 0.003584
# 4 0.007628 0.000518 -0.001656 0.016305 -0.003520 -0.002432
# 5 -0.031169 0.002431 0.006328 -0.003520 0.077629 0.009090
# 6 -0.016443 -0.003107 0.003584 -0.002432 0.009090 0.038021
#
#
# Mechanical properties :
#
#
# Convention : Reuss Voigt Hill
#
# Bulk Modulus (GPa) = 18.55068 56.91943 37.73506
# Shear Modulus (GPa) = 20.22669 40.24296 30.23483
#
# Velocity S-wave (km/s) = 2.83491 3.99873 3.46602
# Velocity P-wave (km/s) = 4.25281 6.62841 5.56876
#
# Compressibility (1/GPa) = 0.05390637
#
# Stress axis : x y z
#
# Youngs Moduli (GPa) = 16.99009 127.88632 112.19916
#
# Poissons Ratio (x) = 0.51166 0.42970
# Poissons Ratio (y) = 0.06798 0.33784
# Poissons Ratio (z) = 0.06507 0.38508
#
# Static dielectric constant tensor:
#      x y z
#    x 2.029020 -0.020960 0.005700 
#    y -0.020960 2.024410 0.072890 
#    z 0.005700 0.072890 2.172790 
# 
# From -- ./inp_files/536415.got.cif
#   From: 2010.05.17/outbox.cif.g08.bks.cpg/sg2_269_cif.got.tgz:536415.got - 2010.06.03 11:33:40.
