data_PCOD9001366
_publ_section_title
;
Structure prediction by ZEFSAII (Michael W. Deem and Ramdas Pophale) SiO2 
 PCOD9001366
Probable space group: P -1
;
_chemical_formula_sum "Si O2"
_cell_formula_units_Z 16
_cell_length_a 12.414049
_cell_length_b 11.342902
_cell_length_c 11.539699
_cell_angle_alpha 41.264525
_cell_angle_beta 62.162180
_cell_angle_gamma 89.709158
_cell_volume 762.959663
_symmetry_space_group_name_H-M "P -1"
_symmetry_group_IT_number 2
_symmetry_cell_setting 'triclinic'
loop_
_space_group_symop_operation_xyz
x,y,z
-x,-y,-z
loop_
_atom_site_type_symbol
_atom_site_label
_atom_site_fract_x
_atom_site_fract_y
_atom_site_fract_z
Si Si1 0.060664 0.732303 0.955809
Si Si2 0.307853 0.218116 0.840455
Si Si3 0.208409 0.578135 0.862066
Si Si4 0.949028 0.874183 0.289262
Si Si5 0.912253 0.518909 0.427336
Si Si6 0.558532 0.280747 0.534078
Si Si7 0.696198 0.071311 0.751102
Si Si8 0.990214 0.807183 0.578059
O O1 0.906951 0.570316 0.076061
O O2 0.014935 0.610443 0.192828
O O3 0.136140 0.409136 0.129241
O O4 0.185855 0.756722 0.790496
O O5 0.388845 0.191466 0.712332
O O6 0.353568 0.467165 0.642836
O O7 0.128882 0.042939 0.051375
O O8 0.357213 0.146476 0.984886
O O9 0.373086 0.674892 0.661519
O O10 0.233511 0.726294 0.343121
O O11 0.938809 0.782799 0.489829
O O12 0.895819 0.028865 0.213842
O O13 0.878194 0.688271 0.364194
O O14 0.000000 0.500000 0.500000
O O15 0.591462 0.113957 0.697553
O O16 0.840505 0.128978 0.560400
O O17 0.000000 0.000000 0.500000
#
# Coordination Sequence:
#
# PCOD9001366 Si02
#       8
#     2   2   2   2   2   2   2   2
#     4  11  20  32  53  82 111 141 173 236 277 332
#     4  10  21  35  53  80 114 145 187 223 265 329
#     4  11  18  33  52  81 112 140 174 219 291 325
#     4  11  21  35  54  84 111 142 183 223 280 324
#     4  12  20  34  52  79 113 143 179 227 278 323
#     4  11  21  35  54  80 117 147 180 223 273 331
#     4  11  20  37  55  82 110 146 182 229 278 324
#     4  11  19  31  54  80 114 138 172 234 281 332
#
# _framework density 20.970963999999999
#
# number of rings (size 3 to 8) (size 9 to 14) (size 15 to 20)
#    0.000    1.000    7.500    2.250    0.000    0.000 
#    0.000    0.000    0.000    0.750    0.000    0.875 
#    0.000    0.125    0.000    0.000    0.000    0.000 
#
# Total GULP energy -89265.783525 kJ/mol
# GULP energy per Si atom -5579.111470 kJ/mol
# Density = 2.092323 g / cm^3
# Si number density = 20.970964 Si / 1000 Ang^3
#
#
#
# Elastic Constant Matrix: (Units=GPa)
#
#
# Indices 1 2 3 4 5 6 
#
# 1 20.1512 15.8635 17.1363 9.7264 7.7725 -11.8542
# 2 15.8635 140.2203 24.1678 9.6633 -3.3364 -26.4189
# 3 17.1363 24.1678 78.5673 25.8306 11.7128 -7.7832
# 4 9.7264 9.6633 25.8306 48.0142 -7.7694 0.7535
# 5 7.7725 -3.3364 11.7128 -7.7694 26.0330 9.1582
# 6 -11.8542 -26.4189 -7.7832 0.7535 9.1582 39.1666
#
#
#
# Elastic Compliance Matrix: (Units=1/GPa)
#
#
# Indices 1 2 3 4 5 6 
#
# 1 0.127922 -0.003665 0.001361 -0.037981 -0.069423 0.053479
# 2 -0.003665 0.008626 -0.001754 0.000153 0.001636 0.003975
# 3 0.001361 -0.001754 0.020822 -0.013966 -0.016831 0.007570
# 4 -0.037981 0.000153 -0.013966 0.042667 0.038845 -0.024072
# 5 -0.069423 0.001636 -0.016831 0.038845 0.094752 -0.046156
# 6 0.053479 0.003975 0.007570 -0.024072 -0.046156 0.057159
#
#
# Mechanical properties :
#
#
# Convention : Reuss Voigt Hill
#
# Bulk Modulus (GPa) = 6.70006 39.25266 22.97636
# Shear Modulus (GPa) = 12.20058 34.76085 23.48072
#
# Velocity S-wave (km/s) = 2.41464 4.07574 3.34979
# Velocity P-wave (km/s) = 3.31298 6.39587 5.09328
#
# Compressibility (1/GPa) = 0.14925243
#
# Stress axis : x y z
#
# Youngs Moduli (GPa) = 7.81726 115.92857 48.02715
#
# Poissons Ratio (x) = 0.42490 -0.06536
# Poissons Ratio (y) = 0.02865 0.08425
# Poissons Ratio (z) = -0.01064 0.20338
#
# Static dielectric constant tensor:
#      x y z
#    x 1.823590 -0.084900 0.072850 
#    y -0.084900 1.821050 -0.056800 
#    z 0.072850 -0.056800 1.825240 
# 
# From -- ./inp_files/449640.got.cif
#   From: 2010.05.17/outbox.cif.g08.bks.cpg/sg2_225_cif.got.tgz:449640.got - 2010.06.03 11:33:40.
