data_PCOD9001993
_publ_section_title
;
Structure prediction by ZEFSAII (Michael W. Deem and Ramdas Pophale) SiO2 
 PCOD9001993
Probable space group: P -1
;
_chemical_formula_sum "Si O2"
_cell_formula_units_Z 16
_cell_length_a 19.470577
_cell_length_b 11.079896
_cell_length_c 11.501382
_cell_angle_alpha 116.405826
_cell_angle_beta 31.417065
_cell_angle_gamma 136.239285
_cell_volume 786.695563
_symmetry_space_group_name_H-M "P -1"
_symmetry_group_IT_number 2
_symmetry_cell_setting 'triclinic'
loop_
_space_group_symop_operation_xyz
x,y,z
-x,-y,-z
loop_
_atom_site_type_symbol
_atom_site_label
_atom_site_fract_x
_atom_site_fract_y
_atom_site_fract_z
Si Si1 0.314304 0.177510 0.657344
Si Si2 0.555818 0.184994 0.140132
Si Si3 0.923678 0.763839 0.078433
Si Si4 0.798019 0.807294 0.600471
Si Si5 0.880724 0.645190 0.824196
Si Si6 0.225737 0.178198 0.101010
Si Si7 0.408928 0.537355 0.425170
Si Si8 0.248800 0.916537 0.263371
O O1 0.439912 0.158619 0.404246
O O2 0.204013 0.194527 0.734766
O O3 0.461588 0.373826 0.606951
O O4 0.138646 0.972383 0.891394
O O5 0.403773 0.048795 0.198807
O O6 0.705884 0.410843 0.979892
O O7 0.672098 0.132708 0.963179
O O8 0.800271 0.579501 0.266653
O O9 0.937819 0.715714 0.906438
O O10 0.749893 0.732990 0.770145
O O11 0.656319 0.635040 0.636996
O O12 0.783361 0.958213 0.684423
O O13 0.023998 0.944555 0.304263
O O14 0.819261 0.738344 0.891634
O O15 0.055399 0.723420 0.525903
O O16 0.431148 0.266706 0.803544
#
# Coordination Sequence:
#
# PCOD9001993 Si02
#       8
#     2   2   2   2   2   2   2   2
#     4  11  21  32  50  82 117 142 175 221 287 337
#     4  11  21  35  53  81 116 150 182 213 278 336
#     4  11  21  31  52  84 116 141 170 230 291 331
#     4  10  22  38  55  82 112 148 190 225 277 318
#     4  11  19  35  56  84 114 140 182 226 280 328
#     4  10  21  36  56  81 113 146 182 237 277 318
#     4  12  20  32  55  84 112 141 177 231 283 336
#     4  10  22  36  54  77 116 152 183 225 256 336
#
# _framework density 20.338235999999998
#
# number of rings (size 3 to 8) (size 9 to 14) (size 15 to 20)
#    0.000    1.250    3.750    4.125    3.500    0.000 
#    0.000    0.000    0.000    0.750    0.000    8.750 
#    0.000    0.000    0.000    0.000    0.000    0.000 
#
# Total GULP energy -89148.520359 kJ/mol
# GULP energy per Si atom -5571.782522 kJ/mol
# Density = 2.029195 g / cm^3
# Si number density = 20.338236 Si / 1000 Ang^3
#
#
#
# Elastic Constant Matrix: (Units=GPa)
#
#
# Indices 1 2 3 4 5 6 
#
# 1 35.1088 19.8096 19.8331 0.0050 9.6117 18.1779
# 2 19.8096 -47.3153 110.9275 0.0202 21.7001 17.1993
# 3 19.8331 110.9275 120.2741 -17.2286 -6.9042 14.2495
# 4 0.0050 0.0202 -17.2286 45.6975 2.2873 -2.8618
# 5 9.6117 21.7001 -6.9042 2.2873 17.9704 0.2386
# 6 18.1779 17.1993 14.2495 -2.8618 0.2386 21.1417
#
#
#
# Elastic Compliance Matrix: (Units=1/GPa)
#
#
# Indices 1 2 3 4 5 6 
#
# 1 0.067123 -0.006198 -0.001130 -0.002286 -0.027871 -0.051904
# 2 -0.006198 -0.004446 0.005335 0.001835 0.010428 0.005481
# 3 -0.001130 0.005335 0.004249 0.001440 -0.004309 -0.005988
# 4 -0.002286 0.001835 0.001440 0.022758 -0.003372 0.002620
# 5 -0.027871 0.010428 -0.004309 -0.003372 0.056506 0.017291
# 6 -0.051904 0.005481 -0.005988 0.002620 0.017291 0.091664
#
#
# Mechanical properties :
#
#
# Convention : Reuss Voigt Hill
#
# Bulk Modulus (GPa) = 15.88851 45.46756 30.67804
# Shear Modulus (GPa) = 19.02448 14.12840 16.57644
#
# Velocity S-wave (km/s) = 3.06176 2.63852 2.85798
# Velocity P-wave (km/s) = 4.50868 5.62909 5.09975
#
# Compressibility (1/GPa) = 0.06293855
#
# Stress axis : x y z
#
# Youngs Moduli (GPa) = 14.89810 -224.90006 235.36613
#
# Poissons Ratio (x) = -1.39393 0.26601
# Poissons Ratio (y) = 0.09234 -1.25568
# Poissons Ratio (z) = 0.01684 1.19985
#
# Static dielectric constant tensor:
#      x y z
#    x 1.736100 0.011710 0.021650 
#    y 0.011710 1.736510 -0.010410 
#    z 0.021650 -0.010410 1.841470 
# 
# From -- ./inp_files/438331.got.cif
#   From: 2010.05.17/outbox.cif.g08.bks.cpg/sg2_220_cif.got.tgz:438331.got - 2010.06.03 11:33:40.
