data_PCOD9001307
_publ_section_title
;
Structure prediction by ZEFSAII (Michael W. Deem and Ramdas Pophale) SiO2 
 PCOD9001307
Probable space group: P -1
;
_chemical_formula_sum "Si O2"
_cell_formula_units_Z 12
_cell_length_a 9.120802
_cell_length_b 10.309438
_cell_length_c 9.865818
_cell_angle_alpha 40.738569
_cell_angle_beta 45.825563
_cell_angle_gamma 61.265168
_cell_volume 432.000327
_symmetry_space_group_name_H-M "P -1"
_symmetry_group_IT_number 2
_symmetry_cell_setting 'triclinic'
loop_
_space_group_symop_operation_xyz
x,y,z
-x,-y,-z
loop_
_atom_site_type_symbol
_atom_site_label
_atom_site_fract_x
_atom_site_fract_y
_atom_site_fract_z
Si Si1 0.613067 0.388062 0.399155
Si Si2 0.821550 0.942280 0.546798
Si Si3 0.158164 0.653189 0.955616
Si Si4 0.217559 0.156931 0.842415
Si Si5 0.356481 0.766082 0.994509
Si Si6 0.193284 0.812779 0.324804
O O1 0.500000 0.500000 0.500000
O O2 0.774663 0.480900 0.108812
O O3 0.416411 0.266239 0.555355
O O4 0.724618 0.239121 0.541709
O O5 0.591899 0.850206 0.795960
O O6 0.947293 0.786603 0.504907
O O7 0.802894 0.130540 0.312844
O O8 0.000000 0.000000 0.500000
O O9 0.311962 0.637528 0.992610
O O10 0.934853 0.678808 0.145146
O O11 0.259896 0.042463 0.050097
O O12 0.201138 0.945770 0.936504
O O13 0.282219 0.681496 0.254224
#
# Coordination Sequence:
#
# PCOD9001307 Si02
#       6
#     2   2   2   2   2   2
#     4  12  24  38  57  85 123 158 192 235 289 350
#     4  11  19  31  60  91 120 143 190 244 293 336
#     4  11  21  36  58  93 116 149 195 243 291 337
#     4   9  21  35  64  82 118 144 198 236 294 331
#     4  10  21  34  62  92 117 143 189 253 295 330
#     4   9  21  35  58  87 111 148 194 240 286 336
#
# _framework density 27.777756
#
# number of rings (size 3 to 8) (size 9 to 14) (size 15 to 20)
#    1.000    0.667    3.333    1.500    4.667    0.667 
#    0.000    0.833    0.000    2.000    0.000    0.000 
#    0.000    0.000    0.000    0.000    0.000    0.000 
#
# Total GULP energy -66848.808417 kJ/mol
# GULP energy per Si atom -5570.734035 kJ/mol
# Density = 2.771453 g / cm^3
# Si number density = 27.777756 Si / 1000 Ang^3
#
#
#
# Elastic Constant Matrix: (Units=GPa)
#
#
# Indices 1 2 3 4 5 6 
#
# 1 108.0748 32.1781 73.1106 18.9436 3.0532 -10.8909
# 2 32.1781 84.3824 28.7542 20.1211 -25.1614 -25.0741
# 3 73.1106 28.7542 152.4147 49.9008 -19.6211 -7.2407
# 4 18.9436 20.1211 49.9008 50.0870 -15.1983 -3.7919
# 5 3.0532 -25.1614 -19.6211 -15.1983 34.0499 19.2743
# 6 -10.8909 -25.0741 -7.2407 -3.7919 19.2743 45.6894
#
#
#
# Elastic Compliance Matrix: (Units=1/GPa)
#
#
# Indices 1 2 3 4 5 6 
#
# 1 0.018636 -0.006917 -0.009720 0.001305 -0.014919 0.005508
# 2 -0.006917 0.019351 0.002692 -0.003702 0.012708 0.003729
# 3 -0.009720 0.002692 0.014924 -0.009842 0.008758 -0.002986
# 4 0.001305 -0.003702 -0.009842 0.033054 0.008584 -0.004158
# 5 -0.014919 0.012708 0.008758 0.008584 0.060236 -0.019892
# 6 0.005508 0.003729 -0.002986 -0.004158 -0.019892 0.032820
#
#
# Mechanical properties :
#
#
# Convention : Reuss Voigt Hill
#
# Bulk Modulus (GPa) = 39.96765 68.10640 54.03703
# Shear Modulus (GPa) = 23.22858 40.02053 31.62455
#
# Velocity S-wave (km/s) = 2.89490 3.79983 3.37780
# Velocity P-wave (km/s) = 5.05901 6.61990 5.89138
#
# Compressibility (1/GPa) = 0.02502023
#
# Stress axis : x y z
#
# Youngs Moduli (GPa) = 53.65971 51.67559 67.00732
#
# Poissons Ratio (x) = 0.35746 0.65134
# Poissons Ratio (y) = 0.37119 -0.18042
# Poissons Ratio (z) = 0.52160 -0.13914
#
# Static dielectric constant tensor:
#      x y z
#    x 2.222900 0.130110 0.007410 
#    y 0.130110 2.609300 0.129280 
#    z 0.007410 0.129280 2.142940 
# 
# From -- ./inp_files/184614.got.cif
#   From: 2010.05.17/outbox.cif.g08.bks.cpg/sg2_93_cif.got.tgz:184614.got - 2010.06.03 11:33:40.
