data_PCOD9001916
_publ_section_title
;
Structure prediction by ZEFSAII (Michael W. Deem and Ramdas Pophale) SiO2 
 PCOD9001916
Probable space group: P -1
;
_chemical_formula_sum "Si O2"
_cell_formula_units_Z 14
_cell_length_a 4.974816
_cell_length_b 18.949138
_cell_length_c 11.498397
_cell_angle_alpha 132.367020
_cell_angle_beta 119.714110
_cell_angle_gamma 65.150068
_cell_volume 689.246490
_symmetry_space_group_name_H-M "P -1"
_symmetry_group_IT_number 2
_symmetry_cell_setting 'triclinic'
loop_
_space_group_symop_operation_xyz
x,y,z
-x,-y,-z
loop_
_atom_site_type_symbol
_atom_site_label
_atom_site_fract_x
_atom_site_fract_y
_atom_site_fract_z
Si Si1 0.276144 0.857934 0.349992
Si Si2 0.230281 0.314595 0.691847
Si Si3 0.246516 0.364456 0.016448
Si Si4 0.123555 0.116894 0.370139
Si Si5 0.577948 0.856440 0.176927
Si Si6 0.307721 0.510648 0.849927
Si Si7 0.485598 0.979133 0.838232
O O1 0.423450 0.746618 0.284136
O O2 0.534751 0.913386 0.529177
O O3 0.316737 0.873812 0.239468
O O4 0.915077 0.875201 0.323677
O O5 0.136773 0.351928 0.843587
O O6 0.047687 0.229906 0.511234
O O7 0.223151 0.403071 0.700545
O O8 0.382267 0.257495 0.965979
O O9 0.484872 0.443071 0.146930
O O10 0.980824 0.410134 0.095549
O O11 0.220891 0.092479 0.230675
O O12 0.838607 0.065513 0.295914
O O13 0.514539 0.923439 0.127156
O O14 0.500000 0.500000 0.000000
O O15 0.500000 0.000000 0.000000
#
# Coordination Sequence:
#
# PCOD9001916 Si02
#       7
#     2   2   2   2   2   2   2
#     4   9  20  33  55  82 112 132 170 213 280 312
#     4   8  18  32  49  81 112 140 170 208 258 327
#     4  10  19  29  46  79 111 145 167 203 258 322
#     4  10  23  38  58  80 110 136 183 222 270 320
#     4  11  20  36  53  78 114 138 178 223 260 323
#     4  10  17  27  48  73 115 148 165 192 255 326
#     4  12  26  41  56  76 101 147 192 224 268 315
#
# _framework density 20.312038000000001
#
# number of rings (size 3 to 8) (size 9 to 14) (size 15 to 20)
#    0.857    1.143    0.000    6.429    0.000    5.714 
#    0.000    0.000    0.000    0.000    0.000    6.000 
#    0.000    0.000    0.000    0.000    0.000    0.000 
#
# Total GULP energy -78082.093432 kJ/mol
# GULP energy per Si atom -5577.292388 kJ/mol
# Density = 2.026581 g / cm^3
# Si number density = 20.312038 Si / 1000 Ang^3
#
#
#
# Elastic Constant Matrix: (Units=GPa)
#
#
# Indices 1 2 3 4 5 6 
#
# 1 73.6109 2.6193 0.2218 4.4438 2.3107 11.7203
# 2 2.6193 60.4479 41.9779 22.1362 13.0596 28.2781
# 3 0.2218 41.9779 45.6686 14.7118 -0.6056 18.7334
# 4 4.4438 22.1362 14.7118 23.8108 10.1941 5.0397
# 5 2.3107 13.0596 -0.6056 10.1941 28.2579 6.5314
# 6 11.7203 28.2781 18.7334 5.0397 6.5314 30.5483
#
#
#
# Elastic Compliance Matrix: (Units=1/GPa)
#
#
# Indices 1 2 3 4 5 6 
#
# 1 0.015675 0.006580 0.001311 -0.007894 0.001300 -0.011884
# 2 0.006580 0.095225 -0.058855 -0.034091 -0.023348 -0.043965
# 3 0.001311 -0.058855 0.078851 -0.007793 0.031557 0.000162
# 4 -0.007894 -0.034091 -0.007793 0.082350 -0.020443 0.030150
# 5 0.001300 -0.023348 0.031557 -0.020443 0.055689 -0.006771
# 6 -0.011884 -0.043965 0.000162 0.030150 -0.006771 0.074367
#
#
# Mechanical properties :
#
#
# Convention : Reuss Voigt Hill
#
# Bulk Modulus (GPa) = 11.38647 29.92948 20.65797
# Shear Modulus (GPa) = 9.37454 25.51728 17.44591
#
# Velocity S-wave (km/s) = 2.15065 3.54823 2.93387
# Velocity P-wave (km/s) = 3.43293 5.61724 4.65502
#
# Compressibility (1/GPa) = 0.08782350
#
# Stress axis : x y z
#
# Youngs Moduli (GPa) = 63.79677 10.50144 12.68210
#
# Poissons Ratio (x) = -0.06910 -0.01662
# Poissons Ratio (y) = -0.41978 0.74640
# Poissons Ratio (z) = -0.08362 0.61806
#
# Static dielectric constant tensor:
#      x y z
#    x 1.739790 -0.000240 0.022270 
#    y -0.000240 1.757980 0.036870 
#    z 0.022270 0.036870 1.785120 
# 
# From -- ./inp_files/369882.got.cif
#   From: 2010.05.17/outbox.cif.g08.bks.cpg/sg2_185_cif.got.tgz:369882.got - 2010.06.03 11:33:40.
