data_PCOD9001158
_publ_section_title
;
Structure prediction by ZEFSAII (Michael W. Deem and Ramdas Pophale) SiO2 
 PCOD9001158
Probable space group: P -1
;
_chemical_formula_sum "Si O2"
_cell_formula_units_Z 16
_cell_length_a 11.906238
_cell_length_b 13.910276
_cell_length_c 15.182564
_cell_angle_alpha 37.955544
_cell_angle_beta 145.690801
_cell_angle_gamma 149.165188
_cell_volume 698.617486
_symmetry_space_group_name_H-M "P -1"
_symmetry_group_IT_number 2
_symmetry_cell_setting 'triclinic'
loop_
_space_group_symop_operation_xyz
x,y,z
-x,-y,-z
loop_
_atom_site_type_symbol
_atom_site_label
_atom_site_fract_x
_atom_site_fract_y
_atom_site_fract_z
Si Si1 0.062028 0.189958 0.132990
Si Si2 0.393678 0.620906 0.370925
Si Si3 0.014496 0.645826 0.336651
Si Si4 0.564836 0.863153 0.489843
Si Si5 0.679792 0.467228 0.083500
Si Si6 0.190100 0.121034 0.955747
Si Si7 0.944843 0.206178 0.389237
Si Si8 0.245666 0.018822 0.745611
O O1 0.289034 0.183283 0.316106
O O2 0.194567 0.394564 0.020521
O O3 0.889412 0.030451 0.062860
O O4 0.878192 0.114219 0.152550
O O5 0.500000 0.500000 0.500000
O O6 0.507573 0.738345 0.452060
O O7 0.473179 0.786108 0.229576
O O8 0.108276 0.437716 0.328901
O O9 0.887834 0.537339 0.241302
O O10 0.873069 0.731126 0.219753
O O11 0.000000 0.500000 0.500000
O O12 0.305565 0.809950 0.392060
O O13 0.747608 0.090827 0.421545
O O14 0.500000 0.500000 0.000000
O O15 0.476933 0.247488 0.077644
O O16 0.000000 0.000000 0.000000
O O17 0.102816 0.118366 0.567193
O O18 0.817336 0.125675 0.270568
#
# Coordination Sequence:
#
# PCOD9001158 Si02
#       8
#     2   2   2   2   2   2   2   2
#     4  11  20  36  61  89 118 157 207 242 292 362
#     4   9  16  31  53  80 124 155 188 240 295 353
#     4  11  24  41  61  88 124 155 196 260 305 341
#     4  10  21  34  54  93 121 149 196 249 302 342
#     4  10  21  41  59  79 117 157 201 248 294 349
#     4  11  23  42  63  82 116 167 206 237 292 363
#     4   8  15  30  49  79 121 150 182 241 298 345
#     4   8  16  27  50  84 112 146 195 243 282 341
#
# _framework density 22.902377000000001
#
# number of rings (size 3 to 8) (size 9 to 14) (size 15 to 20)
#    0.000    2.250    2.500    3.750    0.000    7.500 
#    2.250    0.000    0.000    3.000    0.000    7.875 
#    0.000    0.000    0.000    0.000    0.000    0.000 
#
# Total GULP energy -89311.717349 kJ/mol
# GULP energy per Si atom -5581.982334 kJ/mol
# Density = 2.285025 g / cm^3
# Si number density = 22.902377 Si / 1000 Ang^3
#
#
#
# Elastic Constant Matrix: (Units=GPa)
#
#
# Indices 1 2 3 4 5 6 
#
# 1 25.5028 10.1778 6.8540 -16.0574 -17.1248 13.8181
# 2 10.1778 177.4732 38.5532 0.3608 -22.2781 36.1190
# 3 6.8540 38.5532 102.1178 -9.3582 -13.7900 20.7244
# 4 -16.0574 0.3608 -9.3582 26.2702 1.7476 -9.2781
# 5 -17.1248 -22.2781 -13.7900 1.7476 40.5208 -13.0888
# 6 13.8181 36.1190 20.7244 -9.2781 -13.0888 36.7093
#
#
#
# Elastic Compliance Matrix: (Units=1/GPa)
#
#
# Indices 1 2 3 4 5 6 
#
# 1 0.116089 0.000434 0.007180 0.064883 0.043714 -0.016193
# 2 0.000434 0.007561 -0.001525 -0.002921 0.001731 -0.006863
# 3 0.007180 -0.001525 0.012067 0.006746 0.004491 -0.004708
# 4 0.064883 -0.002921 0.006746 0.079887 0.025990 0.004100
# 5 0.043714 0.001731 0.004491 0.025990 0.045150 0.001974
# 6 -0.016193 -0.006863 -0.004708 0.004100 0.001974 0.044487
#
#
# Mechanical properties :
#
#
# Convention : Reuss Voigt Hill
#
# Bulk Modulus (GPa) = 6.76158 46.25153 26.50656
# Shear Modulus (GPa) = 14.60448 37.33397 25.96923
#
# Velocity S-wave (km/s) = 2.52798 4.04187 3.37101
# Velocity P-wave (km/s) = 3.38817 6.48238 5.17208
#
# Compressibility (1/GPa) = 0.14789435
#
# Stress axis : x y z
#
# Youngs Moduli (GPa) = 8.61410 132.25878 82.87349
#
# Poissons Ratio (x) = -0.05739 -0.59503
# Poissons Ratio (y) = -0.00374 0.12637
# Poissons Ratio (z) = -0.06185 0.20167
#
# Static dielectric constant tensor:
#      x y z
#    x 1.915280 0.087490 0.037910 
#    y 0.087490 1.895000 0.004580 
#    z 0.037910 0.004580 1.897140 
# 
# From -- ./inp_files/521482.got.cif
#   From: 2010.05.17/outbox.cif.g08.bks.cpg/sg2_261_cif.got.tgz:521482.got - 2010.06.03 11:33:40.
