data_PCOD9001836
_publ_section_title
;
Structure prediction by ZEFSAII (Michael W. Deem and Ramdas Pophale) SiO2 
 PCOD9001836
Probable space group: P -1
;
_chemical_formula_sum "Si O2"
_cell_formula_units_Z 14
_cell_length_a 7.567248
_cell_length_b 11.066048
_cell_length_c 11.575926
_cell_angle_alpha 46.726410
_cell_angle_beta 127.149562
_cell_angle_gamma 97.437151
_cell_volume 490.301756
_symmetry_space_group_name_H-M "P -1"
_symmetry_group_IT_number 2
_symmetry_cell_setting 'triclinic'
loop_
_space_group_symop_operation_xyz
x,y,z
-x,-y,-z
loop_
_atom_site_type_symbol
_atom_site_label
_atom_site_fract_x
_atom_site_fract_y
_atom_site_fract_z
Si Si1 0.000000 0.000000 0.500000
Si Si2 0.380935 0.284731 0.112390
Si Si3 0.497202 0.669001 0.635236
Si Si4 0.026776 0.402268 0.696560
Si Si5 0.500000 0.500000 0.500000
Si Si6 0.042949 0.103833 0.191353
Si Si7 0.281179 0.147575 0.534489
Si Si8 0.685049 0.022092 0.969270
O O1 0.045283 0.872717 0.726874
O O2 0.973192 0.825081 0.529459
O O3 0.432500 0.394232 0.162935
O O4 0.184757 0.215806 0.128021
O O5 0.642590 0.077553 0.327787
O O6 0.260128 0.381463 0.880733
O O7 0.466331 0.552551 0.595529
O O8 0.717931 0.717357 0.650584
O O9 0.255227 0.881985 0.405198
O O10 0.099094 0.184573 0.845341
O O11 0.000000 0.500000 0.500000
O O12 0.769234 0.501907 0.600856
O O13 0.809144 0.140987 0.990544
O O14 0.510124 0.112813 0.730662
O O15 0.500000 0.000000 0.000000
#
# Coordination Sequence:
#
# PCOD9001836 Si02
#       8
#     1   2   2   2   1   2   2   2
#     4  12  18  34  64 116 142 170 218 308 398 404
#     4  10  22  44  69  98 137 184 239 300 362 421
#     4  11  22  44  67 100 145 189 239 292 360 440
#     4  11  28  49  68 101 148 198 245 296 362 445
#     4  12  28  46  72  94 148 210 236 282 370 444
#     4  11  21  38  70 109 142 175 231 311 371 422
#     4  10  21  35  66 105 138 171 227 305 359 417
#     4  11  23  38  70 108 138 177 239 304 358 422
#
# _framework density 28.553844999999999
#
# number of rings (size 3 to 8) (size 9 to 14) (size 15 to 20)
#    0.000    1.143    5.714    0.857    4.000    2.286 
#    0.000    0.714    0.000    0.000    0.000    0.000 
#    0.000    0.000    0.000    0.000    0.000    0.000 
#
# Total GULP energy -78057.523796 kJ/mol
# GULP energy per Si atom -5575.537414 kJ/mol
# Density = 2.848885 g / cm^3
# Si number density = 28.553845 Si / 1000 Ang^3
#
#
#
# Elastic Constant Matrix: (Units=GPa)
#
#
# Indices 1 2 3 4 5 6 
#
# 1 150.7544 25.9149 22.0861 11.7108 -6.1521 3.2866
# 2 25.9149 128.2926 82.8134 30.7448 4.9383 -15.8111
# 3 22.0861 82.8134 138.3915 31.3900 -10.5347 -16.6905
# 4 11.7108 30.7448 31.3900 71.5445 -11.5002 3.4053
# 5 -6.1521 4.9383 -10.5347 -11.5002 42.0997 17.4320
# 6 3.2866 -15.8111 -16.6905 3.4053 17.4320 54.5755
#
#
#
# Elastic Compliance Matrix: (Units=1/GPa)
#
#
# Indices 1 2 3 4 5 6 
#
# 1 0.007035 -0.001487 -0.000271 -0.000043 0.001740 -0.001490
# 2 -0.001487 0.014871 -0.007719 -0.004078 -0.006864 0.004484
# 3 -0.000271 -0.007719 0.012600 -0.001674 0.003275 0.000692
# 4 -0.000043 -0.004078 -0.001674 0.017839 0.007015 -0.005044
# 5 0.001740 -0.006864 0.003275 0.007015 0.032477 -0.011903
# 6 -0.001490 0.004484 0.000692 -0.005044 -0.011903 0.024040
#
#
# Mechanical properties :
#
#
# Convention : Reuss Voigt Hill
#
# Bulk Modulus (GPa) = 64.28696 75.45194 69.86945
# Shear Modulus (GPa) = 37.59420 52.75221 45.17321
#
# Velocity S-wave (km/s) = 3.63244 4.30288 3.98180
# Velocity P-wave (km/s) = 6.33688 7.15319 6.75737
#
# Compressibility (1/GPa) = 0.01555525
#
# Stress axis : x y z
#
# Youngs Moduli (GPa) = 142.13883 67.24343 79.36375
#
# Poissons Ratio (x) = 0.09997 0.02147
# Poissons Ratio (y) = 0.21132 0.61257
# Poissons Ratio (z) = 0.03846 0.51902
#
# Static dielectric constant tensor:
#      x y z
#    x 1.885810 2.863300 1.448000 
#    y 2.863300 -10.858340 -6.426270 
#    z 1.448000 -6.426270 -0.665040 
# 
# From -- ./inp_files/389201.got.cif
#   From: 2010.05.17/outbox.cif.g08.bks.cpg/sg2_195_cif.got.tgz:389201.got - 2010.06.03 11:33:40.
