data_PCOD9001598
_publ_section_title
;
Structure prediction by ZEFSAII (Michael W. Deem and Ramdas Pophale) SiO2 
 PCOD9001598
Probable space group: P -1
;
_chemical_formula_sum "Si O2"
_cell_formula_units_Z 16
_cell_length_a 16.207549
_cell_length_b 4.889593
_cell_length_c 11.370536
_cell_angle_alpha 97.052811
_cell_angle_beta 122.455228
_cell_angle_gamma 60.080237
_cell_volume 645.956883
_symmetry_space_group_name_H-M "P -1"
_symmetry_group_IT_number 2
_symmetry_cell_setting 'triclinic'
loop_
_space_group_symop_operation_xyz
x,y,z
-x,-y,-z
loop_
_atom_site_type_symbol
_atom_site_label
_atom_site_fract_x
_atom_site_fract_y
_atom_site_fract_z
Si Si1 0.522744 0.561777 0.328959
Si Si2 0.099948 0.177921 0.116110
Si Si3 0.172125 0.625268 0.305575
Si Si4 0.776557 0.200333 0.407545
Si Si5 0.216591 0.344586 0.757747
Si Si6 0.598013 0.228866 0.984815
Si Si7 0.616155 0.751811 0.701753
Si Si8 0.223514 0.628580 0.993398
O O1 0.653488 0.320504 0.380202
O O2 0.467197 0.356288 0.314057
O O3 0.457153 0.879639 0.377818
O O4 0.470160 0.771722 0.180653
O O5 0.160007 0.318319 0.253405
O O6 0.086814 0.930423 0.176099
O O7 0.000000 0.500000 0.000000
O O8 0.163906 0.948504 0.042567
O O9 0.155923 0.751092 0.432229
O O10 0.302199 0.489996 0.351445
O O11 0.764714 0.440699 0.308581
O O12 0.824815 0.857150 0.361535
O O13 0.153954 0.553370 0.838892
O O14 0.333125 0.074919 0.895093
O O15 0.685042 0.331667 0.009486
O O16 0.500000 0.500000 0.000000
O O17 0.713531 0.651174 0.874649
#
# Coordination Sequence:
#
# PCOD9001598 Si02
#       8
#     2   2   2   2   2   2   2   2
#     4  11  21  33  54  90 123 179 228 258 306 349
#     4  11  25  47  79 101 115 152 214 285 348 388
#     4  11  24  46  64  95 131 163 208 265 336 398
#     4  12  26  37  59  89 138 186 213 246 311 398
#     4  12  22  38  57  94 127 181 218 257 310 364
#     4  11  20  34  57  92 133 175 225 267 294 351
#     4  10  21  35  59  85 126 170 218 278 307 350
#     4  10  22  37  65  95 128 158 215 285 324 354
#
# _framework density 24.769456999999999
#
# number of rings (size 3 to 8) (size 9 to 14) (size 15 to 20)
#    0.000    1.000    3.750    4.125    3.500    2.000 
#    0.000    0.000    0.000    4.500    0.000    0.000 
#    0.000    0.000    0.000    0.000    0.000    0.000 
#
# Total GULP energy -89334.296247 kJ/mol
# GULP energy per Si atom -5583.393515 kJ/mol
# Density = 2.471308 g / cm^3
# Si number density = 24.769457 Si / 1000 Ang^3
#
#
#
# Elastic Constant Matrix: (Units=GPa)
#
#
# Indices 1 2 3 4 5 6 
#
# 1 40.6388 21.2569 9.4550 14.2491 -8.0794 21.4030
# 2 21.2569 139.6773 29.1291 35.9911 10.4648 11.0642
# 3 9.4550 29.1291 90.6602 48.1998 -19.3076 -8.7489
# 4 14.2491 35.9911 48.1998 56.6989 -5.5903 -1.6939
# 5 -8.0794 10.4648 -19.3076 -5.5903 20.0749 4.2905
# 6 21.4030 11.0642 -8.7489 -1.6939 4.2905 37.8336
#
#
#
# Elastic Compliance Matrix: (Units=1/GPa)
#
#
# Indices 1 2 3 4 5 6 
#
# 1 0.055670 -0.006844 0.009003 -0.014569 0.037480 -0.032312
# 2 -0.006844 0.010658 -0.003675 -0.003165 -0.012991 0.001236
# 3 0.009003 -0.003675 0.028205 -0.021283 0.027063 -0.001518
# 4 -0.014569 -0.003165 -0.021283 0.040137 -0.015165 0.007763
# 5 0.037480 -0.012991 0.027063 -0.015165 0.098387 -0.022982
# 6 -0.032312 0.001236 -0.001518 0.007763 -0.022982 0.046952
#
#
# Mechanical properties :
#
#
# Convention : Reuss Voigt Hill
#
# Bulk Modulus (GPa) = 10.92905 43.40648 27.16776
# Shear Modulus (GPa) = 15.94679 36.99717 26.47198
#
# Velocity S-wave (km/s) = 2.54009 3.86898 3.27270
# Velocity P-wave (km/s) = 3.60897 6.12543 5.02721
#
# Compressibility (1/GPa) = 0.09149925
#
# Stress axis : x y z
#
# Youngs Moduli (GPa) = 17.96306 93.82313 35.45528
#
# Poissons Ratio (x) = 0.64213 -0.31919
# Poissons Ratio (y) = 0.12294 0.13031
# Poissons Ratio (z) = -0.16171 0.34482
#
# Static dielectric constant tensor:
#      x y z
#    x 1.930310 -0.057100 0.026670 
#    y -0.057100 2.225040 0.248880 
#    z 0.026670 0.248880 2.237910 
# 
# From -- ./inp_files/459556.got.cif
#   From: 2010.05.17/outbox.cif.g08.bks.cpg/sg2_230_cif.got.tgz:459556.got - 2010.06.03 11:33:40.
