data_PCOD9001255
_publ_section_title
;
Structure prediction by ZEFSAII (Michael W. Deem and Ramdas Pophale) SiO2 
 PCOD9001255
Probable space group: P -1
;
_chemical_formula_sum "Si O2"
_cell_formula_units_Z 12
_cell_length_a 9.789096
_cell_length_b 6.517698
_cell_length_c 15.644711
_cell_angle_alpha 109.725033
_cell_angle_beta 145.236630
_cell_angle_gamma 82.812329
_cell_volume 513.773602
_symmetry_space_group_name_H-M "P -1"
_symmetry_group_IT_number 2
_symmetry_cell_setting 'triclinic'
loop_
_space_group_symop_operation_xyz
x,y,z
-x,-y,-z
loop_
_atom_site_type_symbol
_atom_site_label
_atom_site_fract_x
_atom_site_fract_y
_atom_site_fract_z
Si Si1 0.229024 0.811953 0.836222
Si Si2 0.175838 0.065683 0.462654
Si Si3 0.613896 0.164814 0.903290
Si Si4 0.278021 0.703630 0.219840
Si Si5 0.170451 0.204085 0.060231
Si Si6 0.857166 0.683060 0.344412
O O1 0.212420 0.583373 0.743183
O O2 0.013536 0.913529 0.705327
O O3 0.197879 0.738222 0.909474
O O4 0.500000 0.000000 0.000000
O O5 0.462536 0.138884 0.590297
O O6 0.141762 0.237987 0.545594
O O7 0.104398 0.823959 0.440997
O O8 0.688758 0.267634 0.862633
O O9 0.355795 0.220091 0.794568
O O10 0.603210 0.898417 0.860010
O O11 0.015266 0.759812 0.105472
O O12 0.255397 0.440899 0.186572
O O13 0.000000 0.000000 0.000000
#
# Coordination Sequence:
#
# PCOD9001255 Si02
#       6
#     2   2   2   2   2   2
#     4  12  24  35  56  89 125 160 192 234 291 348
#     4  10  22  37  59  85 118 159 192 243 283 349
#     4  10  21  34  59  86 117 155 191 237 286 345
#     4   9  20  38  63  85 115 152 197 246 284 348
#     4   9  19  38  63  89 109 148 205 241 292 341
#     4  10  22  39  55  85 121 160 197 232 288 347
#
# _framework density 23.356591999999999
#
# number of rings (size 3 to 8) (size 9 to 14) (size 15 to 20)
#    0.000    2.000    1.667    1.000    4.667    5.333 
#    0.000    0.833    0.000   10.000    0.000    0.000 
#    0.000    0.000    0.000    0.000    0.000    0.000 
#
# Total GULP energy -66951.153336 kJ/mol
# GULP energy per Si atom -5579.262778 kJ/mol
# Density = 2.330343 g / cm^3
# Si number density = 23.356592 Si / 1000 Ang^3
#
#
#
# Elastic Constant Matrix: (Units=GPa)
#
#
# Indices 1 2 3 4 5 6 
#
# 1 28.7325 20.9564 14.1570 5.4305 -9.1229 6.3978
# 2 20.9564 110.1993 27.9538 20.3136 14.4479 -5.3587
# 3 14.1570 27.9538 118.1949 -7.7396 7.4875 11.6236
# 4 5.4305 20.3136 -7.7396 49.4356 3.8176 -2.8092
# 5 -9.1229 14.4479 7.4875 3.8176 43.9990 -3.5505
# 6 6.3978 -5.3587 11.6236 -2.8092 -3.5505 16.9307
#
#
#
# Elastic Compliance Matrix: (Units=1/GPa)
#
#
# Indices 1 2 3 4 5 6 
#
# 1 0.054607 -0.011782 -0.002959 -0.003868 0.014420 -0.019950
# 2 -0.011782 0.013851 -0.002642 -0.003884 -0.005490 0.008854
# 3 -0.002959 -0.002642 0.010453 0.002834 -0.002328 -0.006912
# 4 -0.003868 -0.003884 0.002834 0.022933 -0.001861 0.001701
# 5 0.014420 -0.005490 -0.002328 -0.001861 0.028078 -0.000009
# 6 -0.019950 0.008854 -0.006912 0.001701 -0.000009 0.074431
#
#
# Mechanical properties :
#
#
# Convention : Reuss Voigt Hill
#
# Bulk Modulus (GPa) = 22.65237 42.58458 32.61848
# Shear Modulus (GPa) = 19.69793 35.01036 27.35415
#
# Velocity S-wave (km/s) = 2.90721 3.87583 3.42592
# Velocity P-wave (km/s) = 4.58134 6.18881 5.44472
#
# Compressibility (1/GPa) = 0.04414548
#
# Stress axis : x y z
#
# Youngs Moduli (GPa) = 18.31277 72.19451 95.66851
#
# Poissons Ratio (x) = 0.85057 0.28309
# Poissons Ratio (y) = 0.21575 0.25276
# Poissons Ratio (z) = 0.05419 0.19074
#
# Static dielectric constant tensor:
#      x y z
#    x 2.067080 -0.015940 0.051310 
#    y -0.015940 1.882710 -0.002940 
#    z 0.051310 -0.002940 1.939300 
# 
# From -- ./inp_files/18973.got.cif
#   From: 2010.05.17/outbox.cif.g08.bks.cpg/sg2_10_cif.got.tgz:18973.got - 2010.06.03 11:33:40.
