data_PCOD9001671
_publ_section_title
;
Structure prediction by ZEFSAII (Michael W. Deem and Ramdas Pophale) SiO2 
 PCOD9001671
Probable space group: P -1
;
_chemical_formula_sum "Si O2"
_cell_formula_units_Z 15
_cell_length_a 17.470391
_cell_length_b 12.940618
_cell_length_c 15.489368
_cell_angle_alpha 153.176947
_cell_angle_beta 25.660844
_cell_angle_gamma 150.284858
_cell_volume 646.391370
_symmetry_space_group_name_H-M "P -1"
_symmetry_group_IT_number 2
_symmetry_cell_setting 'triclinic'
loop_
_space_group_symop_operation_xyz
x,y,z
-x,-y,-z
loop_
_atom_site_type_symbol
_atom_site_label
_atom_site_fract_x
_atom_site_fract_y
_atom_site_fract_z
Si Si1 0.669588 0.563955 0.275064
Si Si2 0.727840 0.910979 0.854043
Si Si3 0.404646 0.629033 0.354091
Si Si4 0.174192 0.261918 0.934276
Si Si5 0.899184 0.291797 0.380719
Si Si6 0.074454 0.301019 0.731196
Si Si7 0.500000 0.000000 0.000000
Si Si8 0.686607 0.299379 0.318815
O O1 0.801517 0.627519 0.103897
O O2 0.763069 0.702231 0.370138
O O3 0.500179 0.658419 0.494560
O O4 0.606997 0.275546 0.136880
O O5 0.704612 0.654124 0.728115
O O6 0.557208 0.876335 0.935726
O O7 0.912175 0.046478 0.710619
O O8 0.728620 0.095267 0.067887
O O9 0.625042 0.667466 0.167004
O O10 0.310005 0.707584 0.427100
O O11 0.351171 0.765101 0.591581
O O12 0.109365 0.971862 0.774346
O O13 0.025578 0.334248 0.197157
O O14 0.000000 0.500000 0.500000
O O15 0.159187 0.436741 0.658544
O O16 0.000000 0.500000 0.000000
#
# Coordination Sequence:
#
# PCOD9001671 Si02
#       8
#     2   2   2   2   2   2   1   2
#     4  11  22  41  66  95 138 179 220 271 336 397
#     4  11  24  39  62  97 135 180 228 271 321 399
#     4  11  25  46  69 101 135 178 228 275 347 406
#     4  10  25  48  71  99 137 178 217 293 339 401
#     4  11  27  47  74 105 127 172 234 287 353 405
#     4  10  21  35  60  93 134 179 215 267 318 387
#     4  12  20  40  62  96 142 172 230 264 316 408
#     4  10  22  41  63  94 134 186 219 265 337 394
#
# _framework density 23.205753999999999
#
# number of rings (size 3 to 8) (size 9 to 14) (size 15 to 20)
#    0.000    1.333    5.333    0.800    5.600    4.267 
#    2.400    0.000    0.000    0.000    0.000    0.000 
#    0.000    0.000    0.000    0.000    0.000    0.000 
#
# Total GULP energy -83650.671806 kJ/mol
# GULP energy per Si atom -5576.711454 kJ/mol
# Density = 2.315294 g / cm^3
# Si number density = 23.205754 Si / 1000 Ang^3
#
#
#
# Elastic Constant Matrix: (Units=GPa)
#
#
# Indices 1 2 3 4 5 6 
#
# 1 66.5420 -5.8316 10.5695 6.5562 -10.3692 8.7570
# 2 -5.8316 78.2016 29.9682 5.0941 12.2765 5.6498
# 3 10.5695 29.9682 59.8002 9.1340 2.4150 3.9265
# 4 6.5562 5.0941 9.1340 32.5648 6.7065 -0.0439
# 5 -10.3692 12.2765 2.4150 6.7065 19.5952 2.9778
# 6 8.7570 5.6498 3.9265 -0.0439 2.9778 33.1247
#
#
#
# Elastic Compliance Matrix: (Units=1/GPa)
#
#
# Indices 1 2 3 4 5 6 
#
# 1 0.018970 0.001580 -0.003384 -0.005662 0.012315 -0.005998
# 2 0.001580 0.017842 -0.008942 0.001346 -0.009465 -0.001548
# 3 -0.003384 -0.008942 0.022454 -0.004787 0.002758 -0.000496
# 4 -0.005662 0.001346 -0.004787 0.036318 -0.016186 0.003338
# 5 0.012315 -0.009465 0.002758 -0.016186 0.069937 -0.008277
# 6 -0.005998 -0.001548 -0.000496 0.003338 -0.008277 0.032846
#
#
# Mechanical properties :
#
#
# Convention : Reuss Voigt Hill
#
# Bulk Modulus (GPa) = 26.47258 30.43955 28.45607
# Shear Modulus (GPa) = 21.50990 28.37946 24.94468
#
# Velocity S-wave (km/s) = 3.04784 3.50086 3.28218
# Velocity P-wave (km/s) = 4.88040 5.43020 5.16263
#
# Compressibility (1/GPa) = 0.03777493
#
# Stress axis : x y z
#
# Youngs Moduli (GPa) = 52.71427 56.04651 44.53519
#
# Poissons Ratio (x) = -0.08856 0.15069
# Poissons Ratio (y) = -0.08330 0.39826
# Poissons Ratio (z) = 0.17836 0.50120
#
# Static dielectric constant tensor:
#      x y z
#    x 1.818310 0.007550 0.022100 
#    y 0.007550 1.886680 -0.060770 
#    z 0.022100 -0.060770 1.864540 
# 
# From -- ./inp_files/538348.got.cif
#   From: 2010.05.17/outbox.cif.g08.bks.cpg/sg2_270_cif.got.tgz:538348.got - 2010.06.03 11:33:40.
