data_PCOD9001992
_publ_section_title
;
Structure prediction by ZEFSAII (Michael W. Deem and Ramdas Pophale) SiO2 
 PCOD9001992
Probable space group: P -1
;
_chemical_formula_sum "Si O2"
_cell_formula_units_Z 16
_cell_length_a 23.862051
_cell_length_b 11.315706
_cell_length_c 13.899956
_cell_angle_alpha 145.510458
_cell_angle_beta 21.129873
_cell_angle_gamma 152.131097
_cell_volume 632.444106
_symmetry_space_group_name_H-M "P -1"
_symmetry_group_IT_number 2
_symmetry_cell_setting 'triclinic'
loop_
_space_group_symop_operation_xyz
x,y,z
-x,-y,-z
loop_
_atom_site_type_symbol
_atom_site_label
_atom_site_fract_x
_atom_site_fract_y
_atom_site_fract_z
Si Si1 0.610260 0.373041 0.270865
Si Si2 0.792249 0.075223 0.617109
Si Si3 0.895463 0.676915 0.562854
Si Si4 0.501163 0.526577 0.901521
Si Si5 0.917737 0.751893 0.365015
Si Si6 0.636960 0.335106 0.988931
Si Si7 0.953568 0.745171 0.092682
Si Si8 0.360666 0.184020 0.721495
O O1 0.500000 0.500000 0.500000
O O2 0.820466 0.560235 0.098817
O O3 0.498177 0.210698 0.435226
O O4 0.614943 0.257836 0.086072
O O5 0.769737 0.243677 0.687746
O O6 0.935913 0.254174 0.590740
O O7 0.891233 0.942072 0.328872
O O8 0.576815 0.831289 0.817898
O O9 0.689263 0.475706 0.803451
O O10 0.924102 0.634807 0.377245
O O11 0.917324 0.949338 0.704121
O O12 0.500000 0.500000 0.000000
O O13 0.722123 0.734124 0.670469
O O14 0.457447 0.297000 0.746249
O O15 0.911470 0.632631 0.192779
O O16 0.699466 0.621323 0.077164
O O17 0.175441 0.906934 0.832147
#
# Coordination Sequence:
#
# PCOD9001992 Si02
#       8
#     2   2   2   2   2   2   2   2
#     4  10  20  36  51  73 103 140 175 217 250 303
#     4  10  18  36  54  75 106 136 173 215 261 310
#     4   9  17  29  48  75 105 129 166 210 266 300
#     4  10  17  27  48  78 106 130 163 215 268 298
#     4   9  16  28  48  76 105 128 161 217 261 301
#     4  10  22  35  53  74 107 143 175 209 262 304
#     4  11  19  32  55  78 103 134 174 212 261 305
#     4  11  19  33  53  77 105 137 171 216 255 311
#
# _framework density 25.298679
#
# number of rings (size 3 to 8) (size 9 to 14) (size 15 to 20)
#    0.000    2.000    6.250    0.750    0.000    2.500 
#    0.000    0.000    0.000    0.750    0.000    0.875 
#    0.000    0.000    0.000    0.000    0.000    0.000 
#
# Total GULP energy -89204.834673 kJ/mol
# GULP energy per Si atom -5575.302167 kJ/mol
# Density = 2.524110 g / cm^3
# Si number density = 25.298679 Si / 1000 Ang^3
#
#
#
# Elastic Constant Matrix: (Units=GPa)
#
#
# Indices 1 2 3 4 5 6 
#
# 1 123.6479 17.1798 17.1511 -9.1139 -15.4657 36.8976
# 2 17.1798 64.9332 27.5113 -21.3999 -10.4090 11.1188
# 3 17.1511 27.5113 59.2248 -34.1569 -4.2189 4.9922
# 4 -9.1139 -21.3999 -34.1569 44.7823 5.0982 -6.2814
# 5 -15.4657 -10.4090 -4.2189 5.0982 45.2279 -1.5937
# 6 36.8976 11.1188 4.9922 -6.2814 -1.5937 38.7470
#
#
#
# Elastic Compliance Matrix: (Units=1/GPa)
#
#
# Indices 1 2 3 4 5 6 
#
# 1 0.012319 0.000128 -0.003724 -0.002313 0.003750 -0.011509
# 2 0.000128 0.020877 -0.007018 0.003609 0.003629 -0.004474
# 3 -0.003724 -0.007018 0.033608 0.022433 -0.002114 0.004780
# 4 -0.002313 0.003609 0.022433 0.041659 -0.002390 0.004932
# 5 0.003750 0.003629 -0.002114 -0.002390 0.024168 -0.003733
# 6 -0.011509 -0.004474 0.004780 0.004932 -0.003733 0.038082
#
#
# Mechanical properties :
#
#
# Convention : Reuss Voigt Hill
#
# Bulk Modulus (GPa) = 21.94117 41.27668 31.60893
# Shear Modulus (GPa) = 24.13908 38.14903 31.14406
#
# Velocity S-wave (km/s) = 3.09231 3.88744 3.51245
# Velocity P-wave (km/s) = 4.63049 6.04159 5.38248
#
# Compressibility (1/GPa) = 0.04557643
#
# Stress axis : x y z
#
# Youngs Moduli (GPa) = 81.17494 47.89875 29.75507
#
# Poissons Ratio (x) = -0.00612 0.11080
# Poissons Ratio (y) = -0.01038 0.20882
# Poissons Ratio (z) = 0.30228 0.33615
#
# Static dielectric constant tensor:
#      x y z
#    x 2.139360 -0.060720 0.012550 
#    y -0.060720 2.171200 0.077110 
#    z 0.012550 0.077110 2.110660 
# 
# From -- ./inp_files/544173.got.cif
#   From: 2010.05.17/outbox.cif.g08.bks.cpg/sg2_273_cif.got.tgz:544173.got - 2010.06.03 11:33:40.
