data_PCOD9001880
_publ_section_title
;
Structure prediction by ZEFSAII (Michael W. Deem and Ramdas Pophale) SiO2 
 PCOD9001880
Probable space group: P -1
;
_chemical_formula_sum "Si O2"
_cell_formula_units_Z 14
_cell_length_a 5.078019
_cell_length_b 19.694693
_cell_length_c 13.868044
_cell_angle_alpha 44.196121
_cell_angle_beta 46.581532
_cell_angle_gamma 44.790996
_cell_volume 634.588711
_symmetry_space_group_name_H-M "P -1"
_symmetry_group_IT_number 2
_symmetry_cell_setting 'triclinic'
loop_
_space_group_symop_operation_xyz
x,y,z
-x,-y,-z
loop_
_atom_site_type_symbol
_atom_site_label
_atom_site_fract_x
_atom_site_fract_y
_atom_site_fract_z
Si Si1 0.773082 0.824858 0.057732
Si Si2 0.034070 0.772403 0.338343
Si Si3 0.128042 0.620023 0.076535
Si Si4 0.778562 0.355682 0.382374
Si Si5 0.639597 0.964785 0.139855
Si Si6 0.403380 0.622515 0.805421
Si Si7 0.382311 0.565188 0.363874
O O1 0.394691 0.795533 0.180707
O O2 0.715817 0.883062 0.115004
O O3 0.128642 0.709471 0.060471
O O4 0.738495 0.920364 0.896020
O O5 0.158237 0.725131 0.462021
O O6 0.015267 0.677807 0.371613
O O7 0.668727 0.890137 0.299912
O O8 0.504047 0.503418 0.105229
O O9 0.745964 0.595177 0.215172
O O10 0.113469 0.664247 0.927140
O O11 0.734061 0.321518 0.320327
O O12 0.403219 0.473552 0.376888
O O13 0.183770 0.373508 0.270309
O O14 0.000000 0.000000 0.000000
O O15 0.500000 0.500000 0.500000
#
# Coordination Sequence:
#
# PCOD9001880 Si02
#       7
#     2   2   2   2   2   2   2
#     4   9  18  34  54  82 107 138 180 231 279 331
#     4   9  18  32  53  80 107 147 173 229 283 325
#     4   9  19  35  55  78 110 150 182 225 267 321
#     4  10  21  36  53  80 116 146 187 223 263 328
#     4   9  18  32  52  83 106 135 180 225 292 329
#     4  10  22  37  54  82 112 153 189 217 260 323
#     4   8  16  32  49  81 111 140 177 219 272 327
#
# _framework density 22.061533000000001
#
# number of rings (size 3 to 8) (size 9 to 14) (size 15 to 20)
#    0.000    2.857    0.000    0.000    4.000    5.143 
#    5.143    4.286    0.000    1.714    0.000    0.000 
#    0.000    0.000    0.000    0.000    0.000    0.000 
#
# Total GULP energy -78000.600799 kJ/mol
# GULP energy per Si atom -5571.471486 kJ/mol
# Density = 2.201132 g / cm^3
# Si number density = 22.061533 Si / 1000 Ang^3
#
#
#
# Elastic Constant Matrix: (Units=GPa)
#
#
# Indices 1 2 3 4 5 6 
#
# 1 50.7764 7.0292 10.9025 -1.9334 0.7349 6.3677
# 2 7.0292 67.6353 27.5800 -19.8254 -5.3702 12.6331
# 3 10.9025 27.5800 114.7099 -6.5937 16.2000 -9.5748
# 4 -1.9334 -19.8254 -6.5937 34.5194 0.5294 5.7741
# 5 0.7349 -5.3702 16.2000 0.5294 23.3238 -3.7554
# 6 6.3677 12.6331 -9.5748 5.7741 -3.7554 23.1289
#
#
#
# Elastic Compliance Matrix: (Units=1/GPa)
#
#
# Indices 1 2 3 4 5 6 
#
# 1 0.021310 0.001471 -0.002968 0.002902 0.000282 -0.008577
# 2 0.001471 0.028895 -0.009200 0.018669 0.008834 -0.023223
# 3 -0.002968 -0.009200 0.013174 -0.004620 -0.009309 0.010938
# 4 0.002902 0.018669 -0.004620 0.042803 0.002717 -0.023153
# 5 0.000282 0.008834 -0.009309 0.002717 0.051121 -0.001134
# 6 -0.008577 -0.023223 0.010938 -0.023153 -0.001134 0.068406
#
#
# Mechanical properties :
#
#
# Convention : Reuss Voigt Hill
#
# Bulk Modulus (GPa) = 23.81840 36.01611 29.91725
# Shear Modulus (GPa) = 19.14990 28.70175 23.92583
#
# Velocity S-wave (km/s) = 2.94942 3.61083 3.29675
# Velocity P-wave (km/s) = 4.73482 5.80903 5.29922
#
# Compressibility (1/GPa) = 0.04198435
#
# Stress axis : x y z
#
# Youngs Moduli (GPa) = 46.92645 34.60778 75.90858
#
# Poissons Ratio (x) = -0.05089 0.22529
# Poissons Ratio (y) = -0.06901 0.69836
# Poissons Ratio (z) = 0.13927 0.31839
#
# Static dielectric constant tensor:
#      x y z
#    x 1.902630 -0.001740 0.029270 
#    y -0.001740 1.940790 -0.037260 
#    z 0.029270 -0.037260 1.857450 
# 
# From -- ./inp_files/64416.got.cif
#   From: 2010.05.17/outbox.cif.g08.bks.cpg/sg2_33_cif.got.tgz:64416.got - 2010.06.03 11:33:40.
