data_PCOD9001583
_publ_section_title
;
Structure prediction by ZEFSAII (Michael W. Deem and Ramdas Pophale) SiO2 
 PCOD9001583
Probable space group: P -1
;
_chemical_formula_sum "Si O2"
_cell_formula_units_Z 14
_cell_length_a 21.131648
_cell_length_b 12.134632
_cell_length_c 17.864222
_cell_angle_alpha 30.026611
_cell_angle_beta 162.436769
_cell_angle_gamma 150.254041
_cell_volume 663.339476
_symmetry_space_group_name_H-M "P -1"
_symmetry_group_IT_number 2
_symmetry_cell_setting 'triclinic'
loop_
_space_group_symop_operation_xyz
x,y,z
-x,-y,-z
loop_
_atom_site_type_symbol
_atom_site_label
_atom_site_fract_x
_atom_site_fract_y
_atom_site_fract_z
Si Si1 0.610879 0.500609 0.244971
Si Si2 0.925373 0.305113 0.802102
Si Si3 0.617366 0.852558 0.925709
Si Si4 0.137438 0.485457 0.088202
Si Si5 0.794770 0.789916 0.949968
Si Si6 0.551729 0.847884 0.358584
Si Si7 0.959053 0.228907 0.620339
O O1 0.821419 0.476918 0.539300
O O2 0.628737 0.744607 0.084300
O O3 0.404875 0.398885 0.126833
O O4 0.559933 0.328513 0.217447
O O5 0.765897 0.044797 0.769391
O O6 0.978675 0.387061 0.898219
O O7 0.141748 0.285173 0.014682
O O8 0.849177 0.860119 0.147578
O O9 0.549804 0.086506 0.716613
O O10 0.321702 0.722895 0.133114
O O11 0.293063 0.318107 0.372429
O O12 0.000000 0.500000 0.000000
O O13 0.007154 0.816107 0.227642
O O14 0.733533 0.092065 0.408094
O O15 0.000000 0.500000 0.500000
#
# Coordination Sequence:
#
# PCOD9001583 Si02
#       7
#     2   2   2   2   2   2   2
#     4  10  21  36  62  95 127 163 193 266 319 375
#     4  11  22  39  58  90 128 161 210 260 314 374
#     4  10  21  37  63  96 125 160 212 249 324 375
#     4  11  26  43  62  88 123 176 220 256 303 376
#     4  10  21  35  58  94 126 160 199 260 326 367
#     4  11  22  40  63  86 124 166 211 262 303 368
#     4  11  20  37  64  97 129 161 206 264 312 376
#
# _framework density 21.105333999999999
#
# number of rings (size 3 to 8) (size 9 to 14) (size 15 to 20)
#    0.000    1.429    1.429    5.571    4.000    2.286 
#    0.000    0.714    0.000    6.857    0.000    0.000 
#    0.000    0.000    0.000    0.000    0.000    0.000 
#
# Total GULP energy -78016.650088 kJ/mol
# GULP energy per Si atom -5572.617863 kJ/mol
# Density = 2.105730 g / cm^3
# Si number density = 21.105334 Si / 1000 Ang^3
#
#
#
# Elastic Constant Matrix: (Units=GPa)
#
#
# Indices 1 2 3 4 5 6 
#
# 1 118.6092 29.1422 45.1609 -4.2823 11.7703 -13.8091
# 2 29.1422 84.3084 17.1258 9.0196 12.1298 1.1357
# 3 45.1609 17.1258 103.6117 -0.0104 18.2753 -12.6066
# 4 -4.2823 9.0196 -0.0104 25.8146 1.3017 3.3940
# 5 11.7703 12.1298 18.2753 1.3017 32.6635 -4.0348
# 6 -13.8091 1.1357 -12.6066 3.3940 -4.0348 29.3770
#
#
#
# Elastic Compliance Matrix: (Units=1/GPa)
#
#
# Indices 1 2 3 4 5 6 
#
# 1 0.011263 -0.003386 -0.003878 0.002617 -0.000314 0.003416
# 2 -0.003386 0.014259 -0.000474 -0.005046 -0.003892 -0.002298
# 3 -0.003878 -0.000474 0.012691 -0.000609 -0.005131 0.003007
# 4 0.002617 -0.005046 -0.000609 0.041469 -0.000843 -0.003743
# 5 -0.000314 -0.003892 -0.005131 -0.000843 0.035420 0.002763
# 6 0.003416 -0.002298 0.003007 -0.003743 0.002763 0.037837
#
#
# Mechanical properties :
#
#
# Convention : Reuss Voigt Hill
#
# Bulk Modulus (GPa) = 43.98522 54.37634 49.18078
# Shear Modulus (GPa) = 28.40991 31.91105 30.16048
#
# Velocity S-wave (km/s) = 3.67291 3.89265 3.78437
# Velocity P-wave (km/s) = 6.23482 6.78409 6.51525
#
# Compressibility (1/GPa) = 0.02273491
#
# Stress axis : x y z
#
# Youngs Moduli (GPa) = 88.78657 70.13210 78.79510
#
# Poissons Ratio (x) = 0.23748 0.30559
# Poissons Ratio (y) = 0.30065 0.03739
# Poissons Ratio (z) = 0.34434 0.03328
#
# Static dielectric constant tensor:
#      x y z
#    x 1.794450 0.027510 0.037930 
#    y 0.027510 1.859790 -0.021360 
#    z 0.037930 -0.021360 1.809510 
# 
# From -- ./inp_files/577937.got.cif
#   From: 2010.05.17/outbox.cif.g08.bks.cpg/sg2_289_cif.got.tgz:577937.got - 2010.06.03 11:33:40.
