data_PCOD9001872
_publ_section_title
;
Structure prediction by ZEFSAII (Michael W. Deem and Ramdas Pophale) SiO2 
 PCOD9001872
Probable space group: P -1
;
_chemical_formula_sum "Si O2"
_cell_formula_units_Z 16
_cell_length_a 29.307688
_cell_length_b 5.113571
_cell_length_c 7.927861
_cell_angle_alpha 109.433046
_cell_angle_beta 35.899670
_cell_angle_gamma 100.928060
_cell_volume 650.088765
_symmetry_space_group_name_H-M "P -1"
_symmetry_group_IT_number 2
_symmetry_cell_setting 'triclinic'
loop_
_space_group_symop_operation_xyz
x,y,z
-x,-y,-z
loop_
_atom_site_type_symbol
_atom_site_label
_atom_site_fract_x
_atom_site_fract_y
_atom_site_fract_z
Si Si1 0.658512 0.156136 0.339970
Si Si2 0.823539 0.719682 0.122865
Si Si3 0.044613 0.382831 0.068165
Si Si4 0.744866 0.561610 0.976298
Si Si5 0.426862 0.413122 0.890451
Si Si6 0.500386 0.913094 0.727417
Si Si7 0.898864 0.248347 0.307576
Si Si8 0.267438 0.676175 0.494578
O O1 0.674712 0.394784 0.211423
O O2 0.687292 0.248025 0.454401
O O3 0.712841 0.866080 0.065831
O O4 0.572208 0.072960 0.594516
O O5 0.915119 0.630941 0.872387
O O6 0.792348 0.617830 0.017928
O O7 0.808939 0.378732 0.630332
O O8 0.793350 0.048264 0.299643
O O9 0.065998 0.638026 0.945396
O O10 0.086322 0.087081 0.799049
O O11 0.953068 0.363487 0.314449
O O12 0.779457 0.571979 0.368569
O O13 0.474782 0.661095 0.857499
O O14 0.470736 0.249840 0.566627
O O15 0.427839 0.162109 0.968183
O O16 0.340299 0.561991 0.132708
#
# Coordination Sequence:
#
# PCOD9001872 Si02
#       8
#     2   2   2   2   2   2   2   2
#     4  10  21  36  55  80 108 140 181 225 268 320
#     4  10  21  37  56  81 112 144 182 225 269 322
#     4  10  21  37  57  83 113 144 182 225 268 320
#     4  10  21  37  56  81 112 144 182 225 269 322
#     4  10  21  36  53  76 106 139 178 222 268 321
#     4  10  21  36  53  76 106 139 178 222 268 321
#     4  10  21  37  57  83 113 144 182 225 268 320
#     4  10  21  36  55  80 108 140 181 225 268 320
#
# _framework density 24.612022
#
# number of rings (size 3 to 8) (size 9 to 14) (size 15 to 20)
#    0.000    2.000    0.000    3.000    0.000    4.500 
#    0.000    0.000    0.000    9.000    0.000    0.000 
#    0.000    0.000    0.000    0.000    0.000    0.000 
#
# Total GULP energy -89487.913371 kJ/mol
# GULP energy per Si atom -5592.994586 kJ/mol
# Density = 2.455600 g / cm^3
# Si number density = 24.612022 Si / 1000 Ang^3
#
#
#
# Elastic Constant Matrix: (Units=GPa)
#
#
# Indices 1 2 3 4 5 6 
#
# 1 68.2230 12.8910 -6.9234 -1.6060 -11.6290 10.7769
# 2 12.8910 130.9050 12.9705 1.1674 4.1198 -1.7322
# 3 -6.9234 12.9705 69.1368 13.7154 -11.8436 0.9327
# 4 -1.6060 1.1674 13.7154 15.8941 1.8410 -13.3136
# 5 -11.6290 4.1198 -11.8436 1.8410 39.3605 1.8687
# 6 10.7769 -1.7322 0.9327 -13.3136 1.8687 35.2954
#
#
#
# Elastic Compliance Matrix: (Units=1/GPa)
#
#
# Indices 1 2 3 4 5 6 
#
# 1 0.019277 -0.002974 0.007532 -0.016223 0.009643 -0.012861
# 2 -0.002974 0.008393 -0.003626 0.005739 -0.003295 0.003755
# 3 0.007532 -0.003626 0.025957 -0.038178 0.013068 -0.018256
# 4 -0.016223 0.005739 -0.038178 0.151101 -0.027019 0.064671
# 5 0.009643 -0.003295 0.013068 -0.027019 0.034530 -0.015471
# 6 -0.012861 0.003755 -0.018256 0.064671 -0.015471 0.058139
#
#
# Mechanical properties :
#
#
# Convention : Reuss Voigt Hill
#
# Bulk Modulus (GPa) = 18.02036 34.01565 26.01800
# Shear Modulus (GPa) = 15.92196 34.73178 25.32687
#
# Velocity S-wave (km/s) = 2.54622 3.76063 3.21135
# Velocity P-wave (km/s) = 3.99775 5.71902 4.93402
#
# Compressibility (1/GPa) = 0.05549280
#
# Stress axis : x y z
#
# Youngs Moduli (GPa) = 51.87419 119.14061 38.52489
#
# Poissons Ratio (x) = 0.35428 -0.29017
# Poissons Ratio (y) = 0.15426 0.13969
# Poissons Ratio (z) = -0.39072 0.43201
#
# Static dielectric constant tensor:
#      x y z
#    x 2.074710 0.022040 -0.002390 
#    y 0.022040 1.864670 -0.006750 
#    z -0.002390 -0.006750 1.923860 
# 
# From -- ./inp_files/358120.got.cif
#   From: 2010.05.17/outbox.cif.g08.bks.cpg/sg2_180_cif.got.tgz:358120.got - 2010.06.03 11:33:40.
