data_PCOD9001976
_publ_section_title
;
Structure prediction by ZEFSAII (Michael W. Deem and Ramdas Pophale) SiO2 
 PCOD9001976
Probable space group: P -1
;
_chemical_formula_sum "Si O2"
_cell_formula_units_Z 14
_cell_length_a 13.041449
_cell_length_b 12.072843
_cell_length_c 10.835842
_cell_angle_alpha 82.557736
_cell_angle_beta 119.611709
_cell_angle_gamma 148.786825
_cell_volume 583.814071
_symmetry_space_group_name_H-M "P -1"
_symmetry_group_IT_number 2
_symmetry_cell_setting 'triclinic'
loop_
_space_group_symop_operation_xyz
x,y,z
-x,-y,-z
loop_
_atom_site_type_symbol
_atom_site_label
_atom_site_fract_x
_atom_site_fract_y
_atom_site_fract_z
Si Si1 0.367293 0.231871 0.982167
Si Si2 0.896152 0.791499 0.081351
Si Si3 0.475089 0.588554 0.309946
Si Si4 0.706899 0.983205 0.540652
Si Si5 0.142573 0.530065 0.410225
Si Si6 0.752672 0.372786 0.265403
Si Si7 0.123074 0.254932 0.407414
O O1 0.676870 0.563532 0.095989
O O2 0.172101 0.135452 0.974603
O O3 0.462542 0.190667 0.082497
O O4 0.186100 0.068884 0.770714
O O5 0.763611 0.611988 0.912001
O O6 0.206817 0.020032 0.287824
O O7 0.292246 0.411184 0.353570
O O8 0.682870 0.660164 0.407866
O O9 0.667188 0.864801 0.418939
O O10 0.959879 0.295433 0.627924
O O11 0.389051 0.759925 0.418251
O O12 0.273461 0.680286 0.598897
O O13 0.085965 0.348867 0.414348
O O14 0.844974 0.344321 0.246590
#
# Coordination Sequence:
#
# PCOD9001976 Si02
#       7
#     2   2   2   2   2   2   2
#     4  10  21  36  55  87 118 147 194 241 285 349
#     4  10  21  36  58  88 117 150 188 237 299 346
#     4  10  21  36  58  88 117 150 188 237 299 346
#     4  10  21  40  62  88 117 150 196 244 282 350
#     4  10  22  39  60  84 114 159 198 235 290 340
#     4  10  22  39  60  84 114 159 198 235 290 340
#     4  10  21  36  55  87 118 147 194 241 285 349
#
# _framework density 23.980239000000001
#
# number of rings (size 3 to 8) (size 9 to 14) (size 15 to 20)
#    0.000    2.000    1.429    1.286    4.000    1.714 
#    0.000    0.000    0.000    4.286    0.000    0.000 
#    0.000    0.000    0.000    0.000    0.000    0.000 
#
# Total GULP energy -78239.615429 kJ/mol
# GULP energy per Si atom -5588.543959 kJ/mol
# Density = 2.392566 g / cm^3
# Si number density = 23.980239 Si / 1000 Ang^3
#
#
#
# Elastic Constant Matrix: (Units=GPa)
#
#
# Indices 1 2 3 4 5 6 
#
# 1 156.5171 12.2420 46.1152 -7.5258 14.8893 -14.4330
# 2 12.2420 61.3581 -8.0242 9.5984 3.4446 -3.8201
# 3 46.1152 -8.0242 98.7160 -11.6228 -3.5521 -6.8616
# 4 -7.5258 9.5984 -11.6228 30.5864 -6.5963 -2.2087
# 5 14.8893 3.4446 -3.5521 -6.5963 37.6562 -2.1038
# 6 -14.4330 -3.8201 -6.8616 -2.2087 -2.1038 24.0612
#
#
#
# Elastic Compliance Matrix: (Units=1/GPa)
#
#
# Indices 1 2 3 4 5 6 
#
# 1 0.008313 -0.001888 -0.003827 0.000748 -0.003155 0.003388
# 2 -0.001888 0.017979 0.001721 -0.005696 -0.001647 0.001546
# 3 -0.003827 0.001721 0.012853 0.004317 0.003455 0.002341
# 4 0.000748 -0.005696 0.004317 0.038308 0.007620 0.004958
# 5 -0.003155 -0.001647 0.003455 0.007620 0.029734 0.002131
# 6 0.003388 0.001546 0.002341 0.004958 0.002131 0.045148
#
#
# Mechanical properties :
#
#
# Convention : Reuss Voigt Hill
#
# Bulk Modulus (GPa) = 32.09502 46.36191 39.22846
# Shear Modulus (GPa) = 29.28988 36.21132 32.75060
#
# Velocity S-wave (km/s) = 3.49867 3.89015 3.69959
# Velocity P-wave (km/s) = 5.45288 6.28912 5.88587
#
# Compressibility (1/GPa) = 0.03115748
#
# Stress axis : x y z
#
# Youngs Moduli (GPa) = 120.29747 55.61950 77.80332
#
# Poissons Ratio (x) = 0.10501 0.29773
# Poissons Ratio (y) = 0.22711 -0.13389
# Poissons Ratio (z) = 0.46034 -0.09572
#
# Static dielectric constant tensor:
#      x y z
#    x 1.962660 0.000400 0.046790 
#    y 0.000400 2.017460 -0.020290 
#    z 0.046790 -0.020290 1.895410 
# 
# From -- ./inp_files/172144.got.cif
#   From: 2010.05.17/outbox.cif.g08.bks.cpg/sg2_87_cif.got.tgz:172144.got - 2010.06.03 11:33:40.
