data_PCOD9001096
_publ_section_title
;
Structure prediction by ZEFSAII (Michael W. Deem and Ramdas Pophale) SiO2 
 PCOD9001096
Probable space group: P -1
;
_chemical_formula_sum "Si O2"
_cell_formula_units_Z 16
_cell_length_a 16.998007
_cell_length_b 15.111051
_cell_length_c 12.574556
_cell_angle_alpha 38.639393
_cell_angle_beta 139.943429
_cell_angle_gamma 159.834610
_cell_volume 687.427500
_symmetry_space_group_name_H-M "P -1"
_symmetry_group_IT_number 2
_symmetry_cell_setting 'triclinic'
loop_
_space_group_symop_operation_xyz
x,y,z
-x,-y,-z
loop_
_atom_site_type_symbol
_atom_site_label
_atom_site_fract_x
_atom_site_fract_y
_atom_site_fract_z
Si Si1 0.778868 0.373886 0.751200
Si Si2 0.759235 0.650024 0.178938
Si Si3 0.701137 0.075214 0.206785
Si Si4 0.787125 0.687563 0.558247
Si Si5 0.413716 0.490799 0.079998
Si Si6 0.220373 0.018600 0.416186
Si Si7 0.525763 0.136005 0.493256
Si Si8 0.498270 0.673239 0.211361
O O1 0.795650 0.561126 0.608824
O O2 0.697180 0.263816 0.648808
O O3 0.050775 0.596783 0.843322
O O4 0.552799 0.113775 0.837933
O O5 0.637889 0.675670 0.067614
O O6 0.606278 0.360273 0.311198
O O7 0.972010 0.828226 0.306457
O O8 0.789433 0.685373 0.049817
O O9 0.740147 0.990639 0.414843
O O10 0.662052 0.950933 0.173848
O O11 0.604795 0.623008 0.388961
O O12 0.727711 0.557385 0.732436
O O13 0.000000 0.000000 0.500000
O O14 0.449737 0.641952 0.066134
O O15 0.370330 0.300329 0.273274
O O16 0.290031 0.949550 0.483843
O O17 0.500000 0.000000 0.500000
#
# Coordination Sequence:
#
# PCOD9001096 Si02
#       8
#     2   2   2   2   2   2   2   2
#     4  10  19  33  48  77 109 139 173 228 286 330
#     4  10  20  37  51  73 111 147 190 221 274 334
#     4  10  19  32  51  75 113 142 176 230 280 335
#     4  10  17  27  44  69 108 140 173 221 272 328
#     4  10  21  32  51  76 110 156 180 219 266 342
#     4  10  19  34  53  76 110 140 181 228 286 331
#     4  10  21  36  56  79 104 139 188 241 285 325
#     4  10  19  27  42  74 105 140 182 213 268 330
#
# _framework density 23.275182000000001
#
# number of rings (size 3 to 8) (size 9 to 14) (size 15 to 20)
#    0.000    2.000    2.500    4.125    0.000    0.500 
#    0.000    0.000    0.000    0.000    0.000    8.750 
#    0.000    0.000    0.000    0.000    0.000    0.000 
#
# Total GULP energy -89179.074765 kJ/mol
# GULP energy per Si atom -5573.692173 kJ/mol
# Density = 2.322221 g / cm^3
# Si number density = 23.275182 Si / 1000 Ang^3
#
#
#
# Elastic Constant Matrix: (Units=GPa)
#
#
# Indices 1 2 3 4 5 6 
#
# 1 93.6399 57.6931 26.4927 16.1529 -18.4778 -28.0003
# 2 57.6931 105.0358 17.1742 19.8718 -11.7763 -4.0802
# 3 26.4927 17.1742 47.1475 0.9372 -10.2233 -14.4417
# 4 16.1529 19.8718 0.9372 16.0973 -5.7572 -11.9349
# 5 -18.4778 -11.7763 -10.2233 -5.7572 35.0364 11.9448
# 6 -28.0003 -4.0802 -14.4417 -11.9349 11.9448 43.4073
#
#
#
# Elastic Compliance Matrix: (Units=1/GPa)
#
#
# Indices 1 2 3 4 5 6 
#
# 1 0.022692 -0.011064 -0.004554 0.000748 0.003149 0.011422
# 2 -0.011064 0.020341 -0.004750 -0.023526 0.000304 -0.013358
# 3 -0.004554 -0.004750 0.029084 0.017602 0.003956 0.010043
# 4 0.000748 -0.023526 0.017602 0.117076 0.004943 0.034957
# 5 0.003149 0.000304 0.003956 0.004943 0.033831 -0.004574
# 6 0.011422 -0.013358 0.010043 0.034957 -0.004574 0.043361
#
#
# Mechanical properties :
#
#
# Convention : Reuss Voigt Hill
#
# Bulk Modulus (GPa) = 31.86847 49.83814 40.85330
# Shear Modulus (GPa) = 15.74396 28.53909 22.14152
#
# Velocity S-wave (km/s) = 2.60364 3.50545 3.08765
# Velocity P-wave (km/s) = 4.77078 6.15169 5.50471
#
# Compressibility (1/GPa) = 0.03137898
#
# Stress axis : x y z
#
# Youngs Moduli (GPa) = 44.06773 49.16243 34.38347
#
# Poissons Ratio (x) = 0.54395 0.15659
# Poissons Ratio (y) = 0.48758 0.16333
# Poissons Ratio (z) = 0.20069 0.23354
#
# Static dielectric constant tensor:
#      x y z
#    x 1.990890 0.089430 -0.047820 
#    y 0.089430 1.956510 -0.004150 
#    z -0.047820 -0.004150 1.906880 
# 
# From -- ./inp_files/75731.got.cif
#   From: 2010.05.17/outbox.cif.g08.bks.cpg/sg2_38_cif.got.tgz:75731.got - 2010.06.03 11:33:40.
