data_PCOD9001136
_publ_section_title
;
Structure prediction by ZEFSAII (Michael W. Deem and Ramdas Pophale) SiO2 
 PCOD9001136
Probable space group: P -1
;
_chemical_formula_sum "Si O2"
_cell_formula_units_Z 10
_cell_length_a 9.534153
_cell_length_b 9.332301
_cell_length_c 5.205590
_cell_angle_alpha 78.509645
_cell_angle_beta 107.624121
_cell_angle_gamma 115.598858
_cell_volume 396.838343
_symmetry_space_group_name_H-M "P -1"
_symmetry_group_IT_number 2
_symmetry_cell_setting 'triclinic'
loop_
_space_group_symop_operation_xyz
x,y,z
-x,-y,-z
loop_
_atom_site_type_symbol
_atom_site_label
_atom_site_fract_x
_atom_site_fract_y
_atom_site_fract_z
Si Si1 0.691334 0.574528 0.632383
Si Si2 0.371448 0.735657 0.012259
Si Si3 0.268430 0.229981 0.899211
Si Si4 0.850549 0.129998 0.993447
Si Si5 0.904804 0.316463 0.451968
O O1 0.500000 0.500000 0.500000
O O2 0.721328 0.425055 0.815308
O O3 0.727407 0.698954 0.841882
O O4 0.763743 0.661201 0.374666
O O5 0.329480 0.872518 0.074754
O O6 0.552718 0.759591 0.068843
O O7 0.280873 0.710707 0.698268
O O8 0.156749 0.043746 0.898151
O O9 0.910732 0.203645 0.725083
O O10 0.943581 0.254738 0.222987
O O11 0.000000 0.500000 0.500000
#
# Coordination Sequence:
#
# PCOD9001136 Si02
#       5
#     2   2   2   2   2
#     4  10  21  34  53  81 120 148 171 210 275 341
#     4   9  22  33  60  81 112 144 184 213 273 326
#     4  11  21  35  55  87 118 137 173 225 281 327
#     4  10  22  35  59  81 111 140 183 231 272 308
#     4  10  22  37  58  80 106 144 192 227 262 316
#
# _framework density 25.199178
#
# number of rings (size 3 to 8) (size 9 to 14) (size 15 to 20)
#    1.200    0.800    0.000    4.800    8.400    0.800 
#    0.000    0.000    0.000    7.200    0.000    0.000 
#    0.000    0.000    0.000    0.000    0.000    0.000 
#
# Total GULP energy -55985.826180 kJ/mol
# GULP energy per Si atom -5598.582618 kJ/mol
# Density = 2.514182 g / cm^3
# Si number density = 25.199178 Si / 1000 Ang^3
#
#
#
# Elastic Constant Matrix: (Units=GPa)
#
#
# Indices 1 2 3 4 5 6 
#
# 1 101.1743 8.2820 20.4553 -4.9337 -8.2074 -3.5105
# 2 8.2820 159.3090 81.8298 -25.0772 -0.5644 -18.5310
# 3 20.4553 81.8298 197.9515 -6.5831 -15.3450 -1.4565
# 4 -4.9337 -25.0772 -6.5831 41.1187 2.7938 -0.5879
# 5 -8.2074 -0.5644 -15.3450 2.7938 42.2417 -1.2156
# 6 -3.5105 -18.5310 -1.4565 -0.5879 -1.2156 33.1628
#
#
#
# Elastic Compliance Matrix: (Units=1/GPa)
#
#
# Indices 1 2 3 4 5 6 
#
# 1 0.010297 0.000341 -0.001032 0.001189 0.001589 0.001314
# 2 0.000341 0.009795 -0.003973 0.005555 -0.001459 0.005380
# 3 -0.001032 -0.003973 0.006911 -0.001626 0.002308 -0.001970
# 4 0.001189 0.005555 -0.001626 0.027778 -0.002020 0.003577
# 5 0.001589 -0.001459 0.002308 -0.002020 0.024944 0.000333
# 6 0.001314 0.005380 -0.001970 0.003577 0.000333 0.033289
#
#
# Mechanical properties :
#
#
# Convention : Reuss Voigt Hill
#
# Bulk Modulus (GPa) = 56.58092 75.50770 66.04431
# Shear Modulus (GPa) = 38.99056 46.49581 42.74319
#
# Velocity S-wave (km/s) = 3.93783 4.30016 4.12298
# Velocity P-wave (km/s) = 6.57097 7.39490 6.99508
#
# Compressibility (1/GPa) = 0.01767380
#
# Stress axis : x y z
#
# Youngs Moduli (GPa) = 97.11283 102.09021 144.69236
#
# Poissons Ratio (x) = -0.03478 0.14939
# Poissons Ratio (y) = -0.03308 0.57489
# Poissons Ratio (z) = 0.10027 0.40562
#
# Static dielectric constant tensor:
#      x y z
#    x 2.129760 0.035670 -0.010970 
#    y 0.035670 1.912570 -0.000290 
#    z -0.010970 -0.000290 1.910050 
# 
# From -- ./inp_files/15664.got.cif
#   From: 2010.05.17/outbox.cif.g08.bks.cpg/sg2_8_cif.got.tgz:15664.got - 2010.06.03 11:33:40.
