data_PCOD9001611
_publ_section_title
;
Structure prediction by ZEFSAII (Michael W. Deem and Ramdas Pophale) SiO2 
 PCOD9001611
Probable space group: P -1
;
_chemical_formula_sum "Si O2"
_cell_formula_units_Z 16
_cell_length_a 13.704818
_cell_length_b 14.201802
_cell_length_c 14.091644
_cell_angle_alpha 149.790823
_cell_angle_beta 138.943213
_cell_angle_gamma 29.705904
_cell_volume 683.797819
_symmetry_space_group_name_H-M "P -1"
_symmetry_group_IT_number 2
_symmetry_cell_setting 'triclinic'
loop_
_space_group_symop_operation_xyz
x,y,z
-x,-y,-z
loop_
_atom_site_type_symbol
_atom_site_label
_atom_site_fract_x
_atom_site_fract_y
_atom_site_fract_z
Si Si1 0.073698 0.896697 0.569336
Si Si2 0.368294 0.333022 0.337767
Si Si3 0.249909 0.134134 0.708781
Si Si4 0.909088 0.991205 0.024011
Si Si5 0.245001 0.338454 0.610649
Si Si6 0.941536 0.711251 0.979197
Si Si7 0.094603 0.624687 0.563619
Si Si8 0.538101 0.124265 0.776320
O O1 0.275110 0.604903 0.465830
O O2 0.900036 0.893742 0.470606
O O3 0.078251 0.090744 0.796172
O O4 0.000000 0.000000 0.500000
O O5 0.273780 0.418628 0.449272
O O6 0.601036 0.097923 0.311382
O O7 0.256994 0.249749 0.135222
O O8 0.405715 0.105168 0.729030
O O9 0.109667 0.425724 0.889103
O O10 0.687457 0.122428 0.944427
O O11 0.925931 0.138682 0.243084
O O12 0.977723 0.758816 0.938363
O O13 0.000000 0.000000 0.000000
O O14 0.133166 0.553841 0.640931
O O15 0.387316 0.345476 0.785402
O O16 0.097881 0.335996 0.562103
O O17 0.347162 0.104209 0.411668
#
# Coordination Sequence:
#
# PCOD9001611 Si02
#       8
#     2   2   2   2   2   2   2   2
#     4  11  27  50  78 108 135 175 233 295 365 435
#     4  11  23  47  72 103 144 187 228 286 363 424
#     4  11  25  44  72 103 142 181 228 288 360 424
#     4  12  24  39  62  99 139 190 244 281 334 401
#     4  10  21  35  59  90 135 186 243 288 331 393
#     4  11  25  46  71 102 148 183 232 292 354 419
#     4  11  21  39  64  93 139 195 234 287 345 398
#     4  11  22  38  57  94 135 182 237 282 337 400
#
# _framework density 23.39873
#
# number of rings (size 3 to 8) (size 9 to 14) (size 15 to 20)
#    0.000    1.000    5.000    1.500    3.500    5.000 
#    0.000    1.250    0.000    0.000    0.000    0.000 
#    0.000    0.000    0.000    0.000    0.000    0.000 
#
# Total GULP energy -89192.741618 kJ/mol
# GULP energy per Si atom -5574.546351 kJ/mol
# Density = 2.334547 g / cm^3
# Si number density = 23.398730 Si / 1000 Ang^3
#
#
#
# Elastic Constant Matrix: (Units=GPa)
#
#
# Indices 1 2 3 4 5 6 
#
# 1 58.9177 18.2798 22.3259 -6.9495 2.3480 7.4368
# 2 18.2798 150.7240 56.2588 -3.8834 10.2207 10.5699
# 3 22.3259 56.2588 181.5417 -5.2934 14.5169 3.5961
# 4 -6.9495 -3.8834 -5.2934 26.9906 3.3470 2.6209
# 5 2.3480 10.2207 14.5169 3.3470 19.1284 -4.8950
# 6 7.4368 10.5699 3.5961 2.6209 -4.8950 32.3967
#
#
#
# Elastic Compliance Matrix: (Units=1/GPa)
#
#
# Indices 1 2 3 4 5 6 
#
# 1 0.019232 -0.001098 -0.001559 0.005284 -0.002724 -0.004722
# 2 -0.001098 0.007964 -0.001960 0.001187 -0.003547 -0.002761
# 3 -0.001559 -0.001960 0.006684 0.001189 -0.004162 -0.000470
# 4 0.005284 0.001187 0.001189 0.040835 -0.011046 -0.006705
# 5 -0.002724 -0.003547 -0.004162 -0.011046 0.062832 0.012632
# 6 -0.004722 -0.002761 -0.000470 -0.006705 0.012632 0.035355
#
#
# Mechanical properties :
#
#
# Convention : Reuss Voigt Hill
#
# Bulk Modulus (GPa) = 40.57575 64.99029 52.78302
# Shear Modulus (GPa) = 26.26675 35.32439 30.79557
#
# Velocity S-wave (km/s) = 3.35411 3.88966 3.63177
# Velocity P-wave (km/s) = 5.69023 6.92879 6.33983
#
# Compressibility (1/GPa) = 0.02464526
#
# Stress axis : x y z
#
# Youngs Moduli (GPa) = 51.99544 125.56241 149.60243
#
# Poissons Ratio (x) = 0.13792 0.23329
# Poissons Ratio (y) = 0.05711 0.29323
# Poissons Ratio (z) = 0.08108 0.24611
#
# Static dielectric constant tensor:
#      x y z
#    x 1.959510 0.012130 0.000620 
#    y 0.012130 2.080740 0.085870 
#    z 0.000620 0.085870 1.888060 
# 
# From -- ./inp_files/533926.got.cif
#   From: 2010.05.17/outbox.cif.g08.bks.cpg/sg2_267_cif.got.tgz:533926.got - 2010.06.03 11:33:40.
