data_PCOD9001592
_publ_section_title
;
Structure prediction by ZEFSAII (Michael W. Deem and Ramdas Pophale) SiO2 
 PCOD9001592
Probable space group: P -1
;
_chemical_formula_sum "Si O2"
_cell_formula_units_Z 12
_cell_length_a 5.313174
_cell_length_b 9.196615
_cell_length_c 14.984167
_cell_angle_alpha 65.996010
_cell_angle_beta 57.786547
_cell_angle_gamma 80.057960
_cell_volume 564.969761
_symmetry_space_group_name_H-M "P -1"
_symmetry_group_IT_number 2
_symmetry_cell_setting 'triclinic'
loop_
_space_group_symop_operation_xyz
x,y,z
-x,-y,-z
loop_
_atom_site_type_symbol
_atom_site_label
_atom_site_fract_x
_atom_site_fract_y
_atom_site_fract_z
Si Si1 0.794021 0.210682 0.722615
Si Si2 0.596865 0.605785 0.370838
Si Si3 0.693691 0.363592 0.040340
Si Si4 0.839564 0.845415 0.825902
Si Si5 0.258855 0.108152 0.972312
Si Si6 0.830551 0.456178 0.192577
O O1 0.664081 0.278330 0.637914
O O2 0.492292 0.209408 0.840574
O O3 0.078530 0.308759 0.687397
O O4 0.895791 0.028690 0.743966
O O5 0.500000 0.500000 0.500000
O O6 0.636650 0.495515 0.303713
O O7 0.507923 0.198039 0.112010
O O8 0.705733 0.416786 0.127576
O O9 0.037174 0.614491 0.087055
O O10 0.500000 0.500000 0.000000
O O11 0.004196 0.707353 0.778245
O O12 0.887427 0.816369 0.930422
O O13 0.500000 0.000000 0.000000
O O14 0.000000 0.000000 0.000000
#
# Coordination Sequence:
#
# PCOD9001592 Si02
#       6
#     2   2   2   2   2   2
#     4  11  25  44  69  97 135 174 228 281 337 391
#     4  12  28  49  68  93 131 185 238 284 333 389
#     4   9  20  37  62 100 139 169 212 257 350 409
#     4  10  22  38  65 100 134 169 215 272 335 412
#     4  10  21  35  59 101 140 165 194 259 344 406
#     4  10  23  39  68  93 138 178 220 267 333 410
#
# _framework density 21.240075000000001
#
# number of rings (size 3 to 8) (size 9 to 14) (size 15 to 20)
#    0.000    1.667    0.000    3.500   18.667    0.000 
#    0.000    1.667    0.000    0.000    0.000    0.000 
#    0.000    0.000    0.000    0.000    0.000    0.000 
#
# Total GULP energy -66869.374397 kJ/mol
# GULP energy per Si atom -5572.447866 kJ/mol
# Density = 2.119173 g / cm^3
# Si number density = 21.240075 Si / 1000 Ang^3
#
#
#
# Elastic Constant Matrix: (Units=GPa)
#
#
# Indices 1 2 3 4 5 6 
#
# 1 92.0238 14.5844 20.2127 -5.9318 -0.1687 11.3779
# 2 14.5844 91.5766 43.2062 -3.9876 -8.7948 -3.0665
# 3 20.2127 43.2062 116.0940 -1.6787 22.1437 -1.6028
# 4 -5.9318 -3.9876 -1.6787 26.3280 -0.8774 2.5879
# 5 -0.1687 -8.7948 22.1437 -0.8774 30.9387 -12.3793
# 6 11.3779 -3.0665 -1.6028 2.5879 -12.3793 41.5782
#
#
#
# Elastic Compliance Matrix: (Units=1/GPa)
#
#
# Indices 1 2 3 4 5 6 
#
# 1 0.012051 -0.001280 -0.001507 0.002779 -0.000671 -0.003823
# 2 -0.001280 0.016420 -0.008184 0.001615 0.012513 0.004871
# 3 -0.001507 -0.008184 0.014594 -0.000748 -0.014343 -0.003853
# 4 0.002779 0.001615 -0.000748 0.039115 0.000995 -0.002808
# 5 -0.000671 0.012513 -0.014343 0.000995 0.052636 0.016163
# 6 -0.003823 0.004871 -0.003853 -0.002808 0.016163 0.030295
#
#
# Mechanical properties :
#
#
# Convention : Reuss Voigt Hill
#
# Bulk Modulus (GPa) = 47.34097 50.63344 48.98721
# Shear Modulus (GPa) = 25.76078 34.54838 30.15458
#
# Velocity S-wave (km/s) = 3.48636 4.03745 3.77198
# Velocity P-wave (km/s) = 6.20832 6.75463 6.48723
#
# Compressibility (1/GPa) = 0.02112335
#
# Stress axis : x y z
#
# Youngs Moduli (GPa) = 82.98047 60.90043 68.52300
#
# Poissons Ratio (x) = 0.07795 0.10323
# Poissons Ratio (y) = 0.10621 0.56082
# Poissons Ratio (z) = 0.12501 0.49843
#
# Static dielectric constant tensor:
#      x y z
#    x 1.981980 -0.063170 -0.008680 
#    y -0.063170 1.902860 -0.045390 
#    z -0.008680 -0.045390 1.792780 
# 
# From -- ./inp_files/100233.got.cif
#   From: 2010.05.17/outbox.cif.g08.bks.cpg/sg2_51_cif.got.tgz:100233.got - 2010.06.03 11:33:40.
