data_PCOD9001496
_publ_section_title
;
Structure prediction by ZEFSAII (Michael W. Deem and Ramdas Pophale) SiO2 
 PCOD9001496
Probable space group: P -1
;
_chemical_formula_sum "Si O2"
_cell_formula_units_Z 16
_cell_length_a 13.223875
_cell_length_b 14.510917
_cell_length_c 13.463561
_cell_angle_alpha 56.292307
_cell_angle_beta 21.385259
_cell_angle_gamma 59.738649
_cell_volume 782.974999
_symmetry_space_group_name_H-M "P -1"
_symmetry_group_IT_number 2
_symmetry_cell_setting 'triclinic'
loop_
_space_group_symop_operation_xyz
x,y,z
-x,-y,-z
loop_
_atom_site_type_symbol
_atom_site_label
_atom_site_fract_x
_atom_site_fract_y
_atom_site_fract_z
Si Si1 0.135789 0.104837 0.376519
Si Si2 0.134937 0.045888 0.747910
Si Si3 0.176512 0.648131 0.834459
Si Si4 0.264746 0.925321 0.079007
Si Si5 0.491317 0.833439 0.522057
Si Si6 0.355780 0.308105 0.916656
Si Si7 0.196515 0.552831 0.667644
Si Si8 0.218736 0.172577 0.950378
O O1 0.889396 0.142638 0.651289
O O2 0.402905 0.075880 0.217651
O O3 0.267765 0.206800 0.130531
O O4 0.000000 0.000000 0.500000
O O5 0.354624 0.138717 0.532129
O O6 0.900988 0.092429 0.861914
O O7 0.294030 0.939245 0.625101
O O8 0.000000 0.000000 0.000000
O O9 0.364019 0.707661 0.711130
O O10 0.297294 0.576763 0.676167
O O11 0.918374 0.574079 0.156927
O O12 0.056973 0.759862 0.830847
O O13 0.194505 0.051974 0.089512
O O14 0.687229 0.835941 0.243981
O O15 0.607301 0.400512 0.627787
O O16 0.423064 0.244320 0.790691
O O17 0.084357 0.379620 0.120145
#
# Coordination Sequence:
#
# PCOD9001496 Si02
#       8
#     2   2   2   2   2   2   2   2
#     4  12  26  40  62  87 119 165 219 245 303 365
#     4  11  23  37  58  89 125 169 196 252 309 378
#     4  10  21  35  56  91 122 167 199 246 298 384
#     4  12  24  39  59  91 122 165 200 254 299 367
#     4  11  20  36  58  86 130 162 204 238 305 377
#     4  11  23  40  57  86 122 166 205 256 290 357
#     4  10  23  36  61  85 127 162 208 244 307 352
#     4  11  21  33  60  84 131 158 199 237 307 357
#
# _framework density 20.43488
#
# number of rings (size 3 to 8) (size 9 to 14) (size 15 to 20)
#    0.000    1.000    5.000    1.875    5.250    1.500 
#    0.000    0.000    0.000    0.000    0.000    5.250 
#    0.000    0.000    0.000    0.000    0.000    0.000 
#
# Total GULP energy -89131.359918 kJ/mol
# GULP energy per Si atom -5570.709995 kJ/mol
# Density = 2.038837 g / cm^3
# Si number density = 20.434880 Si / 1000 Ang^3
#
#
#
# Elastic Constant Matrix: (Units=GPa)
#
#
# Indices 1 2 3 4 5 6 
#
# 1 82.8556 18.2481 30.6869 -10.7018 -24.0310 9.5052
# 2 18.2481 52.9244 9.1904 -4.6676 -13.4080 6.5518
# 3 30.6869 9.1904 118.0218 -11.6458 -11.7506 4.0096
# 4 -10.7018 -4.6676 -11.6458 46.3301 3.9978 -3.5482
# 5 -24.0310 -13.4080 -11.7506 3.9978 35.3463 -5.0344
# 6 9.5052 6.5518 4.0096 -3.5482 -5.0344 29.7300
#
#
#
# Elastic Compliance Matrix: (Units=1/GPa)
#
#
# Indices 1 2 3 4 5 6 
#
# 1 0.016890 -0.002538 -0.003027 0.001909 0.008915 -0.002695
# 2 -0.002538 0.021744 -0.000266 0.000807 0.005938 -0.002843
# 3 -0.003027 -0.000266 0.009519 0.001601 0.000836 0.000075
# 4 0.001909 0.000807 0.001601 0.022653 -0.000188 0.001667
# 5 0.008915 0.005938 0.000836 -0.000188 0.037189 0.002004
# 6 -0.002695 -0.002843 0.000075 0.001667 0.002004 0.035652
#
#
# Mechanical properties :
#
#
# Convention : Reuss Voigt Hill
#
# Bulk Modulus (GPa) = 27.40247 41.11696 34.25971
# Shear Modulus (GPa) = 29.85567 35.32637 32.59102
#
# Velocity S-wave (km/s) = 3.82647 4.16231 3.99792
# Velocity P-wave (km/s) = 5.74119 6.57757 6.17356
#
# Compressibility (1/GPa) = 0.03649307
#
# Stress axis : x y z
#
# Youngs Moduli (GPa) = 59.20513 45.99072 105.05038
#
# Poissons Ratio (x) = 0.11671 0.31794
# Poissons Ratio (y) = 0.15024 0.02793
# Poissons Ratio (z) = 0.17919 0.01223
#
# Static dielectric constant tensor:
#      x y z
#    x 1.850070 0.007180 -0.083910 
#    y 0.007180 1.751270 -0.018820 
#    z -0.083910 -0.018820 1.872830 
# 
# From -- ./inp_files/432537.got.cif
#   From: 2010.05.17/outbox.cif.g08.bks.cpg/sg2_217_cif.got.tgz:432537.got - 2010.06.03 11:33:40.
