data_PCOD9001113
_publ_section_title
;
Structure prediction by ZEFSAII (Michael W. Deem and Ramdas Pophale) SiO2 
 PCOD9001113
Probable space group: P -1
;
_chemical_formula_sum "Si O2"
_cell_formula_units_Z 16
_cell_length_a 13.446025
_cell_length_b 12.049690
_cell_length_c 10.742473
_cell_angle_alpha 39.989776
_cell_angle_beta 32.110895
_cell_angle_gamma 52.287717
_cell_volume 591.020958
_symmetry_space_group_name_H-M "P -1"
_symmetry_group_IT_number 2
_symmetry_cell_setting 'triclinic'
loop_
_space_group_symop_operation_xyz
x,y,z
-x,-y,-z
loop_
_atom_site_type_symbol
_atom_site_label
_atom_site_fract_x
_atom_site_fract_y
_atom_site_fract_z
Si Si1 0.242114 0.617898 0.350479
Si Si2 0.379034 0.181416 0.189259
Si Si3 0.017606 0.925124 0.404469
Si Si4 0.192564 0.445027 0.786553
Si Si5 0.509705 0.754265 0.244564
Si Si6 0.397992 0.824885 0.575862
Si Si7 0.105467 0.732565 0.149904
Si Si8 0.810215 0.879034 0.175710
O O1 0.173584 0.453710 0.650323
O O2 0.171496 0.788301 0.348075
O O3 0.469269 0.661598 0.060865
O O4 0.138459 0.607612 0.336378
O O5 0.164092 0.186546 0.370845
O O6 0.375145 0.029397 0.424456
O O7 0.459609 0.132230 0.009643
O O8 0.000000 0.000000 0.500000
O O9 0.072434 0.082289 0.112266
O O10 0.371327 0.590484 0.485401
O O11 0.000000 0.500000 0.000000
O O12 0.716784 0.707957 0.107084
O O13 0.408742 0.793428 0.445014
O O14 0.236191 0.703328 0.918864
O O15 0.598358 0.803306 0.439579
O O16 0.194431 0.921131 0.946414
O O17 0.909288 0.779620 0.263767
#
# Coordination Sequence:
#
# PCOD9001113 Si02
#       8
#     2   2   2   2   2   2   2   2
#     4  10  23  38  59  83 114 155 198 235 281 350
#     4  11  21  34  57  87 121 151 178 235 297 346
#     4  11  21  31  52  87 117 149 186 229 287 345
#     4  10  22  45  63  80 110 152 194 249 298 332
#     4  10  24  38  59  90 113 144 202 240 287 356
#     4  12  21  35  59  87 124 157 179 236 294 347
#     4  10  21  36  53  85 121 160 194 222 282 350
#     4  10  21  34  51  82 127 157 191 222 273 356
#
# _framework density 27.071797
#
# number of rings (size 3 to 8) (size 9 to 14) (size 15 to 20)
#    0.000    1.500    3.750    2.250    3.500    1.000 
#    0.000    0.625    0.000    1.500    0.000    0.000 
#    0.000    0.000    0.000    0.000    0.000    0.000 
#
# Total GULP energy -89450.521556 kJ/mol
# GULP energy per Si atom -5590.657597 kJ/mol
# Density = 2.701018 g / cm^3
# Si number density = 27.071797 Si / 1000 Ang^3
#
#
#
# Elastic Constant Matrix: (Units=GPa)
#
#
# Indices 1 2 3 4 5 6 
#
# 1 127.2618 18.9844 27.4746 -1.7326 7.3083 -35.4367
# 2 18.9844 58.8575 30.2493 -3.9848 16.8012 -24.0978
# 3 27.4746 30.2493 92.2539 1.5665 18.4903 -34.6890
# 4 -1.7326 -3.9848 1.5665 37.1213 -12.7830 3.4030
# 5 7.3083 16.8012 18.4903 -12.7830 52.0631 -6.1829
# 6 -35.4367 -24.0978 -34.6890 3.4030 -6.1829 43.6974
#
#
#
# Elastic Compliance Matrix: (Units=1/GPa)
#
#
# Indices 1 2 3 4 5 6 
#
# 1 0.010175 0.000250 0.000246 -0.000537 -0.000716 0.008525
# 2 0.000250 0.024321 -0.002988 -0.000144 -0.005616 0.010460
# 3 0.000246 -0.002988 0.017199 -0.003735 -0.004690 0.011832
# 4 -0.000537 -0.000144 -0.003735 0.030358 0.008348 -0.004663
# 5 -0.000716 -0.005616 -0.004690 0.008348 0.024288 -0.004614
# 6 0.008525 0.010460 0.011832 -0.004663 -0.004614 0.044669
#
#
# Mechanical properties :
#
#
# Convention : Reuss Voigt Hill
#
# Bulk Modulus (GPa) = 21.40857 47.97665 34.69261
# Shear Modulus (GPa) = 29.14361 40.02068 34.58214
#
# Velocity S-wave (km/s) = 3.28461 3.84906 3.57798
# Velocity P-wave (km/s) = 4.72336 6.12488 5.46920
#
# Compressibility (1/GPa) = 0.04671026
#
# Stress axis : x y z
#
# Youngs Moduli (GPa) = 98.27907 41.11689 58.14405
#
# Poissons Ratio (x) = -0.01028 -0.01430
# Poissons Ratio (y) = -0.02458 0.17374
# Poissons Ratio (z) = -0.02416 0.12286
#
# Static dielectric constant tensor:
#      x y z
#    x 2.150830 0.091740 0.046850 
#    y 0.091740 2.221070 0.010110 
#    z 0.046850 0.010110 2.125020 
# 
# From -- ./inp_files/456658.got.cif
#   From: 2010.05.17/outbox.cif.g08.bks.cpg/sg2_229_cif.got.tgz:456658.got - 2010.06.03 11:33:40.
