data_PCOD9001680
_publ_section_title
;
Structure prediction by ZEFSAII (Michael W. Deem and Ramdas Pophale) SiO2 
 PCOD9001680
Probable space group: P -1
;
_chemical_formula_sum "Si O2"
_cell_formula_units_Z 16
_cell_length_a 11.395840
_cell_length_b 18.403999
_cell_length_c 5.033831
_cell_angle_alpha 111.359374
_cell_angle_beta 62.029455
_cell_angle_gamma 126.187053
_cell_volume 746.884002
_symmetry_space_group_name_H-M "P -1"
_symmetry_group_IT_number 2
_symmetry_cell_setting 'triclinic'
loop_
_space_group_symop_operation_xyz
x,y,z
-x,-y,-z
loop_
_atom_site_type_symbol
_atom_site_label
_atom_site_fract_x
_atom_site_fract_y
_atom_site_fract_z
Si Si1 0.029917 0.417248 0.859457
Si Si2 0.152880 0.645661 0.541040
Si Si3 0.326339 0.919005 0.584239
Si Si4 0.298725 0.522593 0.333376
Si Si5 0.770674 0.198167 0.963236
Si Si6 0.900628 0.781599 0.322824
Si Si7 0.606922 0.584935 0.306181
Si Si8 0.006986 0.908760 0.859805
O O1 0.900719 0.348223 0.691265
O O2 0.195323 0.459203 0.603775
O O3 0.002452 0.393596 0.167112
O O4 0.000000 0.500000 0.000000
O O5 0.219506 0.578162 0.384274
O O6 0.255699 0.731847 0.737168
O O7 0.293215 0.885535 0.876783
O O8 0.186984 0.936311 0.680354
O O9 0.500000 0.000000 0.500000
O O10 0.305762 0.841889 0.292451
O O11 0.472642 0.597094 0.331393
O O12 0.323610 0.457175 0.026936
O O13 0.954229 0.233165 0.800091
O O14 0.745474 0.683762 0.374618
O O15 0.913519 0.849790 0.627587
O O16 0.934652 0.837811 0.087952
O O17 0.500000 0.500000 0.500000
O O18 0.000000 0.000000 0.000000
#
# Coordination Sequence:
#
# PCOD9001680 Si02
#       8
#     2   2   2   2   2   2   2   2
#     4  10  21  35  61  84 113 160 202 265 309 353
#     4  11  22  39  61  92 121 158 219 266 315 371
#     4  10  21  41  63  95 125 158 194 259 340 401
#     4  10  24  39  57  87 127 166 227 256 320 366
#     4  10  21  38  64  91 122 161 203 259 317 389
#     4  10  23  41  67  91 131 166 220 255 322 389
#     4  11  26  41  61  87 133 187 218 267 316 374
#     4  10  22  44  70  98 122 165 215 267 326 399
#
# _framework density 21.422335
#
# number of rings (size 3 to 8) (size 9 to 14) (size 15 to 20)
#    0.000    1.750    0.000    3.750   10.500    1.000 
#    4.500    0.000    0.000    0.000    0.000    0.000 
#    0.000    0.000    0.000    0.000    0.000    0.000 
#
# Total GULP energy -89195.086858 kJ/mol
# GULP energy per Si atom -5574.692929 kJ/mol
# Density = 2.137358 g / cm^3
# Si number density = 21.422335 Si / 1000 Ang^3
#
#
#
# Elastic Constant Matrix: (Units=GPa)
#
#
# Indices 1 2 3 4 5 6 
#
# 1 84.2491 50.4624 41.5856 -6.7099 -5.3572 23.3491
# 2 50.4624 131.9728 42.9216 19.1054 -17.9744 40.3798
# 3 41.5856 42.9216 120.3191 11.0090 -0.6811 15.0363
# 4 -6.7099 19.1054 11.0090 40.4109 3.7931 -2.3457
# 5 -5.3572 -17.9744 -0.6811 3.7931 35.3464 0.5080
# 6 23.3491 40.3798 15.0363 -2.3457 0.5080 42.5729
#
#
#
# Elastic Compliance Matrix: (Units=1/GPa)
#
#
# Indices 1 2 3 4 5 6 
#
# 1 0.019169 -0.006238 -0.004772 0.007392 -0.001116 -0.002491
# 2 -0.006238 0.017103 -0.001319 -0.010365 0.009026 -0.013014
# 3 -0.004772 -0.001319 0.010710 -0.003009 -0.000864 -0.000070
# 4 0.007392 -0.010365 -0.003009 0.032940 -0.007869 0.008748
# 5 -0.001116 0.009026 -0.000864 -0.007869 0.033662 -0.008479
# 6 -0.002491 -0.013014 -0.000070 0.008748 -0.008479 0.037807
#
#
# Mechanical properties :
#
#
# Convention : Reuss Voigt Hill
#
# Bulk Modulus (GPa) = 44.79292 67.38668 56.08980
# Shear Modulus (GPa) = 27.24940 37.10412 32.17676
#
# Velocity S-wave (km/s) = 3.57039 4.16628 3.87979
# Velocity P-wave (km/s) = 6.16050 7.39381 6.80515
#
# Compressibility (1/GPa) = 0.02232495
#
# Stress axis : x y z
#
# Youngs Moduli (GPa) = 52.16705 58.46833 93.36820
#
# Poissons Ratio (x) = 0.36472 0.44551
# Poissons Ratio (y) = 0.32541 0.12320
# Poissons Ratio (z) = 0.24892 0.07715
#
# Static dielectric constant tensor:
#      x y z
#    x 1.844820 0.006150 0.057500 
#    y 0.006150 1.899930 -0.019930 
#    z 0.057500 -0.019930 1.794890 
# 
# From -- ./inp_files/81550.got.cif
#   From: 2010.05.17/outbox.cif.g08.bks.cpg/sg2_41_cif.got.tgz:81550.got - 2010.06.03 11:33:40.
