data_PCOD9001777
_publ_section_title
;
Structure prediction by ZEFSAII (Michael W. Deem and Ramdas Pophale) SiO2 
 PCOD9001777
Probable space group: P -1
;
_chemical_formula_sum "Si O2"
_cell_formula_units_Z 14
_cell_length_a 11.730553
_cell_length_b 15.231402
_cell_length_c 8.587880
_cell_angle_alpha 52.366003
_cell_angle_beta 52.157719
_cell_angle_gamma 29.114330
_cell_volume 578.343843
_symmetry_space_group_name_H-M "P -1"
_symmetry_group_IT_number 2
_symmetry_cell_setting 'triclinic'
loop_
_space_group_symop_operation_xyz
x,y,z
-x,-y,-z
loop_
_atom_site_type_symbol
_atom_site_label
_atom_site_fract_x
_atom_site_fract_y
_atom_site_fract_z
Si Si1 0.162057 0.477486 0.282682
Si Si2 0.840842 0.345388 0.140886
Si Si3 0.934033 0.768571 0.620190
Si Si4 0.478021 0.129539 0.171241
Si Si5 0.626058 0.631571 0.244583
Si Si6 0.584023 0.288344 0.336363
Si Si7 0.108535 0.044448 0.786962
O O1 0.325956 0.296523 0.238619
O O2 0.337596 0.442047 0.281460
O O3 0.000000 0.500000 0.500000
O O4 0.042584 0.634244 0.090232
O O5 0.623476 0.540809 0.206272
O O6 0.735765 0.307248 0.178739
O O7 0.018693 0.202761 0.284907
O O8 0.659379 0.902701 0.679755
O O9 0.096475 0.556575 0.731000
O O10 0.040076 0.774985 0.382811
O O11 0.742571 0.980522 0.179740
O O12 0.443534 0.210469 0.946572
O O13 0.467050 0.702507 0.449574
O O14 0.728031 0.103035 0.330936
O O15 0.000000 0.000000 0.000000
#
# Coordination Sequence:
#
# PCOD9001777 Si02
#       7
#     2   2   2   2   2   2   2
#     4  10  21  35  62  99 125 159 211 265 312 367
#     4   9  22  37  63  95 126 161 209 256 315 365
#     4  10  22  41  68  93 129 162 214 256 322 372
#     4  10  21  42  66  91 127 169 208 263 317 374
#     4   9  21  38  72  97 121 161 216 263 314 370
#     4  11  22  40  65  90 131 164 214 255 315 375
#     4  11  27  44  62  91 132 173 210 259 321 374
#
# _framework density 24.207052999999998
#
# number of rings (size 3 to 8) (size 9 to 14) (size 15 to 20)
#    0.857    1.143    0.000    2.571    4.000    5.143 
#    0.000    0.714    0.000    0.000    0.000    0.000 
#    0.000    0.000    0.000    0.000    0.000    0.000 
#
# Total GULP energy -78197.563707 kJ/mol
# GULP energy per Si atom -5585.540265 kJ/mol
# Density = 2.415196 g / cm^3
# Si number density = 24.207053 Si / 1000 Ang^3
#
#
#
# Elastic Constant Matrix: (Units=GPa)
#
#
# Indices 1 2 3 4 5 6 
#
# 1 123.1097 15.2205 37.8407 -10.3249 -17.5523 -24.5222
# 2 15.2205 28.8855 20.1981 2.6202 10.7574 2.1409
# 3 37.8407 20.1981 182.1609 -20.1823 3.3397 -24.0177
# 4 -10.3249 2.6202 -20.1823 29.3642 -1.3757 9.2847
# 5 -17.5523 10.7574 3.3397 -1.3757 28.4305 7.9529
# 6 -24.5222 2.1409 -24.0177 9.2847 7.9529 37.2256
#
#
#
# Elastic Compliance Matrix: (Units=1/GPa)
#
#
# Indices 1 2 3 4 5 6 
#
# 1 0.012530 -0.011008 -0.000440 0.003889 0.010641 0.005360
# 2 -0.011008 0.055480 -0.005425 -0.012098 -0.026249 -0.005317
# 3 -0.000440 -0.005425 0.007102 0.004095 0.000152 0.003550
# 4 0.003889 -0.012098 0.004095 0.041953 0.010428 -0.006792
# 5 0.010641 -0.026249 0.000152 0.010428 0.053687 -0.005453
# 6 0.005360 -0.005317 0.003550 -0.006792 -0.005453 0.035849
#
#
# Mechanical properties :
#
#
# Convention : Reuss Voigt Hill
#
# Bulk Modulus (GPa) = 24.17440 53.40830 38.79135
# Shear Modulus (GPa) = 19.67451 36.39717 28.03584
#
# Velocity S-wave (km/s) = 2.85399 3.88181 3.40688
# Velocity P-wave (km/s) = 4.56821 6.49632 5.61564
#
# Compressibility (1/GPa) = 0.04136608
#
# Stress axis : x y z
#
# Youngs Moduli (GPa) = 79.80852 18.02440 140.81355
#
# Poissons Ratio (x) = 0.19841 0.06193
# Poissons Ratio (y) = 0.87852 0.76395
# Poissons Ratio (z) = 0.03510 0.09779
#
# Static dielectric constant tensor:
#      x y z
#    x 1.933800 -0.006300 -0.007000 
#    y -0.006300 2.019400 -0.051780 
#    z -0.007000 -0.051780 1.977050 
# 
# From -- ./inp_files/278948.got.cif
#   From: 2010.05.17/outbox.cif.g08.bks.cpg/sg2_140_cif.got.tgz:278948.got - 2010.06.03 11:33:40.
