data_PCOD9001527
_publ_section_title
;
Structure prediction by ZEFSAII (Michael W. Deem and Ramdas Pophale) SiO2 
 PCOD9001527
Probable space group: P -1
;
_chemical_formula_sum "Si O2"
_cell_formula_units_Z 14
_cell_length_a 12.013186
_cell_length_b 5.131738
_cell_length_c 12.356852
_cell_angle_alpha 123.463625
_cell_angle_beta 60.528604
_cell_angle_gamma 101.794885
_cell_volume 550.921603
_symmetry_space_group_name_H-M "P -1"
_symmetry_group_IT_number 2
_symmetry_cell_setting 'triclinic'
loop_
_space_group_symop_operation_xyz
x,y,z
-x,-y,-z
loop_
_atom_site_type_symbol
_atom_site_label
_atom_site_fract_x
_atom_site_fract_y
_atom_site_fract_z
Si Si1 0.559799 0.113792 0.679962
Si Si2 0.218316 0.370865 0.579555
Si Si3 0.825900 0.294155 0.532632
Si Si4 0.417113 0.077115 0.951059
Si Si5 0.678757 0.579700 0.222662
Si Si6 0.134249 0.248816 0.197303
Si Si7 0.904618 0.473370 0.940385
O O1 0.672572 0.321404 0.637466
O O2 0.438874 0.154258 0.667123
O O3 0.639704 0.773647 0.563059
O O4 0.503161 0.211347 0.846804
O O5 0.164434 0.632675 0.581907
O O6 0.243132 0.441912 0.708404
O O7 0.135744 0.069869 0.544366
O O8 0.886123 0.531388 0.638388
O O9 0.378326 0.749138 0.845206
O O10 0.282947 0.260722 0.092125
O O11 0.500000 0.000000 0.000000
O O12 0.772193 0.632848 0.090353
O O13 0.059546 0.364005 0.150495
O O14 0.113957 0.891734 0.153140
O O15 0.000000 0.500000 0.000000
#
# Coordination Sequence:
#
# PCOD9001527 Si02
#       7
#     2   2   2   2   2   2   2
#     4  10  21  35  57  88 127 161 202 231 293 363
#     4  10  23  37  58  86 130 160 203 229 298 364
#     4  10  23  38  60  91 124 164 194 243 290 373
#     4  11  23  34  58  93 132 163 202 240 302 371
#     4  11  23  38  59  87 123 164 197 254 299 354
#     4  11  22  42  65  88 125 157 201 252 314 348
#     4  11  25  43  67  91 116 156 208 261 306 352
#
# _framework density 25.411964000000001
#
# number of rings (size 3 to 8) (size 9 to 14) (size 15 to 20)
#    0.857    0.571    1.429    4.286    6.000    2.286 
#    0.000    0.000    0.000    5.143    0.000    0.000 
#    0.000    0.000    0.000    0.000    0.000    0.000 
#
# Total GULP energy -78414.642369 kJ/mol
# GULP energy per Si atom -5601.045884 kJ/mol
# Density = 2.535412 g / cm^3
# Si number density = 25.411964 Si / 1000 Ang^3
#
#
#
# Elastic Constant Matrix: (Units=GPa)
#
#
# Indices 1 2 3 4 5 6 
#
# 1 86.7391 -7.2860 21.2204 -11.2791 -1.6885 -3.4130
# 2 -7.2860 52.2276 19.4747 -27.4924 -7.5660 -9.1581
# 3 21.2204 19.4747 124.7628 -28.0463 8.7752 7.9406
# 4 -11.2791 -27.4924 -28.0463 47.4213 0.9069 8.2328
# 5 -1.6885 -7.5660 8.7752 0.9069 45.9514 -4.7335
# 6 -3.4130 -9.1581 7.9406 8.2328 -4.7335 31.6854
#
#
#
# Elastic Compliance Matrix: (Units=1/GPa)
#
#
# Indices 1 2 3 4 5 6 
#
# 1 0.013431 0.006125 -0.002528 0.004695 0.002197 0.002959
# 2 0.006125 0.032353 -0.003232 0.016888 0.006600 0.007419
# 3 -0.002528 -0.003232 0.010634 0.004855 -0.003332 -0.005631
# 4 0.004695 0.016888 0.004855 0.035717 0.000807 -0.004990
# 5 0.002197 0.006600 -0.003332 0.000807 0.024208 0.006386
# 6 0.002959 0.007419 -0.005631 -0.004990 0.006386 0.037685
#
#
# Mechanical properties :
#
#
# Convention : Reuss Voigt Hill
#
# Bulk Modulus (GPa) = 17.49843 36.72753 27.11298
# Shear Modulus (GPa) = 29.01100 40.36631 34.68866
#
# Velocity S-wave (km/s) = 3.38246 3.98989 3.69867
# Velocity P-wave (km/s) = 4.70697 5.97578 5.37892
#
# Compressibility (1/GPa) = 0.05714798
#
# Stress axis : x y z
#
# Youngs Moduli (GPa) = 74.45223 30.90879 94.03919
#
# Poissons Ratio (x) = -0.18931 0.23774
# Poissons Ratio (y) = -0.45600 0.30393
# Poissons Ratio (z) = 0.18822 0.09990
#
# Static dielectric constant tensor:
#      x y z
#    x 2.042410 0.007650 -0.072050 
#    y 0.007650 1.951690 0.008890 
#    z -0.072050 0.008890 1.975030 
# 
# From -- ./inp_files/85280.got.cif
#   From: 2010.05.17/outbox.cif.g08.bks.cpg/sg2_43_cif.got.tgz:85280.got - 2010.06.03 11:33:40.
