data_PCOD9001037
_publ_section_title
;
Structure prediction by ZEFSAII (Michael W. Deem and Ramdas Pophale) SiO2 
 PCOD9001037
Probable space group: P -1
;
_chemical_formula_sum "Si O2"
_cell_formula_units_Z 14
_cell_length_a 12.793097
_cell_length_b 5.161109
_cell_length_c 13.595642
_cell_angle_alpha 128.418824
_cell_angle_beta 76.100945
_cell_angle_gamma 88.172637
_cell_volume 663.074641
_symmetry_space_group_name_H-M "P -1"
_symmetry_group_IT_number 2
_symmetry_cell_setting 'triclinic'
loop_
_space_group_symop_operation_xyz
x,y,z
-x,-y,-z
loop_
_atom_site_type_symbol
_atom_site_label
_atom_site_fract_x
_atom_site_fract_y
_atom_site_fract_z
Si Si1 0.030326 0.464707 0.319870
Si Si2 0.549344 0.265097 0.115026
Si Si3 0.313373 0.061862 0.513519
Si Si4 0.338812 0.802633 0.239788
Si Si5 0.465078 0.494077 0.620128
Si Si6 0.102326 0.850193 0.579377
Si Si7 0.742770 0.883695 0.874790
O O1 0.087502 0.607092 0.434101
O O2 0.125647 0.181878 0.180198
O O3 0.932533 0.316560 0.353987
O O4 0.983201 0.788460 0.338359
O O5 0.469085 0.624382 0.185003
O O6 0.542249 0.232117 0.226639
O O7 0.500000 0.000000 0.000000
O O8 0.677129 0.172281 0.031404
O O9 0.289818 0.051311 0.400039
O O10 0.430742 0.792558 0.432799
O O11 0.221891 0.931540 0.563837
O O12 0.346397 0.398159 0.622690
O O13 0.281216 0.483079 0.180127
O O14 0.311163 0.001493 0.192104
O O15 0.500000 0.500000 0.500000
#
# Coordination Sequence:
#
# PCOD9001037 Si02
#       7
#     2   2   2   2   2   2   2
#     4  10  21  33  55  90 119 157 211 250 302 354
#     4   9  21  39  59  92 123 162 202 249 310 369
#     4  10  22  37  58  86 124 161 200 254 312 361
#     4  10  21  33  60  88 119 164 196 244 308 364
#     4  10  23  40  62  92 122 159 208 246 308 380
#     4  10  21  35  56  85 122 160 202 257 303 352
#     4  11  20  37  57  88 125 157 201 254 302 356
#
# _framework density 21.113761
#
# number of rings (size 3 to 8) (size 9 to 14) (size 15 to 20)
#    0.000    2.000    1.429    1.286   12.000    0.000 
#    7.714    0.000    0.000    1.714    0.000    0.000 
#    0.000    0.000    0.000    0.000    0.000    0.000 
#
# Total GULP energy -78089.246320 kJ/mol
# GULP energy per Si atom -5577.803309 kJ/mol
# Density = 2.106570 g / cm^3
# Si number density = 21.113761 Si / 1000 Ang^3
#
#
#
# Elastic Constant Matrix: (Units=GPa)
#
#
# Indices 1 2 3 4 5 6 
#
# 1 87.8601 9.0697 31.3419 5.5626 -16.5315 25.4966
# 2 9.0697 60.5218 21.8169 -8.4555 1.6916 10.0054
# 3 31.3419 21.8169 113.4019 -7.6495 -8.0038 2.6127
# 4 5.5626 -8.4555 -7.6495 19.8347 -8.8063 -6.7130
# 5 -16.5315 1.6916 -8.0038 -8.8063 36.0518 2.3834
# 6 25.4966 10.0054 2.6127 -6.7130 2.3834 31.1591
#
#
#
# Elastic Compliance Matrix: (Units=1/GPa)
#
#
# Indices 1 2 3 4 5 6 
#
# 1 0.021306 0.000389 -0.005807 -0.011797 0.006912 -0.020142
# 2 0.000389 0.019225 -0.003334 0.005125 0.000126 -0.005118
# 3 -0.005807 -0.003334 0.011523 0.007444 0.001450 0.006349
# 4 -0.011797 0.005125 0.007444 0.071523 0.012027 0.021873
# 5 0.006912 0.000126 0.001450 0.012027 0.034549 -0.005870
# 6 -0.020142 -0.005118 0.006349 0.021873 -0.005870 0.054847
#
#
# Mechanical properties :
#
#
# Convention : Reuss Voigt Hill
#
# Bulk Modulus (GPa) = 28.94360 42.91566 35.92963
# Shear Modulus (GPa) = 20.66169 30.71282 25.68726
#
# Velocity S-wave (km/s) = 3.13163 3.81811 3.49178
# Velocity P-wave (km/s) = 5.17826 6.30930 5.77155
#
# Compressibility (1/GPa) = 0.03454995
#
# Stress axis : x y z
#
# Youngs Moduli (GPa) = 46.93552 52.01600 86.78496
#
# Poissons Ratio (x) = -0.02024 0.50398
# Poissons Ratio (y) = -0.01826 0.28931
# Poissons Ratio (z) = 0.27256 0.17340
#
# Static dielectric constant tensor:
#      x y z
#    x 1.818900 0.013550 -0.004260 
#    y 0.013550 1.797350 -0.002140 
#    z -0.004260 -0.002140 1.832830 
# 
# From -- ./inp_files/366236.got.cif
#   From: 2010.05.17/outbox.cif.g08.bks.cpg/sg2_184_cif.got.tgz:366236.got - 2010.06.03 11:33:40.
