data_PCOD9001117
_publ_section_title
;
Structure prediction by ZEFSAII (Michael W. Deem and Ramdas Pophale) SiO2 
 PCOD9001117
Probable space group: P -1
;
_chemical_formula_sum "Si O2"
_cell_formula_units_Z 10
_cell_length_a 13.934037
_cell_length_b 5.435751
_cell_length_c 9.359875
_cell_angle_alpha 123.500487
_cell_angle_beta 39.859820
_cell_angle_gamma 113.354625
_cell_volume 378.393012
_symmetry_space_group_name_H-M "P -1"
_symmetry_group_IT_number 2
_symmetry_cell_setting 'triclinic'
loop_
_space_group_symop_operation_xyz
x,y,z
-x,-y,-z
loop_
_atom_site_type_symbol
_atom_site_label
_atom_site_fract_x
_atom_site_fract_y
_atom_site_fract_z
Si Si1 0.093915 0.702206 0.851186
Si Si2 0.551921 0.098538 0.793748
Si Si3 0.444568 0.488514 0.305204
Si Si4 0.015139 0.646906 0.374938
Si Si5 0.695797 0.313421 0.131595
O O1 0.106005 0.507038 0.632538
O O2 0.238866 0.735622 0.799205
O O3 0.000000 0.500000 0.000000
O O4 0.000000 0.000000 0.000000
O O5 0.617459 0.233714 0.621113
O O6 0.640572 0.793641 0.633603
O O7 0.542471 0.320463 0.008977
O O8 0.384628 0.989200 0.915332
O O9 0.561767 0.552044 0.317034
O O10 0.172721 0.596333 0.095651
O O11 0.000000 0.500000 0.500000
O O12 0.000000 0.000000 0.500000
#
# Coordination Sequence:
#
# PCOD9001117 Si02
#       5
#     2   2   2   2   2
#     4  10  21  34  52  73  96 133 178 213 240 288
#     4   8  15  26  45  75  96 114 156 212 252 284
#     4   8  15  26  45  75  96 114 156 212 252 284
#     4  11  23  35  47  72 108 138 168 203 246 303
#     4   9  19  31  55  69  99 131 168 204 251 281
#
# _framework density 26.427551999999999
#
# number of rings (size 3 to 8) (size 9 to 14) (size 15 to 20)
#    1.200    1.600    0.000    2.400    8.400    0.000 
#    0.000    0.000    0.000    0.000    0.000   11.200 
#    0.000    0.000    0.000    0.000    0.000    0.000 
#
# Total GULP energy -55756.925301 kJ/mol
# GULP energy per Si atom -5575.692530 kJ/mol
# Density = 2.636740 g / cm^3
# Si number density = 26.427552 Si / 1000 Ang^3
#
#
#
# Elastic Constant Matrix: (Units=GPa)
#
#
# Indices 1 2 3 4 5 6 
#
# 1 197.4667 83.8812 57.1895 -4.0477 41.3977 -18.3869
# 2 83.8812 212.0981 52.9826 -25.9373 19.2970 -50.9335
# 3 57.1895 52.9826 88.2367 -12.9082 43.9892 -18.5951
# 4 -4.0477 -25.9373 -12.9082 55.9608 -10.2349 6.6070
# 5 41.3977 19.2970 43.9892 -10.2349 55.8502 -4.2904
# 6 -18.3869 -50.9335 -18.5951 6.6070 -4.2904 72.4225
#
#
#
# Elastic Compliance Matrix: (Units=1/GPa)
#
#
# Indices 1 2 3 4 5 6 
#
# 1 0.007267 -0.002372 -0.001910 -0.001589 -0.003382 -0.000369
# 2 -0.002372 0.007371 -0.002811 0.002552 0.002182 0.003756
# 3 -0.001910 -0.002811 0.022237 0.000705 -0.014821 0.002305
# 4 -0.001589 0.002552 0.000705 0.019716 0.003352 -0.000028
# 5 -0.003382 0.002182 -0.014821 0.003352 0.031827 -0.001550
# 6 -0.000369 0.003756 0.002305 -0.000028 -0.001550 0.016858
#
#
# Mechanical properties :
#
#
# Convention : Reuss Voigt Hill
#
# Bulk Modulus (GPa) = 44.07561 98.43424 71.25493
# Shear Modulus (GPa) = 39.36211 57.09657 48.22934
#
# Velocity S-wave (km/s) = 3.86351 4.65315 4.27659
# Velocity P-wave (km/s) = 6.05114 8.13614 7.16984
#
# Compressibility (1/GPa) = 0.02268829
#
# Stress axis : x y z
#
# Youngs Moduli (GPa) = 137.60725 135.67098 44.97047
#
# Poissons Ratio (x) = 0.32184 0.08588
# Poissons Ratio (y) = 0.32643 0.12643
# Poissons Ratio (z) = 0.26278 0.38141
#
# Static dielectric constant tensor:
#      x y z
#    x 2.162580 -0.110480 -0.073560 
#    y -0.110480 2.490800 0.047120 
#    z -0.073560 0.047120 2.264740 
# 
# From -- ./inp_files/34856.got.cif
#   From: 2010.05.17/outbox.cif.g08.bks.cpg/sg2_18_cif.got.tgz:34856.got - 2010.06.03 11:33:40.
