data_PCOD9001175
_publ_section_title
;
Structure prediction by ZEFSAII (Michael W. Deem and Ramdas Pophale) SiO2 
 PCOD9001175
Probable space group: P -1
;
_chemical_formula_sum "Si O2"
_cell_formula_units_Z 14
_cell_length_a 7.547659
_cell_length_b 14.548226
_cell_length_c 9.258989
_cell_angle_alpha 111.886305
_cell_angle_beta 49.449135
_cell_angle_gamma 80.961547
_cell_volume 590.695133
_symmetry_space_group_name_H-M "P -1"
_symmetry_group_IT_number 2
_symmetry_cell_setting 'triclinic'
loop_
_space_group_symop_operation_xyz
x,y,z
-x,-y,-z
loop_
_atom_site_type_symbol
_atom_site_label
_atom_site_fract_x
_atom_site_fract_y
_atom_site_fract_z
Si Si1 0.521561 0.828362 0.423951
Si Si2 0.597821 0.621665 0.829206
Si Si3 0.670158 0.876800 0.917703
Si Si4 0.753221 0.147540 0.721565
Si Si5 0.459437 0.692388 0.617383
Si Si6 0.870758 0.907195 0.135382
Si Si7 0.868019 0.372249 0.458899
O O1 0.411978 0.813994 0.320457
O O2 0.604331 0.726174 0.437689
O O3 0.754837 0.857599 0.287465
O O4 0.247474 0.956415 0.694408
O O5 0.605082 0.627730 0.651919
O O6 0.680266 0.486693 0.726225
O O7 0.871217 0.621905 0.735215
O O8 0.299116 0.725794 0.122060
O O9 0.957441 0.760602 0.636734
O O10 0.440902 0.848443 0.046015
O O11 0.739815 0.901053 0.052212
O O12 0.500000 0.000000 0.000000
O O13 0.000000 0.000000 0.500000
O O14 0.317472 0.634320 0.572551
O O15 0.199261 0.820450 0.888432
#
# Coordination Sequence:
#
# PCOD9001175 Si02
#       7
#     2   2   2   2   2   2   2
#     4  10  21  36  55  92 132 163 205 265 318 372
#     4  10  21  41  65  90 125 173 210 255 326 372
#     4   9  19  33  60  87 115 158 205 253 308 365
#     4  10  21  34  55  88 126 158 198 261 311 367
#     4  11  21  37  69  90 117 171 219 252 314 387
#     4   9  20  36  55  90 133 161 199 267 318 369
#     4   9  21  39  62  94 126 160 214 269 304 379
#
# _framework density 23.700890000000001
#
# number of rings (size 3 to 8) (size 9 to 14) (size 15 to 20)
#    0.000    2.286    0.000    2.571    8.000    0.000 
#    0.000    2.143    0.000   29.143    0.000    0.000 
#    0.000    0.000    0.000    0.000    0.000    0.000 
#
# Total GULP energy -77934.201283 kJ/mol
# GULP energy per Si atom -5566.728663 kJ/mol
# Density = 2.364695 g / cm^3
# Si number density = 23.700890 Si / 1000 Ang^3
#
#
#
# Elastic Constant Matrix: (Units=GPa)
#
#
# Indices 1 2 3 4 5 6 
#
# 1 73.9060 20.6587 16.7203 6.9165 17.7467 5.6156
# 2 20.6587 97.8166 46.1872 16.6588 9.9909 -6.7701
# 3 16.7203 46.1872 100.4148 35.9530 12.7563 1.1302
# 4 6.9165 16.6588 35.9530 47.3275 11.6769 -1.2112
# 5 17.7467 9.9909 12.7563 11.6769 24.8910 10.5060
# 6 5.6156 -6.7701 1.1302 -1.2112 10.5060 20.9775
#
#
#
# Elastic Compliance Matrix: (Units=1/GPa)
#
#
# Indices 1 2 3 4 5 6 
#
# 1 0.017010 -0.002134 -0.001073 0.002100 -0.012135 0.001014
# 2 -0.002134 0.014497 -0.006267 0.001491 -0.005300 0.008328
# 3 -0.001073 -0.006267 0.016757 -0.010829 0.001458 -0.003994
# 4 0.002100 0.001491 -0.010829 0.032855 -0.016448 0.010637
# 5 -0.012135 -0.005300 0.001458 -0.016448 0.073177 -0.036139
# 6 0.001014 0.008328 -0.003994 0.010637 -0.036139 0.069015
#
#
# Mechanical properties :
#
#
# Convention : Reuss Voigt Hill
#
# Bulk Modulus (GPa) = 34.11005 48.80776 41.45890
# Shear Modulus (GPa) = 19.83895 31.21062 25.52478
#
# Velocity S-wave (km/s) = 2.89633 3.63279 3.28526
# Velocity P-wave (km/s) = 5.06044 6.18337 5.64988
#
# Compressibility (1/GPa) = 0.02931687
#
# Stress axis : x y z
#
# Youngs Moduli (GPa) = 58.78836 68.98032 59.67754
#
# Poissons Ratio (x) = 0.14721 0.06401
# Poissons Ratio (y) = 0.12546 0.37399
# Poissons Ratio (z) = 0.06305 0.43229
#
# Static dielectric constant tensor:
#      x y z
#    x 1.950260 0.083480 0.029170 
#    y 0.083480 2.357540 0.192890 
#    z 0.029170 0.192890 2.077050 
# 
# From -- ./inp_files/191746.got.cif
#   From: 2010.05.17/outbox.cif.g08.bks.cpg/sg2_96_cif.got.tgz:191746.got - 2010.06.03 11:33:40.
