data_PCOD9001510
_publ_section_title
;
Structure prediction by ZEFSAII (Michael W. Deem and Ramdas Pophale) SiO2 
 PCOD9001510
Probable space group: P -1
;
_chemical_formula_sum "Si O2"
_cell_formula_units_Z 16
_cell_length_a 25.596735
_cell_length_b 12.096988
_cell_length_c 8.629328
_cell_angle_alpha 142.395030
_cell_angle_beta 51.832775
_cell_angle_gamma 150.707297
_cell_volume 773.559510
_symmetry_space_group_name_H-M "P -1"
_symmetry_group_IT_number 2
_symmetry_cell_setting 'triclinic'
loop_
_space_group_symop_operation_xyz
x,y,z
-x,-y,-z
loop_
_atom_site_type_symbol
_atom_site_label
_atom_site_fract_x
_atom_site_fract_y
_atom_site_fract_z
Si Si1 0.441204 0.236163 0.939823
Si Si2 0.858239 0.339227 0.495761
Si Si3 0.082419 0.782237 0.456484
Si Si4 0.579864 0.061174 0.625243
Si Si5 0.372383 0.215637 0.617659
Si Si6 0.781324 0.559563 0.998830
Si Si7 0.291393 0.115981 0.307904
Si Si8 0.604461 0.259596 0.209423
O O1 0.408990 0.996422 0.628624
O O2 0.500000 0.500000 0.000000
O O3 0.535572 0.438523 0.124079
O O4 0.337247 0.093164 0.061058
O O5 0.897329 0.306123 0.533391
O O6 0.841000 0.508732 0.773087
O O7 0.951244 0.522401 0.398039
O O8 0.735008 1.000000 0.315251
O O9 0.159942 0.862217 0.272373
O O10 0.136809 0.095661 0.743706
O O11 0.686380 0.400218 0.868652
O O12 0.581900 0.884329 0.535828
O O13 0.461371 0.895464 0.681914
O O14 0.333784 0.142952 0.430062
O O15 0.708714 0.371912 0.080954
O O16 0.346428 0.432687 0.544595
O O17 0.500000 0.000000 0.000000
#
# Coordination Sequence:
#
# PCOD9001510 Si02
#       8
#     2   2   2   2   2   2   2   2
#     4  10  17  27  46  72 102 132 160 199 245 298
#     4   9  17  31  48  76  97 124 163 209 255 275
#     4   9  18  30  50  76  97 122 166 214 241 290
#     4   9  17  29  45  73  99 137 156 195 252 292
#     4   9  17  27  47  73  96 125 165 201 238 292
#     4   9  17  29  49  73  97 129 162 204 243 297
#     4  10  17  28  46  74  95 129 166 203 246 287
#     4   9  16  26  42  66  95 126 160 195 238 292
#
# _framework density 20.683605
#
# number of rings (size 3 to 8) (size 9 to 14) (size 15 to 20)
#    0.000    2.750    2.500    0.750    0.000    0.000 
#    0.000    0.000    0.000   18.750    0.000    4.375 
#    0.000    0.000    0.000    0.000    0.000    0.000 
#
# Total GULP energy -89071.289377 kJ/mol
# GULP energy per Si atom -5566.955586 kJ/mol
# Density = 2.063653 g / cm^3
# Si number density = 20.683605 Si / 1000 Ang^3
#
#
#
# Elastic Constant Matrix: (Units=GPa)
#
#
# Indices 1 2 3 4 5 6 
#
# 1 50.5267 23.1521 6.0656 -16.8070 -13.0251 -3.8397
# 2 23.1521 155.4236 43.5197 -37.8667 -10.5152 36.0722
# 3 6.0656 43.5197 74.3413 -27.3360 0.5529 3.3802
# 4 -16.8070 -37.8667 -27.3360 43.9874 -4.0655 -7.7211
# 5 -13.0251 -10.5152 0.5529 -4.0655 16.3574 -4.3429
# 6 -3.8397 36.0722 3.3802 -7.7211 -4.3429 33.1965
#
#
#
# Elastic Compliance Matrix: (Units=1/GPa)
#
#
# Indices 1 2 3 4 5 6 
#
# 1 0.040106 -0.003752 0.006206 0.022916 0.039958 0.018641
# 2 -0.003752 0.012414 -0.004803 0.004446 0.003075 -0.011997
# 3 0.006206 -0.004803 0.019991 0.012590 0.006341 0.007659
# 4 0.022916 0.004446 0.012590 0.048689 0.036123 0.012588
# 5 0.039958 0.003075 0.006341 0.036123 0.109909 0.023416
# 6 0.018641 -0.011997 0.007659 0.012588 0.023416 0.050528
#
#
# Mechanical properties :
#
#
# Convention : Reuss Voigt Hill
#
# Bulk Modulus (GPa) = 14.74685 47.30740 31.02712
# Shear Modulus (GPa) = 16.18442 32.54520 24.36481
#
# Velocity S-wave (km/s) = 2.80031 3.97101 3.43589
# Velocity P-wave (km/s) = 4.19534 6.62924 5.54742
#
# Compressibility (1/GPa) = 0.06781111
#
# Stress axis : x y z
#
# Youngs Moduli (GPa) = 24.93423 80.55715 50.02230
#
# Poissons Ratio (x) = 0.30223 -0.31042
# Poissons Ratio (y) = 0.09355 0.24028
# Poissons Ratio (z) = -0.15473 0.38695
#
# Static dielectric constant tensor:
#      x y z
#    x 1.813850 -0.001960 -0.041950 
#    y -0.001960 1.823200 -0.034660 
#    z -0.041950 -0.034660 1.797110 
# 
# From -- ./inp_files/296212.got.cif
#   From: 2010.05.17/outbox.cif.g08.bks.cpg/sg2_149_cif.got.tgz:296212.got - 2010.06.03 11:33:40.
