data_PCOD9001121
_publ_section_title
;
Structure prediction by ZEFSAII (Michael W. Deem and Ramdas Pophale) SiO2 
 PCOD9001121
Probable space group: P -1
;
_chemical_formula_sum "Si O2"
_cell_formula_units_Z 16
_cell_length_a 17.834387
_cell_length_b 6.436023
_cell_length_c 23.934245
_cell_angle_alpha 90.385376
_cell_angle_beta 19.411657
_cell_angle_gamma 100.567250
_cell_volume 772.692330
_symmetry_space_group_name_H-M "P -1"
_symmetry_group_IT_number 2
_symmetry_cell_setting 'triclinic'
loop_
_space_group_symop_operation_xyz
x,y,z
-x,-y,-z
loop_
_atom_site_type_symbol
_atom_site_label
_atom_site_fract_x
_atom_site_fract_y
_atom_site_fract_z
Si Si1 0.240674 0.825354 0.526097
Si Si2 0.129518 0.276723 0.314107
Si Si3 0.659150 0.034084 0.097878
Si Si4 0.178817 0.209627 0.098208
Si Si5 0.491071 0.770480 0.029488
Si Si6 0.738652 0.330453 0.147921
Si Si7 0.370067 0.519887 0.366886
Si Si8 0.333757 0.258475 0.284819
O O1 0.237744 0.579283 0.511776
O O2 0.097052 0.865452 0.573083
O O3 0.072981 0.794556 0.699192
O O4 0.530350 0.073355 0.324805
O O5 0.398084 0.303502 0.101421
O O6 0.128019 0.204535 0.378632
O O7 0.208042 0.557037 0.252191
O O8 0.855690 0.995144 0.921459
O O9 0.796100 0.245586 0.048304
O O10 0.453306 0.085495 0.209819
O O11 0.492017 0.775538 0.247676
O O12 0.310474 0.164492 0.059068
O O13 0.400387 0.476685 0.918513
O O14 0.500000 0.000000 0.000000
O O15 0.588583 0.471415 0.238964
O O16 0.000000 0.500000 0.000000
O O17 0.234992 0.311848 0.412943
#
# Coordination Sequence:
#
# PCOD9001121 Si02
#       8
#     2   2   2   2   2   2   2   2
#     4  10  21  34  52  82 112 138 176 225 266 305
#     4   9  18  29  45  76 111 144 180 211 248 303
#     4   9  18  35  58  79 104 142 179 213 258 316
#     4   9  18  31  51  80 110 138 172 215 259 309
#     4   9  16  27  45  71 109 151 179 204 248 304
#     4  10  22  41  61  76  97 136 180 224 276 325
#     4   9  20  37  55  78 104 137 178 216 264 322
#     4   9  17  33  54  76 109 149 179 204 248 312
#
# _framework density 20.70682
#
# number of rings (size 3 to 8) (size 9 to 14) (size 15 to 20)
#    0.000    2.750    0.000    1.500    0.000    5.500 
#    0.000    6.250    0.000    7.500    0.000    0.000 
#    0.000    0.000    0.000    0.000    0.000    0.000 
#
# Total GULP energy -89156.312652 kJ/mol
# GULP energy per Si atom -5572.269541 kJ/mol
# Density = 2.065969 g / cm^3
# Si number density = 20.706820 Si / 1000 Ang^3
#
#
#
# Elastic Constant Matrix: (Units=GPa)
#
#
# Indices 1 2 3 4 5 6 
#
# 1 56.5543 24.2494 18.3775 11.4126 -2.7330 16.2891
# 2 24.2494 106.9529 20.7137 31.1163 12.4251 8.1336
# 3 18.3775 20.7137 59.3095 18.1984 8.6833 25.8092
# 4 11.4126 31.1163 18.1984 37.3129 10.0292 13.7362
# 5 -2.7330 12.4251 8.6833 10.0292 34.7252 -4.9242
# 6 16.2891 8.1336 25.8092 13.7362 -4.9242 41.2335
#
#
#
# Elastic Compliance Matrix: (Units=1/GPa)
#
#
# Indices 1 2 3 4 5 6 
#
# 1 0.022450 -0.004233 -0.003564 -0.000685 0.003642 -0.005140
# 2 -0.004233 0.013413 -0.001446 -0.009916 -0.001473 0.003058
# 3 -0.003564 -0.001446 0.027225 -0.003309 -0.007767 -0.015173
# 4 -0.000685 -0.009916 -0.003309 0.043795 -0.009955 -0.011480
# 5 0.003642 -0.001473 -0.007767 -0.009955 0.036036 0.011333
# 6 -0.005140 0.003058 -0.015173 -0.011480 0.011333 0.040354
#
#
# Mechanical properties :
#
#
# Convention : Reuss Voigt Hill
#
# Bulk Modulus (GPa) = 22.42015 38.83308 30.62661
# Shear Modulus (GPa) = 23.08129 33.28608 28.18368
#
# Velocity S-wave (km/s) = 3.34229 4.01371 3.69329
# Velocity P-wave (km/s) = 5.07400 6.34620 5.74542
#
# Compressibility (1/GPa) = 0.04460274
#
# Stress axis : x y z
#
# Youngs Moduli (GPa) = 44.54378 74.55495 36.73073
#
# Poissons Ratio (x) = 0.31556 0.13092
# Poissons Ratio (y) = 0.18853 0.05310
# Poissons Ratio (z) = 0.15877 0.10778
#
# Static dielectric constant tensor:
#      x y z
#    x 1.754520 0.267750 -0.038690 
#    y 0.267750 5.503290 -1.191110 
#    z -0.038690 -1.191110 2.201950 
# 
# From -- ./inp_files/81541.got.cif
#   From: 2010.05.17/outbox.cif.g08.bks.cpg/sg2_41_cif.got.tgz:81541.got - 2010.06.03 11:33:40.
