data_PCOD9001214
_publ_section_title
;
Structure prediction by ZEFSAII (Michael W. Deem and Ramdas Pophale) SiO2 
 PCOD9001214
Probable space group: P -1
;
_chemical_formula_sum "Si O2"
_cell_formula_units_Z 12
_cell_length_a 16.783160
_cell_length_b 8.242814
_cell_length_c 15.304523
_cell_angle_alpha 34.289343
_cell_angle_beta 33.805767
_cell_angle_gamma 63.782380
_cell_volume 414.650615
_symmetry_space_group_name_H-M "P -1"
_symmetry_group_IT_number 2
_symmetry_cell_setting 'triclinic'
loop_
_space_group_symop_operation_xyz
x,y,z
-x,-y,-z
loop_
_atom_site_type_symbol
_atom_site_label
_atom_site_fract_x
_atom_site_fract_y
_atom_site_fract_z
Si Si1 0.817673 0.309469 0.182042
Si Si2 0.665435 0.540019 0.539821
Si Si3 0.682350 0.936352 0.072230
Si Si4 0.600801 0.404850 0.010722
Si Si5 0.983554 0.275564 0.788584
Si Si6 0.251314 0.549827 0.976254
O O1 0.896357 0.672686 0.879288
O O2 0.742849 0.908399 0.373598
O O3 0.612974 0.087793 0.527712
O O4 0.000000 0.500000 0.000000
O O5 0.424911 0.261033 0.839151
O O6 0.753959 0.386765 0.574991
O O7 0.829226 0.789278 0.193354
O O8 0.500000 0.500000 0.500000
O O9 0.691641 0.294247 0.917731
O O10 0.919636 0.188939 0.783886
O O11 0.732450 0.667207 0.867123
O O12 0.500000 0.500000 0.000000
O O13 0.858876 0.359701 0.907689
O O14 0.500000 0.000000 0.500000
#
# Coordination Sequence:
#
# PCOD9001214 Si02
#       6
#     2   2   2   2   2   2
#     4  10  21  34  57  87 117 149 198 250 286 345
#     4   9  17  30  50  82 110 138 194 243 284 332
#     4   9  18  32  58  82 107 154 197 236 282 357
#     4  10  21  38  58  85 121 154 189 242 311 355
#     4   8  15  27  50  78 109 137 186 242 285 323
#     4   8  16  33  53  79 109 147 195 235 275 349
#
# _framework density 28.940026
#
# number of rings (size 3 to 8) (size 9 to 14) (size 15 to 20)
#    0.000    3.000    0.000    1.000    9.333    0.000 
#    0.000    1.667    0.000    4.000    0.000    0.000 
#    0.000    0.000    0.000    0.000    0.000    0.000 
#
# Total GULP energy -66880.515037 kJ/mol
# GULP energy per Si atom -5573.376253 kJ/mol
# Density = 2.887416 g / cm^3
# Si number density = 28.940026 Si / 1000 Ang^3
#
#
#
# Elastic Constant Matrix: (Units=GPa)
#
#
# Indices 1 2 3 4 5 6 
#
# 1 361.6108 73.3673 49.8307 -8.2670 -27.9891 14.5349
# 2 73.3673 150.3074 41.4465 2.9695 -15.7045 8.7088
# 3 49.8307 41.4465 90.9867 17.5203 3.0275 10.7326
# 4 -8.2670 2.9695 17.5203 39.3627 4.4075 -8.3881
# 5 -27.9891 -15.7045 3.0275 4.4075 66.1900 -1.4189
# 6 14.5349 8.7088 10.7326 -8.3881 -1.4189 57.7899
#
#
#
# Elastic Compliance Matrix: (Units=1/GPa)
#
#
# Indices 1 2 3 4 5 6 
#
# 1 0.003331 -0.001081 -0.001609 0.001337 0.001133 -0.000154
# 2 -0.001081 0.008258 -0.003261 0.000361 0.001621 -0.000275
# 3 -0.001609 -0.003261 0.015176 -0.007298 -0.001727 -0.003024
# 4 0.001337 0.000361 -0.007298 0.030142 -0.000908 0.005317
# 5 0.001133 0.001621 -0.001727 -0.000908 0.016113 0.000055
# 6 -0.000154 -0.000275 -0.003024 0.005317 0.000055 0.018719
#
#
# Mechanical properties :
#
#
# Convention : Reuss Voigt Hill
#
# Bulk Modulus (GPa) = 67.27630 103.57712 85.42671
# Shear Modulus (GPa) = 46.04271 61.88588 53.96430
#
# Velocity S-wave (km/s) = 3.99302 4.62932 4.32290
# Velocity P-wave (km/s) = 6.67505 8.02758 7.38236
#
# Compressibility (1/GPa) = 0.01486408
#
# Stress axis : x y z
#
# Youngs Moduli (GPa) = 300.21207 121.09241 65.89154
#
# Poissons Ratio (x) = 0.13095 0.10600
# Poissons Ratio (y) = 0.32465 0.21485
# Poissons Ratio (z) = 0.48297 0.39484
#
# Static dielectric constant tensor:
#      x y z
#    x 2.704280 0.018550 -0.570740 
#    y 0.018550 2.297640 -0.214680 
#    z -0.570740 -0.214680 3.099730 
# 
# From -- ./inp_files/161291.got.cif
#   From: 2010.05.17/outbox.cif.g08.bks.cpg/sg2_81_cif.got.tgz:161291.got - 2010.06.03 11:33:40.
