data_PCOD9001107
_publ_section_title
;
Structure prediction by ZEFSAII (Michael W. Deem and Ramdas Pophale) SiO2 
 PCOD9001107
Probable space group: P -1
;
_chemical_formula_sum "Si O2"
_cell_formula_units_Z 16
_cell_length_a 14.805499
_cell_length_b 16.320473
_cell_length_c 15.530639
_cell_angle_alpha 151.620085
_cell_angle_beta 151.855780
_cell_angle_gamma 34.004483
_cell_volume 817.334593
_symmetry_space_group_name_H-M "P -1"
_symmetry_group_IT_number 2
_symmetry_cell_setting 'triclinic'
loop_
_space_group_symop_operation_xyz
x,y,z
-x,-y,-z
loop_
_atom_site_type_symbol
_atom_site_label
_atom_site_fract_x
_atom_site_fract_y
_atom_site_fract_z
Si Si1 0.811918 0.126436 0.844545
Si Si2 0.521939 0.151898 0.049469
Si Si3 0.134378 0.210013 0.302224
Si Si4 0.435284 0.516231 0.217670
Si Si5 0.424069 0.409860 0.773023
Si Si6 0.364772 0.178703 0.291048
Si Si7 0.842905 0.944158 0.253573
Si Si8 0.978307 0.271362 0.958766
O O1 0.583910 0.219851 0.729120
O O2 0.908952 0.134867 0.840357
O O3 0.848772 0.937784 0.746816
O O4 0.922014 0.238318 0.104620
O O5 0.504817 0.346835 0.178661
O O6 0.696900 0.098419 0.217487
O O7 0.313808 0.140688 0.905803
O O8 0.567570 0.000830 0.873157
O O9 0.210434 0.370651 0.555255
O O10 0.283511 0.145185 0.286374
O O11 0.548388 0.486573 0.194583
O O12 0.478471 0.700310 0.459235
O O13 0.202659 0.559328 0.042667
O O14 0.500000 0.500000 0.000000
O O15 0.176251 0.299090 0.194389
O O16 0.964869 0.811456 0.162816
O O17 0.000000 0.000000 0.500000
#
# Coordination Sequence:
#
# PCOD9001107 Si02
#       8
#     2   2   2   2   2   2   2   2
#     4   9  18  34  56  79 105 148 196 222 274 344
#     4  10  22  38  61  88 111 146 195 232 281 347
#     4   9  18  34  57  78 108 152 188 227 277 333
#     4  10  21  38  58  85 115 152 191 228 284 341
#     4  10  21  34  50  82 120 145 182 235 278 326
#     4   9  19  37  59  81 117 152 184 237 281 329
#     4  10  21  40  59  85 117 144 186 243 288 334
#     4   9  19  37  57  80 116 149 185 236 285 334
#
# _framework density 19.575827
#
# number of rings (size 3 to 8) (size 9 to 14) (size 15 to 20)
#    0.000    2.500    0.000    1.125    1.750    2.000 
#    2.250    8.750    0.000    0.000    0.000    0.000 
#    0.000    0.000    0.000    0.000    0.000    0.000 
#
# Total GULP energy -89205.192502 kJ/mol
# GULP energy per Si atom -5575.324531 kJ/mol
# Density = 1.953127 g / cm^3
# Si number density = 19.575827 Si / 1000 Ang^3
#
#
#
# Elastic Constant Matrix: (Units=GPa)
#
#
# Indices 1 2 3 4 5 6 
#
# 1 42.8460 30.0914 38.9673 2.3769 -4.7543 14.6693
# 2 30.0914 79.2973 32.4941 -4.2343 14.4459 20.3178
# 3 38.9673 32.4941 95.7395 -23.1405 -4.8991 3.8449
# 4 2.3769 -4.2343 -23.1405 25.1175 0.5530 2.7686
# 5 -4.7543 14.4459 -4.8991 0.5530 23.4836 -6.5005
# 6 14.6693 20.3178 3.8449 2.7686 -6.5005 26.6683
#
#
#
# Elastic Compliance Matrix: (Units=1/GPa)
#
#
# Indices 1 2 3 4 5 6 
#
# 1 0.071531 -0.013780 -0.032044 -0.036969 0.012332 -0.017384
# 2 -0.013780 0.031204 -0.004094 0.006022 -0.029461 -0.023410
# 3 -0.032044 -0.004094 0.031838 0.029943 0.005983 0.014505
# 4 -0.036969 0.006022 0.029943 0.071764 -0.005930 0.002535
# 5 0.012332 -0.029461 0.005983 -0.005930 0.073840 0.033414
# 6 -0.017384 -0.023410 0.014505 0.002535 0.033414 0.070686
#
#
# Mechanical properties :
#
#
# Convention : Reuss Voigt Hill
#
# Bulk Modulus (GPa) = 28.78683 46.77648 37.78166
# Shear Modulus (GPa) = 10.81600 22.80922 16.81261
#
# Velocity S-wave (km/s) = 2.35312 3.41717 2.93379
# Velocity P-wave (km/s) = 4.70320 6.28620 5.55141
#
# Compressibility (1/GPa) = 0.03473811
#
# Stress axis : x y z
#
# Youngs Moduli (GPa) = 13.97989 32.04678 31.40926
#
# Poissons Ratio (x) = 0.44161 1.00646
# Poissons Ratio (y) = 0.19264 0.12859
# Poissons Ratio (z) = 0.44797 0.13120
#
# Static dielectric constant tensor:
#      x y z
#    x 1.699790 -0.012210 -0.012660 
#    y -0.012210 1.662720 -0.016880 
#    z -0.012660 -0.016880 1.697930 
# 
# From -- ./inp_files/53312.got.cif
#   From: 2010.05.17/outbox.cif.g08.bks.cpg/sg2_27_cif.got.tgz:53312.got - 2010.06.03 11:33:40.
