data_PCOD9001518
_publ_section_title
;
Structure prediction by ZEFSAII (Michael W. Deem and Ramdas Pophale) SiO2 
 PCOD9001518
Probable space group: P -1
;
_chemical_formula_sum "Si O2"
_cell_formula_units_Z 16
_cell_length_a 25.928346
_cell_length_b 6.670951
_cell_length_c 5.339661
_cell_angle_alpha 111.152163
_cell_angle_beta 124.539335
_cell_angle_gamma 61.221016
_cell_volume 661.861001
_symmetry_space_group_name_H-M "P -1"
_symmetry_group_IT_number 2
_symmetry_cell_setting 'triclinic'
loop_
_space_group_symop_operation_xyz
x,y,z
-x,-y,-z
loop_
_atom_site_type_symbol
_atom_site_label
_atom_site_fract_x
_atom_site_fract_y
_atom_site_fract_z
Si Si1 0.150414 0.167335 0.733272
Si Si2 0.921073 0.581229 0.858850
Si Si3 0.264110 0.194560 0.359932
Si Si4 0.722299 0.301198 0.635498
Si Si5 0.396860 0.722936 0.990536
Si Si6 0.488307 0.255314 0.993975
Si Si7 0.825938 0.335641 0.571313
Si Si8 0.373779 0.228130 0.363832
O O1 0.114902 0.281054 0.428436
O O2 0.170677 0.892855 0.661741
O O3 0.103587 0.264860 0.890320
O O4 0.216980 0.225208 0.997979
O O5 0.896966 0.366823 0.755653
O O6 0.000000 0.500000 0.000000
O O7 0.223758 0.407115 0.521571
O O8 0.335241 0.210340 0.506624
O O9 0.269835 0.944337 0.345800
O O10 0.792603 0.306522 0.732242
O O11 0.678856 0.528863 0.773698
O O12 0.673422 0.304325 0.267630
O O13 0.441411 0.721807 0.866117
O O14 0.385108 0.977796 0.171776
O O15 0.443846 0.479367 0.131881
O O16 0.443072 0.261053 0.625328
O O17 0.500000 0.000000 0.000000
#
# Coordination Sequence:
#
# PCOD9001518 Si02
#       8
#     2   2   2   2   2   2   2   2
#     4  11  24  43  69 100 134 175 220 267 323 385
#     4  11  26  46  69 101 137 174 220 269 320 386
#     4  10  22  39  63  95 130 165 214 270 323 390
#     4  10  21  39  60  91 124 161 210 264 324 386
#     4  10  21  36  54  80 116 154 207 267 320 390
#     4  10  21  36  53  77 112 157 208 264 325 388
#     4  10  22  40  66  93 129 169 211 262 321 382
#     4  10  21  35  57  86 118 161 208 262 330 389
#
# _framework density 24.174261000000001
#
# number of rings (size 3 to 8) (size 9 to 14) (size 15 to 20)
#    0.000    1.750    0.000    3.750    0.000    8.500 
#    0.000    0.000    0.000    0.000    0.000    0.000 
#    0.000    0.000    0.000    0.000    0.000    0.000 
#
# Total GULP energy -89252.928113 kJ/mol
# GULP energy per Si atom -5578.308007 kJ/mol
# Density = 2.411924 g / cm^3
# Si number density = 24.174261 Si / 1000 Ang^3
#
#
#
# Elastic Constant Matrix: (Units=GPa)
#
#
# Indices 1 2 3 4 5 6 
#
# 1 100.5297 28.3358 24.3216 1.7829 6.4105 18.7009
# 2 28.3358 193.0001 58.2910 37.9450 -6.6965 25.4547
# 3 24.3216 58.2910 86.0330 12.6883 -1.4695 2.0452
# 4 1.7829 37.9450 12.6883 53.6625 5.9048 -1.2131
# 5 6.4105 -6.6965 -1.4695 5.9048 34.1703 12.4127
# 6 18.7009 25.4547 2.0452 -1.2131 12.4127 34.4629
#
#
#
# Elastic Compliance Matrix: (Units=1/GPa)
#
#
# Indices 1 2 3 4 5 6 
#
# 1 0.011893 -0.000003 -0.003253 0.000255 -0.000168 -0.006189
# 2 -0.000003 0.009335 -0.005087 -0.006254 0.005944 -0.008952
# 3 -0.003253 -0.005087 0.015799 0.000267 -0.001636 0.005184
# 4 0.000255 -0.006254 0.000267 0.024106 -0.008466 0.008363
# 5 -0.000168 0.005944 -0.001636 -0.008466 0.038530 -0.018378
# 6 -0.006189 -0.008952 0.005184 0.008363 -0.018378 0.045593
#
#
# Mechanical properties :
#
#
# Convention : Reuss Voigt Hill
#
# Bulk Modulus (GPa) = 49.16485 66.82884 57.99685
# Shear Modulus (GPa) = 29.63437 42.36677 36.00057
#
# Velocity S-wave (km/s) = 3.50503 4.19090 3.86322
# Velocity P-wave (km/s) = 6.06318 7.15002 6.62891
#
# Compressibility (1/GPa) = 0.02033973
#
# Stress axis : x y z
#
# Youngs Moduli (GPa) = 84.08529 107.12618 63.29376
#
# Poissons Ratio (x) = 0.00034 0.20591
# Poissons Ratio (y) = 0.00027 0.32198
# Poissons Ratio (z) = 0.27355 0.54496
#
# Static dielectric constant tensor:
#      x y z
#    x 1.929000 -0.023270 -0.028060 
#    y -0.023270 1.985670 -0.051180 
#    z -0.028060 -0.051180 1.997880 
# 
# From -- ./inp_files/125924.got.cif
#   From: 2010.05.17/outbox.cif.g08.bks.cpg/sg2_63_cif.got.tgz:125924.got - 2010.06.03 11:33:40.
