data_PCOD9001319
_publ_section_title
;
Structure prediction by ZEFSAII (Michael W. Deem and Ramdas Pophale) SiO2 
 PCOD9001319
Probable space group: P -1
;
_chemical_formula_sum "Si O2"
_cell_formula_units_Z 13
_cell_length_a 12.288992
_cell_length_b 9.734754
_cell_length_c 10.179530
_cell_angle_alpha 32.513624
_cell_angle_beta 52.804703
_cell_angle_gamma 59.293726
_cell_volume 521.405767
_symmetry_space_group_name_H-M "P -1"
_symmetry_group_IT_number 2
_symmetry_cell_setting 'triclinic'
loop_
_space_group_symop_operation_xyz
x,y,z
-x,-y,-z
loop_
_atom_site_type_symbol
_atom_site_label
_atom_site_fract_x
_atom_site_fract_y
_atom_site_fract_z
Si Si1 0.736413 0.393459 0.093181
Si Si2 0.979150 0.304598 0.796076
Si Si3 0.500000 0.500000 0.500000
Si Si4 0.682483 0.940754 0.643467
Si Si5 0.756321 0.735641 0.219516
Si Si6 0.588523 0.667728 0.663842
Si Si7 0.417222 0.843130 0.036102
O O1 0.575675 0.321626 0.243519
O O2 0.772607 0.183524 0.346740
O O3 0.834365 0.344930 0.937863
O O4 0.743912 0.696616 0.870608
O O5 0.000000 0.500000 0.500000
O O6 0.095212 0.356069 0.779356
O O7 0.000000 0.000000 0.000000
O O8 0.664726 0.552165 0.347900
O O9 0.483160 0.684971 0.232455
O O10 0.639218 0.806701 0.644537
O O11 0.541567 0.028110 0.748754
O O12 0.677888 0.760487 0.399489
O O13 0.723603 0.010270 0.957437
O O14 0.610262 0.363596 0.889651
#
# Coordination Sequence:
#
# PCOD9001319 Si02
#       7
#     2   2   1   2   2   2   2
#     4  11  21  38  54  90 126 171 203 258 321 396
#     4  12  28  41  63  98 144 179 208 262 343 413
#     4  10  24  42  66  92 130 176 232 280 320 376
#     4  11  22  35  65  92 131 164 222 267 328 385
#     4  11  23  42  67  95 134 172 226 272 327 393
#     4  10  21  34  63  92 128 162 219 272 325 389
#     4  10  21  38  63  98 120 171 220 287 319 376
#
# _framework density 24.932594999999999
#
# number of rings (size 3 to 8) (size 9 to 14) (size 15 to 20)
#    0.000    1.231    1.538    5.538   10.769    0.000 
#    0.000    0.000    0.000    9.231    0.000    0.000 
#    0.000    0.000    0.000    0.000    0.000    0.000 
#
# Total GULP energy -72383.421703 kJ/mol
# GULP energy per Si atom -5567.955516 kJ/mol
# Density = 2.487585 g / cm^3
# Si number density = 24.932595 Si / 1000 Ang^3
#
#
#
# Elastic Constant Matrix: (Units=GPa)
#
#
# Indices 1 2 3 4 5 6 
#
# 1 125.1571 15.0744 19.0354 -6.3981 4.6430 -15.7549
# 2 15.0744 97.0215 25.8025 10.9515 -2.2728 -11.1755
# 3 19.0354 25.8025 173.4184 -6.3848 27.5757 -15.2926
# 4 -6.3981 10.9515 -6.3848 36.6124 3.2261 0.8229
# 5 4.6430 -2.2728 27.5757 3.2261 32.1571 -1.0880
# 6 -15.7549 -11.1755 -15.2926 0.8229 -1.0880 39.8111
#
#
#
# Elastic Compliance Matrix: (Units=1/GPa)
#
#
# Indices 1 2 3 4 5 6 
#
# 1 0.008681 -0.001181 -0.000259 0.001865 -0.001203 0.002933
# 2 -0.001181 0.011905 -0.002147 -0.004490 0.003379 0.002235
# 3 -0.000259 -0.002147 0.007434 0.002438 -0.006669 0.001918
# 4 0.001865 -0.004490 0.002438 0.029917 -0.005691 -0.000360
# 5 -0.001203 0.003379 -0.006669 -0.005691 0.037767 -0.000939
# 6 0.002933 0.002235 0.001918 -0.000360 -0.000939 0.027625
#
#
# Mechanical properties :
#
#
# Convention : Reuss Voigt Hill
#
# Bulk Modulus (GPa) = 47.97118 57.26907 52.62013
# Shear Modulus (GPa) = 36.37676 44.09509 40.23593
#
# Velocity S-wave (km/s) = 3.82384 4.21000 4.02156
# Velocity P-wave (km/s) = 6.22718 6.83020 6.53565
#
# Compressibility (1/GPa) = 0.02084585
#
# Stress axis : x y z
#
# Youngs Moduli (GPa) = 115.19795 83.99896 134.52573
#
# Poissons Ratio (x) = 0.09919 0.03478
# Poissons Ratio (y) = 0.13603 0.28886
# Poissons Ratio (z) = 0.02978 0.18037
#
# Static dielectric constant tensor:
#      x y z
#    x 2.115940 0.199400 -0.022830 
#    y 0.199400 2.301660 -0.220980 
#    z -0.022830 -0.220980 2.220650 
# 
# From -- ./inp_files/65035.got.cif
#   From: 2010.05.17/outbox.cif.g08.bks.cpg/sg2_33_cif.got.tgz:65035.got - 2010.06.03 11:33:40.
