data_PCOD9001590
_publ_section_title
;
Structure prediction by ZEFSAII (Michael W. Deem and Ramdas Pophale) SiO2 
 PCOD9001590
Probable space group: P -1
;
_chemical_formula_sum "Si O2"
_cell_formula_units_Z 12
_cell_length_a 13.403386
_cell_length_b 9.960130
_cell_length_c 9.761627
_cell_angle_alpha 136.262168
_cell_angle_beta 147.013402
_cell_angle_gamma 50.567111
_cell_volume 489.050043
_symmetry_space_group_name_H-M "P -1"
_symmetry_group_IT_number 2
_symmetry_cell_setting 'triclinic'
loop_
_space_group_symop_operation_xyz
x,y,z
-x,-y,-z
loop_
_atom_site_type_symbol
_atom_site_label
_atom_site_fract_x
_atom_site_fract_y
_atom_site_fract_z
Si Si1 0.101887 0.151427 0.076287
Si Si2 0.610256 0.928768 0.439439
Si Si3 0.914586 0.269383 0.377942
Si Si4 0.680626 0.307482 0.675856
Si Si5 0.292680 0.436637 0.859898
Si Si6 0.808868 0.477975 0.683653
O O1 0.897296 0.253185 0.920923
O O2 0.817017 0.891643 0.711419
O O3 0.106244 0.953540 0.849620
O O4 0.226096 0.309934 0.268530
O O5 0.572106 0.723544 0.178857
O O6 0.500000 0.000000 0.500000
O O7 0.596653 0.100602 0.440469
O O8 0.802471 0.410171 0.244236
O O9 0.844440 0.325035 0.489560
O O10 0.126948 0.321555 0.649136
O O11 0.678370 0.403847 0.595906
O O12 0.615694 0.449512 0.829496
O O13 0.000000 0.500000 0.000000
#
# Coordination Sequence:
#
# PCOD9001590 Si02
#       6
#     2   2   2   2   2   2
#     4  11  20  38  63  88 121 154 195 245 296 353
#     4  12  25  40  60  88 120 161 205 245 290 353
#     4  11  19  33  65  93 118 155 192 246 304 347
#     4  11  22  39  63  95 118 151 199 254 294 348
#     4  11  20  35  62  89 117 155 200 242 293 349
#     4  10  21  35  58  98 125 146 189 253 308 342
#
# _framework density 24.537367
#
# number of rings (size 3 to 8) (size 9 to 14) (size 15 to 20)
#    0.000    1.000    8.333    1.500    0.000    4.667 
#    0.000    0.833    0.000    2.000    0.000    0.000 
#    0.000    0.000    0.000    0.000    0.000    0.000 
#
# Total GULP energy -67255.796615 kJ/mol
# GULP energy per Si atom -5604.649718 kJ/mol
# Density = 2.448152 g / cm^3
# Si number density = 24.537367 Si / 1000 Ang^3
#
#
#
# Elastic Constant Matrix: (Units=GPa)
#
#
# Indices 1 2 3 4 5 6 
#
# 1 107.9729 44.4431 30.6744 12.0305 -21.9009 3.3124
# 2 44.4431 77.5234 49.0238 25.4508 -11.6031 15.8216
# 3 30.6744 49.0238 135.3848 32.1908 -40.1946 -5.7098
# 4 12.0305 25.4508 32.1908 55.4201 -6.7273 -0.8541
# 5 -21.9009 -11.6031 -40.1946 -6.7273 52.8664 0.3621
# 6 3.3124 15.8216 -5.7098 -0.8541 0.3621 45.9920
#
#
#
# Elastic Compliance Matrix: (Units=1/GPa)
#
#
# Indices 1 2 3 4 5 6 
#
# 1 0.013122 -0.008360 0.001349 0.000812 0.004716 0.002076
# 2 -0.008360 0.025847 -0.007656 -0.006279 -0.004346 -0.009322
# 3 0.001349 -0.007656 0.013398 -0.003453 0.008598 0.004068
# 4 0.000812 -0.006279 -0.003453 0.022693 -0.000794 0.002101
# 5 0.004716 -0.004346 0.008598 -0.000794 0.026338 0.002001
# 6 0.002076 -0.009322 0.004068 0.002101 0.002001 0.025329
#
#
# Mechanical properties :
#
#
# Convention : Reuss Voigt Hill
#
# Bulk Modulus (GPa) = 43.41553 63.24042 53.32797
# Shear Modulus (GPa) = 30.53670 43.97167 37.25418
#
# Velocity S-wave (km/s) = 3.53157 4.23783 3.90072
# Velocity P-wave (km/s) = 5.86186 7.05512 6.48599
#
# Compressibility (1/GPa) = 0.02303323
#
# Stress axis : x y z
#
# Youngs Moduli (GPa) = 76.20880 38.68957 74.63704
#
# Poissons Ratio (x) = 0.32344 -0.10067
# Poissons Ratio (y) = 0.63710 0.57139
# Poissons Ratio (z) = -0.10279 0.29619
#
# Static dielectric constant tensor:
#      x y z
#    x 2.107590 -0.031500 0.089840 
#    y -0.031500 1.949260 0.025280 
#    z 0.089840 0.025280 1.929710 
# 
# From -- ./inp_files/236267.got.cif
#   From: 2010.05.17/outbox.cif.g08.bks.cpg/sg2_119_cif.got.tgz:236267.got - 2010.06.03 11:33:40.
