data_PCOD9001498
_publ_section_title
;
Structure prediction by ZEFSAII (Michael W. Deem and Ramdas Pophale) SiO2 
 PCOD9001498
Probable space group: P -1
;
_chemical_formula_sum "Si O2"
_cell_formula_units_Z 14
_cell_length_a 9.290763
_cell_length_b 19.518541
_cell_length_c 4.956778
_cell_angle_alpha 70.303801
_cell_angle_beta 59.005421
_cell_angle_gamma 40.945795
_cell_volume 502.799473
_symmetry_space_group_name_H-M "P -1"
_symmetry_group_IT_number 2
_symmetry_cell_setting 'triclinic'
loop_
_space_group_symop_operation_xyz
x,y,z
-x,-y,-z
loop_
_atom_site_type_symbol
_atom_site_label
_atom_site_fract_x
_atom_site_fract_y
_atom_site_fract_z
Si Si1 0.570770 0.170066 0.472937
Si Si2 0.782780 0.902542 0.815876
Si Si3 0.827569 0.136380 0.785557
Si Si4 0.466883 0.622583 0.281789
Si Si5 0.174916 0.403059 0.664258
Si Si6 0.788859 0.411198 0.025800
Si Si7 0.136504 0.211464 0.626342
O O1 0.659803 0.144347 0.727145
O O2 0.400815 0.295132 0.438944
O O3 0.387980 0.165631 0.556246
O O4 0.795907 0.109721 0.138240
O O5 0.824983 0.823634 0.669388
O O6 0.914361 0.929267 0.512758
O O7 0.901192 0.845798 0.062925
O O8 0.500000 0.000000 0.000000
O O9 0.708684 0.254767 0.762609
O O10 0.701185 0.584088 0.254649
O O11 0.580433 0.538396 0.042196
O O12 0.326656 0.612732 0.635492
O O13 0.000000 0.500000 0.500000
O O14 0.020793 0.383415 0.957184
O O15 0.916934 0.334613 0.744143
#
# Coordination Sequence:
#
# PCOD9001498 Si02
#       7
#     2   2   2   2   2   2   2
#     4  10  23  41  69  97 132 181 219 279 335 396
#     4  12  26  46  72  98 132 175 221 284 352 410
#     4  11  22  44  67  97 137 176 226 273 336 401
#     4  10  21  38  62  93 138 179 232 262 336 389
#     4  10  21  35  56  91 140 180 226 269 328 386
#     4  10  21  38  60  97 129 184 219 276 319 404
#     4  11  24  46  68 101 137 171 227 280 338 404
#
# _framework density 27.844100999999998
#
# number of rings (size 3 to 8) (size 9 to 14) (size 15 to 20)
#    0.000    1.429    1.429    3.429    2.000    5.143 
#    0.000    4.286    0.000    0.000    0.000    0.000 
#    0.000    0.000    0.000    0.000    0.000    0.000 
#
# Total GULP energy -78561.693164 kJ/mol
# GULP energy per Si atom -5611.549512 kJ/mol
# Density = 2.778073 g / cm^3
# Si number density = 27.844101 Si / 1000 Ang^3
#
#
#
# Elastic Constant Matrix: (Units=GPa)
#
#
# Indices 1 2 3 4 5 6 
#
# 1 137.1128 28.1258 36.9392 8.0269 -15.0787 -2.7859
# 2 28.1258 128.0136 36.7815 28.3441 1.8317 0.2142
# 3 36.9392 36.7815 136.6602 14.9291 -14.1573 10.0600
# 4 8.0269 28.3441 14.9291 56.1788 -5.3824 -14.0793
# 5 -15.0787 1.8317 -14.1573 -5.3824 54.5638 -3.7984
# 6 -2.7859 0.2142 10.0600 -14.0793 -3.7984 30.2841
#
#
#
# Elastic Compliance Matrix: (Units=1/GPa)
#
#
# Indices 1 2 3 4 5 6 
#
# 1 0.008328 -0.001497 -0.001864 0.000765 0.002083 0.002013
# 2 -0.001497 0.009764 -0.001708 -0.004981 -0.001828 -0.002184
# 3 -0.001864 -0.001708 0.008943 -0.002102 0.001381 -0.003934
# 4 0.000765 -0.004981 -0.002102 0.024173 0.003083 0.012429
# 5 0.002083 -0.001828 0.001381 0.003083 0.019882 0.003673
# 6 0.002013 -0.002184 -0.003934 0.012429 0.003673 0.040767
#
#
# Mechanical properties :
#
#
# Convention : Reuss Voigt Hill
#
# Bulk Modulus (GPa) = 59.17814 67.27552 63.22683
# Shear Modulus (GPa) = 39.17663 48.20133 43.68898
#
# Velocity S-wave (km/s) = 3.75507 4.16518 3.96543
# Velocity P-wave (km/s) = 6.33248 6.88081 6.61233
#
# Compressibility (1/GPa) = 0.01689813
#
# Stress axis : x y z
#
# Youngs Moduli (GPa) = 120.08121 102.41833 111.81555
#
# Poissons Ratio (x) = 0.15328 0.20843
# Poissons Ratio (y) = 0.17971 0.19096
# Poissons Ratio (z) = 0.22383 0.17491
#
# Static dielectric constant tensor:
#      x y z
#    x 2.154060 0.032400 -0.060020 
#    y 0.032400 2.239080 0.009240 
#    z -0.060020 0.009240 2.111310 
# 
# From -- ./inp_files/81287.got.cif
#   From: 2010.05.17/outbox.cif.g08.bks.cpg/sg2_41_cif.got.tgz:81287.got - 2010.06.03 11:33:40.
