data_PCOD9001545
_publ_section_title
;
Structure prediction by ZEFSAII (Michael W. Deem and Ramdas Pophale) SiO2 
 PCOD9001545
Probable space group: P -1
;
_chemical_formula_sum "Si O2"
_cell_formula_units_Z 16
_cell_length_a 17.854873
_cell_length_b 5.631824
_cell_length_c 8.091296
_cell_angle_alpha 121.902146
_cell_angle_beta 64.951162
_cell_angle_gamma 111.017484
_cell_volume 616.061648
_symmetry_space_group_name_H-M "P -1"
_symmetry_group_IT_number 2
_symmetry_cell_setting 'triclinic'
loop_
_space_group_symop_operation_xyz
x,y,z
-x,-y,-z
loop_
_atom_site_type_symbol
_atom_site_label
_atom_site_fract_x
_atom_site_fract_y
_atom_site_fract_z
Si Si1 0.367615 0.854602 0.149347
Si Si2 0.742192 0.338741 0.263504
Si Si3 0.638718 0.534222 0.693640
Si Si4 0.129039 0.593741 0.524894
Si Si5 0.990283 0.270129 0.721008
Si Si6 0.843022 0.937184 0.907815
Si Si7 0.512219 0.330336 0.261472
Si Si8 0.867590 0.814498 0.204638
O O1 0.331439 0.620505 0.231937
O O2 0.324622 0.128237 0.247322
O O3 0.454211 0.019495 0.213532
O O4 0.397051 0.707888 0.903496
O O5 0.659100 0.367754 0.448779
O O6 0.810444 0.409429 0.375429
O O7 0.780468 0.592628 0.199711
O O8 0.755433 0.038912 0.068414
O O9 0.538929 0.532106 0.782582
O O10 0.146226 0.917378 0.571324
O O11 0.033075 0.524643 0.656941
O O12 0.149239 0.353028 0.296492
O O13 0.051917 0.281121 0.824592
O O14 0.000000 0.000000 0.500000
O O15 0.895959 0.194710 0.846139
O O16 0.885119 0.916989 0.039652
O O17 0.500000 0.500000 0.500000
#
# Coordination Sequence:
#
# PCOD9001545 Si02
#       8
#     2   2   2   2   2   2   2   2
#     4   9  21  39  61  91 121 160 196 243 294 346
#     4  10  23  39  55  79 117 154 191 239 292 355
#     4  10  21  41  63  83 131 161 199 242 299 352
#     4   9  21  38  56  79 110 147 192 243 297 361
#     4   9  19  35  55  81 109 145 187 245 302 356
#     4  10  21  36  56  81 111 144 195 243 297 360
#     4   9  20  38  65  96 123 154 200 248 292 346
#     4  10  21  35  58  80 109 146 194 240 301 342
#
# _framework density 25.971425
#
# number of rings (size 3 to 8) (size 9 to 14) (size 15 to 20)
#    0.750    1.750    0.000    0.750    3.500   11.000 
#    2.250    1.250    0.000    0.000    0.000    0.000 
#    0.000    0.000    0.000    0.000    0.000    0.000 
#
# Total GULP energy -89321.128813 kJ/mol
# GULP energy per Si atom -5582.570551 kJ/mol
# Density = 2.591231 g / cm^3
# Si number density = 25.971425 Si / 1000 Ang^3
#
#
#
# Elastic Constant Matrix: (Units=GPa)
#
#
# Indices 1 2 3 4 5 6 
#
# 1 44.5476 17.4196 14.9065 -0.5493 0.8699 -4.4660
# 2 17.4196 120.4556 51.3634 6.4187 -6.3202 -15.0744
# 3 14.9065 51.3634 186.8218 19.9043 -4.7628 -4.1651
# 4 -0.5493 6.4187 19.9043 43.5244 -1.2593 -1.1158
# 5 0.8699 -6.3202 -4.7628 -1.2593 44.6702 -0.4582
# 6 -4.4660 -15.0744 -4.1651 -1.1158 -0.4582 25.7466
#
#
#
# Elastic Compliance Matrix: (Units=1/GPa)
#
#
# Indices 1 2 3 4 5 6 
#
# 1 0.024240 -0.002777 -0.001283 0.001337 -0.000939 0.002412
# 2 -0.002777 0.010509 -0.002487 -0.000274 0.001322 0.005280
# 3 -0.001283 -0.002487 0.006405 -0.002590 0.000275 -0.000750
# 4 0.001337 -0.000274 -0.002590 0.024246 0.000350 0.000710
# 5 -0.000939 0.001322 0.000275 0.000350 0.022642 0.001074
# 6 0.002412 0.005280 -0.000750 0.000710 0.001074 0.042279
#
#
# Mechanical properties :
#
#
# Convention : Reuss Voigt Hill
#
# Bulk Modulus (GPa) = 35.63877 57.68932 46.66404
# Shear Modulus (GPa) = 32.72960 40.66395 36.69678
#
# Velocity S-wave (km/s) = 3.55380 3.96121 3.76302
# Velocity P-wave (km/s) = 5.53095 6.57133 6.07346
#
# Compressibility (1/GPa) = 0.02805933
#
# Stress axis : x y z
#
# Youngs Moduli (GPa) = 41.25442 95.15976 156.12637
#
# Poissons Ratio (x) = 0.26425 0.20035
# Poissons Ratio (y) = 0.11456 0.38829
# Poissons Ratio (z) = 0.05294 0.23666
#
# Static dielectric constant tensor:
#      x y z
#    x 2.089110 -0.003680 -0.022990 
#    y -0.003680 2.073750 0.002870 
#    z -0.022990 0.002870 2.055630 
# 
# From -- ./inp_files/356078.got.cif
#   From: 2010.05.17/outbox.cif.g08.bks.cpg/sg2_179_cif.got.tgz:356078.got - 2010.06.03 11:33:40.
