data_PCOD9001229
_publ_section_title
;
Structure prediction by ZEFSAII (Michael W. Deem and Ramdas Pophale) SiO2 
 PCOD9001229
Probable space group: P -1
;
_chemical_formula_sum "Si O2"
_cell_formula_units_Z 16
_cell_length_a 10.312893
_cell_length_b 18.174318
_cell_length_c 11.868009
_cell_angle_alpha 26.868266
_cell_angle_beta 141.632755
_cell_angle_gamma 135.823651
_cell_volume 622.736640
_symmetry_space_group_name_H-M "P -1"
_symmetry_group_IT_number 2
_symmetry_cell_setting 'triclinic'
loop_
_space_group_symop_operation_xyz
x,y,z
-x,-y,-z
loop_
_atom_site_type_symbol
_atom_site_label
_atom_site_fract_x
_atom_site_fract_y
_atom_site_fract_z
Si Si1 0.779705 0.131946 0.061451
Si Si2 0.879666 0.659988 0.844549
Si Si3 0.974118 0.701698 0.589139
Si Si4 0.256019 0.020409 0.328207
Si Si5 0.141762 0.840165 0.169922
Si Si6 0.571644 0.005332 0.298074
Si Si7 0.409789 0.608425 0.563177
Si Si8 0.434575 0.354147 0.742924
O O1 0.842631 0.072322 0.062750
O O2 0.664641 0.999023 0.244475
O O3 0.967934 0.225047 0.131242
O O4 0.618533 0.265766 0.731674
O O5 0.632606 0.645676 0.722775
O O6 0.911958 0.706104 0.672063
O O7 0.953818 0.476351 0.149526
O O8 0.147076 0.841249 0.487744
O O9 0.776416 0.723793 0.346684
O O10 0.279913 0.071752 0.405417
O O11 0.500000 0.000000 0.500000
O O12 0.098785 0.135377 0.998749
O O13 0.217619 0.658413 0.443509
O O14 0.335361 0.926198 0.252236
O O15 0.579362 0.201748 0.056626
O O16 0.411299 0.436055 0.737326
O O17 0.500000 0.500000 0.500000
#
# Coordination Sequence:
#
# PCOD9001229 Si02
#       8
#     2   2   2   2   2   2   2   2
#     4  10  21  34  58 101 130 153 192 254 333 391
#     4  11  19  34  63  98 129 161 196 256 348 377
#     4  11  20  36  61  93 130 163 212 264 302 379
#     4  12  28  45  62  87 125 180 231 255 288 370
#     4  10  25  41  59  92 130 162 211 259 318 389
#     4  12  22  39  68  90 128 174 199 260 324 372
#     4  10  22  34  58  94 136 157 190 256 330 396
#     4  12  18  36  61  99 133 155 200 259 329 391
#
# _framework density 25.693045000000001
#
# number of rings (size 3 to 8) (size 9 to 14) (size 15 to 20)
#    0.750    0.250    6.250    1.125    1.750    1.000 
#    0.000    0.000    0.000    6.000    0.000    0.000 
#    0.000    0.000    0.000    0.000    0.000    0.000 
#
# Total GULP energy -89496.403112 kJ/mol
# GULP energy per Si atom -5593.525194 kJ/mol
# Density = 2.563457 g / cm^3
# Si number density = 25.693045 Si / 1000 Ang^3
#
#
#
# Elastic Constant Matrix: (Units=GPa)
#
#
# Indices 1 2 3 4 5 6 
#
# 1 59.7644 26.0781 14.8791 1.4123 14.7468 7.9724
# 2 26.0781 158.6745 32.6506 28.8367 12.9192 1.5238
# 3 14.8791 32.6506 91.7384 26.3366 29.8313 -0.5189
# 4 1.4123 28.8367 26.3366 59.2760 -4.2696 11.8877
# 5 14.7468 12.9192 29.8313 -4.2696 38.1177 5.7340
# 6 7.9724 1.5238 -0.5189 11.8877 5.7340 32.2837
#
#
#
# Elastic Compliance Matrix: (Units=1/GPa)
#
#
# Indices 1 2 3 4 5 6 
#
# 1 0.020136 -0.003002 -0.001285 0.002168 -0.004802 -0.004797
# 2 -0.003002 0.007766 -0.000488 -0.004065 -0.001875 0.002197
# 3 -0.001285 -0.000488 0.020576 -0.011819 -0.018000 0.008220
# 4 0.002168 -0.004065 -0.011819 0.027815 0.014924 -0.013426
# 5 -0.004802 -0.001875 -0.018000 0.014924 0.046405 -0.012752
# 6 -0.004797 0.002197 0.008220 -0.013426 -0.012752 0.039397
#
#
# Mechanical properties :
#
#
# Convention : Reuss Voigt Hill
#
# Bulk Modulus (GPa) = 25.68874 50.82145 38.25509
# Shear Modulus (GPa) = 27.08250 41.70677 34.39464
#
# Velocity S-wave (km/s) = 3.25018 4.03335 3.66276
# Velocity P-wave (km/s) = 4.90968 6.44312 5.72794
#
# Compressibility (1/GPa) = 0.03892757
#
# Stress axis : x y z
#
# Youngs Moduli (GPa) = 49.66289 128.76063 48.60141
#
# Poissons Ratio (x) = 0.38650 0.06247
# Poissons Ratio (y) = 0.14907 0.02372
# Poissons Ratio (z) = 0.06383 0.06285
#
# Static dielectric constant tensor:
#      x y z
#    x 2.199950 -0.034820 0.064830 
#    y -0.034820 1.977020 -0.025270 
#    z 0.064830 -0.025270 2.009220 
# 
# From -- ./inp_files/523912.got.cif
#   From: 2010.05.17/outbox.cif.g08.bks.cpg/sg2_262_cif.got.tgz:523912.got - 2010.06.03 11:33:40.
