data_PCOD9001049
_publ_section_title
;
Structure prediction by ZEFSAII (Michael W. Deem and Ramdas Pophale) SiO2 
 PCOD9001049
Probable space group: P -1
;
_chemical_formula_sum "Si O2"
_cell_formula_units_Z 12
_cell_length_a 9.361005
_cell_length_b 9.155154
_cell_length_c 11.344471
_cell_angle_alpha 85.312471
_cell_angle_beta 44.505704
_cell_angle_gamma 62.215021
_cell_volume 551.466795
_symmetry_space_group_name_H-M "P -1"
_symmetry_group_IT_number 2
_symmetry_cell_setting 'triclinic'
loop_
_space_group_symop_operation_xyz
x,y,z
-x,-y,-z
loop_
_atom_site_type_symbol
_atom_site_label
_atom_site_fract_x
_atom_site_fract_y
_atom_site_fract_z
Si Si1 0.173886 0.096080 0.834357
Si Si2 0.186173 0.328709 0.982589
Si Si3 0.253628 0.955930 0.297037
Si Si4 0.020304 0.602663 0.256056
Si Si5 0.334710 0.238664 0.335840
Si Si6 0.286937 0.782406 0.046291
O O1 0.940783 0.103794 0.920487
O O2 0.485241 0.221414 0.794054
O O3 0.436364 0.905565 0.702886
O O4 0.130560 0.187935 0.982017
O O5 0.123967 0.415256 0.142665
O O6 0.174051 0.232588 0.731300
O O7 0.000000 0.500000 0.000000
O O8 0.265557 0.122652 0.309577
O O9 0.263883 0.907690 0.157111
O O10 0.000000 0.000000 0.500000
O O11 0.887540 0.625510 0.455052
O O12 0.227834 0.644775 0.139443
O O13 0.459052 0.303291 0.170777
#
# Coordination Sequence:
#
# PCOD9001049 Si02
#       6
#     2   2   2   2   2   2
#     4   8  18  35  57  81 114 154 191 229 281 339
#     4   9  19  38  62  82 114 155 187 235 285 342
#     4  11  21  38  60  86 113 152 193 235 287 337
#     4   9  19  34  58  80 111 148 193 224 288 328
#     4  11  19  36  57  81 120 150 189 235 283 339
#     4  10  21  33  57  87 112 146 196 236 280 334
#
# _framework density 21.760148000000001
#
# number of rings (size 3 to 8) (size 9 to 14) (size 15 to 20)
#    1.000    1.333    1.667    1.500    0.000    2.000 
#    0.000    1.667    7.333    0.000    0.000    0.000 
#    0.000    0.000    0.000    0.000    0.000    0.000 
#
# Total GULP energy -66896.695041 kJ/mol
# GULP energy per Si atom -5574.724587 kJ/mol
# Density = 2.171062 g / cm^3
# Si number density = 21.760148 Si / 1000 Ang^3
#
#
#
# Elastic Constant Matrix: (Units=GPa)
#
#
# Indices 1 2 3 4 5 6 
#
# 1 141.2523 38.4878 65.6253 6.4530 -7.9697 9.8417
# 2 38.4878 60.3997 62.1476 -3.4943 -5.3904 2.3810
# 3 65.6253 62.1476 209.3857 5.1750 1.4716 21.6033
# 4 6.4530 -3.4943 5.1750 33.2576 3.0969 1.9323
# 5 -7.9697 -5.3904 1.4716 3.0969 32.6708 4.4930
# 6 9.8417 2.3810 21.6033 1.9323 4.4930 40.9465
#
#
#
# Elastic Compliance Matrix: (Units=1/GPa)
#
#
# Indices 1 2 3 4 5 6 
#
# 1 0.009218 -0.004282 -0.001443 -0.002122 0.001990 -0.001323
# 2 -0.004282 0.026960 -0.007062 0.004334 0.002945 0.002660
# 3 -0.001443 -0.007062 0.007686 -0.001356 -0.001310 -0.003090
# 4 -0.002122 0.004334 -0.001356 0.031409 -0.002690 -0.000213
# 5 0.001990 0.002945 -0.001310 -0.002690 0.032359 -0.003382
# 6 -0.001323 0.002660 -0.003090 -0.000213 -0.003382 0.026597
#
#
# Mechanical properties :
#
#
# Convention : Reuss Voigt Hill
#
# Bulk Modulus (GPa) = 54.67642 82.61766 68.64704
# Shear Modulus (GPa) = 30.13848 37.69346 33.91597
#
# Velocity S-wave (km/s) = 3.72564 4.16652 3.95223
# Velocity P-wave (km/s) = 6.60973 7.82281 7.24172
#
# Compressibility (1/GPa) = 0.01828942
#
# Stress axis : x y z
#
# Youngs Moduli (GPa) = 108.48026 37.09168 130.10940
#
# Poissons Ratio (x) = 0.15883 0.18777
# Poissons Ratio (y) = 0.46452 0.91886
# Poissons Ratio (z) = 0.15656 0.26195
#
# Static dielectric constant tensor:
#      x y z
#    x 1.826710 -0.044950 0.011200 
#    y -0.044950 1.844210 -0.001030 
#    z 0.011200 -0.001030 1.788810 
# 
# From -- ./inp_files/248689.got.cif
#   From: 2010.05.17/outbox.cif.g08.bks.cpg/sg2_125_cif.got.tgz:248689.got - 2010.06.03 11:33:40.
