data_PCOD9001187
_publ_section_title
;
Structure prediction by ZEFSAII (Michael W. Deem and Ramdas Pophale) SiO2 
 PCOD9001187
Probable space group: P -1
;
_chemical_formula_sum "Si O2"
_cell_formula_units_Z 16
_cell_length_a 13.579955
_cell_length_b 12.123060
_cell_length_c 15.443623
_cell_angle_alpha 26.626563
_cell_angle_beta 45.919880
_cell_angle_gamma 61.420280
_cell_volume 732.751293
_symmetry_space_group_name_H-M "P -1"
_symmetry_group_IT_number 2
_symmetry_cell_setting 'triclinic'
loop_
_space_group_symop_operation_xyz
x,y,z
-x,-y,-z
loop_
_atom_site_type_symbol
_atom_site_label
_atom_site_fract_x
_atom_site_fract_y
_atom_site_fract_z
Si Si1 0.839855 0.516997 0.462443
Si Si2 0.402595 0.991759 0.650584
Si Si3 0.026521 0.887318 0.340870
Si Si4 0.035787 0.301106 0.182700
Si Si5 0.947273 0.104903 0.075641
Si Si6 0.678872 0.527222 0.829967
Si Si7 0.457737 0.556374 0.218959
Si Si8 0.251952 0.183548 0.235703
O O1 0.871848 0.260025 0.646349
O O2 0.660559 0.409594 0.668340
O O3 0.918946 0.805569 0.264783
O O4 0.925374 0.637801 0.234367
O O5 0.480045 0.301440 0.420938
O O6 0.500000 0.000000 0.500000
O O7 0.221177 0.908872 0.807605
O O8 0.402851 0.780245 0.869653
O O9 0.859342 0.633849 0.631749
O O10 0.066514 0.071639 0.272131
O O11 0.011487 0.095146 0.136335
O O12 0.175512 0.382186 0.109168
O O13 0.879217 0.120870 0.455602
O O14 0.000000 0.500000 0.000000
O O15 0.619764 0.549212 0.755264
O O16 0.676872 0.705888 0.789523
O O17 0.619209 0.797004 0.924324
#
# Coordination Sequence:
#
# PCOD9001187 Si02
#       8
#     2   2   2   2   2   2   2   2
#     4  10  21  36  57  89 123 161 197 238 295 359
#     4  11  21  31  53  90 123 154 190 232 301 361
#     4  11  21  37  63  83 119 159 207 241 292 356
#     4  10  25  42  65  86 111 160 207 257 301 345
#     4  10  21  34  56  86 125 161 191 240 289 363
#     4  11  21  34  60  88 125 157 190 238 311 360
#     4  11  23  36  58  92 126 160 187 243 307 362
#     4  10  23  41  60  88 120 149 205 251 301 361
#
# _framework density 21.835512000000001
#
# number of rings (size 3 to 8) (size 9 to 14) (size 15 to 20)
#    0.000    1.500    5.000    0.750    1.750    2.000 
#    0.000    0.625    0.000    1.500    0.000    0.000 
#    0.000    0.000    0.000    0.000    0.000    0.000 
#
# Total GULP energy -89151.780175 kJ/mol
# GULP energy per Si atom -5571.986261 kJ/mol
# Density = 2.178581 g / cm^3
# Si number density = 21.835512 Si / 1000 Ang^3
#
#
#
# Elastic Constant Matrix: (Units=GPa)
#
#
# Indices 1 2 3 4 5 6 
#
# 1 68.4998 19.5630 37.5310 -0.5828 19.6480 -7.9013
# 2 19.5630 92.8297 32.8734 21.0236 -11.3514 -27.9529
# 3 37.5310 32.8734 117.1918 38.3274 15.3879 -17.9775
# 4 -0.5828 21.0236 38.3274 45.0141 -3.2559 -4.8505
# 5 19.6480 -11.3514 15.3879 -3.2559 28.0804 2.2860
# 6 -7.9013 -27.9529 -17.9775 -4.8505 2.2860 24.0336
#
#
#
# Elastic Compliance Matrix: (Units=1/GPa)
#
#
# Indices 1 2 3 4 5 6 
#
# 1 0.024571 -0.007127 -0.006908 0.008186 -0.015153 -0.002285
# 2 -0.007127 0.021165 0.000419 -0.007389 0.010822 0.020066
# 3 -0.006908 0.000419 0.017960 -0.015106 -0.007348 0.009301
# 4 0.008186 -0.007389 -0.015106 0.037902 0.004773 -0.010007
# 5 -0.015153 0.010822 -0.007348 0.004773 0.055348 -0.002192
# 6 -0.002285 0.020066 0.009301 -0.010007 -0.002192 0.069342
#
#
# Mechanical properties :
#
#
# Convention : Reuss Voigt Hill
#
# Bulk Modulus (GPa) = 27.42356 50.93959 39.18158
# Shear Modulus (GPa) = 18.82006 31.99588 25.40797
#
# Velocity S-wave (km/s) = 2.93900 3.83209 3.41487
# Velocity P-wave (km/s) = 4.90952 6.55434 5.79063
#
# Compressibility (1/GPa) = 0.03646499
#
# Stress axis : x y z
#
# Youngs Moduli (GPa) = 40.69798 47.24751 55.67969
#
# Poissons Ratio (x) = 0.33672 0.38464
# Poissons Ratio (y) = 0.29004 -0.02334
# Poissons Ratio (z) = 0.28114 -0.01980
#
# Static dielectric constant tensor:
#      x y z
#    x 2.145760 0.076600 -0.051720 
#    y 0.076600 1.852130 0.004870 
#    z -0.051720 0.004870 1.808110 
# 
# From -- ./inp_files/573936.got.cif
#   From: 2010.05.17/outbox.cif.g08.bks.cpg/sg2_287_cif.got.tgz:573936.got - 2010.06.03 11:33:40.
