data_PCOD9001831
_publ_section_title
;
Structure prediction by ZEFSAII (Michael W. Deem and Ramdas Pophale) SiO2 
 PCOD9001831
Probable space group: P -1
;
_chemical_formula_sum "Si O2"
_cell_formula_units_Z 16
_cell_length_a 8.036309
_cell_length_b 11.892053
_cell_length_c 14.220914
_cell_angle_alpha 143.517679
_cell_angle_beta 126.885605
_cell_angle_gamma 65.025303
_cell_volume 641.089686
_symmetry_space_group_name_H-M "P -1"
_symmetry_group_IT_number 2
_symmetry_cell_setting 'triclinic'
loop_
_space_group_symop_operation_xyz
x,y,z
-x,-y,-z
loop_
_atom_site_type_symbol
_atom_site_label
_atom_site_fract_x
_atom_site_fract_y
_atom_site_fract_z
Si Si1 0.937611 0.959147 0.085738
Si Si2 0.252661 0.645463 0.948258
Si Si3 0.034221 0.381678 0.837042
Si Si4 0.870909 0.025734 0.644624
Si Si5 0.480063 0.089609 0.675892
Si Si6 0.516997 0.276757 0.257240
Si Si7 0.876394 0.341100 0.285537
Si Si8 0.617051 0.309467 0.525988
O O1 0.993779 0.027691 0.258262
O O2 0.996819 0.157314 0.182430
O O3 0.707000 0.848215 0.915028
O O4 0.088069 0.797885 0.011440
O O5 0.203432 0.571317 0.777511
O O6 0.221795 0.490923 0.915419
O O7 0.470494 0.775748 0.127502
O O8 0.022551 0.168507 0.727849
O O9 0.841459 0.375123 0.693465
O O10 0.000000 0.500000 0.000000
O O11 0.675623 0.122129 0.690608
O O12 0.733681 0.882873 0.431860
O O13 0.474655 0.872662 0.565674
O O14 0.676770 0.238288 0.204642
O O15 0.611444 0.251221 0.375473
O O16 0.498202 0.501810 0.386975
O O17 0.000000 0.500000 0.500000
#
# Coordination Sequence:
#
# PCOD9001831 Si02
#       8
#     2   2   2   2   2   2   2   2
#     4  11  22  42  67  92 125 169 216 248 310 386
#     4  11  22  40  67  96 126 166 210 259 310 378
#     4  11  17  36  62  95 122 156 214 261 304 369
#     4   9  19  34  61 100 120 161 204 265 308 362
#     4   9  18  33  61  98 124 151 209 268 305 358
#     4  11  23  41  62  91 126 173 205 259 314 373
#     4  12  28  41  61  94 136 164 206 266 320 360
#     4  10  21  35  65  93 122 161 217 253 308 379
#
# _framework density 24.957508000000001
#
# number of rings (size 3 to 8) (size 9 to 14) (size 15 to 20)
#    0.000    1.500    3.750    2.250    5.250    0.000 
#    0.000    0.000    0.000   18.750    0.000    0.000 
#    0.000    0.000    0.000    0.000    0.000    0.000 
#
# Total GULP energy -89444.922317 kJ/mol
# GULP energy per Si atom -5590.307645 kJ/mol
# Density = 2.490070 g / cm^3
# Si number density = 24.957508 Si / 1000 Ang^3
#
#
#
# Elastic Constant Matrix: (Units=GPa)
#
#
# Indices 1 2 3 4 5 6 
#
# 1 46.2988 24.0054 27.7071 6.1046 1.0384 5.7917
# 2 24.0054 126.4088 44.2998 -5.5395 -3.4858 26.5232
# 3 27.7071 44.2998 172.7360 -27.0841 6.4914 13.4723
# 4 6.1046 -5.5395 -27.0841 53.7959 3.1854 -7.9741
# 5 1.0384 -3.4858 6.4914 3.1854 26.4552 -1.3707
# 6 5.7917 26.5232 13.4723 -7.9741 -1.3707 35.0983
#
#
#
# Elastic Compliance Matrix: (Units=1/GPa)
#
#
# Indices 1 2 3 4 5 6 
#
# 1 0.026901 -0.003592 -0.004189 -0.005749 0.000117 -0.001418
# 2 -0.003592 0.010673 -0.001769 -0.000498 0.001687 -0.006841
# 3 -0.004189 -0.001769 0.007686 0.004303 -0.002475 -0.000041
# 4 -0.005749 -0.000498 0.004303 0.022235 -0.003335 0.004595
# 5 0.000117 0.001687 -0.002475 -0.003335 0.039048 0.000423
# 6 -0.001418 -0.006841 -0.000041 0.004595 0.000423 0.034971
#
#
# Mechanical properties :
#
#
# Convention : Reuss Voigt Hill
#
# Bulk Modulus (GPa) = 38.22600 59.71869 48.97234
# Shear Modulus (GPa) = 29.52772 39.69862 34.61317
#
# Velocity S-wave (km/s) = 3.44338 3.99262 3.72813
# Velocity P-wave (km/s) = 5.58201 6.72568 6.18036
#
# Compressibility (1/GPa) = 0.02616021
#
# Stress axis : x y z
#
# Youngs Moduli (GPa) = 37.17389 93.69528 130.11217
#
# Poissons Ratio (x) = 0.33651 0.54503
# Poissons Ratio (y) = 0.13351 0.23017
# Poissons Ratio (z) = 0.15572 0.16575
#
# Static dielectric constant tensor:
#      x y z
#    x 2.046520 -0.031120 -0.039780 
#    y -0.031120 1.975860 -0.022030 
#    z -0.039780 -0.022030 2.018240 
# 
# From -- ./inp_files/274915.got.cif
#   From: 2010.05.17/outbox.cif.g08.bks.cpg/sg2_138_cif.got.tgz:274915.got - 2010.06.03 11:33:40.
