data_PCOD9001063
_publ_section_title
;
Structure prediction by ZEFSAII (Michael W. Deem and Ramdas Pophale) SiO2 
 PCOD9001063
Probable space group: P -1
;
_chemical_formula_sum "Si O2"
_cell_formula_units_Z 16
_cell_length_a 14.901800
_cell_length_b 10.844388
_cell_length_c 5.278945
_cell_angle_alpha 82.325044
_cell_angle_beta 85.302969
_cell_angle_gamma 45.419962
_cell_volume 602.097216
_symmetry_space_group_name_H-M "P -1"
_symmetry_group_IT_number 2
_symmetry_cell_setting 'triclinic'
loop_
_space_group_symop_operation_xyz
x,y,z
-x,-y,-z
loop_
_atom_site_type_symbol
_atom_site_label
_atom_site_fract_x
_atom_site_fract_y
_atom_site_fract_z
Si Si1 0.851573 0.831809 0.283837
Si Si2 0.556434 0.536135 0.183949
Si Si3 0.669577 0.138235 0.572536
Si Si4 0.930493 0.874860 0.752498
Si Si5 0.316500 0.412816 0.244933
Si Si6 0.810897 0.338731 0.400196
Si Si7 0.488869 0.114287 0.682036
Si Si8 0.235413 0.336761 0.900505
O O1 0.917749 0.781236 0.557728
O O2 0.828194 0.717011 0.209037
O O3 0.721769 0.036651 0.317543
O O4 0.930869 0.822104 0.049046
O O5 0.448973 0.662170 0.384486
O O6 0.695996 0.372032 0.299880
O O7 0.500000 0.500000 0.000000
O O8 0.591993 0.624741 0.985146
O O9 0.619293 0.055835 0.729615
O O10 0.794378 0.069749 0.695620
O O11 0.052557 0.835507 0.667122
O O12 0.222215 0.609716 0.312399
O O13 0.406929 0.294208 0.488676
O O14 0.233777 0.374110 0.187740
O O15 0.807002 0.487750 0.253560
O O16 0.385782 0.165995 0.886620
O O17 0.500000 0.000000 0.500000
#
# Coordination Sequence:
#
# PCOD9001063 Si02
#       8
#     2   2   2   2   2   2   2   2
#     4  10  24  38  62  94 135 183 217 264 321 395
#     4  11  24  44  70  97 123 163 223 284 345 394
#     4  10  22  39  59  97 129 166 216 278 322 394
#     4  10  25  41  64  89 140 177 220 265 329 385
#     4  10  22  37  65  90 135 167 221 274 327 387
#     4  10  23  43  59  93 127 174 219 272 328 392
#     4  11  19  34  56  95 130 170 214 255 329 388
#     4  10  21  33  58  91 130 174 223 263 313 389
#
# _framework density 26.573779999999999
#
# number of rings (size 3 to 8) (size 9 to 14) (size 15 to 20)
#    0.750    1.000    5.000    0.000   10.500    2.000 
#    0.000    0.625    0.000    1.500    0.000    0.000 
#    0.000    0.000    0.000    0.000    0.000    0.000 
#
# Total GULP energy -89219.710827 kJ/mol
# GULP energy per Si atom -5576.231927 kJ/mol
# Density = 2.651330 g / cm^3
# Si number density = 26.573780 Si / 1000 Ang^3
#
#
#
# Elastic Constant Matrix: (Units=GPa)
#
#
# Indices 1 2 3 4 5 6 
#
# 1 138.3284 59.4357 41.2531 17.8805 6.8331 -29.9842
# 2 59.4357 85.5330 20.9784 8.4774 -6.2691 -16.8559
# 3 41.2531 20.9784 105.2936 28.5647 -1.2414 -8.7596
# 4 17.8805 8.4774 28.5647 29.7887 1.5427 0.5459
# 5 6.8331 -6.2691 -1.2414 1.5427 46.8970 10.4999
# 6 -29.9842 -16.8559 -8.7596 0.5459 10.4999 46.7272
#
#
#
# Elastic Compliance Matrix: (Units=1/GPa)
#
#
# Indices 1 2 3 4 5 6 
#
# 1 0.013036 -0.007223 -0.002236 -0.003522 -0.004226 0.006331
# 2 -0.007223 0.017235 -0.000402 -0.000363 0.003179 0.000797
# 3 -0.002236 -0.000402 0.013736 -0.011775 0.000810 0.000951
# 4 -0.003522 -0.000363 -0.011775 0.047185 -0.000259 -0.005092
# 5 -0.004226 0.003179 0.000810 -0.000259 0.023913 -0.006783
# 6 0.006331 0.000797 0.000951 -0.005092 -0.006783 0.027513
#
#
# Mechanical properties :
#
#
# Convention : Reuss Voigt Hill
#
# Bulk Modulus (GPa) = 41.17530 63.60996 52.39263
# Shear Modulus (GPa) = 29.33683 38.51509 33.92596
#
# Velocity S-wave (km/s) = 3.32622 3.81118 3.57693
# Velocity P-wave (km/s) = 5.50273 6.58452 6.06778
#
# Compressibility (1/GPa) = 0.02428641
#
# Stress axis : x y z
#
# Youngs Moduli (GPa) = 76.71181 58.02089 72.79996
#
# Poissons Ratio (x) = 0.41909 0.16277
# Poissons Ratio (y) = 0.55409 0.02924
# Poissons Ratio (z) = 0.17151 0.02330
#
# Static dielectric constant tensor:
#      x y z
#    x 2.129660 0.017610 -0.036120 
#    y 0.017610 2.392310 -0.053790 
#    z -0.036120 -0.053790 2.174470 
# 
# From -- ./inp_files/93643.got.cif
#   From: 2010.05.17/outbox.cif.g08.bks.cpg/sg2_47_cif.got.tgz:93643.got - 2010.06.03 11:33:40.
