data_PCOD9001079
_publ_section_title
;
Structure prediction by ZEFSAII (Michael W. Deem and Ramdas Pophale) SiO2 
 PCOD9001079
Probable space group: P -1
;
_chemical_formula_sum "Si O2"
_cell_formula_units_Z 14
_cell_length_a 6.895717
_cell_length_b 8.650749
_cell_length_c 21.464176
_cell_angle_alpha 152.534073
_cell_angle_beta 75.836160
_cell_angle_gamma 104.307931
_cell_volume 571.305536
_symmetry_space_group_name_H-M "P -1"
_symmetry_group_IT_number 2
_symmetry_cell_setting 'triclinic'
loop_
_space_group_symop_operation_xyz
x,y,z
-x,-y,-z
loop_
_atom_site_type_symbol
_atom_site_label
_atom_site_fract_x
_atom_site_fract_y
_atom_site_fract_z
Si Si1 0.404601 0.303805 0.995615
Si Si2 0.904951 0.911901 0.624262
Si Si3 0.408997 0.542299 0.717219
Si Si4 0.897830 0.163096 0.305242
Si Si5 0.018856 0.890715 0.855608
Si Si6 0.664686 0.467337 0.784714
Si Si7 0.480094 0.336039 0.374863
O O1 0.485664 0.935054 0.856229
O O2 0.161190 0.219795 0.980297
O O3 0.500000 0.500000 0.000000
O O4 0.441511 0.466473 0.118090
O O5 0.935205 0.561885 0.461857
O O6 0.737069 0.846427 0.668754
O O7 0.088076 0.015644 0.692782
O O8 0.809237 0.167112 0.677432
O O9 0.170335 0.586681 0.747396
O O10 0.507109 0.384786 0.712631
O O11 0.490339 0.428435 0.603355
O O12 0.021597 0.085765 0.206549
O O13 0.671167 0.115340 0.279952
O O14 0.816161 0.791071 0.872337
O O15 0.500000 0.500000 0.500000
#
# Coordination Sequence:
#
# PCOD9001079 Si02
#       7
#     2   2   2   2   2   2   2
#     4  10  22  42  63  85 117 160 205 245 293 354
#     4  10  21  33  61  87 119 156 202 239 295 351
#     4   9  21  38  60  84 126 155 189 249 305 341
#     4   9  19  40  56  84 120 158 196 251 284 348
#     4   9  22  39  61  84 122 156 195 248 302 352
#     4  12  22  38  60  92 122 157 196 244 307 358
#     4   9  17  36  61  83 113 159 199 239 285 350
#
# _framework density 24.505277
#
# number of rings (size 3 to 8) (size 9 to 14) (size 15 to 20)
#    0.857    1.429    0.000    2.571    0.000    1.714 
#    0.000    7.857    0.000    0.000    0.000    0.000 
#    0.000    0.000    0.000    0.000    0.000    0.000 
#
# Total GULP energy -78066.861021 kJ/mol
# GULP energy per Si atom -5576.204359 kJ/mol
# Density = 2.444950 g / cm^3
# Si number density = 24.505277 Si / 1000 Ang^3
#
#
#
# Elastic Constant Matrix: (Units=GPa)
#
#
# Indices 1 2 3 4 5 6 
#
# 1 65.2662 39.8079 -1.2033 -11.1498 12.9843 -9.0471
# 2 39.8079 120.6251 41.7851 -34.2037 12.4444 -15.3604
# 3 -1.2033 41.7851 59.4881 -15.4742 9.1679 -10.5106
# 4 -11.1498 -34.2037 -15.4742 42.8182 -9.6104 0.6885
# 5 12.9843 12.4444 9.1679 -9.6104 23.4974 -11.6812
# 6 -9.0471 -15.3604 -10.5106 0.6885 -11.6812 58.1797
#
#
#
# Elastic Compliance Matrix: (Units=1/GPa)
#
#
# Indices 1 2 3 4 5 6 
#
# 1 0.023835 -0.010124 0.009144 -0.001207 -0.011696 0.000351
# 2 -0.010124 0.017505 -0.010684 0.008577 0.005004 0.002020
# 3 0.009144 -0.010684 0.026472 0.001535 -0.008245 0.001710
# 4 -0.001207 0.008577 0.001535 0.032858 0.011044 0.004183
# 5 -0.011696 0.005004 -0.008245 0.011044 0.058934 0.009715
# 6 0.000351 0.002020 0.001710 0.004183 0.009715 0.019986
#
#
# Mechanical properties :
#
#
# Convention : Reuss Voigt Hill
#
# Bulk Modulus (GPa) = 22.48020 45.12877 33.80448
# Shear Modulus (GPa) = 22.96262 35.89837 29.43050
#
# Velocity S-wave (km/s) = 3.06445 3.83159 3.46928
# Velocity P-wave (km/s) = 4.65990 6.16690 5.46559
#
# Compressibility (1/GPa) = 0.04448360
#
# Stress axis : x y z
#
# Youngs Moduli (GPa) = 41.95537 57.12585 37.77619
#
# Poissons Ratio (x) = 0.57836 -0.34543
# Poissons Ratio (y) = 0.42477 0.40360
# Poissons Ratio (z) = -0.38364 0.61033
#
# Static dielectric constant tensor:
#      x y z
#    x 2.061450 -0.001730 -0.008870 
#    y -0.001730 1.990320 0.013940 
#    z -0.008870 0.013940 2.001700 
# 
# From -- ./inp_files/553930.got.cif
#   From: 2010.05.17/outbox.cif.g08.bks.cpg/sg2_277_cif.got.tgz:553930.got - 2010.06.03 11:33:40.
