data_PCOD9001601
_publ_section_title
;
Structure prediction by ZEFSAII (Michael W. Deem and Ramdas Pophale) SiO2 
 PCOD9001601
Probable space group: P -1
;
_chemical_formula_sum "Si O2"
_cell_formula_units_Z 16
_cell_length_a 5.277359
_cell_length_b 18.216589
_cell_length_c 8.828385
_cell_angle_alpha 94.181341
_cell_angle_beta 84.009212
_cell_angle_gamma 127.223189
_cell_volume 672.081831
_symmetry_space_group_name_H-M "P -1"
_symmetry_group_IT_number 2
_symmetry_cell_setting 'triclinic'
loop_
_space_group_symop_operation_xyz
x,y,z
-x,-y,-z
loop_
_atom_site_type_symbol
_atom_site_label
_atom_site_fract_x
_atom_site_fract_y
_atom_site_fract_z
Si Si1 0.774317 0.428090 0.870973
Si Si2 0.356986 0.297690 0.341254
Si Si3 0.121979 0.600889 0.460740
Si Si4 0.736878 0.579896 0.769915
Si Si5 0.788140 0.118968 0.229612
Si Si6 0.863854 0.897711 0.052092
Si Si7 0.324292 0.719733 0.944280
Si Si8 0.045995 0.010123 0.321560
O O1 0.917131 0.405514 0.717665
O O2 0.637444 0.479942 0.809603
O O3 0.584803 0.332133 0.958371
O O4 0.000000 0.500000 0.000000
O O5 0.509498 0.325111 0.501052
O O6 0.494075 0.393771 0.257803
O O7 0.510766 0.259982 0.226047
O O8 0.989591 0.216406 0.320873
O O9 0.000000 0.500000 0.500000
O O10 0.919059 0.610895 0.598863
O O11 0.956319 0.647505 0.905539
O O12 0.417955 0.072406 0.260790
O O13 0.869838 0.054488 0.289780
O O14 0.929313 0.128386 0.052772
O O15 0.495834 0.818914 0.022409
O O16 0.901015 0.913828 0.230838
O O17 0.000000 0.000000 0.000000
O O18 0.000000 0.000000 0.500000
#
# Coordination Sequence:
#
# PCOD9001601 Si02
#       8
#     2   2   2   2   2   2   2   2
#     4   9  18  35  57  80 117 155 194 252 312 367
#     4  10  21  35  59  87 113 159 210 250 307 379
#     4   9  19  35  55  82 115 154 202 250 305 374
#     4   9  19  35  59  81 116 156 202 248 308 374
#     4  10  23  40  67  92 128 170 217 262 322 390
#     4   9  20  38  62  91 121 168 217 258 320 387
#     4   9  19  37  55  85 117 153 202 259 311 370
#     4  11  23  42  65  95 131 167 210 273 332 384
#
# _framework density 23.806622999999998
#
# number of rings (size 3 to 8) (size 9 to 14) (size 15 to 20)
#    0.000    2.500    0.000    1.500    7.000    3.500 
#    2.250    2.500    0.000    0.000    0.000    0.000 
#    0.000    0.000    0.000    0.000    0.000    0.000 
#
# Total GULP energy -89069.868113 kJ/mol
# GULP energy per Si atom -5566.866757 kJ/mol
# Density = 2.375244 g / cm^3
# Si number density = 23.806623 Si / 1000 Ang^3
#
#
#
# Elastic Constant Matrix: (Units=GPa)
#
#
# Indices 1 2 3 4 5 6 
#
# 1 74.6498 19.8520 26.6961 1.6491 5.7400 -6.0279
# 2 19.8520 96.5462 37.0494 30.1102 3.6071 -4.8133
# 3 26.6961 37.0494 180.3885 22.0239 -10.3743 2.4240
# 4 1.6491 30.1102 22.0239 40.0116 0.4559 7.8872
# 5 5.7400 3.6071 -10.3743 0.4559 23.7761 -1.6521
# 6 -6.0279 -4.8133 2.4240 7.8872 -1.6521 25.6985
#
#
#
# Elastic Compliance Matrix: (Units=1/GPa)
#
#
# Indices 1 2 3 4 5 6 
#
# 1 0.015391 -0.002722 -0.002264 0.002243 -0.004170 0.002357
# 2 -0.002722 0.015587 -0.001520 -0.011939 -0.001727 0.005978
# 3 -0.002264 -0.001520 0.006704 -0.002402 0.003716 -0.000472
# 4 0.002243 -0.011939 -0.002402 0.037822 -0.001420 -0.013183
# 5 -0.004170 -0.001727 0.003716 -0.001420 0.045093 0.001683
# 6 0.002357 0.005978 -0.000472 -0.013183 0.001683 0.044784
#
#
# Mechanical properties :
#
#
# Convention : Reuss Voigt Hill
#
# Bulk Modulus (GPa) = 40.53687 57.64217 49.08952
# Shear Modulus (GPa) = 26.79280 35.76305 31.27793
#
# Velocity S-wave (km/s) = 3.35839 3.88007 3.62862
# Velocity P-wave (km/s) = 5.66594 6.65871 6.18229
#
# Compressibility (1/GPa) = 0.02466890
#
# Stress axis : x y z
#
# Youngs Moduli (GPa) = 64.97362 64.15586 149.15961
#
# Poissons Ratio (x) = 0.17464 0.33769
# Poissons Ratio (y) = 0.17687 0.22679
# Poissons Ratio (z) = 0.14710 0.09755
#
# Static dielectric constant tensor:
#      x y z
#    x 2.189490 0.042840 -0.039220 
#    y 0.042840 1.989000 0.012850 
#    z -0.039220 0.012850 1.975790 
# 
# From -- ./inp_files/141424.got.cif
#   From: 2010.05.17/outbox.cif.g08.bks.cpg/sg2_71_cif.got.tgz:141424.got - 2010.06.03 11:33:40.
