data_PCOD9001586
_publ_section_title
;
Structure prediction by ZEFSAII (Michael W. Deem and Ramdas Pophale) SiO2 
 PCOD9001586
Probable space group: P -1
;
_chemical_formula_sum "Si O2"
_cell_formula_units_Z 14
_cell_length_a 9.229086
_cell_length_b 8.720647
_cell_length_c 11.013055
_cell_angle_alpha 71.717074
_cell_angle_beta 73.753878
_cell_angle_gamma 48.699667
_cell_volume 628.986297
_symmetry_space_group_name_H-M "P -1"
_symmetry_group_IT_number 2
_symmetry_cell_setting 'triclinic'
loop_
_space_group_symop_operation_xyz
x,y,z
-x,-y,-z
loop_
_atom_site_type_symbol
_atom_site_label
_atom_site_fract_x
_atom_site_fract_y
_atom_site_fract_z
Si Si1 0.872895 0.356456 0.175659
Si Si2 0.610416 0.675343 0.970846
Si Si3 0.982413 0.534332 0.304423
Si Si4 0.578813 0.293063 0.241884
Si Si5 0.675444 0.757585 0.535377
Si Si6 0.279066 0.037471 0.091575
Si Si7 0.915576 0.898686 0.119517
O O1 0.911445 0.480125 0.221001
O O2 0.690392 0.371644 0.248372
O O3 0.078266 0.124400 0.180972
O O4 0.803202 0.466296 0.032452
O O5 0.531860 0.634851 0.881283
O O6 0.650686 0.839713 0.899418
O O7 0.448595 0.794802 0.087507
O O8 0.804386 0.658720 0.409598
O O9 0.037936 0.679234 0.214418
O O10 0.163059 0.322941 0.377977
O O11 0.435687 0.324351 0.368921
O O12 0.762799 0.060387 0.216108
O O13 0.500000 0.000000 0.500000
O O14 0.209240 0.111000 0.950935
O O15 0.000000 0.000000 0.000000
#
# Coordination Sequence:
#
# PCOD9001586 Si02
#       7
#     2   2   2   2   2   2   2
#     4  12  23  40  65 104 138 175 220 287 346 408
#     4  10  22  37  61  99 139 178 218 270 349 408
#     4  11  26  44  75  99 132 188 233 277 343 410
#     4  11  24  40  67  99 139 180 225 280 339 404
#     4  11  25  49  73  94 131 188 241 284 328 399
#     4  10  21  35  58  94 138 175 212 267 340 403
#     4  11  21  40  67 103 140 174 221 278 345 413
#
# _framework density 22.258036000000001
#
# number of rings (size 3 to 8) (size 9 to 14) (size 15 to 20)
#    0.000    1.143    4.286    1.714    2.000    4.000 
#    0.000    0.714    0.000    0.000    0.000    0.000 
#    0.000    0.000    0.000    0.000    0.000    0.000 
#
# Total GULP energy -78031.455996 kJ/mol
# GULP energy per Si atom -5573.675428 kJ/mol
# Density = 2.220738 g / cm^3
# Si number density = 22.258036 Si / 1000 Ang^3
#
#
#
# Elastic Constant Matrix: (Units=GPa)
#
#
# Indices 1 2 3 4 5 6 
#
# 1 123.3220 47.1520 36.9683 -2.6485 -21.2281 -17.1292
# 2 47.1520 88.9858 39.3332 -3.4230 -4.9254 -31.6848
# 3 36.9683 39.3332 85.7096 6.0011 -26.5168 -8.0419
# 4 -2.6485 -3.4230 6.0011 24.6090 -14.0966 -2.0824
# 5 -21.2281 -4.9254 -26.5168 -14.0966 34.0914 2.8957
# 6 -17.1292 -31.6848 -8.0419 -2.0824 2.8957 32.8946
#
#
#
# Elastic Compliance Matrix: (Units=1/GPa)
#
#
# Indices 1 2 3 4 5 6 
#
# 1 0.011923 -0.005179 -0.000427 0.005670 0.008628 0.000715
# 2 -0.005179 0.025245 -0.010177 0.002441 -0.008183 0.020007
# 3 -0.000427 -0.010177 0.020644 0.001944 0.015654 -0.006233
# 4 0.005670 0.002441 0.001944 0.058247 0.028892 0.006923
# 5 0.008628 -0.008183 0.015654 0.028892 0.057886 -0.002829
# 6 0.000715 0.020007 -0.006233 0.006923 -0.002829 0.049207
#
#
# Mechanical properties :
#
#
# Convention : Reuss Voigt Hill
#
# Bulk Modulus (GPa) = 38.09944 60.54716 49.32330
# Shear Modulus (GPa) = 18.97777 29.95660 24.46718
#
# Velocity S-wave (km/s) = 2.92314 3.67260 3.31909
# Velocity P-wave (km/s) = 5.34297 6.72647 6.07424
#
# Compressibility (1/GPa) = 0.02624710
#
# Stress axis : x y z
#
# Youngs Moduli (GPa) = 83.87017 39.61177 48.44066
#
# Poissons Ratio (x) = 0.20515 0.02066
# Poissons Ratio (y) = 0.43436 0.49298
# Poissons Ratio (z) = 0.03578 0.40313
#
# Static dielectric constant tensor:
#      x y z
#    x 1.834740 -0.007570 -0.047010 
#    y -0.007570 1.906610 -0.010860 
#    z -0.047010 -0.010860 1.836090 
# 
# From -- ./inp_files/375806.got.cif
#   From: 2010.05.17/outbox.cif.g08.bks.cpg/sg2_188_cif.got.tgz:375806.got - 2010.06.03 11:33:40.
