data_PCOD9001764
_publ_section_title
;
Structure prediction by ZEFSAII (Michael W. Deem and Ramdas Pophale) SiO2 
 PCOD9001764
Probable space group: P -1
;
_chemical_formula_sum "Si O2"
_cell_formula_units_Z 14
_cell_length_a 7.996678
_cell_length_b 9.204055
_cell_length_c 12.327949
_cell_angle_alpha 71.651774
_cell_angle_beta 62.784991
_cell_angle_gamma 107.659126
_cell_volume 649.499727
_symmetry_space_group_name_H-M "P -1"
_symmetry_group_IT_number 2
_symmetry_cell_setting 'triclinic'
loop_
_space_group_symop_operation_xyz
x,y,z
-x,-y,-z
loop_
_atom_site_type_symbol
_atom_site_label
_atom_site_fract_x
_atom_site_fract_y
_atom_site_fract_z
Si Si1 0.751632 0.958299 0.091797
Si Si2 0.665033 0.746300 0.970268
Si Si3 0.917473 0.293713 0.095649
Si Si4 0.280617 0.358509 0.241263
Si Si5 0.784452 0.886003 0.512332
Si Si6 0.573918 0.706739 0.412026
Si Si7 0.224046 0.781577 0.600873
O O1 0.663131 0.893679 0.011895
O O2 0.629331 0.796637 0.254953
O O3 0.768637 0.138999 0.088283
O O4 0.000000 0.000000 0.000000
O O5 0.440461 0.559353 0.106193
O O6 0.704502 0.768645 0.824820
O O7 0.863988 0.717714 0.953431
O O8 0.794054 0.241489 0.259292
O O9 0.000000 0.500000 0.000000
O O10 0.349758 0.306296 0.343610
O O11 0.035255 0.322643 0.332748
O O12 0.786333 0.836685 0.397044
O O13 0.686581 0.012927 0.506734
O O14 0.000000 0.000000 0.500000
O O15 0.500000 0.500000 0.500000
O O16 0.369114 0.716567 0.516903
#
# Coordination Sequence:
#
# PCOD9001764 Si02
#       7
#     2   2   2   2   2   2   2
#     4  10  22  38  60  91 128 162 210 266 315 376
#     4   9  19  38  62  90 129 165 209 255 318 387
#     4  10  21  35  62  94 123 163 212 266 314 377
#     4   9  19  38  66  93 124 174 208 256 321 386
#     4  10  21  39  64  90 124 167 210 254 319 383
#     4  12  25  40  67  97 127 170 214 273 326 371
#     4  10  22  40  61  94 125 163 223 261 308 387
#
# _framework density 21.555052
#
# number of rings (size 3 to 8) (size 9 to 14) (size 15 to 20)
#    0.000    2.000    1.429    1.286    8.000    0.000 
#    0.000    6.429    0.000   13.714    0.000    0.000 
#    0.000    0.000    0.000    0.000    0.000    0.000 
#
# Total GULP energy -78063.013782 kJ/mol
# GULP energy per Si atom -5575.929556 kJ/mol
# Density = 2.150599 g / cm^3
# Si number density = 21.555052 Si / 1000 Ang^3
#
#
#
# Elastic Constant Matrix: (Units=GPa)
#
#
# Indices 1 2 3 4 5 6 
#
# 1 40.6873 19.5832 34.5294 6.0582 -8.3238 -4.3562
# 2 19.5832 110.8973 36.7468 4.8762 -2.9151 -18.9546
# 3 34.5294 36.7468 105.0367 5.6920 -15.5947 -14.2194
# 4 6.0582 4.8762 5.6920 34.6595 5.4771 1.4313
# 5 -8.3238 -2.9151 -15.5947 5.4771 35.1541 -0.9526
# 6 -4.3562 -18.9546 -14.2194 1.4313 -0.9526 32.4943
#
#
#
# Elastic Compliance Matrix: (Units=1/GPa)
#
#
# Indices 1 2 3 4 5 6 
#
# 1 0.036034 -0.002855 -0.010013 -0.004944 0.004600 -0.000863
# 2 -0.002855 0.011191 -0.002308 -0.000830 -0.000503 0.005157
# 3 -0.010013 -0.002308 0.014870 -0.001217 0.004332 0.003999
# 4 -0.004944 -0.000830 -0.001217 0.031231 -0.006733 -0.003252
# 5 0.004600 -0.000503 0.004332 -0.006733 0.032559 0.003470
# 6 -0.000863 0.005157 0.003999 -0.003252 0.003470 0.035662
#
#
# Mechanical properties :
#
#
# Convention : Reuss Voigt Hill
#
# Bulk Modulus (GPa) = 31.50256 48.70447 40.10351
# Shear Modulus (GPa) = 24.69381 31.51237 28.10309
#
# Velocity S-wave (km/s) = 3.38837 3.82769 3.61471
# Velocity P-wave (km/s) = 5.47309 6.49457 6.00558
#
# Compressibility (1/GPa) = 0.03174346
#
# Stress axis : x y z
#
# Youngs Moduli (GPa) = 27.75153 89.35741 67.24877
#
# Poissons Ratio (x) = 0.25508 0.67336
# Poissons Ratio (y) = 0.07922 0.15523
# Poissons Ratio (z) = 0.27788 0.20626
#
# Static dielectric constant tensor:
#      x y z
#    x 1.805580 0.080230 0.002060 
#    y 0.080230 1.858040 -0.012300 
#    z 0.002060 -0.012300 1.787920 
# 
# From -- ./inp_files/182261.got.cif
#   From: 2010.05.17/outbox.cif.g08.bks.cpg/sg2_92_cif.got.tgz:182261.got - 2010.06.03 11:33:40.
