data_PCOD9001766
_publ_section_title
;
Structure prediction by ZEFSAII (Michael W. Deem and Ramdas Pophale) SiO2 
 PCOD9001766
Probable space group: P -1
;
_chemical_formula_sum "Si O2"
_cell_formula_units_Z 16
_cell_length_a 5.391952
_cell_length_b 8.019818
_cell_length_c 18.192316
_cell_angle_alpha 74.716570
_cell_angle_beta 109.213271
_cell_angle_gamma 120.006219
_cell_volume 638.563950
_symmetry_space_group_name_H-M "P -1"
_symmetry_group_IT_number 2
_symmetry_cell_setting 'triclinic'
loop_
_space_group_symop_operation_xyz
x,y,z
-x,-y,-z
loop_
_atom_site_type_symbol
_atom_site_label
_atom_site_fract_x
_atom_site_fract_y
_atom_site_fract_z
Si Si1 0.934968 0.747356 0.594025
Si Si2 0.481882 0.266904 0.318597
Si Si3 0.703657 0.781452 0.413947
Si Si4 0.355643 0.897702 0.888419
Si Si5 0.289124 0.444025 0.157850
Si Si6 0.658580 0.768072 0.047329
Si Si7 0.882855 0.200054 0.673346
Si Si8 0.819599 0.225523 0.824773
O O1 0.698192 0.679055 0.644231
O O2 0.775208 0.704258 0.505084
O O3 0.186519 0.678848 0.633006
O O4 0.118389 0.983001 0.590132
O O5 0.474999 0.357171 0.228874
O O6 0.295912 0.033657 0.322790
O O7 0.362860 0.728713 0.376591
O O8 0.850445 0.729836 0.365341
O O9 0.031475 0.731405 0.864958
O O10 0.342633 0.060424 0.921849
O O11 0.522619 0.023036 0.819428
O O12 0.550204 0.803969 0.954616
O O13 0.434118 0.563233 0.084468
O O14 0.254168 0.599570 0.188717
O O15 0.979543 0.780481 0.087058
O O16 0.982671 0.245688 0.761998
#
# Coordination Sequence:
#
# PCOD9001766 Si02
#       8
#     2   2   2   2   2   2   2   2
#     4   9  18  34  59  95 130 170 227 276 332 401
#     4  10  21  35  62  94 133 177 220 278 336 400
#     4   9  18  34  60  94 129 173 224 279 331 399
#     4  10  23  44  68  94 133 174 228 278 339 404
#     4  11  25  39  66  98 136 177 224 279 338 403
#     4  10  23  44  66  97 131 177 223 282 337 404
#     4  10  21  35  63  93 132 178 222 276 338 396
#     4  11  25  39  66  97 134 177 225 280 336 403
#
# _framework density 25.056221000000001
#
# number of rings (size 3 to 8) (size 9 to 14) (size 15 to 20)
#    0.000    2.000    0.000    2.250   10.500    4.500 
#    0.000    0.000    0.000    4.500    0.000    0.000 
#    0.000    0.000    0.000    0.000    0.000    0.000 
#
# Total GULP energy -89753.781238 kJ/mol
# GULP energy per Si atom -5609.611327 kJ/mol
# Density = 2.499919 g / cm^3
# Si number density = 25.056221 Si / 1000 Ang^3
#
#
#
# Elastic Constant Matrix: (Units=GPa)
#
#
# Indices 1 2 3 4 5 6 
#
# 1 89.5103 35.3077 4.2272 11.1836 26.6381 -1.0035
# 2 35.3077 120.9035 21.0364 18.1085 18.9177 20.7899
# 3 4.2272 21.0364 75.7745 4.7857 36.3260 -4.5426
# 4 11.1836 18.1085 4.7857 -36.5120 -32.7504 19.5325
# 5 26.6381 18.9177 36.3260 -32.7504 37.8199 5.1048
# 6 -1.0035 20.7899 -4.5426 19.5325 5.1048 43.8618
#
#
#
# Elastic Compliance Matrix: (Units=1/GPa)
#
#
# Indices 1 2 3 4 5 6 
#
# 1 0.013355 -0.004625 0.002126 0.005975 -0.004033 0.000526
# 2 -0.004625 0.011134 -0.003838 -0.000742 0.001490 -0.005624
# 3 0.002126 -0.003838 0.017786 0.009244 -0.008739 0.000610
# 4 0.005975 -0.000742 0.009244 -0.005306 -0.018109 0.005916
# 5 -0.004033 0.001490 -0.008739 -0.018109 0.020715 0.003950
# 6 0.000526 -0.005624 0.000610 0.005916 0.003950 0.022445
#
#
# Mechanical properties :
#
#
# Convention : Reuss Voigt Hill
#
# Bulk Modulus (GPa) = 33.77942 45.25898 39.51920
# Shear Modulus (GPa) = 48.70003 24.07506 36.38755
#
# Velocity S-wave (km/s) = 4.41344 3.10311 3.81496
# Velocity P-wave (km/s) = 6.28347 5.56248 5.93394
#
# Compressibility (1/GPa) = 0.02960383
#
# Stress axis : x y z
#
# Youngs Moduli (GPa) = 74.87708 89.81222 56.22409
#
# Poissons Ratio (x) = 0.41534 -0.11955
# Poissons Ratio (y) = 0.34627 0.21577
# Poissons Ratio (z) = -0.15922 0.34468
#
# Static dielectric constant tensor:
#      x y z
#    x 1.930870 -0.006240 -0.003360 
#    y -0.006240 1.984570 0.003790 
#    z -0.003360 0.003790 1.923930 
# 
# From -- ./inp_files/547996.got.cif
#   From: 2010.05.17/outbox.cif.g08.bks.cpg/sg2_274_cif.got.tgz:547996.got - 2010.06.03 11:33:40.
