data_PCOD9001218
_publ_section_title
;
Structure prediction by ZEFSAII (Michael W. Deem and Ramdas Pophale) SiO2 
 PCOD9001218
Probable space group: P -1
;
_chemical_formula_sum "Si O2"
_cell_formula_units_Z 16
_cell_length_a 17.608248
_cell_length_b 7.722514
_cell_length_c 7.289103
_cell_angle_alpha 97.665953
_cell_angle_beta 78.109634
_cell_angle_gamma 138.898804
_cell_volume 637.238329
_symmetry_space_group_name_H-M "P -1"
_symmetry_group_IT_number 2
_symmetry_cell_setting 'triclinic'
loop_
_space_group_symop_operation_xyz
x,y,z
-x,-y,-z
loop_
_atom_site_type_symbol
_atom_site_label
_atom_site_fract_x
_atom_site_fract_y
_atom_site_fract_z
Si Si1 0.308837 0.508224 0.935971
Si Si2 0.630771 0.076390 0.218324
Si Si3 0.814137 0.356689 0.454758
Si Si4 0.568955 0.500638 0.816355
Si Si5 0.153185 0.980382 0.712020
Si Si6 0.249862 0.923538 0.184484
Si Si7 0.077676 0.929972 0.343344
Si Si8 0.924901 0.753501 0.868010
O O1 0.404246 0.796134 0.837717
O O2 0.248651 0.250751 0.814851
O O3 0.353584 0.502368 0.101652
O O4 0.200541 0.458893 0.007641
O O5 0.711390 0.269596 0.376882
O O6 0.521819 0.770764 0.288057
O O7 0.694641 0.063801 0.026073
O O8 0.942170 0.648085 0.391004
O O9 0.811263 0.157108 0.347043
O O10 0.792440 0.290524 0.673809
O O11 0.651818 0.786629 0.726703
O O12 0.500000 0.500000 0.000000
O O13 0.138134 0.037241 0.526298
O O14 0.015947 0.749194 0.809793
O O15 0.145184 0.887239 0.196019
O O16 0.088311 0.138845 0.282052
O O17 0.000000 0.000000 0.000000
#
# Coordination Sequence:
#
# PCOD9001218 Si02
#       8
#     2   2   2   2   2   2   2   2
#     4  11  22  41  63  93 125 164 215 254 323 376
#     4  11  25  41  67  92 128 172 208 269 310 372
#     4  11  24  40  65  97 131 165 215 257 311 383
#     4  10  21  43  70  90 122 166 216 265 313 367
#     4  10  21  37  59  91 126 167 199 256 315 372
#     4  10  22  42  65  95 124 169 213 261 317 371
#     4  11  22  40  60  91 133 164 208 262 311 379
#     4  10  21  34  57  88 124 167 200 245 313 378
#
# _framework density 25.108346999999998
#
# number of rings (size 3 to 8) (size 9 to 14) (size 15 to 20)
#    0.000    1.500    1.250    5.250    5.250    1.000 
#    0.000    1.250    0.000    6.750    0.000    0.000 
#    0.000    0.000    0.000    0.000    0.000    0.000 
#
# Total GULP energy -89369.930577 kJ/mol
# GULP energy per Si atom -5585.620661 kJ/mol
# Density = 2.505120 g / cm^3
# Si number density = 25.108347 Si / 1000 Ang^3
#
#
#
# Elastic Constant Matrix: (Units=GPa)
#
#
# Indices 1 2 3 4 5 6 
#
# 1 36.5914 -10.0465 -7.5588 2.4776 1.2656 -2.3968
# 2 -10.0465 133.8325 -0.8162 0.0073 6.0657 -1.5827
# 3 -7.5588 -0.8162 28.6477 17.0946 4.2105 7.3638
# 4 2.4776 0.0073 17.0946 36.3232 -5.3501 4.7192
# 5 1.2656 6.0657 4.2105 -5.3501 36.1928 2.6160
# 6 -2.3968 -1.5827 7.3638 4.7192 2.6160 36.1917
#
#
#
# Elastic Compliance Matrix: (Units=1/GPa)
#
#
# Indices 1 2 3 4 5 6 
#
# 1 0.032108 0.002735 0.015093 -0.010125 -0.004895 0.000849
# 2 0.002735 0.007780 0.001969 -0.001449 -0.001875 0.000445
# 3 0.015093 0.001969 0.060500 -0.030430 -0.011932 -0.006394
# 4 -0.010125 -0.001449 -0.030430 0.044269 0.010760 -0.001093
# 5 -0.004895 -0.001875 -0.011932 0.010760 0.031212 -0.001638
# 6 0.000849 0.000445 -0.006394 -0.001093 -0.001638 0.029268
#
#
# Mechanical properties :
#
#
# Convention : Reuss Voigt Hill
#
# Bulk Modulus (GPa) = 7.14387 18.02539 12.58463
# Shear Modulus (GPa) = 23.56210 36.24107 29.90159
#
# Velocity S-wave (km/s) = 3.06668 3.80332 3.45469
# Velocity P-wave (km/s) = 3.92311 5.14602 4.57561
#
# Compressibility (1/GPa) = 0.13998020
#
# Stress axis : x y z
#
# Youngs Moduli (GPa) = 31.14492 128.54066 16.52886
#
# Poissons Ratio (x) = -0.35153 -0.24946
# Poissons Ratio (y) = -0.08517 -0.03254
# Poissons Ratio (z) = -0.47006 -0.25307
#
# Static dielectric constant tensor:
#      x y z
#    x 2.174510 0.057270 -0.008670 
#    y 0.057270 2.057470 -0.037290 
#    z -0.008670 -0.037290 2.056990 
# 
# From -- ./inp_files/308848.got.cif
#   From: 2010.05.17/outbox.cif.g08.bks.cpg/sg2_155_cif.got.tgz:308848.got - 2010.06.03 11:33:40.
