data_PCOD9001022
_publ_section_title
;
Structure prediction by ZEFSAII (Michael W. Deem and Ramdas Pophale) SiO2 
 PCOD9001022
Probable space group: P -1
;
_chemical_formula_sum "Si O2"
_cell_formula_units_Z 16
_cell_length_a 21.340053
_cell_length_b 11.560606
_cell_length_c 18.529830
_cell_angle_alpha 28.852454
_cell_angle_beta 159.657849
_cell_angle_gamma 142.359969
_cell_volume 754.992401
_symmetry_space_group_name_H-M "P -1"
_symmetry_group_IT_number 2
_symmetry_cell_setting 'triclinic'
loop_
_space_group_symop_operation_xyz
x,y,z
-x,-y,-z
loop_
_atom_site_type_symbol
_atom_site_label
_atom_site_fract_x
_atom_site_fract_y
_atom_site_fract_z
Si Si1 0.607919 0.119925 0.272497
Si Si2 0.947595 0.194112 0.900648
Si Si3 0.674729 0.478432 0.947610
Si Si4 0.925901 0.663457 0.523584
Si Si5 0.650320 0.809021 0.617029
Si Si6 0.457030 0.128953 0.959017
Si Si7 0.231712 0.447313 0.734721
Si Si8 0.696907 0.876434 0.870873
O O1 0.602147 0.041199 0.226832
O O2 0.757163 0.279468 0.374949
O O3 0.596095 0.884327 0.436291
O O4 0.424070 0.321533 0.974925
O O5 0.902409 0.450845 0.671074
O O6 0.796277 0.102948 0.836564
O O7 0.135727 0.186669 0.150325
O O8 0.000000 0.000000 0.000000
O O9 0.629958 0.563176 0.771198
O O10 0.713583 0.708316 0.910256
O O11 0.505903 0.393941 0.850398
O O12 0.867609 0.292155 0.264436
O O13 0.905716 0.573458 0.468372
O O14 0.749253 0.867797 0.238463
O O15 0.516760 0.023085 0.398789
O O16 0.500000 0.000000 0.000000
O O17 0.220477 0.280109 0.884600
#
# Coordination Sequence:
#
# PCOD9001022 Si02
#       8
#     2   2   2   2   2   2   2   2
#     4   9  18  34  55  81 109 144 182 220 280 321
#     4  11  20  31  51  86 117 151 168 209 280 335
#     4  11  22  34  55  85 106 151 183 219 278 321
#     4  10  22  37  56  85 119 139 181 226 271 335
#     4  10  21  33  54  80 119 144 172 220 268 344
#     4  11  24  42  60  75 104 151 196 236 268 308
#     4   9  18  31  53  82 117 146 167 223 275 333
#     4  11  20  31  50  83 118 148 178 202 273 343
#
# _framework density 21.192264999999999
#
# number of rings (size 3 to 8) (size 9 to 14) (size 15 to 20)
#    0.000    1.750    3.750    1.875    3.500    2.000 
#    0.000    0.625    0.000    3.000    0.000    0.000 
#    0.000    0.000    0.000    0.000    0.000    0.000 
#
# Total GULP energy -89181.168775 kJ/mol
# GULP energy per Si atom -5573.823048 kJ/mol
# Density = 2.114403 g / cm^3
# Si number density = 21.192265 Si / 1000 Ang^3
#
#
#
# Elastic Constant Matrix: (Units=GPa)
#
#
# Indices 1 2 3 4 5 6 
#
# 1 98.8638 17.0703 29.3237 3.9945 -26.8434 -6.0433
# 2 17.0703 8.5164 7.7196 12.2572 -2.5944 9.6520
# 3 29.3237 7.7196 80.0057 10.3169 -12.8489 -0.2408
# 4 3.9945 12.2572 10.3169 9.9717 10.0047 -5.4627
# 5 -26.8434 -2.5944 -12.8489 10.0047 44.5264 -3.6561
# 6 -6.0433 9.6520 -0.2408 -5.4627 -3.6561 29.3695
#
#
#
# Elastic Compliance Matrix: (Units=1/GPa)
#
#
# Indices 1 2 3 4 5 6 
#
# 1 0.014462 0.000990 -0.001022 -0.018169 0.012633 0.000835
# 2 0.000990 -0.031836 -0.011908 0.086343 -0.022135 0.023873
# 3 -0.001022 -0.011908 0.014893 -0.001978 0.003754 0.003925
# 4 -0.018169 0.086343 -0.001978 -0.007850 -0.007565 -0.034532
# 5 0.012633 -0.022135 0.003754 -0.007565 0.032599 0.012556
# 6 0.000835 0.023873 0.003925 -0.034532 0.012556 0.021547
#
#
# Mechanical properties :
#
#
# Convention : Reuss Voigt Hill
#
# Bulk Modulus (GPa) = -37.93370 32.84589 -2.54391
# Shear Modulus (GPa) = 84.87737 25.65834 55.26786
#
# Velocity S-wave (km/s) = 6.33546 3.48334 5.11233
# Velocity P-wave (km/s) = 5.96479 5.63124 5.80042
#
# Compressibility (1/GPa) = -0.02636178
#
# Stress axis : x y z
#
# Youngs Moduli (GPa) = 69.14488 -31.41096 67.14783
#
# Poissons Ratio (x) = 0.03108 0.06862
# Poissons Ratio (y) = -0.06842 0.79959
# Poissons Ratio (z) = 0.07066 -0.37404
#
# Static dielectric constant tensor:
#      x y z
#    x 1.776320 0.036160 0.000700 
#    y 0.036160 1.821510 -0.013390 
#    z 0.000700 -0.013390 1.788430 
# 
# From -- ./inp_files/354477.got.cif
#   From: 2010.05.17/outbox.cif.g08.bks.cpg/sg2_178_cif.got.tgz:354477.got - 2010.06.03 11:33:40.
