data_PCOD9001664
_publ_section_title
;
Structure prediction by ZEFSAII (Michael W. Deem and Ramdas Pophale) SiO2 
 PCOD9001664
Probable space group: P -1
;
_chemical_formula_sum "Si O2"
_cell_formula_units_Z 14
_cell_length_a 13.640119
_cell_length_b 9.845299
_cell_length_c 22.695688
_cell_angle_alpha 153.250765
_cell_angle_beta 33.241038
_cell_angle_gamma 146.385886
_cell_volume 704.893561
_symmetry_space_group_name_H-M "P -1"
_symmetry_group_IT_number 2
_symmetry_cell_setting 'triclinic'
loop_
_space_group_symop_operation_xyz
x,y,z
-x,-y,-z
loop_
_atom_site_type_symbol
_atom_site_label
_atom_site_fract_x
_atom_site_fract_y
_atom_site_fract_z
Si Si1 0.022162 0.846730 0.867695
Si Si2 0.540696 0.058510 0.336134
Si Si3 0.894088 0.765134 0.660597
Si Si4 0.317186 0.228143 0.431188
Si Si5 0.956320 0.829486 0.142321
Si Si6 0.494089 0.268676 0.655072
Si Si7 0.035657 0.852490 0.339096
O O1 0.244422 0.906868 0.770047
O O2 0.926427 0.465533 0.780952
O O3 0.978131 0.005386 0.891242
O O4 0.000000 0.000000 0.000000
O O5 0.434003 0.008302 0.308422
O O6 0.549531 0.403074 0.491113
O O7 0.457278 0.818047 0.337107
O O8 0.673450 0.598487 0.686099
O O9 0.000000 0.500000 0.500000
O O10 0.981581 0.066701 0.688623
O O11 0.932060 0.915131 0.764847
O O12 0.156550 0.167334 0.538554
O O13 0.205756 0.145202 0.394959
O O14 0.726332 0.745981 0.235988
O O15 0.000000 0.500000 0.000000
O O16 0.500000 0.000000 0.500000
#
# Coordination Sequence:
#
# PCOD9001664 Si02
#       7
#     2   2   2   2   2   2   2
#     4  10  22  43  64  85 123 171 216 258 317 392
#     4   9  19  35  58  89 121 158 203 259 315 372
#     4  12  24  39  69 102 134 174 219 272 337 389
#     4   9  18  33  58  87 123 154 196 259 317 361
#     4  11  26  46  68  95 137 179 217 273 338 392
#     4  11  22  39  66  99 134 168 223 269 325 402
#     4  10  21  35  60  91 126 155 209 256 315 381
#
# _framework density 19.861155
#
# number of rings (size 3 to 8) (size 9 to 14) (size 15 to 20)
#    0.000    1.714    1.429    2.571    8.000    0.571 
#    7.714    0.714    0.000    0.000    0.000    0.000 
#    0.000    0.000    0.000    0.000    0.000    0.000 
#
# Total GULP energy -77960.626820 kJ/mol
# GULP energy per Si atom -5568.616201 kJ/mol
# Density = 1.981595 g / cm^3
# Si number density = 19.861155 Si / 1000 Ang^3
#
#
#
# Elastic Constant Matrix: (Units=GPa)
#
#
# Indices 1 2 3 4 5 6 
#
# 1 105.1082 42.2737 34.6264 -0.3888 9.4307 -19.4869
# 2 42.2737 86.1570 22.0033 6.4480 4.2444 -20.1500
# 3 34.6264 22.0033 79.8076 8.0030 4.5545 -11.3566
# 4 -0.3888 6.4480 8.0030 14.4172 -4.2148 2.6337
# 5 9.4307 4.2444 4.5545 -4.2148 31.3306 1.6910
# 6 -19.4869 -20.1500 -11.3566 2.6337 1.6910 49.0453
#
#
#
# Elastic Compliance Matrix: (Units=1/GPa)
#
#
# Indices 1 2 3 4 5 6 
#
# 1 0.013736 -0.005302 -0.004486 0.004172 -0.002316 0.002097
# 2 -0.005302 0.016240 -0.000492 -0.008616 -0.001961 0.004982
# 3 -0.004486 -0.000492 0.016082 -0.009956 -0.002387 0.002356
# 4 0.004172 -0.008616 -0.009956 0.084392 0.013207 -0.009175
# 5 -0.002316 -0.001961 -0.002387 0.013207 0.035231 -0.004203
# 6 0.002097 0.004982 0.002356 -0.009175 -0.004203 0.024452
#
#
# Mechanical properties :
#
#
# Convention : Reuss Voigt Hill
#
# Bulk Modulus (GPa) = 39.21771 52.09771 45.65771
# Shear Modulus (GPa) = 22.81089 30.43658 26.62374
#
# Velocity S-wave (km/s) = 3.39266 3.91892 3.66525
# Velocity P-wave (km/s) = 5.92753 6.83851 6.39925
#
# Compressibility (1/GPa) = 0.02549868
#
# Stress axis : x y z
#
# Youngs Moduli (GPa) = 72.80084 61.57453 62.18095
#
# Poissons Ratio (x) = 0.32646 0.27893
# Poissons Ratio (y) = 0.38598 0.03061
# Poissons Ratio (z) = 0.32657 0.03032
#
# Static dielectric constant tensor:
#      x y z
#    x 1.721060 -0.023740 -0.022140 
#    y -0.023740 1.758870 0.037170 
#    z -0.022140 0.037170 1.726080 
# 
# From -- ./inp_files/199807.got.cif
#   From: 2010.05.17/outbox.cif.g08.bks.cpg/sg2_100_cif.got.tgz:199807.got - 2010.06.03 11:33:40.
