data_PCOD9001086
_publ_section_title
;
Structure prediction by ZEFSAII (Michael W. Deem and Ramdas Pophale) SiO2 
 PCOD9001086
Probable space group: P -1
;
_chemical_formula_sum "Si O2"
_cell_formula_units_Z 14
_cell_length_a 12.508455
_cell_length_b 6.928081
_cell_length_c 8.349219
_cell_angle_alpha 114.528415
_cell_angle_beta 112.453680
_cell_angle_gamma 89.928262
_cell_volume 597.599769
_symmetry_space_group_name_H-M "P -1"
_symmetry_group_IT_number 2
_symmetry_cell_setting 'triclinic'
loop_
_space_group_symop_operation_xyz
x,y,z
-x,-y,-z
loop_
_atom_site_type_symbol
_atom_site_label
_atom_site_fract_x
_atom_site_fract_y
_atom_site_fract_z
Si Si1 0.149646 0.864488 0.976599
Si Si2 0.590172 0.106198 0.221022
Si Si3 0.007517 0.454452 0.677304
Si Si4 0.749249 0.414708 0.594411
Si Si5 0.968277 0.029484 0.719755
Si Si6 0.371267 0.204949 0.303900
Si Si7 0.276581 0.076683 0.536015
O O1 0.124827 0.607656 0.860296
O O2 0.082951 0.907923 0.117065
O O3 0.279870 0.001962 0.109348
O O4 0.082811 0.941386 0.810440
O O5 0.694685 0.319223 0.356620
O O6 0.501304 0.185386 0.324222
O O7 0.655475 0.917371 0.257330
O O8 0.500000 0.000000 0.000000
O O9 0.886097 0.523418 0.697575
O O10 0.996261 0.220802 0.672545
O O11 0.000000 0.500000 0.500000
O O12 0.676738 0.577849 0.690437
O O13 0.740987 0.184085 0.598314
O O14 0.853059 0.870535 0.527707
O O15 0.355364 0.194276 0.481976
#
# Coordination Sequence:
#
# PCOD9001086 Si02
#       7
#     2   2   2   2   2   2   2
#     4  10  21  33  62  89 115 151 200 241 293 345
#     4  10  22  39  62  84 120 152 192 249 294 341
#     4  11  22  36  58  86 126 158 189 242 302 355
#     4   9  21  38  60  84 115 155 198 235 292 343
#     4   9  18  38  57  86 117 153 197 246 283 357
#     4  11  20  38  65  86 115 154 200 237 288 359
#     4   8  19  35  63  82 115 153 198 236 296 339
#
# _framework density 23.427049
#
# number of rings (size 3 to 8) (size 9 to 14) (size 15 to 20)
#    0.857    1.429    0.000    3.857    2.000    2.857 
#    0.000    2.143    0.000    0.000    0.000    0.000 
#    0.000    0.000    0.000    0.000    0.000    0.000 
#
# Total GULP energy -77990.213052 kJ/mol
# GULP energy per Si atom -5570.729504 kJ/mol
# Density = 2.337373 g / cm^3
# Si number density = 23.427049 Si / 1000 Ang^3
#
#
#
# Elastic Constant Matrix: (Units=GPa)
#
#
# Indices 1 2 3 4 5 6 
#
# 1 68.9129 11.0547 9.4955 -8.0579 2.6145 7.1806
# 2 11.0547 73.3969 5.3023 -13.4537 0.0016 -0.1199
# 3 9.4955 5.3023 89.6396 -4.7911 32.9474 0.0716
# 4 -8.0579 -13.4537 -4.7911 42.3551 2.3902 8.9806
# 5 2.6145 0.0016 32.9474 2.3902 30.8651 -2.7429
# 6 7.1806 -0.1199 0.0716 8.9806 -2.7429 20.0025
#
#
#
# Elastic Compliance Matrix: (Units=1/GPa)
#
#
# Indices 1 2 3 4 5 6 
#
# 1 0.016273 -0.001622 -0.000831 0.004263 -0.001529 -0.007972
# 2 -0.001622 0.014747 -0.000542 0.004588 0.000240 -0.001354
# 3 -0.000831 -0.000542 0.019300 0.004002 -0.021240 -0.004483
# 4 0.004263 0.004588 0.004002 0.030253 -0.008421 -0.016255
# 5 -0.001529 0.000240 -0.021240 -0.008421 0.056940 0.012215
# 6 -0.007972 -0.001354 -0.004483 -0.016255 0.012215 0.061837
#
#
# Mechanical properties :
#
#
# Convention : Reuss Voigt Hill
#
# Bulk Modulus (GPa) = 22.55917 31.51714 27.03816
# Shear Modulus (GPa) = 22.71514 32.38434 27.54974
#
# Velocity S-wave (km/s) = 3.11724 3.72203 3.43298
# Velocity P-wave (km/s) = 4.75465 5.65277 5.22305
#
# Compressibility (1/GPa) = 0.04432786
#
# Stress axis : x y z
#
# Youngs Moduli (GPa) = 61.45110 67.81117 51.81231
#
# Poissons Ratio (x) = 0.11002 0.04308
# Poissons Ratio (y) = 0.09970 0.02810
# Poissons Ratio (z) = 0.05109 0.03678
#
# Static dielectric constant tensor:
#      x y z
#    x 1.898310 -0.058030 -0.020490 
#    y -0.058030 1.937660 0.015620 
#    z -0.020490 0.015620 1.970190 
# 
# From -- ./inp_files/288029.got.cif
#   From: 2010.05.17/outbox.cif.g08.bks.cpg/sg2_145_cif.got.tgz:288029.got - 2010.06.03 11:33:40.
