data_PCOD9001170
_publ_section_title
;
Structure prediction by ZEFSAII (Michael W. Deem and Ramdas Pophale) SiO2 
 PCOD9001170
Probable space group: P -1
;
_chemical_formula_sum "Si O2"
_cell_formula_units_Z 16
_cell_length_a 8.250666
_cell_length_b 7.279441
_cell_length_c 14.568228
_cell_angle_alpha 52.042806
_cell_angle_beta 90.684609
_cell_angle_gamma 71.093227
_cell_volume 625.947179
_symmetry_space_group_name_H-M "P -1"
_symmetry_group_IT_number 2
_symmetry_cell_setting 'triclinic'
loop_
_space_group_symop_operation_xyz
x,y,z
-x,-y,-z
loop_
_atom_site_type_symbol
_atom_site_label
_atom_site_fract_x
_atom_site_fract_y
_atom_site_fract_z
Si Si1 0.216973 0.922852 0.720123
Si Si2 0.892225 0.219342 0.050752
Si Si3 0.992830 0.247086 0.477928
Si Si4 0.850787 0.759620 0.084036
Si Si5 0.227956 0.361893 0.217693
Si Si6 0.340487 0.450306 0.733831
Si Si7 0.642484 0.707360 0.572676
Si Si8 0.497486 0.172123 0.655930
O O1 0.162214 0.789512 0.843654
O O2 0.303347 0.714512 0.703786
O O3 0.034398 0.155883 0.611612
O O4 0.365892 0.025462 0.713721
O O5 0.089166 0.203777 0.030149
O O6 0.758839 0.478037 0.919229
O O7 0.874560 0.980659 0.074412
O O8 0.165579 0.293553 0.442646
O O9 0.815233 0.472004 0.369912
O O10 0.000000 0.000000 0.500000
O O11 0.015636 0.487966 0.194483
O O12 0.679896 0.730953 0.130965
O O13 0.322276 0.423109 0.287043
O O14 0.313093 0.059433 0.296057
O O15 0.503381 0.304376 0.711269
O O16 0.578322 0.655202 0.489181
O O17 0.500000 0.000000 0.500000
#
# Coordination Sequence:
#
# PCOD9001170 Si02
#       8
#     2   2   2   2   2   2   2   2
#     4  10  21  34  55  85 112 142 185 224 282 324
#     4   9  18  35  55  83 107 145 188 228 271 330
#     4   9  18  32  53  83 113 140 179 237 279 321
#     4   9  18  34  58  78 105 144 187 222 273 320
#     4   9  18  35  59  77 111 151 181 225 281 330
#     4  11  20  36  58  83 112 142 185 235 268 335
#     4   9  17  32  55  83 105 146 191 220 279 343
#     4  10  21  35  58  83 112 145 181 229 282 327
#
# _framework density 25.561260999999998
#
# number of rings (size 3 to 8) (size 9 to 14) (size 15 to 20)
#    0.750    1.750    2.500    0.000    0.000    4.000 
#    0.000    0.625    2.750   36.750    0.000    0.000 
#    0.000    0.000    0.000    0.000    0.000    0.000 
#
# Total GULP energy -89292.444899 kJ/mol
# GULP energy per Si atom -5580.777806 kJ/mol
# Density = 2.550308 g / cm^3
# Si number density = 25.561261 Si / 1000 Ang^3
#
#
#
# Elastic Constant Matrix: (Units=GPa)
#
#
# Indices 1 2 3 4 5 6 
#
# 1 40.9602 24.0142 24.3916 6.8278 -6.0821 13.5072
# 2 24.0142 118.4522 0.3992 25.7585 9.5044 3.3780
# 3 24.3916 0.3992 133.0880 26.4553 -17.8382 -9.5867
# 4 6.8278 25.7585 26.4553 37.2731 -8.6262 1.5955
# 5 -6.0821 9.5044 -17.8382 -8.6262 32.2798 3.2449
# 6 13.5072 3.3780 -9.5867 1.5955 3.2449 26.7764
#
#
#
# Elastic Compliance Matrix: (Units=1/GPa)
#
#
# Indices 1 2 3 4 5 6 
#
# 1 0.048126 -0.012563 -0.011638 0.012276 0.012542 -0.029110
# 2 -0.012563 0.014215 0.004245 -0.012820 -0.008422 0.007848
# 3 -0.011638 0.004245 0.012340 -0.010090 -0.000365 0.010399
# 4 0.012276 -0.012820 -0.010090 0.044282 0.013600 -0.012474
# 5 0.012542 -0.008422 -0.000365 0.013600 0.040370 -0.011098
# 6 -0.029110 0.007848 0.010399 -0.012474 -0.011098 0.056852
#
#
# Mechanical properties :
#
#
# Convention : Reuss Voigt Hill
#
# Bulk Modulus (GPa) = 28.76342 43.34559 36.05451
# Shear Modulus (GPa) = 18.67856 35.51223 27.09540
#
# Velocity S-wave (km/s) = 2.70615 3.73137 3.25932
# Velocity P-wave (km/s) = 4.58710 5.96310 5.31978
#
# Compressibility (1/GPa) = 0.03476637
#
# Stress axis : x y z
#
# Youngs Moduli (GPa) = 20.77895 70.35036 81.03815
#
# Poissons Ratio (x) = 0.88382 0.94316
# Poissons Ratio (y) = 0.26105 -0.34399
# Poissons Ratio (z) = 0.24184 -0.29862
#
# Static dielectric constant tensor:
#      x y z
#    x 2.029620 0.127620 0.065360 
#    y 0.127620 1.876590 -0.153330 
#    z 0.065360 -0.153330 1.903280 
# 
# From -- ./inp_files/512918.got.cif
#   From: 2010.05.17/outbox.cif.g08.bks.cpg/sg2_257_cif.got.tgz:512918.got - 2010.06.03 11:33:40.
