data_PCOD9001996
_publ_section_title
;
Structure prediction by ZEFSAII (Michael W. Deem and Ramdas Pophale) SiO2 
 PCOD9001996
Probable space group: P -1
;
_chemical_formula_sum "Si O2"
_cell_formula_units_Z 14
_cell_length_a 21.703491
_cell_length_b 5.662768
_cell_length_c 7.079951
_cell_angle_alpha 136.295343
_cell_angle_beta 61.895901
_cell_angle_gamma 111.832502
_cell_volume 529.625489
_symmetry_space_group_name_H-M "P -1"
_symmetry_group_IT_number 2
_symmetry_cell_setting 'triclinic'
loop_
_space_group_symop_operation_xyz
x,y,z
-x,-y,-z
loop_
_atom_site_type_symbol
_atom_site_label
_atom_site_fract_x
_atom_site_fract_y
_atom_site_fract_z
Si Si1 0.644873 0.532098 0.371577
Si Si2 0.212018 0.525973 0.688365
Si Si3 0.625595 0.268483 0.866904
Si Si4 0.929253 0.280800 0.985996
Si Si5 0.922740 0.517194 0.529337
Si Si6 0.773591 0.689140 0.863880
Si Si7 0.489672 0.611420 0.354529
O O1 0.725894 0.553357 0.311525
O O2 0.593585 0.474650 0.590728
O O3 0.628884 0.913577 0.547892
O O4 0.629840 0.231856 0.069393
O O5 0.134836 0.511307 0.874752
O O6 0.214117 0.288530 0.366451
O O7 0.225923 0.924912 0.837566
O O8 0.696811 0.501833 0.875227
O O9 0.548881 0.414491 0.044125
O O10 0.918000 0.248326 0.209734
O O11 0.000000 0.500000 0.000000
O O12 0.928248 0.913171 0.680660
O O13 0.843789 0.504423 0.725655
O O14 0.000000 0.500000 0.500000
O O15 0.500000 0.500000 0.500000
O O16 0.500000 0.000000 0.500000
#
# Coordination Sequence:
#
# PCOD9001996 Si02
#       7
#     2   2   2   2   2   2   2
#     4  11  23  40  62  93 125 163 211 262 320 387
#     4  10  21  38  58  84 118 160 204 257 320 387
#     4  11  23  40  62  93 125 163 211 262 320 387
#     4  10  21  36  56  82 115 154 202 255 315 377
#     4  10  21  36  56  82 115 154 202 255 315 377
#     4  10  21  38  58  84 118 160 204 257 320 387
#     4  10  23  44  68  98 134 174 220 272 328 390
#
# _framework density 26.433772999999999
#
# number of rings (size 3 to 8) (size 9 to 14) (size 15 to 20)
#    0.000    1.714    0.000    3.857    0.000    4.571 
#    0.000    6.429    0.000    0.000    0.000    0.000 
#    0.000    0.000    0.000    0.000    0.000    0.000 
#
# Total GULP energy -78184.030404 kJ/mol
# GULP energy per Si atom -5584.573600 kJ/mol
# Density = 2.637361 g / cm^3
# Si number density = 26.433773 Si / 1000 Ang^3
#
#
#
# Elastic Constant Matrix: (Units=GPa)
#
#
# Indices 1 2 3 4 5 6 
#
# 1 138.3450 17.8370 27.3590 1.7000 -31.2679 17.0100
# 2 17.8370 84.7113 23.4744 3.8073 -15.1689 32.2646
# 3 27.3590 23.4744 91.6478 4.7132 -17.4434 1.9881
# 4 1.7000 3.8073 4.7132 27.9532 11.5261 -1.4204
# 5 -31.2679 -15.1689 -17.4434 11.5261 66.7405 -8.4094
# 6 17.0100 32.2646 1.9881 -1.4204 -8.4094 52.6647
#
#
#
# Elastic Compliance Matrix: (Units=1/GPa)
#
#
# Indices 1 2 3 4 5 6 
#
# 1 0.008703 0.000343 -0.001830 -0.001917 0.003704 -0.002412
# 2 0.000343 0.017218 -0.003669 -0.003252 0.002388 -0.010227
# 3 -0.001830 -0.003669 0.012931 -0.002442 0.002447 0.002676
# 4 -0.001917 -0.003252 -0.002442 0.040570 -0.008984 0.002363
# 5 0.003704 0.002388 0.002447 -0.008984 0.019467 0.000114
# 6 -0.002412 -0.010227 0.002676 0.002363 0.000114 0.026014
#
#
# Mechanical properties :
#
#
# Convention : Reuss Voigt Hill
#
# Bulk Modulus (GPa) = 35.03835 50.22723 42.63279
# Shear Modulus (GPa) = 34.54715 45.87392 40.21054
#
# Velocity S-wave (km/s) = 3.61907 4.17037 3.90446
# Velocity P-wave (km/s) = 5.54504 6.49859 6.04066
#
# Compressibility (1/GPa) = 0.02854016
#
# Stress axis : x y z
#
# Youngs Moduli (GPa) = 114.89765 58.07714 77.33498
#
# Poissons Ratio (x) = -0.01991 0.14152
# Poissons Ratio (y) = -0.03938 0.28374
# Poissons Ratio (z) = 0.21026 0.21309
#
# Static dielectric constant tensor:
#      x y z
#    x 2.167330 -0.035150 -0.051980 
#    y -0.035150 2.115040 -0.110020 
#    z -0.051980 -0.110020 2.043700 
# 
# From -- ./inp_files/7134.got.cif
#   From: 2010.05.17/outbox.cif.g08.bks.cpg/sg2_4_cif.got.tgz:7134.got - 2010.06.03 11:33:40.
