data_PCOD9001937
_publ_section_title
;
Structure prediction by ZEFSAII (Michael W. Deem and Ramdas Pophale) SiO2 
 PCOD9001937
Probable space group: P -1
;
_chemical_formula_sum "Si O2"
_cell_formula_units_Z 14
_cell_length_a 11.844349
_cell_length_b 9.358417
_cell_length_c 11.129082
_cell_angle_alpha 85.545833
_cell_angle_beta 44.490069
_cell_angle_gamma 53.118183
_cell_volume 539.646851
_symmetry_space_group_name_H-M "P -1"
_symmetry_group_IT_number 2
_symmetry_cell_setting 'triclinic'
loop_
_space_group_symop_operation_xyz
x,y,z
-x,-y,-z
loop_
_atom_site_type_symbol
_atom_site_label
_atom_site_fract_x
_atom_site_fract_y
_atom_site_fract_z
Si Si1 0.432104 0.762901 0.347459
Si Si2 0.484695 0.842664 0.038601
Si Si3 0.950330 0.171277 0.438951
Si Si4 0.791546 0.146070 0.255153
Si Si5 0.032509 0.513271 0.630168
Si Si6 0.535585 0.071469 0.349957
Si Si7 0.923340 0.376447 0.152330
O O1 0.442033 0.842316 0.212089
O O2 0.343839 0.663856 0.382946
O O3 0.215756 0.935948 0.605752
O O4 0.710415 0.583147 0.208238
O O5 0.219988 0.973001 0.168770
O O6 0.774032 0.600834 0.798170
O O7 0.500000 0.000000 0.000000
O O8 0.956175 0.337528 0.451172
O O9 0.000000 0.000000 0.500000
O O10 0.563280 0.218333 0.359206
O O11 0.799687 0.305521 0.277090
O O12 0.000000 0.000000 0.000000
O O13 0.289645 0.241419 0.439096
O O14 0.031962 0.558459 0.769059
O O15 0.500000 0.000000 0.500000
O O16 0.801643 0.841351 0.102949
#
# Coordination Sequence:
#
# PCOD9001937 Si02
#       7
#     2   2   2   2   2   2   2
#     4  11  18  35  64  89 125 161 202 259 309 377
#     4   9  21  35  57  92 117 164 214 248 301 363
#     4   9  19  36  62  92 112 165 220 251 302 360
#     4  10  21  36  54  91 129 156 199 249 315 382
#     4  11  20  39  63  89 133 157 199 266 312 373
#     4  11  24  36  54  94 133 161 197 241 317 394
#     4  11  22  36  62  99 121 161 202 250 336 377
#
# _framework density 25.942890999999999
#
# number of rings (size 3 to 8) (size 9 to 14) (size 15 to 20)
#    0.000    1.714    2.857    2.143    2.000    1.143 
#    0.000    0.000    0.000    8.571   29.714    0.000 
#    0.000    0.000    0.000    0.000    0.000    0.000 
#
# Total GULP energy -77971.321855 kJ/mol
# GULP energy per Si atom -5569.380132 kJ/mol
# Density = 2.588384 g / cm^3
# Si number density = 25.942891 Si / 1000 Ang^3
#
#
#
# Elastic Constant Matrix: (Units=GPa)
#
#
# Indices 1 2 3 4 5 6 
#
# 1 93.8491 22.5280 51.8684 7.3441 -16.1082 -1.8639
# 2 22.5280 135.9030 68.2530 -24.4402 -5.9628 -10.5306
# 3 51.8684 68.2530 181.0076 -1.9944 -24.2566 -2.3697
# 4 7.3441 -24.4402 -1.9944 53.6396 -12.5644 -11.7853
# 5 -16.1082 -5.9628 -24.2566 -12.5644 53.9516 -5.4415
# 6 -1.8639 -10.5306 -2.3697 -11.7853 -5.4415 33.1579
#
#
#
# Elastic Compliance Matrix: (Units=1/GPa)
#
#
# Indices 1 2 3 4 5 6 
#
# 1 0.013100 -0.000815 -0.003208 -0.001850 0.001939 -0.000091
# 2 -0.000815 0.010981 -0.003559 0.006601 0.001490 0.005778
# 3 -0.003208 -0.003559 0.008053 -0.000520 0.002090 -0.000577
# 4 -0.001850 0.006601 -0.000520 0.026358 0.007345 0.012529
# 5 0.001939 0.001490 0.002090 0.007345 0.022641 0.007058
# 6 -0.000091 0.005778 -0.000577 0.012529 0.007058 0.037559
#
#
# Mechanical properties :
#
#
# Convention : Reuss Voigt Hill
#
# Bulk Modulus (GPa) = 58.93085 77.33985 68.13535
# Shear Modulus (GPa) = 35.83922 46.02384 40.93153
#
# Velocity S-wave (km/s) = 3.72084 4.21651 3.97641
# Velocity P-wave (km/s) = 6.42063 7.31994 6.88498
#
# Compressibility (1/GPa) = 0.01696904
#
# Stress axis : x y z
#
# Youngs Moduli (GPa) = 76.33636 91.06734 124.18105
#
# Poissons Ratio (x) = 0.07422 0.39841
# Poissons Ratio (y) = 0.06221 0.44196
# Poissons Ratio (z) = 0.24491 0.32411
#
# Static dielectric constant tensor:
#      x y z
#    x 2.193090 -0.120480 -0.006230 
#    y -0.120480 2.156380 0.061470 
#    z -0.006230 0.061470 2.125700 
# 
# From -- ./inp_files/276177.got.cif
#   From: 2010.05.17/outbox.cif.g08.bks.cpg/sg2_139_cif.got.tgz:276177.got - 2010.06.03 11:33:40.
