data_PCOD9001423
_publ_section_title
;
Structure prediction by ZEFSAII (Michael W. Deem and Ramdas Pophale) SiO2 
 PCOD9001423
Probable space group: P -1
;
_chemical_formula_sum "Si O2"
_cell_formula_units_Z 16
_cell_length_a 13.450464
_cell_length_b 14.379019
_cell_length_c 14.724116
_cell_angle_alpha 159.960878
_cell_angle_beta 105.409194
_cell_angle_gamma 66.210020
_cell_volume 832.606877
_symmetry_space_group_name_H-M "P -1"
_symmetry_group_IT_number 2
_symmetry_cell_setting 'triclinic'
loop_
_space_group_symop_operation_xyz
x,y,z
-x,-y,-z
loop_
_atom_site_type_symbol
_atom_site_label
_atom_site_fract_x
_atom_site_fract_y
_atom_site_fract_z
Si Si1 0.682280 0.899267 0.400415
Si Si2 0.078607 0.169929 0.166784
Si Si3 0.765606 0.252417 0.040563
Si Si4 0.836913 0.763457 0.471071
Si Si5 0.103218 0.876520 0.551027
Si Si6 0.904168 0.683988 0.902774
Si Si7 0.900283 0.382376 0.880571
Si Si8 0.453320 0.415564 0.819760
O O1 0.750593 0.973123 0.564029
O O2 0.619711 0.742070 0.299821
O O3 0.574570 0.181854 0.587104
O O4 0.782252 0.659508 0.141374
O O5 0.103365 0.200360 0.095257
O O6 0.000000 0.500000 0.500000
O O7 0.198894 0.936525 0.031190
O O8 0.000000 0.000000 0.000000
O O9 0.788272 0.549174 0.313161
O O10 0.637511 0.344946 0.053454
O O11 0.852629 0.988259 0.750917
O O12 0.957301 0.520304 0.234686
O O13 0.139080 0.569230 0.333837
O O14 0.131479 0.756779 0.343993
O O15 0.965089 0.102988 0.709990
O O16 0.144698 0.077549 0.807025
O O17 0.000000 0.500000 0.000000
O O18 0.500000 0.500000 0.000000
#
# Coordination Sequence:
#
# PCOD9001423 Si02
#       8
#     2   2   2   2   2   2   2   2
#     4  10  21  35  55  84 115 159 190 241 286 360
#     4  12  22  35  54  84 112 156 202 238 296 355
#     4  11  21  35  51  80 114 151 196 235 276 355
#     4  11  19  31  55  75 113 151 188 231 283 338
#     4  11  23  35  53  82 112 153 188 237 293 345
#     4  12  21  35  53  79 118 152 192 235 297 351
#     4  11  22  38  58  85 119 152 205 244 296 350
#     4  10  21  35  55  84 119 157 196 228 300 352
#
# _framework density 19.216750999999999
#
# number of rings (size 3 to 8) (size 9 to 14) (size 15 to 20)
#    0.000    1.000    6.250    1.500    1.750    2.000 
#    0.000    0.000    0.000    0.000    0.000    1.750 
#    0.000    0.125    0.000    0.000    0.000    0.000 
#
# Total GULP energy -89123.086787 kJ/mol
# GULP energy per Si atom -5570.192924 kJ/mol
# Density = 1.917301 g / cm^3
# Si number density = 19.216751 Si / 1000 Ang^3
#
#
#
# Elastic Constant Matrix: (Units=GPa)
#
#
# Indices 1 2 3 4 5 6 
#
# 1 38.0535 9.6824 24.0966 4.7564 -9.9519 -9.4752
# 2 9.6824 112.7508 35.5671 13.0425 -7.8207 -8.4656
# 3 24.0966 35.5671 109.5239 -0.8409 -6.5240 2.1641
# 4 4.7564 13.0425 -0.8409 29.7417 0.0861 -5.2584
# 5 -9.9519 -7.8207 -6.5240 0.0861 36.7113 5.0619
# 6 -9.4752 -8.4656 2.1641 -5.2584 5.0619 24.6882
#
#
#
# Elastic Compliance Matrix: (Units=1/GPa)
#
#
# Indices 1 2 3 4 5 6 
#
# 1 0.036914 0.001492 -0.008479 -0.004516 0.007033 0.013018
# 2 0.001492 0.010840 -0.003855 -0.004515 0.001578 0.003342
# 3 -0.008479 -0.003855 0.012354 0.002498 -0.000230 -0.005080
# 4 -0.004516 -0.004515 0.002498 0.037279 -0.002513 0.004955
# 5 0.007033 0.001578 -0.000230 -0.002513 0.029918 -0.003408
# 6 0.013018 0.003342 -0.005080 0.004955 -0.003408 0.048847
#
#
# Mechanical properties :
#
#
# Convention : Reuss Voigt Hill
#
# Bulk Modulus (GPa) = 26.02571 44.33560 35.18065
# Shear Modulus (GPa) = 23.73697 30.96038 27.34868
#
# Velocity S-wave (km/s) = 3.51839 4.01822 3.77658
# Velocity P-wave (km/s) = 5.48434 6.68203 6.11259
#
# Compressibility (1/GPa) = 0.03842355
#
# Stress axis : x y z
#
# Youngs Moduli (GPa) = 27.09031 92.25300 80.94722
#
# Poissons Ratio (x) = -0.13769 0.68636
# Poissons Ratio (y) = -0.04043 0.31207
# Poissons Ratio (z) = 0.22970 0.35565
#
# Static dielectric constant tensor:
#      x y z
#    x 1.737610 -0.000720 0.035530 
#    y -0.000720 1.747330 0.001470 
#    z 0.035530 0.001470 1.760940 
# 
# From -- ./inp_files/533522.got.cif
#   From: 2010.05.17/outbox.cif.g08.bks.cpg/sg2_267_cif.got.tgz:533522.got - 2010.06.03 11:33:40.
