data_PCOD9001155
_publ_section_title
;
Structure prediction by ZEFSAII (Michael W. Deem and Ramdas Pophale) SiO2 
 PCOD9001155
Probable space group: P -1
;
_chemical_formula_sum "Si O2"
_cell_formula_units_Z 16
_cell_length_a 6.970088
_cell_length_b 11.316259
_cell_length_c 13.296938
_cell_angle_alpha 98.039942
_cell_angle_beta 139.859701
_cell_angle_gamma 98.087909
_cell_volume 617.053291
_symmetry_space_group_name_H-M "P -1"
_symmetry_group_IT_number 2
_symmetry_cell_setting 'triclinic'
loop_
_space_group_symop_operation_xyz
x,y,z
-x,-y,-z
loop_
_atom_site_type_symbol
_atom_site_label
_atom_site_fract_x
_atom_site_fract_y
_atom_site_fract_z
Si Si1 0.219332 0.947005 0.740019
Si Si2 0.406838 0.617759 0.071977
Si Si3 0.209611 0.961995 0.163068
Si Si4 0.267334 0.258195 0.594609
Si Si5 0.716172 0.489797 0.463232
Si Si6 0.389153 0.175073 0.993983
Si Si7 0.975666 0.429850 0.748981
Si Si8 0.604717 0.225066 0.442612
O O1 0.469597 0.028987 0.764497
O O2 0.865444 0.869040 0.543692
O O3 0.263127 0.047898 0.857965
O O4 0.359319 0.843193 0.828353
O O5 0.472662 0.704420 0.207624
O O6 0.453825 0.707211 0.003507
O O7 0.693598 0.565179 0.171601
O O8 0.078584 0.495566 0.905302
O O9 0.346249 0.082345 0.309657
O O10 0.942320 0.833013 0.087279
O O11 0.000000 0.000000 0.000000
O O12 0.375607 0.392290 0.591544
O O13 0.926015 0.234210 0.512389
O O14 0.498117 0.335158 0.361939
O O15 0.000000 0.500000 0.500000
O O16 0.847161 0.511701 0.632174
O O17 0.737016 0.282043 0.612552
#
# Coordination Sequence:
#
# PCOD9001155 Si02
#       8
#     2   2   2   2   2   2   2   2
#     4   9  19  35  51  73 106 137 171 207 254 299
#     4  10  17  27  44  78 104 127 176 213 250 306
#     4   9  17  33  52  77 103 131 171 213 243 305
#     4   9  15  27  47  72 103 131 169 211 254 302
#     4   8  12  24  44  67  93 135 161 205 256 292
#     4  10  20  32  53  79 102 136 170 209 255 302
#     4   8  16  27  43  70 107 129 166 219 250 298
#     4   7  14  26  45  68  97 129 167 200 250 297
#
# _framework density 25.929690999999998
#
# number of rings (size 3 to 8) (size 9 to 14) (size 15 to 20)
#    0.750    2.500    1.250    0.750    0.000    1.500 
#    0.000    5.625    0.000    0.750    0.000    4.375 
#    0.000    0.000    0.000    0.000    0.000    0.000 
#
# Total GULP energy -89265.191525 kJ/mol
# GULP energy per Si atom -5579.074470 kJ/mol
# Density = 2.587067 g / cm^3
# Si number density = 25.929691 Si / 1000 Ang^3
#
#
#
# Elastic Constant Matrix: (Units=GPa)
#
#
# Indices 1 2 3 4 5 6 
#
# 1 68.7866 7.3715 30.7454 7.1677 5.6911 10.7394
# 2 7.3715 64.1762 25.5258 -7.8665 6.7753 9.8983
# 3 30.7454 25.5258 173.4141 26.9317 -28.3023 6.1304
# 4 7.1677 -7.8665 26.9317 29.4372 5.1735 -0.3021
# 5 5.6911 6.7753 -28.3023 5.1735 36.3691 9.9568
# 6 10.7394 9.8983 6.1304 -0.3021 9.9568 30.5147
#
#
#
# Elastic Compliance Matrix: (Units=1/GPa)
#
#
# Indices 1 2 3 4 5 6 
#
# 1 0.017151 0.000702 -0.003831 0.000313 -0.004762 -0.003937
# 2 0.000702 0.021655 -0.007306 0.014270 -0.011321 -0.001969
# 3 -0.003831 -0.007306 0.012388 -0.014985 0.014755 -0.003734
# 4 0.000313 0.014270 -0.014985 0.055727 -0.024129 0.006697
# 5 -0.004762 -0.011321 0.014755 -0.024129 0.049060 -0.013863
# 6 -0.003937 -0.001969 -0.003734 0.006697 -0.013863 0.040135
#
#
# Mechanical properties :
#
#
# Convention : Reuss Voigt Hill
#
# Bulk Modulus (GPa) = 32.97614 48.18470 40.58042
# Shear Modulus (GPa) = 22.01728 35.44650 28.73189
#
# Velocity S-wave (km/s) = 2.91712 3.70134 3.33238
# Velocity P-wave (km/s) = 4.90828 6.07369 5.52182
#
# Compressibility (1/GPa) = 0.03032495
#
# Stress axis : x y z
#
# Youngs Moduli (GPa) = 58.30633 46.17797 80.72039
#
# Poissons Ratio (x) = -0.03242 0.30921
# Poissons Ratio (y) = -0.04093 0.58975
# Poissons Ratio (z) = 0.22335 0.33738
#
# Static dielectric constant tensor:
#      x y z
#    x 2.163190 -0.048010 0.039190 
#    y -0.048010 2.080310 -0.029580 
#    z 0.039190 -0.029580 2.057630 
# 
# From -- ./inp_files/501896.got.cif
#   From: 2010.05.17/outbox.cif.g08.bks.cpg/sg2_251_cif.got.tgz:501896.got - 2010.06.03 11:33:40.
