data_PCOD9001931
_publ_section_title
;
Structure prediction by ZEFSAII (Michael W. Deem and Ramdas Pophale) SiO2 
 PCOD9001931
Probable space group: P -1
;
_chemical_formula_sum "Si O2"
_cell_formula_units_Z 14
_cell_length_a 13.490691
_cell_length_b 14.108322
_cell_length_c 12.211202
_cell_angle_alpha 114.229101
_cell_angle_beta 113.150396
_cell_angle_gamma 20.541610
_cell_volume 743.399816
_symmetry_space_group_name_H-M "P -1"
_symmetry_group_IT_number 2
_symmetry_cell_setting 'triclinic'
loop_
_space_group_symop_operation_xyz
x,y,z
-x,-y,-z
loop_
_atom_site_type_symbol
_atom_site_label
_atom_site_fract_x
_atom_site_fract_y
_atom_site_fract_z
Si Si1 0.961708 0.578052 0.897966
Si Si2 0.286633 0.812607 0.017976
Si Si3 0.173859 0.000366 0.627967
Si Si4 0.510162 0.437430 0.792200
Si Si5 0.058573 0.890595 0.639413
Si Si6 0.462503 0.856306 0.012190
Si Si7 0.268312 0.429555 0.244618
O O1 0.889234 0.538241 0.782146
O O2 0.251806 0.379691 0.905864
O O3 0.705405 0.886539 0.937841
O O4 0.000000 0.500000 0.000000
O O5 0.451798 0.670613 0.137490
O O6 0.260423 0.948719 0.019189
O O7 0.471483 0.583031 0.902675
O O8 0.000000 0.000000 0.000000
O O9 0.046883 0.085739 0.495023
O O10 0.955844 0.276444 0.718558
O O11 0.206275 0.861118 0.638901
O O12 0.486890 0.767566 0.654726
O O13 0.252944 0.657741 0.700458
O O14 0.791347 0.174855 0.721028
O O15 0.566633 0.731230 0.876221
#
# Coordination Sequence:
#
# PCOD9001931 Si02
#       7
#     2   2   2   2   2   2   2
#     4  10  21  36  54  84 115 149 189 225 285 341
#     4  11  24  38  59  88 115 151 196 218 285 345
#     4  11  22  34  58  82 114 150 195 220 286 339
#     4  11  23  37  56  78 122 145 186 232 268 341
#     4  11  22  38  53  84 115 154 184 233 277 339
#     4  11  22  35  59  82 121 151 178 236 282 330
#     4  11  20  36  57  84 116 151 186 229 280 338
#
# _framework density 18.832395999999999
#
# number of rings (size 3 to 8) (size 9 to 14) (size 15 to 20)
#    0.000    1.143    1.429    7.714    4.000    2.286 
#    0.000    0.000    0.000    0.000    0.000   20.000 
#    0.000    0.000    0.000    0.000    0.000    0.000 
#
# Total GULP energy -78143.887760 kJ/mol
# GULP energy per Si atom -5581.706269 kJ/mol
# Density = 1.878953 g / cm^3
# Si number density = 18.832396 Si / 1000 Ang^3
#
#
#
# Elastic Constant Matrix: (Units=GPa)
#
#
# Indices 1 2 3 4 5 6 
#
# 1 74.4152 18.2772 27.5685 3.0907 15.4162 -3.0779
# 2 18.2772 126.6281 27.8451 23.9801 31.8821 0.0976
# 3 27.5685 27.8451 72.9880 1.0279 12.6356 0.0736
# 4 3.0907 23.9801 1.0279 48.0615 25.9527 8.2688
# 5 15.4162 31.8821 12.6356 25.9527 40.4873 0.5085
# 6 -3.0779 0.0976 0.0736 8.2688 0.5085 30.5392
#
#
#
# Elastic Compliance Matrix: (Units=1/GPa)
#
#
# Indices 1 2 3 4 5 6 
#
# 1 0.016602 -0.000156 -0.005212 0.002127 -0.005951 0.001210
# 2 -0.000156 0.010435 -0.002858 -0.002005 -0.005988 0.000600
# 3 -0.005212 -0.002858 0.017294 0.003450 -0.003356 -0.001436
# 4 0.002127 -0.002005 0.003450 0.035567 -0.022993 -0.009035
# 5 -0.005951 -0.005988 -0.003356 -0.022993 0.047405 0.004864
# 6 0.001210 0.000600 -0.001436 -0.009035 0.004864 0.035234
#
#
# Mechanical properties :
#
#
# Convention : Reuss Voigt Hill
#
# Bulk Modulus (GPa) = 35.86942 46.82366 41.34654
# Shear Modulus (GPa) = 26.55610 37.17364 31.86487
#
# Velocity S-wave (km/s) = 3.75924 4.44770 4.11788
# Velocity P-wave (km/s) = 6.15878 7.16194 6.67922
#
# Compressibility (1/GPa) = 0.02787890
#
# Stress axis : x y z
#
# Youngs Moduli (GPa) = 60.23446 95.83143 57.82438
#
# Poissons Ratio (x) = 0.01490 0.30140
# Poissons Ratio (y) = 0.00937 0.16526
# Poissons Ratio (z) = 0.31396 0.27388
#
# Static dielectric constant tensor:
#      x y z
#    x 1.677520 -0.020050 0.059380 
#    y -0.020050 1.691700 -0.096080 
#    z 0.059380 -0.096080 1.648750 
# 
# From -- ./inp_files/453996.got.cif
#   From: 2010.05.17/outbox.cif.g08.bks.cpg/sg2_227_cif.got.tgz:453996.got - 2010.06.03 11:33:40.
