data_PCOD9001266
_publ_section_title
;
Structure prediction by ZEFSAII (Michael W. Deem and Ramdas Pophale) SiO2 
 PCOD9001266
Probable space group: P -1
;
_chemical_formula_sum "Si O2"
_cell_formula_units_Z 16
_cell_length_a 6.814147
_cell_length_b 13.419097
_cell_length_c 12.191349
_cell_angle_alpha 91.543863
_cell_angle_beta 76.933304
_cell_angle_gamma 140.272832
_cell_volume 674.432843
_symmetry_space_group_name_H-M "P -1"
_symmetry_group_IT_number 2
_symmetry_cell_setting 'triclinic'
loop_
_space_group_symop_operation_xyz
x,y,z
-x,-y,-z
loop_
_atom_site_type_symbol
_atom_site_label
_atom_site_fract_x
_atom_site_fract_y
_atom_site_fract_z
Si Si1 0.380850 0.727698 0.032801
Si Si2 0.398504 0.338082 0.303227
Si Si3 0.354568 0.742835 0.290915
Si Si4 0.734278 0.534427 0.054145
Si Si5 0.897737 0.959153 0.807357
Si Si6 0.689992 0.149213 0.402322
Si Si7 0.516413 0.300736 0.510209
Si Si8 0.848047 0.115723 0.682439
O O1 0.331752 0.698895 0.167734
O O2 0.117449 0.704554 0.018228
O O3 0.296894 0.588975 0.989792
O O4 0.733946 0.883972 0.943698
O O5 0.600309 0.478149 0.193007
O O6 0.299093 0.191645 0.256277
O O7 0.583387 0.394358 0.397281
O O8 0.064889 0.268471 0.360411
O O9 0.321561 0.644466 0.386490
O O10 0.147513 0.764150 0.328806
O O11 0.729728 0.925382 0.255027
O O12 0.500000 0.500000 0.000000
O O13 0.901077 0.079479 0.788219
O O14 0.597854 0.222406 0.456146
O O15 0.500000 0.000000 0.500000
O O16 0.510416 0.061070 0.308558
O O17 0.135209 0.177012 0.575576
#
# Coordination Sequence:
#
# PCOD9001266 Si02
#       8
#     2   2   2   2   2   2   2   2
#     4  10  24  44  61  86 117 154 204 248 291 349
#     4  11  21  35  59  89 118 151 202 244 286 349
#     4  11  22  36  58  91 129 158 186 232 299 361
#     4  10  25  45  67  83 106 154 208 257 295 335
#     4  10  21  34  59  89 126 157 191 237 292 348
#     4  12  18  30  54  87 127 155 190 231 285 348
#     4  11  21  33  55  88 126 159 188 236 289 352
#     4  11  20  31  53  92 125 160 185 224 294 354
#
# _framework density 23.723635999999999
#
# number of rings (size 3 to 8) (size 9 to 14) (size 15 to 20)
#    0.000    1.250    5.000    1.500    1.750    3.500 
#    0.000    0.625    0.000    3.750    0.000    0.000 
#    0.000    0.000    0.000    0.000    0.000    0.000 
#
# Total GULP energy -89238.117722 kJ/mol
# GULP energy per Si atom -5577.382358 kJ/mol
# Density = 2.366964 g / cm^3
# Si number density = 23.723636 Si / 1000 Ang^3
#
#
#
# Elastic Constant Matrix: (Units=GPa)
#
#
# Indices 1 2 3 4 5 6 
#
# 1 170.6144 22.1411 64.5507 -11.7312 0.9311 12.6531
# 2 22.1411 29.9617 21.5054 -22.2673 -5.1973 18.5587
# 3 64.5507 21.5054 138.2764 7.1660 10.0267 1.4775
# 4 -11.7312 -22.2673 7.1660 -7.1458 -6.2701 23.0834
# 5 0.9311 -5.1973 10.0267 -6.2701 31.5806 9.9557
# 6 12.6531 18.5587 1.4775 23.0834 9.9557 6.8948
#
#
#
# Elastic Compliance Matrix: (Units=1/GPa)
#
#
# Indices 1 2 3 4 5 6 
#
# 1 0.007380 -0.004147 -0.002758 -0.000538 -0.000249 0.000372
# 2 -0.004147 0.018626 -0.000102 -0.014558 -0.003002 0.010570
# 3 -0.002758 -0.000102 0.008513 0.002557 -0.000990 -0.003620
# 4 -0.000538 -0.014558 0.002557 0.007994 -0.010389 0.027864
# 5 -0.000249 -0.003002 -0.000990 -0.010389 0.028831 0.001900
# 6 0.000372 0.010570 -0.003620 0.027864 0.001900 0.020650
#
#
# Mechanical properties :
#
#
# Convention : Reuss Voigt Hill
#
# Bulk Modulus (GPa) = 48.76755 61.69411 55.23083
# Shear Modulus (GPa) = 44.30932 21.64295 32.97613
#
# Velocity S-wave (km/s) = 4.32641 3.02370 3.73233
# Velocity P-wave (km/s) = 6.74969 6.18483 6.47342
#
# Compressibility (1/GPa) = 0.02050544
#
# Stress axis : x y z
#
# Youngs Moduli (GPa) = 135.50823 53.68700 117.46514
#
# Poissons Ratio (x) = 0.22265 0.32398
# Poissons Ratio (y) = 0.56198 0.01194
# Poissons Ratio (z) = 0.37374 0.00546
#
# Static dielectric constant tensor:
#      x y z
#    x -5.089990 -1.524560 -1.149880 
#    y -1.524560 1.585970 -0.234680 
#    z -1.149880 -0.234680 1.750220 
# 
# From -- ./inp_files/367733.got.cif
#   From: 2010.05.17/outbox.cif.g08.bks.cpg/sg2_184_cif.got.tgz:367733.got - 2010.06.03 11:33:40.
