data_PCOD9001500
_publ_section_title
;
Structure prediction by ZEFSAII (Michael W. Deem and Ramdas Pophale) SiO2 
 PCOD9001500
Probable space group: P -1
;
_chemical_formula_sum "Si O2"
_cell_formula_units_Z 16
_cell_length_a 11.082451
_cell_length_b 5.522528
_cell_length_c 17.720261
_cell_angle_alpha 111.456845
_cell_angle_beta 134.168932
_cell_angle_gamma 77.067548
_cell_volume 723.224644
_symmetry_space_group_name_H-M "P -1"
_symmetry_group_IT_number 2
_symmetry_cell_setting 'triclinic'
loop_
_space_group_symop_operation_xyz
x,y,z
-x,-y,-z
loop_
_atom_site_type_symbol
_atom_site_label
_atom_site_fract_x
_atom_site_fract_y
_atom_site_fract_z
Si Si1 0.784873 0.982722 0.624597
Si Si2 0.140200 0.061664 0.504345
Si Si3 0.528001 0.394975 0.584865
Si Si4 0.447023 0.864569 0.702925
Si Si5 0.077838 0.728995 0.779400
Si Si6 0.489218 0.682981 0.129680
Si Si7 0.728521 0.712172 0.096117
Si Si8 0.781094 0.445168 0.328061
O O1 0.900557 0.047393 0.608742
O O2 0.635113 0.801151 0.502828
O O3 0.888158 0.825616 0.713163
O O4 0.694977 0.232556 0.643902
O O5 0.158848 0.372540 0.556472
O O6 0.320260 0.956863 0.594059
O O7 0.000000 0.000000 0.500000
O O8 0.500000 0.500000 0.500000
O O9 0.526680 0.614467 0.673152
O O10 0.314392 0.800688 0.704976
O O11 0.573375 0.076473 0.821150
O O12 0.148557 0.503436 0.837908
O O13 0.087636 0.615812 0.685744
O O14 0.190357 0.004204 0.858866
O O15 0.578554 0.752454 0.096298
O O16 0.638864 0.588513 0.236419
O O17 0.357349 0.445971 0.028793
#
# Coordination Sequence:
#
# PCOD9001500 Si02
#       8
#     2   2   2   2   2   2   2   2
#     4  11  25  39  58  90 122 169 212 261 306 379
#     4  11  23  34  57  90 131 161 199 253 320 385
#     4  11  24  42  63  82 120 170 218 259 308 365
#     4  11  20  37  59  88 117 162 209 257 303 376
#     4  11  24  38  62  92 130 162 207 255 322 378
#     4   9  21  35  60  89 128 158 208 252 312 382
#     4  10  22  39  60  94 126 168 202 258 320 378
#     4  10  21  35  56  92 124 164 200 251 314 379
#
# _framework density 22.123142000000001
#
# number of rings (size 3 to 8) (size 9 to 14) (size 15 to 20)
#    0.000    1.500    3.750    0.750    8.750    2.500 
#    0.000    0.000    0.000    1.500    0.000    0.000 
#    0.000    0.000    0.000    0.000    0.000    0.000 
#
# Total GULP energy -89290.402437 kJ/mol
# GULP energy per Si atom -5580.650152 kJ/mol
# Density = 2.207279 g / cm^3
# Si number density = 22.123142 Si / 1000 Ang^3
#
#
#
# Elastic Constant Matrix: (Units=GPa)
#
#
# Indices 1 2 3 4 5 6 
#
# 1 42.4179 23.7144 11.0330 -1.2320 -2.2467 -10.2237
# 2 23.7144 99.7113 31.4630 14.3119 -4.4927 -32.1767
# 3 11.0330 31.4630 73.3230 26.3481 -10.3266 -25.0708
# 4 -1.2320 14.3119 26.3481 31.3637 -4.4041 4.4630
# 5 -2.2467 -4.4927 -10.3266 -4.4041 20.3220 4.4115
# 6 -10.2237 -32.1767 -25.0708 4.4630 4.4115 46.3228
#
#
#
# Elastic Compliance Matrix: (Units=1/GPa)
#
#
# Indices 1 2 3 4 5 6 
#
# 1 0.028765 -0.007330 -0.005311 0.009529 0.001508 -0.002679
# 2 -0.007330 0.016713 0.002229 -0.011730 -0.001226 0.012445
# 3 -0.005311 0.002229 0.031908 -0.030150 0.005233 0.020052
# 4 0.009529 -0.011730 -0.030150 0.067691 0.004166 -0.029281
# 5 0.001508 -0.001226 0.005233 0.004166 0.053353 -0.003169
# 6 -0.002679 0.012445 0.020052 -0.029281 -0.003169 0.043616
#
#
# Mechanical properties :
#
#
# Convention : Reuss Voigt Hill
#
# Bulk Modulus (GPa) = 17.67948 38.65255 28.16601
# Shear Modulus (GPa) = 17.74781 29.55116 23.64948
#
# Velocity S-wave (km/s) = 2.83544 3.65877 3.27309
# Velocity P-wave (km/s) = 4.32763 5.94628 5.20032
#
# Compressibility (1/GPa) = 0.05656276
#
# Stress axis : x y z
#
# Youngs Moduli (GPa) = 34.76439 59.83290 31.33973
#
# Poissons Ratio (x) = 0.43855 0.16645
# Poissons Ratio (y) = 0.25481 -0.06985
# Poissons Ratio (z) = 0.18464 -0.13335
#
# Static dielectric constant tensor:
#      x y z
#    x 1.877110 0.038070 0.047020 
#    y 0.038070 1.925570 0.023960 
#    z 0.047020 0.023960 1.840540 
# 
# From -- ./inp_files/66350.got.cif
#   From: 2010.05.17/outbox.cif.g08.bks.cpg/sg2_34_cif.got.tgz:66350.got - 2010.06.03 11:33:40.
