data_PCOD9001549
_publ_section_title
;
Structure prediction by ZEFSAII (Michael W. Deem and Ramdas Pophale) SiO2 
 PCOD9001549
Probable space group: P -1
;
_chemical_formula_sum "Si O2"
_cell_formula_units_Z 14
_cell_length_a 10.999210
_cell_length_b 14.255689
_cell_length_c 12.139931
_cell_angle_alpha 64.440460
_cell_angle_beta 123.874697
_cell_angle_gamma 66.374292
_cell_volume 736.808429
_symmetry_space_group_name_H-M "P -1"
_symmetry_group_IT_number 2
_symmetry_cell_setting 'triclinic'
loop_
_space_group_symop_operation_xyz
x,y,z
-x,-y,-z
loop_
_atom_site_type_symbol
_atom_site_label
_atom_site_fract_x
_atom_site_fract_y
_atom_site_fract_z
Si Si1 0.410231 0.529021 0.252684
Si Si2 0.838422 0.511511 0.982007
Si Si3 0.408220 0.226680 0.081506
Si Si4 0.335722 0.446657 0.767285
Si Si5 0.750523 0.234195 0.757159
Si Si6 0.189774 0.213742 0.515376
Si Si7 0.760242 0.590729 0.499325
O O1 0.476058 0.572141 0.169024
O O2 0.694800 0.326826 0.567402
O O3 0.217325 0.702918 0.159344
O O4 0.283983 0.502240 0.151428
O O5 0.602166 0.713515 0.834284
O O6 0.047471 0.330520 0.267859
O O7 0.000000 0.500000 0.000000
O O8 0.480951 0.272936 0.007140
O O9 0.081300 0.392831 0.806688
O O10 0.606797 0.007205 0.282002
O O11 0.241768 0.444251 0.610191
O O12 0.065684 0.650635 0.596472
O O13 0.458728 0.349781 0.577837
O O14 0.000000 0.000000 0.000000
O O15 0.334732 0.231780 0.623338
#
# Coordination Sequence:
#
# PCOD9001549 Si02
#       7
#     2   2   2   2   2   2   2
#     4  10  21  39  58  79 116 149 175 230 282 318
#     4  10  22  40  57  79 110 145 186 228 275 327
#     4  10  21  36  56  84 112 144 189 226 264 327
#     4   9  20  36  54  82 114 147 183 224 277 326
#     4  10  22  37  58  87 110 141 187 226 273 333
#     4  10  21  35  58  84 109 147 186 226 270 322
#     4   9  19  36  56  83 116 144 180 229 275 322
#
# _framework density 19.000867
#
# number of rings (size 3 to 8) (size 9 to 14) (size 15 to 20)
#    0.000    2.571    0.000    3.429    0.000   13.143 
#    0.000    1.429    0.000    0.000    0.000    0.000 
#    0.000    0.000    0.000    0.000    0.000    0.000 
#
# Total GULP energy -78122.371737 kJ/mol
# GULP energy per Si atom -5580.169410 kJ/mol
# Density = 1.895762 g / cm^3
# Si number density = 19.000867 Si / 1000 Ang^3
#
#
#
# Elastic Constant Matrix: (Units=GPa)
#
#
# Indices 1 2 3 4 5 6 
#
# 1 102.8067 56.7075 33.0088 2.8571 -13.3296 6.5154
# 2 56.7075 186.6377 72.4532 -10.7540 -9.9850 18.9466
# 3 33.0088 72.4532 63.7827 -25.8316 -15.5298 -1.3265
# 4 2.8571 -10.7540 -25.8316 46.9809 9.3739 -4.5138
# 5 -13.3296 -9.9850 -15.5298 9.3739 14.0986 7.9166
# 6 6.5154 18.9466 -1.3265 -4.5138 7.9166 25.3853
#
#
#
# Elastic Compliance Matrix: (Units=1/GPa)
#
#
# Indices 1 2 3 4 5 6 
#
# 1 0.016085 -0.000066 -0.007726 -0.010676 0.021011 -0.012934
# 2 -0.000066 0.013678 -0.018832 -0.009019 0.002490 -0.013556
# 3 -0.007726 -0.018832 0.054694 0.025944 0.011097 0.020049
# 4 -0.010676 -0.009019 0.025944 0.043499 -0.033032 0.028863
# 5 0.021011 0.002490 0.011097 -0.033032 0.162191 -0.063126
# 6 -0.012934 -0.013556 0.020049 0.028863 -0.063126 0.078696
#
#
# Mechanical properties :
#
#
# Convention : Reuss Voigt Hill
#
# Bulk Modulus (GPa) = 32.04136 75.28512 53.66324
# Shear Modulus (GPa) = 11.56085 30.03015 20.79550
#
# Velocity S-wave (km/s) = 2.46933 3.97982 3.31184
# Velocity P-wave (km/s) = 5.00298 7.79914 6.55196
#
# Compressibility (1/GPa) = 0.03120966
#
# Stress axis : x y z
#
# Youngs Moduli (GPa) = 62.17079 73.10929 18.28338
#
# Poissons Ratio (x) = 0.00481 0.14127
# Poissons Ratio (y) = 0.00409 0.34431
# Poissons Ratio (z) = 0.48036 1.37676
#
# Static dielectric constant tensor:
#      x y z
#    x 1.682160 0.001260 -0.010680 
#    y 0.001260 1.660930 0.012670 
#    z -0.010680 0.012670 1.649670 
# 
# From -- ./inp_files/421188.got.cif
#   From: 2010.05.17/outbox.cif.g08.bks.cpg/sg2_211_cif.got.tgz:421188.got - 2010.06.03 11:33:40.
