data_PCOD9001327
_publ_section_title
;
Structure prediction by ZEFSAII (Michael W. Deem and Ramdas Pophale) SiO2 
 PCOD9001327
Probable space group: P -1
;
_chemical_formula_sum "Si O2"
_cell_formula_units_Z 16
_cell_length_a 12.348035
_cell_length_b 12.020020
_cell_length_c 8.279115
_cell_angle_alpha 123.591610
_cell_angle_beta 121.068779
_cell_angle_gamma 95.876837
_cell_volume 735.869478
_symmetry_space_group_name_H-M "P -1"
_symmetry_group_IT_number 2
_symmetry_cell_setting 'triclinic'
loop_
_space_group_symop_operation_xyz
x,y,z
-x,-y,-z
loop_
_atom_site_type_symbol
_atom_site_label
_atom_site_fract_x
_atom_site_fract_y
_atom_site_fract_z
Si Si1 0.955719 0.103739 0.193344
Si Si2 0.885814 0.409029 0.126445
Si Si3 0.640513 0.633078 0.616602
Si Si4 0.640216 0.900576 0.623763
Si Si5 0.064224 0.130857 0.797367
Si Si6 0.899015 0.247336 0.582430
Si Si7 0.357272 0.906499 0.504092
Si Si8 0.166167 0.422783 0.503697
O O1 0.908633 0.161406 0.362359
O O2 0.119295 0.253419 0.401283
O O3 0.982327 0.965857 0.151048
O O4 0.809342 0.029442 0.912027
O O5 0.802417 0.455074 0.231756
O O6 0.001647 0.566199 0.236444
O O7 0.004281 0.379765 0.280087
O O8 0.756652 0.255314 0.813053
O O9 0.500000 0.500000 0.500000
O O10 0.609308 0.734207 0.542464
O O11 0.714289 0.546397 0.514246
O O12 0.758788 0.753724 0.940803
O O13 0.519812 0.930406 0.640793
O O14 0.632422 0.945012 0.464420
O O15 0.990612 0.229296 0.783246
O O16 0.000000 0.000000 0.500000
O O17 0.726907 0.146934 0.430734
#
# Coordination Sequence:
#
# PCOD9001327 Si02
#       8
#     2   2   2   2   2   2   2   2
#     4   9  19  40  60  90 120 157 209 253 310 369
#     4  10  21  38  63  92 122 160 209 255 312 365
#     4  11  25  41  65  92 128 168 206 257 318 376
#     4  10  24  40  58  88 126 163 204 257 315 375
#     4   9  20  38  62  92 122 154 209 263 300 368
#     4  10  21  34  65  92 117 162 206 262 304 365
#     4  11  22  39  60  89 127 161 208 257 310 367
#     4  10  21  39  66  89 120 164 209 256 305 375
#
# _framework density 21.742985999999998
#
# number of rings (size 3 to 8) (size 9 to 14) (size 15 to 20)
#    0.000    2.000    1.250    1.125    5.250    1.500 
#    0.000    8.125    0.000    0.000    0.000    0.000 
#    0.000    0.000    0.000    0.000    0.000    0.000 
#
# Total GULP energy -89137.673346 kJ/mol
# GULP energy per Si atom -5571.104584 kJ/mol
# Density = 2.169350 g / cm^3
# Si number density = 21.742986 Si / 1000 Ang^3
#
#
#
# Elastic Constant Matrix: (Units=GPa)
#
#
# Indices 1 2 3 4 5 6 
#
# 1 138.5436 23.7747 37.0042 10.8010 8.0326 29.4866
# 2 23.7747 70.0357 16.1017 12.8576 15.7097 -1.5786
# 3 37.0042 16.1017 48.8976 5.9656 4.2304 1.9578
# 4 10.8010 12.8576 5.9656 29.4180 -0.0805 10.3430
# 5 8.0326 15.7097 4.2304 -0.0805 29.6172 5.1045
# 6 29.4866 -1.5786 1.9578 10.3430 5.1045 26.8186
#
#
#
# Elastic Compliance Matrix: (Units=1/GPa)
#
#
# Indices 1 2 3 4 5 6 
#
# 1 0.013318 -0.004359 -0.008789 0.004636 0.002826 -0.016584
# 2 -0.004359 0.021415 -0.001750 -0.012065 -0.012228 0.013162
# 3 -0.008789 -0.001750 0.028128 -0.005231 -0.002441 0.009989
# 4 0.004636 -0.012065 -0.005231 0.047734 0.010471 -0.025828
# 5 0.002826 -0.012228 -0.002441 0.010471 0.042583 -0.015792
# 6 -0.016584 0.013162 0.009989 -0.025828 -0.015792 0.068533
#
#
# Mechanical properties :
#
#
# Convention : Reuss Voigt Hill
#
# Bulk Modulus (GPa) = 30.24426 45.69310 37.96868
# Shear Modulus (GPa) = 19.04550 29.21051 24.12801
#
# Velocity S-wave (km/s) = 2.96284 3.66928 3.33482
# Velocity P-wave (km/s) = 5.06405 6.24598 5.68581
#
# Compressibility (1/GPa) = 0.03306413
#
# Stress axis : x y z
#
# Youngs Moduli (GPa) = 75.08794 46.69595 35.55175
#
# Poissons Ratio (x) = 0.20355 0.31247
# Poissons Ratio (y) = 0.32732 0.06222
# Poissons Ratio (z) = 0.65996 0.08172
#
# Static dielectric constant tensor:
#      x y z
#    x 1.863590 0.042430 -0.049100 
#    y 0.042430 1.932520 -0.031550 
#    z -0.049100 -0.031550 1.766480 
# 
# From -- ./inp_files/263205.got.cif
#   From: 2010.05.17/outbox.cif.g08.bks.cpg/sg2_132_cif.got.tgz:263205.got - 2010.06.03 11:33:40.
