data_PCOD9001237
_publ_section_title
;
Structure prediction by ZEFSAII (Michael W. Deem and Ramdas Pophale) SiO2 
 PCOD9001237
Probable space group: P -1
;
_chemical_formula_sum "Si O2"
_cell_formula_units_Z 14
_cell_length_a 11.837705
_cell_length_b 9.093807
_cell_length_c 13.076069
_cell_angle_alpha 131.450725
_cell_angle_beta 32.299333
_cell_angle_gamma 133.378337
_cell_volume 534.542796
_symmetry_space_group_name_H-M "P -1"
_symmetry_group_IT_number 2
_symmetry_cell_setting 'triclinic'
loop_
_space_group_symop_operation_xyz
x,y,z
-x,-y,-z
loop_
_atom_site_type_symbol
_atom_site_label
_atom_site_fract_x
_atom_site_fract_y
_atom_site_fract_z
Si Si1 0.662654 0.604773 0.667307
Si Si2 0.006044 0.541769 0.894208
Si Si3 0.678865 0.771475 0.172982
Si Si4 0.231221 0.363582 0.181432
Si Si5 0.650785 0.171329 0.036302
Si Si6 0.140451 0.793880 0.460429
Si Si7 0.395642 0.877944 0.725478
O O1 0.545271 0.358564 0.655205
O O2 0.626902 0.662442 0.840895
O O3 0.506201 0.686820 0.753753
O O4 0.925980 0.727062 0.516752
O O5 0.146488 0.688457 0.123679
O O6 0.255905 0.635669 0.704463
O O7 0.000000 0.500000 0.000000
O O8 0.876213 0.706213 0.045270
O O9 0.675674 0.999717 0.255877
O O10 0.701303 0.698191 0.006038
O O11 0.233390 0.601328 0.288213
O O12 0.982312 0.233723 0.348158
O O13 0.700216 0.094442 0.074041
O O14 0.500000 0.000000 0.000000
O O15 0.339611 0.009401 0.408888
#
# Coordination Sequence:
#
# PCOD9001237 Si02
#       7
#     2   2   2   2   2   2   2
#     4   9  18  33  50  85 114 138 174 231 269 310
#     4   9  22  38  51  80 116 139 176 231 279 320
#     4  11  18  31  63  80 102 147 191 225 259 317
#     4   9  17  31  50  89 110 137 182 228 265 307
#     4  10  21  34  58  84 104 139 187 234 260 310
#     4   9  19  30  52  80 123 139 171 225 279 317
#     4  11  20  35  55  82 113 146 178 217 282 328
#
# _framework density 26.190605999999999
#
# number of rings (size 3 to 8) (size 9 to 14) (size 15 to 20)
#    0.857    1.429    1.429    1.714    4.000    0.571 
#    0.000    0.714    0.000    0.857    0.000    0.000 
#    0.000    0.000    0.000    0.000    0.000    0.000 
#
# Total GULP energy -77972.388826 kJ/mol
# GULP energy per Si atom -5569.456345 kJ/mol
# Density = 2.613100 g / cm^3
# Si number density = 26.190606 Si / 1000 Ang^3
#
#
#
# Elastic Constant Matrix: (Units=GPa)
#
#
# Indices 1 2 3 4 5 6 
#
# 1 114.1601 29.9818 23.5313 -20.1740 -11.1669 -27.5460
# 2 29.9818 170.8844 50.6113 -71.4043 -14.1324 10.7137
# 3 23.5313 50.6113 102.4818 -43.8700 4.0311 6.8503
# 4 -20.1740 -71.4043 -43.8700 55.2699 11.6763 -19.1257
# 5 -11.1669 -14.1324 4.0311 11.6763 25.7129 -9.6237
# 6 -27.5460 10.7137 6.8503 -19.1257 -9.6237 43.7514
#
#
#
# Elastic Compliance Matrix: (Units=1/GPa)
#
#
# Indices 1 2 3 4 5 6 
#
# 1 0.015055 0.001840 -0.001327 0.010378 0.008935 0.015738
# 2 0.001840 0.014102 0.001847 0.022816 0.000726 0.007550
# 3 -0.001327 0.001847 0.017267 0.018338 -0.009904 0.001847
# 4 0.010378 0.022816 0.018338 0.078499 -0.010190 0.030150
# 5 0.008935 0.000726 -0.009904 -0.010190 0.054815 0.014602
# 6 0.015738 0.007550 0.001847 0.030150 0.014602 0.047019
#
#
# Mechanical properties :
#
#
# Convention : Reuss Voigt Hill
#
# Bulk Modulus (GPa) = 19.55221 66.19722 42.87472
# Shear Modulus (GPa) = 20.91296 43.84031 32.37663
#
# Velocity S-wave (km/s) = 2.82882 4.09576 3.51977
# Velocity P-wave (km/s) = 4.26042 6.90631 5.73796
#
# Compressibility (1/GPa) = 0.05114512
#
# Stress axis : x y z
#
# Youngs Moduli (GPa) = 66.42186 70.90963 57.91446
#
# Poissons Ratio (x) = -0.13049 0.07683
# Poissons Ratio (y) = -0.12223 -0.10695
# Poissons Ratio (z) = 0.08811 -0.13094
#
# Static dielectric constant tensor:
#      x y z
#    x 2.112730 0.124390 -0.062840 
#    y 0.124390 2.284940 0.035860 
#    z -0.062840 0.035860 2.136410 
# 
# From -- ./inp_files/512234.got.cif
#   From: 2010.05.17/outbox.cif.g08.bks.cpg/sg2_257_cif.got.tgz:512234.got - 2010.06.03 11:33:40.
