data_PCOD9001884
_publ_section_title
;
Structure prediction by ZEFSAII (Michael W. Deem and Ramdas Pophale) SiO2 
 PCOD9001884
Probable space group: P -1
;
_chemical_formula_sum "Si O2"
_cell_formula_units_Z 16
_cell_length_a 7.804726
_cell_length_b 17.935864
_cell_length_c 16.624198
_cell_angle_alpha 36.193819
_cell_angle_beta 45.330276
_cell_angle_gamma 27.550234
_cell_volume 634.944454
_symmetry_space_group_name_H-M "P -1"
_symmetry_group_IT_number 2
_symmetry_cell_setting 'triclinic'
loop_
_space_group_symop_operation_xyz
x,y,z
-x,-y,-z
loop_
_atom_site_type_symbol
_atom_site_label
_atom_site_fract_x
_atom_site_fract_y
_atom_site_fract_z
Si Si1 0.403776 0.194526 0.878160
Si Si2 0.514231 0.517669 0.870861
Si Si3 0.724692 0.103048 0.576465
Si Si4 0.149914 0.085972 0.590790
Si Si5 0.447577 0.042041 0.840241
Si Si6 0.706785 0.494822 0.656633
Si Si7 0.735970 0.474482 0.353665
Si Si8 0.574997 0.692589 0.828759
O O1 0.603294 0.042982 0.870905
O O2 0.432394 0.329808 0.728967
O O3 0.961291 0.341064 0.894209
O O4 0.564022 0.094352 0.000786
O O5 0.450556 0.570963 0.752997
O O6 0.390993 0.681076 0.827435
O O7 0.362305 0.441099 0.010486
O O8 0.647733 0.994895 0.732053
O O9 0.343494 0.333531 0.483577
O O10 0.907183 0.108520 0.584919
O O11 0.000000 0.000000 0.500000
O O12 0.936344 0.298226 0.501868
O O13 0.500000 0.000000 0.500000
O O14 0.319208 0.913287 0.744145
O O15 0.074651 0.271728 0.751949
O O16 0.548993 0.491525 0.633422
O O17 0.052184 0.398865 0.252883
#
# Coordination Sequence:
#
# PCOD9001884 Si02
#       8
#     2   2   2   2   2   2   2   2
#     4   9  19  37  59  80 104 144 194 233 269 325
#     4   9  17  30  53  80 107 146 192 234 270 322
#     4  11  22  37  59  85 113 145 185 230 276 330
#     4   9  18  34  52  77 114 146 179 226 278 330
#     4  10  21  39  61  81 108 148 191 231 272 327
#     4  10  21  36  53  82 118 147 178 224 284 337
#     4   9  19  33  52  80 114 145 180 228 282 336
#     4   9  16  30  53  79 110 150 192 230 274 323
#
# _framework density 25.199054
#
# number of rings (size 3 to 8) (size 9 to 14) (size 15 to 20)
#    0.000    2.500    0.000    1.875    0.000    4.000 
#    0.000    6.250    0.000    0.000    0.000    0.000 
#    0.000    0.000    0.000    0.000    0.000    0.000 
#
# Total GULP energy -89272.693188 kJ/mol
# GULP energy per Si atom -5579.543324 kJ/mol
# Density = 2.514170 g / cm^3
# Si number density = 25.199054 Si / 1000 Ang^3
#
#
#
# Elastic Constant Matrix: (Units=GPa)
#
#
# Indices 1 2 3 4 5 6 
#
# 1 28.7842 0.7883 8.3983 -4.7695 -1.9643 3.7290
# 2 0.7883 74.1221 45.9383 -16.6094 8.5657 4.0950
# 3 8.3983 45.9383 149.5196 -6.5790 -10.8004 -0.2825
# 4 -4.7695 -16.6094 -6.5790 54.6219 5.3742 -0.6614
# 5 -1.9643 8.5657 -10.8004 5.3742 22.7515 1.2089
# 6 3.7290 4.0950 -0.2825 -0.6614 1.2089 29.7961
#
#
#
# Elastic Compliance Matrix: (Units=1/GPa)
#
#
# Indices 1 2 3 4 5 6 
#
# 1 0.036660 0.002148 -0.002534 0.003431 0.000601 -0.004856
# 2 0.002148 0.021114 -0.007224 0.006956 -0.012699 -0.002569
# 3 -0.002534 -0.007224 0.009501 -0.001991 0.007425 0.001055
# 4 0.003431 0.006956 -0.001991 0.021289 -0.008265 -0.000596
# 5 0.000601 -0.012699 0.007425 -0.008265 0.054297 -0.000646
# 6 -0.004856 -0.002569 0.001055 -0.000596 -0.000646 0.034545
#
#
# Mechanical properties :
#
#
# Convention : Reuss Voigt Hill
#
# Bulk Modulus (GPa) = 19.21018 40.29730 29.75374
# Shear Modulus (GPa) = 23.81217 34.58730 29.19973
#
# Velocity S-wave (km/s) = 3.07736 3.70883 3.40775
# Velocity P-wave (km/s) = 4.50186 5.86233 5.22655
#
# Compressibility (1/GPa) = 0.05205572
#
# Stress axis : x y z
#
# Youngs Moduli (GPa) = 27.27739 47.36274 105.25722
#
# Poissons Ratio (x) = -0.10175 0.26672
# Poissons Ratio (y) = -0.05860 0.76035
# Poissons Ratio (z) = 0.06912 0.34213
#
# Static dielectric constant tensor:
#      x y z
#    x 1.929730 -0.008370 -0.050620 
#    y -0.008370 2.139850 -0.032080 
#    z -0.050620 -0.032080 2.149200 
# 
# From -- ./inp_files/562919.got.cif
#   From: 2010.05.17/outbox.cif.g08.bks.cpg/sg2_282_cif.got.tgz:562919.got - 2010.06.03 11:33:40.
