data_PCOD9001530
_publ_section_title
;
Structure prediction by ZEFSAII (Michael W. Deem and Ramdas Pophale) SiO2 
 PCOD9001530
Probable space group: P -1
;
_chemical_formula_sum "Si O2"
_cell_formula_units_Z 14
_cell_length_a 8.860838
_cell_length_b 12.947758
_cell_length_c 8.189658
_cell_angle_alpha 46.942227
_cell_angle_beta 50.340722
_cell_angle_gamma 73.178705
_cell_volume 510.319397
_symmetry_space_group_name_H-M "P -1"
_symmetry_group_IT_number 2
_symmetry_cell_setting 'triclinic'
loop_
_space_group_symop_operation_xyz
x,y,z
-x,-y,-z
loop_
_atom_site_type_symbol
_atom_site_label
_atom_site_fract_x
_atom_site_fract_y
_atom_site_fract_z
Si Si1 0.725372 0.988856 0.797629
Si Si2 0.550171 0.385162 0.324392
Si Si3 0.410479 0.292004 0.969122
Si Si4 0.328941 0.159888 0.512142
Si Si5 0.794367 0.277091 0.557030
Si Si6 0.084447 0.551222 0.209376
Si Si7 0.786453 0.120992 0.255801
O O1 0.856388 0.124521 0.666378
O O2 0.787125 0.044735 0.512031
O O3 0.500000 0.000000 0.000000
O O4 0.711650 0.816640 0.970736
O O5 0.548087 0.534272 0.255582
O O6 0.342703 0.271700 0.531503
O O7 0.676565 0.304697 0.443687
O O8 0.681907 0.434537 0.014851
O O9 0.633486 0.263441 0.829910
O O10 0.316025 0.240685 0.264299
O O11 0.556813 0.137061 0.384992
O O12 0.190155 0.994982 0.772402
O O13 0.963975 0.426056 0.305905
O O14 0.000000 0.500000 0.500000
O O15 0.069724 0.716994 0.020797
#
# Coordination Sequence:
#
# PCOD9001530 Si02
#       7
#     2   2   2   2   2   2   2
#     4   9  18  33  57  85 112 145 193 229 280 332
#     4  11  21  36  58  88 116 148 186 244 290 323
#     4  10  21  35  57  89 118 144 188 241 290 329
#     4   9  17  32  57  79 112 146 188 229 280 325
#     4  11  20  37  60  84 113 151 193 232 281 347
#     4  11  23  38  59  83 114 155 198 226 279 349
#     4   9  17  33  55  83 108 148 193 236 265 332
#
# _framework density 27.433799
#
# number of rings (size 3 to 8) (size 9 to 14) (size 15 to 20)
#    0.000    2.000    2.857    3.000    0.000    1.143 
#    0.000    0.714    0.000    4.286    0.000    0.000 
#    0.000    0.000    0.000    0.000    0.000    0.000 
#
# Total GULP energy -78216.171290 kJ/mol
# GULP energy per Si atom -5586.869378 kJ/mol
# Density = 2.737136 g / cm^3
# Si number density = 27.433799 Si / 1000 Ang^3
#
#
#
# Elastic Constant Matrix: (Units=GPa)
#
#
# Indices 1 2 3 4 5 6 
#
# 1 48.8270 45.3130 16.8490 -1.4221 -9.3067 4.8759
# 2 45.3130 231.9294 88.8910 -75.5110 -8.4696 32.3208
# 3 16.8490 88.8910 97.7080 -22.8010 -5.5563 30.2719
# 4 -1.4221 -75.5110 -22.8010 87.5254 16.2139 -15.7860
# 5 -9.3067 -8.4696 -5.5563 16.2139 35.6258 -1.1331
# 6 4.8759 32.3208 30.2719 -15.7860 -1.1331 36.9075
#
#
#
# Elastic Compliance Matrix: (Units=1/GPa)
#
#
# Indices 1 2 3 4 5 6 
#
# 1 0.029785 -0.008801 0.001736 -0.008677 0.009875 -0.001059
# 2 -0.008801 0.011436 -0.007343 0.008829 -0.004718 0.000802
# 3 0.001736 -0.007343 0.019376 -0.003868 0.003133 -0.011250
# 4 -0.008677 0.008829 -0.003868 0.020673 -0.010017 0.005122
# 5 0.009875 -0.004718 0.003133 -0.010017 0.034480 -0.002968
# 6 -0.001059 0.000802 -0.011250 0.005122 -0.002968 0.037859
#
#
# Mechanical properties :
#
#
# Convention : Reuss Voigt Hill
#
# Bulk Modulus (GPa) = 31.46598 75.61896 53.54247
# Shear Modulus (GPa) = 25.90406 47.17251 36.53829
#
# Velocity S-wave (km/s) = 3.07618 4.15119 3.65344
# Velocity P-wave (km/s) = 4.91038 7.11340 6.11197
#
# Compressibility (1/GPa) = 0.03178035
#
# Stress axis : x y z
#
# Youngs Moduli (GPa) = 33.57430 87.44395 51.60937
#
# Poissons Ratio (x) = 0.76963 -0.08959
# Poissons Ratio (y) = 0.29550 0.37895
# Poissons Ratio (z) = -0.05828 0.64208
#
# Static dielectric constant tensor:
#      x y z
#    x 2.221980 -0.005980 -0.059730 
#    y -0.005980 2.230130 -0.049890 
#    z -0.059730 -0.049890 2.151770 
# 
# From -- ./inp_files/195680.got.cif
#   From: 2010.05.17/outbox.cif.g08.bks.cpg/sg2_98_cif.got.tgz:195680.got - 2010.06.03 11:33:40.
