data_PCOD9001116
_publ_section_title
;
Structure prediction by ZEFSAII (Michael W. Deem and Ramdas Pophale) SiO2 
 PCOD9001116
Probable space group: P -1
;
_chemical_formula_sum "Si O2"
_cell_formula_units_Z 16
_cell_length_a 23.662367
_cell_length_b 11.768303
_cell_length_c 13.599281
_cell_angle_alpha 148.224105
_cell_angle_beta 149.487268
_cell_angle_gamma 23.874827
_cell_volume 741.565939
_symmetry_space_group_name_H-M "P -1"
_symmetry_group_IT_number 2
_symmetry_cell_setting 'triclinic'
loop_
_space_group_symop_operation_xyz
x,y,z
-x,-y,-z
loop_
_atom_site_type_symbol
_atom_site_label
_atom_site_fract_x
_atom_site_fract_y
_atom_site_fract_z
Si Si1 0.896209 0.226319 0.800762
Si Si2 0.177458 0.321676 0.127644
Si Si3 0.860708 0.353956 0.049794
Si Si4 0.707752 0.836955 0.593330
Si Si5 0.615648 0.540924 0.199315
Si Si6 0.238205 0.777173 0.021055
Si Si7 0.844521 0.056786 0.317183
Si Si8 0.973204 0.677708 0.420355
O O1 0.822578 0.451737 0.765127
O O2 0.799223 0.398017 0.879538
O O3 0.944214 0.914310 0.625358
O O4 0.065940 0.096402 0.980567
O O5 0.251414 0.221829 0.272275
O O6 0.215855 0.059972 0.929118
O O7 0.000000 0.500000 0.000000
O O8 0.761464 0.408746 0.033127
O O9 0.919181 0.521126 0.266820
O O10 0.000000 0.000000 0.000000
O O11 0.575273 0.847244 0.369116
O O12 0.858202 0.573814 0.559789
O O13 0.670024 0.137042 0.740337
O O14 0.706458 0.380401 0.116454
O O15 0.718012 0.391864 0.341414
O O16 0.500000 0.500000 0.000000
O O17 0.867935 0.898578 0.335826
O O18 0.000000 0.000000 0.500000
#
# Coordination Sequence:
#
# PCOD9001116 Si02
#       8
#     2   2   2   2   2   2   2   2
#     4  11  20  31  52  87 119 152 189 241 294 348
#     4  12  17  31  54  85 120 146 188 240 297 348
#     4  10  21  34  51  86 125 155 192 240 299 353
#     4  12  21  34  59  86 119 157 193 240 300 353
#     4  12  26  41  59  89 122 158 198 241 301 360
#     4  11  21  37  55  78 122 163 191 237 294 357
#     4  12  20  35  62  90 117 154 195 247 302 354
#     4  12  20  32  59  90 121 151 192 245 299 348
#
# _framework density 21.575963000000002
#
# number of rings (size 3 to 8) (size 9 to 14) (size 15 to 20)
#    0.000    0.500   10.000    1.500    0.000    3.500 
#    0.000    0.000    0.000    0.750    0.000    2.625 
#    0.000    0.000    0.000    0.000    0.000    0.000 
#
# Total GULP energy -89112.012704 kJ/mol
# GULP energy per Si atom -5569.500794 kJ/mol
# Density = 2.152686 g / cm^3
# Si number density = 21.575963 Si / 1000 Ang^3
#
#
#
# Elastic Constant Matrix: (Units=GPa)
#
#
# Indices 1 2 3 4 5 6 
#
# 1 122.8703 21.2119 40.9662 0.9024 20.9859 25.3814
# 2 21.2119 23.8770 14.7094 8.7307 10.5306 10.9622
# 3 40.9662 14.7094 184.3192 25.7243 22.1046 10.7308
# 4 0.9024 8.7307 25.7243 34.7058 7.5057 6.0313
# 5 20.9859 10.5306 22.1046 7.5057 30.6793 14.0097
# 6 25.3814 10.9622 10.7308 6.0313 14.0097 22.3894
#
#
#
# Elastic Compliance Matrix: (Units=1/GPa)
#
#
# Indices 1 2 3 4 5 6 
#
# 1 0.012219 -0.005981 -0.002170 0.004864 -0.001149 -0.010475
# 2 -0.005981 0.061786 -0.000324 -0.010865 -0.006881 -0.016084
# 3 -0.002170 -0.000324 0.006837 -0.004663 -0.003448 0.002755
# 4 0.004864 -0.010865 -0.004663 0.036471 -0.002249 -0.006377
# 5 -0.001149 -0.006881 -0.003448 -0.002249 0.049860 -0.024270
# 6 -0.010475 -0.016084 0.002755 -0.006377 -0.024270 0.079997
#
#
# Mechanical properties :
#
#
# Convention : Reuss Voigt Hill
#
# Bulk Modulus (GPa) = 15.65115 53.87129 34.76122
# Shear Modulus (GPa) = 17.51825 34.50016 26.00920
#
# Velocity S-wave (km/s) = 2.85254 4.00310 3.47576
# Velocity P-wave (km/s) = 4.25664 6.81093 5.67925
#
# Compressibility (1/GPa) = 0.06389306
#
# Stress axis : x y z
#
# Youngs Moduli (GPa) = 81.84064 16.18500 146.25497
#
# Poissons Ratio (x) = 0.09681 0.31732
# Poissons Ratio (y) = 0.48950 0.04732
# Poissons Ratio (z) = 0.17757 0.00524
#
# Static dielectric constant tensor:
#      x y z
#    x 1.891720 -0.044700 -0.009590 
#    y -0.044700 1.939410 0.079970 
#    z -0.009590 0.079970 1.963220 
# 
# From -- ./inp_files/542827.got.cif
#   From: 2010.05.17/outbox.cif.g08.bks.cpg/sg2_272_cif.got.tgz:542827.got - 2010.06.03 11:33:40.
