data_PCOD9001272
_publ_section_title
;
Structure prediction by ZEFSAII (Michael W. Deem and Ramdas Pophale) SiO2 
 PCOD9001272
Probable space group: P -1
;
_chemical_formula_sum "Si O2"
_cell_formula_units_Z 12
_cell_length_a 9.465286
_cell_length_b 7.573024
_cell_length_c 11.445679
_cell_angle_alpha 95.151816
_cell_angle_beta 126.955501
_cell_angle_gamma 48.528026
_cell_volume 421.087983
_symmetry_space_group_name_H-M "P -1"
_symmetry_group_IT_number 2
_symmetry_cell_setting 'triclinic'
loop_
_space_group_symop_operation_xyz
x,y,z
-x,-y,-z
loop_
_atom_site_type_symbol
_atom_site_label
_atom_site_fract_x
_atom_site_fract_y
_atom_site_fract_z
Si Si1 0.943112 0.968544 0.800248
Si Si2 0.375823 0.897577 0.017210
Si Si3 0.480255 0.845200 0.815602
Si Si4 0.595370 0.751073 0.409264
Si Si5 0.790881 0.466523 0.734891
Si Si6 0.014360 0.211875 0.443562
O O1 0.736659 0.984462 0.754496
O O2 0.742849 0.293250 0.709803
O O3 0.215120 0.849617 0.985512
O O4 0.026786 0.850025 0.704192
O O5 0.115979 0.215547 0.862540
O O6 0.526001 0.735245 0.961673
O O7 0.536144 0.926524 0.168035
O O8 0.711690 0.613605 0.826164
O O9 0.203116 0.982142 0.625748
O O10 0.641726 0.665110 0.563269
O O11 0.786112 0.776617 0.490959
O O12 0.739323 0.493845 0.383009
#
# Coordination Sequence:
#
# PCOD9001272 Si02
#       6
#     2   2   2   2   2   2
#     4  10  22  36  58  87 110 143 191 233 271 321
#     4   9  23  36  57  85 114 144 188 226 281 323
#     4  11  20  38  58  84 115 148 181 229 281 333
#     4  11  22  38  55  87 113 147 187 226 285 326
#     4  10  21  34  60  85 110 142 187 232 272 324
#     4  11  23  36  61  79 117 150 181 231 279 331
#
# _framework density 28.497606999999999
#
# number of rings (size 3 to 8) (size 9 to 14) (size 15 to 20)
#    1.000    0.667    3.333    1.500    2.333    1.333 
#    0.000    0.833    0.000    2.000    0.000    0.000 
#    0.000    0.000    0.000    0.000    0.000    0.000 
#
# Total GULP energy -67154.917964 kJ/mol
# GULP energy per Si atom -5596.243164 kJ/mol
# Density = 2.843275 g / cm^3
# Si number density = 28.497607 Si / 1000 Ang^3
#
#
#
# Elastic Constant Matrix: (Units=GPa)
#
#
# Indices 1 2 3 4 5 6 
#
# 1 137.7679 27.7056 23.8814 13.3602 14.1720 -32.4805
# 2 27.7056 123.4901 28.9996 44.1746 -13.2848 -27.7950
# 3 23.8814 28.9996 135.4469 30.6486 19.4922 -1.9825
# 4 13.3602 44.1746 30.6486 51.3077 -3.7483 -10.7315
# 5 14.1720 -13.2848 19.4922 -3.7483 43.6530 2.6566
# 6 -32.4805 -27.7950 -1.9825 -10.7315 2.6566 39.8712
#
#
#
# Elastic Compliance Matrix: (Units=1/GPa)
#
#
# Indices 1 2 3 4 5 6 
#
# 1 0.009701 -0.000539 -0.000972 -0.000122 -0.003357 0.007669
# 2 -0.000539 0.013625 -0.001144 -0.009334 0.003651 0.006247
# 3 -0.000972 -0.001144 0.009643 -0.005330 -0.004660 -0.002234
# 4 -0.000122 -0.009334 -0.005330 0.031189 0.002173 0.001379
# 5 -0.003357 0.003651 -0.004660 0.002173 0.027478 -0.001667
# 6 0.007669 0.006247 -0.002234 0.001379 -0.001667 0.036054
#
#
# Mechanical properties :
#
#
# Convention : Reuss Voigt Hill
#
# Bulk Modulus (GPa) = 36.15541 61.98646 49.07093
# Shear Modulus (GPa) = 35.15675 48.04092 41.59884
#
# Velocity S-wave (km/s) = 3.51618 4.11029 3.82479
# Velocity P-wave (km/s) = 5.40365 6.65768 6.06317
#
# Compressibility (1/GPa) = 0.02765838
#
# Stress axis : x y z
#
# Youngs Moduli (GPa) = 103.08472 73.39424 103.69874
#
# Poissons Ratio (x) = 0.03959 0.10079
# Poissons Ratio (y) = 0.05561 0.11863
# Poissons Ratio (z) = 0.10019 0.08396
#
# Static dielectric constant tensor:
#      x y z
#    x 2.296480 0.089800 -0.029230 
#    y 0.089800 2.167880 -0.018030 
#    z -0.029230 -0.018030 2.244580 
# 
# From -- ./inp_files/168987.got.cif
#   From: 2010.05.17/outbox.cif.g08.bks.cpg/sg2_85_cif.got.tgz:168987.got - 2010.06.03 11:33:40.
