data_PCOD9001431
_publ_section_title
;
Structure prediction by ZEFSAII (Michael W. Deem and Ramdas Pophale) SiO2 
 PCOD9001431
Probable space group: P -1
;
_chemical_formula_sum "Si O2"
_cell_formula_units_Z 14
_cell_length_a 11.580114
_cell_length_b 8.994285
_cell_length_c 17.702177
_cell_angle_alpha 141.190002
_cell_angle_beta 36.691571
_cell_angle_gamma 142.236719
_cell_volume 619.175857
_symmetry_space_group_name_H-M "P -1"
_symmetry_group_IT_number 2
_symmetry_cell_setting 'triclinic'
loop_
_space_group_symop_operation_xyz
x,y,z
-x,-y,-z
loop_
_atom_site_type_symbol
_atom_site_label
_atom_site_fract_x
_atom_site_fract_y
_atom_site_fract_z
Si Si1 0.364537 0.584820 0.026566
Si Si2 0.764706 0.950401 0.172694
Si Si3 0.038351 0.433246 0.714747
Si Si4 0.917085 0.309580 0.894685
Si Si5 0.144517 0.170901 0.169369
Si Si6 0.982240 0.624866 0.461950
Si Si7 0.637801 0.206917 0.573584
O O1 0.263561 0.268328 0.959951
O O2 0.617971 0.711270 0.942847
O O3 0.288481 0.657825 0.016053
O O4 0.221926 0.658577 0.188895
O O5 0.542278 0.814861 0.281439
O O6 0.821703 0.248395 0.237241
O O7 0.960763 0.977998 0.133444
O O8 0.061482 0.369303 0.765208
O O9 0.076416 0.320561 0.570264
O O10 0.860986 0.014368 0.832097
O O11 0.000000 0.500000 0.000000
O O12 0.066365 0.396385 0.316599
O O13 0.179551 0.836731 0.491453
O O14 0.770324 0.480516 0.567213
O O15 0.500000 0.000000 0.500000
#
# Coordination Sequence:
#
# PCOD9001431 Si02
#       7
#     2   2   2   2   2   2   2
#     4  10  21  35  55  85 118 150 184 231 274 344
#     4  11  20  36  59  88 112 148 189 240 280 334
#     4   9  21  36  53  88 123 144 184 237 283 334
#     4  10  21  37  55  82 122 159 187 220 278 347
#     4  11  19  36  57  81 113 155 191 220 280 338
#     4  10  22  36  61  88 108 148 190 243 282 331
#     4  11  20  38  61  86 111 141 194 245 289 326
#
# _framework density 22.610700999999999
#
# number of rings (size 3 to 8) (size 9 to 14) (size 15 to 20)
#    0.857    0.857    5.714    0.857    0.000    2.286 
#    5.143    0.000    0.000    6.857    0.000    0.000 
#    0.000    0.000    0.000    0.000    0.000    0.000 
#
# Total GULP energy -77972.650093 kJ/mol
# GULP energy per Si atom -5569.475007 kJ/mol
# Density = 2.255924 g / cm^3
# Si number density = 22.610701 Si / 1000 Ang^3
#
#
#
# Elastic Constant Matrix: (Units=GPa)
#
#
# Indices 1 2 3 4 5 6 
#
# 1 133.4456 44.3684 13.1255 -2.4108 22.0920 4.0941
# 2 44.3684 85.7276 21.6170 -12.5572 -7.8828 8.7780
# 3 13.1255 21.6170 44.9397 -21.1527 1.3695 3.5864
# 4 -2.4108 -12.5572 -21.1527 37.2447 0.7849 -12.5393
# 5 22.0920 -7.8828 1.3695 0.7849 35.9817 -8.5699
# 6 4.0941 8.7780 3.5864 -12.5393 -8.5699 26.4797
#
#
#
# Elastic Compliance Matrix: (Units=1/GPa)
#
#
# Indices 1 2 3 4 5 6 
#
# 1 0.011362 -0.006518 -0.001106 -0.003230 -0.009236 -0.003965
# 2 -0.006518 0.017577 -0.005908 0.001772 0.007890 -0.000626
# 3 -0.001106 -0.005908 0.034105 0.019509 -0.000793 0.006492
# 4 -0.003230 0.001772 0.019509 0.045067 0.005503 0.020392
# 5 -0.009236 0.007890 -0.000793 0.005503 0.038426 0.013962
# 6 -0.003965 -0.000626 0.006492 0.020392 0.013962 0.051881
#
#
# Mechanical properties :
#
#
# Convention : Reuss Voigt Hill
#
# Bulk Modulus (GPa) = 27.79213 46.92606 37.35909
# Shear Modulus (GPa) = 21.05484 32.27471 26.66478
#
# Velocity S-wave (km/s) = 3.05485 3.78220 3.43782
# Velocity P-wave (km/s) = 4.97605 6.31446 5.68478
#
# Compressibility (1/GPa) = 0.03598142
#
# Stress axis : x y z
#
# Youngs Moduli (GPa) = 88.01440 56.89249 29.32087
#
# Poissons Ratio (x) = 0.37082 0.03242
# Poissons Ratio (y) = 0.57367 0.17322
# Poissons Ratio (z) = 0.09733 0.33610
#
# Static dielectric constant tensor:
#      x y z
#    x 1.920610 -0.007730 0.042320 
#    y -0.007730 1.846580 0.024490 
#    z 0.042320 0.024490 1.902800 
# 
# From -- ./inp_files/395083.got.cif
#   From: 2010.05.17/outbox.cif.g08.bks.cpg/sg2_198_cif.got.tgz:395083.got - 2010.06.03 11:33:40.
