data_PCOD9001393
_publ_section_title
;
Structure prediction by ZEFSAII (Michael W. Deem and Ramdas Pophale) SiO2 
 PCOD9001393
Probable space group: P -1
;
_chemical_formula_sum "Si O2"
_cell_formula_units_Z 14
_cell_length_a 13.919166
_cell_length_b 16.555740
_cell_length_c 7.710473
_cell_angle_alpha 60.602077
_cell_angle_beta 71.050299
_cell_angle_gamma 23.367526
_cell_volume 571.804142
_symmetry_space_group_name_H-M "P -1"
_symmetry_group_IT_number 2
_symmetry_cell_setting 'triclinic'
loop_
_space_group_symop_operation_xyz
x,y,z
-x,-y,-z
loop_
_atom_site_type_symbol
_atom_site_label
_atom_site_fract_x
_atom_site_fract_y
_atom_site_fract_z
Si Si1 0.110182 0.991453 0.690224
Si Si2 0.119131 0.389679 0.282940
Si Si3 0.124735 0.004983 0.251893
Si Si4 0.666056 0.505414 0.849930
Si Si5 0.608168 0.496711 0.543869
Si Si6 0.287636 0.143640 0.113438
Si Si7 0.329744 0.314344 0.562501
O O1 0.401972 0.751359 0.847889
O O2 0.993493 0.986759 0.784934
O O3 0.102970 0.011837 0.464905
O O4 0.917608 0.231906 0.620767
O O5 0.285726 0.202799 0.231929
O O6 0.258925 0.296211 0.477745
O O7 0.873848 0.530265 0.327218
O O8 0.992289 0.592372 0.075267
O O9 0.437386 0.727785 0.333651
O O10 0.927631 0.250800 0.051023
O O11 0.563460 0.517758 0.752989
O O12 0.712915 0.553860 0.646912
O O13 0.500000 0.500000 0.500000
O O14 0.374404 0.964426 0.275201
O O15 0.500000 0.000000 0.000000
#
# Coordination Sequence:
#
# PCOD9001393 Si02
#       7
#     2   2   2   2   2   2   2
#     4   9  19  36  55  77 108 148 191 238 286 336
#     4   9  19  37  59  80 111 152 190 230 283 345
#     4   9  19  36  56  78 108 147 192 237 286 343
#     4  11  22  34  55  86 115 146 191 241 287 341
#     4   9  20  37  55  77 108 148 191 234 284 342
#     4   9  18  36  61  82 105 146 189 229 284 347
#     4  10  21  35  54  84 116 148 190 237 285 342
#
# _framework density 24.483908
#
# number of rings (size 3 to 8) (size 9 to 14) (size 15 to 20)
#    0.000    2.571    0.000    1.714    0.000    6.857 
#    0.000    2.857    0.000    0.000    0.000    0.000 
#    0.000    0.000    0.000    0.000    0.000    0.000 
#
# Total GULP energy -78080.303589 kJ/mol
# GULP energy per Si atom -5577.164542 kJ/mol
# Density = 2.442818 g / cm^3
# Si number density = 24.483908 Si / 1000 Ang^3
#
#
#
# Elastic Constant Matrix: (Units=GPa)
#
#
# Indices 1 2 3 4 5 6 
#
# 1 31.3562 27.2584 19.4677 -12.1609 -2.1389 1.2894
# 2 27.2584 174.9158 73.0093 -50.5676 -3.6308 21.1360
# 3 19.4677 73.0093 136.1436 -64.1422 -13.3447 0.1534
# 4 -12.1609 -50.5676 -64.1422 65.0487 12.2870 2.5172
# 5 -2.1389 -3.6308 -13.3447 12.2870 42.5268 -4.6314
# 6 1.2894 21.1360 0.1534 2.5172 -4.6314 29.7154
#
#
#
# Elastic Compliance Matrix: (Units=1/GPa)
#
#
# Indices 1 2 3 4 5 6 
#
# 1 0.037894 -0.004932 -0.002378 0.000689 0.000750 0.001934
# 2 -0.004932 0.009827 -0.002382 0.005127 -0.002464 -0.007582
# 3 -0.002378 -0.002382 0.014703 0.011996 0.000917 0.000848
# 4 0.000689 0.005127 0.011996 0.032745 -0.006036 -0.007453
# 5 0.000750 -0.002464 0.000917 -0.006036 0.026058 0.006288
# 6 0.001934 -0.007582 0.000848 -0.007453 0.006288 0.040569
#
#
# Mechanical properties :
#
#
# Convention : Reuss Voigt Hill
#
# Bulk Modulus (GPa) = 23.23340 64.65404 43.94372
# Shear Modulus (GPa) = 25.57190 42.30353 33.93771
#
# Velocity S-wave (km/s) = 3.23528 4.16120 3.72711
# Velocity P-wave (km/s) = 4.84416 7.03929 6.04225
#
# Compressibility (1/GPa) = 0.04304149
#
# Stress axis : x y z
#
# Youngs Moduli (GPa) = 26.38938 101.75886 68.01168
#
# Poissons Ratio (x) = 0.50184 0.16172
# Poissons Ratio (y) = 0.13014 0.16201
# Poissons Ratio (z) = 0.06275 0.24239
#
# Static dielectric constant tensor:
#      x y z
#    x 2.072900 0.000310 -0.000220 
#    y 0.000310 2.027840 -0.040110 
#    z -0.000220 -0.040110 1.955770 
# 
# From -- ./inp_files/337570.got.cif
#   From: 2010.05.17/outbox.cif.g08.bks.cpg/sg2_169_cif.got.tgz:337570.got - 2010.06.03 11:33:40.
