data_PCOD9001843
_publ_section_title
;
Structure prediction by ZEFSAII (Michael W. Deem and Ramdas Pophale) SiO2 
 PCOD9001843
Probable space group: P -1
;
_chemical_formula_sum "Si O2"
_cell_formula_units_Z 16
_cell_length_a 8.770937
_cell_length_b 7.617265
_cell_length_c 21.693953
_cell_angle_alpha 137.637216
_cell_angle_beta 52.671025
_cell_angle_gamma 131.450598
_cell_volume 712.005190
_symmetry_space_group_name_H-M "P -1"
_symmetry_group_IT_number 2
_symmetry_cell_setting 'triclinic'
loop_
_space_group_symop_operation_xyz
x,y,z
-x,-y,-z
loop_
_atom_site_type_symbol
_atom_site_label
_atom_site_fract_x
_atom_site_fract_y
_atom_site_fract_z
Si Si1 0.291645 0.695028 0.328432
Si Si2 0.079550 0.800260 0.187022
Si Si3 0.824466 0.315251 0.044382
Si Si4 0.655087 0.809754 0.878052
Si Si5 0.237865 0.890094 0.656910
Si Si6 0.171498 0.837787 0.519270
Si Si7 0.360331 0.481358 0.590092
Si Si8 0.764846 0.911704 0.650801
O O1 0.263203 0.423032 0.224763
O O2 0.539861 0.874843 0.317162
O O3 0.214216 0.655418 0.407428
O O4 0.205330 0.900598 0.368695
O O5 0.172124 0.876374 0.251993
O O6 0.934222 0.473972 0.121412
O O7 0.930088 0.972265 0.260473
O O8 0.268955 0.946928 0.130643
O O9 0.597049 0.325875 0.092869
O O10 0.000000 0.500000 0.000000
O O11 0.764370 0.983318 0.957764
O O12 0.260184 0.834532 0.564571
O O13 0.204863 0.621183 0.639060
O O14 0.736210 0.834284 0.441826
O O15 0.926724 0.763415 0.568018
O O16 0.500000 0.500000 0.500000
O O17 0.525594 0.687365 0.652077
#
# Coordination Sequence:
#
# PCOD9001843 Si02
#       8
#     2   2   2   2   2   2   2   2
#     4  11  21  38  59  87 123 160 211 251 300 360
#     4  10  21  38  62  89 122 155 205 253 304 375
#     4   9  19  40  63  92 120 148 197 256 316 378
#     4  10  21  35  67  91 113 157 203 250 315 369
#     4  10  22  38  58  91 121 168 215 250 296 374
#     4  11  23  41  60  81 136 171 208 261 299 354
#     4  11  23  37  57  81 124 170 209 255 312 342
#     4  10  24  38  56  91 124 167 207 252 300 367
#
# _framework density 22.471746
#
# number of rings (size 3 to 8) (size 9 to 14) (size 15 to 20)
#    0.000    1.750    3.750    0.750    3.500    0.000 
#    0.000    3.125    0.000    6.750    0.000    0.000 
#    0.000    0.000    0.000    0.000    0.000    0.000 
#
# Total GULP energy -89424.403364 kJ/mol
# GULP energy per Si atom -5589.025210 kJ/mol
# Density = 2.242060 g / cm^3
# Si number density = 22.471746 Si / 1000 Ang^3
#
#
#
# Elastic Constant Matrix: (Units=GPa)
#
#
# Indices 1 2 3 4 5 6 
#
# 1 78.4505 28.7264 23.3371 7.6455 17.3607 10.8189
# 2 28.7264 108.4766 27.6253 10.0046 10.8270 6.5561
# 3 23.3371 27.6253 133.6708 32.9962 16.8908 13.5021
# 4 7.6455 10.0046 32.9962 41.0067 12.0022 -2.0666
# 5 17.3607 10.8270 16.8908 12.0022 33.1739 4.7840
# 6 10.8189 6.5561 13.5021 -2.0666 4.7840 23.0591
#
#
#
# Elastic Compliance Matrix: (Units=1/GPa)
#
#
# Indices 1 2 3 4 5 6 
#
# 1 0.016236 -0.003149 -0.000913 0.000084 -0.006333 -0.004867
# 2 -0.003149 0.010567 -0.001276 -0.000773 -0.000772 -0.000689
# 3 -0.000913 -0.001276 0.010613 -0.008159 -0.000691 -0.006011
# 4 0.000084 -0.000773 -0.008159 0.034420 -0.009536 0.010021
# 5 -0.006333 -0.000772 -0.000691 -0.009536 0.038261 -0.005197
# 6 -0.004867 -0.000689 -0.006011 0.010021 -0.005197 0.051342
#
#
# Mechanical properties :
#
#
# Convention : Reuss Voigt Hill
#
# Bulk Modulus (GPa) = 37.39653 53.33062 45.36358
# Shear Modulus (GPa) = 27.62005 35.50854 31.56430
#
# Velocity S-wave (km/s) = 3.50966 3.97941 3.75189
# Velocity P-wave (km/s) = 5.75337 6.70061 6.24497
#
# Compressibility (1/GPa) = 0.02674045
#
# Stress axis : x y z
#
# Youngs Moduli (GPa) = 61.59274 94.63067 94.22806
#
# Poissons Ratio (x) = 0.29795 0.08601
# Poissons Ratio (y) = 0.19393 0.12026
# Poissons Ratio (z) = 0.05622 0.12077
#
# Static dielectric constant tensor:
#      x y z
#    x 1.827830 0.028470 0.014950 
#    y 0.028470 1.886320 0.030600 
#    z 0.014950 0.030600 1.881750 
# 
# From -- ./inp_files/502540.got.cif
#   From: 2010.05.17/outbox.cif.g08.bks.cpg/sg2_252_cif.got.tgz:502540.got - 2010.06.03 11:33:40.
