data_PCOD9001401
_publ_section_title
;
Structure prediction by ZEFSAII (Michael W. Deem and Ramdas Pophale) SiO2 
 PCOD9001401
Probable space group: P -1
;
_chemical_formula_sum "Si O2"
_cell_formula_units_Z 16
_cell_length_a 7.501632
_cell_length_b 9.821421
_cell_length_c 13.873746
_cell_angle_alpha 99.208554
_cell_angle_beta 44.250184
_cell_angle_gamma 85.569294
_cell_volume 676.200840
_symmetry_space_group_name_H-M "P -1"
_symmetry_group_IT_number 2
_symmetry_cell_setting 'triclinic'
loop_
_space_group_symop_operation_xyz
x,y,z
-x,-y,-z
loop_
_atom_site_type_symbol
_atom_site_label
_atom_site_fract_x
_atom_site_fract_y
_atom_site_fract_z
Si Si1 0.473944 0.390525 0.142597
Si Si2 0.165840 0.333317 0.415986
Si Si3 0.710589 0.284619 0.693623
Si Si4 0.578401 0.789007 0.371073
Si Si5 0.092288 0.759047 0.897502
Si Si6 0.785823 0.960382 0.184311
Si Si7 0.840201 0.209467 0.830862
Si Si8 0.385077 0.659626 0.603542
O O1 0.282866 0.309016 0.260723
O O2 0.334986 0.559579 0.220992
O O3 0.731154 0.355449 0.110021
O O4 0.593139 0.323468 0.988742
O O5 0.395820 0.325400 0.402681
O O6 0.000000 0.500000 0.500000
O O7 0.972883 0.246802 0.521248
O O8 0.479721 0.300451 0.706868
O O9 0.757510 0.176205 0.752774
O O10 0.558227 0.942365 0.344171
O O11 0.390187 0.770053 0.528159
O O12 0.887685 0.739378 0.278079
O O13 0.116592 0.687515 0.774382
O O14 0.222853 0.890736 0.843047
O O15 0.832042 0.841704 0.067594
O O16 0.049401 0.914929 0.146095
O O17 0.500000 0.500000 0.500000
#
# Coordination Sequence:
#
# PCOD9001401 Si02
#       8
#     2   2   2   2   2   2   2   2
#     4   9  18  31  55  83 104 150 190 227 293 334
#     4   9  17  31  51  73 110 149 176 225 278 334
#     4  11  19  35  54  79 119 147 180 240 284 340
#     4  10  21  35  54  86 109 150 191 230 282 338
#     4   9  17  35  61  80 114 147 196 235 281 338
#     4   8  18  37  58  84 104 155 196 234 279 330
#     4   9  19  36  53  82 108 146 190 231 283 334
#     4  11  20  34  53  87 116 149 187 234 285 346
#
# _framework density 23.661607
#
# number of rings (size 3 to 8) (size 9 to 14) (size 15 to 20)
#    0.750    1.750    1.250    2.625    0.000    1.000 
#    2.250    1.250    0.000   18.000    0.000    0.000 
#    0.000    0.000    0.000    0.000    0.000    0.000 
#
# Total GULP energy -89072.888771 kJ/mol
# GULP energy per Si atom -5567.055548 kJ/mol
# Density = 2.360775 g / cm^3
# Si number density = 23.661607 Si / 1000 Ang^3
#
#
#
# Elastic Constant Matrix: (Units=GPa)
#
#
# Indices 1 2 3 4 5 6 
#
# 1 81.3839 1.5754 26.6009 -4.9297 14.1738 -14.7005
# 2 1.5754 35.5506 10.5545 -7.7265 8.0166 -11.6356
# 3 26.6009 10.5545 97.9696 -13.3410 22.4910 -5.2412
# 4 -4.9297 -7.7265 -13.3410 34.1808 -12.0821 5.5722
# 5 14.1738 8.0166 22.4910 -12.0821 29.3085 -7.0001
# 6 -14.7005 -11.6356 -5.2412 5.5722 -7.0001 17.3654
#
#
#
# Elastic Compliance Matrix: (Units=1/GPa)
#
#
# Indices 1 2 3 4 5 6 
#
# 1 0.016898 0.006206 -0.003738 -0.001613 -0.003764 0.016334
# 2 0.006206 0.039505 -0.003273 0.002709 -0.003369 0.028508
# 3 -0.003738 -0.003273 0.013404 0.001965 -0.008008 -0.005171
# 4 -0.001613 0.002709 0.001965 0.035494 0.011831 -0.005577
# 5 -0.003764 -0.003369 -0.008008 0.011831 0.049905 0.008460
# 6 0.016334 0.028508 -0.005171 -0.005577 0.008460 0.094154
#
#
# Mechanical properties :
#
#
# Convention : Reuss Voigt Hill
#
# Bulk Modulus (GPa) = 14.66398 32.48507 23.57452
# Shear Modulus (GPa) = 18.26795 27.91583 23.09189
#
# Velocity S-wave (km/s) = 2.78159 3.43854 3.12736
# Velocity P-wave (km/s) = 4.06536 5.43356 4.79848
#
# Compressibility (1/GPa) = 0.06819433
#
# Stress axis : x y z
#
# Youngs Moduli (GPa) = 59.18031 25.31331 74.60296
#
# Poissons Ratio (x) = -0.15708 0.27888
# Poissons Ratio (y) = -0.36724 0.24421
# Poissons Ratio (z) = 0.22123 0.08286
#
# Static dielectric constant tensor:
#      x y z
#    x 1.887610 0.021940 -0.024250 
#    y 0.021940 1.972870 0.055940 
#    z -0.024250 0.055940 2.101180 
# 
# From -- ./inp_files/496719.got.cif
#   From: 2010.05.17/outbox.cif.g08.bks.cpg/sg2_249_cif.got.tgz:496719.got - 2010.06.03 11:33:40.
