data_PCOD9001491
_publ_section_title
;
Structure prediction by ZEFSAII (Michael W. Deem and Ramdas Pophale) SiO2 
 PCOD9001491
Probable space group: P -1
;
_chemical_formula_sum "Si O2"
_cell_formula_units_Z 13
_cell_length_a 15.327100
_cell_length_b 7.901395
_cell_length_c 15.529911
_cell_angle_alpha 98.676314
_cell_angle_beta 19.914351
_cell_angle_gamma 88.489444
_cell_volume 548.619321
_symmetry_space_group_name_H-M "P -1"
_symmetry_group_IT_number 2
_symmetry_cell_setting 'triclinic'
loop_
_space_group_symop_operation_xyz
x,y,z
-x,-y,-z
loop_
_atom_site_type_symbol
_atom_site_label
_atom_site_fract_x
_atom_site_fract_y
_atom_site_fract_z
Si Si1 0.229355 0.254294 0.591814
Si Si2 0.597702 0.785653 0.253019
Si Si3 0.000000 0.500000 0.000000
Si Si4 0.113294 0.695552 0.443642
Si Si5 0.532152 0.746013 0.958511
Si Si6 0.298277 0.792469 0.986336
Si Si7 0.069428 0.742447 0.680348
O O1 0.430429 0.289573 0.339361
O O2 0.419700 0.023744 0.427097
O O3 0.143517 0.389363 0.765895
O O4 0.930239 0.283125 0.827505
O O5 0.769352 0.702621 0.176044
O O6 0.358674 0.713501 0.459014
O O7 0.840460 0.709065 0.945473
O O8 0.255525 0.492607 0.242090
O O9 0.153631 0.640554 0.501881
O O10 0.767006 0.819368 0.754379
O O11 0.287247 0.807734 0.264063
O O12 0.396462 0.768911 0.992156
O O13 0.112306 0.025950 0.157870
#
# Coordination Sequence:
#
# PCOD9001491 Si02
#       7
#     2   2   1   2   2   2   2
#     4  10  24  42  62  94 125 156 205 254 303 368
#     4  10  24  42  62  94 125 156 205 254 303 368
#     4  12  26  42  72  92 116 170 194 258 316 372
#     4  10  21  35  56  88 123 158 203 250 289 349
#     4  10  21  35  56  88 123 158 203 250 289 349
#     4  10  22  41  62  87 126 163 198 252 303 355
#     4  10  22  41  62  87 126 163 198 252 303 355
#
# _framework density 23.69585
#
# number of rings (size 3 to 8) (size 9 to 14) (size 15 to 20)
#    0.000    1.846    0.000    2.308    4.308    3.692 
#    0.000    4.615    0.000    0.000    0.000    0.000 
#    0.000    0.000    0.000    0.000    0.000    0.000 
#
# Total GULP energy -72492.388210 kJ/mol
# GULP energy per Si atom -5576.337555 kJ/mol
# Density = 2.364192 g / cm^3
# Si number density = 23.695850 Si / 1000 Ang^3
#
#
#
# Elastic Constant Matrix: (Units=GPa)
#
#
# Indices 1 2 3 4 5 6 
#
# 1 93.7285 38.8583 53.9592 -15.6456 31.5927 -36.8535
# 2 38.8583 77.7261 46.8971 0.0839 -15.8899 -9.6878
# 3 53.9592 46.8971 153.7155 -30.6454 2.8464 3.1437
# 4 -15.6456 0.0839 -30.6454 32.1928 8.4361 1.4736
# 5 31.5927 -15.8899 2.8464 8.4361 21.7483 19.9520
# 6 -36.8535 -9.6878 3.1437 1.4736 19.9520 29.8614
#
#
#
# Elastic Compliance Matrix: (Units=1/GPa)
#
#
# Indices 1 2 3 4 5 6 
#
# 1 -0.000983 0.004129 -0.002372 -0.006811 0.017421 -0.010927
# 2 0.004129 0.016194 -0.007523 -0.004632 -0.004692 0.014505
# 3 -0.002372 -0.007523 0.012125 0.011658 -0.003971 -0.004566
# 4 -0.006811 -0.004632 0.011658 0.038195 0.005461 -0.016669
# 5 0.017421 -0.004692 -0.003971 0.005461 -0.007276 0.024988
# 6 -0.010927 0.014505 -0.004566 -0.016669 0.024988 0.009316
#
#
# Mechanical properties :
#
#
# Convention : Reuss Voigt Hill
#
# Bulk Modulus (GPa) = 63.27380 67.17769 65.22575
# Shear Modulus (GPa) = 59.26147 29.12422 44.19285
#
# Velocity S-wave (km/s) = 5.00635 3.50963 4.32325
# Velocity P-wave (km/s) = 7.75748 6.69589 7.24615
#
# Compressibility (1/GPa) = 0.01580433
#
# Stress axis : x y z
#
# Youngs Moduli (GPa) = -1017.80778 61.74939 82.47679
#
# Poissons Ratio (x) = -0.25497 0.19562
# Poissons Ratio (y) = 4.20260 0.62051
# Poissons Ratio (z) = -2.41406 0.46457
#
# Static dielectric constant tensor:
#      x y z
#    x 1.804810 0.034450 -0.022050 
#    y 0.034450 1.985380 0.032870 
#    z -0.022050 0.032870 1.950270 
# 
# From -- ./inp_files/31667.got.cif
#   From: 2010.05.17/outbox.cif.g08.bks.cpg/sg2_16_cif.got.tgz:31667.got - 2010.06.03 11:33:40.
