data_PCOD9001317
_publ_section_title
;
Structure prediction by ZEFSAII (Michael W. Deem and Ramdas Pophale) SiO2 
 PCOD9001317
Probable space group: P -1
;
_chemical_formula_sum "Si O2"
_cell_formula_units_Z 16
_cell_length_a 5.297316
_cell_length_b 20.297714
_cell_length_c 17.039449
_cell_angle_alpha 28.209606
_cell_angle_beta 63.529795
_cell_angle_gamma 53.420788
_cell_volume 680.075319
_symmetry_space_group_name_H-M "P -1"
_symmetry_group_IT_number 2
_symmetry_cell_setting 'triclinic'
loop_
_space_group_symop_operation_xyz
x,y,z
-x,-y,-z
loop_
_atom_site_type_symbol
_atom_site_label
_atom_site_fract_x
_atom_site_fract_y
_atom_site_fract_z
Si Si1 0.772670 0.545013 0.907813
Si Si2 0.158459 0.148143 0.865696
Si Si3 0.031754 0.312444 0.862806
Si Si4 0.690428 0.016895 0.125820
Si Si5 0.215638 0.800099 0.519042
Si Si6 0.719360 0.826159 0.679727
Si Si7 0.956842 0.603068 0.661907
Si Si8 0.720813 0.126316 0.173243
O O1 0.589903 0.732897 0.742313
O O2 0.943690 0.506794 0.841647
O O3 0.500000 0.500000 0.000000
O O4 0.000000 0.500000 0.000000
O O5 0.054739 0.298248 0.779417
O O6 0.197459 0.145088 0.769095
O O7 0.897055 0.094382 0.979950
O O8 0.500000 0.000000 0.000000
O O9 0.066331 0.462762 0.729286
O O10 0.329691 0.146108 0.022387
O O11 0.754820 0.278977 0.976569
O O12 0.733109 0.022152 0.206037
O O13 0.594254 0.730228 0.552667
O O14 0.066382 0.775885 0.646964
O O15 0.146737 0.695018 0.572175
O O16 0.015124 0.988879 0.328016
O O17 0.500000 0.000000 0.500000
O O18 0.613063 0.816565 0.792945
#
# Coordination Sequence:
#
# PCOD9001317 Si02
#       8
#     2   2   2   2   2   2   2   2
#     4  11  22  37  57  81 115 153 197 254 302 343
#     4   8  16  34  55  91 121 151 180 251 312 361
#     4  10  21  34  63  92 118 153 205 255 296 365
#     4   9  18  32  60  91 120 145 198 253 306 350
#     4  10  24  43  58  82 127 172 204 246 311 357
#     4   9  20  40  56  81 116 163 208 250 296 354
#     4  11  24  41  59  85 124 165 202 245 313 367
#     4  10  21  37  60  89 116 157 212 259 292 356
#
# _framework density 23.526807000000002
#
# number of rings (size 3 to 8) (size 9 to 14) (size 15 to 20)
#    0.000    2.250    0.000    2.250    7.000    0.000 
#    4.500    8.750    0.000    1.500    0.000    0.000 
#    0.000    0.000    0.000    0.000    0.000    0.000 
#
# Total GULP energy -89091.762674 kJ/mol
# GULP energy per Si atom -5568.235167 kJ/mol
# Density = 2.347326 g / cm^3
# Si number density = 23.526807 Si / 1000 Ang^3
#
#
#
# Elastic Constant Matrix: (Units=GPa)
#
#
# Indices 1 2 3 4 5 6 
#
# 1 98.0296 20.4436 11.4563 1.7144 -4.7345 10.8625
# 2 20.4436 131.2458 4.7645 4.4193 1.6288 22.7863
# 3 11.4563 4.7645 32.1958 -17.1830 -4.9284 -3.7552
# 4 1.7144 4.4193 -17.1830 26.8582 6.5544 -4.7370
# 5 -4.7345 1.6288 -4.9284 6.5544 25.3071 8.6399
# 6 10.8625 22.7863 -3.7552 -4.7370 8.6399 26.9363
#
#
#
# Elastic Compliance Matrix: (Units=1/GPa)
#
#
# Indices 1 2 3 4 5 6 
#
# 1 0.013402 0.000850 -0.011972 -0.012734 0.007686 -0.012497
# 2 0.000850 0.010586 -0.008666 -0.011213 0.005564 -0.014263
# 3 -0.011972 -0.008666 0.068511 0.056214 -0.015369 0.036525
# 4 -0.012734 -0.011213 0.056214 0.092035 -0.031154 0.048636
# 5 0.007686 0.005564 -0.015369 -0.031154 0.057201 -0.033774
# 6 -0.012497 -0.014263 0.036525 0.048636 -0.033774 0.078708
#
#
# Mechanical properties :
#
#
# Convention : Reuss Voigt Hill
#
# Bulk Modulus (GPa) = 18.89497 37.20001 28.04749
# Shear Modulus (GPa) = 13.23947 30.80745 22.02346
#
# Velocity S-wave (km/s) = 2.37479 3.62257 3.06290
# Velocity P-wave (km/s) = 3.94565 5.77438 4.94528
#
# Compressibility (1/GPa) = 0.05292414
#
# Stress axis : x y z
#
# Youngs Moduli (GPa) = 74.61850 94.46278 14.59614
#
# Poissons Ratio (x) = -0.08032 0.17475
# Poissons Ratio (y) = -0.06344 0.12648
# Poissons Ratio (z) = 0.89333 0.81858
#
# Static dielectric constant tensor:
#      x y z
#    x 1.245110 0.389680 0.273850 
#    y 0.389680 1.930910 -0.211890 
#    z 0.273850 -0.211890 1.950460 
# 
# From -- ./inp_files/550988.got.cif
#   From: 2010.05.17/outbox.cif.g08.bks.cpg/sg2_276_cif.got.tgz:550988.got - 2010.06.03 11:33:40.
