data_PCOD9001782
_publ_section_title
;
Structure prediction by ZEFSAII (Michael W. Deem and Ramdas Pophale) SiO2 
 PCOD9001782
Probable space group: P -1
;
_chemical_formula_sum "Si O2"
_cell_formula_units_Z 16
_cell_length_a 11.284021
_cell_length_b 14.966838
_cell_length_c 11.193410
_cell_angle_alpha 29.401701
_cell_angle_beta 114.324408
_cell_angle_gamma 124.247783
_cell_volume 752.697264
_symmetry_space_group_name_H-M "P -1"
_symmetry_group_IT_number 2
_symmetry_cell_setting 'triclinic'
loop_
_space_group_symop_operation_xyz
x,y,z
-x,-y,-z
loop_
_atom_site_type_symbol
_atom_site_label
_atom_site_fract_x
_atom_site_fract_y
_atom_site_fract_z
Si Si1 0.977147 0.096522 0.713615
Si Si2 0.318314 0.626695 0.535703
Si Si3 0.116714 0.312647 0.287987
Si Si4 0.139657 0.707044 0.960269
Si Si5 0.967603 0.492951 0.353902
Si Si6 0.367927 0.029280 0.969609
Si Si7 0.656746 0.842132 0.448911
Si Si8 0.751286 0.774755 0.151114
O O1 0.955028 0.287478 0.528805
O O2 0.020843 0.133393 0.551037
O O3 0.117606 0.118740 0.822035
O O4 0.831920 0.896162 0.923575
O O5 0.190663 0.514224 0.709771
O O6 0.289944 0.811612 0.257758
O O7 0.483928 0.718843 0.542908
O O8 0.296419 0.461967 0.615092
O O9 0.248529 0.272741 0.343552
O O10 0.005520 0.313669 0.141547
O O11 0.171621 0.525674 0.135367
O O12 0.270698 0.929777 0.733322
O O13 0.093984 0.669582 0.124213
O O14 0.000000 0.500000 0.500000
O O15 0.500000 0.000000 0.000000
O O16 0.321830 0.115749 0.734127
O O17 0.379173 0.185100 0.898628
#
# Coordination Sequence:
#
# PCOD9001782 Si02
#       8
#     2   2   2   2   2   2   2   2
#     4  10  21  35  63  87 122 160 211 254 299 366
#     4  11  24  37  58  94 131 160 200 256 319 371
#     4  10  22  44  62  89 116 165 219 250 304 366
#     4  10  24  40  69  87 119 162 212 261 299 370
#     4  11  20  38  65  93 125 158 205 254 313 366
#     4  10  22  36  55  87 127 162 196 240 310 376
#     4  11  23  38  61  89 123 163 201 256 313 368
#     4  11  21  36  58  91 123 163 200 258 310 360
#
# _framework density 21.256885
#
# number of rings (size 3 to 8) (size 9 to 14) (size 15 to 20)
#    0.000    1.500    3.750    1.125    3.500    4.000 
#    0.000    0.625    0.000    2.250    0.000    0.000 
#    0.000    0.000    0.000    0.000    0.000    0.000 
#
# Total GULP energy -89234.314800 kJ/mol
# GULP energy per Si atom -5577.144675 kJ/mol
# Density = 2.120850 g / cm^3
# Si number density = 21.256885 Si / 1000 Ang^3
#
#
#
# Elastic Constant Matrix: (Units=GPa)
#
#
# Indices 1 2 3 4 5 6 
#
# 1 87.2725 8.4100 4.4002 -11.9158 4.0051 7.5033
# 2 8.4100 33.1323 -2.5841 -3.9450 -3.4430 4.6284
# 3 4.4002 -2.5841 45.1279 -6.7899 12.4718 -0.0768
# 4 -11.9158 -3.9450 -6.7899 26.6516 2.0138 -2.5514
# 5 4.0051 -3.4430 12.4718 2.0138 21.6811 -2.7956
# 6 7.5033 4.6284 -0.0768 -2.5514 -2.7956 21.3372
#
#
#
# Elastic Compliance Matrix: (Units=1/GPa)
#
#
# Indices 1 2 3 4 5 6 
#
# 1 0.012943 -0.002471 0.000555 0.005501 -0.004116 -0.003895
# 2 -0.002471 0.032449 0.001558 0.003309 0.003725 -0.005281
# 3 0.000555 0.001558 0.028254 0.008816 -0.017136 -0.001622
# 4 0.005501 0.003309 0.008816 0.043559 -0.009434 0.001352
# 5 -0.004116 0.003725 -0.017136 -0.009434 0.059137 0.007198
# 6 -0.003895 -0.005281 -0.001622 0.001352 0.007198 0.050481
#
#
# Mechanical properties :
#
#
# Convention : Reuss Voigt Hill
#
# Bulk Modulus (GPa) = 13.71141 20.66499 17.18820
# Shear Modulus (GPa) = 19.85326 24.28774 22.07050
#
# Velocity S-wave (km/s) = 3.05941 3.38388 3.22572
# Velocity P-wave (km/s) = 4.35250 5.00102 4.68799
#
# Compressibility (1/GPa) = 0.07293194
#
# Stress axis : x y z
#
# Youngs Moduli (GPa) = 77.26029 30.81714 35.39339
#
# Poissons Ratio (x) = 0.07614 -0.01964
# Poissons Ratio (y) = 0.19089 -0.05516
# Poissons Ratio (z) = -0.04287 -0.04803
#
# Static dielectric constant tensor:
#      x y z
#    x 1.813590 0.026350 0.005570 
#    y 0.026350 1.777330 -0.004580 
#    z 0.005570 -0.004580 1.857080 
# 
# From -- ./inp_files/432323.got.cif
#   From: 2010.05.17/outbox.cif.g08.bks.cpg/sg2_217_cif.got.tgz:432323.got - 2010.06.03 11:33:40.
