data_PCOD9001092
_publ_section_title
;
Structure prediction by ZEFSAII (Michael W. Deem and Ramdas Pophale) SiO2 
 PCOD9001092
Probable space group: P -1
;
_chemical_formula_sum "Si O2"
_cell_formula_units_Z 16
_cell_length_a 11.792879
_cell_length_b 8.405459
_cell_length_c 7.851048
_cell_angle_alpha 92.690842
_cell_angle_beta 129.827356
_cell_angle_gamma 95.651863
_cell_volume 588.563612
_symmetry_space_group_name_H-M "P -1"
_symmetry_group_IT_number 2
_symmetry_cell_setting 'triclinic'
loop_
_space_group_symop_operation_xyz
x,y,z
-x,-y,-z
loop_
_atom_site_type_symbol
_atom_site_label
_atom_site_fract_x
_atom_site_fract_y
_atom_site_fract_z
Si Si1 0.547379 0.295545 0.466410
Si Si2 0.860675 0.035746 0.481550
Si Si3 0.037149 0.435955 0.347390
Si Si4 0.714717 0.628454 0.604097
Si Si5 0.637473 0.566904 0.006722
Si Si6 0.757564 0.231538 0.090773
Si Si7 0.543533 0.976239 0.241071
Si Si8 0.078432 0.270105 0.890223
O O1 0.679460 0.443730 0.634215
O O2 0.433248 0.292271 0.514567
O O3 0.458123 0.370282 0.233357
O O4 0.577827 0.130185 0.407664
O O5 0.790726 0.168165 0.307765
O O6 0.706184 0.918424 0.376123
O O7 0.951257 0.117298 0.733053
O O8 0.000000 0.000000 0.500000
O O9 0.204872 0.400482 0.495644
O O10 0.000000 0.500000 0.500000
O O11 0.924194 0.273837 0.180156
O O12 0.005730 0.576856 0.200396
O O13 0.833691 0.726482 0.850407
O O14 0.500000 0.500000 0.000000
O O15 0.705605 0.403659 0.049024
O O16 0.791145 0.703072 0.132610
O O17 0.622377 0.114211 0.866069
O O18 0.500000 0.000000 0.000000
#
# Coordination Sequence:
#
# PCOD9001092 Si02
#       8
#     2   2   2   2   2   2   2   2
#     4  10  22  42  67  97 133 181 228 271 335 408
#     4  11  23  37  65 100 134 175 228 273 331 402
#     4  11  21  39  63  97 135 169 222 288 331 387
#     4  10  23  39  67  98 134 178 223 277 338 404
#     4  10  21  33  64  97 134 168 219 280 334 381
#     4  10  23  39  60 100 133 170 217 277 342 382
#     4  10  22  39  65  92 136 177 221 277 326 407
#     4  10  22  38  62  96 131 175 225 270 334 400
#
# _framework density 27.184829000000001
#
# number of rings (size 3 to 8) (size 9 to 14) (size 15 to 20)
#    0.000    1.750    1.250    2.625   14.000    0.000 
#    0.000    0.625    0.000   12.750    0.000    0.000 
#    0.000    0.000    0.000    0.000    0.000    0.000 
#
# Total GULP energy -89243.604611 kJ/mol
# GULP energy per Si atom -5577.725288 kJ/mol
# Density = 2.712296 g / cm^3
# Si number density = 27.184829 Si / 1000 Ang^3
#
#
#
# Elastic Constant Matrix: (Units=GPa)
#
#
# Indices 1 2 3 4 5 6 
#
# 1 217.9177 20.0475 31.3518 19.3005 29.2928 -8.8634
# 2 20.0475 37.9687 7.1569 6.9570 8.4672 -14.0892
# 3 31.3518 7.1569 121.7307 20.2496 33.0460 -4.6906
# 4 19.3005 6.9570 20.2496 46.0920 12.4440 2.4628
# 5 29.2928 8.4672 33.0460 12.4440 50.4323 7.7326
# 6 -8.8634 -14.0892 -4.6906 2.4628 7.7326 38.3314
#
#
#
# Elastic Compliance Matrix: (Units=1/GPa)
#
#
# Indices 1 2 3 4 5 6 
#
# 1 0.005265 -0.001496 -0.000351 -0.001225 -0.002459 0.001199
# 2 -0.001496 0.034429 0.001504 -0.004082 -0.007064 0.014180
# 3 -0.000351 0.001504 0.010716 -0.003128 -0.006814 0.003359
# 4 -0.001225 -0.004082 -0.003128 0.024972 -0.002205 -0.003326
# 5 -0.002459 -0.007064 -0.006814 -0.002205 0.028938 -0.009695
# 6 0.001199 0.014180 0.003359 -0.003326 -0.009695 0.034158
#
#
# Mechanical properties :
#
#
# Convention : Reuss Voigt Hill
#
# Bulk Modulus (GPa) = 20.11050 54.96996 37.54023
# Shear Modulus (GPa) = 32.10520 48.24186 40.17353
#
# Velocity S-wave (km/s) = 3.44029 4.21716 3.84838
# Velocity P-wave (km/s) = 4.81607 6.63153 5.79534
#
# Compressibility (1/GPa) = 0.04972526
#
# Stress axis : x y z
#
# Youngs Moduli (GPa) = 189.94366 29.04538 93.31642
#
# Poissons Ratio (x) = 0.04345 0.03271
# Poissons Ratio (y) = 0.28413 -0.14036
# Poissons Ratio (z) = 0.06658 -0.04369
#
# Static dielectric constant tensor:
#      x y z
#    x 2.302310 0.107650 0.020470 
#    y 0.107650 2.177590 0.039160 
#    z 0.020470 0.039160 2.180960 
# 
# From -- ./inp_files/244796.got.cif
#   From: 2010.05.17/outbox.cif.g08.bks.cpg/sg2_123_cif.got.tgz:244796.got - 2010.06.03 11:33:40.
