data_PCOD9001180
_publ_section_title
;
Structure prediction by ZEFSAII (Michael W. Deem and Ramdas Pophale) SiO2 
 PCOD9001180
Probable space group: P -1
;
_chemical_formula_sum "Si O2"
_cell_formula_units_Z 12
_cell_length_a 6.621062
_cell_length_b 11.939463
_cell_length_c 15.477753
_cell_angle_alpha 140.353970
_cell_angle_beta 141.665493
_cell_angle_gamma 48.430225
_cell_volume 478.703160
_symmetry_space_group_name_H-M "P -1"
_symmetry_group_IT_number 2
_symmetry_cell_setting 'triclinic'
loop_
_space_group_symop_operation_xyz
x,y,z
-x,-y,-z
loop_
_atom_site_type_symbol
_atom_site_label
_atom_site_fract_x
_atom_site_fract_y
_atom_site_fract_z
Si Si1 0.610693 0.241927 0.146407
Si Si2 0.581403 0.668637 0.178563
Si Si3 0.788668 0.341503 0.517346
Si Si4 0.433501 0.354552 0.645224
Si Si5 0.303577 0.978397 0.794045
Si Si6 0.295374 0.057776 0.313742
O O1 0.526911 0.450120 0.254267
O O2 0.499967 0.148276 0.140620
O O3 0.003501 0.172538 0.228047
O O4 0.436140 0.162835 0.959737
O O5 0.435870 0.663194 0.223830
O O6 0.972943 0.645319 0.314266
O O7 0.460878 0.866802 0.221248
O O8 0.500000 0.500000 0.000000
O O9 0.500000 0.500000 0.500000
O O10 0.675957 0.147860 0.357012
O O11 0.040049 0.356997 0.530952
O O12 0.519223 0.189124 0.511772
O O13 0.931226 0.997208 0.714618
#
# Coordination Sequence:
#
# PCOD9001180 Si02
#       6
#     2   2   2   2   2   2
#     4   9  16  32  57  87 102 135 191 223 261 318
#     4  10  21  34  56  80 110 148 178 220 279 318
#     4   9  20  34  54  76 108 148 181 215 270 327
#     4   9  19  33  59  80 105 146 187 217 262 326
#     4   8  18  30  59  79 108 137 181 223 276 308
#     4   9  17  33  57  79 109 138 183 221 270 317
#
# _framework density 25.067726
#
# number of rings (size 3 to 8) (size 9 to 14) (size 15 to 20)
#    2.000    1.000    0.000    1.000    2.333    0.000 
#    0.000    4.167    0.000    2.000    0.000    0.000 
#    0.000    0.000    0.000    0.000    0.000    0.000 
#
# Total GULP energy -66900.721197 kJ/mol
# GULP energy per Si atom -5575.060100 kJ/mol
# Density = 2.501067 g / cm^3
# Si number density = 25.067726 Si / 1000 Ang^3
#
#
#
# Elastic Constant Matrix: (Units=GPa)
#
#
# Indices 1 2 3 4 5 6 
#
# 1 45.6722 11.4577 31.1291 5.3825 -10.1453 0.7840
# 2 11.4577 97.3275 83.5381 34.9005 -8.4957 -10.6691
# 3 31.1291 83.5381 295.1769 26.4097 -18.3316 3.2729
# 4 5.3825 34.9005 26.4097 42.9948 4.9239 1.4816
# 5 -10.1453 -8.4957 -18.3316 4.9239 31.7968 4.6438
# 6 0.7840 -10.6691 3.2729 1.4816 4.6438 23.9638
#
#
#
# Elastic Compliance Matrix: (Units=1/GPa)
#
#
# Indices 1 2 3 4 5 6 
#
# 1 0.025270 0.000281 -0.001978 -0.003001 0.007717 -0.001741
# 2 0.000281 0.020945 -0.004472 -0.015092 0.003971 0.010090
# 3 -0.001978 -0.004472 0.004901 0.000818 0.001296 -0.002898
# 4 -0.003001 -0.015092 0.000818 0.036679 -0.009142 -0.007229
# 5 0.007717 0.003971 0.001296 -0.009142 0.037932 -0.005447
# 6 -0.001741 0.010090 -0.002898 -0.007229 -0.005447 0.048177
#
#
# Mechanical properties :
#
#
# Convention : Reuss Voigt Hill
#
# Bulk Modulus (GPa) = 25.78681 76.71404 51.25043
# Shear Modulus (GPa) = 25.10461 40.55452 32.82956
#
# Velocity S-wave (km/s) = 3.16804 4.02655 3.62281
# Velocity P-wave (km/s) = 4.86735 7.23095 6.16351
#
# Compressibility (1/GPa) = 0.03877951
#
# Stress axis : x y z
#
# Youngs Moduli (GPa) = 39.57231 47.74498 204.02239
#
# Poissons Ratio (x) = -0.01343 0.40346
# Poissons Ratio (y) = -0.01113 0.91242
# Poissons Ratio (z) = 0.07826 0.21352
#
# Static dielectric constant tensor:
#      x y z
#    x 2.170280 0.046930 -0.028870 
#    y 0.046930 1.969470 -0.027360 
#    z -0.028870 -0.027360 1.990940 
# 
# From -- ./inp_files/269163.got.cif
#   From: 2010.05.17/outbox.cif.g08.bks.cpg/sg2_135_cif.got.tgz:269163.got - 2010.06.03 11:33:40.
