data_PCOD9001828
_publ_section_title
;
Structure prediction by ZEFSAII (Michael W. Deem and Ramdas Pophale) SiO2 
 PCOD9001828
Probable space group: P -1
;
_chemical_formula_sum "Si O2"
_cell_formula_units_Z 16
_cell_length_a 14.572730
_cell_length_b 8.230894
_cell_length_c 13.911904
_cell_angle_alpha 107.962537
_cell_angle_beta 152.350092
_cell_angle_gamma 67.207774
_cell_volume 711.556491
_symmetry_space_group_name_H-M "P -1"
_symmetry_group_IT_number 2
_symmetry_cell_setting 'triclinic'
loop_
_space_group_symop_operation_xyz
x,y,z
-x,-y,-z
loop_
_atom_site_type_symbol
_atom_site_label
_atom_site_fract_x
_atom_site_fract_y
_atom_site_fract_z
Si Si1 0.400888 0.125098 0.304722
Si Si2 0.999682 0.487414 0.381796
Si Si3 0.625444 0.238367 0.691888
Si Si4 0.212351 0.757916 0.631801
Si Si5 0.803711 0.110523 0.562107
Si Si6 0.446250 0.377139 0.743394
Si Si7 0.966688 0.320548 0.892701
Si Si8 0.201010 0.810022 0.852363
O O1 0.446766 0.263365 0.450983
O O2 0.610812 0.075267 0.431562
O O3 0.357757 0.957291 0.287735
O O4 0.199697 0.209081 0.073971
O O5 0.013890 0.684122 0.405162
O O6 0.212811 0.363311 0.517039
O O7 0.000000 0.500000 0.500000
O O8 0.833491 0.382811 0.187031
O O9 0.555015 0.365817 0.739692
O O10 0.834659 0.250668 0.838870
O O11 0.242633 0.872608 0.591018
O O12 0.394558 0.576652 0.773291
O O13 0.193621 0.835007 0.735037
O O14 0.845098 0.291400 0.678112
O O15 0.011850 0.958559 0.744774
O O16 0.576147 0.218958 0.900802
O O17 0.000000 0.500000 0.000000
#
# Coordination Sequence:
#
# PCOD9001828 Si02
#       8
#     2   2   2   2   2   2   2   2
#     4  10  23  43  64  89 129 159 210 261 317 373
#     4   8  19  35  58  85 119 160 208 251 295 358
#     4  10  22  40  65  93 119 166 210 256 311 378
#     4   9  22  39  59  92 132 159 207 260 311 362
#     4  11  24  41  63  95 130 169 203 260 326 371
#     4  10  21  35  65  90 121 162 213 253 301 368
#     4  11  26  40  64  93 128 161 211 261 313 382
#     4  11  20  40  65  88 125 169 213 253 303 378
#
# _framework density 22.485917000000001
#
# number of rings (size 3 to 8) (size 9 to 14) (size 15 to 20)
#    0.750    1.250    0.000    2.625    3.500    5.000 
#    0.000    0.000    0.000    4.500    0.000    0.000 
#    0.000    0.000    0.000    0.000    0.000    0.000 
#
# Total GULP energy -89134.332821 kJ/mol
# GULP energy per Si atom -5570.895801 kJ/mol
# Density = 2.243474 g / cm^3
# Si number density = 22.485917 Si / 1000 Ang^3
#
#
#
# Elastic Constant Matrix: (Units=GPa)
#
#
# Indices 1 2 3 4 5 6 
#
# 1 90.0007 11.7685 10.4762 3.4808 -0.8060 -15.1931
# 2 11.7685 50.2876 20.2969 6.7804 9.7785 -11.0031
# 3 10.4762 20.2969 70.8328 0.1014 3.0334 -5.1540
# 4 3.4808 6.7804 0.1014 29.8680 -4.6880 5.2924
# 5 -0.8060 9.7785 3.0334 -4.6880 20.1322 -1.7074
# 6 -15.1931 -11.0031 -5.1540 5.2924 -1.7074 34.4949
#
#
#
# Elastic Compliance Matrix: (Units=1/GPa)
#
#
# Indices 1 2 3 4 5 6 
#
# 1 0.012377 -0.001301 -0.001131 -0.001863 0.001307 0.005218
# 2 -0.001301 0.029095 -0.006875 -0.010265 -0.014816 0.008522
# 3 -0.001131 -0.006875 0.016161 0.001927 0.001264 -0.000510
# 4 -0.001863 -0.010265 0.001927 0.039715 0.013084 -0.009252
# 5 0.001307 -0.014816 0.001264 0.013084 0.059520 -0.003023
# 6 0.005218 0.008522 -0.000510 -0.009252 -0.003023 0.035200
#
#
# Mechanical properties :
#
#
# Convention : Reuss Voigt Hill
#
# Bulk Modulus (GPa) = 25.62955 32.91159 29.27057
# Shear Modulus (GPa) = 22.35239 28.13767 25.24503
#
# Velocity S-wave (km/s) = 3.15629 3.54127 3.35431
# Velocity P-wave (km/s) = 4.97048 5.60260 5.29598
#
# Compressibility (1/GPa) = 0.03901746
#
# Stress axis : x y z
#
# Youngs Moduli (GPa) = 80.79204 34.37053 61.87667
#
# Poissons Ratio (x) = 0.04472 0.07001
# Poissons Ratio (y) = 0.10513 0.42542
# Poissons Ratio (z) = 0.09141 0.23631
#
# Static dielectric constant tensor:
#      x y z
#    x 1.845680 0.046560 0.005960 
#    y 0.046560 1.985340 0.038250 
#    z 0.005960 0.038250 1.850800 
# 
# From -- ./inp_files/528845.got.cif
#   From: 2010.05.17/outbox.cif.g08.bks.cpg/sg2_265_cif.got.tgz:528845.got - 2010.06.03 11:33:40.
