data_PCOD9001933
_publ_section_title
;
Structure prediction by ZEFSAII (Michael W. Deem and Ramdas Pophale) SiO2 
 PCOD9001933
Probable space group: P -1
;
_chemical_formula_sum "Si O2"
_cell_formula_units_Z 16
_cell_length_a 8.984900
_cell_length_b 23.565537
_cell_length_c 11.937852
_cell_angle_alpha 28.160890
_cell_angle_beta 35.508191
_cell_angle_gamma 49.956270
_cell_volume 666.934124
_symmetry_space_group_name_H-M "P -1"
_symmetry_group_IT_number 2
_symmetry_cell_setting 'triclinic'
loop_
_space_group_symop_operation_xyz
x,y,z
-x,-y,-z
loop_
_atom_site_type_symbol
_atom_site_label
_atom_site_fract_x
_atom_site_fract_y
_atom_site_fract_z
Si Si1 0.627326 0.186379 0.075553
Si Si2 0.335934 0.261207 0.330950
Si Si3 0.194234 0.914407 0.054379
Si Si4 0.635365 0.190169 0.672690
Si Si5 0.246148 0.502051 0.265032
Si Si6 0.770524 0.779078 0.289371
Si Si7 0.964203 0.599797 0.065559
Si Si8 0.603203 0.377932 0.563837
O O1 0.623372 0.307156 0.792720
O O2 0.589652 0.081780 0.182213
O O3 0.912955 0.182583 0.955760
O O4 0.445259 0.195995 0.275521
O O5 0.019030 0.224599 0.575615
O O6 0.364594 0.210775 0.525787
O O7 0.498767 0.404486 0.995202
O O8 0.307552 0.921305 0.096749
O O9 0.000000 0.000000 0.000000
O O10 0.360328 0.152907 0.839688
O O11 0.608512 0.291389 0.605905
O O12 0.872835 0.265480 0.315600
O O13 0.286917 0.366631 0.455871
O O14 0.000000 0.500000 0.500000
O O15 0.154697 0.550342 0.119129
O O16 0.842064 0.503767 0.207275
O O17 0.691367 0.601692 0.291793
#
# Coordination Sequence:
#
# PCOD9001933 Si02
#       8
#     2   2   2   2   2   2   2   2
#     4  10  21  41  63  91 122 164 202 246 306 368
#     4  11  22  39  64  88 126 168 204 243 297 369
#     4  10  25  47  68  88 112 153 213 271 320 358
#     4  11  23  36  61  86 119 158 200 261 302 353
#     4  12  21  35  59  92 137 173 198 230 291 366
#     4  11  22  36  58  95 130 167 198 237 296 371
#     4  11  21  35  53  89 127 166 205 234 291 354
#     4  10  21  36  54  86 127 166 204 240 283 360
#
# _framework density 23.990376000000001
#
# number of rings (size 3 to 8) (size 9 to 14) (size 15 to 20)
#    0.000    1.250    3.750    2.250    0.000    3.500 
#    0.000    2.500    0.000    1.500    0.000    0.000 
#    0.000    0.000    0.000    0.000    0.000    0.000 
#
# Total GULP energy -89411.788792 kJ/mol
# GULP energy per Si atom -5588.236799 kJ/mol
# Density = 2.393577 g / cm^3
# Si number density = 23.990376 Si / 1000 Ang^3
#
#
#
# Elastic Constant Matrix: (Units=GPa)
#
#
# Indices 1 2 3 4 5 6 
#
# 1 133.9469 19.2091 14.5330 4.5139 19.1111 -17.3714
# 2 19.2091 89.0293 25.0374 16.9931 20.5059 8.9278
# 3 14.5330 25.0374 44.0387 6.4559 0.4076 7.3734
# 4 4.5139 16.9931 6.4559 41.2766 2.0881 9.1324
# 5 19.1111 20.5059 0.4076 2.0881 36.0265 -1.9081
# 6 -17.3714 8.9278 7.3734 9.1324 -1.9081 37.0653
#
#
#
# Elastic Compliance Matrix: (Units=1/GPa)
#
#
# Indices 1 2 3 4 5 6 
#
# 1 0.009223 -0.000272 -0.003529 -0.001270 -0.004349 0.005179
# 2 -0.000272 0.016854 -0.008409 -0.004726 -0.009176 -0.001822
# 3 -0.003529 -0.008409 0.029455 0.000085 0.006045 -0.005198
# 4 -0.001270 -0.004726 0.000085 0.027597 0.001435 -0.006200
# 5 -0.004349 -0.009176 0.006045 0.001435 0.035159 0.000426
# 6 0.005179 -0.001822 -0.005198 -0.006200 0.000426 0.032429
#
#
# Mechanical properties :
#
#
# Convention : Reuss Voigt Hill
#
# Bulk Modulus (GPa) = 32.14454 42.73044 37.43749
# Shear Modulus (GPa) = 26.95286 36.75604 31.85445
#
# Velocity S-wave (km/s) = 3.35548 3.91847 3.64785
# Velocity P-wave (km/s) = 5.33295 6.19053 5.77768
#
# Compressibility (1/GPa) = 0.03110948
#
# Stress axis : x y z
#
# Youngs Moduli (GPa) = 108.42814 59.33172 33.95027
#
# Poissons Ratio (x) = 0.01617 0.11982
# Poissons Ratio (y) = 0.02955 0.28550
# Poissons Ratio (z) = 0.38268 0.49895
#
# Static dielectric constant tensor:
#      x y z
#    x 1.929140 0.032550 0.025580 
#    y 0.032550 1.929130 -0.057580 
#    z 0.025580 -0.057580 1.995850 
# 
# From -- ./inp_files/281893.got.cif
#   From: 2010.05.17/outbox.cif.g08.bks.cpg/sg2_141_cif.got.tgz:281893.got - 2010.06.03 11:33:40.
