data_PCOD9001712
_publ_section_title
;
Structure prediction by ZEFSAII (Michael W. Deem and Ramdas Pophale) SiO2 
 PCOD9001712
Probable space group: P -1
;
_chemical_formula_sum "Si O2"
_cell_formula_units_Z 16
_cell_length_a 9.477008
_cell_length_b 19.430463
_cell_length_c 10.948831
_cell_angle_alpha 148.592881
_cell_angle_beta 128.942761
_cell_angle_gamma 62.769282
_cell_volume 801.541121
_symmetry_space_group_name_H-M "P -1"
_symmetry_group_IT_number 2
_symmetry_cell_setting 'triclinic'
loop_
_space_group_symop_operation_xyz
x,y,z
-x,-y,-z
loop_
_atom_site_type_symbol
_atom_site_label
_atom_site_fract_x
_atom_site_fract_y
_atom_site_fract_z
Si Si1 0.598961 0.931421 0.216772
Si Si2 0.747647 0.181941 0.504339
Si Si3 0.399495 0.251665 0.286446
Si Si4 0.276435 0.049570 0.309465
Si Si5 0.658377 0.481068 0.462358
Si Si6 0.075318 0.425431 0.041054
Si Si7 0.879887 0.972212 0.080790
Si Si8 0.626941 0.736475 0.126631
O O1 0.708289 0.854565 0.252869
O O2 0.693073 0.068961 0.408948
O O3 0.434106 0.962696 0.257782
O O4 0.539845 0.820186 0.910952
O O5 0.566364 0.240001 0.452529
O O6 0.912455 0.304213 0.810853
O O7 0.820152 0.100697 0.308036
O O8 0.347931 0.394856 0.445129
O O9 0.212751 0.153951 0.080196
O O10 0.358338 0.195255 0.630622
O O11 0.212501 0.051791 0.138630
O O12 0.096469 0.990052 0.200874
O O13 0.500000 0.500000 0.500000
O O14 0.837328 0.494365 0.668134
O O15 0.578408 0.340699 0.139172
O O16 0.240207 0.367995 0.979077
O O17 0.000000 0.500000 0.000000
#
# Coordination Sequence:
#
# PCOD9001712 Si02
#       8
#     2   2   2   2   2   2   2   2
#     4  11  21  36  65  90 126 158 202 253 310 367
#     4  11  20  37  63  96 121 154 211 258 306 353
#     4  11  19  39  66  92 121 161 208 258 304 353
#     4  11  21  39  57  94 131 166 194 246 315 378
#     4  10  21  40  61  87 122 161 209 259 299 356
#     4  11  23  38  62  92 120 159 210 258 304 355
#     4  10  21  35  61  92 128 156 203 256 301 362
#     4  11  23  40  60  92 123 171 202 247 310 371
#
# _framework density 19.961546999999999
#
# number of rings (size 3 to 8) (size 9 to 14) (size 15 to 20)
#    0.000    1.250    6.250    2.625    0.000    1.500 
#    0.000    0.625    0.000    1.500    0.000    0.000 
#    0.000    0.000    0.000    0.000    0.000    0.000 
#
# Total GULP energy -89195.280961 kJ/mol
# GULP energy per Si atom -5574.705060 kJ/mol
# Density = 1.991611 g / cm^3
# Si number density = 19.961547 Si / 1000 Ang^3
#
#
#
# Elastic Constant Matrix: (Units=GPa)
#
#
# Indices 1 2 3 4 5 6 
#
# 1 74.3318 27.1693 30.4403 -1.7203 -1.1170 -6.4725
# 2 27.1693 100.5328 38.3417 2.0965 11.0657 4.0538
# 3 30.4403 38.3417 131.1441 -19.1455 9.0705 0.9234
# 4 -1.7203 2.0965 -19.1455 23.2843 2.3948 2.7916
# 5 -1.1170 11.0657 9.0705 2.3948 19.7793 6.7117
# 6 -6.4725 4.0538 0.9234 2.7916 6.7117 15.5133
#
#
#
# Elastic Compliance Matrix: (Units=1/GPa)
#
#
# Indices 1 2 3 4 5 6 
#
# 1 0.016860 -0.003788 -0.003359 -0.002328 0.002298 0.007649
# 2 -0.003788 0.012790 -0.002958 -0.003110 -0.004941 -0.002049
# 3 -0.003359 -0.002958 0.010985 0.009634 -0.004355 -0.001132
# 4 -0.002328 -0.003110 0.009634 0.052540 -0.006698 -0.007289
# 5 0.002298 -0.004941 -0.004355 -0.006698 0.064464 -0.024175
# 6 0.007649 -0.002049 -0.001132 -0.007289 -0.024175 0.080026
#
#
# Mechanical properties :
#
#
# Convention : Reuss Voigt Hill
#
# Bulk Modulus (GPa) = 48.95750 55.32349 52.14050
# Shear Modulus (GPa) = 18.89048 25.71919 22.30483
#
# Velocity S-wave (km/s) = 3.07961 3.59337 3.34636
# Velocity P-wave (km/s) = 6.10118 6.70758 6.41156
#
# Compressibility (1/GPa) = 0.02042588
#
# Stress axis : x y z
#
# Youngs Moduli (GPa) = 59.31198 78.18442 91.03145
#
# Poissons Ratio (x) = 0.29619 0.30573
# Poissons Ratio (y) = 0.22470 0.26926
# Poissons Ratio (z) = 0.19920 0.23126
#
# Static dielectric constant tensor:
#      x y z
#    x 1.693760 -0.017550 0.012390 
#    y -0.017550 1.808310 -0.001610 
#    z 0.012390 -0.001610 1.760000 
# 
# From -- ./inp_files/392057.got.cif
#   From: 2010.05.17/outbox.cif.g08.bks.cpg/sg2_197_cif.got.tgz:392057.got - 2010.06.03 11:33:40.
