data_PCOD9001759
_publ_section_title
;
Structure prediction by ZEFSAII (Michael W. Deem and Ramdas Pophale) SiO2 
 PCOD9001759
Probable space group: P -1
;
_chemical_formula_sum "Si O2"
_cell_formula_units_Z 12
_cell_length_a 9.223154
_cell_length_b 5.359498
_cell_length_c 12.203757
_cell_angle_alpha 109.662232
_cell_angle_beta 105.836492
_cell_angle_gamma 101.641721
_cell_volume 517.015978
_symmetry_space_group_name_H-M "P -1"
_symmetry_group_IT_number 2
_symmetry_cell_setting 'triclinic'
loop_
_space_group_symop_operation_xyz
x,y,z
-x,-y,-z
loop_
_atom_site_type_symbol
_atom_site_label
_atom_site_fract_x
_atom_site_fract_y
_atom_site_fract_z
Si Si1 0.881597 0.653066 0.215962
Si Si2 0.107417 0.882949 0.925816
Si Si3 0.592306 0.779077 0.834158
Si Si4 0.567328 0.738174 0.141023
Si Si5 0.165714 0.155270 0.302581
Si Si6 0.894485 0.679696 0.462774
O O1 0.855477 0.404832 0.087915
O O2 0.759249 0.822406 0.191430
O O3 0.830389 0.552643 0.313641
O O4 0.065363 0.837188 0.268763
O O5 0.979155 0.780971 0.783449
O O6 0.279421 0.103042 0.024223
O O7 0.000000 0.000000 0.000000
O O8 0.500105 0.453432 0.793284
O O9 0.489514 0.991936 0.840629
O O10 0.691892 0.810377 0.746563
O O11 0.500000 0.500000 0.000000
O O12 0.211183 0.309489 0.451426
O O13 0.000000 0.500000 0.500000
O O14 0.000000 0.000000 0.500000
#
# Coordination Sequence:
#
# PCOD9001759 Si02
#       6
#     2   2   2   2   2   2
#     4  11  23  39  66  90 124 164 213 252 306 367
#     4  10  21  35  62  92 123 156 207 253 311 354
#     4  11  26  40  62  92 129 164 200 253 313 369
#     4  12  25  42  61  91 131 165 202 247 313 374
#     4  10  23  41  64  91 124 160 212 260 305 361
#     4  10  21  38  63  93 119 158 207 262 303 352
#
# _framework density 23.210113
#
# number of rings (size 3 to 8) (size 9 to 14) (size 15 to 20)
#    0.000    1.333    3.333    1.500    7.000    1.333 
#    0.000    1.667    0.000    0.000    0.000    0.000 
#    0.000    0.000    0.000    0.000    0.000    0.000 
#
# Total GULP energy -66806.904491 kJ/mol
# GULP energy per Si atom -5567.242041 kJ/mol
# Density = 2.315729 g / cm^3
# Si number density = 23.210113 Si / 1000 Ang^3
#
#
#
# Elastic Constant Matrix: (Units=GPa)
#
#
# Indices 1 2 3 4 5 6 
#
# 1 109.8071 39.9554 25.3147 -0.9180 -17.2550 -8.7586
# 2 39.9554 98.4075 16.0360 -2.8577 -7.3705 -10.3269
# 3 25.3147 16.0360 74.9278 -21.5197 -39.2724 -6.1300
# 4 -0.9180 -2.8577 -21.5197 33.9223 0.7366 4.9845
# 5 -17.2550 -7.3705 -39.2724 0.7366 36.2544 -7.8247
# 6 -8.7586 -10.3269 -6.1300 4.9845 -7.8247 40.4895
#
#
#
# Elastic Compliance Matrix: (Units=1/GPa)
#
#
# Indices 1 2 3 4 5 6 
#
# 1 0.011633 -0.004041 -0.001089 -0.001133 0.004043 0.002242
# 2 -0.004041 0.012193 -0.001564 -0.000338 -0.000721 0.001901
# 3 -0.001089 -0.001564 0.061928 0.034996 0.069387 0.017842
# 4 -0.001133 -0.000338 0.034996 0.049910 0.037602 0.006089
# 5 0.004043 -0.000721 0.069387 0.037602 0.109754 0.027777
# 6 0.002242 0.001901 0.017842 0.006089 0.027777 0.032987
#
#
# Mechanical properties :
#
#
# Convention : Reuss Voigt Hill
#
# Bulk Modulus (GPa) = 13.81844 49.52829 31.67336
# Shear Modulus (GPa) = 15.82715 35.58898 25.70806
#
# Velocity S-wave (km/s) = 2.61417 3.92004 3.33171
# Velocity P-wave (km/s) = 3.88309 6.47104 5.33632
#
# Compressibility (1/GPa) = 0.07236708
#
# Stress axis : x y z
#
# Youngs Moduli (GPa) = 85.96465 82.01479 16.14788
#
# Poissons Ratio (x) = 0.33139 0.01758
# Poissons Ratio (y) = 0.34735 0.02525
# Poissons Ratio (z) = 0.09357 0.12827
#
# Static dielectric constant tensor:
#      x y z
#    x 1.842760 0.028930 -0.008470 
#    y 0.028930 1.863270 -0.047020 
#    z -0.008470 -0.047020 1.981030 
# 
# From -- ./inp_files/23834.got.cif
#   From: 2010.05.17/outbox.cif.g08.bks.cpg/sg2_12_cif.got.tgz:23834.got - 2010.06.03 11:33:40.
