data_PCOD9001726
_publ_section_title
;
Structure prediction by ZEFSAII (Michael W. Deem and Ramdas Pophale) SiO2 
 PCOD9001726
Probable space group: P -1
;
_chemical_formula_sum "Si O2"
_cell_formula_units_Z 14
_cell_length_a 12.535341
_cell_length_b 19.356710
_cell_length_c 9.122944
_cell_angle_alpha 32.496481
_cell_angle_beta 146.558785
_cell_angle_gamma 149.510282
_cell_volume 554.359903
_symmetry_space_group_name_H-M "P -1"
_symmetry_group_IT_number 2
_symmetry_cell_setting 'triclinic'
loop_
_space_group_symop_operation_xyz
x,y,z
-x,-y,-z
loop_
_atom_site_type_symbol
_atom_site_label
_atom_site_fract_x
_atom_site_fract_y
_atom_site_fract_z
Si Si1 0.447745 0.800491 0.096723
Si Si2 0.773640 0.602425 0.632722
Si Si3 0.257137 0.220143 0.302963
Si Si4 0.275356 0.923793 0.273607
Si Si5 0.676186 0.328133 0.141656
Si Si6 0.790121 0.731618 0.148395
Si Si7 0.906032 0.125639 0.312664
O O1 0.541491 0.724106 0.447811
O O2 0.339451 0.714565 0.973439
O O3 0.282080 0.835961 0.931398
O O4 0.654936 0.964175 0.982915
O O5 0.500000 0.500000 0.500000
O O6 0.835615 0.622907 0.496215
O O7 0.893080 0.774348 0.518253
O O8 0.828693 0.510360 0.977005
O O9 0.036986 0.187787 0.198766
O O10 0.203913 0.054534 0.485597
O O11 0.291717 0.315263 0.027909
O O12 0.237186 0.757810 0.505673
O O13 0.039873 0.885961 0.144775
O O14 0.500000 0.000000 0.500000
O O15 0.419236 0.267984 0.013834
#
# Coordination Sequence:
#
# PCOD9001726 Si02
#       7
#     2   2   2   2   2   2   2
#     4  11  23  41  67  97 127 162 208 256 314 380
#     4  10  22  42  65  91 125 166 214 257 306 371
#     4  11  24  41  65  92 129 169 201 256 321 367
#     4  10  21  35  61  95 119 154 207 256 307 363
#     4  10  23  42  66  92 124 165 209 261 312 360
#     4  11  23  39  62  92 125 162 208 258 309 368
#     4  11  23  41  65  92 127 167 209 257 310 371
#
# _framework density 25.254351
#
# number of rings (size 3 to 8) (size 9 to 14) (size 15 to 20)
#    0.000    1.429    0.000    6.429    0.000    9.714 
#    0.000    6.429    0.000   11.143    0.000    0.000 
#    0.000    0.000    0.000    0.000    0.000    0.000 
#
# Total GULP energy -78221.995061 kJ/mol
# GULP energy per Si atom -5587.285362 kJ/mol
# Density = 2.519687 g / cm^3
# Si number density = 25.254351 Si / 1000 Ang^3
#
#
#
# Elastic Constant Matrix: (Units=GPa)
#
#
# Indices 1 2 3 4 5 6 
#
# 1 126.8019 23.8210 29.3832 6.4763 9.5296 32.7388
# 2 23.8210 74.2998 13.9321 3.2350 -4.6505 2.8486
# 3 29.3832 13.9321 95.2604 0.6310 -21.2492 11.9445
# 4 6.4763 3.2350 0.6310 36.8932 0.1550 -2.7763
# 5 9.5296 -4.6505 -21.2492 0.1550 43.1537 2.2333
# 6 32.7388 2.8486 11.9445 -2.7763 2.2333 36.3307
#
#
#
# Elastic Compliance Matrix: (Units=1/GPa)
#
#
# Indices 1 2 3 4 5 6 
#
# 1 0.012043 -0.003082 -0.002919 -0.002500 -0.003923 -0.009601
# 2 -0.003082 0.014705 -0.001056 -0.000600 0.001653 0.001824
# 3 -0.002919 -0.001056 0.013438 0.000184 0.007258 -0.002137
# 4 -0.002500 -0.000600 0.000184 0.027920 0.000252 0.004357
# 5 -0.003923 0.001653 0.007258 0.000252 0.027825 -0.000672
# 6 -0.009601 0.001824 -0.002137 0.004357 -0.000672 0.037111
#
#
# Mechanical properties :
#
#
# Convention : Reuss Voigt Hill
#
# Bulk Modulus (GPa) = 38.35504 47.84829 43.10167
# Shear Modulus (GPa) = 32.08292 38.55725 35.32009
#
# Velocity S-wave (km/s) = 3.56812 3.91161 3.74381
# Velocity P-wave (km/s) = 5.67413 6.27604 5.98266
#
# Compressibility (1/GPa) = 0.02607219
#
# Stress axis : x y z
#
# Youngs Moduli (GPa) = 83.03540 68.00476 74.41661
#
# Poissons Ratio (x) = 0.20962 0.21719
# Poissons Ratio (y) = 0.25595 0.07857
# Poissons Ratio (z) = 0.24234 0.07180
#
# Static dielectric constant tensor:
#      x y z
#    x 2.003570 -0.038310 0.044380 
#    y -0.038310 2.060760 -0.003660 
#    z 0.044380 -0.003660 2.086780 
# 
# From -- ./inp_files/281557.got.cif
#   From: 2010.05.17/outbox.cif.g08.bks.cpg/sg2_141_cif.got.tgz:281557.got - 2010.06.03 11:33:40.
