data_PCOD9001153
_publ_section_title
;
Structure prediction by ZEFSAII (Michael W. Deem and Ramdas Pophale) SiO2 
 PCOD9001153
Probable space group: P -1
;
_chemical_formula_sum "Si O2"
_cell_formula_units_Z 16
_cell_length_a 10.710421
_cell_length_b 10.880244
_cell_length_c 5.767631
_cell_angle_alpha 75.303316
_cell_angle_beta 102.245711
_cell_angle_gamma 71.772351
_cell_volume 585.604812
_symmetry_space_group_name_H-M "P -1"
_symmetry_group_IT_number 2
_symmetry_cell_setting 'triclinic'
loop_
_space_group_symop_operation_xyz
x,y,z
-x,-y,-z
loop_
_atom_site_type_symbol
_atom_site_label
_atom_site_fract_x
_atom_site_fract_y
_atom_site_fract_z
Si Si1 0.237909 0.646219 0.468079
Si Si2 0.728128 0.947248 0.655027
Si Si3 0.074850 0.391162 0.788886
Si Si4 0.956969 0.824724 0.423563
Si Si5 0.160783 0.904440 0.992904
Si Si6 0.788808 0.472790 0.892742
Si Si7 0.481901 0.118083 0.130807
Si Si8 0.623369 0.304749 0.115117
O O1 0.263463 0.506133 0.409322
O O2 0.368926 0.662525 0.626828
O O3 0.109885 0.705529 0.571466
O O4 0.171390 0.764762 0.189962
O O5 0.865787 0.868849 0.596708
O O6 0.761885 0.033676 0.828408
O O7 0.656391 0.855551 0.792474
O O8 0.607145 0.044275 0.394842
O O9 0.118121 0.245686 0.743335
O O10 0.000000 0.500000 0.500000
O O11 0.954709 0.397388 0.922864
O O12 0.188556 0.428600 0.952102
O O13 0.960491 0.961274 0.228708
O O14 0.247344 0.835976 0.832383
O O15 0.668906 0.422673 0.967688
O O16 0.501005 0.259637 0.004135
O O17 0.500000 0.000000 0.000000
#
# Coordination Sequence:
#
# PCOD9001153 Si02
#       8
#     2   2   2   2   2   2   2   2
#     4  10  21  34  54  84 123 156 190 235 289 353
#     4  11  22  35  57  84 118 161 192 235 292 343
#     4  10  21  40  57  82 116 155 201 242 291 346
#     4  11  22  35  55  85 121 154 197 237 289 350
#     4  11  20  35  51  87 119 157 193 227 297 346
#     4   9  20  34  58  81 106 154 193 240 284 336
#     4  11  21  39  59  81 120 157 200 237 284 352
#     4  11  20  37  58  86 119 153 199 241 286 347
#
# _framework density 27.322178000000001
#
# number of rings (size 3 to 8) (size 9 to 14) (size 15 to 20)
#    0.000    1.500    3.750    1.875    0.000    8.000 
#    0.000    0.000    0.000    0.750    0.000    5.250 
#    0.000    0.000    0.000    0.000    0.000    0.000 
#
# Total GULP energy -89146.281031 kJ/mol
# GULP energy per Si atom -5571.642564 kJ/mol
# Density = 2.725999 g / cm^3
# Si number density = 27.322178 Si / 1000 Ang^3
#
#
#
# Elastic Constant Matrix: (Units=GPa)
#
#
# Indices 1 2 3 4 5 6 
#
# 1 90.3202 60.6031 49.5957 3.8841 -0.1678 48.8342
# 2 60.6031 129.7593 66.2904 29.1363 8.8324 41.0933
# 3 49.5957 66.2904 118.8712 40.1471 11.1356 16.7638
# 4 3.8841 29.1363 40.1471 68.0508 16.4573 17.4945
# 5 -0.1678 8.8324 11.1356 16.4573 40.2856 -5.4370
# 6 48.8342 41.0933 16.7638 17.4945 -5.4370 57.7933
#
#
#
# Elastic Compliance Matrix: (Units=1/GPa)
#
#
# Indices 1 2 3 4 5 6 
#
# 1 0.037192 -0.003922 -0.014317 0.017286 -0.006179 -0.030299
# 2 -0.003922 0.014050 -0.004924 -0.001097 -0.001976 -0.005102
# 3 -0.014317 -0.004924 0.019161 -0.012698 0.002821 0.014150
# 4 0.017286 -0.001097 -0.012698 0.029479 -0.010932 -0.020095
# 5 -0.006179 -0.001976 0.002821 -0.010932 0.030535 0.011989
# 6 -0.030299 -0.005102 0.014150 -0.020095 0.011989 0.049639
#
#
# Mechanical properties :
#
#
# Convention : Reuss Voigt Hill
#
# Bulk Modulus (GPa) = 41.53148 76.88102 59.20625
# Shear Modulus (GPa) = 21.33053 44.05670 32.69362
#
# Velocity S-wave (km/s) = 2.79714 4.01994 3.46294
# Velocity P-wave (km/s) = 5.06613 7.05311 6.14052
#
# Compressibility (1/GPa) = 0.02407812
#
# Stress axis : x y z
#
# Youngs Moduli (GPa) = 26.88786 71.17271 52.19058
#
# Poissons Ratio (x) = 0.27911 0.74719
# Poissons Ratio (y) = 0.10544 0.25698
# Poissons Ratio (z) = 0.38494 0.35045
#
# Static dielectric constant tensor:
#      x y z
#    x 2.266490 0.029060 -0.089790 
#    y 0.029060 2.227790 -0.049710 
#    z -0.089790 -0.049710 2.230030 
# 
# From -- ./inp_files/66861.got.cif
#   From: 2010.05.17/outbox.cif.g08.bks.cpg/sg2_34_cif.got.tgz:66861.got - 2010.06.03 11:33:40.
