data_PCOD9001523
_publ_section_title
;
Structure prediction by ZEFSAII (Michael W. Deem and Ramdas Pophale) SiO2 
 PCOD9001523
Probable space group: P -1
;
_chemical_formula_sum "Si O2"
_cell_formula_units_Z 16
_cell_length_a 18.645108
_cell_length_b 7.972969
_cell_length_c 16.691403
_cell_angle_alpha 39.894292
_cell_angle_beta 27.545369
_cell_angle_gamma 34.500231
_cell_volume 643.591695
_symmetry_space_group_name_H-M "P -1"
_symmetry_group_IT_number 2
_symmetry_cell_setting 'triclinic'
loop_
_space_group_symop_operation_xyz
x,y,z
-x,-y,-z
loop_
_atom_site_type_symbol
_atom_site_label
_atom_site_fract_x
_atom_site_fract_y
_atom_site_fract_z
Si Si1 0.636559 0.719205 0.779053
Si Si2 0.170900 0.888290 0.104993
Si Si3 0.587573 0.861920 0.271308
Si Si4 0.348862 0.043733 0.070109
Si Si5 0.003034 0.665564 0.217106
Si Si6 0.182929 0.904083 0.543236
Si Si7 0.315656 0.768087 0.647749
Si Si8 0.186924 0.706326 0.439469
O O1 0.690101 0.399651 0.878135
O O2 0.567368 0.817320 0.722491
O O3 0.792269 0.807026 0.607247
O O4 0.459919 0.955788 0.912236
O O5 0.097927 0.751063 0.160989
O O6 0.011823 0.056078 0.263994
O O7 0.242480 0.088215 0.916853
O O8 0.493246 0.801565 0.463617
O O9 0.634177 0.576952 0.272084
O O10 0.172294 0.370818 0.119765
O O11 0.304351 0.785821 0.235732
O O12 0.500000 0.000000 0.000000
O O13 0.871146 0.544381 0.421080
O O14 0.848830 0.001451 0.218996
O O15 0.261050 0.824583 0.585476
O O16 0.250377 0.705883 0.468681
O O17 0.000000 0.000000 0.500000
#
# Coordination Sequence:
#
# PCOD9001523 Si02
#       8
#     2   2   2   2   2   2   2   2
#     4  11  21  37  59  94 124 153 198 250 304 356
#     4  11  22  37  63  93 119 155 201 249 305 357
#     4  10  23  40  66  88 116 158 205 256 292 350
#     4  11  20  36  58  88 130 158 193 242 307 361
#     4  10  22  37  60  88 120 161 195 239 298 359
#     4  10  21  38  61  88 125 157 194 247 303 352
#     4   9  22  45  64  84 120 157 207 249 298 347
#     4  10  21  35  57  87 128 159 188 243 307 355
#
# _framework density 24.860482000000001
#
# number of rings (size 3 to 8) (size 9 to 14) (size 15 to 20)
#    0.000    1.750    2.500    1.500    5.250    6.000 
#    0.000    0.625    2.750    2.250    0.000    0.000 
#    0.000    0.000    0.000    0.000    0.000    0.000 
#
# Total GULP energy -89085.824509 kJ/mol
# GULP energy per Si atom -5567.864032 kJ/mol
# Density = 2.480390 g / cm^3
# Si number density = 24.860482 Si / 1000 Ang^3
#
#
#
# Elastic Constant Matrix: (Units=GPa)
#
#
# Indices 1 2 3 4 5 6 
#
# 1 33.1250 -6.1768 33.6878 -12.8752 -3.4356 9.5354
# 2 -6.1768 110.6637 40.6968 10.5151 -2.0558 -4.4916
# 3 33.6878 40.6968 138.3522 -4.7268 -16.6820 8.4864
# 4 -12.8752 10.5151 -4.7268 53.1436 10.7233 -3.4934
# 5 -3.4356 -2.0558 -16.6820 10.7233 32.0064 -5.3961
# 6 9.5354 -4.4916 8.4864 -3.4934 -5.3961 26.4255
#
#
#
# Elastic Compliance Matrix: (Units=1/GPa)
#
#
# Indices 1 2 3 4 5 6 
#
# 1 0.053921 0.006708 -0.014792 0.011035 -0.007487 -0.013636
# 2 0.006708 0.011418 -0.005174 -0.000874 -0.000798 0.000903
# 3 -0.014792 -0.005174 0.012898 -0.002514 0.005843 0.001177
# 4 0.011035 -0.000874 -0.002514 0.022967 -0.008208 -0.001963
# 5 -0.007487 -0.000798 0.005843 -0.008208 0.037405 0.007243
# 6 -0.013636 0.000903 0.001177 -0.001963 0.007243 0.043758
#
#
# Mechanical properties :
#
#
# Convention : Reuss Voigt Hill
#
# Bulk Modulus (GPa) = 19.33397 46.50627 32.92012
# Shear Modulus (GPa) = 22.11196 36.57731 29.34463
#
# Velocity S-wave (km/s) = 2.98559 3.83992 3.43938
# Velocity P-wave (km/s) = 4.43608 6.19738 5.38917
#
# Compressibility (1/GPa) = 0.05172243
#
# Stress axis : x y z
#
# Youngs Moduli (GPa) = 18.54580 87.57877 77.53169
#
# Poissons Ratio (x) = -0.58750 1.14684
# Poissons Ratio (y) = -0.12441 0.40112
# Poissons Ratio (z) = 0.27433 0.45310
#
# Static dielectric constant tensor:
#      x y z
#    x 0.456810 -0.262210 -0.083880 
#    y -0.262210 2.017650 0.036660 
#    z -0.083880 0.036660 2.051930 
# 
# From -- ./inp_files/319367.got.cif
#   From: 2010.05.17/outbox.cif.g08.bks.cpg/sg2_160_cif.got.tgz:319367.got - 2010.06.03 11:33:40.
