data_PCOD9001578
_publ_section_title
;
Structure prediction by ZEFSAII (Michael W. Deem and Ramdas Pophale) SiO2 
 PCOD9001578
Probable space group: P -1
;
_chemical_formula_sum "Si O2"
_cell_formula_units_Z 16
_cell_length_a 15.692246
_cell_length_b 14.297266
_cell_length_c 9.200194
_cell_angle_alpha 43.106907
_cell_angle_beta 92.183156
_cell_angle_gamma 126.714775
_cell_volume 776.127648
_symmetry_space_group_name_H-M "P -1"
_symmetry_group_IT_number 2
_symmetry_cell_setting 'triclinic'
loop_
_space_group_symop_operation_xyz
x,y,z
-x,-y,-z
loop_
_atom_site_type_symbol
_atom_site_label
_atom_site_fract_x
_atom_site_fract_y
_atom_site_fract_z
Si Si1 0.014208 0.891785 0.827542
Si Si2 0.869838 0.935612 0.923891
Si Si3 0.358791 0.704056 0.330925
Si Si4 0.726642 0.884140 0.241677
Si Si5 0.774557 0.595403 0.896911
Si Si6 0.199840 0.521356 0.248783
Si Si7 0.403724 0.506892 0.767586
Si Si8 0.176742 0.699964 0.269179
O O1 0.129051 0.930376 0.848468
O O2 0.126772 0.156644 0.461873
O O3 0.934965 0.868626 0.982806
O O4 0.884637 0.689528 0.927871
O O5 0.771804 0.837640 0.171969
O O6 0.747240 0.784959 0.954273
O O7 0.020775 0.233999 0.582747
O O8 0.309494 0.591373 0.293675
O O9 0.392504 0.624056 0.527578
O O10 0.219658 0.623674 0.453261
O O11 0.500000 0.000000 0.000000
O O12 0.564386 0.648984 0.579811
O O13 0.727930 0.035588 0.996340
O O14 0.746676 0.441487 0.950978
O O15 0.627193 0.471482 0.100577
O O16 0.210752 0.689998 0.119438
O O17 0.000000 0.500000 0.500000
#
# Coordination Sequence:
#
# PCOD9001578 Si02
#       8
#     2   2   2   2   2   2   2   2
#     4   9  21  36  62  80 120 159 197 242 289 351
#     4  10  21  35  58  93 113 151 198 243 295 344
#     4  10  21  40  60  86 120 153 194 240 303 339
#     4  12  21  36  58  93 122 147 200 251 296 336
#     4   9  20  40  57  83 117 162 197 229 298 358
#     4   9  20  38  65  82 117 156 203 237 284 353
#     4  11  23  36  62  90 124 155 189 243 300 356
#     4  10  21  36  61  86 114 152 197 246 285 340
#
# _framework density 20.615165000000001
#
# number of rings (size 3 to 8) (size 9 to 14) (size 15 to 20)
#    0.750    1.250    2.500    1.500   10.500    0.500 
#    0.000    3.125    2.750    0.000    0.000    0.000 
#    0.000    0.000    0.000    0.000    0.000    0.000 
#
# Total GULP energy -89142.740900 kJ/mol
# GULP energy per Si atom -5571.421306 kJ/mol
# Density = 2.056824 g / cm^3
# Si number density = 20.615165 Si / 1000 Ang^3
#
#
#
# Elastic Constant Matrix: (Units=GPa)
#
#
# Indices 1 2 3 4 5 6 
#
# 1 76.0258 29.0067 25.9958 12.7048 -18.8874 -4.2967
# 2 29.0067 79.0322 37.8050 16.7043 -16.1670 -19.8335
# 3 25.9958 37.8050 70.6336 4.5368 -35.3179 -5.6150
# 4 12.7048 16.7043 4.5368 35.9708 -6.2049 -8.4482
# 5 -18.8874 -16.1670 -35.3179 -6.2049 45.9866 2.2408
# 6 -4.2967 -19.8335 -5.6150 -8.4482 2.2408 26.3230
#
#
#
# Elastic Compliance Matrix: (Units=1/GPa)
#
#
# Indices 1 2 3 4 5 6 
#
# 1 0.016845 -0.004276 -0.002188 -0.003673 0.003356 -0.002404
# 2 -0.004276 0.023325 -0.011346 -0.005462 -0.003641 0.013013
# 3 -0.002188 -0.011346 0.029980 0.004928 0.018927 -0.002540
# 4 -0.003673 -0.005462 0.004928 0.033358 0.004533 0.006656
# 5 0.003356 -0.003641 0.018927 0.004533 0.036984 0.000148
# 6 -0.002404 0.013013 -0.002540 0.006656 0.000148 0.048984
#
#
# Mechanical properties :
#
#
# Convention : Reuss Voigt Hill
#
# Bulk Modulus (GPa) = 28.95902 45.70074 37.32988
# Shear Modulus (GPa) = 21.13217 30.51502 25.82360
#
# Velocity S-wave (km/s) = 3.20516 3.85154 3.54312
# Velocity P-wave (km/s) = 5.27023 6.48041 5.90640
#
# Compressibility (1/GPa) = 0.03453156
#
# Stress axis : x y z
#
# Youngs Moduli (GPa) = 59.36524 42.87205 33.35525
#
# Poissons Ratio (x) = 0.18333 0.07297
# Poissons Ratio (y) = 0.25386 0.37843
# Poissons Ratio (z) = 0.12987 0.48641
#
# Static dielectric constant tensor:
#      x y z
#    x 1.749310 0.014390 -0.012400 
#    y 0.014390 1.777510 -0.022430 
#    z -0.012400 -0.022430 1.806780 
# 
# From -- ./inp_files/334745.got.cif
#   From: 2010.05.17/outbox.cif.g08.bks.cpg/sg2_168_cif.got.tgz:334745.got - 2010.06.03 11:33:40.
