data_PCOD9001270
_publ_section_title
;
Structure prediction by ZEFSAII (Michael W. Deem and Ramdas Pophale) SiO2 
 PCOD9001270
Probable space group: P -1
;
_chemical_formula_sum "Si O2"
_cell_formula_units_Z 16
_cell_length_a 7.945693
_cell_length_b 12.133086
_cell_length_c 12.278814
_cell_angle_alpha 55.168883
_cell_angle_beta 67.881914
_cell_angle_gamma 49.328338
_cell_volume 736.950140
_symmetry_space_group_name_H-M "P -1"
_symmetry_group_IT_number 2
_symmetry_cell_setting 'triclinic'
loop_
_space_group_symop_operation_xyz
x,y,z
-x,-y,-z
loop_
_atom_site_type_symbol
_atom_site_label
_atom_site_fract_x
_atom_site_fract_y
_atom_site_fract_z
Si Si1 0.511929 0.834426 0.069617
Si Si2 0.740808 0.282242 0.455373
Si Si3 0.810702 0.033085 0.111263
Si Si4 0.127413 0.966340 0.256275
Si Si5 0.995941 0.288131 0.193034
Si Si6 0.274736 0.473341 0.516063
Si Si7 0.962975 0.444652 0.894145
Si Si8 0.992368 0.335106 0.722944
O O1 0.338924 0.846670 0.193732
O O2 0.766028 0.680906 0.105531
O O3 0.500000 0.000000 0.000000
O O4 0.415925 0.841340 0.968650
O O5 0.889735 0.127831 0.585247
O O6 0.832895 0.276359 0.318599
O O7 0.500462 0.317299 0.501632
O O8 0.703665 0.440900 0.433641
O O9 0.841572 0.859743 0.208810
O O10 0.900603 0.055883 0.189610
O O11 0.000000 0.000000 0.000000
O O12 0.159718 0.103857 0.214103
O O13 0.094017 0.373730 0.186536
O O14 0.893403 0.400060 0.047090
O O15 0.117697 0.419723 0.619327
O O16 0.176979 0.605821 0.368189
O O17 0.883736 0.401298 0.830328
#
# Coordination Sequence:
#
# PCOD9001270 Si02
#       8
#     2   2   2   2   2   2   2   2
#     4  11  20  37  66  94 116 153 216 253 290 356
#     4  11  22  40  61  89 123 162 208 244 301 370
#     4  10  21  34  59  94 123 151 197 256 303 346
#     4  11  22  40  61  89 124 164 196 252 305 362
#     4  11  24  40  60  88 130 163 199 241 316 369
#     4  10  23  36  65  94 116 156 210 259 295 352
#     4  11  22  39  64  92 119 164 200 254 302 366
#     4  11  19  40  63  93 123 151 204 262 303 345
#
# _framework density 21.711103000000001
#
# number of rings (size 3 to 8) (size 9 to 14) (size 15 to 20)
#    0.000    1.250    5.000    1.875    1.750    0.000 
#    0.000    3.750    0.000    2.250    0.000    0.000 
#    0.000    0.000    0.000    0.000    0.000    0.000 
#
# Total GULP energy -89314.053521 kJ/mol
# GULP energy per Si atom -5582.128345 kJ/mol
# Density = 2.166169 g / cm^3
# Si number density = 21.711103 Si / 1000 Ang^3
#
#
#
# Elastic Constant Matrix: (Units=GPa)
#
#
# Indices 1 2 3 4 5 6 
#
# 1 27.4825 6.0504 9.8377 3.8609 4.7008 1.6108
# 2 6.0504 74.0231 18.3069 1.7693 0.3404 13.0827
# 3 9.8377 18.3069 117.7991 15.4717 0.5487 -4.0801
# 4 3.8609 1.7693 15.4717 36.3361 5.1571 -4.7797
# 5 4.7008 0.3404 0.5487 5.1571 28.2741 -10.3040
# 6 1.6108 13.0827 -4.0801 -4.7797 -10.3040 20.8089
#
#
#
# Elastic Compliance Matrix: (Units=1/GPa)
#
#
# Indices 1 2 3 4 5 6 
#
# 1 0.040123 -0.000951 -0.003093 -0.002691 -0.009113 -0.008245
# 2 -0.000951 0.016728 -0.002890 -0.000579 -0.004811 -0.013525
# 3 -0.003093 -0.002890 0.009797 -0.003486 0.002626 0.004477
# 4 -0.002691 -0.000579 -0.003486 0.030462 -0.003080 0.005361
# 5 -0.009113 -0.004811 0.002626 -0.003080 0.047272 0.026945
# 6 -0.008245 -0.013525 0.004477 0.005361 0.026945 0.072650
#
#
# Mechanical properties :
#
#
# Convention : Reuss Voigt Hill
#
# Bulk Modulus (GPa) = 18.94635 31.96607 25.45621
# Shear Modulus (GPa) = 20.12123 29.42448 24.77285
#
# Velocity S-wave (km/s) = 3.04759 3.68540 3.38157
# Velocity P-wave (km/s) = 4.59666 5.73279 5.19587
#
# Compressibility (1/GPa) = 0.05278061
#
# Stress axis : x y z
#
# Youngs Moduli (GPa) = 24.92314 59.77904 102.07034
#
# Poissons Ratio (x) = 0.05686 0.31567
# Poissons Ratio (y) = 0.02371 0.29501
# Poissons Ratio (z) = 0.07708 0.17278
#
# Static dielectric constant tensor:
#      x y z
#    x 1.860420 -0.000510 0.008350 
#    y -0.000510 1.816470 -0.000580 
#    z 0.008350 -0.000580 1.846220 
# 
# From -- ./inp_files/274717.got.cif
#   From: 2010.05.17/outbox.cif.g08.bks.cpg/sg2_138_cif.got.tgz:274717.got - 2010.06.03 11:33:40.
