data_PCOD9001954
_publ_section_title
;
Structure prediction by ZEFSAII (Michael W. Deem and Ramdas Pophale) SiO2 
 PCOD9001954
Probable space group: P -1
;
_chemical_formula_sum "Si O2"
_cell_formula_units_Z 15
_cell_length_a 19.735044
_cell_length_b 7.845098
_cell_length_c 6.844147
_cell_angle_alpha 122.006377
_cell_angle_beta 128.902243
_cell_angle_gamma 54.734877
_cell_volume 649.502519
_symmetry_space_group_name_H-M "P -1"
_symmetry_group_IT_number 2
_symmetry_cell_setting 'triclinic'
loop_
_space_group_symop_operation_xyz
x,y,z
-x,-y,-z
loop_
_atom_site_type_symbol
_atom_site_label
_atom_site_fract_x
_atom_site_fract_y
_atom_site_fract_z
Si Si1 0.645110 0.426226 0.588756
Si Si2 0.066161 0.608198 0.081921
Si Si3 0.350029 0.514708 0.820945
Si Si4 0.939854 0.330638 0.352226
Si Si5 0.493700 0.236893 0.190578
Si Si6 0.201375 0.317898 0.421950
Si Si7 0.787567 0.150868 0.954381
Si Si8 0.000000 0.000000 0.500000
O O1 0.648042 0.450241 0.380811
O O2 0.590877 0.262150 0.437161
O O3 0.581704 0.653493 0.709460
O O4 0.746399 0.323371 0.810341
O O5 0.168103 0.445585 0.235337
O O6 0.048041 0.828555 0.298650
O O7 0.050986 0.647664 0.846980
O O8 0.000000 0.500000 0.000000
O O9 0.297104 0.348598 0.667085
O O10 0.450432 0.403093 0.034204
O O11 0.287635 0.741176 0.947421
O O12 0.872510 0.550452 0.464635
O O13 0.030025 0.197087 0.558781
O O14 0.887682 0.157553 0.208373
O O15 0.500000 0.000000 0.000000
O O16 0.204028 0.079994 0.246548
#
# Coordination Sequence:
#
# PCOD9001954 Si02
#       8
#     2   2   2   2   2   2   2   1
#     4  10  21  36  56  81 111 147 183 227 277 326
#     4  11  23  38  58  85 113 146 188 231 280 336
#     4  10  21  37  56  82 112 143 185 228 274 331
#     4  10  22  39  58  83 114 146 187 233 278 336
#     4  10  21  36  55  82 112 144 184 226 273 329
#     4  10  22  37  57  84 110 146 189 228 279 334
#     4  10  21  38  57  80 112 146 184 229 275 328
#     4  10  22  38  58  82 110 146 184 228 282 330
#
# _framework density 23.094597
#
# number of rings (size 3 to 8) (size 9 to 14) (size 15 to 20)
#    0.000    1.867    0.000    3.200    0.000    5.867 
#    0.000    0.000    0.000    0.000    0.000    0.000 
#    0.000    0.000    0.000    0.000    0.000    0.000 
#
# Total GULP energy -83635.696030 kJ/mol
# GULP energy per Si atom -5575.713069 kJ/mol
# Density = 2.304203 g / cm^3
# Si number density = 23.094597 Si / 1000 Ang^3
#
#
#
# Elastic Constant Matrix: (Units=GPa)
#
#
# Indices 1 2 3 4 5 6 
#
# 1 51.9130 46.8779 38.1268 5.9890 -14.1992 5.2867
# 2 46.8779 112.9574 50.8176 35.5124 -35.8497 -12.1768
# 3 38.1268 50.8176 120.9209 7.0529 -45.0692 7.5684
# 4 5.9890 35.5124 7.0529 69.7117 9.8016 -5.4278
# 5 -14.1992 -35.8497 -45.0692 9.8016 63.6466 -6.9217
# 6 5.2867 -12.1768 7.5684 -5.4278 -6.9217 22.0484
#
#
#
# Elastic Compliance Matrix: (Units=1/GPa)
#
#
# Indices 1 2 3 4 5 6 
#
# 1 0.045724 -0.025635 -0.007942 0.010015 -0.014051 -0.024341
# 2 -0.025635 0.032515 0.000360 -0.014904 0.017968 0.025952
# 3 -0.007942 0.000360 0.013994 -0.002170 0.008617 -0.000530
# 4 0.010015 -0.014904 -0.002170 0.022352 -0.012027 -0.008161
# 5 -0.014051 0.017968 0.008617 -0.012027 0.032565 0.017597
# 6 -0.024341 0.025952 -0.000530 -0.008161 0.017597 0.069221
#
#
# Mechanical properties :
#
#
# Convention : Reuss Voigt Hill
#
# Bulk Modulus (GPa) = 38.75892 61.93733 50.34813
# Shear Modulus (GPa) = 17.15820 41.07927 29.11874
#
# Velocity S-wave (km/s) = 2.72867 4.22209 3.55469
# Velocity P-wave (km/s) = 5.17172 7.11654 6.22061
#
# Compressibility (1/GPa) = 0.02580051
#
# Stress axis : x y z
#
# Youngs Moduli (GPa) = 21.87014 30.75461 71.45925
#
# Poissons Ratio (x) = 0.78840 0.56750
# Poissons Ratio (y) = 0.56064 -0.02573
# Poissons Ratio (z) = 0.17368 -0.01107
#
# Static dielectric constant tensor:
#      x y z
#    x 1.900590 0.175120 -0.018090 
#    y 0.175120 1.293620 0.478660 
#    z -0.018090 0.478660 1.540000 
# 
# From -- ./inp_files/10345.got.cif
#   From: 2010.05.17/outbox.cif.g08.bks.cpg/sg2_6_cif.got.tgz:10345.got - 2010.06.03 11:33:40.
