data_PCOD9001507
_publ_section_title
;
Structure prediction by ZEFSAII (Michael W. Deem and Ramdas Pophale) SiO2 
 PCOD9001507
Probable space group: P -1
;
_chemical_formula_sum "Si O2"
_cell_formula_units_Z 12
_cell_length_a 9.879668
_cell_length_b 15.012004
_cell_length_c 7.436536
_cell_angle_alpha 27.889331
_cell_angle_beta 82.234351
_cell_angle_gamma 76.779061
_cell_volume 496.772965
_symmetry_space_group_name_H-M "P -1"
_symmetry_group_IT_number 2
_symmetry_cell_setting 'triclinic'
loop_
_space_group_symop_operation_xyz
x,y,z
-x,-y,-z
loop_
_atom_site_type_symbol
_atom_site_label
_atom_site_fract_x
_atom_site_fract_y
_atom_site_fract_z
Si Si1 0.858685 0.547414 0.557041
Si Si2 0.316389 0.646809 0.257125
Si Si3 0.945315 0.025655 0.167345
Si Si4 0.623329 0.415471 0.267432
Si Si5 0.852458 0.660797 0.731726
Si Si6 0.779799 0.168188 0.394060
O O1 0.724887 0.552287 0.445312
O O2 0.835748 0.703446 0.443438
O O3 0.000000 0.500000 0.500000
O O4 0.851131 0.350840 0.019433
O O5 0.418579 0.612440 0.470083
O O6 0.329615 0.786338 0.834677
O O7 0.168388 0.774444 0.138692
O O8 0.866717 0.847168 0.513191
O O9 0.081920 0.005581 0.306994
O O10 0.000000 0.000000 0.000000
O O11 0.703068 0.213163 0.517826
O O12 0.500000 0.500000 0.000000
O O13 0.727945 0.562073 0.990844
O O14 0.000000 0.500000 0.000000
#
# Coordination Sequence:
#
# PCOD9001507 Si02
#       6
#     2   2   2   2   2   2
#     4   9  17  30  52  85 115 138 188 233 279 335
#     4  10  21  35  57  83 116 151 184 237 292 332
#     4  12  19  33  61  87 121 147 183 242 294 330
#     4  11  22  40  61  83 115 156 193 235 282 342
#     4  11  19  36  57  88 114 145 196 237 277 342
#     4   9  21  33  55  87 112 147 192 228 288 334
#
# _framework density 24.155904
#
# number of rings (size 3 to 8) (size 9 to 14) (size 15 to 20)
#    1.000    0.667    5.000    2.500    0.000    0.667 
#    0.000    0.833    0.000    1.000    0.000    0.000 
#    0.000    0.000    0.000    0.000    0.000    0.000 
#
# Total GULP energy -66844.112507 kJ/mol
# GULP energy per Si atom -5570.342709 kJ/mol
# Density = 2.410092 g / cm^3
# Si number density = 24.155904 Si / 1000 Ang^3
#
#
#
# Elastic Constant Matrix: (Units=GPa)
#
#
# Indices 1 2 3 4 5 6 
#
# 1 100.4418 13.8406 27.2874 2.5365 16.2449 15.6816
# 2 13.8406 113.5818 5.1819 32.5415 6.4830 19.8049
# 3 27.2874 5.1819 53.6934 9.3462 8.4115 21.8778
# 4 2.5365 32.5415 9.3462 42.9291 9.3282 5.6237
# 5 16.2449 6.4830 8.4115 9.3282 32.8509 17.8292
# 6 15.6816 19.8049 21.8778 5.6237 17.8292 31.1943
#
#
#
# Elastic Compliance Matrix: (Units=1/GPa)
#
#
# Indices 1 2 3 4 5 6 
#
# 1 0.012752 -0.002542 -0.007274 0.003801 -0.006980 0.003609
# 2 -0.002542 0.014496 0.006988 -0.012172 0.008457 -0.015467
# 3 -0.007274 0.006988 0.033695 -0.011107 0.012912 -0.029789
# 4 0.003801 -0.012172 -0.011107 0.035995 -0.015537 0.015998
# 5 -0.006980 0.008457 0.012912 -0.015537 0.054702 -0.039380
# 6 0.003609 -0.015467 -0.029789 0.015998 -0.039380 0.080579
#
#
# Mechanical properties :
#
#
# Convention : Reuss Voigt Hill
#
# Bulk Modulus (GPa) = 18.08689 40.03742 29.06216
# Shear Modulus (GPa) = 19.50822 36.15532 27.83177
#
# Velocity S-wave (km/s) = 2.84491 3.87298 3.39805
# Velocity P-wave (km/s) = 4.27728 6.05066 5.23955
#
# Compressibility (1/GPa) = 0.05528867
#
# Stress axis : x y z
#
# Youngs Moduli (GPa) = 78.42007 68.98238 29.67804
#
# Poissons Ratio (x) = 0.17534 0.21588
# Poissons Ratio (y) = 0.19933 -0.20740
# Poissons Ratio (z) = 0.57042 -0.48208
#
# Static dielectric constant tensor:
#      x y z
#    x 2.024170 0.081370 0.047720 
#    y 0.081370 2.094660 0.055450 
#    z 0.047720 0.055450 2.034800 
# 
# From -- ./inp_files/195679.got.cif
#   From: 2010.05.17/outbox.cif.g08.bks.cpg/sg2_98_cif.got.tgz:195679.got - 2010.06.03 11:33:40.
