data_PCOD9001730
_publ_section_title
;
Structure prediction by ZEFSAII (Michael W. Deem and Ramdas Pophale) SiO2 
 PCOD9001730
Probable space group: P -1
;
_chemical_formula_sum "Si O2"
_cell_formula_units_Z 14
_cell_length_a 7.703986
_cell_length_b 12.091164
_cell_length_c 12.998277
_cell_angle_alpha 34.589297
_cell_angle_beta 129.845761
_cell_angle_gamma 134.338431
_cell_volume 485.200357
_symmetry_space_group_name_H-M "P -1"
_symmetry_group_IT_number 2
_symmetry_cell_setting 'triclinic'
loop_
_space_group_symop_operation_xyz
x,y,z
-x,-y,-z
loop_
_atom_site_type_symbol
_atom_site_label
_atom_site_fract_x
_atom_site_fract_y
_atom_site_fract_z
Si Si1 0.552439 0.311572 0.463685
Si Si2 0.028145 0.173058 0.483612
Si Si3 0.554578 0.765608 0.143627
Si Si4 0.752530 0.350374 0.079064
Si Si5 0.160931 0.598301 0.304575
Si Si6 0.942111 0.895169 0.947316
Si Si7 0.658515 0.768536 0.755431
O O1 0.281793 0.211923 0.490377
O O2 0.609753 0.561155 0.292243
O O3 0.747856 0.300006 0.627741
O O4 0.544934 0.235642 0.401793
O O5 0.095639 0.350490 0.462265
O O6 0.845479 0.235255 0.291335
O O7 0.899667 0.939611 0.659068
O O8 0.373858 0.696148 0.225281
O O9 0.799128 0.961489 0.116876
O O10 0.421765 0.795602 0.965596
O O11 0.658328 0.533934 0.936729
O O12 0.000000 0.500000 0.000000
O O13 0.943967 0.663481 0.136620
O O14 0.701996 0.864144 0.813650
O O15 0.000000 0.000000 0.000000
#
# Coordination Sequence:
#
# PCOD9001730 Si02
#       7
#     2   2   2   2   2   2   2
#     4  10  21  35  62 100 129 156 212 263 316 385
#     4  11  20  35  65  98 137 161 204 260 329 374
#     4  10  21  38  65  94 133 160 211 263 321 372
#     4  11  19  36  61 103 133 166 203 262 320 382
#     4  11  21  39  65  96 127 162 214 262 319 380
#     4  12  26  44  63  90 129 174 220 262 317 381
#     4  11  22  39  61  89 131 171 208 258 316 380
#
# _framework density 28.854061000000002
#
# number of rings (size 3 to 8) (size 9 to 14) (size 15 to 20)
#    0.000    1.143    5.714    4.286    2.000    0.000 
#    0.000    6.429    0.000    0.000    0.000    0.000 
#    0.000    0.000    0.000    0.000    0.000    0.000 
#
# Total GULP energy -78476.944449 kJ/mol
# GULP energy per Si atom -5605.496032 kJ/mol
# Density = 2.878839 g / cm^3
# Si number density = 28.854061 Si / 1000 Ang^3
#
#
#
# Elastic Constant Matrix: (Units=GPa)
#
#
# Indices 1 2 3 4 5 6 
#
# 1 81.5849 24.7498 29.3554 -0.4723 -14.3701 13.1491
# 2 24.7498 194.7447 71.9023 50.1551 -8.5533 -17.7490
# 3 29.3554 71.9023 130.2641 19.3686 11.8848 9.0734
# 4 -0.4723 50.1551 19.3686 96.6709 5.6333 -9.4068
# 5 -14.3701 -8.5533 11.8848 5.6333 37.9981 -0.2870
# 6 13.1491 -17.7490 9.0734 -9.4068 -0.2870 46.6368
#
#
#
# Elastic Compliance Matrix: (Units=1/GPa)
#
#
# Indices 1 2 3 4 5 6 
#
# 1 0.015567 -0.000904 -0.003410 0.000457 0.006653 -0.003936
# 2 -0.000904 0.008173 -0.004388 -0.003213 0.003374 0.003592
# 3 -0.003410 -0.004388 0.011620 -0.000015 -0.005932 -0.003009
# 4 0.000457 -0.003213 -0.000015 0.012262 -0.002355 0.001110
# 5 0.006653 0.003374 -0.005932 -0.002355 0.031799 0.000283
# 6 -0.003936 0.003592 -0.003009 0.001110 0.000283 0.024730
#
#
# Mechanical properties :
#
#
# Convention : Reuss Voigt Hill
#
# Bulk Modulus (GPa) = 55.68865 73.17874 64.43369
# Shear Modulus (GPa) = 39.20341 54.96689 47.08515
#
# Velocity S-wave (km/s) = 3.69003 4.36936 4.04398
# Velocity P-wave (km/s) = 6.12348 7.13245 6.64714
#
# Compressibility (1/GPa) = 0.01795698
#
# Stress axis : x y z
#
# Youngs Moduli (GPa) = 64.23755 122.35876 86.05688
#
# Poissons Ratio (x) = 0.11058 0.29346
# Poissons Ratio (y) = 0.05805 0.37760
# Poissons Ratio (z) = 0.21906 0.53688
#
# Static dielectric constant tensor:
#      x y z
#    x 2.290500 -0.008030 -0.073020 
#    y -0.008030 2.202410 0.047820 
#    z -0.073020 0.047820 2.218080 
# 
# From -- ./inp_files/259446.got.cif
#   From: 2010.05.17/outbox.cif.g08.bks.cpg/sg2_130_cif.got.tgz:259446.got - 2010.06.03 11:33:40.
