data_PCOD9001842
_publ_section_title
;
Structure prediction by ZEFSAII (Michael W. Deem and Ramdas Pophale) SiO2 
 PCOD9001842
Probable space group: P -1
;
_chemical_formula_sum "Si O2"
_cell_formula_units_Z 16
_cell_length_a 9.420987
_cell_length_b 25.358073
_cell_length_c 22.634373
_cell_angle_alpha 161.595149
_cell_angle_beta 151.260255
_cell_angle_gamma 29.769238
_cell_volume 797.392606
_symmetry_space_group_name_H-M "P -1"
_symmetry_group_IT_number 2
_symmetry_cell_setting 'triclinic'
loop_
_space_group_symop_operation_xyz
x,y,z
-x,-y,-z
loop_
_atom_site_type_symbol
_atom_site_label
_atom_site_fract_x
_atom_site_fract_y
_atom_site_fract_z
Si Si1 0.461644 0.804092 0.969843
Si Si2 0.159588 0.071172 0.926021
Si Si3 0.718157 0.687087 0.509270
Si Si4 0.611619 0.399550 0.586146
Si Si5 0.735414 0.584068 0.638944
Si Si6 0.035110 0.995537 0.928380
Si Si7 0.861622 0.916062 0.542938
Si Si8 0.833931 0.037326 0.418156
O O1 0.585103 0.603973 0.788468
O O2 0.366937 0.922486 0.001853
O O3 0.672823 0.888721 0.178545
O O4 0.151941 0.832225 0.925474
O O5 0.150449 0.272074 0.130575
O O6 0.991841 0.023895 0.873340
O O7 0.021651 0.004566 0.747017
O O8 0.500000 0.000000 0.000000
O O9 0.604025 0.630000 0.469578
O O10 0.878024 0.846304 0.734073
O O11 0.962766 0.543553 0.411955
O O12 0.399660 0.778425 0.460968
O O13 0.460491 0.339792 0.409241
O O14 0.957751 0.285926 0.597091
O O15 0.500000 0.500000 0.500000
O O16 0.500000 0.000000 0.500000
O O17 0.959208 0.948662 0.547154
O O18 0.000000 0.000000 0.500000
#
# Coordination Sequence:
#
# PCOD9001842 Si02
#       8
#     2   2   2   2   2   2   2   2
#     4  10  21  37  67  95 129 163 220 269 332 382
#     4  12  24  41  66  96 136 176 216 267 343 394
#     4  10  22  41  63  97 128 167 217 271 326 382
#     4  11  23  42  65  95 133 171 217 281 328 392
#     4  12  25  38  66 101 138 168 215 278 336 397
#     4  10  21  35  67 100 128 166 208 269 331 398
#     4  11  27  46  66  93 135 177 225 271 335 400
#     4  10  24  45  68  88 126 177 225 270 322 398
#
# _framework density 20.065397999999998
#
# number of rings (size 3 to 8) (size 9 to 14) (size 15 to 20)
#    0.000    1.250    2.500    2.625   10.500    0.000 
#    2.250    1.875    0.000    0.000    0.000    0.000 
#    0.000    0.000    0.000    0.000    0.000    0.000 
#
# Total GULP energy -89101.448133 kJ/mol
# GULP energy per Si atom -5568.840508 kJ/mol
# Density = 2.001973 g / cm^3
# Si number density = 20.065398 Si / 1000 Ang^3
#
#
#
# Elastic Constant Matrix: (Units=GPa)
#
#
# Indices 1 2 3 4 5 6 
#
# 1 100.9854 75.9460 15.7170 -6.7217 -8.8848 1.4302
# 2 75.9460 155.3051 60.2926 -6.2917 -16.0111 -11.5108
# 3 15.7170 60.2926 79.3733 8.1143 -11.7198 -0.6804
# 4 -6.7217 -6.2917 8.1143 31.9182 3.3761 -10.6693
# 5 -8.8848 -16.0111 -11.7198 3.3761 27.3617 -3.6545
# 6 1.4302 -11.5108 -0.6804 -10.6693 -3.6545 44.8948
#
#
#
# Elastic Compliance Matrix: (Units=1/GPa)
#
#
# Indices 1 2 3 4 5 6 
#
# 1 0.016996 -0.010274 0.004671 -0.000830 0.001182 -0.003206
# 2 -0.010274 0.016478 -0.010737 0.005583 0.001801 0.005863
# 3 0.004671 -0.010737 0.021382 -0.008488 0.004879 -0.004198
# 4 -0.000830 0.005583 -0.008488 0.038208 -0.004005 0.010083
# 5 0.001182 0.001801 0.004879 -0.004005 0.040954 0.002880
# 6 -0.003206 0.005863 -0.004198 0.010083 0.002880 0.026447
#
#
# Mechanical properties :
#
#
# Convention : Reuss Voigt Hill
#
# Bulk Modulus (GPa) = 45.09532 71.06387 58.07959
# Shear Modulus (GPa) = 24.93321 33.08215 29.00768
#
# Velocity S-wave (km/s) = 3.52887 4.06484 3.80630
# Velocity P-wave (km/s) = 6.25515 7.58443 6.95164
#
# Compressibility (1/GPa) = 0.02217525
#
# Stress axis : x y z
#
# Youngs Moduli (GPa) = 58.83689 60.68833 46.76912
#
# Poissons Ratio (x) = 0.62351 -0.21844
# Poissons Ratio (y) = 0.60448 0.50215
# Poissons Ratio (z) = -0.27480 0.65159
#
# Static dielectric constant tensor:
#      x y z
#    x 1.831700 -0.050280 0.001420 
#    y -0.050280 1.795910 0.001910 
#    z 0.001420 0.001910 1.913000 
# 
# From -- ./inp_files/592004.got.cif
#   From: 2010.05.17/outbox.cif.g08.bks.cpg/sg2_297_cif.got.tgz:592004.got - 2010.06.03 11:33:40.
