data_PCOD9001617
_publ_section_title
;
Structure prediction by ZEFSAII (Michael W. Deem and Ramdas Pophale) SiO2 
 PCOD9001617
Probable space group: P -1
;
_chemical_formula_sum "Si O2"
_cell_formula_units_Z 16
_cell_length_a 8.738968
_cell_length_b 11.916150
_cell_length_c 20.648837
_cell_angle_alpha 152.176083
_cell_angle_beta 63.929986
_cell_angle_gamma 100.825406
_cell_volume 791.363345
_symmetry_space_group_name_H-M "P -1"
_symmetry_group_IT_number 2
_symmetry_cell_setting 'triclinic'
loop_
_space_group_symop_operation_xyz
x,y,z
-x,-y,-z
loop_
_atom_site_type_symbol
_atom_site_label
_atom_site_fract_x
_atom_site_fract_y
_atom_site_fract_z
Si Si1 0.687403 0.016826 0.387979
Si Si2 0.291664 0.724799 0.047253
Si Si3 0.435825 0.176698 0.037697
Si Si4 0.909493 0.855926 0.988068
Si Si5 0.315051 0.737235 0.298773
Si Si6 0.097340 0.784433 0.235585
Si Si7 0.886605 0.791889 0.101643
Si Si8 0.288019 0.277671 0.639507
O O1 0.738700 0.931421 0.260104
O O2 0.678438 0.796926 0.328402
O O3 0.880065 0.015876 0.378490
O O4 0.477439 0.274313 0.571262
O O5 0.242036 0.822750 0.180024
O O6 0.096606 0.741737 0.062407
O O7 0.373455 0.891023 0.075121
O O8 0.475432 0.421525 0.856760
O O9 0.276728 0.131849 0.005690
O O10 0.338770 0.508878 0.230705
O O11 0.500000 0.000000 0.000000
O O12 0.090560 0.551230 0.806331
O O13 0.850101 0.953138 0.123035
O O14 0.000000 0.000000 0.000000
O O15 0.159445 0.771706 0.291027
O O16 0.724442 0.974268 0.519981
O O17 0.110696 0.494201 0.062811
#
# Coordination Sequence:
#
# PCOD9001617 Si02
#       8
#     2   2   2   2   2   2   2   2
#     4  10  22  34  63  91 129 158 200 258 312 364
#     4   9  20  32  61  93 126 163 204 259 305 364
#     4  10  22  39  58  91 125 164 204 248 310 371
#     4  12  26  42  65  89 123 169 217 257 306 380
#     4  10  21  35  59  91 130 157 198 260 310 363
#     4  11  18  34  60  96 128 158 206 257 310 364
#     4  11  19  39  61  94 126 161 212 253 306 374
#     4  11  23  40  60  97 128 162 204 262 321 361
#
# _framework density 20.218273
#
# number of rings (size 3 to 8) (size 9 to 14) (size 15 to 20)
#    0.750    0.750    2.500    4.125    1.750    3.000 
#    0.000    0.625    0.000    1.500    0.000    7.875 
#    0.000    0.000    0.000    0.000    0.000    0.000 
#
# Total GULP energy -89219.821097 kJ/mol
# GULP energy per Si atom -5576.238819 kJ/mol
# Density = 2.017226 g / cm^3
# Si number density = 20.218273 Si / 1000 Ang^3
#
#
#
# Elastic Constant Matrix: (Units=GPa)
#
#
# Indices 1 2 3 4 5 6 
#
# 1 93.1092 43.0077 34.3538 -5.4164 -15.2133 -15.9816
# 2 43.0077 155.0294 51.1092 -21.6112 -7.6295 -10.8657
# 3 34.3538 51.1092 84.3033 -30.0513 -11.3170 -14.0938
# 4 -5.4164 -21.6112 -30.0513 38.2620 2.1099 -7.5072
# 5 -15.2133 -7.6295 -11.3170 2.1099 23.7835 -1.0616
# 6 -15.9816 -10.8657 -14.0938 -7.5072 -1.0616 34.5290
#
#
#
# Elastic Compliance Matrix: (Units=1/GPa)
#
#
# Indices 1 2 3 4 5 6 
#
# 1 0.015133 -0.002606 -0.003242 -0.001355 0.007636 0.004801
# 2 -0.002606 0.008582 -0.003503 0.001855 -0.000725 0.000446
# 3 -0.003242 -0.003503 0.025275 0.019378 0.007653 0.012162
# 4 -0.001355 0.001855 0.019378 0.045411 0.005720 0.017915
# 5 0.007636 -0.000725 0.007653 0.005720 0.050243 0.009218
# 6 0.004801 0.000446 0.012162 0.017915 0.009218 0.040466
#
#
# Mechanical properties :
#
#
# Convention : Reuss Voigt Hill
#
# Bulk Modulus (GPa) = 33.01623 65.48703 49.25163
# Shear Modulus (GPa) = 23.37461 32.91299 28.14380
#
# Velocity S-wave (km/s) = 3.40386 4.03908 3.73500
# Velocity P-wave (km/s) = 5.64036 7.36292 6.55844
#
# Compressibility (1/GPa) = 0.03028813
#
# Stress axis : x y z
#
# Youngs Moduli (GPa) = 66.08155 116.52059 39.56500
#
# Poissons Ratio (x) = 0.30364 0.12828
# Poissons Ratio (y) = 0.17220 0.13858
# Poissons Ratio (z) = 0.21426 0.40813
#
# Static dielectric constant tensor:
#      x y z
#    x 1.765090 0.010420 -0.012650 
#    y 0.010420 1.757900 -0.038920 
#    z -0.012650 -0.038920 1.757110 
# 
# From -- ./inp_files/607589.got.cif
#   From: 2010.05.17/outbox.cif.g08.bks.cpg/sg2_304_cif.got.tgz:607589.got - 2010.06.03 11:33:40.
