data_PCOD9001429
_publ_section_title
;
Structure prediction by ZEFSAII (Michael W. Deem and Ramdas Pophale) SiO2 
 PCOD9001429
Probable space group: P -1
;
_chemical_formula_sum "Si O2"
_cell_formula_units_Z 16
_cell_length_a 16.468422
_cell_length_b 17.352985
_cell_length_c 6.869369
_cell_angle_alpha 117.881020
_cell_angle_beta 105.317536
_cell_angle_gamma 24.466854
_cell_volume 644.985902
_symmetry_space_group_name_H-M "P -1"
_symmetry_group_IT_number 2
_symmetry_cell_setting 'triclinic'
loop_
_space_group_symop_operation_xyz
x,y,z
-x,-y,-z
loop_
_atom_site_type_symbol
_atom_site_label
_atom_site_fract_x
_atom_site_fract_y
_atom_site_fract_z
Si Si1 0.827391 0.091268 0.563964
Si Si2 0.378042 0.342974 0.463611
Si Si3 0.147170 0.079961 0.888406
Si Si4 0.462371 0.020951 0.224349
Si Si5 0.555539 0.095608 0.636331
Si Si6 0.277956 0.802838 0.924312
Si Si7 0.046182 0.320120 0.384568
Si Si8 0.626041 0.472935 0.456211
O O1 0.605448 0.122795 0.233240
O O2 0.596703 0.321906 0.573709
O O3 0.919401 0.909532 0.333940
O O4 0.000000 0.000000 0.500000
O O5 0.556360 0.013340 0.390235
O O6 0.445664 0.275559 0.654580
O O7 0.201470 0.437380 0.420270
O O8 0.155567 0.995503 0.956093
O O9 0.030764 0.276623 0.127564
O O10 0.728241 0.464752 0.440981
O O11 0.203167 0.252594 0.373933
O O12 0.556309 0.842142 0.172363
O O13 0.500000 0.000000 0.000000
O O14 0.800051 0.881244 0.607250
O O15 0.763282 0.153862 0.822795
O O16 0.529359 0.572822 0.731409
O O17 0.232423 0.747460 0.756088
#
# Coordination Sequence:
#
# PCOD9001429 Si02
#       8
#     2   2   2   2   2   2   2   2
#     4  10  21  35  55  85 114 167 214 271 329 383
#     4  10  21  42  65  94 134 167 217 272 326 392
#     4  10  24  40  59  91 130 174 217 279 327 376
#     4   9  19  41  69  94 135 166 208 271 315 395
#     4   9  21  40  67  95 130 170 204 268 328 378
#     4   9  19  40  58  78 123 164 216 269 329 369
#     4  10  22  41  67  96 129 174 214 267 327 398
#     4   9  21  38  59  87 119 170 218 278 320 387
#
# _framework density 24.806744999999999
#
# number of rings (size 3 to 8) (size 9 to 14) (size 15 to 20)
#    0.750    2.000    0.000    1.125    5.250    2.500 
#    4.500    3.125    0.000    0.000    0.000    0.000 
#    0.000    0.000    0.000    0.000    0.000    0.000 
#
# Total GULP energy -89264.243120 kJ/mol
# GULP energy per Si atom -5579.015195 kJ/mol
# Density = 2.475028 g / cm^3
# Si number density = 24.806745 Si / 1000 Ang^3
#
#
#
# Elastic Constant Matrix: (Units=GPa)
#
#
# Indices 1 2 3 4 5 6 
#
# 1 124.2890 20.8648 35.6579 -11.1889 -20.6010 -1.9545
# 2 20.8648 76.0470 41.5061 -5.5154 -26.4908 -10.9004
# 3 35.6579 41.5061 132.7810 -32.4268 -17.4365 -0.2992
# 4 -11.1889 -5.5154 -32.4268 45.1556 3.2663 -10.3319
# 5 -20.6010 -26.4908 -17.4365 3.2663 43.4350 -7.7737
# 6 -1.9545 -10.9004 -0.2992 -10.3319 -7.7737 43.7055
#
#
#
# Elastic Compliance Matrix: (Units=1/GPa)
#
#
# Indices 1 2 3 4 5 6 
#
# 1 0.009302 0.000018 -0.001720 0.001102 0.003893 0.001362
# 2 0.000018 0.021223 -0.005072 -0.000243 0.012255 0.007381
# 3 -0.001720 -0.005072 0.011367 0.007211 0.000196 0.000475
# 4 0.001102 -0.000243 0.007211 0.029073 0.002396 0.007337
# 5 0.003893 0.012255 0.000196 0.002396 0.034005 0.009847
# 6 0.001362 0.007381 0.000475 0.007337 0.009847 0.028271
#
#
# Mechanical properties :
#
#
# Convention : Reuss Voigt Hill
#
# Bulk Modulus (GPa) = 35.28289 58.79715 47.04002
# Shear Modulus (GPa) = 32.00253 42.13177 37.06715
#
# Velocity S-wave (km/s) = 3.59566 4.12564 3.86973
# Velocity P-wave (km/s) = 5.61180 6.81528 6.24261
#
# Compressibility (1/GPa) = 0.02834235
#
# Stress axis : x y z
#
# Youngs Moduli (GPa) = 107.50162 47.11908 87.97622
#
# Poissons Ratio (x) = -0.00085 0.15135
# Poissons Ratio (y) = -0.00194 0.44625
# Poissons Ratio (z) = 0.18494 0.23900
#
# Static dielectric constant tensor:
#      x y z
#    x 2.045840 0.063440 0.037770 
#    y 0.063440 2.020500 0.030090 
#    z 0.037770 0.030090 2.009720 
# 
# From -- ./inp_files/317829.got.cif
#   From: 2010.05.17/outbox.cif.g08.bks.cpg/sg2_159_cif.got.tgz:317829.got - 2010.06.03 11:33:40.
