data_PCOD9001814
_publ_section_title
;
Structure prediction by ZEFSAII (Michael W. Deem and Ramdas Pophale) SiO2 
 PCOD9001814
Probable space group: P -1
;
_chemical_formula_sum "Si O2"
_cell_formula_units_Z 16
_cell_length_a 14.744711
_cell_length_b 23.074504
_cell_length_c 11.323062
_cell_angle_alpha 45.428604
_cell_angle_beta 29.571921
_cell_angle_gamma 24.884149
_cell_volume 726.070653
_symmetry_space_group_name_H-M "P -1"
_symmetry_group_IT_number 2
_symmetry_cell_setting 'triclinic'
loop_
_space_group_symop_operation_xyz
x,y,z
-x,-y,-z
loop_
_atom_site_type_symbol
_atom_site_label
_atom_site_fract_x
_atom_site_fract_y
_atom_site_fract_z
Si Si1 0.245369 0.985771 0.749962
Si Si2 0.289889 0.397221 0.444024
Si Si3 0.186662 0.696602 0.139210
Si Si4 0.542468 0.827465 0.043874
Si Si5 0.859323 0.818166 0.869971
Si Si6 0.153552 0.311620 0.346034
Si Si7 0.798086 0.758586 0.276080
Si Si8 0.800285 0.175026 0.397184
O O1 0.542629 0.846866 0.701140
O O2 0.430475 0.928403 0.496633
O O3 0.062446 0.135484 0.785701
O O4 0.000000 0.000000 0.000000
O O5 0.224810 0.330486 0.568972
O O6 0.579293 0.283459 0.380850
O O7 0.967640 0.561644 0.633477
O O8 0.455441 0.393246 0.163022
O O9 0.154907 0.638975 0.357925
O O10 0.062641 0.698956 0.155159
O O11 0.398280 0.824033 0.315927
O O12 0.846703 0.767399 0.841736
O O13 0.704941 0.726081 0.890256
O O14 0.188492 0.007786 0.154739
O O15 0.148760 0.776102 0.629240
O O16 0.854753 0.766908 0.067584
O O17 0.500000 0.000000 0.000000
#
# Coordination Sequence:
#
# PCOD9001814 Si02
#       8
#     2   2   2   2   2   2   2   2
#     4  11  24  42  68  96 125 168 215 276 317 379
#     4  12  23  43  65  95 136 173 212 264 328 389
#     4  11  24  45  68  92 131 169 218 269 320 384
#     4  10  22  42  62  94 128 162 221 266 312 380
#     4  10  21  35  64  96 119 165 214 267 317 372
#     4  11  26  42  64  98 134 172 214 267 324 387
#     4  11  22  40  67  94 130 168 216 265 324 381
#     4  10  21  39  66  92 123 170 212 266 323 373
#
# _framework density 22.036422000000002
#
# number of rings (size 3 to 8) (size 9 to 14) (size 15 to 20)
#    0.000    1.250    3.750    2.625    5.250    2.500 
#    2.250    0.625    0.000    0.000    0.000    0.000 
#    0.000    0.000    0.000    0.000    0.000    0.000 
#
# Total GULP energy -89404.321450 kJ/mol
# GULP energy per Si atom -5587.770091 kJ/mol
# Density = 2.198627 g / cm^3
# Si number density = 22.036422 Si / 1000 Ang^3
#
#
#
# Elastic Constant Matrix: (Units=GPa)
#
#
# Indices 1 2 3 4 5 6 
#
# 1 78.3431 37.8351 5.4055 8.1512 -13.6779 16.3457
# 2 37.8351 97.8602 25.2492 8.6547 -0.5851 31.5414
# 3 5.4055 25.2492 33.8383 3.9227 -0.2990 9.5750
# 4 8.1512 8.6547 3.9227 30.7111 15.3910 3.9285
# 5 -13.6779 -0.5851 -0.2990 15.3910 37.1602 -2.5092
# 6 16.3457 31.5414 9.5750 3.9285 -2.5092 42.5540
#
#
#
# Elastic Compliance Matrix: (Units=1/GPa)
#
#
# Indices 1 2 3 4 5 6 
#
# 1 0.018851 -0.006926 0.003666 -0.008464 0.010260 -0.001546
# 2 -0.006926 0.018288 -0.010144 0.000744 -0.003250 -0.008873
# 3 0.003666 -0.010144 0.037556 -0.004258 0.003136 -0.001762
# 4 -0.008464 0.000744 -0.004258 0.046738 -0.022630 -0.001991
# 5 0.010260 -0.003250 0.003136 -0.022630 0.040184 0.002221
# 6 -0.001546 -0.008873 -0.001762 -0.001991 0.002221 0.031381
#
#
# Mechanical properties :
#
#
# Convention : Reuss Voigt Hill
#
# Bulk Modulus (GPa) = 20.88272 38.55792 29.72032
# Shear Modulus (GPa) = 21.20723 31.52185 26.36454
#
# Velocity S-wave (km/s) = 3.10558 3.78622 3.46266
# Velocity P-wave (km/s) = 4.72827 6.05387 5.43166
#
# Compressibility (1/GPa) = 0.04788649
#
# Stress axis : x y z
#
# Youngs Moduli (GPa) = 53.04852 54.67979 26.62707
#
# Poissons Ratio (x) = 0.37870 -0.09761
# Poissons Ratio (y) = 0.36740 0.27011
# Poissons Ratio (z) = -0.19447 0.55468
#
# Static dielectric constant tensor:
#      x y z
#    x 1.797120 0.002960 -0.037570 
#    y 0.002960 1.829610 -0.007680 
#    z -0.037570 -0.007680 1.843540 
# 
# From -- ./inp_files/457687.got.cif
#   From: 2010.05.17/outbox.cif.g08.bks.cpg/sg2_229_cif.got.tgz:457687.got - 2010.06.03 11:33:40.
