data_PCOD9001804
_publ_section_title
;
Structure prediction by ZEFSAII (Michael W. Deem and Ramdas Pophale) SiO2 
 PCOD9001804
Probable space group: P -1
;
_chemical_formula_sum "Si O2"
_cell_formula_units_Z 16
_cell_length_a 8.763463
_cell_length_b 20.658319
_cell_length_c 7.181619
_cell_angle_alpha 37.487825
_cell_angle_beta 71.615108
_cell_angle_gamma 60.934781
_cell_volume 685.587770
_symmetry_space_group_name_H-M "P -1"
_symmetry_group_IT_number 2
_symmetry_cell_setting 'triclinic'
loop_
_space_group_symop_operation_xyz
x,y,z
-x,-y,-z
loop_
_atom_site_type_symbol
_atom_site_label
_atom_site_fract_x
_atom_site_fract_y
_atom_site_fract_z
Si Si1 0.775604 0.349065 0.803451
Si Si2 0.473592 0.402160 0.504626
Si Si3 0.304091 0.303898 0.075079
Si Si4 0.032485 0.097855 0.388752
Si Si5 0.666726 0.892296 0.002337
Si Si6 0.985792 0.527673 0.661428
Si Si7 0.613918 0.662802 0.658504
Si Si8 0.720445 0.937470 0.295056
O O1 0.647657 0.359575 0.656740
O O2 0.656361 0.463270 0.712280
O O3 0.932251 0.376822 0.584831
O O4 0.863415 0.223382 0.157908
O O5 0.517670 0.364308 0.361756
O O6 0.368021 0.328698 0.796336
O O7 0.428997 0.323308 0.139456
O O8 0.284757 0.185206 0.370190
O O9 0.119470 0.405724 0.968914
O O10 0.122453 0.054674 0.657690
O O11 0.184249 0.122454 0.168073
O O12 0.000000 0.000000 0.500000
O O13 0.640555 0.778872 0.335286
O O14 0.722960 0.941590 0.057338
O O15 0.478566 0.970180 0.805206
O O16 0.000000 0.500000 0.500000
O O17 0.800047 0.563659 0.747843
#
# Coordination Sequence:
#
# PCOD9001804 Si02
#       8
#     2   2   2   2   2   2   2   2
#     4  10  22  40  58  87 123 157 189 240 305 338
#     4  10  22  40  60  82 127 155 185 245 293 356
#     4  10  21  35  64  89 111 151 201 238 294 353
#     4  12  25  39  63  90 117 161 201 240 297 355
#     4  10  23  42  62  88 119 155 200 250 294 342
#     4  11  18  37  62  85 117 151 187 248 293 345
#     4  11  20  36  65  87 111 153 198 240 294 352
#     4  10  23  42  62  88 120 153 201 251 291 346
#
# _framework density 23.33764
#
# number of rings (size 3 to 8) (size 9 to 14) (size 15 to 20)
#    0.000    1.500    3.750    2.250    3.500    0.500 
#    0.000    6.875    0.000    0.000    0.000    0.000 
#    0.000    0.000    0.000    0.000    0.000    0.000 
#
# Total GULP energy -89286.858053 kJ/mol
# GULP energy per Si atom -5580.428628 kJ/mol
# Density = 2.328452 g / cm^3
# Si number density = 23.337640 Si / 1000 Ang^3
#
#
#
# Elastic Constant Matrix: (Units=GPa)
#
#
# Indices 1 2 3 4 5 6 
#
# 1 105.0687 32.5877 23.0455 -5.5257 31.2235 30.4198
# 2 32.5877 76.5842 19.7069 15.6068 26.7923 40.5510
# 3 23.0455 19.7069 90.0981 -10.5131 20.4077 21.1671
# 4 -5.5257 15.6068 -10.5131 36.5823 -1.1549 14.2891
# 5 31.2235 26.7923 20.4077 -1.1549 38.3365 12.5579
# 6 30.4198 40.5510 21.1671 14.2891 12.5579 73.0546
#
#
#
# Elastic Compliance Matrix: (Units=1/GPa)
#
#
# Indices 1 2 3 4 5 6 
#
# 1 0.014098 -0.001422 0.000301 0.004273 -0.009063 -0.004446
# 2 -0.001422 0.024934 -0.000908 -0.007931 -0.013010 -0.009197
# 3 0.000301 -0.000908 0.014092 0.005814 -0.005671 -0.003867
# 4 0.004273 -0.007931 0.005814 0.035599 0.002134 -0.006391
# 5 -0.009063 -0.013010 -0.005671 0.002134 0.044123 0.004637
# 6 -0.004446 -0.009197 -0.003867 -0.006391 0.004637 0.022218
#
#
# Mechanical properties :
#
#
# Convention : Reuss Voigt Hill
#
# Bulk Modulus (GPa) = 20.38079 46.93680 33.65880
# Shear Modulus (GPa) = 28.49358 42.68875 35.59117
#
# Velocity S-wave (km/s) = 3.49797 4.28153 3.90943
# Velocity P-wave (km/s) = 5.00663 6.67815 5.90187
#
# Compressibility (1/GPa) = 0.04906581
#
# Stress axis : x y z
#
# Youngs Moduli (GPa) = 70.93190 40.10577 70.96312
#
# Poissons Ratio (x) = 0.05705 -0.02137
# Poissons Ratio (y) = 0.10089 0.06442
# Poissons Ratio (z) = -0.02136 0.03641
#
# Static dielectric constant tensor:
#      x y z
#    x 2.008430 0.094430 0.091540 
#    y 0.094430 1.932760 0.035930 
#    z 0.091540 0.035930 1.923490 
# 
# From -- ./inp_files/225840.got.cif
#   From: 2010.05.17/outbox.cif.g08.bks.cpg/sg2_113_cif.got.tgz:225840.got - 2010.06.03 11:33:40.
