data_PCOD9001041
_publ_section_title
;
Structure prediction by ZEFSAII (Michael W. Deem and Ramdas Pophale) SiO2 
 PCOD9001041
Probable space group: P -1
;
_chemical_formula_sum "Si O2"
_cell_formula_units_Z 16
_cell_length_a 17.447772
_cell_length_b 11.517923
_cell_length_c 12.945160
_cell_angle_alpha 146.575971
_cell_angle_beta 144.973378
_cell_angle_gamma 33.844142
_cell_volume 728.018619
_symmetry_space_group_name_H-M "P -1"
_symmetry_group_IT_number 2
_symmetry_cell_setting 'triclinic'
loop_
_space_group_symop_operation_xyz
x,y,z
-x,-y,-z
loop_
_atom_site_type_symbol
_atom_site_label
_atom_site_fract_x
_atom_site_fract_y
_atom_site_fract_z
Si Si1 0.157857 0.410804 0.545833
Si Si2 0.040253 0.471159 0.772817
Si Si3 0.677802 0.128025 0.610067
Si Si4 0.393864 0.509576 0.483842
Si Si5 0.424374 0.910997 0.941291
Si Si6 0.697420 0.528011 0.069424
Si Si7 0.890301 0.211929 0.755998
Si Si8 0.096304 0.233113 0.861284
O O1 0.247709 0.526342 0.792393
O O2 0.000000 0.500000 0.500000
O O3 0.105411 0.463079 0.408760
O O4 0.262854 0.129972 0.468100
O O5 0.182331 0.409536 0.809993
O O6 0.065244 0.267800 0.730937
O O7 0.275654 0.120091 0.980719
O O8 0.503613 0.262743 0.479584
O O9 0.796217 0.099535 0.626887
O O10 0.693232 0.309091 0.843013
O O11 0.500000 0.500000 0.500000
O O12 0.377180 0.725401 0.698417
O O13 0.235628 0.592748 0.314074
O O14 0.542571 0.760976 0.048240
O O15 0.500000 0.000000 0.000000
O O16 0.033058 0.080349 0.741036
O O17 0.953018 0.319416 0.995590
O O18 0.000000 0.500000 0.000000
#
# Coordination Sequence:
#
# PCOD9001041 Si02
#       8
#     2   2   2   2   2   2   2   2
#     4  10  21  33  56  85 112 154 199 240 291 337
#     4   9  18  34  51  84 115 150 196 232 281 352
#     4   9  19  36  56  85 117 146 196 247 285 352
#     4   9  20  33  56  87 113 147 189 241 303 340
#     4  11  21  34  59  85 117 152 197 246 286 355
#     4   9  19  34  55  83 112 145 196 246 291 330
#     4   9  19  34  56  82 117 153 181 233 306 345
#     4  10  21  35  57  85 123 155 185 238 301 355
#
# _framework density 21.977457999999999
#
# number of rings (size 3 to 8) (size 9 to 14) (size 15 to 20)
#    0.000    2.500    1.250    0.750    7.000    5.000 
#    0.000    0.000    0.000    6.750    0.000   15.750 
#    0.000    0.000    0.000    0.000    0.000    0.000 
#
# Total GULP energy -89145.924665 kJ/mol
# GULP energy per Si atom -5571.620292 kJ/mol
# Density = 2.192744 g / cm^3
# Si number density = 21.977458 Si / 1000 Ang^3
#
#
#
# Elastic Constant Matrix: (Units=GPa)
#
#
# Indices 1 2 3 4 5 6 
#
# 1 43.0041 14.3669 15.2900 -17.3636 5.6021 -11.3813
# 2 14.3669 99.0898 29.8339 -24.3680 -14.4760 -7.7039
# 3 15.2900 29.8339 77.5048 -18.4435 -19.0476 2.3927
# 4 -17.3636 -24.3680 -18.4435 45.9605 4.8575 -10.6797
# 5 5.6021 -14.4760 -19.0476 4.8575 19.3314 -9.5508
# 6 -11.3813 -7.7039 2.3927 -10.6797 -9.5508 30.3289
#
#
#
# Elastic Compliance Matrix: (Units=1/GPa)
#
#
# Indices 1 2 3 4 5 6 
#
# 1 0.039444 -0.000067 -0.007988 0.017149 -0.015468 0.016583
# 2 -0.000067 0.015609 -0.000549 0.009233 0.014709 0.011866
# 3 -0.007988 -0.000549 0.021329 0.003649 0.023989 0.004019
# 4 0.017149 0.009233 0.003649 0.039548 0.007908 0.024909
# 5 -0.015468 0.014709 0.023989 0.007908 0.104563 0.031752
# 6 0.016583 0.011866 0.004019 0.024909 0.031752 0.060662
#
#
# Mechanical properties :
#
#
# Convention : Reuss Voigt Hill
#
# Bulk Modulus (GPa) = 16.89968 37.62004 27.25986
# Shear Modulus (GPa) = 15.71891 29.79803 22.75847
#
# Velocity S-wave (km/s) = 2.67728 3.68617 3.22147
# Velocity P-wave (km/s) = 4.15492 5.93901 5.12519
#
# Compressibility (1/GPa) = 0.05917272
#
# Stress axis : x y z
#
# Youngs Moduli (GPa) = 25.35252 64.06606 46.88359
#
# Poissons Ratio (x) = 0.00430 0.37451
# Poissons Ratio (y) = 0.00170 0.02576
# Poissons Ratio (z) = 0.20252 0.03520
#
# Static dielectric constant tensor:
#      x y z
#    x 1.848680 0.001160 0.004290 
#    y 0.001160 1.817350 0.010570 
#    z 0.004290 0.010570 1.835720 
# 
# From -- ./inp_files/541180.got.cif
#   From: 2010.05.17/outbox.cif.g08.bks.cpg/sg2_271_cif.got.tgz:541180.got - 2010.06.03 11:33:40.
