data_PCOD9001833
_publ_section_title
;
Structure prediction by ZEFSAII (Michael W. Deem and Ramdas Pophale) SiO2 
 PCOD9001833
Probable space group: P -1
;
_chemical_formula_sum "Si O2"
_cell_formula_units_Z 16
_cell_length_a 8.926591
_cell_length_b 16.988442
_cell_length_c 9.125083
_cell_angle_alpha 46.933833
_cell_angle_beta 130.753658
_cell_angle_gamma 114.160957
_cell_volume 764.163882
_symmetry_space_group_name_H-M "P -1"
_symmetry_group_IT_number 2
_symmetry_cell_setting 'triclinic'
loop_
_space_group_symop_operation_xyz
x,y,z
-x,-y,-z
loop_
_atom_site_type_symbol
_atom_site_label
_atom_site_fract_x
_atom_site_fract_y
_atom_site_fract_z
Si Si1 0.227481 0.382605 0.618454
Si Si2 0.340558 0.870036 0.189289
Si Si3 0.621190 0.236923 0.961939
Si Si4 0.104452 0.063993 0.859195
Si Si5 0.485521 0.574158 0.036067
Si Si6 0.506779 0.035818 0.288513
Si Si7 0.194270 0.548674 0.133097
Si Si8 0.839789 0.256992 0.497865
O O1 0.225978 0.487840 0.383155
O O2 0.012430 0.337300 0.532228
O O3 0.413194 0.304764 0.777827
O O4 0.296022 0.404553 0.798456
O O5 0.505257 0.930443 0.314029
O O6 0.233307 0.796269 0.331362
O O7 0.395871 0.804038 0.164147
O O8 0.190778 0.973476 0.917318
O O9 0.650014 0.127341 0.216582
O O10 0.787948 0.323228 0.987177
O O11 0.955682 0.162506 0.598012
O O12 0.296999 0.096728 0.029111
O O13 0.000000 0.000000 0.000000
O O14 0.349635 0.682152 0.774707
O O15 0.500000 0.500000 0.000000
O O16 0.369683 0.521030 0.163074
O O17 0.500000 0.000000 0.500000
O O18 0.000000 0.500000 0.000000
#
# Coordination Sequence:
#
# PCOD9001833 Si02
#       8
#     2   2   2   2   2   2   2   2
#     4  11  24  43  68  93 134 179 224 273 343 404
#     4   9  22  37  67  97 134 175 219 275 331 398
#     4  11  22  40  67  96 134 176 221 272 345 387
#     4   8  18  37  60  89 129 172 212 262 332 387
#     4  11  26  41  65  99 130 172 232 280 338 401
#     4  10  21  35  65  96 130 170 224 271 322 404
#     4  11  25  45  67  94 134 178 224 280 338 406
#     4  11  21  40  70  93 133 178 218 274 339 396
#
# _framework density 20.937918
#
# number of rings (size 3 to 8) (size 9 to 14) (size 15 to 20)
#    0.750    1.000    2.500    1.875    7.000    1.500 
#    0.000    0.000    5.500    9.000    0.000    0.000 
#    0.000    0.000    0.000    0.000    0.000    0.000 
#
# Total GULP energy -89087.869531 kJ/mol
# GULP energy per Si atom -5567.991846 kJ/mol
# Density = 2.089026 g / cm^3
# Si number density = 20.937918 Si / 1000 Ang^3
#
#
#
# Elastic Constant Matrix: (Units=GPa)
#
#
# Indices 1 2 3 4 5 6 
#
# 1 38.5732 50.1678 19.4192 1.6907 -21.4782 11.9114
# 2 50.1678 150.8334 43.9163 5.7534 -27.4659 6.6987
# 3 19.4192 43.9163 101.0174 1.3191 -16.8560 8.5182
# 4 1.6907 5.7534 1.3191 31.7308 5.3647 -6.6354
# 5 -21.4782 -27.4659 -16.8560 5.3647 23.1274 -1.4133
# 6 11.9114 6.6987 8.5182 -6.6354 -1.4133 46.5106
#
#
#
# Elastic Compliance Matrix: (Units=1/GPa)
#
#
# Indices 1 2 3 4 5 6 
#
# 1 0.097237 -0.018055 0.003881 -0.019639 0.074807 -0.023542
# 2 -0.018055 0.012671 -0.002924 0.000084 -0.003673 0.003235
# 3 0.003881 -0.002924 0.012276 -0.002387 0.009456 -0.002874
# 4 -0.019639 0.000084 -0.002387 0.039595 -0.028438 0.010239
# 5 0.074807 -0.003673 0.009456 -0.028438 0.120570 -0.020754
# 6 -0.023542 0.003235 -0.002874 0.010239 -0.020754 0.028420
#
#
# Mechanical properties :
#
#
# Convention : Reuss Voigt Hill
#
# Bulk Modulus (GPa) = 11.36534 57.49229 34.42881
# Shear Modulus (GPa) = 13.35846 32.06846 22.71346
#
# Velocity S-wave (km/s) = 2.52861 3.91781 3.29720
# Velocity P-wave (km/s) = 3.73699 6.92703 5.56546
#
# Compressibility (1/GPa) = 0.08798682
#
# Stress axis : x y z
#
# Youngs Moduli (GPa) = 10.28413 78.92184 81.45957
#
# Poissons Ratio (x) = 1.42492 -0.31612
# Poissons Ratio (y) = 0.18568 0.23822
# Poissons Ratio (z) = -0.03991 0.23080
#
# Static dielectric constant tensor:
#      x y z
#    x 2.849480 1.859980 0.170580 
#    y 1.859980 4.849980 0.261300 
#    z 0.170580 0.261300 1.786170 
# 
# From -- ./inp_files/216852.got.cif
#   From: 2010.05.17/outbox.cif.g08.bks.cpg/sg2_109_cif.got.tgz:216852.got - 2010.06.03 11:33:40.
