data_PCOD9001215
_publ_section_title
;
Structure prediction by ZEFSAII (Michael W. Deem and Ramdas Pophale) SiO2 
 PCOD9001215
Probable space group: P -1
;
_chemical_formula_sum "Si O2"
_cell_formula_units_Z 16
_cell_length_a 25.551987
_cell_length_b 16.542983
_cell_length_c 11.052651
_cell_angle_alpha 39.867320
_cell_angle_beta 148.165590
_cell_angle_gamma 160.760200
_cell_volume 795.806596
_symmetry_space_group_name_H-M "P -1"
_symmetry_group_IT_number 2
_symmetry_cell_setting 'triclinic'
loop_
_space_group_symop_operation_xyz
x,y,z
-x,-y,-z
loop_
_atom_site_type_symbol
_atom_site_label
_atom_site_fract_x
_atom_site_fract_y
_atom_site_fract_z
Si Si1 0.866263 0.618648 0.388313
Si Si2 0.706729 0.884599 0.748466
Si Si3 0.391827 0.484508 0.390936
Si Si4 0.446438 0.546625 0.966390
Si Si5 0.518313 0.841677 0.608104
Si Si6 0.126688 0.071257 0.557845
Si Si7 0.213364 0.696227 0.242048
Si Si8 0.058480 0.209132 0.908608
O O1 0.670907 0.489849 0.131980
O O2 0.814000 0.423751 0.556839
O O3 0.975183 0.746852 0.328167
O O4 0.989667 0.821348 0.504856
O O5 0.560812 0.723730 0.532825
O O6 0.662511 0.960878 0.648579
O O7 0.659499 0.704003 0.938494
O O8 0.922208 0.107602 0.864552
O O9 0.500000 0.500000 0.500000
O O10 0.225741 0.257421 0.425103
O O11 0.277936 0.448764 0.116137
O O12 0.422386 0.602692 0.733395
O O13 0.677169 0.777948 0.175041
O O14 0.346478 0.754190 0.349221
O O15 0.649726 0.038735 0.750306
O O16 0.000000 0.000000 0.500000
O O17 0.000000 0.500000 0.000000
O O18 0.000000 0.000000 0.000000
#
# Coordination Sequence:
#
# PCOD9001215 Si02
#       8
#     2   2   2   2   2   2   2   2
#     4  11  22  39  62  87 120 166 204 241 311 366
#     4  11  22  35  60  92 127 157 197 252 305 373
#     4  11  21  36  54  82 130 171 194 233 303 376
#     4  10  21  34  57  87 129 154 184 248 315 371
#     4  10  23  39  60  89 117 160 208 252 310 360
#     4  11  23  31  53  93 126 153 198 247 304 373
#     4  10  23  44  64  82 118 163 211 260 302 356
#     4  12  20  37  59  88 127 165 198 238 301 385
#
# _framework density 20.105387
#
# number of rings (size 3 to 8) (size 9 to 14) (size 15 to 20)
#    0.000    1.250    3.750    1.875   10.500    1.000 
#    0.000    0.625    0.000    1.500    0.000    0.000 
#    0.000    0.000    0.000    0.000    0.000    0.000 
#
# Total GULP energy -89186.687490 kJ/mol
# GULP energy per Si atom -5574.167968 kJ/mol
# Density = 2.005963 g / cm^3
# Si number density = 20.105387 Si / 1000 Ang^3
#
#
#
# Elastic Constant Matrix: (Units=GPa)
#
#
# Indices 1 2 3 4 5 6 
#
# 1 124.6975 18.3581 45.8352 2.6931 25.3240 18.7572
# 2 18.3581 51.1694 25.5505 4.2846 8.2826 13.8471
# 3 45.8352 25.5505 92.2555 17.2730 23.4748 1.9212
# 4 2.6931 4.2846 17.2730 36.2725 8.4125 2.8179
# 5 25.3240 8.2826 23.4748 8.4125 30.3510 10.4238
# 6 18.7572 13.8471 1.9212 2.8179 10.4238 22.1604
#
#
#
# Elastic Compliance Matrix: (Units=1/GPa)
#
#
# Indices 1 2 3 4 5 6 
#
# 1 0.012028 0.001446 -0.005884 0.003295 -0.003599 -0.009301
# 2 0.001446 0.028635 -0.009883 0.001597 0.005392 -0.021000
# 3 -0.005884 -0.009883 0.020399 -0.006609 -0.011750 0.015755
# 4 0.003295 0.001597 -0.006609 0.031876 -0.005263 -0.004792
# 5 -0.003599 0.005392 -0.011750 -0.005263 0.053142 -0.023632
# 6 -0.009301 -0.021000 0.015755 -0.004792 -0.023632 0.076479
#
#
# Mechanical properties :
#
#
# Convention : Reuss Voigt Hill
#
# Bulk Modulus (GPa) = 30.84449 49.73443 40.28946
# Shear Modulus (GPa) = 19.08341 29.64869 24.36605
#
# Velocity S-wave (km/s) = 3.08420 3.84430 3.48504
# Velocity P-wave (km/s) = 5.29696 6.67049 6.02301
#
# Compressibility (1/GPa) = 0.03242070
#
# Stress axis : x y z
#
# Youngs Moduli (GPa) = 83.13984 34.92210 49.02198
#
# Poissons Ratio (x) = -0.05050 0.28844
# Poissons Ratio (y) = -0.12024 0.48448
# Poissons Ratio (z) = 0.48919 0.34513
#
# Static dielectric constant tensor:
#      x y z
#    x 1.746190 0.036730 -0.010370 
#    y 0.036730 1.747250 0.001960 
#    z -0.010370 0.001960 1.732030 
# 
# From -- ./inp_files/477009.got.cif
#   From: 2010.05.17/outbox.cif.g08.bks.cpg/sg2_239_cif.got.tgz:477009.got - 2010.06.03 11:33:40.
