data_PCOD9001561
_publ_section_title
;
Structure prediction by ZEFSAII (Michael W. Deem and Ramdas Pophale) SiO2 
 PCOD9001561
Probable space group: P -1
;
_chemical_formula_sum "Si O2"
_cell_formula_units_Z 16
_cell_length_a 14.886131
_cell_length_b 9.470794
_cell_length_c 8.668817
_cell_angle_alpha 52.106019
_cell_angle_beta 39.246569
_cell_angle_gamma 67.237932
_cell_volume 600.459523
_symmetry_space_group_name_H-M "P -1"
_symmetry_group_IT_number 2
_symmetry_cell_setting 'triclinic'
loop_
_space_group_symop_operation_xyz
x,y,z
-x,-y,-z
loop_
_atom_site_type_symbol
_atom_site_label
_atom_site_fract_x
_atom_site_fract_y
_atom_site_fract_z
Si Si1 0.615337 0.793412 0.964008
Si Si2 0.933764 0.038584 0.834632
Si Si3 0.666343 0.364562 0.976068
Si Si4 0.814806 0.390154 0.265679
Si Si5 0.735396 0.087503 0.828026
Si Si6 0.390798 0.463006 0.371763
Si Si7 0.212077 0.932045 0.672458
Si Si8 0.874093 0.588415 0.776650
O O1 0.682931 0.897679 0.652007
O O2 0.729492 0.670089 0.950670
O O3 0.618601 0.948282 0.983389
O O4 0.472856 0.658414 0.197566
O O5 0.850126 0.981518 0.826619
O O6 0.055765 0.927570 0.800699
O O7 0.017106 0.242759 0.550614
O O8 0.823648 0.039417 0.122387
O O9 0.674528 0.189316 0.981287
O O10 0.654063 0.516607 0.759113
O O11 0.809462 0.442517 0.829565
O O12 0.516473 0.343473 0.284964
O O13 0.814581 0.243160 0.501967
O O14 0.748394 0.551934 0.326851
O O15 0.733276 0.248423 0.338077
O O16 0.929042 0.498825 0.917634
#
# Coordination Sequence:
#
# PCOD9001561 Si02
#       8
#     2   2   2   2   2   2   2   2
#     4   9  20  38  60  85 117 155 192 233 290 344
#     4  10  21  40  60  80 121 156 186 243 292 330
#     4   9  19  35  59  85 112 150 195 232 282 342
#     4  10  21  35  58  88 117 149 196 235 281 349
#     4  10  21  37  59  88 117 151 195 236 281 349
#     4   9  19  39  60  82 121 154 183 243 292 330
#     4   9  20  37  59  86 112 152 197 235 285 346
#     4  10  21  38  59  85 117 156 194 233 287 346
#
# _framework density 26.646260999999999
#
# number of rings (size 3 to 8) (size 9 to 14) (size 15 to 20)
#    0.000    2.500    0.000    0.750    0.000   13.500 
#    0.000   16.250    0.000    9.750    0.000    0.000 
#    0.000    0.000    0.000    0.000    0.000    0.000 
#
# Total GULP energy -89357.987401 kJ/mol
# GULP energy per Si atom -5584.874213 kJ/mol
# Density = 2.658561 g / cm^3
# Si number density = 26.646261 Si / 1000 Ang^3
#
#
#
# Elastic Constant Matrix: (Units=GPa)
#
#
# Indices 1 2 3 4 5 6 
#
# 1 121.1958 10.9738 42.1727 4.9492 13.7071 14.3271
# 2 10.9738 131.7130 18.6806 13.6192 -1.4343 18.0611
# 3 42.1727 18.6806 50.4378 8.8228 24.3892 9.4183
# 4 4.9492 13.6192 8.8228 37.4201 5.3648 2.0364
# 5 13.7071 -1.4343 24.3892 5.3648 37.4964 -8.2441
# 6 14.3271 18.0611 9.4183 2.0364 -8.2441 29.6628
#
#
#
# Elastic Compliance Matrix: (Units=1/GPa)
#
#
# Indices 1 2 3 4 5 6 
#
# 1 0.012045 0.000856 -0.011236 0.000518 0.002393 -0.002142
# 2 0.000856 0.008876 -0.003814 -0.002523 0.002017 -0.003873
# 3 -0.011236 -0.003814 0.049439 -0.003399 -0.031319 -0.016419
# 4 0.000518 -0.002523 -0.003399 0.028707 -0.002232 -0.000226
# 5 0.002393 0.002017 -0.031319 -0.002232 0.051399 0.021999
# 6 -0.002142 -0.003873 -0.016419 -0.000226 0.021999 0.048448
#
#
# Mechanical properties :
#
#
# Convention : Reuss Voigt Hill
#
# Bulk Modulus (GPa) = 23.82524 49.66673 36.74599
# Shear Modulus (GPa) = 20.72184 36.35049 28.53616
#
# Velocity S-wave (km/s) = 2.79169 3.69750 3.27605
# Velocity P-wave (km/s) = 4.39910 6.07523 5.30380
#
# Compressibility (1/GPa) = 0.04197229
#
# Stress axis : x y z
#
# Youngs Moduli (GPa) = 83.02347 112.66636 20.22706
#
# Poissons Ratio (x) = -0.09647 0.22727
# Poissons Ratio (y) = -0.07109 0.07714
# Poissons Ratio (z) = 0.93285 0.42969
#
# Static dielectric constant tensor:
#      x y z
#    x 2.143430 -0.091620 -0.027570 
#    y -0.091620 2.131160 0.042520 
#    z -0.027570 0.042520 2.098800 
# 
# From -- ./inp_files/328537.got.cif
#   From: 2010.05.17/outbox.cif.g08.bks.cpg/sg2_165_cif.got.tgz:328537.got - 2010.06.03 11:33:40.
