data_PCOD9001390
_publ_section_title
;
Structure prediction by ZEFSAII (Michael W. Deem and Ramdas Pophale) SiO2 
 PCOD9001390
Probable space group: P -1
;
_chemical_formula_sum "Si O2"
_cell_formula_units_Z 16
_cell_length_a 5.080077
_cell_length_b 21.872650
_cell_length_c 6.955157
_cell_angle_alpha 127.001881
_cell_angle_beta 116.165738
_cell_angle_gamma 78.089544
_cell_volume 552.058251
_symmetry_space_group_name_H-M "P -1"
_symmetry_group_IT_number 2
_symmetry_cell_setting 'triclinic'
loop_
_space_group_symop_operation_xyz
x,y,z
-x,-y,-z
loop_
_atom_site_type_symbol
_atom_site_label
_atom_site_fract_x
_atom_site_fract_y
_atom_site_fract_z
Si Si1 0.436657 0.999887 0.751718
Si Si2 0.432311 0.504307 0.214231
Si Si3 0.893359 0.375662 0.800419
Si Si4 0.753436 0.380130 0.211007
Si Si5 0.371558 0.834359 0.852544
Si Si6 0.087688 0.096052 0.457496
Si Si7 0.228464 0.254921 0.808955
Si Si8 0.915449 0.745339 0.815171
O O1 0.723216 0.971599 0.686337
O O2 0.142607 0.942706 0.532392
O O3 0.424406 0.090125 0.865901
O O4 0.500000 0.000000 0.000000
O O5 0.324721 0.589707 0.356823
O O6 0.500000 0.500000 0.000000
O O7 0.681798 0.469439 0.359457
O O8 0.155929 0.442308 0.032507
O O9 0.767081 0.367747 0.959945
O O10 0.042655 0.296564 0.667425
O O11 0.482110 0.320042 0.066340
O O12 0.031206 0.346237 0.340226
O O13 0.593101 0.774130 0.725840
O O14 0.161982 0.795536 0.874039
O O15 0.153152 0.868477 0.695499
O O16 0.322959 0.171250 0.645764
O O17 0.044820 0.237585 0.911986
#
# Coordination Sequence:
#
# PCOD9001390 Si02
#       8
#     2   2   2   2   2   2   2   2
#     4  10  21  40  60  81 104 140 189 237 273 324
#     4   8  13  25  45  76 106 146 185 219 258 314
#     4   8  15  26  48  74 113 142 181 222 269 310
#     4   9  17  31  50  76 117 147 178 218 278 319
#     4  11  21  39  59  79 103 144 191 230 269 336
#     4  11  23  38  63  83 105 142 188 233 282 324
#     4  10  21  35  54  83 119 144 175 231 286 326
#     4  11  21  36  56  80 115 147 176 228 281 331
#
# _framework density 28.982451000000001
#
# number of rings (size 3 to 8) (size 9 to 14) (size 15 to 20)
#    0.000    2.250    1.250    3.750    3.500    0.000 
#    0.000    3.750    0.000    0.000    0.000    1.750 
#    0.000    2.000    0.000    0.000    0.000    0.000 
#
# Total GULP energy -89437.140926 kJ/mol
# GULP energy per Si atom -5589.821308 kJ/mol
# Density = 2.891649 g / cm^3
# Si number density = 28.982451 Si / 1000 Ang^3
#
#
#
# Elastic Constant Matrix: (Units=GPa)
#
#
# Indices 1 2 3 4 5 6 
#
# 1 190.6922 72.5769 26.1899 8.8210 17.8210 3.5631
# 2 72.5769 255.3667 11.7551 -8.6257 13.4993 -23.3798
# 3 26.1899 11.7551 65.8478 11.2673 20.5920 5.7939
# 4 8.8210 -8.6257 11.2673 37.3631 -8.5178 -4.0910
# 5 17.8210 13.4993 20.5920 -8.5178 43.1673 2.6521
# 6 3.5631 -23.3798 5.7939 -4.0910 2.6521 75.3937
#
#
#
# Elastic Compliance Matrix: (Units=1/GPa)
#
#
# Indices 1 2 3 4 5 6 
#
# 1 0.006381 -0.001804 -0.001211 -0.002069 -0.001850 -0.000815
# 2 -0.001804 0.004678 -0.000499 0.001788 -0.000230 0.001679
# 3 -0.001211 -0.000499 0.020830 -0.008793 -0.010905 -0.001792
# 4 -0.002069 0.001788 -0.008793 0.033091 0.010851 0.002742
# 5 -0.001850 -0.000230 -0.010905 0.010851 0.031324 0.000341
# 6 -0.000815 0.001679 -0.001792 0.002742 0.000341 0.014098
#
#
# Mechanical properties :
#
#
# Convention : Reuss Voigt Hill
#
# Bulk Modulus (GPa) = 40.22689 81.43895 60.83292
# Shear Modulus (GPa) = 39.77157 57.94381 48.85769
#
# Velocity S-wave (km/s) = 3.70843 4.47617 4.11026
# Velocity P-wave (km/s) = 5.67860 7.40778 6.60006
#
# Compressibility (1/GPa) = 0.02485899
#
# Stress axis : x y z
#
# Youngs Moduli (GPa) = 156.71367 213.76293 48.00762
#
# Poissons Ratio (x) = 0.38573 0.05816
# Poissons Ratio (y) = 0.28279 0.02396
# Poissons Ratio (z) = 0.18986 0.10669
#
# Static dielectric constant tensor:
#      x y z
#    x 2.333860 -0.151920 0.018480 
#    y -0.151920 2.324220 0.063780 
#    z 0.018480 0.063780 2.602270 
# 
# From -- ./inp_files/140744.got.cif
#   From: 2010.05.17/outbox.cif.g08.bks.cpg/sg2_71_cif.got.tgz:140744.got - 2010.06.03 11:33:40.
