data_PCOD9001461
_publ_section_title
;
Structure prediction by ZEFSAII (Michael W. Deem and Ramdas Pophale) SiO2 
 PCOD9001461
Probable space group: P -1
;
_chemical_formula_sum "Si O2"
_cell_formula_units_Z 16
_cell_length_a 17.820462
_cell_length_b 12.846488
_cell_length_c 12.571949
_cell_angle_alpha 101.600895
_cell_angle_beta 123.894411
_cell_angle_gamma 29.218799
_cell_volume 827.203195
_symmetry_space_group_name_H-M "P -1"
_symmetry_group_IT_number 2
_symmetry_cell_setting 'triclinic'
loop_
_space_group_symop_operation_xyz
x,y,z
-x,-y,-z
loop_
_atom_site_type_symbol
_atom_site_label
_atom_site_fract_x
_atom_site_fract_y
_atom_site_fract_z
Si Si1 0.274511 0.108696 0.727674
Si Si2 0.136738 0.603142 0.935510
Si Si3 0.153266 0.824241 0.977154
Si Si4 0.638341 0.578509 0.264253
Si Si5 0.931035 0.430826 0.328807
Si Si6 0.044146 0.174206 0.918198
Si Si7 0.328796 0.694886 0.797288
Si Si8 0.939863 0.318783 0.641065
O O1 0.228369 0.284838 0.736340
O O2 0.096833 0.244286 0.700852
O O3 0.170071 0.185322 0.545900
O O4 0.566326 0.755831 0.901500
O O5 0.040864 0.709357 0.003951
O O6 0.116265 0.743945 0.897646
O O7 0.000106 0.675920 0.758968
O O8 0.044802 0.045419 0.875523
O O9 0.456796 0.510746 0.163261
O O10 0.000000 0.000000 0.000000
O O11 0.758557 0.527046 0.263847
O O12 0.763941 0.322917 0.299727
O O13 0.701619 0.556430 0.425553
O O14 0.336104 0.892810 0.077031
O O15 0.887663 0.391724 0.739583
O O16 0.125663 0.011723 0.710202
O O17 0.500000 0.500000 0.000000
#
# Coordination Sequence:
#
# PCOD9001461 Si02
#       8
#     2   2   2   2   2   2   2   2
#     4  10  22  39  59  83 107 143 191 234 270 319
#     4  11  20  37  60  80 110 152 185 219 279 330
#     4   9  18  32  52  80 114 147 174 217 274 325
#     4  10  21  35  56  81 111 144 184 228 275 325
#     4  10  22  39  59  82 109 142 190 236 269 318
#     4  10  22  36  54  83 120 146 175 228 275 332
#     4  11  17  32  56  79 110 143 180 231 271 323
#     4  11  20  35  57  81 110 146 185 226 274 327
#
# _framework density 19.342285
#
# number of rings (size 3 to 8) (size 9 to 14) (size 15 to 20)
#    0.000    1.750    3.750    2.250    0.000    1.000 
#    0.000    2.500    0.000   10.500    0.000    0.000 
#    0.000    0.000    0.000    0.000    0.000    0.000 
#
# Total GULP energy -89200.867825 kJ/mol
# GULP energy per Si atom -5575.054239 kJ/mol
# Density = 1.929826 g / cm^3
# Si number density = 19.342285 Si / 1000 Ang^3
#
#
#
# Elastic Constant Matrix: (Units=GPa)
#
#
# Indices 1 2 3 4 5 6 
#
# 1 88.2108 31.5616 25.2521 22.6598 -1.3365 4.2387
# 2 31.5616 52.8916 24.2226 25.0102 -2.9169 4.7262
# 3 25.2521 24.2226 69.3582 23.3446 -18.0876 -3.4360
# 4 22.6598 25.0102 23.3446 26.7800 -4.5849 -3.5193
# 5 -1.3365 -2.9169 -18.0876 -4.5849 25.2228 9.2948
# 6 4.2387 4.7262 -3.4360 -3.5193 9.2948 21.2267
#
#
#
# Elastic Compliance Matrix: (Units=1/GPa)
#
#
# Indices 1 2 3 4 5 6 
#
# 1 0.015694 -0.004433 -0.001962 -0.008086 -0.001378 -0.003202
# 2 -0.004433 0.039400 -0.000628 -0.033918 0.003246 -0.015034
# 3 -0.001962 -0.000628 0.025494 -0.017823 0.016978 -0.005731
# 4 -0.008086 -0.033918 -0.017823 0.093139 -0.009786 0.026009
# 5 -0.001378 0.003246 0.016978 -0.009786 0.059734 -0.025478
# 6 -0.003202 -0.015034 -0.005731 0.026009 -0.025478 0.065638
#
#
# Mechanical properties :
#
#
# Convention : Reuss Voigt Hill
#
# Bulk Modulus (GPa) = 15.02821 41.39258 28.21040
# Shear Modulus (GPa) = 14.91076 23.27417 19.09247
#
# Velocity S-wave (km/s) = 2.77950 3.47259 3.14520
# Velocity P-wave (km/s) = 4.25292 6.12577 5.27316
#
# Compressibility (1/GPa) = 0.06654151
#
# Stress axis : x y z
#
# Youngs Moduli (GPa) = 63.71681 25.38051 39.22434
#
# Poissons Ratio (x) = 0.11251 0.07697
# Poissons Ratio (y) = 0.28246 0.02465
# Poissons Ratio (z) = 0.12504 0.01595
#
# Static dielectric constant tensor:
#      x y z
#    x 1.734770 0.003730 0.000680 
#    y 0.003730 1.682240 0.032050 
#    z 0.000680 0.032050 1.704310 
# 
# From -- ./inp_files/273687.got.cif
#   From: 2010.05.17/outbox.cif.g08.bks.cpg/sg2_137_cif.got.tgz:273687.got - 2010.06.03 11:33:40.
