data_PCOD9001902
_publ_section_title
;
Structure prediction by ZEFSAII (Michael W. Deem and Ramdas Pophale) SiO2 
 PCOD9001902
Probable space group: P -1
;
_chemical_formula_sum "Si O2"
_cell_formula_units_Z 16
_cell_length_a 8.081314
_cell_length_b 6.918287
_cell_length_c 23.788686
_cell_angle_alpha 56.699931
_cell_angle_beta 55.761746
_cell_angle_gamma 39.156631
_cell_volume 677.895214
_symmetry_space_group_name_H-M "P -1"
_symmetry_group_IT_number 2
_symmetry_cell_setting 'triclinic'
loop_
_space_group_symop_operation_xyz
x,y,z
-x,-y,-z
loop_
_atom_site_type_symbol
_atom_site_label
_atom_site_fract_x
_atom_site_fract_y
_atom_site_fract_z
Si Si1 0.812719 0.863466 0.714821
Si Si2 0.301327 0.486024 0.863957
Si Si3 0.148109 0.871838 0.432661
Si Si4 0.610423 0.154218 0.431860
Si Si5 0.919007 0.202404 0.927497
Si Si6 0.732708 0.927454 0.928485
Si Si7 0.644375 0.418618 0.284112
Si Si8 0.479907 0.766453 0.861993
O O1 0.671558 0.745815 0.784600
O O2 0.115744 0.647108 0.715432
O O3 0.807114 0.916037 0.640568
O O4 0.628099 0.218328 0.716700
O O5 0.268751 0.647747 0.786409
O O6 0.374753 0.612591 0.878156
O O7 0.018965 0.578986 0.918382
O O8 0.570279 0.119600 0.872346
O O9 0.422651 0.506296 0.437870
O O10 0.000000 0.000000 0.500000
O O11 0.922054 0.929065 0.427050
O O12 0.598243 0.213055 0.357987
O O13 0.500000 0.000000 0.500000
O O14 0.653424 0.569989 0.915942
O O15 0.837466 0.073893 0.917399
O O16 0.195899 0.117085 0.870854
O O17 0.000000 0.000000 0.000000
O O18 0.500000 0.000000 0.000000
#
# Coordination Sequence:
#
# PCOD9001902 Si02
#       8
#     2   2   2   2   2   2   2   2
#     4  10  21  37  57  83 113 145 185 231 277 332
#     4  10  21  37  55  79 109 141 181 226 274 329
#     4  10  21  38  59  86 119 153 193 239 286 342
#     4  10  21  38  59  86 119 153 193 239 286 342
#     4  10  21  36  54  78 107 139 179 226 273 327
#     4  10  21  36  54  78 107 139 179 226 273 327
#     4  10  21  37  57  83 113 145 185 231 277 332
#     4  10  21  37  55  79 109 141 181 226 274 329
#
# _framework density 23.602467999999998
#
# number of rings (size 3 to 8) (size 9 to 14) (size 15 to 20)
#    0.000    2.000    0.000    3.000    0.000    4.000 
#    0.000    3.750    0.000    0.000    0.000    0.000 
#    0.000    0.000    0.000    0.000    0.000    0.000 
#
# Total GULP energy -89361.098524 kJ/mol
# GULP energy per Si atom -5585.068658 kJ/mol
# Density = 2.354875 g / cm^3
# Si number density = 23.602468 Si / 1000 Ang^3
#
#
#
# Elastic Constant Matrix: (Units=GPa)
#
#
# Indices 1 2 3 4 5 6 
#
# 1 56.7184 31.1834 24.0583 -3.3198 -4.7213 -23.6442
# 2 31.1834 123.2174 31.1822 2.5548 -1.3723 -26.2791
# 3 24.0583 31.1822 170.1645 -3.2865 -2.2319 -33.5999
# 4 -3.3198 2.5548 -3.2865 35.9192 -4.6892 -3.6737
# 5 -4.7213 -1.3723 -2.2319 -4.6892 40.3587 5.6946
# 6 -23.6442 -26.2791 -33.5999 -3.6737 5.6946 29.8419
#
#
#
# Elastic Compliance Matrix: (Units=1/GPa)
#
#
# Indices 1 2 3 4 5 6 
#
# 1 0.028025 -0.002911 0.000839 0.005139 0.000852 0.021056
# 2 -0.002911 0.010330 -0.000175 -0.000463 -0.001002 0.006727
# 3 0.000839 -0.000175 0.007689 0.001683 -0.000627 0.009495
# 4 0.005139 -0.000463 0.001683 0.029769 0.002914 0.008668
# 5 0.000852 -0.001002 -0.000627 0.002914 0.025924 -0.005501
# 6 0.021056 0.006727 0.009495 0.008668 -0.005501 0.068925
#
#
# Mechanical properties :
#
#
# Convention : Reuss Voigt Hill
#
# Bulk Modulus (GPa) = 24.06737 58.10533 41.08635
# Shear Modulus (GPa) = 26.45428 38.80238 32.62833
#
# Velocity S-wave (km/s) = 3.35151 4.05902 3.72211
# Velocity P-wave (km/s) = 5.01955 6.82930 5.99313
#
# Compressibility (1/GPa) = 0.04155004
#
# Stress axis : x y z
#
# Youngs Moduli (GPa) = 35.68263 96.80568 130.05192
#
# Poissons Ratio (x) = 0.28182 -0.10915
# Poissons Ratio (y) = 0.10388 0.02277
# Poissons Ratio (z) = -0.02995 0.01695
#
# Static dielectric constant tensor:
#      x y z
#    x 1.895590 0.053840 0.006700 
#    y 0.053840 1.961460 0.002930 
#    z 0.006700 0.002930 1.954340 
# 
# From -- ./inp_files/606665.got.cif
#   From: 2010.05.17/outbox.cif.g08.bks.cpg/sg2_304_cif.got.tgz:606665.got - 2010.06.03 11:33:40.
