data_PCOD9001973
_publ_section_title
;
Structure prediction by ZEFSAII (Michael W. Deem and Ramdas Pophale) SiO2 
 PCOD9001973
Probable space group: P -1
;
_chemical_formula_sum "Si O2"
_cell_formula_units_Z 14
_cell_length_a 5.788187
_cell_length_b 14.032371
_cell_length_c 11.173120
_cell_angle_alpha 134.363673
_cell_angle_beta 101.838764
_cell_angle_gamma 71.366576
_cell_volume 614.557395
_symmetry_space_group_name_H-M "P -1"
_symmetry_group_IT_number 2
_symmetry_cell_setting 'triclinic'
loop_
_space_group_symop_operation_xyz
x,y,z
-x,-y,-z
loop_
_atom_site_type_symbol
_atom_site_label
_atom_site_fract_x
_atom_site_fract_y
_atom_site_fract_z
Si Si1 0.531714 0.847066 0.809201
Si Si2 0.024416 0.084022 0.198165
Si Si3 0.414123 0.899024 0.236475
Si Si4 0.737179 0.082406 0.496990
Si Si5 0.330268 0.341195 0.115085
Si Si6 0.856871 0.448729 0.047036
Si Si7 0.415725 0.616305 0.257916
O O1 0.770021 0.832308 0.736475
O O2 0.603026 0.727334 0.810700
O O3 0.256855 0.845392 0.740115
O O4 0.500000 0.000000 0.000000
O O5 0.156126 0.982655 0.228819
O O6 0.000000 0.000000 0.000000
O O7 0.413724 0.882518 0.363875
O O8 0.611691 0.989525 0.319402
O O9 0.501678 0.759386 0.050512
O O10 0.709393 0.233979 0.575280
O O11 0.000000 0.000000 0.500000
O O12 0.358823 0.494463 0.225662
O O13 0.052140 0.344725 0.055686
O O14 0.704683 0.569018 0.221186
O O15 0.685955 0.383775 0.889061
O O16 0.000000 0.500000 0.000000
#
# Coordination Sequence:
#
# PCOD9001973 Si02
#       7
#     2   2   2   2   2   2   2
#     4  10  21  36  61  96 127 161 209 271 325 372
#     4  10  21  38  62  95 129 161 216 270 321 371
#     4  11  23  38  60  93 124 168 210 261 317 384
#     4  11  25  40  60  87 129 171 210 251 320 393
#     4  11  21  35  63  91 122 159 206 267 322 370
#     4   9  18  32  56  83 118 156 201 257 315 370
#     4  10  21  36  55  86 121 159 207 260 314 381
#
# _framework density 22.780622000000001
#
# number of rings (size 3 to 8) (size 9 to 14) (size 15 to 20)
#    0.000    1.714    2.857    3.429    4.000    5.714 
#    0.000    0.000    0.000    1.714    0.000    0.000 
#    0.000    0.000    0.000    0.000    0.000    0.000 
#
# Total GULP energy -78097.980507 kJ/mol
# GULP energy per Si atom -5578.427179 kJ/mol
# Density = 2.272877 g / cm^3
# Si number density = 22.780622 Si / 1000 Ang^3
#
#
#
# Elastic Constant Matrix: (Units=GPa)
#
#
# Indices 1 2 3 4 5 6 
#
# 1 133.0012 57.0375 14.9932 3.2116 5.4621 -15.1322
# 2 57.0375 161.3318 41.4242 13.2497 12.6920 -13.3093
# 3 14.9932 41.4242 49.1846 5.6766 1.9886 9.9750
# 4 3.2116 13.2497 5.6766 37.5885 3.6718 10.5465
# 5 5.4621 12.6920 1.9886 3.6718 21.7939 -4.0568
# 6 -15.1322 -13.3093 9.9750 10.5465 -4.0568 48.9131
#
#
#
# Elastic Compliance Matrix: (Units=1/GPa)
#
#
# Indices 1 2 3 4 5 6 
#
# 1 0.009073 -0.002764 -0.000862 -0.000302 -0.000109 0.002287
# 2 -0.002764 0.010009 -0.007904 -0.002858 -0.003221 0.003829
# 3 -0.000862 -0.007904 0.028848 0.000824 0.000477 -0.008438
# 4 -0.000302 -0.002858 0.000824 0.030227 -0.004910 -0.007964
# 5 -0.000109 -0.003221 0.000477 -0.004910 0.049342 0.004144
# 6 0.002287 0.003829 -0.008438 -0.007964 0.004144 0.025975
#
#
# Mechanical properties :
#
#
# Convention : Reuss Voigt Hill
#
# Bulk Modulus (GPa) = 40.20923 63.38081 51.79502
# Shear Modulus (GPa) = 27.05256 36.99662 32.02459
#
# Velocity S-wave (km/s) = 3.44979 4.03431 3.75344
# Velocity P-wave (km/s) = 5.79284 7.04156 6.44750
#
# Compressibility (1/GPa) = 0.02486991
#
# Stress axis : x y z
#
# Youngs Moduli (GPa) = 110.21255 99.90879 34.66454
#
# Poissons Ratio (x) = 0.27620 0.02988
# Poissons Ratio (y) = 0.30468 0.27398
# Poissons Ratio (z) = 0.09502 0.78964
#
# Static dielectric constant tensor:
#      x y z
#    x 1.977170 0.019210 -0.005750 
#    y 0.019210 1.879230 0.032030 
#    z -0.005750 0.032030 1.895770 
# 
# From -- ./inp_files/117799.got.cif
#   From: 2010.05.17/outbox.cif.g08.bks.cpg/sg2_59_cif.got.tgz:117799.got - 2010.06.03 11:33:40.
