data_PCOD9001181
_publ_section_title
;
Structure prediction by ZEFSAII (Michael W. Deem and Ramdas Pophale) SiO2 
 PCOD9001181
Probable space group: P -1
;
_chemical_formula_sum "Si O2"
_cell_formula_units_Z 14
_cell_length_a 5.366043
_cell_length_b 8.067619
_cell_length_c 16.497161
_cell_angle_alpha 132.589088
_cell_angle_beta 83.112724
_cell_angle_gamma 105.400300
_cell_volume 505.117631
_symmetry_space_group_name_H-M "P -1"
_symmetry_group_IT_number 2
_symmetry_cell_setting 'triclinic'
loop_
_space_group_symop_operation_xyz
x,y,z
-x,-y,-z
loop_
_atom_site_type_symbol
_atom_site_label
_atom_site_fract_x
_atom_site_fract_y
_atom_site_fract_z
Si Si1 0.679716 0.535630 0.719060
Si Si2 0.678293 0.424360 0.077665
Si Si3 0.404894 0.826888 0.716239
Si Si4 0.257414 0.702409 0.145532
Si Si5 0.291239 0.104113 0.592324
Si Si6 0.138240 0.845533 0.888518
Si Si7 0.046752 0.343400 0.536592
O O1 0.570528 0.726510 0.742096
O O2 0.465403 0.332276 0.702383
O O3 0.911695 0.622191 0.799532
O O4 0.805293 0.434749 0.604780
O O5 0.429011 0.519340 0.098044
O O6 0.658928 0.243768 0.092738
O O7 0.950153 0.617791 0.145282
O O8 0.726584 0.285197 0.949166
O O9 0.224683 0.927471 0.820030
O O10 0.257880 0.590835 0.593943
O O11 0.595764 0.046380 0.739406
O O12 0.149719 0.228983 0.572499
O O13 0.500000 0.000000 0.500000
O O14 0.093506 0.901266 0.583453
O O15 0.000000 0.000000 0.000000
#
# Coordination Sequence:
#
# PCOD9001181 Si02
#       7
#     2   2   2   2   2   2   2
#     4   9  18  30  49  78 112 139 185 227 287 326
#     4  10  24  40  56  78 109 151 193 231 286 335
#     4  10  21  34  56  81 110 145 189 238 278 332
#     4  10  23  40  58  76 109 150 194 235 278 338
#     4   8  13  26  46  73 112 141 168 224 283 333
#     4  11  24  35  55  81 113 148 190 236 283 331
#     4   8  15  27  47  78 109 137 177 225 285 324
#
# _framework density 27.71632
#
# number of rings (size 3 to 8) (size 9 to 14) (size 15 to 20)
#    0.000    2.571    0.000    0.857   12.000    1.143 
#    0.000    0.000    0.000    0.000    0.000    2.000 
#    0.000    0.000    0.000    0.000    0.000    0.000 
#
# Total GULP energy -78138.052445 kJ/mol
# GULP energy per Si atom -5581.289460 kJ/mol
# Density = 2.765324 g / cm^3
# Si number density = 27.716320 Si / 1000 Ang^3
#
#
#
# Elastic Constant Matrix: (Units=GPa)
#
#
# Indices 1 2 3 4 5 6 
#
# 1 103.1753 33.2520 19.5771 16.4146 2.2791 13.9534
# 2 33.2520 94.7110 18.1079 22.3884 12.5906 -9.5329
# 3 19.5771 18.1079 88.4664 35.7089 15.4319 15.4580
# 4 16.4146 22.3884 35.7089 46.9490 17.7651 8.8588
# 5 2.2791 12.5906 15.4319 17.7651 64.7022 17.0862
# 6 13.9534 -9.5329 15.4580 8.8588 17.0862 41.9572
#
#
#
# Elastic Compliance Matrix: (Units=1/GPa)
#
#
# Indices 1 2 3 4 5 6 
#
# 1 0.012283 -0.004761 -0.000610 -0.001450 0.002534 -0.005668
# 2 -0.004761 0.014735 -0.000682 -0.005080 -0.003131 0.007530
# 3 -0.000610 -0.000682 0.016931 -0.011748 0.000360 -0.003856
# 4 -0.001450 -0.005080 -0.011748 0.035547 -0.005493 -0.001612
# 5 0.002534 -0.003131 0.000360 -0.005493 0.019650 -0.008529
# 6 -0.005668 0.007530 -0.003856 -0.001612 -0.008529 0.032664
#
#
# Mechanical properties :
#
#
# Convention : Reuss Voigt Hill
#
# Bulk Modulus (GPa) = 31.40264 47.58073 39.49168
# Shear Modulus (GPa) = 32.35614 45.08274 38.71944
#
# Velocity S-wave (km/s) = 3.42044 4.03746 3.74169
# Velocity P-wave (km/s) = 5.19170 6.24012 5.73990
#
# Compressibility (1/GPa) = 0.03184446
#
# Stress axis : x y z
#
# Youngs Moduli (GPa) = 81.41031 67.86554 59.06241
#
# Poissons Ratio (x) = 0.32308 0.03605
# Poissons Ratio (y) = 0.38756 0.04026
# Poissons Ratio (z) = 0.04969 0.04626
#
# Static dielectric constant tensor:
#      x y z
#    x 2.194680 0.077190 0.036050 
#    y 0.077190 2.175420 0.025670 
#    z 0.036050 0.025670 2.260380 
# 
# From -- ./inp_files/42414.got.cif
#   From: 2010.05.17/outbox.cif.g08.bks.cpg/sg2_22_cif.got.tgz:42414.got - 2010.06.03 11:33:40.
