data_PCOD9001838
_publ_section_title
;
Structure prediction by ZEFSAII (Michael W. Deem and Ramdas Pophale) SiO2 
 PCOD9001838
Probable space group: P -1
;
_chemical_formula_sum "Si O2"
_cell_formula_units_Z 15
_cell_length_a 11.820698
_cell_length_b 12.806468
_cell_length_c 12.195807
_cell_angle_alpha 57.988890
_cell_angle_beta 37.595306
_cell_angle_gamma 86.360623
_cell_volume 692.026328
_symmetry_space_group_name_H-M "P -1"
_symmetry_group_IT_number 2
_symmetry_cell_setting 'triclinic'
loop_
_space_group_symop_operation_xyz
x,y,z
-x,-y,-z
loop_
_atom_site_type_symbol
_atom_site_label
_atom_site_fract_x
_atom_site_fract_y
_atom_site_fract_z
Si Si1 0.730201 0.691408 0.746269
Si Si2 0.246803 0.920785 0.298558
Si Si3 0.664042 0.766077 0.992310
Si Si4 0.147910 0.847904 0.661996
Si Si5 0.306916 0.258280 0.682386
Si Si6 0.181621 0.083943 0.647666
Si Si7 0.235722 0.513440 0.628008
Si Si8 0.000000 0.500000 0.000000
O O1 0.786423 0.806587 0.537003
O O2 0.990479 0.739662 0.553277
O O3 0.500000 0.500000 0.000000
O O4 0.639861 0.714562 0.914813
O O5 0.280881 0.926408 0.398920
O O6 0.500000 0.000000 0.000000
O O7 0.205187 0.042535 0.226354
O O8 0.402999 0.646066 0.327968
O O9 0.858597 0.765157 0.906790
O O10 0.266070 0.990234 0.585228
O O11 0.122518 0.694689 0.793405
O O12 0.314200 0.204949 0.584995
O O13 0.205114 0.353686 0.714113
O O14 0.588288 0.394234 0.445884
O O15 0.111846 0.079975 0.997206
O O16 0.005447 0.489470 0.862430
#
# Coordination Sequence:
#
# PCOD9001838 Si02
#       8
#     2   2   2   2   2   2   2   1
#     4  11  22  38  66  99 128 169 222 271 328 392
#     4  11  22  40  68  97 130 172 218 274 331 390
#     4  11  20  40  67  90 121 173 225 265 321 399
#     4  11  20  39  63  92 126 168 228 265 322 401
#     4  10  21  35  66  84 122 169 215 268 321 390
#     4  11  19  39  63  92 123 166 222 269 320 391
#     4  11  20  38  56  94 121 161 220 267 324 391
#     4  12  24  34  60  90 132 166 206 280 322 380
#
# _framework density 21.675476
#
# number of rings (size 3 to 8) (size 9 to 14) (size 15 to 20)
#    0.000    1.067    5.333    3.200    0.000    1.067 
#    0.000    1.333    5.867    0.000    0.000    0.000 
#    0.000    0.000    0.000    0.000    0.000    0.000 
#
# Total GULP energy -83509.311353 kJ/mol
# GULP energy per Si atom -5567.287424 kJ/mol
# Density = 2.162614 g / cm^3
# Si number density = 21.675476 Si / 1000 Ang^3
#
#
#
# Elastic Constant Matrix: (Units=GPa)
#
#
# Indices 1 2 3 4 5 6 
#
# 1 59.0171 60.9237 36.9471 -0.3602 24.6582 32.6284
# 2 60.9237 157.0321 51.4946 -8.7905 8.4416 32.5643
# 3 36.9471 51.4946 90.6584 0.6781 27.1830 30.0588
# 4 -0.3602 -8.7905 0.6781 41.0810 11.1207 5.0920
# 5 24.6582 8.4416 27.1830 11.1207 38.0241 6.0835
# 6 32.6284 32.5643 30.0588 5.0920 6.0835 33.1352
#
#
#
# Elastic Compliance Matrix: (Units=1/GPa)
#
#
# Indices 1 2 3 4 5 6 
#
# 1 0.128403 -0.029154 0.027210 0.031999 -0.087805 -0.111268
# 2 -0.029154 0.015431 -0.009237 -0.004672 0.020428 0.018889
# 3 0.027210 -0.009237 0.027640 0.011389 -0.032514 -0.038571
# 4 0.031999 -0.004672 0.011389 0.036871 -0.032734 -0.036905
# 5 -0.087805 0.020428 -0.032514 -0.032734 0.098264 0.082871
# 6 -0.111268 0.018889 -0.038571 -0.036905 0.082871 0.146628
#
#
# Mechanical properties :
#
#
# Convention : Reuss Voigt Hill
#
# Bulk Modulus (GPa) = 6.70630 67.27092 36.98861
# Shear Modulus (GPa) = 9.51835 32.93753 21.22794
#
# Velocity S-wave (km/s) = 2.09782 3.90240 3.13286
# Velocity P-wave (km/s) = 2.99474 7.16993 5.49438
#
# Compressibility (1/GPa) = 0.14911347
#
# Stress axis : x y z
#
# Youngs Moduli (GPa) = 7.78800 64.80477 36.17922
#
# Poissons Ratio (x) = 1.88931 -0.98444
# Poissons Ratio (y) = 0.22705 0.33417
# Poissons Ratio (z) = -0.21191 0.59857
#
# Static dielectric constant tensor:
#      x y z
#    x 1.681890 0.113000 0.175350 
#    y 0.113000 1.749670 -0.159550 
#    z 0.175350 -0.159550 1.569780 
# 
# From -- ./inp_files/257652.got.cif
#   From: 2010.05.17/outbox.cif.g08.bks.cpg/sg2_129_cif.got.tgz:257652.got - 2010.06.03 11:33:40.
