data_PCOD9001693
_publ_section_title
;
Structure prediction by ZEFSAII (Michael W. Deem and Ramdas Pophale) SiO2 
 PCOD9001693
Probable space group: P -1
;
_chemical_formula_sum "Si O2"
_cell_formula_units_Z 16
_cell_length_a 20.624841
_cell_length_b 5.105932
_cell_length_c 9.970862
_cell_angle_alpha 92.710435
_cell_angle_beta 51.567628
_cell_angle_gamma 116.994145
_cell_volume 690.183321
_symmetry_space_group_name_H-M "P -1"
_symmetry_group_IT_number 2
_symmetry_cell_setting 'triclinic'
loop_
_space_group_symop_operation_xyz
x,y,z
-x,-y,-z
loop_
_atom_site_type_symbol
_atom_site_label
_atom_site_fract_x
_atom_site_fract_y
_atom_site_fract_z
Si Si1 0.549122 0.110358 0.292026
Si Si2 0.747728 0.701450 0.409949
Si Si3 0.816886 0.889163 0.619043
Si Si4 0.868306 0.418699 0.200792
Si Si5 0.761745 0.688318 0.978588
Si Si6 0.532592 0.530801 0.615028
Si Si7 0.935339 0.600093 0.411922
Si Si8 0.119078 0.616570 0.106101
O O1 0.658592 0.407898 0.159606
O O2 0.482507 0.206089 0.302469
O O3 0.500000 0.000000 0.500000
O O4 0.541433 0.807966 0.235264
O O5 0.779064 0.475119 0.304905
O O6 0.641584 0.612240 0.496042
O O7 0.755563 0.703386 0.561386
O O8 0.826462 0.058456 0.275037
O O9 0.854449 0.250187 0.557127
O O10 0.908955 0.842171 0.504846
O O11 0.242026 0.250047 0.172132
O O12 0.926063 0.611189 0.262450
O O13 0.922769 0.517644 0.991276
O O14 0.839299 0.583587 0.896278
O O15 0.796081 0.017635 0.011642
O O16 0.500000 0.500000 0.500000
O O17 0.039387 0.633866 0.298720
#
# Coordination Sequence:
#
# PCOD9001693 Si02
#       8
#     2   2   2   2   2   2   2   2
#     4  10  23  39  58  86 128 153 193 260 313 366
#     4  10  21  39  63  91 119 170 201 247 315 362
#     4  10  23  43  64  84 130 166 214 243 295 376
#     4  10  22  37  63  91 129 156 204 255 306 376
#     4  12  26  41  60  95 123 168 206 257 302 363
#     4  10  21  35  61  89 119 152 198 256 306 372
#     4  10  22  43  63  92 122 171 203 256 304 352
#     4  12  25  37  65  94 129 158 210 258 307 362
#
# _framework density 23.182244000000001
#
# number of rings (size 3 to 8) (size 9 to 14) (size 15 to 20)
#    0.000    1.500    0.000    4.125   10.500    3.000 
#    0.000    6.250    0.000    0.000    0.000    0.000 
#    0.000    0.000    0.000    0.000    0.000    0.000 
#
# Total GULP energy -89462.534830 kJ/mol
# GULP energy per Si atom -5591.408427 kJ/mol
# Density = 2.312948 g / cm^3
# Si number density = 23.182244 Si / 1000 Ang^3
#
#
#
# Elastic Constant Matrix: (Units=GPa)
#
#
# Indices 1 2 3 4 5 6 
#
# 1 94.2144 14.3611 27.9589 18.3709 -8.6530 -11.3072
# 2 14.3611 81.2106 -4.1203 3.3910 9.6060 -35.2271
# 3 27.9589 -4.1203 59.8085 -1.2610 2.3695 3.6755
# 4 18.3709 3.3910 -1.2610 31.2514 3.5501 -1.9420
# 5 -8.6530 9.6060 2.3695 3.5501 29.3248 7.1899
# 6 -11.3072 -35.2271 3.6755 -1.9420 7.1899 46.1273
#
#
#
# Elastic Compliance Matrix: (Units=1/GPa)
#
#
# Indices 1 2 3 4 5 6 
#
# 1 0.016552 -0.003827 -0.008551 -0.010571 0.008081 0.000112
# 2 -0.003827 0.022559 0.002810 0.002590 -0.013543 0.018286
# 3 -0.008551 0.002810 0.021301 0.006210 -0.005799 -0.000482
# 4 -0.010571 0.002590 0.006210 0.039418 -0.009749 0.002071
# 5 0.008081 -0.013543 -0.005799 -0.009749 0.046380 -0.015539
# 6 0.000112 0.018286 -0.000482 0.002071 -0.015539 0.038219
#
#
# Mechanical properties :
#
#
# Convention : Reuss Voigt Hill
#
# Bulk Modulus (GPa) = 24.22666 34.62589 29.42627
# Shear Modulus (GPa) = 23.00722 34.47628 28.74175
#
# Velocity S-wave (km/s) = 3.15374 3.86059 3.52492
# Velocity P-wave (km/s) = 4.87182 5.90263 5.41182
#
# Compressibility (1/GPa) = 0.04127685
#
# Stress axis : x y z
#
# Youngs Moduli (GPa) = 60.41663 44.32875 46.94548
#
# Poissons Ratio (x) = 0.16964 0.40143
# Poissons Ratio (y) = 0.23121 -0.13194
# Poissons Ratio (z) = 0.51662 -0.12458
#
# Static dielectric constant tensor:
#      x y z
#    x 0.538300 -4.814920 -3.114390 
#    y -4.814920 -15.070040 -10.902540 
#    z -3.114390 -10.902540 -5.139730 
# 
# From -- ./inp_files/485477.got.cif
#   From: 2010.05.17/outbox.cif.g08.bks.cpg/sg2_243_cif.got.tgz:485477.got - 2010.06.03 11:33:40.
