data_PCOD9001100
_publ_section_title
;
Structure prediction by ZEFSAII (Michael W. Deem and Ramdas Pophale) SiO2 
 PCOD9001100
Probable space group: P -1
;
_chemical_formula_sum "Si O2"
_cell_formula_units_Z 14
_cell_length_a 15.282557
_cell_length_b 8.867208
_cell_length_c 5.176821
_cell_angle_alpha 63.079606
_cell_angle_beta 66.178149
_cell_angle_gamma 62.254489
_cell_volume 536.757590
_symmetry_space_group_name_H-M "P -1"
_symmetry_group_IT_number 2
_symmetry_cell_setting 'triclinic'
loop_
_space_group_symop_operation_xyz
x,y,z
-x,-y,-z
loop_
_atom_site_type_symbol
_atom_site_label
_atom_site_fract_x
_atom_site_fract_y
_atom_site_fract_z
Si Si1 0.732880 0.367476 0.994981
Si Si2 0.923741 0.863924 0.941865
Si Si3 0.538200 0.295647 0.226130
Si Si4 0.186729 0.785454 0.482607
Si Si5 0.427413 0.256679 0.912378
Si Si6 0.258926 0.101518 0.137137
Si Si7 0.948438 0.691184 0.546443
O O1 0.658788 0.249687 0.139428
O O2 0.819921 0.282501 0.170051
O O3 0.660116 0.553810 0.055385
O O4 0.773627 0.371682 0.654425
O O5 0.808583 0.852589 0.080760
O O6 0.986230 0.715152 0.771243
O O7 0.900831 0.055261 0.682090
O O8 0.960155 0.832299 0.212026
O O9 0.489617 0.286467 0.568667
O O10 0.500000 0.500000 0.000000
O O11 0.495562 0.196821 0.134902
O O12 0.263927 0.898368 0.344909
O O13 0.364067 0.130387 0.011851
O O14 0.173392 0.243193 0.311501
O O15 0.000000 0.500000 0.500000
#
# Coordination Sequence:
#
# PCOD9001100 Si02
#       7
#     2   2   2   2   2   2   2
#     4  11  18  34  52  70  91 137 178 204 235 304
#     4   8  18  30  50  71 106 125 157 198 251 281
#     4  10  21  34  49  71 100 132 171 214 254 286
#     4   9  19  33  51  70 103 130 165 202 246 305
#     4  11  21  34  53  73  99 130 170 217 253 282
#     4   8  22  32  53  74 109 125 159 209 261 278
#     4   9  16  30  52  79 101 127 161 196 242 300
#
# _framework density 26.082540000000002
#
# number of rings (size 3 to 8) (size 9 to 14) (size 15 to 20)
#    1.714    0.571    0.000    6.429    2.000    0.000 
#    0.000    4.286    0.000    0.000    0.000   14.000 
#    0.000    0.000    0.000    0.000    0.000    0.000 
#
# Total GULP energy -78096.589507 kJ/mol
# GULP energy per Si atom -5578.327822 kJ/mol
# Density = 2.602317 g / cm^3
# Si number density = 26.082540 Si / 1000 Ang^3
#
#
#
# Elastic Constant Matrix: (Units=GPa)
#
#
# Indices 1 2 3 4 5 6 
#
# 1 113.8310 9.8159 48.4612 11.7103 15.8866 23.9339
# 2 9.8159 109.4958 5.7934 22.7738 0.9942 -13.3773
# 3 48.4612 5.7934 68.4080 21.5753 24.7291 -3.8904
# 4 11.7103 22.7738 21.5753 32.2583 -0.0554 -4.5516
# 5 15.8866 0.9942 24.7291 -0.0554 41.9134 -2.3230
# 6 23.9339 -13.3773 -3.8904 -4.5516 -2.3230 25.4767
#
#
#
# Elastic Compliance Matrix: (Units=1/GPa)
#
#
# Indices 1 2 3 4 5 6 
#
# 1 0.021353 -0.004834 -0.017854 0.004151 0.001204 -0.024473
# 2 -0.004834 0.012615 0.006921 -0.010346 -0.002000 0.010191
# 3 -0.017854 0.006921 0.041072 -0.022930 -0.016492 0.021079
# 4 0.004151 -0.010346 -0.022930 0.051805 0.012132 -0.002472
# 5 0.001204 -0.002000 -0.016492 0.012132 0.033224 0.000498
# 6 -0.024473 0.010191 0.021079 -0.002472 0.000498 0.070417
#
#
# Mechanical properties :
#
#
# Convention : Reuss Voigt Hill
#
# Bulk Modulus (GPa) = 22.98441 46.65288 34.81865
# Shear Modulus (GPa) = 18.08181 35.10730 26.59456
#
# Velocity S-wave (km/s) = 2.63583 3.67278 3.19663
# Velocity P-wave (km/s) = 4.25379 5.99259 5.19644
#
# Compressibility (1/GPa) = 0.04350775
#
# Stress axis : x y z
#
# Youngs Moduli (GPa) = 46.83099 79.27101 24.34737
#
# Poissons Ratio (x) = 0.38319 0.43470
# Poissons Ratio (y) = 0.22638 -0.16852
# Poissons Ratio (z) = 0.83612 -0.54867
#
# Static dielectric constant tensor:
#      x y z
#    x 2.153680 0.019400 -0.042730 
#    y 0.019400 2.076620 -0.023640 
#    z -0.042730 -0.023640 1.996250 
# 
# From -- ./inp_files/115336.got.cif
#   From: 2010.05.17/outbox.cif.g08.bks.cpg/sg2_58_cif.got.tgz:115336.got - 2010.06.03 11:33:40.
