data_PCOD9001717
_publ_section_title
;
Structure prediction by ZEFSAII (Michael W. Deem and Ramdas Pophale) SiO2 
 PCOD9001717
Probable space group: P -1
;
_chemical_formula_sum "Si O2"
_cell_formula_units_Z 14
_cell_length_a 11.079179
_cell_length_b 17.674104
_cell_length_c 8.138754
_cell_angle_alpha 129.716167
_cell_angle_beta 134.992673
_cell_angle_gamma 29.023051
_cell_volume 545.800432
_symmetry_space_group_name_H-M "P -1"
_symmetry_group_IT_number 2
_symmetry_cell_setting 'triclinic'
loop_
_space_group_symop_operation_xyz
x,y,z
-x,-y,-z
loop_
_atom_site_type_symbol
_atom_site_label
_atom_site_fract_x
_atom_site_fract_y
_atom_site_fract_z
Si Si1 0.714660 0.871739 0.885422
Si Si2 0.241660 0.338556 0.819019
Si Si3 0.787618 0.879852 0.436310
Si Si4 0.262411 0.626305 0.718253
Si Si5 0.359411 0.409751 0.324235
Si Si6 0.070227 0.855331 0.359281
Si Si7 0.194876 0.523835 0.821165
O O1 0.913829 0.691284 0.860668
O O2 0.516288 0.943058 0.639050
O O3 0.930372 0.864873 0.083180
O O4 0.500000 0.000000 0.000000
O O5 0.271185 0.211377 0.720585
O O6 0.260483 0.379414 0.712716
O O7 0.928491 0.504679 0.784609
O O8 0.421485 0.325213 0.097684
O O9 0.997226 0.811504 0.689586
O O10 0.950709 0.849038 0.391718
O O11 0.296941 0.553852 0.477524
O O12 0.184955 0.576344 0.705143
O O13 0.544301 0.542923 0.933753
O O14 0.607378 0.289770 0.520593
O O15 0.000000 0.000000 0.500000
#
# Coordination Sequence:
#
# PCOD9001717 Si02
#       7
#     2   2   2   2   2   2   2
#     4  10  23  38  62  92 127 162 206 265 310 367
#     4  10  23  35  65  92 127 161 210 262 307 363
#     4  10  23  41  61  94 130 165 209 257 320 368
#     4  10  23  41  65  92 128 169 209 252 312 373
#     4  10  21  35  61  94 121 162 211 259 304 364
#     4  11  22  36  62  91 128 163 207 261 313 368
#     4  11  23  42  66  92 130 167 208 256 311 376
#
# _framework density 25.650400000000001
#
# number of rings (size 3 to 8) (size 9 to 14) (size 15 to 20)
#    0.000    1.714    1.429    1.714   16.000    5.714 
#    0.000    0.000    3.143    2.571    0.000    0.000 
#    0.000    0.000    0.000    0.000    0.000    0.000 
#
# Total GULP energy -77997.232961 kJ/mol
# GULP energy per Si atom -5571.230926 kJ/mol
# Density = 2.559202 g / cm^3
# Si number density = 25.650400 Si / 1000 Ang^3
#
#
#
# Elastic Constant Matrix: (Units=GPa)
#
#
# Indices 1 2 3 4 5 6 
#
# 1 97.9608 44.5767 20.1341 5.8812 -6.0735 27.2366
# 2 44.5767 115.9130 51.9129 -32.4898 23.4847 10.8823
# 3 20.1341 51.9129 128.2729 -38.8510 11.9216 -3.2818
# 4 5.8812 -32.4898 -38.8510 57.2182 -9.5561 12.2955
# 5 -6.0735 23.4847 11.9216 -9.5561 28.2742 -3.1264
# 6 27.2366 10.8823 -3.2818 12.2955 -3.1264 46.4312
#
#
#
# Elastic Compliance Matrix: (Units=1/GPa)
#
#
# Indices 1 2 3 4 5 6 
#
# 1 0.016918 -0.008301 -0.001742 -0.004802 0.008952 -0.006227
# 2 -0.008301 0.018035 -0.002481 0.007705 -0.013386 -0.002475
# 3 -0.001742 -0.002481 0.010962 0.005908 -0.000855 0.000756
# 4 -0.004802 0.007705 0.005908 0.027410 -0.001313 -0.005918
# 5 0.008952 -0.013386 -0.000855 -0.001313 0.048485 0.001438
# 6 -0.006227 -0.002475 0.000756 -0.005918 0.001438 0.027488
#
#
# Mechanical properties :
#
#
# Convention : Reuss Voigt Hill
#
# Bulk Modulus (GPa) = 47.92407 63.93268 55.92837
# Shear Modulus (GPa) = 27.57826 41.41958 34.49892
#
# Velocity S-wave (km/s) = 3.28252 4.02278 3.67136
# Velocity P-wave (km/s) = 5.75245 6.82318 6.31057
#
# Compressibility (1/GPa) = 0.02086634
#
# Stress axis : x y z
#
# Youngs Moduli (GPa) = 59.10720 55.44719 91.22775
#
# Poissons Ratio (x) = 0.46029 0.15889
# Poissons Ratio (y) = 0.49067 0.22637
# Poissons Ratio (z) = 0.10295 0.13759
#
# Static dielectric constant tensor:
#      x y z
#    x 2.162680 -0.102850 -0.107420 
#    y -0.102850 2.118210 0.017780 
#    z -0.107420 0.017780 2.104080 
# 
# From -- ./inp_files/279720.got.cif
#   From: 2010.05.17/outbox.cif.g08.bks.cpg/sg2_140_cif.got.tgz:279720.got - 2010.06.03 11:33:40.
