data_PCOD9001943
_publ_section_title
;
Structure prediction by ZEFSAII (Michael W. Deem and Ramdas Pophale) SiO2 
 PCOD9001943
Probable space group: P -1
;
_chemical_formula_sum "Si O2"
_cell_formula_units_Z 16
_cell_length_a 5.655355
_cell_length_b 13.065050
_cell_length_c 14.905560
_cell_angle_alpha 111.041230
_cell_angle_beta 55.261030
_cell_angle_gamma 111.061097
_cell_volume 827.306883
_symmetry_space_group_name_H-M "P -1"
_symmetry_group_IT_number 2
_symmetry_cell_setting 'triclinic'
loop_
_space_group_symop_operation_xyz
x,y,z
-x,-y,-z
loop_
_atom_site_type_symbol
_atom_site_label
_atom_site_fract_x
_atom_site_fract_y
_atom_site_fract_z
Si Si1 0.566619 0.477862 0.877216
Si Si2 0.739228 0.921719 0.927513
Si Si3 0.255292 0.115144 0.873137
Si Si4 0.965900 0.602714 0.417918
Si Si5 0.454416 0.473433 0.354009
Si Si6 0.525789 0.675213 0.860269
Si Si7 0.975874 0.687656 0.105234
Si Si8 0.831130 0.254759 0.730186
O O1 0.724911 0.595054 0.837136
O O2 0.718827 0.372091 0.805316
O O3 0.253409 0.428979 0.882892
O O4 0.500000 0.500000 0.000000
O O5 0.659572 0.804755 0.856463
O O6 0.737931 0.889011 0.022218
O O7 0.045108 0.999039 0.855550
O O8 0.500000 0.000000 0.000000
O O9 0.573316 0.147883 0.769105
O O10 0.116623 0.220586 0.910295
O O11 0.730635 0.535973 0.373955
O O12 0.778215 0.595435 0.547052
O O13 0.257363 0.552682 0.368399
O O14 0.053555 0.724070 0.388935
O O15 0.559768 0.390017 0.234285
O O16 0.278389 0.672752 0.989925
O O17 0.970581 0.738694 0.222033
#
# Coordination Sequence:
#
# PCOD9001943 Si02
#       8
#     2   2   2   2   2   2   2   2
#     4  11  21  30  46  84 116 144 176 226 290 353
#     4  11  21  39  53  76 118 154 193 236 285 349
#     4  10  21  36  55  80 111 155 195 231 292 344
#     4  10  22  41  59  84 121 157 195 237 288 355
#     4  10  23  39  59  86 119 158 195 236 292 347
#     4  12  20  34  54  82 116 151 189 238 284 351
#     4  11  21  33  51  83 117 145 186 230 288 353
#     4  11  20  34  55  80 115 150 190 232 289 348
#
# _framework density 19.339859000000001
#
# number of rings (size 3 to 8) (size 9 to 14) (size 15 to 20)
#    0.000    1.250    5.000    1.875    3.500    1.000 
#    0.000    0.000    0.000    0.750    0.000    3.500 
#    0.000    0.000    0.000    0.000    0.000    0.000 
#
# Total GULP energy -89079.883416 kJ/mol
# GULP energy per Si atom -5567.492714 kJ/mol
# Density = 1.929584 g / cm^3
# Si number density = 19.339859 Si / 1000 Ang^3
#
#
#
# Elastic Constant Matrix: (Units=GPa)
#
#
# Indices 1 2 3 4 5 6 
#
# 1 75.6776 35.4383 10.4733 -8.8101 11.2233 -4.8140
# 2 35.4383 125.4340 23.8630 -20.6126 8.0508 4.9463
# 3 10.4733 23.8630 50.5830 -23.4632 10.9470 4.1247
# 4 -8.8101 -20.6126 -23.4632 34.1464 -0.8725 -1.7098
# 5 11.2233 8.0508 10.9470 -0.8725 24.3041 -9.1438
# 6 -4.8140 4.9463 4.1247 -1.7098 -9.1438 35.9354
#
#
#
# Elastic Compliance Matrix: (Units=1/GPa)
#
#
# Indices 1 2 3 4 5 6 
#
# 1 0.016212 -0.004032 0.000733 0.002163 -0.005939 0.001234
# 2 -0.004032 0.010232 -0.001815 0.003762 -0.001285 -0.001888
# 3 0.000733 -0.001815 0.035293 0.022543 -0.017488 -0.007080
# 4 0.002163 0.003762 0.022543 0.047113 -0.012080 -0.003648
# 5 -0.005939 -0.001285 -0.017488 -0.012080 0.057575 0.015464
# 6 0.001234 -0.001888 -0.007080 -0.003648 0.015464 0.032827
#
#
# Mechanical properties :
#
#
# Convention : Reuss Voigt Hill
#
# Bulk Modulus (GPa) = 19.41408 43.47154 31.44281
# Shear Modulus (GPa) = 22.06057 31.00517 26.53287
#
# Velocity S-wave (km/s) = 3.38106 4.00831 3.70797
# Velocity P-wave (km/s) = 5.03013 6.62937 5.88434
#
# Compressibility (1/GPa) = 0.05150901
#
# Stress axis : x y z
#
# Youngs Moduli (GPa) = 61.68451 97.73433 28.33427
#
# Poissons Ratio (x) = 0.39404 -0.02078
# Poissons Ratio (y) = 0.24870 0.05143
# Poissons Ratio (z) = -0.04524 0.17741
#
# Static dielectric constant tensor:
#      x y z
#    x 1.797440 0.018440 -0.002480 
#    y 0.018440 1.707050 -0.039190 
#    z -0.002480 -0.039190 1.735310 
# 
# From -- ./inp_files/99152.got.cif
#   From: 2010.05.17/outbox.cif.g08.bks.cpg/sg2_50_cif.got.tgz:99152.got - 2010.06.03 11:33:40.
