data_PCOD9001359
_publ_section_title
;
Structure prediction by ZEFSAII (Michael W. Deem and Ramdas Pophale) SiO2 
 PCOD9001359
Probable space group: P -1
;
_chemical_formula_sum "Si O2"
_cell_formula_units_Z 16
_cell_length_a 15.282275
_cell_length_b 15.238316
_cell_length_c 10.608426
_cell_angle_alpha 111.669039
_cell_angle_beta 113.207738
_cell_angle_gamma 18.553920
_cell_volume 722.401220
_symmetry_space_group_name_H-M "P -1"
_symmetry_group_IT_number 2
_symmetry_cell_setting 'triclinic'
loop_
_space_group_symop_operation_xyz
x,y,z
-x,-y,-z
loop_
_atom_site_type_symbol
_atom_site_label
_atom_site_fract_x
_atom_site_fract_y
_atom_site_fract_z
Si Si1 0.074090 0.863619 0.084968
Si Si2 0.334184 0.307674 0.854641
Si Si3 0.589523 0.732409 0.838876
Si Si4 0.885063 0.669718 0.142658
Si Si5 0.221923 0.894125 0.702863
Si Si6 0.911808 0.839011 0.830908
Si Si7 0.710152 0.168264 0.676295
Si Si8 0.771437 0.318175 0.477544
O O1 0.306178 0.711815 0.204759
O O2 0.836390 0.070661 0.164855
O O3 0.092230 0.745287 0.967166
O O4 0.000000 0.000000 0.000000
O O5 0.234025 0.292850 0.803222
O O6 0.135375 0.549782 0.774999
O O7 0.655415 0.027376 0.856325
O O8 0.292415 0.386233 0.014995
O O9 0.427945 0.788058 0.746260
O O10 0.840431 0.524391 0.776943
O O11 0.364996 0.026792 0.872391
O O12 0.000000 0.500000 0.000000
O O13 0.320626 0.706428 0.591563
O O14 0.926072 0.195220 0.630663
O O15 0.769483 0.033455 0.742825
O O16 0.447303 0.407377 0.562872
O O17 0.977150 0.918438 0.606542
#
# Coordination Sequence:
#
# PCOD9001359 Si02
#       8
#     2   2   2   2   2   2   2   2
#     4   9  20  35  54  83 119 148 185 232 280 340
#     4  11  20  34  55  84 118 150 188 228 291 358
#     4  11  21  34  56  84 118 154 187 231 288 352
#     4  10  21  35  52  82 122 153 179 235 292 346
#     4  10  22  37  61  86 115 158 200 231 285 339
#     4  11  21  34  57  86 111 157 190 229 288 358
#     4  10  22  39  56  79 118 153 197 242 285 321
#     4  10  23  40  57  83 117 155 200 248 270 320
#
# _framework density 22.148357000000001
#
# number of rings (size 3 to 8) (size 9 to 14) (size 15 to 20)
#    0.000    1.750    1.250    4.500    1.750    6.500 
#    0.000    5.000    0.000    0.000    0.000   17.500 
#    0.000    0.000    0.000    0.000    0.000    0.000 
#
# Total GULP energy -89334.030205 kJ/mol
# GULP energy per Si atom -5583.376888 kJ/mol
# Density = 2.209795 g / cm^3
# Si number density = 22.148357 Si / 1000 Ang^3
#
#
#
# Elastic Constant Matrix: (Units=GPa)
#
#
# Indices 1 2 3 4 5 6 
#
# 1 154.1505 47.8593 34.0622 -17.0151 5.9309 1.7460
# 2 47.8593 109.2923 14.7549 -23.9934 -1.8370 20.1926
# 3 34.0622 14.7549 50.3433 -13.0681 -9.2376 3.0211
# 4 -17.0151 -23.9934 -13.0681 21.0736 -1.8400 6.5630
# 5 5.9309 -1.8370 -9.2376 -1.8400 20.6715 -10.5739
# 6 1.7460 20.1926 3.0211 6.5630 -10.5739 33.9368
#
#
#
# Elastic Compliance Matrix: (Units=1/GPa)
#
#
# Indices 1 2 3 4 5 6 
#
# 1 0.009126 -0.003783 -0.006626 -0.001844 -0.005572 0.000992
# 2 -0.003783 0.019350 0.004701 0.027201 -0.001627 -0.017505
# 3 -0.006626 0.004701 0.032174 0.022827 0.016356 -0.004639
# 4 -0.001844 0.027201 0.022827 0.102898 0.003399 -0.036962
# 5 -0.005572 -0.001627 0.016356 0.003399 0.067809 0.020269
# 6 0.000992 -0.017505 -0.004639 -0.036962 0.020269 0.053707
#
#
# Mechanical properties :
#
#
# Convention : Reuss Voigt Hill
#
# Bulk Modulus (GPa) = 20.31131 56.34877 38.33004
# Shear Modulus (GPa) = 15.98002 29.61037 22.79520
#
# Velocity S-wave (km/s) = 2.68899 3.66035 3.21160
# Velocity P-wave (km/s) = 4.33951 6.58490 5.57639
#
# Compressibility (1/GPa) = 0.04923366
#
# Stress axis : x y z
#
# Youngs Moduli (GPa) = 109.58252 51.67932 31.08110
#
# Poissons Ratio (x) = 0.19551 0.20595
# Poissons Ratio (y) = 0.41457 -0.14612
# Poissons Ratio (z) = 0.72610 -0.24296
#
# Static dielectric constant tensor:
#      x y z
#    x 1.878900 -0.021890 0.022030 
#    y -0.021890 1.824260 -0.002270 
#    z 0.022030 -0.002270 1.848350 
# 
# From -- ./inp_files/455747.got.cif
#   From: 2010.05.17/outbox.cif.g08.bks.cpg/sg2_228_cif.got.tgz:455747.got - 2010.06.03 11:33:40.
