data_PCOD9001677
_publ_section_title
;
Structure prediction by ZEFSAII (Michael W. Deem and Ramdas Pophale) SiO2 
 PCOD9001677
Probable space group: P -1
;
_chemical_formula_sum "Si O2"
_cell_formula_units_Z 16
_cell_length_a 14.656746
_cell_length_b 7.635784
_cell_length_c 11.794432
_cell_angle_alpha 73.626528
_cell_angle_beta 122.469516
_cell_angle_gamma 143.713188
_cell_volume 628.288911
_symmetry_space_group_name_H-M "P -1"
_symmetry_group_IT_number 2
_symmetry_cell_setting 'triclinic'
loop_
_space_group_symop_operation_xyz
x,y,z
-x,-y,-z
loop_
_atom_site_type_symbol
_atom_site_label
_atom_site_fract_x
_atom_site_fract_y
_atom_site_fract_z
Si Si1 0.112220 0.873731 0.579081
Si Si2 0.568502 0.405960 0.328219
Si Si3 0.748906 0.344973 0.583919
Si Si4 0.769205 0.258521 0.143017
Si Si5 0.446202 0.686982 0.919541
Si Si6 0.266314 0.252289 0.078403
Si Si7 0.148500 0.313173 0.185915
Si Si8 0.131709 0.877067 0.336879
O O1 0.222622 0.875909 0.725647
O O2 0.049250 0.744101 0.433186
O O3 0.934892 0.665194 0.579042
O O4 0.268765 0.237206 0.591669
O O5 0.589038 0.250651 0.441544
O O6 0.616565 0.429766 0.226514
O O7 0.371477 0.238654 0.221445
O O8 0.786864 0.451475 0.721159
O O9 0.730611 0.106084 0.582632
O O10 0.660482 0.282951 0.111126
O O11 0.974349 0.602601 0.193205
O O12 0.662064 0.023310 0.010751
O O13 0.390958 0.459048 0.014573
O O14 0.260708 0.423943 0.124965
O O15 0.061093 0.941118 0.950128
O O16 0.165129 0.135464 0.289690
#
# Coordination Sequence:
#
# PCOD9001677 Si02
#       8
#     2   2   2   2   2   2   2   2
#     4  11  21  37  66 102 132 167 215 283 336 383
#     4  12  23  39  68 103 129 170 220 283 334 391
#     4  11  24  41  70  99 130 176 219 273 335 392
#     4  10  21  35  60  96 136 169 204 280 334 386
#     4  11  21  38  63 100 134 166 217 273 342 391
#     4  11  25  43  66  92 136 180 223 271 324 394
#     4  11  25  47  67  91 134 188 225 263 321 404
#     4  11  22  42  67  99 136 170 225 270 330 396
#
# _framework density 25.465993000000001
#
# number of rings (size 3 to 8) (size 9 to 14) (size 15 to 20)
#    0.000    1.000    3.750    4.500    3.500    0.500 
#    0.000    5.625    0.000    0.000    0.000    0.000 
#    0.000    0.000    0.000    0.000    0.000    0.000 
#
# Total GULP energy -89503.714904 kJ/mol
# GULP energy per Si atom -5593.982181 kJ/mol
# Density = 2.540803 g / cm^3
# Si number density = 25.465993 Si / 1000 Ang^3
#
#
#
# Elastic Constant Matrix: (Units=GPa)
#
#
# Indices 1 2 3 4 5 6 
#
# 1 109.7920 7.5732 41.4648 0.0146 8.3319 8.4448
# 2 7.5732 43.7864 16.7599 -10.2095 4.8112 -3.9115
# 3 41.4648 16.7599 127.7807 -5.7458 6.4626 2.2658
# 4 0.0146 -10.2095 -5.7458 37.4328 -2.3258 4.9100
# 5 8.3319 4.8112 6.4626 -2.3258 49.5569 -14.9422
# 6 8.4448 -3.9115 2.2658 4.9100 -14.9422 38.6113
#
#
#
# Elastic Compliance Matrix: (Units=1/GPa)
#
#
# Indices 1 2 3 4 5 6 
#
# 1 0.010797 -0.000750 -0.003257 -0.000447 -0.002263 -0.003065
# 2 -0.000750 0.025803 -0.002826 0.006309 -0.001210 0.001673
# 3 -0.003257 -0.002826 0.009315 0.000682 -0.000479 -0.000393
# 4 -0.000447 0.006309 0.000682 0.028929 -0.000190 -0.003055
# 5 -0.002263 -0.001210 -0.000479 -0.000190 0.023614 0.009563
# 6 -0.003065 0.001673 -0.000393 -0.003055 0.009563 0.030851
#
#
# Mechanical properties :
#
#
# Convention : Reuss Voigt Hill
#
# Bulk Modulus (GPa) = 31.00749 45.88387 38.44568
# Shear Modulus (GPa) = 32.52551 39.49095 36.00823
#
# Velocity S-wave (km/s) = 3.57769 3.94221 3.76436
# Velocity P-wave (km/s) = 5.41008 6.22721 5.83297
#
# Compressibility (1/GPa) = 0.03225027
#
# Stress axis : x y z
#
# Youngs Moduli (GPa) = 92.61492 38.75513 107.35167
#
# Poissons Ratio (x) = 0.02908 0.34960
# Poissons Ratio (y) = 0.06950 0.30333
# Poissons Ratio (z) = 0.30161 0.10951
#
# Static dielectric constant tensor:
#      x y z
#    x 1.781390 1.000130 0.552920 
#    y 1.000130 -2.203570 -2.121560 
#    z 0.552920 -2.121560 0.896690 
# 
# From -- ./inp_files/447370.got.cif
#   From: 2010.05.17/outbox.cif.g08.bks.cpg/sg2_224_cif.got.tgz:447370.got - 2010.06.03 11:33:40.
