data_PCOD9001459
_publ_section_title
;
Structure prediction by ZEFSAII (Michael W. Deem and Ramdas Pophale) SiO2 
 PCOD9001459
Probable space group: P -1
;
_chemical_formula_sum "Si O2"
_cell_formula_units_Z 16
_cell_length_a 13.014889
_cell_length_b 5.667604
_cell_length_c 12.017001
_cell_angle_alpha 99.424826
_cell_angle_beta 120.159364
_cell_angle_gamma 115.362487
_cell_volume 605.630575
_symmetry_space_group_name_H-M "P -1"
_symmetry_group_IT_number 2
_symmetry_cell_setting 'triclinic'
loop_
_space_group_symop_operation_xyz
x,y,z
-x,-y,-z
loop_
_atom_site_type_symbol
_atom_site_label
_atom_site_fract_x
_atom_site_fract_y
_atom_site_fract_z
Si Si1 0.798067 0.843734 0.264230
Si Si2 0.599136 0.833906 0.621886
Si Si3 0.596302 0.161522 0.847512
Si Si4 0.232738 0.279977 0.133305
Si Si5 0.922145 0.329392 0.060889
Si Si6 0.802070 0.404133 0.665048
Si Si7 0.697520 0.229683 0.205422
Si Si8 0.149875 0.282700 0.499340
O O1 0.721110 0.498377 0.165288
O O2 0.778431 0.830103 0.388887
O O3 0.738331 0.005441 0.182468
O O4 0.975467 0.034068 0.366958
O O5 0.500000 0.500000 0.500000
O O6 0.729779 0.869904 0.765692
O O7 0.539787 0.942707 0.692211
O O8 0.668815 0.059424 0.574764
O O9 0.630885 0.473290 0.850109
O O10 0.760335 0.256537 0.975486
O O11 0.469397 0.974928 0.854365
O O12 0.202038 0.469820 0.207780
O O13 0.107362 0.994039 0.973815
O O14 0.000000 0.500000 0.000000
O O15 0.036931 0.527967 0.238055
O O16 0.786856 0.580517 0.575452
O O17 0.812995 0.437304 0.384515
#
# Coordination Sequence:
#
# PCOD9001459 Si02
#       8
#     2   2   2   2   2   2   2   2
#     4   9  21  41  62  89 125 153 194 258 314 375
#     4  10  23  34  52  84 129 156 193 249 303 363
#     4  10  23  35  59  85 114 169 206 242 300 366
#     4  10  21  35  56  79 121 162 201 248 292 350
#     4  11  20  41  55  80 122 164 213 245 290 345
#     4  11  22  37  58  89 115 163 204 249 295 366
#     4  10  21  38  63  90 120 156 200 246 315 374
#     4   9  22  36  63  90 118 155 200 251 317 365
#
# _framework density 26.418744
#
# number of rings (size 3 to 8) (size 9 to 14) (size 15 to 20)
#    0.750    1.250    3.750    0.750    7.000    2.000 
#    0.000    0.000    0.000    1.500    0.000    0.000 
#    0.000    0.000    0.000    0.000    0.000    0.000 
#
# Total GULP energy -89361.280113 kJ/mol
# GULP energy per Si atom -5585.080007 kJ/mol
# Density = 2.635861 g / cm^3
# Si number density = 26.418744 Si / 1000 Ang^3
#
#
#
# Elastic Constant Matrix: (Units=GPa)
#
#
# Indices 1 2 3 4 5 6 
#
# 1 74.5387 51.9434 36.3014 15.8810 9.2919 1.5141
# 2 51.9434 173.7154 38.4558 26.0868 -4.2784 11.5903
# 3 36.3014 38.4558 89.6335 24.0474 9.0575 13.7034
# 4 15.8810 26.0868 24.0474 61.4376 0.5688 8.2717
# 5 9.2919 -4.2784 9.0575 0.5688 38.4989 -1.2139
# 6 1.5141 11.5903 13.7034 8.2717 -1.2139 39.8576
#
#
#
# Elastic Compliance Matrix: (Units=1/GPa)
#
#
# Indices 1 2 3 4 5 6 
#
# 1 0.020379 -0.004898 -0.005844 -0.001240 -0.003982 0.002796
# 2 -0.004898 0.007812 -0.000984 -0.001502 0.002261 -0.001366
# 3 -0.005844 -0.000984 0.015834 -0.003674 -0.002504 -0.004250
# 4 -0.001240 -0.001502 -0.003674 0.018959 0.000648 -0.002168
# 5 -0.003982 0.002261 -0.002504 0.000648 0.027800 0.001067
# 6 0.002796 -0.001366 -0.004250 -0.002168 0.001067 0.027324
#
#
# Mechanical properties :
#
#
# Convention : Reuss Voigt Hill
#
# Bulk Modulus (GPa) = 48.61164 65.69876 57.15520
# Shear Modulus (GPa) = 33.68847 42.03795 37.86321
#
# Velocity S-wave (km/s) = 3.57483 3.99333 3.78986
# Velocity P-wave (km/s) = 5.95648 6.79592 6.39000
#
# Compressibility (1/GPa) = 0.02057120
#
# Stress axis : x y z
#
# Youngs Moduli (GPa) = 49.06919 128.01579 63.15502
#
# Poissons Ratio (x) = 0.62706 0.36911
# Poissons Ratio (y) = 0.24036 0.06215
# Poissons Ratio (z) = 0.28678 0.12598
#
# Static dielectric constant tensor:
#      x y z
#    x 2.170930 0.006500 -0.023560 
#    y 0.006500 2.057390 0.025060 
#    z -0.023560 0.025060 2.154390 
# 
# From -- ./inp_files/525863.got.cif
#   From: 2010.05.17/outbox.cif.g08.bks.cpg/sg2_263_cif.got.tgz:525863.got - 2010.06.03 11:33:40.
