data_PCOD9001039
_publ_section_title
;
Structure prediction by ZEFSAII (Michael W. Deem and Ramdas Pophale) SiO2 
 PCOD9001039
Probable space group: P -1
;
_chemical_formula_sum "Si O2"
_cell_formula_units_Z 14
_cell_length_a 8.764382
_cell_length_b 5.626658
_cell_length_c 10.665312
_cell_angle_alpha 72.571756
_cell_angle_beta 84.792890
_cell_angle_gamma 85.333017
_cell_volume 498.922126
_symmetry_space_group_name_H-M "P -1"
_symmetry_group_IT_number 2
_symmetry_cell_setting 'triclinic'
loop_
_space_group_symop_operation_xyz
x,y,z
-x,-y,-z
loop_
_atom_site_type_symbol
_atom_site_label
_atom_site_fract_x
_atom_site_fract_y
_atom_site_fract_z
Si Si1 0.658131 0.736244 0.836982
Si Si2 0.617464 0.568400 0.369725
Si Si3 0.047532 0.783643 0.427943
Si Si4 0.392946 0.925353 0.636884
Si Si5 0.091550 0.071254 0.854141
Si Si6 0.691681 0.282864 0.744186
Si Si7 0.174965 0.521686 0.925036
O O1 0.510487 0.831377 0.752870
O O2 0.747765 0.535393 0.766171
O O3 0.714889 0.002387 0.840771
O O4 0.681720 0.567946 0.984242
O O5 0.500000 0.500000 0.500000
O O6 0.697133 0.311879 0.358197
O O7 0.490892 0.660811 0.260589
O O8 0.697443 0.812375 0.370893
O O9 0.229971 0.750595 0.391853
O O10 0.000000 0.500000 0.500000
O O11 0.000664 0.869418 0.275983
O O12 0.000000 0.000000 0.500000
O O13 0.500000 0.000000 0.500000
O O14 0.173016 0.320459 0.846640
O O15 0.188361 0.814766 0.860905
O O16 0.000000 0.000000 0.000000
O O17 0.000000 0.500000 0.000000
#
# Coordination Sequence:
#
# PCOD9001039 Si02
#       7
#     2   2   2   2   2   2   2
#     4  10  17  27  46  69  93 128 165 201 247 296
#     4   8  14  24  40  61  86 121 154 190 243 302
#     4  12  24  37  51  72 102 140 177 210 249 297
#     4   8  14  23  36  59  92 126 148 183 246 310
#     4  10  20  34  51  68  92 128 170 213 249 286
#     4  10  18  30  45  65  96 133 164 197 246 302
#     4  10  17  27  44  66  89 118 162 206 242 285
#
# _framework density 28.060493000000001
#
# number of rings (size 3 to 8) (size 9 to 14) (size 15 to 20)
#    0.000    2.286    0.000    6.000    0.000    0.000 
#    0.000    0.000    0.000    0.000    0.000    0.000 
#    0.000    0.000    0.000  475.714    0.000    0.000 
#
# Total GULP energy -78113.786540 kJ/mol
# GULP energy per Si atom -5579.556181 kJ/mol
# Density = 2.799663 g / cm^3
# Si number density = 28.060493 Si / 1000 Ang^3
#
#
#
# Elastic Constant Matrix: (Units=GPa)
#
#
# Indices 1 2 3 4 5 6 
#
# 1 83.3468 19.1955 39.6944 -3.1717 2.5386 -10.3653
# 2 19.1955 336.0853 66.8925 -2.1275 -12.8414 -3.2356
# 3 39.6944 66.8925 171.5445 -2.9485 33.7965 -10.9179
# 4 -3.1717 -2.1275 -2.9485 70.4287 -5.6463 -19.5861
# 5 2.5386 -12.8414 33.7965 -5.6463 49.1774 2.5222
# 6 -10.3653 -3.2356 -10.9179 -19.5861 2.5222 42.6138
#
#
#
# Elastic Compliance Matrix: (Units=1/GPa)
#
#
# Indices 1 2 3 4 5 6 
#
# 1 0.013978 -0.000044 -0.003295 0.001489 0.001541 0.003145
# 2 -0.000044 0.003406 -0.001751 0.000123 0.002123 -0.000270
# 3 -0.003295 -0.001751 0.008624 0.000130 -0.006287 0.001707
# 4 0.001489 0.000123 0.000130 0.016596 0.001363 0.007952
# 5 0.001541 0.002123 -0.006287 0.001363 0.025386 -0.001951
# 6 0.003145 -0.000270 0.001707 0.007952 -0.001951 0.028419
#
#
# Mechanical properties :
#
#
# Convention : Reuss Voigt Hill
#
# Bulk Modulus (GPa) = 63.18072 93.61570 78.39821
# Shear Modulus (GPa) = 44.69639 63.45693 54.07666
#
# Velocity S-wave (km/s) = 3.99539 4.76061 4.39469
# Velocity P-wave (km/s) = 6.62186 7.97825 7.33149
#
# Compressibility (1/GPa) = 0.01582761
#
# Stress axis : x y z
#
# Youngs Moduli (GPa) = 71.53874 293.61688 115.95256
#
# Poissons Ratio (x) = 0.01290 0.38209
# Poissons Ratio (y) = 0.00314 0.20306
# Poissons Ratio (z) = 0.23574 0.51420
#
# Static dielectric constant tensor:
#      x y z
#    x 2.203620 0.059320 -0.187050 
#    y 0.059320 2.294000 -0.039050 
#    z -0.187050 -0.039050 2.212050 
# 
# From -- ./inp_files/35456.got.cif
#   From: 2010.05.17/outbox.cif.g08.bks.cpg/sg2_18_cif.got.tgz:35456.got - 2010.06.03 11:33:40.
