data_PCOD9001467
_publ_section_title
;
Structure prediction by ZEFSAII (Michael W. Deem and Ramdas Pophale) SiO2 
 PCOD9001467
Probable space group: P -1
;
_chemical_formula_sum "Si O2"
_cell_formula_units_Z 16
_cell_length_a 12.355776
_cell_length_b 17.913214
_cell_length_c 8.253315
_cell_angle_alpha 94.905373
_cell_angle_beta 60.967478
_cell_angle_gamma 144.703819
_cell_volume 727.858182
_symmetry_space_group_name_H-M "P -1"
_symmetry_group_IT_number 2
_symmetry_cell_setting 'triclinic'
loop_
_space_group_symop_operation_xyz
x,y,z
-x,-y,-z
loop_
_atom_site_type_symbol
_atom_site_label
_atom_site_fract_x
_atom_site_fract_y
_atom_site_fract_z
Si Si1 0.939408 0.264460 0.292616
Si Si2 0.823216 0.386420 0.764921
Si Si3 0.035963 0.173034 0.385098
Si Si4 0.390229 0.001009 0.792751
Si Si5 0.680414 0.319234 0.310592
Si Si6 0.432334 0.627718 0.882546
Si Si7 0.832850 0.981292 0.169999
Si Si8 0.449602 0.877569 0.884615
O O1 0.770967 0.124050 0.263025
O O2 0.078480 0.281866 0.320188
O O3 0.171510 0.435838 0.069022
O O4 0.699537 0.180197 0.541225
O O5 0.587896 0.321168 0.949848
O O6 0.000000 0.500000 0.500000
O O7 0.031888 0.512472 0.785801
O O8 0.688938 0.234045 0.878365
O O9 0.295650 0.273773 0.291254
O O10 0.964486 0.089512 0.255835
O O11 0.769562 0.032764 0.665763
O O12 0.390674 0.933472 0.908671
O O13 0.223548 0.988102 0.924566
O O14 0.463083 0.201228 0.588921
O O15 0.660904 0.230404 0.209644
O O16 0.594417 0.339421 0.256075
O O17 0.000000 0.000000 0.000000
#
# Coordination Sequence:
#
# PCOD9001467 Si02
#       8
#     2   2   2   2   2   2   2   2
#     4   9  16  31  58  88 112 141 199 248 277 329
#     4  11  23  35  56  88 118 152 185 240 293 345
#     4   9  20  34  58  90 109 156 195 238 291 329
#     4   9  16  32  60  84 108 153 195 238 283 331
#     4  10  21  36  56  85 107 153 199 232 289 336
#     4  11  20  35  59  84 121 148 193 245 282 339
#     4  10  21  35  56  83 122 152 191 233 289 354
#     4   9  18  37  61  84 112 144 204 238 274 346
#
# _framework density 21.982302000000001
#
# number of rings (size 3 to 8) (size 9 to 14) (size 15 to 20)
#    0.000    2.250    0.000    6.375    1.750    4.500 
#    0.000    0.000    5.500    4.500    3.250    0.000 
#    0.000    0.000    0.000    0.000    0.000    0.000 
#
# Total GULP energy -89376.316514 kJ/mol
# GULP energy per Si atom -5586.019782 kJ/mol
# Density = 2.193227 g / cm^3
# Si number density = 21.982302 Si / 1000 Ang^3
#
#
#
# Elastic Constant Matrix: (Units=GPa)
#
#
# Indices 1 2 3 4 5 6 
#
# 1 214.4424 44.6314 84.4091 -11.3956 -10.9090 -4.0003
# 2 44.6314 49.0744 26.4327 -9.5696 -1.7881 4.0882
# 3 84.4091 26.4327 102.6008 -4.8887 8.0111 -12.6642
# 4 -11.3956 -9.5696 -4.8887 36.9219 -2.0595 5.1064
# 5 -10.9090 -1.7881 8.0111 -2.0595 40.5339 -2.9837
# 6 -4.0003 4.0882 -12.6642 5.1064 -2.9837 35.0950
#
#
#
# Elastic Compliance Matrix: (Units=1/GPa)
#
#
# Indices 1 2 3 4 5 6 
#
# 1 0.007938 -0.003707 -0.005854 0.000979 0.003132 -0.000652
# 2 -0.003707 0.028117 -0.004741 0.006439 0.001046 -0.006257
# 3 -0.005854 -0.004741 0.016784 -0.001883 -0.004770 0.005810
# 4 0.000979 0.006439 -0.001883 0.029675 0.002025 -0.005464
# 5 0.003132 0.001046 -0.004770 0.002025 0.026641 0.000484
# 6 -0.000652 -0.006257 0.005810 -0.005464 0.000484 0.032081
#
#
# Mechanical properties :
#
#
# Convention : Reuss Voigt Hill
#
# Bulk Modulus (GPa) = 41.26268 75.22931 58.24600
# Shear Modulus (GPa) = 28.10262 36.55314 32.32788
#
# Velocity S-wave (km/s) = 3.57938 4.08222 3.83904
# Velocity P-wave (km/s) = 5.99118 7.51774 6.79745
#
# Compressibility (1/GPa) = 0.02423498
#
# Stress axis : x y z
#
# Youngs Moduli (GPa) = 125.97208 35.56518 59.58083
#
# Poissons Ratio (x) = 0.13184 0.34879
# Poissons Ratio (y) = 0.46699 0.28248
# Poissons Ratio (z) = 0.73745 0.16862
#
# Static dielectric constant tensor:
#      x y z
#    x 1.826580 -0.009290 0.035810 
#    y -0.009290 1.889720 0.040510 
#    z 0.035810 0.040510 1.799790 
# 
# From -- ./inp_files/281911.got.cif
#   From: 2010.05.17/outbox.cif.g08.bks.cpg/sg2_141_cif.got.tgz:281911.got - 2010.06.03 11:33:40.
