data_PCOD9001674
_publ_section_title
;
Structure prediction by ZEFSAII (Michael W. Deem and Ramdas Pophale) SiO2 
 PCOD9001674
Probable space group: P -1
;
_chemical_formula_sum "Si O2"
_cell_formula_units_Z 16
_cell_length_a 11.655244
_cell_length_b 15.812398
_cell_length_c 14.706292
_cell_angle_alpha 151.922742
_cell_angle_beta 56.044676
_cell_angle_gamma 140.765603
_cell_volume 732.437037
_symmetry_space_group_name_H-M "P -1"
_symmetry_group_IT_number 2
_symmetry_cell_setting 'triclinic'
loop_
_space_group_symop_operation_xyz
x,y,z
-x,-y,-z
loop_
_atom_site_type_symbol
_atom_site_label
_atom_site_fract_x
_atom_site_fract_y
_atom_site_fract_z
Si Si1 0.920799 0.333764 0.245037
Si Si2 0.681796 0.189646 0.390707
Si Si3 0.508707 0.197188 0.739059
Si Si4 0.496821 0.390839 0.619735
Si Si5 0.861799 0.777214 0.484236
Si Si6 0.351181 0.691237 0.778379
Si Si7 0.275276 0.196536 0.246884
Si Si8 0.699371 0.709703 0.204765
O O1 0.806226 0.217971 0.281713
O O2 0.821402 0.409729 0.310125
O O3 0.153259 0.576696 0.391140
O O4 0.866484 0.102886 0.997819
O O5 0.552188 0.233741 0.453158
O O6 0.555206 0.926209 0.250146
O O7 0.359188 0.193968 0.751592
O O8 0.500000 0.000000 0.500000
O O9 0.695733 0.508158 0.969320
O O10 0.288163 0.234627 0.513782
O O11 0.660528 0.641605 0.720623
O O12 0.463850 0.431871 0.775802
O O13 0.767778 0.487178 0.247617
O O14 0.837458 0.794252 0.618936
O O15 0.088459 0.031471 0.602702
O O16 0.521522 0.697635 0.699374
O O17 0.500000 0.000000 0.000000
#
# Coordination Sequence:
#
# PCOD9001674 Si02
#       8
#     2   2   2   2   2   2   2   2
#     4  10  21  35  60  94 121 161 213 264 310 379
#     4  11  22  38  61  89 128 163 211 265 318 371
#     4  11  24  44  65  89 125 171 212 259 319 375
#     4  11  22  41  62  89 131 170 205 262 322 374
#     4  11  22  39  64  96 125 164 213 260 312 379
#     4   9  18  37  59  88 122 162 200 255 314 369
#     4  10  21  36  63  89 127 164 208 256 322 373
#     4  11  25  43  69  91 127 171 213 262 316 377
#
# _framework density 21.844881000000001
#
# number of rings (size 3 to 8) (size 9 to 14) (size 15 to 20)
#    0.000    1.500    1.250    4.875    1.750    1.500 
#    0.000    0.625    0.000    0.000    0.000    0.000 
#    0.000    0.000    0.000    0.000    0.000    0.000 
#
# Total GULP energy -89202.697953 kJ/mol
# GULP energy per Si atom -5575.168622 kJ/mol
# Density = 2.179516 g / cm^3
# Si number density = 21.844881 Si / 1000 Ang^3
#
#
#
# Elastic Constant Matrix: (Units=GPa)
#
#
# Indices 1 2 3 4 5 6 
#
# 1 110.3372 13.5344 32.4183 28.7806 -13.5444 -23.7888
# 2 13.5344 68.7601 12.7834 11.1938 -20.6426 -11.7772
# 3 32.4183 12.7834 98.4833 14.7675 -27.5299 0.4821
# 4 28.7806 11.1938 14.7675 27.7098 -1.5690 1.4900
# 5 -13.5444 -20.6426 -27.5299 -1.5690 35.5514 8.0029
# 6 -23.7888 -11.7772 0.4821 1.4900 8.0029 18.7905
#
#
#
# Elastic Compliance Matrix: (Units=1/GPa)
#
#
# Indices 1 2 3 4 5 6 
#
# 1 0.026026 0.007460 -0.005415 -0.029338 -0.000294 0.040215
# 2 0.007460 0.022599 0.000110 -0.017430 0.010678 0.020440
# 3 -0.005415 0.000110 0.015851 -0.001448 0.013057 -0.012640
# 4 -0.029338 -0.017430 -0.001448 0.076680 -0.007582 -0.050881
# 5 -0.000294 0.010678 0.013057 -0.007582 0.047018 -0.013438
# 6 0.040215 0.020440 -0.012640 -0.050881 -0.013438 0.127023
#
#
# Mechanical properties :
#
#
# Convention : Reuss Voigt Hill
#
# Bulk Modulus (GPa) = 14.53819 43.89474 29.21647
# Shear Modulus (GPa) = 14.97827 30.99998 22.98913
#
# Velocity S-wave (km/s) = 2.62136 3.77118 3.24756
# Velocity P-wave (km/s) = 3.97891 6.25298 5.24078
#
# Compressibility (1/GPa) = 0.06878433
#
# Stress axis : x y z
#
# Youngs Moduli (GPa) = 38.42290 44.25031 63.08655
#
# Poissons Ratio (x) = -0.33010 0.34163
# Poissons Ratio (y) = -0.28663 -0.00691
# Poissons Ratio (z) = 0.20807 -0.00485
#
# Static dielectric constant tensor:
#      x y z
#    x 1.789780 -0.000510 -0.019980 
#    y -0.000510 1.858940 -0.014470 
#    z -0.019980 -0.014470 1.976240 
# 
# From -- ./inp_files/522613.got.cif
#   From: 2010.05.17/outbox.cif.g08.bks.cpg/sg2_262_cif.got.tgz:522613.got - 2010.06.03 11:33:40.
