data_PCOD9001139
_publ_section_title
;
Structure prediction by ZEFSAII (Michael W. Deem and Ramdas Pophale) SiO2 
 PCOD9001139
Probable space group: P -1
;
_chemical_formula_sum "Si O2"
_cell_formula_units_Z 14
_cell_length_a 11.065268
_cell_length_b 11.403861
_cell_length_c 5.356329
_cell_angle_alpha 66.382979
_cell_angle_beta 86.030627
_cell_angle_gamma 78.137434
_cell_volume 605.996440
_symmetry_space_group_name_H-M "P -1"
_symmetry_group_IT_number 2
_symmetry_cell_setting 'triclinic'
loop_
_space_group_symop_operation_xyz
x,y,z
-x,-y,-z
loop_
_atom_site_type_symbol
_atom_site_label
_atom_site_fract_x
_atom_site_fract_y
_atom_site_fract_z
Si Si1 0.376192 0.614387 0.661649
Si Si2 0.543732 0.347199 0.878835
Si Si3 0.605457 0.850872 0.852602
Si Si4 0.332442 0.030514 0.757602
Si Si5 0.162204 0.452846 0.766677
Si Si6 0.064604 0.039707 0.706706
Si Si7 0.905291 0.662649 0.620862
O O1 0.503674 0.504736 0.742126
O O2 0.388205 0.700276 0.345640
O O3 0.264110 0.541260 0.710715
O O4 0.374270 0.686793 0.860250
O O5 0.419390 0.291927 0.968844
O O6 0.656538 0.870227 0.555737
O O7 0.463683 0.932228 0.814265
O O8 0.676480 0.904552 0.022428
O O9 0.209940 0.976201 0.762487
O O10 0.172981 0.377921 0.564905
O O11 0.032967 0.556901 0.691120
O O12 0.153517 0.357346 0.083640
O O13 0.065573 0.194590 0.554502
O O14 0.000000 0.000000 0.500000
O O15 0.000000 0.000000 0.000000
#
# Coordination Sequence:
#
# PCOD9001139 Si02
#       7
#     2   2   2   2   2   2   2
#     4  10  21  34  53  85 115 145 184 230 288 342
#     4  10  21  34  53  85 115 145 184 230 288 342
#     4  10  21  40  61  86 117 159 203 243 293 355
#     4  10  23  39  61  88 115 156 207 245 293 357
#     4  10  21  40  61  86 117 159 203 243 293 355
#     4  12  26  42  62  94 126 162 204 256 316 368
#     4  10  23  39  61  88 115 156 207 245 293 357
#
# _framework density 23.102447999999999
#
# number of rings (size 3 to 8) (size 9 to 14) (size 15 to 20)
#    0.000    1.714    0.000    3.429    4.000    2.286 
#    0.000    0.000    0.000    0.000    0.000    0.000 
#    0.000    0.000    0.000    0.000    0.000    0.000 
#
# Total GULP energy -78281.968382 kJ/mol
# GULP energy per Si atom -5591.569170 kJ/mol
# Density = 2.304987 g / cm^3
# Si number density = 23.102448 Si / 1000 Ang^3
#
#
#
# Elastic Constant Matrix: (Units=GPa)
#
#
# Indices 1 2 3 4 5 6 
#
# 1 101.6653 22.5556 45.0615 15.2181 2.3659 28.3594
# 2 22.5556 84.2170 50.5161 21.8391 9.9310 29.6717
# 3 45.0615 50.5161 186.4414 36.9972 -17.0152 19.7420
# 4 15.2181 21.8391 36.9972 46.9963 10.4088 16.4805
# 5 2.3659 9.9310 -17.0152 10.4088 36.4615 -3.8748
# 6 28.3594 29.6717 19.7420 16.4805 -3.8748 46.6456
#
#
#
# Elastic Compliance Matrix: (Units=1/GPa)
#
#
# Indices 1 2 3 4 5 6 
#
# 1 0.013248 0.001617 -0.003446 0.001618 -0.004279 -0.008551
# 2 0.001617 0.020149 -0.005653 0.001198 -0.009918 -0.012655
# 3 -0.003446 -0.005653 0.009480 -0.007450 0.008850 0.005046
# 4 0.001618 0.001198 -0.007450 0.033381 -0.014670 -0.011605
# 5 -0.004279 -0.009918 0.008850 -0.014670 0.040177 0.013685
# 6 -0.008551 -0.012655 0.005046 -0.011605 0.013685 0.037788
#
#
# Mechanical properties :
#
#
# Convention : Reuss Voigt Hill
#
# Bulk Modulus (GPa) = 35.82647 67.62112 51.72380
# Shear Modulus (GPa) = 28.01231 42.96671 35.48951
#
# Velocity S-wave (km/s) = 3.48591 4.31726 3.92366
# Velocity P-wave (km/s) = 5.63413 7.36106 6.55472
#
# Compressibility (1/GPa) = 0.02791232
#
# Stress axis : x y z
#
# Youngs Moduli (GPa) = 75.48510 49.62929 105.48676
#
# Poissons Ratio (x) = -0.08024 0.36351
# Poissons Ratio (y) = -0.12204 0.59632
# Poissons Ratio (z) = 0.26012 0.28055
#
# Static dielectric constant tensor:
#      x y z
#    x 1.872350 -0.060580 0.045580 
#    y -0.060580 1.867620 -0.035090 
#    z 0.045580 -0.035090 1.834650 
# 
# From -- ./inp_files/65570.got.cif
#   From: 2010.05.17/outbox.cif.g08.bks.cpg/sg2_33_cif.got.tgz:65570.got - 2010.06.03 11:33:40.
