data_PCOD9001626
_publ_section_title
;
Structure prediction by ZEFSAII (Michael W. Deem and Ramdas Pophale) SiO2 
 PCOD9001626
Probable space group: P -1
;
_chemical_formula_sum "Si O2"
_cell_formula_units_Z 16
_cell_length_a 5.730173
_cell_length_b 17.162426
_cell_length_c 11.528748
_cell_angle_alpha 121.507430
_cell_angle_beta 76.190772
_cell_angle_gamma 133.645770
_cell_volume 685.656723
_symmetry_space_group_name_H-M "P -1"
_symmetry_group_IT_number 2
_symmetry_cell_setting 'triclinic'
loop_
_space_group_symop_operation_xyz
x,y,z
-x,-y,-z
loop_
_atom_site_type_symbol
_atom_site_label
_atom_site_fract_x
_atom_site_fract_y
_atom_site_fract_z
Si Si1 0.139016 0.223223 0.709566
Si Si2 0.589529 0.130488 0.578861
Si Si3 0.820826 0.361733 0.301205
Si Si4 0.745185 0.853531 0.945310
Si Si5 0.388095 0.375503 0.230738
Si Si6 0.061179 0.069370 0.764727
Si Si7 0.452658 0.203394 0.439163
Si Si8 0.373832 0.563951 0.014172
O O1 0.906256 0.116067 0.753943
O O2 0.250791 0.209196 0.562179
O O3 0.455977 0.326848 0.826630
O O4 0.903644 0.240762 0.702952
O O5 0.278273 0.094772 0.649337
O O6 0.634823 0.177523 0.480147
O O7 0.500000 0.000000 0.500000
O O8 0.709937 0.430183 0.311476
O O9 0.672194 0.316097 0.412083
O O10 0.188837 0.417248 0.305773
O O11 0.611458 0.237358 0.144980
O O12 0.735241 0.855513 0.087468
O O13 0.846012 0.775300 0.837527
O O14 0.000000 0.000000 0.000000
O O15 0.488798 0.397405 0.102154
O O16 0.802536 0.922656 0.703626
O O17 0.500000 0.500000 0.000000
O O18 0.000000 0.500000 0.000000
#
# Coordination Sequence:
#
# PCOD9001626 Si02
#       8
#     2   2   2   2   2   2   2   2
#     4  11  23  40  61  93 132 173 218 288 329 389
#     4  11  21  32  60  91 135 184 216 264 327 405
#     4  10  23  39  63  93 133 179 213 263 323 403
#     4  10  21  35  59  94 137 183 219 256 325 404
#     4  10  23  44  65  95 131 169 216 282 333 384
#     4  11  19  36  55  93 136 177 219 265 326 395
#     4  11  22  36  59  95 138 179 222 248 334 416
#     4  12  28  48  77 101 125 169 233 299 348 382
#
# _framework density 23.335291999999999
#
# number of rings (size 3 to 8) (size 9 to 14) (size 15 to 20)
#    0.750    0.500    5.000    1.500    7.000    1.500 
#    0.000    0.000    0.000    4.500    0.000    0.000 
#    0.000    0.000    0.000    0.000    0.000    0.000 
#
# Total GULP energy -89072.988878 kJ/mol
# GULP energy per Si atom -5567.061805 kJ/mol
# Density = 2.328218 g / cm^3
# Si number density = 23.335292 Si / 1000 Ang^3
#
#
#
# Elastic Constant Matrix: (Units=GPa)
#
#
# Indices 1 2 3 4 5 6 
#
# 1 133.4555 34.3734 21.2812 -9.2508 16.0395 -8.5646
# 2 34.3734 36.5630 18.7067 -14.0336 6.9761 -10.3020
# 3 21.2812 18.7067 70.9666 -16.4503 19.5486 -6.4512
# 4 -9.2508 -14.0336 -16.4503 34.5725 -3.3109 8.8635
# 5 16.0395 6.9761 19.5486 -3.3109 32.3184 -1.7853
# 6 -8.5646 -10.3020 -6.4512 8.8635 -1.7853 34.0787
#
#
#
# Elastic Compliance Matrix: (Units=1/GPa)
#
#
# Indices 1 2 3 4 5 6 
#
# 1 0.010241 -0.009604 -0.000014 -0.001435 -0.003155 -0.000124
# 2 -0.009604 0.045825 -0.005907 0.011332 0.000016 0.007375
# 3 -0.000014 -0.005907 0.019837 0.006109 -0.010099 -0.000152
# 4 -0.001435 0.011332 0.006109 0.037294 -0.001916 -0.005579
# 5 -0.003155 0.000016 -0.010099 -0.001916 0.038406 -0.000189
# 6 -0.000124 0.007375 -0.000152 -0.005579 -0.000189 0.032954
#
#
# Mechanical properties :
#
#
# Convention : Reuss Voigt Hill
#
# Bulk Modulus (GPa) = 22.29543 43.30085 32.79814
# Shear Modulus (GPa) = 21.68645 31.30216 26.49431
#
# Velocity S-wave (km/s) = 3.05182 3.66650 3.37319
# Velocity P-wave (km/s) = 4.68970 6.04322 5.40896
#
# Compressibility (1/GPa) = 0.04485224
#
# Stress axis : x y z
#
# Youngs Moduli (GPa) = 97.64860 21.82194 50.41179
#
# Poissons Ratio (x) = 0.20958 0.00072
# Poissons Ratio (y) = 0.93784 0.29777
# Poissons Ratio (z) = 0.00140 0.12890
#
# Static dielectric constant tensor:
#      x y z
#    x 3.524500 -0.199470 -0.580600 
#    y -0.199470 2.133430 0.190380 
#    z -0.580600 0.190380 2.086210 
# 
# From -- ./inp_files/369440.got.cif
#   From: 2010.05.17/outbox.cif.g08.bks.cpg/sg2_185_cif.got.tgz:369440.got - 2010.06.03 11:33:40.
