data_PCOD9001770
_publ_section_title
;
Structure prediction by ZEFSAII (Michael W. Deem and Ramdas Pophale) SiO2 
 PCOD9001770
Probable space group: P -1
;
_chemical_formula_sum "Si O2"
_cell_formula_units_Z 16
_cell_length_a 11.467958
_cell_length_b 5.367026
_cell_length_c 13.165808
_cell_angle_alpha 94.293602
_cell_angle_beta 77.411727
_cell_angle_gamma 86.549063
_cell_volume 786.200209
_symmetry_space_group_name_H-M "P -1"
_symmetry_group_IT_number 2
_symmetry_cell_setting 'triclinic'
loop_
_space_group_symop_operation_xyz
x,y,z
-x,-y,-z
loop_
_atom_site_type_symbol
_atom_site_label
_atom_site_fract_x
_atom_site_fract_y
_atom_site_fract_z
Si Si1 0.214867 0.556639 0.088375
Si Si2 0.833026 0.272676 0.260367
Si Si3 0.269247 0.211037 0.638171
Si Si4 0.624749 0.427932 0.754531
Si Si5 0.934243 0.920071 0.907744
Si Si6 0.633747 0.303900 0.122689
Si Si7 0.425015 0.336499 0.434011
Si Si8 0.461671 0.062365 0.747181
O O1 0.273127 0.514617 0.186460
O O2 0.149783 0.308133 0.063073
O O3 0.131987 0.818687 0.110819
O O4 0.319381 0.610018 0.990487
O O5 0.817824 0.535826 0.330555
O O6 0.745329 0.310246 0.179839
O O7 0.964931 0.194166 0.192313
O O8 0.790053 0.039848 0.326107
O O9 0.336057 0.195043 0.517360
O O10 0.371850 0.247349 0.705387
O O11 0.494835 0.550721 0.822525
O O12 0.642859 0.506127 0.637552
O O13 0.593198 0.140619 0.748616
O O14 0.000000 0.000000 0.000000
O O15 0.600382 0.018873 0.140666
O O16 0.500000 0.500000 0.500000
O O17 0.518144 0.156943 0.346826
#
# Coordination Sequence:
#
# PCOD9001770 Si02
#       8
#     2   2   2   2   2   2   2   2
#     4  12  28  43  69  97 134 180 214 274 333 387
#     4  11  23  40  67  97 124 165 226 279 317 372
#     4  11  21  37  64  99 126 168 215 271 323 373
#     4  11  24  40  63  99 142 171 214 261 335 408
#     4  12  27  48  71  93 128 176 232 277 319 381
#     4  10  22  39  62  97 137 174 209 261 329 401
#     4  11  21  38  60  97 138 178 213 260 325 399
#     4  10  21  35  62  95 142 170 209 262 320 405
#
# _framework density 20.351047999999999
#
# number of rings (size 3 to 8) (size 9 to 14) (size 15 to 20)
#    0.000    1.000    3.750    3.375    8.750    0.500 
#    0.000    0.000    0.000    4.500    0.000    0.000 
#    0.000    0.000    0.000    0.000    0.000    0.000 
#
# Total GULP energy -89244.296651 kJ/mol
# GULP energy per Si atom -5577.768541 kJ/mol
# Density = 2.030473 g / cm^3
# Si number density = 20.351048 Si / 1000 Ang^3
#
#
#
# Elastic Constant Matrix: (Units=GPa)
#
#
# Indices 1 2 3 4 5 6 
#
# 1 61.9639 33.7267 36.3263 -2.7157 7.5704 -1.9932
# 2 33.7267 97.6207 44.9620 2.3928 6.9678 -0.4516
# 3 36.3263 44.9620 92.0475 -25.7098 0.8253 9.6369
# 4 -2.7157 2.3928 -25.7098 35.3738 -3.8779 -7.4005
# 5 7.5704 6.9678 0.8253 -3.8779 31.0916 2.7989
# 6 -1.9932 -0.4516 9.6369 -7.4005 2.7989 29.5052
#
#
#
# Elastic Compliance Matrix: (Units=1/GPa)
#
#
# Indices 1 2 3 4 5 6 
#
# 1 0.024256 -0.003419 -0.009578 -0.004649 -0.005835 0.004102
# 2 -0.003419 0.015869 -0.008670 -0.007771 -0.003574 0.001234
# 3 -0.009578 -0.008670 0.024093 0.017001 0.006204 -0.004973
# 4 -0.004649 -0.007771 0.017001 0.042430 0.007358 0.003958
# 5 -0.005835 -0.003574 0.006204 0.007358 0.035497 -0.003997
# 6 0.004102 0.001234 -0.004973 0.003958 -0.003997 0.037184
#
#
# Mechanical properties :
#
#
# Convention : Reuss Voigt Hill
#
# Bulk Modulus (GPa) = 47.88507 53.51801 50.70154
# Shear Modulus (GPa) = 21.77468 28.30195 25.03832
#
# Velocity S-wave (km/s) = 3.27456 3.73324 3.51140
# Velocity P-wave (km/s) = 6.15448 6.70353 6.43486
#
# Compressibility (1/GPa) = 0.02088334
#
# Stress axis : x y z
#
# Youngs Moduli (GPa) = 41.22768 63.01399 41.50667
#
# Poissons Ratio (x) = 0.21546 0.39755
# Poissons Ratio (y) = 0.14097 0.35986
# Poissons Ratio (z) = 0.39488 0.54633
#
# Static dielectric constant tensor:
#      x y z
#    x 1.730470 0.029500 -0.004090 
#    y 0.029500 1.931800 0.013500 
#    z -0.004090 0.013500 1.711880 
# 
# From -- ./inp_files/76128.got.cif
#   From: 2010.05.17/outbox.cif.g08.bks.cpg/sg2_39_cif.got.tgz:76128.got - 2010.06.03 11:33:40.
