data_PCOD9001791
_publ_section_title
;
Structure prediction by ZEFSAII (Michael W. Deem and Ramdas Pophale) SiO2 
 PCOD9001791
Probable space group: P -1
;
_chemical_formula_sum "Si O2"
_cell_formula_units_Z 16
_cell_length_a 11.302544
_cell_length_b 20.420768
_cell_length_c 13.650766
_cell_angle_alpha 29.013535
_cell_angle_beta 33.024054
_cell_angle_gamma 28.955931
_cell_volume 702.901181
_symmetry_space_group_name_H-M "P -1"
_symmetry_group_IT_number 2
_symmetry_cell_setting 'triclinic'
loop_
_space_group_symop_operation_xyz
x,y,z
-x,-y,-z
loop_
_atom_site_type_symbol
_atom_site_label
_atom_site_fract_x
_atom_site_fract_y
_atom_site_fract_z
Si Si1 0.044355 0.333023 0.589655
Si Si2 0.541169 0.989749 0.366447
Si Si3 0.319263 0.338987 0.082082
Si Si4 0.702572 0.506706 0.915909
Si Si5 0.674789 0.667725 0.423713
Si Si6 0.732697 0.504627 0.281605
Si Si7 0.245160 0.229397 0.965825
Si Si8 0.735961 0.045657 0.572815
O O1 0.183694 0.160056 0.667723
O O2 0.172769 0.416476 0.335610
O O3 0.113624 0.321852 0.671040
O O4 0.754029 0.487126 0.583392
O O5 0.500000 0.000000 0.500000
O O6 0.500162 0.161183 0.149224
O O7 0.327787 0.978660 0.463149
O O8 0.420177 0.372499 0.066489
O O9 0.035947 0.367251 0.266819
O O10 0.285944 0.468193 0.857031
O O11 0.940647 0.336186 0.011484
O O12 0.500000 0.500000 0.000000
O O13 0.623254 0.766059 0.231676
O O14 0.436841 0.767086 0.529491
O O15 0.500000 0.500000 0.500000
O O16 0.715249 0.660500 0.132478
O O17 0.337957 0.062811 0.170457
O O18 0.000000 0.000000 0.500000
#
# Coordination Sequence:
#
# PCOD9001791 Si02
#       8
#     2   2   2   2   2   2   2   2
#     4   9  19  37  62  94 122 181 230 267 345 415
#     4  11  21  39  71  93 134 184 234 281 349 422
#     4  10  21  41  66 101 135 175 235 291 341 435
#     4  10  21  35  63  94 134 176 227 279 342 417
#     4   9  20  38  61  90 131 173 219 285 337 405
#     4  10  22  41  67  95 134 179 225 291 362 415
#     4  10  21  39  61  96 133 170 232 284 343 419
#     4  11  24  39  66 103 137 175 227 291 358 415
#
# _framework density 22.762803000000002
#
# number of rings (size 3 to 8) (size 9 to 14) (size 15 to 20)
#    0.000    2.000    2.500    0.375    3.500    2.000 
#    0.000    1.250    0.000    0.750    0.000    0.000 
#    0.000    0.000    0.000    0.000    0.000    0.000 
#
# Total GULP energy -89154.932909 kJ/mol
# GULP energy per Si atom -5572.183307 kJ/mol
# Density = 2.271099 g / cm^3
# Si number density = 22.762803 Si / 1000 Ang^3
#
#
#
# Elastic Constant Matrix: (Units=GPa)
#
#
# Indices 1 2 3 4 5 6 
#
# 1 157.6090 39.1700 21.4503 4.7945 2.1354 18.8487
# 2 39.1700 150.9848 18.9378 -24.1309 -16.0565 19.7957
# 3 21.4503 18.9378 53.4461 9.6914 1.8474 -8.1710
# 4 4.7945 -24.1309 9.6914 19.0226 -3.6965 4.7027
# 5 2.1354 -16.0565 1.8474 -3.6965 38.8511 3.1426
# 6 18.8487 19.7957 -8.1710 4.7027 3.1426 38.0480
#
#
#
# Elastic Compliance Matrix: (Units=1/GPa)
#
#
# Indices 1 2 3 4 5 6 
#
# 1 0.007547 -0.001758 -0.002393 -0.002378 -0.001014 -0.002960
# 2 -0.001758 0.020857 -0.018443 0.044428 0.015496 -0.020712
# 3 -0.002393 -0.018443 0.040713 -0.053596 -0.016753 0.027532
# 4 -0.002378 0.044428 -0.053596 0.158691 0.040703 -0.056423
# 5 -0.001014 0.015496 -0.016753 0.040703 0.038435 -0.019363
# 6 -0.002960 -0.020712 0.027532 -0.056423 -0.019363 0.053011
#
#
# Mechanical properties :
#
#
# Convention : Reuss Voigt Hill
#
# Bulk Modulus (GPa) = 41.78889 57.90623 49.84756
# Shear Modulus (GPa) = 13.42581 38.01646 25.72113
#
# Velocity S-wave (km/s) = 2.43124 4.09114 3.36514
# Velocity P-wave (km/s) = 5.12636 6.91453 6.08647
#
# Compressibility (1/GPa) = 0.02392980
#
# Stress axis : x y z
#
# Youngs Moduli (GPa) = 132.49545 47.94622 24.56240
#
# Poissons Ratio (x) = 0.08428 0.05877
# Poissons Ratio (y) = 0.23290 0.45301
# Poissons Ratio (z) = 0.31700 0.88428
#
# Static dielectric constant tensor:
#      x y z
#    x 1.926420 -0.084840 0.016270 
#    y -0.084840 2.028270 0.065990 
#    z 0.016270 0.065990 1.863070 
# 
# From -- ./inp_files/523866.got.cif
#   From: 2010.05.17/outbox.cif.g08.bks.cpg/sg2_262_cif.got.tgz:523866.got - 2010.06.03 11:33:40.
