data_PCOD9001997
_publ_section_title
;
Structure prediction by ZEFSAII (Michael W. Deem and Ramdas Pophale) SiO2 
 PCOD9001997
Probable space group: P -1
;
_chemical_formula_sum "Si O2"
_cell_formula_units_Z 14
_cell_length_a 9.186750
_cell_length_b 9.543274
_cell_length_c 7.240401
_cell_angle_alpha 90.732489
_cell_angle_beta 117.748038
_cell_angle_gamma 88.078927
_cell_volume 561.462253
_symmetry_space_group_name_H-M "P -1"
_symmetry_group_IT_number 2
_symmetry_cell_setting 'triclinic'
loop_
_space_group_symop_operation_xyz
x,y,z
-x,-y,-z
loop_
_atom_site_type_symbol
_atom_site_label
_atom_site_fract_x
_atom_site_fract_y
_atom_site_fract_z
Si Si1 0.206152 0.513853 0.345212
Si Si2 0.030113 0.273860 0.365132
Si Si3 0.816359 0.966690 0.948342
Si Si4 0.706082 0.944376 0.482442
Si Si5 0.680512 0.267130 0.344878
Si Si6 0.547705 0.146790 0.938730
Si Si7 0.109014 0.327500 0.995535
O O1 0.162277 0.396568 0.469368
O O2 0.336885 0.621013 0.499367
O O3 0.236222 0.434615 0.164580
O O4 0.031919 0.597969 0.206243
O O5 0.117566 0.126297 0.467099
O O6 0.021356 0.282851 0.136213
O O7 0.858765 0.297858 0.363329
O O8 0.704595 0.937009 0.702677
O O9 0.823024 0.817362 0.054636
O O10 0.734188 0.102492 0.994775
O O11 0.000000 0.000000 0.000000
O O12 0.569758 0.849174 0.306389
O O13 0.689915 0.107297 0.422355
O O14 0.553220 0.264966 0.099228
O O15 0.500000 0.000000 0.000000
#
# Coordination Sequence:
#
# PCOD9001997 Si02
#       7
#     2   2   2   2   2   2   2
#     4   9  18  34  54  83 118 145 188 244 290 328
#     4   9  18  34  56  85 113 147 193 239 284 334
#     4  11  20  37  64  90 108 148 202 241 276 337
#     4  10  21  36  56  82 116 152 189 236 284 339
#     4  11  20  33  55  85 116 152 193 234 285 343
#     4  10  23  38  54  85 124 154 183 237 294 338
#     4   8  18  33  55  81 113 142 190 239 289 321
#
# _framework density 24.934892999999999
#
# number of rings (size 3 to 8) (size 9 to 14) (size 15 to 20)
#    0.857    1.429    0.000    3.857    0.000    3.429 
#    0.000    0.714    0.000    5.143    0.000    0.000 
#    0.000    0.000    0.000    0.000    0.000    0.000 
#
# Total GULP energy -78088.023908 kJ/mol
# GULP energy per Si atom -5577.715993 kJ/mol
# Density = 2.487814 g / cm^3
# Si number density = 24.934893 Si / 1000 Ang^3
#
#
#
# Elastic Constant Matrix: (Units=GPa)
#
#
# Indices 1 2 3 4 5 6 
#
# 1 48.2638 -12.1009 5.4268 -6.1012 10.4532 2.5410
# 2 -12.1009 98.2662 49.3766 19.4594 4.7151 3.7636
# 3 5.4268 49.3766 119.0962 42.7177 -2.7109 -5.1910
# 4 -6.1012 19.4594 42.7177 42.9533 1.0561 1.7847
# 5 10.4532 4.7151 -2.7109 1.0561 21.6509 6.0569
# 6 2.5410 3.7636 -5.1910 1.7847 6.0569 15.1707
#
#
#
# Elastic Compliance Matrix: (Units=1/GPa)
#
#
# Indices 1 2 3 4 5 6 
#
# 1 0.027866 0.006369 -0.007781 0.009348 -0.015164 -0.003955
# 2 0.006369 0.014821 -0.007527 0.002036 -0.005888 -0.005208
# 3 -0.007781 -0.007527 0.018278 -0.016393 0.005975 0.008968
# 4 0.009348 0.002036 -0.016393 0.040556 -0.006196 -0.009977
# 5 -0.015164 -0.005888 0.005975 -0.006196 0.060729 -0.017472
# 6 -0.003955 -0.005208 0.008968 -0.009977 -0.017472 0.079089
#
#
# Mechanical properties :
#
#
# Convention : Reuss Voigt Hill
#
# Bulk Modulus (GPa) = 23.20791 39.00347 31.10569
# Shear Modulus (GPa) = 18.27623 30.81656 24.54640
#
# Velocity S-wave (km/s) = 2.71026 3.51932 3.14095
# Velocity P-wave (km/s) = 4.37283 5.67365 5.06517
#
# Compressibility (1/GPa) = 0.04308875
#
# Stress axis : x y z
#
# Youngs Moduli (GPa) = 35.88662 67.47017 54.70965
#
# Poissons Ratio (x) = -0.42973 0.42569
# Poissons Ratio (y) = -0.22857 0.41177
# Poissons Ratio (z) = 0.27923 0.50782
#
# Static dielectric constant tensor:
#      x y z
#    x 2.166510 -0.073940 0.011420 
#    y -0.073940 2.062310 0.059410 
#    z 0.011420 0.059410 2.044590 
# 
# From -- ./inp_files/254368.got.cif
#   From: 2010.05.17/outbox.cif.g08.bks.cpg/sg2_128_cif.got.tgz:254368.got - 2010.06.03 11:33:40.
