data_PCOD9001356
_publ_section_title
;
Structure prediction by ZEFSAII (Michael W. Deem and Ramdas Pophale) SiO2 
 PCOD9001356
Probable space group: P -1
;
_chemical_formula_sum "Si O2"
_cell_formula_units_Z 16
_cell_length_a 12.566838
_cell_length_b 12.580189
_cell_length_c 5.026070
_cell_angle_alpha 93.247706
_cell_angle_beta 110.662143
_cell_angle_gamma 95.964993
_cell_volume 735.724613
_symmetry_space_group_name_H-M "P -1"
_symmetry_group_IT_number 2
_symmetry_cell_setting 'triclinic'
loop_
_space_group_symop_operation_xyz
x,y,z
-x,-y,-z
loop_
_atom_site_type_symbol
_atom_site_label
_atom_site_fract_x
_atom_site_fract_y
_atom_site_fract_z
Si Si1 0.865321 0.684377 0.676640
Si Si2 0.255867 0.035254 0.594003
Si Si3 0.923087 0.354414 0.478281
Si Si4 0.162841 0.537595 0.080821
Si Si5 0.363294 0.244838 0.522584
Si Si6 0.699471 0.190564 0.195735
Si Si7 0.383988 0.702415 0.361218
Si Si8 0.179029 0.124124 0.038632
O O1 0.848027 0.582402 0.840166
O O2 0.739501 0.695368 0.446812
O O3 0.900226 0.793814 0.894933
O O4 0.957037 0.672030 0.529637
O O5 0.359761 0.132519 0.660387
O O6 0.193137 0.030606 0.252158
O O7 0.300116 0.930412 0.728193
O O8 0.167645 0.077015 0.731873
O O9 0.910340 0.397965 0.769703
O O10 0.828833 0.250520 0.346749
O O11 0.881572 0.442291 0.250259
O O12 0.292975 0.596365 0.228125
O O13 0.486359 0.308853 0.601718
O O14 0.303142 0.200024 0.185441
O O15 0.626102 0.253376 0.344396
O O16 0.657611 0.210034 0.865080
#
# Coordination Sequence:
#
# PCOD9001356 Si02
#       8
#     2   2   2   2   2   2   2   2
#     4   9  20  38  58  77 107 142 170 222 263 307
#     4   9  18  36  51  77 106 139 179 209 259 314
#     4  10  21  37  55  84 104 133 181 218 259 315
#     4  10  21  36  57  81 105 138 174 217 266 310
#     4   8  22  34  53  78 111 135 182 208 259 314
#     4  10  21  35  56  76 110 140 171 222 265 297
#     4  10  21  35  52  81 110 136 176 217 256 318
#     4   8  20  33  51  79 106 134 180 209 254 316
#
# _framework density 21.747267999999998
#
# number of rings (size 3 to 8) (size 9 to 14) (size 15 to 20)
#    1.500    1.000    0.000    1.500    1.750    5.500 
#    0.000    3.125    0.000    5.250    0.000    0.000 
#    0.000    0.000    0.000    0.000    0.000    0.000 
#
# Total GULP energy -89198.102769 kJ/mol
# GULP energy per Si atom -5574.881423 kJ/mol
# Density = 2.169777 g / cm^3
# Si number density = 21.747268 Si / 1000 Ang^3
#
#
#
# Elastic Constant Matrix: (Units=GPa)
#
#
# Indices 1 2 3 4 5 6 
#
# 1 89.8713 -21.2554 2.2018 2.4534 1.8883 1.5442
# 2 -21.2554 -100.6341 -13.1028 9.5131 31.0650 3.7788
# 3 2.2018 -13.1028 66.3487 -0.1305 -11.4963 11.0813
# 4 2.4534 9.5131 -0.1305 22.5873 -8.7552 -8.3545
# 5 1.8883 31.0650 -11.4963 -8.7552 15.2658 -2.2808
# 6 1.5442 3.7788 11.0813 -8.3545 -2.2808 13.2561
#
#
#
# Elastic Compliance Matrix: (Units=1/GPa)
#
#
# Indices 1 2 3 4 5 6 
#
# 1 0.010707 -0.001627 -0.000351 0.000223 0.001844 -0.000032
# 2 -0.001627 -0.003338 0.000284 0.011622 0.015500 0.010895
# 3 -0.000351 0.000284 0.019645 -0.001292 0.011227 -0.015345
# 4 0.000223 0.011622 -0.001292 0.058859 0.014688 0.037363
# 5 0.001844 0.015500 0.011227 0.014688 0.051219 0.004051
# 6 -0.000032 0.010895 -0.015345 0.037363 0.004051 0.109406
#
#
# Mechanical properties :
#
#
# Convention : Reuss Voigt Hill
#
# Bulk Modulus (GPa) = 42.32598 -0.96965 20.67817
# Shear Modulus (GPa) = 19.39776 16.07132 17.73454
#
# Velocity S-wave (km/s) = 2.98982 2.72141 2.85877
# Velocity P-wave (km/s) = 5.60567 3.07050 4.51949
#
# Compressibility (1/GPa) = 0.02362615
#
# Stress axis : x y z
#
# Youngs Moduli (GPa) = 93.39985 -299.60236 50.90318
#
# Poissons Ratio (x) = -0.48731 0.01788
# Poissons Ratio (y) = 0.15192 -0.01444
# Poissons Ratio (z) = 0.03280 0.08501
#
# Static dielectric constant tensor:
#      x y z
#    x 1.802340 -0.000090 0.010680 
#    y -0.000090 1.807050 -0.000890 
#    z 0.010680 -0.000890 1.799000 
# 
# From -- ./inp_files/69895.got.cif
#   From: 2010.05.17/outbox.cif.g08.bks.cpg/sg2_35_cif.got.tgz:69895.got - 2010.06.03 11:33:40.
