data_PCOD9001847
_publ_section_title
;
Structure prediction by ZEFSAII (Michael W. Deem and Ramdas Pophale) SiO2 
 PCOD9001847
Probable space group: P -1
;
_chemical_formula_sum "Si O2"
_cell_formula_units_Z 16
_cell_length_a 8.001678
_cell_length_b 12.745732
_cell_length_c 9.031236
_cell_angle_alpha 117.465110
_cell_angle_beta 107.461561
_cell_angle_gamma 77.222284
_cell_volume 775.861002
_symmetry_space_group_name_H-M "P -1"
_symmetry_group_IT_number 2
_symmetry_cell_setting 'triclinic'
loop_
_space_group_symop_operation_xyz
x,y,z
-x,-y,-z
loop_
_atom_site_type_symbol
_atom_site_label
_atom_site_fract_x
_atom_site_fract_y
_atom_site_fract_z
Si Si1 0.406571 0.608574 0.960433
Si Si2 0.907006 0.360366 0.479354
Si Si3 0.279445 0.846174 0.178769
Si Si4 0.593224 0.941441 0.837943
Si Si5 0.939874 0.764546 0.860734
Si Si6 0.625834 0.233497 0.518867
Si Si7 0.022568 0.529357 0.854635
Si Si8 0.399668 0.475971 0.602894
O O1 0.205098 0.584337 0.914479
O O2 0.457412 0.579454 0.789965
O O3 0.500000 0.500000 0.000000
O O4 0.423874 0.740460 0.095711
O O5 0.769033 0.289263 0.489126
O O6 0.803446 0.479113 0.454295
O O7 0.992549 0.278252 0.315265
O O8 0.018194 0.414501 0.675226
O O9 0.286050 0.824939 0.344853
O O10 0.342796 0.964056 0.201909
O O11 0.094398 0.821798 0.033130
O O12 0.769002 0.857176 0.870491
O O13 0.462938 0.862541 0.664320
O O14 0.500000 0.000000 0.000000
O O15 0.890516 0.642187 0.844158
O O16 0.474462 0.343827 0.588189
O O17 0.000000 0.500000 0.000000
O O18 0.500000 0.500000 0.500000
#
# Coordination Sequence:
#
# PCOD9001847 Si02
#       8
#     2   2   2   2   2   2   2   2
#     4  11  22  39  64  98 134 167 205 270 331 383
#     4  11  21  41  66  97 133 170 214 266 329 390
#     4  11  23  45  67  95 133 171 219 268 323 390
#     4  12  28  46  67  94 126 177 231 270 320 386
#     4  11  24  44  68  93 132 173 220 271 328 385
#     4  11  24  43  68  97 134 172 216 269 324 386
#     4  11  24  38  62 102 137 170 212 263 330 396
#     4  10  21  35  67  98 132 163 210 259 331 384
#
# _framework density 20.622249
#
# number of rings (size 3 to 8) (size 9 to 14) (size 15 to 20)
#    0.000    1.000    3.750    4.125    5.250    1.000 
#    0.000    5.000    0.000    0.000    0.000    0.000 
#    0.000    0.000    0.000    0.000    0.000    0.000 
#
# Total GULP energy -89173.937550 kJ/mol
# GULP energy per Si atom -5573.371097 kJ/mol
# Density = 2.057531 g / cm^3
# Si number density = 20.622249 Si / 1000 Ang^3
#
#
#
# Elastic Constant Matrix: (Units=GPa)
#
#
# Indices 1 2 3 4 5 6 
#
# 1 83.0596 56.3360 51.4396 0.8398 -13.7367 -1.1111
# 2 56.3360 143.9245 62.0040 -6.3641 -7.2877 1.3420
# 3 51.4396 62.0040 132.4154 -9.5527 -17.2079 5.3875
# 4 0.8398 -6.3641 -9.5527 38.1821 9.8822 -2.1438
# 5 -13.7367 -7.2877 -17.2079 9.8822 38.0441 5.0593
# 6 -1.1111 1.3420 5.3875 -2.1438 5.0593 42.4729
#
#
#
# Elastic Compliance Matrix: (Units=1/GPa)
#
#
# Indices 1 2 3 4 5 6 
#
# 1 0.019532 -0.005571 -0.004648 -0.003730 0.004783 0.000519
# 2 -0.005571 0.010307 -0.002779 0.001603 -0.001733 0.000168
# 3 -0.004648 -0.002779 0.011191 0.001660 0.002644 -0.001684
# 4 -0.003730 0.001603 0.001660 0.029180 -0.008146 0.002084
# 5 0.004783 -0.001733 0.002644 -0.008146 0.031568 -0.004327
# 6 0.000519 0.000168 -0.001684 0.002084 -0.004327 0.024387
#
#
# Mechanical properties :
#
#
# Convention : Reuss Voigt Hill
#
# Bulk Modulus (GPa) = 66.50906 77.66210 72.08558
# Shear Modulus (GPa) = 31.81260 36.38114 34.09687
#
# Velocity S-wave (km/s) = 3.93190 4.20476 4.07062
# Velocity P-wave (km/s) = 7.27559 7.83035 7.55807
#
# Compressibility (1/GPa) = 0.01503555
#
# Stress axis : x y z
#
# Youngs Moduli (GPa) = 51.19828 97.01892 89.36105
#
# Poissons Ratio (x) = 0.54045 0.41533
# Poissons Ratio (y) = 0.28520 0.24831
# Poissons Ratio (z) = 0.23796 0.26959
#
# Static dielectric constant tensor:
#      x y z
#    x 1.967290 -0.257520 0.148480 
#    y -0.257520 1.984640 -0.179080 
#    z 0.148480 -0.179080 1.840280 
# 
# From -- ./inp_files/182678.got.cif
#   From: 2010.05.17/outbox.cif.g08.bks.cpg/sg2_92_cif.got.tgz:182678.got - 2010.06.03 11:33:40.
