data_PCOD9001615
_publ_section_title
;
Structure prediction by ZEFSAII (Michael W. Deem and Ramdas Pophale) SiO2 
 PCOD9001615
Probable space group: P -1
;
_chemical_formula_sum "Si O2"
_cell_formula_units_Z 14
_cell_length_a 17.883842
_cell_length_b 8.937397
_cell_length_c 20.958311
_cell_angle_alpha 141.447997
_cell_angle_beta 162.359620
_cell_angle_gamma 46.952907
_cell_volume 596.820070
_symmetry_space_group_name_H-M "P -1"
_symmetry_group_IT_number 2
_symmetry_cell_setting 'triclinic'
loop_
_space_group_symop_operation_xyz
x,y,z
-x,-y,-z
loop_
_atom_site_type_symbol
_atom_site_label
_atom_site_fract_x
_atom_site_fract_y
_atom_site_fract_z
Si Si1 0.653892 0.049404 0.805817
Si Si2 0.679866 0.849095 0.899334
Si Si3 0.849858 0.324195 0.761702
Si Si4 0.878942 0.758767 0.277046
Si Si5 0.190685 0.600240 0.780982
Si Si6 0.849561 0.497219 0.677774
Si Si7 0.358240 0.436371 0.736721
O O1 0.477407 0.223274 0.740172
O O2 0.705340 0.912850 0.865758
O O3 0.450810 0.848012 0.526801
O O4 0.931909 0.232366 0.068122
O O5 0.433541 0.589095 0.615597
O O6 0.947150 0.827762 0.136541
O O7 0.640524 0.100699 0.981384
O O8 0.829682 0.465754 0.726987
O O9 0.000000 0.500000 0.000000
O O10 0.848618 0.524264 0.223041
O O11 0.038953 0.716533 0.332762
O O12 0.583141 0.706853 0.996787
O O13 0.000000 0.000000 0.500000
O O14 0.295707 0.440306 0.762476
O O15 0.904673 0.584150 0.519655
#
# Coordination Sequence:
#
# PCOD9001615 Si02
#       7
#     2   2   2   2   2   2   2
#     4  10  22  43  65  94 132 165 210 267 311 388
#     4  11  22  41  68  91 126 171 213 258 324 379
#     4  11  26  45  68  94 126 165 213 275 330 375
#     4  11  23  36  59  91 137 169 207 256 310 372
#     4  11  21  35  62  90 126 179 209 252 311 369
#     4  10  24  40  65  98 127 166 214 260 314 384
#     4  10  21  35  59  91 125 168 214 245 304 376
#
# _framework density 23.457656
#
# number of rings (size 3 to 8) (size 9 to 14) (size 15 to 20)
#    0.000    1.429    4.286    1.286    4.000    6.857 
#    0.000    1.429    0.000    0.000    0.000    0.000 
#    0.000    0.000    0.000    0.000    0.000    0.000 
#
# Total GULP energy -78204.021568 kJ/mol
# GULP energy per Si atom -5586.001541 kJ/mol
# Density = 2.340427 g / cm^3
# Si number density = 23.457656 Si / 1000 Ang^3
#
#
#
# Elastic Constant Matrix: (Units=GPa)
#
#
# Indices 1 2 3 4 5 6 
#
# 1 49.5238 3.2579 21.7644 15.6125 -11.1168 -7.2345
# 2 3.2579 33.8893 7.3987 -4.3100 6.3087 -8.2749
# 3 21.7644 7.3987 204.8928 6.4292 0.9424 9.2731
# 4 15.6125 -4.3100 6.4292 30.2508 -3.5703 -11.4810
# 5 -11.1168 6.3087 0.9424 -3.5703 37.6924 4.2463
# 6 -7.2345 -8.2749 9.2731 -11.4810 4.2463 21.2446
#
#
#
# Elastic Compliance Matrix: (Units=1/GPa)
#
#
# Indices 1 2 3 4 5 6 
#
# 1 0.027622 -0.005643 -0.002285 -0.013996 0.007929 -0.000943
# 2 -0.005643 0.041573 -0.002688 0.018684 -0.009885 0.027517
# 3 -0.002285 -0.002688 0.005553 -0.002510 0.000032 -0.005612
# 4 -0.013996 0.018684 -0.002510 0.056107 -0.005831 0.035093
# 5 0.007929 -0.009885 0.000032 -0.005831 0.031158 -0.010544
# 6 -0.000943 0.027517 -0.005612 0.035093 -0.010544 0.080990
#
#
# Mechanical properties :
#
#
# Convention : Reuss Voigt Hill
#
# Bulk Modulus (GPa) = 18.68591 39.23865 28.96228
# Shear Modulus (GPa) = 17.72593 34.89655 26.31124
#
# Velocity S-wave (km/s) = 2.75190 3.86118 3.35274
# Velocity P-wave (km/s) = 4.25210 6.05326 5.23079
#
# Compressibility (1/GPa) = 0.05351625
#
# Stress axis : x y z
#
# Youngs Moduli (GPa) = 36.20291 24.05430 180.08402
#
# Poissons Ratio (x) = 0.13573 0.41149
# Poissons Ratio (y) = 0.20428 0.48406
# Poissons Ratio (z) = 0.08272 0.06466
#
# Static dielectric constant tensor:
#      x y z
#    x 1.892720 -0.073950 0.009480 
#    y -0.073950 1.951760 0.028670 
#    z 0.009480 0.028670 1.953760 
# 
# From -- ./inp_files/544189.got.cif
#   From: 2010.05.17/outbox.cif.g08.bks.cpg/sg2_273_cif.got.tgz:544189.got - 2010.06.03 11:33:40.
