data_PCOD9001969
_publ_section_title
;
Structure prediction by ZEFSAII (Michael W. Deem and Ramdas Pophale) SiO2 
 PCOD9001969
Probable space group: P -1
;
_chemical_formula_sum "Si O2"
_cell_formula_units_Z 14
_cell_length_a 6.817778
_cell_length_b 8.386321
_cell_length_c 10.908643
_cell_angle_alpha 69.360401
_cell_angle_beta 93.945578
_cell_angle_gamma 95.895923
_cell_volume 580.237292
_symmetry_space_group_name_H-M "P -1"
_symmetry_group_IT_number 2
_symmetry_cell_setting 'triclinic'
loop_
_space_group_symop_operation_xyz
x,y,z
-x,-y,-z
loop_
_atom_site_type_symbol
_atom_site_label
_atom_site_fract_x
_atom_site_fract_y
_atom_site_fract_z
Si Si1 0.917892 0.819234 0.102254
Si Si2 0.181271 0.224214 0.381711
Si Si3 0.145934 0.549018 0.797952
Si Si4 0.519161 0.487119 0.360098
Si Si5 0.547717 0.172755 0.856213
Si Si6 0.978934 0.913752 0.335752
Si Si7 0.342458 0.855200 0.861122
O O1 0.923782 0.632412 0.093121
O O2 0.682171 0.825768 0.110057
O O3 0.023551 0.814350 0.241398
O O4 0.000000 0.000000 0.000000
O O5 0.398972 0.312586 0.361026
O O6 0.115548 0.200677 0.527332
O O7 0.037085 0.345967 0.274259
O O8 0.150832 0.037405 0.370453
O O9 0.263567 0.509908 0.688690
O O10 0.305472 0.668390 0.850872
O O11 0.500000 0.500000 0.500000
O O12 0.419510 0.652233 0.261421
O O13 0.536115 0.993367 0.829635
O O14 0.672683 0.176801 0.984473
O O15 0.819820 0.040580 0.243866
#
# Coordination Sequence:
#
# PCOD9001969 Si02
#       7
#     2   2   2   2   2   2   2
#     4  10  21  36  55  85 120 155 193 243 298 350
#     4  10  21  41  63  84 117 159 194 245 298 340
#     4  10  23  39  62  90 116 154 205 242 285 362
#     4  11  23  39  60  89 121 155 197 244 296 350
#     4   9  20  37  58  84 121 156 192 249 298 344
#     4   9  20  39  58  83 121 152 195 248 292 349
#     4   9  18  38  59  81 117 155 193 244 294 341
#
# _framework density 24.128060000000001
#
# number of rings (size 3 to 8) (size 9 to 14) (size 15 to 20)
#    0.000    2.286    0.000    2.571    0.000   10.286 
#    0.000   17.857    0.000    0.000    0.000    0.000 
#    0.000    0.000    0.000    0.000    0.000    0.000 
#
# Total GULP energy -78124.654339 kJ/mol
# GULP energy per Si atom -5580.332453 kJ/mol
# Density = 2.407314 g / cm^3
# Si number density = 24.128060 Si / 1000 Ang^3
#
#
#
# Elastic Constant Matrix: (Units=GPa)
#
#
# Indices 1 2 3 4 5 6 
#
# 1 50.4402 -0.9795 -8.7401 -5.9849 -5.2812 15.4730
# 2 -0.9795 148.4249 31.8930 -11.4157 -13.5392 26.5608
# 3 -8.7401 31.8930 107.1281 -9.7280 0.4124 11.8133
# 4 -5.9849 -11.4157 -9.7280 47.1250 4.2162 -3.5718
# 5 -5.2812 -13.5392 0.4124 4.2162 20.6446 -5.4315
# 6 15.4730 26.5608 11.8133 -3.5718 -5.4315 35.7573
#
#
#
# Elastic Compliance Matrix: (Units=1/GPa)
#
#
# Indices 1 2 3 4 5 6 
#
# 1 0.025067 0.002392 0.002997 0.003065 0.003952 -0.012707
# 2 0.002392 0.008708 -0.001625 0.001209 0.004486 -0.006164
# 3 0.002997 -0.001625 0.010667 0.002080 -0.001909 -0.003696
# 4 0.003065 0.001209 0.002080 0.022545 -0.003377 -0.001172
# 5 0.003952 0.004486 -0.001909 -0.003377 0.054030 0.003458
# 6 -0.012707 -0.006164 -0.003696 -0.001172 0.003458 0.039673
#
#
# Mechanical properties :
#
#
# Convention : Reuss Voigt Hill
#
# Bulk Modulus (GPa) = 19.24218 38.92667 29.08442
# Shear Modulus (GPa) = 29.32831 39.62670 34.47751
#
# Velocity S-wave (km/s) = 3.49022 4.05699 3.78423
# Velocity P-wave (km/s) = 4.92286 6.17365 5.58339
#
# Compressibility (1/GPa) = 0.05196917
#
# Stress axis : x y z
#
# Youngs Moduli (GPa) = 39.89342 114.84174 93.74933
#
# Poissons Ratio (x) = -0.27465 -0.28101
# Poissons Ratio (y) = -0.09541 0.15234
# Poissons Ratio (z) = -0.11958 0.18662
#
# Static dielectric constant tensor:
#      x y z
#    x 2.033350 -0.022460 -0.038510 
#    y -0.022460 2.004300 0.020040 
#    z -0.038510 0.020040 1.904650 
# 
# From -- ./inp_files/294820.got.cif
#   From: 2010.05.17/outbox.cif.g08.bks.cpg/sg2_148_cif.got.tgz:294820.got - 2010.06.03 11:33:40.
