data_PCOD9001312
_publ_section_title
;
Structure prediction by ZEFSAII (Michael W. Deem and Ramdas Pophale) SiO2 
 PCOD9001312
Probable space group: P -1
;
_chemical_formula_sum "Si O2"
_cell_formula_units_Z 12
_cell_length_a 7.198613
_cell_length_b 9.141344
_cell_length_c 7.898932
_cell_angle_alpha 112.708885
_cell_angle_beta 107.021059
_cell_angle_gamma 86.759022
_cell_volume 457.550518
_symmetry_space_group_name_H-M "P -1"
_symmetry_group_IT_number 2
_symmetry_cell_setting 'triclinic'
loop_
_space_group_symop_operation_xyz
x,y,z
-x,-y,-z
loop_
_atom_site_type_symbol
_atom_site_label
_atom_site_fract_x
_atom_site_fract_y
_atom_site_fract_z
Si Si1 0.289310 0.823008 0.467695
Si Si2 0.389967 0.390459 0.592918
Si Si3 0.606774 0.674146 0.080708
Si Si4 0.137795 0.654829 0.658243
Si Si5 0.163926 0.242258 0.142775
Si Si6 0.347155 0.952543 0.192599
O O1 0.388307 0.658231 0.373331
O O2 0.146309 0.781839 0.566008
O O3 0.229128 0.894933 0.304787
O O4 0.467302 0.936489 0.638971
O O5 0.304465 0.298382 0.694559
O O6 0.344148 0.573837 0.683525
O O7 0.290716 0.325045 0.366471
O O8 0.453706 0.808180 0.073302
O O9 0.500000 0.500000 0.000000
O O10 0.769293 0.687070 0.986711
O O11 0.000000 0.500000 0.500000
O O12 0.051709 0.722930 0.837364
O O13 0.222021 0.060768 0.089468
#
# Coordination Sequence:
#
# PCOD9001312 Si02
#       6
#     2   2   2   2   2   2
#     4   9  18  36  65  89 116 165 207 237 304 356
#     4   9  21  38  63  87 120 160 198 255 286 354
#     4  11  24  37  65  93 115 159 214 249 294 360
#     4  10  21  34  62  95 126 157 196 250 309 359
#     4  10  22  40  61  92 123 159 197 249 314 352
#     4   9  20  38  62  87 120 158 206 253 288 362
#
# _framework density 26.226616
#
# number of rings (size 3 to 8) (size 9 to 14) (size 15 to 20)
#    0.000    2.333    0.000    2.000   14.000    1.333 
#    0.000    0.833    0.000    0.000    0.000    0.000 
#    0.000    0.000    0.000    0.000    0.000    0.000 
#
# Total GULP energy -67129.932348 kJ/mol
# GULP energy per Si atom -5594.161029 kJ/mol
# Density = 2.616692 g / cm^3
# Si number density = 26.226616 Si / 1000 Ang^3
#
#
#
# Elastic Constant Matrix: (Units=GPa)
#
#
# Indices 1 2 3 4 5 6 
#
# 1 74.1327 32.7121 34.9532 -10.3527 -28.0044 9.6942
# 2 32.7121 135.0425 49.6912 3.2761 -30.5055 8.0830
# 3 34.9532 49.6912 152.6939 -25.9189 -47.7638 21.5768
# 4 -10.3527 3.2761 -25.9189 67.1293 9.9288 -18.3245
# 5 -28.0044 -30.5055 -47.7638 9.9288 48.4991 -3.0626
# 6 9.6942 8.0830 21.5768 -18.3245 -3.0626 34.7564
#
#
#
# Elastic Compliance Matrix: (Units=1/GPa)
#
#
# Indices 1 2 3 4 5 6 
#
# 1 0.018373 -0.002241 -0.000169 0.000671 0.008682 -0.003380
# 2 -0.002241 0.009487 -0.001712 -0.002371 0.003380 -0.001471
# 3 -0.000169 -0.001712 0.010865 0.001672 0.008890 -0.004634
# 4 0.000671 -0.002371 0.001672 0.018587 -0.002701 0.008888
# 5 0.008682 0.003380 0.008890 -0.002701 0.036629 -0.006923
# 6 -0.003380 -0.001471 -0.004634 0.008888 -0.006923 0.037009
#
#
# Mechanical properties :
#
#
# Convention : Reuss Voigt Hill
#
# Bulk Modulus (GPa) = 32.80769 66.28690 49.54730
# Shear Modulus (GPa) = 33.47732 46.37782 39.92757
#
# Velocity S-wave (km/s) = 3.57664 4.20974 3.90604
# Velocity P-wave (km/s) = 5.43994 6.99705 6.26704
#
# Compressibility (1/GPa) = 0.03048066
#
# Stress axis : x y z
#
# Youngs Moduli (GPa) = 54.42634 105.40919 92.04241
#
# Poissons Ratio (x) = 0.23624 0.01558
# Poissons Ratio (y) = 0.12198 0.15755
# Poissons Ratio (z) = 0.00921 0.18043
#
# Static dielectric constant tensor:
#      x y z
#    x 2.213560 0.017010 0.076900 
#    y 0.017010 2.067290 0.036060 
#    z 0.076900 0.036060 2.156720 
# 
# From -- ./inp_files/149156.got.cif
#   From: 2010.05.17/outbox.cif.g08.bks.cpg/sg2_75_cif.got.tgz:149156.got - 2010.06.03 11:33:40.
