data_PCOD9001005
_publ_section_title
;
Structure prediction by ZEFSAII (Michael W. Deem and Ramdas Pophale) SiO2 
 PCOD9001005
Probable space group: P -1
;
_chemical_formula_sum "Si O2"
_cell_formula_units_Z 14
_cell_length_a 4.927440
_cell_length_b 9.843062
_cell_length_c 16.958111
_cell_angle_alpha 99.170856
_cell_angle_beta 72.415704
_cell_angle_gamma 79.936114
_cell_volume 752.008859
_symmetry_space_group_name_H-M "P -1"
_symmetry_group_IT_number 2
_symmetry_cell_setting 'triclinic'
loop_
_space_group_symop_operation_xyz
x,y,z
-x,-y,-z
loop_
_atom_site_type_symbol
_atom_site_label
_atom_site_fract_x
_atom_site_fract_y
_atom_site_fract_z
Si Si1 0.916859 0.427299 0.421224
Si Si2 0.428036 0.216111 0.273626
Si Si3 0.992089 0.019270 0.277732
Si Si4 0.755662 0.057838 0.909423
Si Si5 0.317525 0.865540 0.913382
Si Si6 0.516845 0.295395 0.546891
Si Si7 0.958754 0.878842 0.431688
O O1 0.726129 0.320181 0.459198
O O2 0.703968 0.553320 0.403957
O O3 0.000000 0.500000 0.500000
O O4 0.209101 0.348706 0.344365
O O5 0.503944 0.238827 0.177555
O O6 0.730000 0.149386 0.285232
O O7 0.258542 0.090181 0.280727
O O8 0.917856 0.939710 0.353154
O O9 0.095318 0.917631 0.183588
O O10 0.469914 0.999566 0.911365
O O11 0.991997 0.924383 0.914192
O O12 0.692695 0.170474 0.996603
O O13 0.738365 0.238708 0.593280
O O14 0.316713 0.187894 0.531787
O O15 0.000000 0.000000 0.500000
#
# Coordination Sequence:
#
# PCOD9001005 Si02
#       7
#     2   2   2   2   2   2   2
#     4  11  24  39  58  72 104 139 186 228 260 297
#     4  10  21  33  53  79 104 135 174 213 263 307
#     4  10  21  33  52  80 108 137 166 210 262 324
#     4   8  14  27  46  71 104 132 157 197 261 313
#     4   8  14  27  46  72 102 129 160 205 253 314
#     4  11  25  40  54  76  99 144 181 223 266 301
#     4  12  24  37  55  76 109 139 179 217 263 319
#
# _framework density 18.616800999999999
#
# number of rings (size 3 to 8) (size 9 to 14) (size 15 to 20)
#    0.000    2.000    1.429    2.143    6.000    0.000 
#    0.000    0.000    0.000    0.000    0.000    2.000 
#    0.000    0.143    0.000    0.000    0.000    0.000 
#
# Total GULP energy -78068.370513 kJ/mol
# GULP energy per Si atom -5576.312179 kJ/mol
# Density = 1.857443 g / cm^3
# Si number density = 18.616801 Si / 1000 Ang^3
#
#
#
# Elastic Constant Matrix: (Units=GPa)
#
#
# Indices 1 2 3 4 5 6 
#
# 1 70.8933 7.2445 20.8906 -4.9039 -4.1209 7.6575
# 2 7.2445 40.7561 42.5836 -8.3065 0.3868 -2.9157
# 3 20.8906 42.5836 174.1727 -3.8546 -10.5883 -8.3606
# 4 -4.9039 -8.3065 -3.8546 13.2152 -4.5378 -1.9351
# 5 -4.1209 0.3868 -10.5883 -4.5378 26.9317 0.9284
# 6 7.6575 -2.9157 -8.3606 -1.9351 0.9284 35.4820
#
#
#
# Elastic Compliance Matrix: (Units=1/GPa)
#
#
# Indices 1 2 3 4 5 6 
#
# 1 0.015556 -0.000099 -0.001717 0.005646 0.002780 -0.003535
# 2 -0.000099 0.038331 -0.008797 0.021670 -0.000452 0.002292
# 3 -0.001717 -0.008797 0.008265 -0.002655 0.002618 0.001382
# 4 0.005646 0.021670 -0.002655 0.096683 0.015634 0.004800
# 5 0.002780 -0.000452 0.002618 0.015634 0.041235 -0.000246
# 6 -0.003535 0.002292 0.001382 0.004800 -0.000246 0.029728
#
#
# Mechanical properties :
#
#
# Convention : Reuss Voigt Hill
#
# Bulk Modulus (GPa) = 24.43591 47.47329 35.95460
# Shear Modulus (GPa) = 18.89164 29.46599 24.17882
#
# Velocity S-wave (km/s) = 3.18899 3.98271 3.60775
# Velocity P-wave (km/s) = 5.16854 6.83410 6.05882
#
# Compressibility (1/GPa) = 0.04092338
#
# Stress axis : x y z
#
# Youngs Moduli (GPa) = 64.28451 26.08870 120.99163
#
# Poissons Ratio (x) = 0.00259 0.20777
# Poissons Ratio (y) = 0.00639 1.06442
# Poissons Ratio (z) = 0.11039 0.22951
#
# Static dielectric constant tensor:
#      x y z
#    x 1.669500 -0.002690 0.007740 
#    y -0.002690 1.641780 0.006560 
#    z 0.007740 0.006560 1.730910 
# 
# From -- ./inp_files/546661.got.cif
#   From: 2010.05.17/outbox.cif.g08.bks.cpg/sg2_274_cif.got.tgz:546661.got - 2010.06.03 11:33:40.
