data_PCOD9001301
_publ_section_title
;
Structure prediction by ZEFSAII (Michael W. Deem and Ramdas Pophale) SiO2 
 PCOD9001301
Probable space group: P -1
;
_chemical_formula_sum "Si O2"
_cell_formula_units_Z 16
_cell_length_a 5.199219
_cell_length_b 11.553763
_cell_length_c 15.600437
_cell_angle_alpha 73.493065
_cell_angle_beta 58.199675
_cell_angle_gamma 73.360639
_cell_volume 752.819384
_symmetry_space_group_name_H-M "P -1"
_symmetry_group_IT_number 2
_symmetry_cell_setting 'triclinic'
loop_
_space_group_symop_operation_xyz
x,y,z
-x,-y,-z
loop_
_atom_site_type_symbol
_atom_site_label
_atom_site_fract_x
_atom_site_fract_y
_atom_site_fract_z
Si Si1 0.337187 0.624667 0.120415
Si Si2 0.351969 0.746635 0.352205
Si Si3 0.995054 0.845331 0.238920
Si Si4 0.396364 0.772314 0.917795
Si Si5 0.940177 0.418172 0.445435
Si Si6 0.741045 0.517458 0.286609
Si Si7 0.538030 0.377453 0.229809
Si Si8 0.194121 0.076219 0.079739
O O1 0.547118 0.507491 0.151361
O O2 0.254499 0.754475 0.157563
O O3 0.014835 0.578608 0.191412
O O4 0.423679 0.659194 0.003004
O O5 0.666283 0.800010 0.299837
O O6 0.194599 0.699262 0.473132
O O7 0.442420 0.621242 0.306451
O O8 0.113686 0.834689 0.317608
O O9 0.998112 0.980020 0.174445
O O10 0.435386 0.725076 0.823800
O O11 0.656705 0.846207 0.890869
O O12 0.042304 0.845372 0.962556
O O13 0.736542 0.499057 0.393143
O O14 0.000000 0.500000 0.500000
O O15 0.242292 0.381616 0.341400
O O16 0.782804 0.387385 0.259114
O O17 0.500000 0.000000 0.000000
#
# Coordination Sequence:
#
# PCOD9001301 Si02
#       8
#     2   2   2   2   2   2   2   2
#     4  10  22  39  63  98 137 179 213 270 334 413
#     4  11  21  37  64 100 126 172 214 279 328 384
#     4  11  23  40  68  97 129 162 234 282 330 375
#     4  12  28  43  71  96 138 183 224 276 341 394
#     4  11  21  38  62  99 140 180 218 263 333 408
#     4  10  21  34  61  94 145 167 213 263 327 410
#     4  11  24  41  62 102 143 180 214 269 339 419
#     4  12  27  48  71  95 127 180 237 288 325 387
#
# _framework density 21.253437000000002
#
# number of rings (size 3 to 8) (size 9 to 14) (size 15 to 20)
#    0.000    1.000    3.750    3.375   10.500    0.500 
#    0.000    0.000    0.000    4.500    0.000    0.000 
#    0.000    0.000    0.000    0.000    0.000    0.000 
#
# Total GULP energy -89177.752258 kJ/mol
# GULP energy per Si atom -5573.609516 kJ/mol
# Density = 2.120506 g / cm^3
# Si number density = 21.253437 Si / 1000 Ang^3
#
#
#
# Elastic Constant Matrix: (Units=GPa)
#
#
# Indices 1 2 3 4 5 6 
#
# 1 75.8761 20.3223 17.8180 -8.6843 1.0942 16.7780
# 2 20.3223 54.0106 29.8280 -3.1727 1.8159 22.8919
# 3 17.8180 29.8280 111.4913 -6.4259 -2.5678 23.1531
# 4 -8.6843 -3.1727 -6.4259 30.9286 7.6219 0.4766
# 5 1.0942 1.8159 -2.5678 7.6219 18.5750 -1.6722
# 6 16.7780 22.8919 23.1531 0.4766 -1.6722 30.7072
#
#
#
# Elastic Compliance Matrix: (Units=1/GPa)
#
#
# Indices 1 2 3 4 5 6 
#
# 1 0.016106 -0.002548 -0.000219 0.005183 -0.003487 -0.007006
# 2 -0.002548 0.029704 -0.003672 0.003408 -0.006314 -0.018380
# 3 -0.000219 -0.003672 0.011278 0.001826 0.000674 -0.005639
# 4 0.005183 0.003408 0.001826 0.038852 -0.017074 -0.008282
# 5 -0.003487 -0.006314 0.000674 -0.017074 0.062638 0.009780
# 6 -0.007006 -0.018380 -0.005639 -0.008282 0.009780 0.055008
#
#
# Mechanical properties :
#
#
# Convention : Reuss Voigt Hill
#
# Bulk Modulus (GPa) = 22.61912 41.92386 32.27149
# Shear Modulus (GPa) = 20.72958 27.60280 24.16619
#
# Velocity S-wave (km/s) = 3.12645 3.60772 3.37567
# Velocity P-wave (km/s) = 4.86812 6.09284 5.51459
#
# Compressibility (1/GPa) = 0.04421038
#
# Stress axis : x y z
#
# Youngs Moduli (GPa) = 62.08917 33.66535 88.66548
#
# Poissons Ratio (x) = 0.08579 0.01942
# Poissons Ratio (y) = 0.15822 0.32556
# Poissons Ratio (z) = 0.01360 0.12361
#
# Static dielectric constant tensor:
#      x y z
#    x 2.056670 0.046310 0.037800 
#    y 0.046310 1.834830 0.015930 
#    z 0.037800 0.015930 1.783420 
# 
# From -- ./inp_files/77210.got.cif
#   From: 2010.05.17/outbox.cif.g08.bks.cpg/sg2_39_cif.got.tgz:77210.got - 2010.06.03 11:33:40.
