data_PCOD9001616
_publ_section_title
;
Structure prediction by ZEFSAII (Michael W. Deem and Ramdas Pophale) SiO2 
 PCOD9001616
Probable space group: P -1
;
_chemical_formula_sum "Si O2"
_cell_formula_units_Z 16
_cell_length_a 12.355860
_cell_length_b 9.313923
_cell_length_c 10.331068
_cell_angle_alpha 62.994401
_cell_angle_beta 46.256044
_cell_angle_gamma 96.009596
_cell_volume 581.264282
_symmetry_space_group_name_H-M "P -1"
_symmetry_group_IT_number 2
_symmetry_cell_setting 'triclinic'
loop_
_space_group_symop_operation_xyz
x,y,z
-x,-y,-z
loop_
_atom_site_type_symbol
_atom_site_label
_atom_site_fract_x
_atom_site_fract_y
_atom_site_fract_z
Si Si1 0.296181 0.793223 0.685983
Si Si2 0.351679 0.650383 0.317231
Si Si3 0.119775 0.775593 0.558262
Si Si4 0.950241 0.989450 0.327824
Si Si5 0.706331 0.553358 0.283307
Si Si6 0.172736 0.998946 0.818624
Si Si7 0.813060 0.433273 0.763199
Si Si8 0.730323 0.019456 0.983801
O O1 0.209714 0.782438 0.619997
O O2 0.307056 0.611044 0.732391
O O3 0.141291 0.786487 0.903605
O O4 0.500000 0.000000 0.500000
O O5 0.265305 0.773474 0.348134
O O6 0.256472 0.482899 0.583182
O O7 0.312967 0.558494 0.242944
O O8 0.577688 0.832490 0.090364
O O9 0.905557 0.573996 0.758550
O O10 0.112263 0.962517 0.510398
O O11 0.126719 0.224044 0.021021
O O12 0.052782 0.886289 0.283173
O O13 0.772407 0.886696 0.412401
O O14 0.500000 0.500000 0.500000
O O15 0.297981 0.079144 0.811417
O O16 0.000000 0.000000 0.000000
O O17 0.000000 0.500000 0.500000
O O18 0.697321 0.183542 0.977558
#
# Coordination Sequence:
#
# PCOD9001616 Si02
#       8
#     2   2   2   2   2   2   2   2
#     4  10  21  35  59  91 127 167 201 252 321 376
#     4  10  21  40  63  90 120 171 211 255 311 375
#     4   9  21  41  61  91 127 158 214 259 311 373
#     4  10  22  38  61  97 127 165 197 265 326 372
#     4  11  22  38  64  94 138 157 210 264 323 382
#     4   9  20  33  57  92 124 155 198 252 315 373
#     4  10  23  41  65  89 120 171 218 259 306 373
#     4  11  21  39  65  90 126 164 212 255 319 381
#
# _framework density 27.526205999999998
#
# number of rings (size 3 to 8) (size 9 to 14) (size 15 to 20)
#    0.000    2.000    1.250    1.875    8.750    2.500 
#    0.000    3.125    0.000    0.000    0.000    0.000 
#    0.000    0.000    0.000    0.000    0.000    0.000 
#
# Total GULP energy -89113.186491 kJ/mol
# GULP energy per Si atom -5569.574156 kJ/mol
# Density = 2.746356 g / cm^3
# Si number density = 27.526206 Si / 1000 Ang^3
#
#
#
# Elastic Constant Matrix: (Units=GPa)
#
#
# Indices 1 2 3 4 5 6 
#
# 1 178.9044 47.8084 40.2234 -12.7414 -14.4777 39.4410
# 2 47.8084 177.3676 10.9236 3.7748 -1.7895 13.4618
# 3 40.2234 10.9236 68.3787 -8.1015 1.2478 2.7057
# 4 -12.7414 3.7748 -8.1015 43.0739 3.1777 -7.3880
# 5 -14.4777 -1.7895 1.2478 3.1777 30.8747 -3.5000
# 6 39.4410 13.4618 2.7057 -7.3880 -3.5000 66.9587
#
#
#
# Elastic Compliance Matrix: (Units=1/GPa)
#
#
# Indices 1 2 3 4 5 6 
#
# 1 0.008246 -0.001624 -0.004396 0.000803 0.003404 -0.004086
# 2 -0.001624 0.006135 -0.000131 -0.001088 -0.000335 -0.000409
# 3 -0.004396 -0.000131 0.017505 0.002561 -0.002808 0.002044
# 4 0.000803 -0.001088 0.002561 0.024568 -0.002064 0.002245
# 5 0.003404 -0.000335 -0.002808 -0.002064 0.034262 -0.000261
# 6 -0.004086 -0.000409 0.002044 0.002245 -0.000261 0.017575
#
#
# Mechanical properties :
#
#
# Convention : Reuss Voigt Hill
#
# Bulk Modulus (GPa) = 51.06719 69.17348 60.12033
# Shear Modulus (GPa) = 39.33239 49.89447 44.61343
#
# Velocity S-wave (km/s) = 3.78419 4.26210 4.03024
# Velocity P-wave (km/s) = 6.13889 7.02889 6.59891
#
# Compressibility (1/GPa) = 0.01958205
#
# Stress axis : x y z
#
# Youngs Moduli (GPa) = 121.27744 163.00630 57.12559
#
# Poissons Ratio (x) = 0.26479 0.25114
# Poissons Ratio (y) = 0.19700 0.00749
# Poissons Ratio (z) = 0.53317 0.02137
#
# Static dielectric constant tensor:
#      x y z
#    x 2.404040 0.006000 -0.012480 
#    y 0.006000 2.212480 -0.074600 
#    z -0.012480 -0.074600 2.315000 
# 
# From -- ./inp_files/237743.got.cif
#   From: 2010.05.17/outbox.cif.g08.bks.cpg/sg2_119_cif.got.tgz:237743.got - 2010.06.03 11:33:40.
