data_PCOD9001293
_publ_section_title
;
Structure prediction by ZEFSAII (Michael W. Deem and Ramdas Pophale) SiO2 
 PCOD9001293
Probable space group: P -1
;
_chemical_formula_sum "Si O2"
_cell_formula_units_Z 12
_cell_length_a 14.282885
_cell_length_b 9.768647
_cell_length_c 5.744126
_cell_angle_alpha 68.172621
_cell_angle_beta 68.516718
_cell_angle_gamma 36.590849
_cell_volume 440.158045
_symmetry_space_group_name_H-M "P -1"
_symmetry_group_IT_number 2
_symmetry_cell_setting 'triclinic'
loop_
_space_group_symop_operation_xyz
x,y,z
-x,-y,-z
loop_
_atom_site_type_symbol
_atom_site_label
_atom_site_fract_x
_atom_site_fract_y
_atom_site_fract_z
Si Si1 0.325904 0.059740 0.527203
Si Si2 0.622562 0.838601 0.189885
Si Si3 0.315604 0.762917 0.503629
Si Si4 0.884598 0.408113 0.675863
Si Si5 0.039485 0.629048 0.882194
Si Si6 0.313109 0.658269 0.072219
O O1 0.318980 0.073763 0.805622
O O2 0.514227 0.871313 0.444175
O O3 0.302571 0.949415 0.454651
O O4 0.205188 0.330061 0.406943
O O5 0.500000 0.000000 0.000000
O O6 0.500000 0.500000 0.500000
O O7 0.250993 0.800365 0.281398
O O8 0.250941 0.766342 0.800699
O O9 0.978110 0.292224 0.416790
O O10 0.747954 0.439804 0.783955
O O11 0.001722 0.730531 0.112620
O O12 0.769310 0.578547 0.146153
O O13 0.000000 0.500000 0.000000
O O14 0.500000 0.500000 0.000000
#
# Coordination Sequence:
#
# PCOD9001293 Si02
#       6
#     2   2   2   2   2   2
#     4  10  23  35  60  94 129 161 202 265 323 369
#     4  10  21  34  61  90 129 153 209 260 328 354
#     4  10  23  34  52  86 135 159 199 246 322 380
#     4  11  23  42  65  92 130 168 209 264 318 373
#     4  11  24  40  63  96 129 166 213 263 316 371
#     4  10  23  36  54  88 132 160 203 251 324 376
#
# _framework density 27.262934999999999
#
# number of rings (size 3 to 8) (size 9 to 14) (size 15 to 20)
#    0.000    1.667    1.667    1.500   21.000    0.000 
#    0.000    0.000    0.000    0.000    0.000   53.667 
#    0.000    0.000    0.000    0.000    0.000    0.000 
#
# Total GULP energy -66924.662409 kJ/mol
# GULP energy per Si atom -5577.055201 kJ/mol
# Density = 2.720088 g / cm^3
# Si number density = 27.262935 Si / 1000 Ang^3
#
#
#
# Elastic Constant Matrix: (Units=GPa)
#
#
# Indices 1 2 3 4 5 6 
#
# 1 143.5151 49.8960 62.1438 -0.2255 22.8737 28.4144
# 2 49.8960 111.2448 48.4645 31.9543 5.9881 27.7344
# 3 62.1438 48.4645 235.3141 6.9665 54.3554 23.7209
# 4 -0.2255 31.9543 6.9665 33.1637 12.1359 0.0642
# 5 22.8737 5.9881 54.3554 12.1359 65.8723 11.4617
# 6 28.4144 27.7344 23.7209 0.0642 11.4617 55.5415
#
#
#
# Elastic Compliance Matrix: (Units=1/GPa)
#
#
# Indices 1 2 3 4 5 6 
#
# 1 0.010088 -0.005667 -0.000788 0.006937 -0.003389 -0.001304
# 2 -0.005667 0.020942 -0.003271 -0.022545 0.008282 -0.007844
# 3 -0.000788 -0.003271 0.006202 0.003793 -0.005329 0.000484
# 4 0.006937 -0.022545 0.003793 0.056803 -0.015561 0.009234
# 5 -0.003389 0.008282 -0.005329 -0.015561 0.023740 -0.005007
# 6 -0.001304 -0.007844 0.000484 0.009234 -0.005007 0.023404
#
#
# Mechanical properties :
#
#
# Convention : Reuss Voigt Hill
#
# Bulk Modulus (GPa) = 56.24689 90.12029 73.18359
# Shear Modulus (GPa) = 30.01960 52.88681 41.45321
#
# Velocity S-wave (km/s) = 3.32190 4.40918 3.90359
# Velocity P-wave (km/s) = 5.94890 7.68433 6.87162
#
# Compressibility (1/GPa) = 0.01777876
#
# Stress axis : x y z
#
# Youngs Moduli (GPa) = 99.12301 47.75199 161.25025
#
# Poissons Ratio (x) = 0.27059 0.12713
# Poissons Ratio (y) = 0.56169 0.52752
# Poissons Ratio (z) = 0.07815 0.15622
#
# Static dielectric constant tensor:
#      x y z
#    x 2.264630 0.078700 0.076540 
#    y 0.078700 2.530500 0.072360 
#    z 0.076540 0.072360 2.655670 
# 
# From -- ./inp_files/59337.got.cif
#   From: 2010.05.17/outbox.cif.g08.bks.cpg/sg2_30_cif.got.tgz:59337.got - 2010.06.03 11:33:40.
