data_PCOD9001045
_publ_section_title
;
Structure prediction by ZEFSAII (Michael W. Deem and Ramdas Pophale) SiO2 
 PCOD9001045
Probable space group: P -1
;
_chemical_formula_sum "Si O2"
_cell_formula_units_Z 16
_cell_length_a 5.643839
_cell_length_b 11.444560
_cell_length_c 19.760011
_cell_angle_alpha 51.055323
_cell_angle_beta 137.842377
_cell_angle_gamma 114.472795
_cell_volume 662.973983
_symmetry_space_group_name_H-M "P -1"
_symmetry_group_IT_number 2
_symmetry_cell_setting 'triclinic'
loop_
_space_group_symop_operation_xyz
x,y,z
-x,-y,-z
loop_
_atom_site_type_symbol
_atom_site_label
_atom_site_fract_x
_atom_site_fract_y
_atom_site_fract_z
Si Si1 0.796488 0.467513 0.901936
Si Si2 0.530690 0.902585 0.727276
Si Si3 0.039476 0.487173 0.592619
Si Si4 0.912796 0.304496 0.355338
Si Si5 0.065059 0.832286 0.277798
Si Si6 0.159788 0.514105 0.236266
Si Si7 0.654116 0.788449 0.078528
Si Si8 0.711533 0.094257 0.174051
O O1 0.443470 0.585698 0.780912
O O2 0.012009 0.497999 0.868994
O O3 0.687424 0.296136 0.941324
O O4 0.000000 0.500000 0.000000
O O5 0.220170 0.855570 0.630200
O O6 0.431649 0.856467 0.800040
O O7 0.915118 0.844998 0.794971
O O8 0.588664 0.078674 0.681340
O O9 0.978096 0.637772 0.569698
O O10 0.850676 0.345600 0.631194
O O11 0.452961 0.437315 0.711246
O O12 0.000000 0.500000 0.500000
O O13 0.191420 0.358273 0.340754
O O14 0.827652 0.875661 0.144288
O O15 0.826750 0.913157 0.258656
O O16 0.947465 0.648120 0.181385
O O17 0.569897 0.863340 0.960796
#
# Coordination Sequence:
#
# PCOD9001045 Si02
#       8
#     2   2   2   2   2   2   2   2
#     4  10  21  33  56  89 136 174 223 259 322 387
#     4  10  25  40  66  94 142 177 223 263 328 397
#     4  11  24  46  72  95 123 167 226 292 346 390
#     4  10  22  41  59  99 126 173 221 274 333 398
#     4  10  23  43  61  97 133 173 226 275 329 396
#     4  10  22  36  67  87 136 164 225 278 326 393
#     4  11  21  37  58  96 132 178 222 267 319 397
#     4  10  25  38  66  95 140 188 219 253 330 395
#
# _framework density 24.133679000000001
#
# number of rings (size 3 to 8) (size 9 to 14) (size 15 to 20)
#    0.750    1.000    3.750    1.125   10.500    2.000 
#    0.000    0.625    0.000    1.500    0.000    0.000 
#    0.000    0.000    0.000    0.000    0.000    0.000 
#
# Total GULP energy -89220.133918 kJ/mol
# GULP energy per Si atom -5576.258370 kJ/mol
# Density = 2.407875 g / cm^3
# Si number density = 24.133679 Si / 1000 Ang^3
#
#
#
# Elastic Constant Matrix: (Units=GPa)
#
#
# Indices 1 2 3 4 5 6 
#
# 1 95.2861 42.1283 22.5222 16.6246 -22.8023 -2.7911
# 2 42.1283 151.8830 50.5021 35.9740 -19.8765 12.0832
# 3 22.5222 50.5021 89.6116 22.3254 -27.1459 -5.7391
# 4 16.6246 35.9740 22.3254 31.5634 -13.6179 -5.1307
# 5 -22.8023 -19.8765 -27.1459 -13.6179 40.2243 8.4124
# 6 -2.7911 12.0832 -5.7391 -5.1307 8.4124 23.0012
#
#
#
# Elastic Compliance Matrix: (Units=1/GPa)
#
#
# Indices 1 2 3 4 5 6 
#
# 1 0.013289 -0.002752 0.000385 -0.001532 0.005767 0.000703
# 2 -0.002752 0.012159 -0.003994 -0.011206 0.000104 -0.010256
# 3 0.000385 -0.003994 0.016757 -0.003733 0.007731 0.002666
# 4 -0.001532 -0.011206 -0.003733 0.052803 0.005945 0.014373
# 5 0.005767 0.000104 0.007731 0.005945 0.037461 -0.009800
# 6 0.000703 -0.010256 0.002666 0.014373 -0.009800 0.056405
#
#
# Mechanical properties :
#
#
# Convention : Reuss Voigt Hill
#
# Bulk Modulus (GPa) = 33.92050 63.00955 48.46502
# Shear Modulus (GPa) = 23.64930 33.73299 28.69114
#
# Velocity S-wave (km/s) = 3.13378 3.74271 3.45170
# Velocity P-wave (km/s) = 5.21343 6.69645 6.00093
#
# Compressibility (1/GPa) = 0.02948070
#
# Stress axis : x y z
#
# Youngs Moduli (GPa) = 75.25293 82.24254 59.67817
#
# Poissons Ratio (x) = 0.22635 -0.02298
# Poissons Ratio (y) = 0.20712 0.23838
# Poissons Ratio (z) = -0.02897 0.32852
#
# Static dielectric constant tensor:
#      x y z
#    x 1.982890 0.010450 -0.039390 
#    y 0.010450 2.050980 -0.003570 
#    z -0.039390 -0.003570 1.985810 
# 
# From -- ./inp_files/549148.got.cif
#   From: 2010.05.17/outbox.cif.g08.bks.cpg/sg2_275_cif.got.tgz:549148.got - 2010.06.03 11:33:40.
