data_PCOD9001918
_publ_section_title
;
Structure prediction by ZEFSAII (Michael W. Deem and Ramdas Pophale) SiO2 
 PCOD9001918
Probable space group: P -1
;
_chemical_formula_sum "Si O2"
_cell_formula_units_Z 16
_cell_length_a 4.950213
_cell_length_b 21.029376
_cell_length_c 21.755883
_cell_angle_alpha 165.856916
_cell_angle_beta 80.357184
_cell_angle_gamma 98.332875
_cell_volume 544.126227
_symmetry_space_group_name_H-M "P -1"
_symmetry_group_IT_number 2
_symmetry_cell_setting 'triclinic'
loop_
_space_group_symop_operation_xyz
x,y,z
-x,-y,-z
loop_
_atom_site_type_symbol
_atom_site_label
_atom_site_fract_x
_atom_site_fract_y
_atom_site_fract_z
Si Si1 0.412246 0.738370 0.575226
Si Si2 0.334535 0.205103 0.627092
Si Si3 0.062088 0.611880 0.686711
Si Si4 0.410157 0.745236 0.941200
Si Si5 0.092965 0.016361 0.734847
Si Si6 0.744829 0.872624 0.829764
Si Si7 0.289348 0.521569 0.210758
Si Si8 0.764935 0.302548 0.796644
O O1 0.652736 0.517393 0.339688
O O2 0.177902 0.561697 0.443453
O O3 0.300674 0.879302 0.648759
O O4 0.474888 0.998872 0.855104
O O5 0.428113 0.371615 0.722919
O O6 0.632343 0.165717 0.613170
O O7 0.075352 0.352558 0.811540
O O8 0.235522 0.914943 0.353901
O O9 0.303824 0.388029 0.452046
O O10 0.962476 0.745330 0.751596
O O11 0.126160 0.872991 0.966418
O O12 0.649786 0.619048 0.858349
O O13 0.172260 0.872936 0.113640
O O14 0.074554 0.772101 0.461138
O O15 0.205239 0.275551 0.943400
O O16 0.500000 0.000000 0.000000
O O17 0.500000 0.500000 0.000000
#
# Coordination Sequence:
#
# PCOD9001918 Si02
#       8
#     2   2   2   2   2   2   2   2
#     4  10  21  37  57  84 114 148 194 237 299 348
#     4  10  23  39  61  92 122 160 210 253 314 373
#     4  10  21  36  55  81 114 148 188 246 284 351
#     4  10  21  38  57  84 114 149 191 244 287 363
#     4  10  22  40  58  86 118 149 198 243 295 357
#     4  10  21  36  54  81 113 148 195 235 290 351
#     4  10  23  38  59  88 115 155 195 244 298 359
#     4  10  22  42  61  91 124 161 206 260 306 378
#
# _framework density 29.404938999999999
#
# number of rings (size 3 to 8) (size 9 to 14) (size 15 to 20)
#    0.000    2.000    0.000    2.250    3.500    2.000 
#    0.000    0.000    0.000    0.000    0.000    0.000 
#    0.000    0.000    0.000    0.000    0.000    0.000 
#
# Total GULP energy -89430.025163 kJ/mol
# GULP energy per Si atom -5589.376573 kJ/mol
# Density = 2.933801 g / cm^3
# Si number density = 29.404939 Si / 1000 Ang^3
#
#
#
# Elastic Constant Matrix: (Units=GPa)
#
#
# Indices 1 2 3 4 5 6 
#
# 1 128.6278 22.2570 63.6471 -1.4923 -0.5402 37.6653
# 2 22.2570 101.1990 74.6179 10.2682 -0.5239 52.7759
# 3 63.6471 74.6179 306.3329 2.2288 -16.6489 39.7883
# 4 -1.4923 10.2682 2.2288 41.0967 19.4597 -7.9653
# 5 -0.5402 -0.5239 -16.6489 19.4597 53.9767 -1.7040
# 6 37.6653 52.7759 39.7883 -7.9653 -1.7040 55.5959
#
#
#
# Elastic Compliance Matrix: (Units=1/GPa)
#
#
# Indices 1 2 3 4 5 6 
#
# 1 0.011334 0.005716 -0.002138 -0.003405 0.000357 -0.012052
# 2 0.005716 0.028847 -0.003993 -0.014212 0.003272 -0.030335
# 3 -0.002138 -0.003993 0.004462 0.000532 0.001193 0.002158
# 4 -0.003405 -0.014212 0.000532 0.037854 -0.013010 0.020442
# 5 0.000357 0.003272 0.001193 -0.013010 0.023451 -0.005346
# 6 -0.012052 -0.030335 0.002158 0.020442 -0.005346 0.056168
#
#
# Mechanical properties :
#
#
# Convention : Reuss Voigt Hill
#
# Bulk Modulus (GPa) = 22.82395 95.24485 59.03440
# Shear Modulus (GPa) = 28.16094 55.17638 41.66866
#
# Velocity S-wave (km/s) = 3.09802 4.33648 3.76847
# Velocity P-wave (km/s) = 4.53605 7.58515 6.24941
#
# Compressibility (1/GPa) = 0.04381363
#
# Stress axis : x y z
#
# Youngs Moduli (GPa) = 88.22925 34.66506 224.12310
#
# Poissons Ratio (x) = -0.19814 0.47910
# Poissons Ratio (y) = -0.50431 0.89495
# Poissons Ratio (z) = 0.18861 0.13842
#
# Static dielectric constant tensor:
#      x y z
#    x 2.450530 -0.209000 0.181820 
#    y -0.209000 2.495860 -0.126070 
#    z 0.181820 -0.126070 2.480020 
# 
# From -- ./inp_files/12464.got.cif
#   From: 2010.05.17/outbox.cif.g08.bks.cpg/sg2_7_cif.got.tgz:12464.got - 2010.06.03 11:33:40.
