data_PCOD9001208
_publ_section_title
;
Structure prediction by ZEFSAII (Michael W. Deem and Ramdas Pophale) SiO2 
 PCOD9001208
Probable space group: P -1
;
_chemical_formula_sum "Si O2"
_cell_formula_units_Z 14
_cell_length_a 10.813938
_cell_length_b 12.661794
_cell_length_c 11.253113
_cell_angle_alpha 29.633286
_cell_angle_beta 70.676372
_cell_angle_gamma 69.313034
_cell_volume 711.784912
_symmetry_space_group_name_H-M "P -1"
_symmetry_group_IT_number 2
_symmetry_cell_setting 'triclinic'
loop_
_space_group_symop_operation_xyz
x,y,z
-x,-y,-z
loop_
_atom_site_type_symbol
_atom_site_label
_atom_site_fract_x
_atom_site_fract_y
_atom_site_fract_z
Si Si1 0.216647 0.154382 0.917909
Si Si2 0.447066 0.367042 0.755118
Si Si3 0.626641 0.999803 0.198399
Si Si4 0.694091 0.326168 0.045245
Si Si5 0.063292 0.546165 0.275519
Si Si6 0.073285 0.803448 0.247189
Si Si7 0.544619 0.337944 0.319196
O O1 0.330036 0.238091 0.876652
O O2 0.079484 0.308053 0.834512
O O3 0.271074 0.153107 0.766398
O O4 0.182020 0.910121 0.181319
O O5 0.500000 0.500000 0.500000
O O6 0.405486 0.533887 0.711539
O O7 0.560367 0.188444 0.947539
O O8 0.514387 0.870239 0.411401
O O9 0.692702 0.112456 0.175132
O O10 0.833082 0.411637 0.898017
O O11 0.579778 0.504788 0.851981
O O12 0.652024 0.288832 0.229544
O O13 0.121427 0.624756 0.306010
O O14 0.027247 0.306704 0.533008
O O15 0.000000 0.000000 0.000000
#
# Coordination Sequence:
#
# PCOD9001208 Si02
#       7
#     2   2   2   2   2   2   2
#     4  11  22  34  56  90 116 145 189 235 293 344
#     4  11  24  38  58  88 117 153 193 239 290 344
#     4  11  22  36  63  87 115 152 190 244 293 339
#     4  10  22  40  59  87 117 153 196 237 288 341
#     4  10  21  34  57  83 118 151 186 242 290 337
#     4   9  20  32  51  85 115 150 183 234 286 339
#     4  10  23  39  60  85 118 155 194 238 284 348
#
# _framework density 19.668863999999999
#
# number of rings (size 3 to 8) (size 9 to 14) (size 15 to 20)
#    0.000    1.714    2.857    0.857    8.000    0.000 
#    0.000    0.714    0.000    1.714    0.000    0.000 
#    0.000    0.000    0.000    0.000    0.000    0.000 
#
# Total GULP energy -78163.602398 kJ/mol
# GULP energy per Si atom -5583.114457 kJ/mol
# Density = 1.962410 g / cm^3
# Si number density = 19.668864 Si / 1000 Ang^3
#
#
#
# Elastic Constant Matrix: (Units=GPa)
#
#
# Indices 1 2 3 4 5 6 
#
# 1 68.7457 52.5843 39.8739 3.4261 -28.8033 2.0993
# 2 52.5843 116.9613 62.9879 23.4538 -19.5753 -1.7457
# 3 39.8739 62.9879 149.4160 8.8048 -38.2827 3.4719
# 4 3.4261 23.4538 8.8048 34.7645 -3.1867 -12.0982
# 5 -28.8033 -19.5753 -38.2827 -3.1867 40.4749 -3.3082
# 6 2.0993 -1.7457 3.4719 -12.0982 -3.3082 31.8420
#
#
#
# Elastic Compliance Matrix: (Units=1/GPa)
#
#
# Indices 1 2 3 4 5 6 
#
# 1 0.030705 -0.013108 0.001322 0.007741 0.017525 0.001875
# 2 -0.013108 0.018372 -0.005172 -0.011255 -0.006425 -0.002508
# 3 0.001322 -0.005172 0.010645 0.001418 0.008612 -0.000098
# 4 0.007741 -0.011255 0.001418 0.040952 0.005848 0.014885
# 5 0.017525 -0.006425 0.008612 0.005848 0.043023 0.004245
# 6 0.001875 -0.002508 -0.000098 0.014885 0.004245 0.037251
#
#
# Mechanical properties :
#
#
# Convention : Reuss Voigt Hill
#
# Bulk Modulus (GPa) = 38.74833 71.77947 55.26390
# Shear Modulus (GPa) = 22.37460 33.39474 27.88467
#
# Velocity S-wave (km/s) = 3.37644 4.12497 3.76933
# Velocity P-wave (km/s) = 5.91131 7.69807 6.86308
#
# Compressibility (1/GPa) = 0.02580756
#
# Stress axis : x y z
#
# Youngs Moduli (GPa) = 32.56747 54.42971 93.93768
#
# Poissons Ratio (x) = 0.71347 -0.12418
# Poissons Ratio (y) = 0.42690 0.48582
# Poissons Ratio (z) = -0.04305 0.28149
#
# Static dielectric constant tensor:
#      x y z
#    x 1.734320 -0.010820 0.005190 
#    y -0.010820 1.694580 -0.029900 
#    z 0.005190 -0.029900 1.730390 
# 
# From -- ./inp_files/75475.got.cif
#   From: 2010.05.17/outbox.cif.g08.bks.cpg/sg2_38_cif.got.tgz:75475.got - 2010.06.03 11:33:40.
