data_PCOD9001670
_publ_section_title
;
Structure prediction by ZEFSAII (Michael W. Deem and Ramdas Pophale) SiO2 
 PCOD9001670
Probable space group: P -1
;
_chemical_formula_sum "Si O2"
_cell_formula_units_Z 16
_cell_length_a 11.611456
_cell_length_b 6.078712
_cell_length_c 11.369507
_cell_angle_alpha 80.138915
_cell_angle_beta 109.373820
_cell_angle_gamma 90.838677
_cell_volume 745.095886
_symmetry_space_group_name_H-M "P -1"
_symmetry_group_IT_number 2
_symmetry_cell_setting 'triclinic'
loop_
_space_group_symop_operation_xyz
x,y,z
-x,-y,-z
loop_
_atom_site_type_symbol
_atom_site_label
_atom_site_fract_x
_atom_site_fract_y
_atom_site_fract_z
Si Si1 0.088915 0.766793 0.949984
Si Si2 0.304250 0.611212 0.634171
Si Si3 0.872355 0.548946 0.232503
Si Si4 0.307000 0.064013 0.960525
Si Si5 0.524428 0.276285 0.105641
Si Si6 0.328774 0.936745 0.390541
Si Si7 0.083935 0.808500 0.199881
Si Si8 0.576302 0.708972 0.465598
O O1 0.118209 0.606655 0.865491
O O2 0.205817 0.915377 0.994328
O O3 0.071827 0.676020 0.084006
O O4 0.980471 0.945989 0.864183
O O5 0.177048 0.590246 0.662050
O O6 0.408357 0.662194 0.758932
O O7 0.309291 0.798448 0.518075
O O8 0.342047 0.375935 0.606765
O O9 0.766180 0.738878 0.152383
O O10 0.999896 0.672965 0.273948
O O11 0.388286 0.904126 0.917120
O O12 0.393630 0.167963 0.077356
O O13 0.500000 0.500000 0.000000
O O14 0.219937 0.852725 0.282421
O O15 0.463268 0.883200 0.386237
O O16 0.337885 0.191486 0.414150
O O17 0.500000 0.500000 0.500000
#
# Coordination Sequence:
#
# PCOD9001670 Si02
#       8
#     2   2   2   2   2   2   2   2
#     4  10  21  41  62  92 124 168 210 273 314 371
#     4  11  23  38  65  93 131 167 203 264 321 381
#     4  11  22  41  63  94 131 164 212 265 322 378
#     4  10  21  35  60  92 129 162 207 256 322 381
#     4  11  21  36  58  94 127 166 201 255 318 380
#     4  10  23  43  63  93 125 168 214 260 313 381
#     4  10  24  41  65  89 124 171 219 261 315 378
#     4   9  22  42  64  91 126 165 208 259 317 377
#
# _framework density 21.473748000000001
#
# number of rings (size 3 to 8) (size 9 to 14) (size 15 to 20)
#    0.000    1.750    2.500    0.375    1.750    7.500 
#    0.000    1.250    0.000    0.000    0.000    0.000 
#    0.000    0.000    0.000    0.000    0.000    0.000 
#
# Total GULP energy -89310.717643 kJ/mol
# GULP energy per Si atom -5581.919853 kJ/mol
# Density = 2.142487 g / cm^3
# Si number density = 21.473748 Si / 1000 Ang^3
#
#
#
# Elastic Constant Matrix: (Units=GPa)
#
#
# Indices 1 2 3 4 5 6 
#
# 1 72.6204 12.2631 4.4736 6.1226 -7.7969 8.8660
# 2 12.2631 74.4896 18.9579 19.7412 -9.5651 -10.6130
# 3 4.4736 18.9579 64.2272 16.1035 -3.3765 -0.3082
# 4 6.1226 19.7412 16.1035 31.5540 5.3398 -5.9827
# 5 -7.7969 -9.5651 -3.3765 5.3398 33.1382 6.6856
# 6 8.8660 -10.6130 -0.3082 -5.9827 6.6856 40.1067
#
#
#
# Elastic Compliance Matrix: (Units=1/GPa)
#
#
# Indices 1 2 3 4 5 6 
#
# 1 0.015560 -0.001773 0.000709 -0.004126 0.004965 -0.005346
# 2 -0.001773 0.018150 -0.002348 -0.010265 0.005692 0.002697
# 3 0.000709 -0.002348 0.018708 -0.009285 0.003414 -0.002588
# 4 -0.004126 -0.010265 -0.009285 0.047461 -0.014050 0.007546
# 5 0.004965 0.005692 0.003414 -0.014050 0.037185 -0.007859
# 6 -0.005346 0.002697 -0.002588 0.007546 -0.007859 0.029245
#
#
# Mechanical properties :
#
#
# Convention : Reuss Voigt Hill
#
# Bulk Modulus (GPa) = 21.93230 31.41404 26.67317
# Shear Modulus (GPa) = 26.54915 32.66928 29.60921
#
# Velocity S-wave (km/s) = 3.52000 3.90469 3.71732
# Velocity P-wave (km/s) = 5.17264 5.91520 5.55634
#
# Compressibility (1/GPa) = 0.04559484
#
# Stress axis : x y z
#
# Youngs Moduli (GPa) = 64.26929 55.09753 53.45197
#
# Poissons Ratio (x) = 0.09768 -0.03792
# Poissons Ratio (y) = 0.11394 0.12550
# Poissons Ratio (z) = -0.04559 0.12936
#
# Static dielectric constant tensor:
#      x y z
#    x 1.806070 0.004890 -0.022290 
#    y 0.004890 1.840040 -0.027150 
#    z -0.022290 -0.027150 1.778470 
# 
# From -- ./inp_files/410631.got.cif
#   From: 2010.05.17/outbox.cif.g08.bks.cpg/sg2_206_cif.got.tgz:410631.got - 2010.06.03 11:33:40.
