data_PCOD9001654
_publ_section_title
;
Structure prediction by ZEFSAII (Michael W. Deem and Ramdas Pophale) SiO2 
 PCOD9001654
Probable space group: P -1
;
_chemical_formula_sum "Si O2"
_cell_formula_units_Z 16
_cell_length_a 14.716987
_cell_length_b 11.686778
_cell_length_c 9.724794
_cell_angle_alpha 127.226966
_cell_angle_beta 38.986210
_cell_angle_gamma 108.306759
_cell_volume 796.142973
_symmetry_space_group_name_H-M "P -1"
_symmetry_group_IT_number 2
_symmetry_cell_setting 'triclinic'
loop_
_space_group_symop_operation_xyz
x,y,z
-x,-y,-z
loop_
_atom_site_type_symbol
_atom_site_label
_atom_site_fract_x
_atom_site_fract_y
_atom_site_fract_z
Si Si1 0.927301 0.675364 0.688525
Si Si2 0.335582 0.335420 0.832944
Si Si3 0.835925 0.987613 0.543174
Si Si4 0.761885 0.315400 0.770778
Si Si5 0.427525 0.042435 0.352857
Si Si6 0.385185 0.773651 0.374832
Si Si7 0.220935 0.113395 0.179799
Si Si8 0.905920 0.068042 0.021909
O O1 0.836409 0.714979 0.680126
O O2 0.000000 0.500000 0.500000
O O3 0.077908 0.723724 0.527763
O O4 0.804983 0.717968 0.985384
O O5 0.411280 0.213136 0.539342
O O6 0.460804 0.307656 0.785977
O O7 0.279522 0.514977 0.997491
O O8 0.791027 0.170883 0.730829
O O9 0.688500 0.955381 0.630356
O O10 0.865660 0.919115 0.609786
O O11 0.971759 0.916904 0.223597
O O12 0.637885 0.305835 0.797120
O O13 0.386030 0.941773 0.450468
O O14 0.601636 0.953456 0.050761
O O15 0.237231 0.793389 0.658477
O O16 0.177639 0.034590 0.037863
O O17 0.000000 0.000000 0.000000
#
# Coordination Sequence:
#
# PCOD9001654 Si02
#       8
#     2   2   2   2   2   2   2   2
#     4  10  21  35  60  90 122 158 200 251 307 359
#     4  11  21  37  59  90 121 161 205 259 305 354
#     4  11  25  39  64  92 126 165 204 255 306 369
#     4  10  22  37  57  89 127 158 202 251 310 365
#     4  11  22  37  63  90 122 164 211 253 298 366
#     4  11  20  35  61  92 119 158 209 262 298 357
#     4  12  22  41  63  91 126 165 207 249 311 370
#     4  12  21  36  63  93 121 150 212 262 299 351
#
# _framework density 20.096893000000001
#
# number of rings (size 3 to 8) (size 9 to 14) (size 15 to 20)
#    0.000    1.000    6.250    2.250    1.750    0.000 
#    0.000    0.625    0.000    4.500    0.000    0.000 
#    0.000    0.000    0.000    0.000    0.000    0.000 
#
# Total GULP energy -89200.459854 kJ/mol
# GULP energy per Si atom -5575.028741 kJ/mol
# Density = 2.005115 g / cm^3
# Si number density = 20.096893 Si / 1000 Ang^3
#
#
#
# Elastic Constant Matrix: (Units=GPa)
#
#
# Indices 1 2 3 4 5 6 
#
# 1 50.9157 9.1317 14.2211 -5.4787 -6.0788 1.0380
# 2 9.1317 76.5236 36.3713 10.8897 12.9695 -12.2243
# 3 14.2211 36.3713 77.0186 -2.7737 -6.5618 -10.4680
# 4 -5.4787 10.8897 -2.7737 31.9758 -0.6100 -1.9287
# 5 -6.0788 12.9695 -6.5618 -0.6100 27.0648 -9.1344
# 6 1.0380 -12.2243 -10.4680 -1.9287 -9.1344 31.5834
#
#
#
# Elastic Compliance Matrix: (Units=1/GPa)
#
#
# Indices 1 2 3 4 5 6 
#
# 1 0.022066 -0.003674 -0.001716 0.004964 0.006204 -0.000619
# 2 -0.003674 0.023068 -0.011803 -0.009779 -0.014882 0.000236
# 3 -0.001716 -0.011803 0.021069 0.006190 0.012721 0.006528
# 4 0.004964 -0.009779 0.006190 0.036344 0.009120 0.002960
# 5 0.006204 -0.014882 0.012721 0.009120 0.053592 0.014309
# 6 -0.000619 0.000236 0.006528 0.002960 0.014309 0.038257
#
#
# Mechanical properties :
#
#
# Convention : Reuss Voigt Hill
#
# Bulk Modulus (GPa) = 31.43103 35.98957 33.71030
# Shear Modulus (GPa) = 20.88664 27.77373 24.33018
#
# Velocity S-wave (km/s) = 3.22731 3.72155 3.48321
# Velocity P-wave (km/s) = 5.43701 6.03436 5.74345
#
# Compressibility (1/GPa) = 0.03181569
#
# Stress axis : x y z
#
# Youngs Moduli (GPa) = 45.31853 43.35048 47.46384
#
# Poissons Ratio (x) = 0.15928 0.08145
# Poissons Ratio (y) = 0.16652 0.56022
# Poissons Ratio (z) = 0.07777 0.51167
#
# Static dielectric constant tensor:
#      x y z
#    x 1.714170 0.014860 -0.024320 
#    y 0.014860 1.835070 0.024760 
#    z -0.024320 0.024760 1.749680 
# 
# From -- ./inp_files/274300.got.cif
#   From: 2010.05.17/outbox.cif.g08.bks.cpg/sg2_138_cif.got.tgz:274300.got - 2010.06.03 11:33:40.
