data_PCOD9001639
_publ_section_title
;
Structure prediction by ZEFSAII (Michael W. Deem and Ramdas Pophale) SiO2 
 PCOD9001639
Probable space group: P -1
;
_chemical_formula_sum "Si O2"
_cell_formula_units_Z 12
_cell_length_a 7.745062
_cell_length_b 19.262305
_cell_length_c 13.350977
_cell_angle_alpha 153.773559
_cell_angle_beta 50.199419
_cell_angle_gamma 109.524361
_cell_volume 478.304807
_symmetry_space_group_name_H-M "P -1"
_symmetry_group_IT_number 2
_symmetry_cell_setting 'triclinic'
loop_
_space_group_symop_operation_xyz
x,y,z
-x,-y,-z
loop_
_atom_site_type_symbol
_atom_site_label
_atom_site_fract_x
_atom_site_fract_y
_atom_site_fract_z
Si Si1 0.738943 0.125226 0.370834
Si Si2 0.052080 0.289616 0.725016
Si Si3 0.417113 0.720247 0.799867
Si Si4 0.416636 0.865654 0.780575
Si Si5 0.435809 0.119944 0.872232
Si Si6 0.673400 0.188951 0.690718
O O1 0.611570 0.204289 0.408954
O O2 0.540878 0.254027 0.711418
O O3 0.815265 0.898631 0.056412
O O4 0.045282 0.083215 0.214189
O O5 0.329717 0.123826 0.322964
O O6 0.752159 0.326996 0.872323
O O7 0.235598 0.139159 0.561178
O O8 0.000000 0.500000 0.000000
O O9 0.500000 0.500000 0.500000
O O10 0.521541 0.714987 0.641885
O O11 0.534124 0.805137 0.146244
O O12 0.033232 0.937082 0.230916
O O13 0.419348 0.255377 0.142339
#
# Coordination Sequence:
#
# PCOD9001639 Si02
#       6
#     2   2   2   2   2   2
#     4   9  19  38  60  84 117 157 190 240 294 349
#     4  10  21  35  60  87 116 155 194 245 284 338
#     4  10  21  35  60  87 116 155 194 245 284 338
#     4   9  20  35  58  83 120 142 202 232 294 333
#     4  10  21  38  62  87 119 155 194 237 297 344
#     4  10  21  38  62  87 119 155 194 237 297 344
#
# _framework density 25.088602999999999
#
# number of rings (size 3 to 8) (size 9 to 14) (size 15 to 20)
#    0.000    2.333    0.000    2.500    4.667   12.000 
#    0.000    6.667    7.333    0.000    0.000    0.000 
#    0.000    0.000    0.000    0.000    0.000    0.000 
#
# Total GULP energy -66933.913255 kJ/mol
# GULP energy per Si atom -5577.826105 kJ/mol
# Density = 2.503150 g / cm^3
# Si number density = 25.088603 Si / 1000 Ang^3
#
#
#
# Elastic Constant Matrix: (Units=GPa)
#
#
# Indices 1 2 3 4 5 6 
#
# 1 117.5300 23.3610 4.1536 -6.0083 23.0694 -7.3962
# 2 23.3610 163.0638 17.3094 -1.3476 5.4288 -27.9275
# 3 4.1536 17.3094 63.7462 31.0413 14.9310 4.5304
# 4 -6.0083 -1.3476 31.0413 29.4499 11.1753 5.6783
# 5 23.0694 5.4288 14.9310 11.1753 15.8110 -1.1990
# 6 -7.3962 -27.9275 4.5304 5.6783 -1.1990 56.9129
#
#
#
# Elastic Compliance Matrix: (Units=1/GPa)
#
#
# Indices 1 2 3 4 5 6 
#
# 1 0.016727 -0.001039 -0.001411 0.018667 -0.035974 -0.000844
# 2 -0.001039 0.007297 -0.003954 0.003399 0.000603 0.003434
# 3 -0.001411 -0.003954 0.035530 -0.035738 -0.004989 -0.001491
# 4 0.018667 0.003399 -0.035738 0.101928 -0.067049 -0.004644
# 5 -0.035974 0.000603 -0.004989 -0.067049 0.168105 0.006249
# 6 -0.000844 0.003434 -0.001491 -0.004644 0.006249 0.019860
#
#
# Mechanical properties :
#
#
# Convention : Reuss Voigt Hill
#
# Bulk Modulus (GPa) = 21.39239 48.22091 34.80665
# Shear Modulus (GPa) = 13.23319 40.40249 26.81784
#
# Velocity S-wave (km/s) = 2.29914 4.01732 3.27299
# Velocity P-wave (km/s) = 3.94883 6.38596 5.30913
#
# Compressibility (1/GPa) = 0.04674560
#
# Stress axis : x y z
#
# Youngs Moduli (GPa) = 59.78264 137.03601 28.14512
#
# Poissons Ratio (x) = 0.14241 0.03972
# Poissons Ratio (y) = 0.06213 0.11129
# Poissons Ratio (z) = 0.08437 0.54185
#
# Static dielectric constant tensor:
#      x y z
#    x 2.098490 0.014420 0.033580 
#    y 0.014420 1.992030 -0.080430 
#    z 0.033580 -0.080430 2.100250 
# 
# From -- ./inp_files/563051.got.cif
#   From: 2010.05.17/outbox.cif.g08.bks.cpg/sg2_282_cif.got.tgz:563051.got - 2010.06.03 11:33:40.
