data_PCOD9001074
_publ_section_title
;
Structure prediction by ZEFSAII (Michael W. Deem and Ramdas Pophale) SiO2 
 PCOD9001074
Probable space group: P -1
;
_chemical_formula_sum "Si O2"
_cell_formula_units_Z 16
_cell_length_a 14.865288
_cell_length_b 12.093595
_cell_length_c 30.032396
_cell_angle_alpha 25.353518
_cell_angle_beta 20.306827
_cell_angle_gamma 28.972612
_cell_volume 788.646506
_symmetry_space_group_name_H-M "P -1"
_symmetry_group_IT_number 2
_symmetry_cell_setting 'triclinic'
loop_
_space_group_symop_operation_xyz
x,y,z
-x,-y,-z
loop_
_atom_site_type_symbol
_atom_site_label
_atom_site_fract_x
_atom_site_fract_y
_atom_site_fract_z
Si Si1 0.398580 0.934912 0.687024
Si Si2 0.086734 0.124133 0.844146
Si Si3 0.454688 0.350513 0.900128
Si Si4 0.139300 0.752182 0.795701
Si Si5 0.575759 0.284224 0.970814
Si Si6 0.410310 0.764918 0.216758
Si Si7 0.143523 0.944955 0.630540
Si Si8 0.970555 0.390175 0.891069
O O1 0.504395 0.638866 0.760571
O O2 0.149785 0.902904 0.782738
O O3 0.317396 0.091209 0.712865
O O4 0.608826 0.034305 0.522070
O O5 0.839636 0.289743 0.872587
O O6 0.125410 0.259551 0.823718
O O7 0.029075 0.834774 0.989974
O O8 0.572164 0.302276 0.912225
O O9 0.578423 0.182518 0.861200
O O10 0.140310 0.342496 0.046204
O O11 0.386235 0.505816 0.771160
O O12 0.188533 0.939503 0.664428
O O13 0.336168 0.509228 0.015421
O O14 0.510510 0.994564 0.113535
O O15 0.100351 0.817150 0.352983
O O16 0.064820 0.657796 0.763893
#
# Coordination Sequence:
#
# PCOD9001074 Si02
#       8
#     2   2   2   2   2   2   2   2
#     4  11  23  38  58  86 120 156 190 238 278 353
#     4  11  22  39  64  87 111 151 195 243 294 323
#     4  11  20  36  60  87 119 148 195 239 281 341
#     4  11  21  39  58  88 118 151 195 235 286 339
#     4  11  19  35  61  90 112 142 195 241 288 336
#     4  10  21  33  60  84 117 159 180 238 288 339
#     4  11  23  40  56  85 122 153 193 231 289 346
#     4  10  22  41  62  86 114 147 194 250 281 344
#
# _framework density 20.287924
#
# number of rings (size 3 to 8) (size 9 to 14) (size 15 to 20)
#    0.000    1.250    3.750    4.875    1.750    2.500 
#    2.250    0.000    0.000    0.750    0.000    0.000 
#    0.000    0.000    0.000    0.000    0.000    0.000 
#
# Total GULP energy -89267.215231 kJ/mol
# GULP energy per Si atom -5579.200952 kJ/mol
# Density = 2.024175 g / cm^3
# Si number density = 20.287924 Si / 1000 Ang^3
#
#
#
# Elastic Constant Matrix: (Units=GPa)
#
#
# Indices 1 2 3 4 5 6 
#
# 1 57.3657 14.6783 19.9475 18.7173 11.3828 -2.6866
# 2 14.6783 77.4249 13.7601 12.4321 4.3281 -4.5583
# 3 19.9475 13.7601 72.9631 10.1685 19.1592 -4.8842
# 4 18.7173 12.4321 10.1685 13.2629 8.3085 3.9166
# 5 11.3828 4.3281 19.1592 8.3085 24.1076 7.2197
# 6 -2.6866 -4.5583 -4.8842 3.9166 7.2197 37.5364
#
#
#
# Elastic Compliance Matrix: (Units=1/GPa)
#
#
# Indices 1 2 3 4 5 6 
#
# 1 0.035102 0.002714 -0.002377 -0.053065 0.000743 0.007927
# 2 0.002714 0.016018 -0.001450 -0.020697 0.003075 0.003519
# 3 -0.002377 -0.001450 0.019129 -0.002364 -0.014559 0.005190
# 4 -0.053065 -0.020697 -0.002364 0.197152 -0.030936 -0.021240
# 5 0.000743 0.003075 -0.014559 -0.030936 0.066090 -0.010952
# 6 0.007927 0.003519 0.005190 -0.021240 -0.010952 0.032633
#
#
# Mechanical properties :
#
#
# Convention : Reuss Voigt Hill
#
# Bulk Modulus (GPa) = 14.70132 33.83617 24.26875
# Shear Modulus (GPa) = 12.78690 25.60593 19.19641
#
# Velocity S-wave (km/s) = 2.51324 3.55650 3.07937
# Velocity P-wave (km/s) = 3.96030 5.79475 4.96301
#
# Compressibility (1/GPa) = 0.06802109
#
# Stress axis : x y z
#
# Youngs Moduli (GPa) = 28.48812 62.43113 52.27716
#
# Poissons Ratio (x) = -0.16941 0.12429
# Poissons Ratio (y) = -0.07731 0.07580
# Poissons Ratio (z) = 0.06773 0.09052
#
# Static dielectric constant tensor:
#      x y z
#    x 1.753150 0.000890 0.001030 
#    y 0.000890 1.778110 0.009670 
#    z 0.001030 0.009670 1.715610 
# 
# From -- ./inp_files/623506.got.cif
#   From: 2010.05.17/outbox.cif.g08.bks.cpg/sg2_312_cif.got.tgz:623506.got - 2010.06.03 11:33:40.
