data_PCOD9001809
_publ_section_title
;
Structure prediction by ZEFSAII (Michael W. Deem and Ramdas Pophale) SiO2 
 PCOD9001809
Probable space group: P -1
;
_chemical_formula_sum "Si O2"
_cell_formula_units_Z 16
_cell_length_a 13.282428
_cell_length_b 10.099998
_cell_length_c 15.395283
_cell_angle_alpha 56.442346
_cell_angle_beta 80.712808
_cell_angle_gamma 127.411878
_cell_volume 902.363432
_symmetry_space_group_name_H-M "P -1"
_symmetry_group_IT_number 2
_symmetry_cell_setting 'triclinic'
loop_
_space_group_symop_operation_xyz
x,y,z
-x,-y,-z
loop_
_atom_site_type_symbol
_atom_site_label
_atom_site_fract_x
_atom_site_fract_y
_atom_site_fract_z
Si Si1 0.713544 0.333392 0.332823
Si Si2 0.809855 0.356041 0.597460
Si Si3 0.581241 0.307930 0.186277
Si Si4 0.974503 0.730645 0.907197
Si Si5 0.979013 0.452340 0.875969
Si Si6 0.659359 0.092999 0.906782
Si Si7 0.931447 0.780854 0.298845
Si Si8 0.623838 0.701850 0.992994
O O1 0.686188 0.395667 0.227233
O O2 0.845386 0.359460 0.279408
O O3 0.806219 0.550453 0.319907
O O4 0.500000 0.000000 0.500000
O O5 0.758898 0.285984 0.732915
O O6 0.856043 0.589495 0.464425
O O7 0.000000 0.500000 0.500000
O O8 0.622622 0.036078 0.688840
O O9 0.568378 0.479127 0.139196
O O10 0.745116 0.468290 0.036650
O O11 0.012784 0.654900 0.853585
O O12 0.069977 0.029163 0.771198
O O13 0.038168 0.717755 0.990736
O O14 0.803839 0.247912 0.909514
O O15 0.576333 0.811537 0.994617
O O16 0.500000 0.000000 0.000000
O O17 0.150290 0.012954 0.164854
O O18 0.500000 0.500000 0.000000
#
# Coordination Sequence:
#
# PCOD9001809 Si02
#       8
#     2   2   2   2   2   2   2   2
#     4  11  21  37  63  94 122 158 203 265 308 371
#     4  12  21  40  62  92 128 170 201 256 314 374
#     4  10  21  35  64  90 122 158 212 255 315 363
#     4   9  22  40  67  88 122 162 204 264 313 374
#     4  10  21  42  61  89 125 164 206 253 318 366
#     4  12  25  39  64  93 129 167 210 255 314 375
#     4  11  22  39  66  94 122 159 217 254 316 366
#     4  11  21  39  62  93 121 164 214 256 301 380
#
# _framework density 17.731214999999999
#
# number of rings (size 3 to 8) (size 9 to 14) (size 15 to 20)
#    0.000    1.250    5.000    0.750    3.500    1.500 
#    0.000    2.500    0.000    0.000    0.000    0.000 
#    0.000    0.000    0.000    0.000    0.000    0.000 
#
# Total GULP energy -89130.721146 kJ/mol
# GULP energy per Si atom -5570.670072 kJ/mol
# Density = 1.769086 g / cm^3
# Si number density = 17.731215 Si / 1000 Ang^3
#
#
#
# Elastic Constant Matrix: (Units=GPa)
#
#
# Indices 1 2 3 4 5 6 
#
# 1 141.5829 79.2580 62.8092 -3.3024 -5.7717 -17.9111
# 2 79.2580 133.8550 54.2576 -6.5689 -1.3816 -0.7945
# 3 62.8092 54.2576 76.2681 -9.0361 0.1445 -12.6806
# 4 -3.3024 -6.5689 -9.0361 29.8136 0.7795 -4.2038
# 5 -5.7717 -1.3816 0.1445 0.7795 25.5747 -8.8316
# 6 -17.9111 -0.7945 -12.6806 -4.2038 -8.8316 42.8499
#
#
#
# Elastic Compliance Matrix: (Units=1/GPa)
#
#
# Indices 1 2 3 4 5 6 
#
# 1 0.013910 -0.005363 -0.007065 -0.001276 0.004454 0.004417
# 2 -0.005363 0.012757 -0.005299 0.000103 -0.001857 -0.003946
# 3 -0.007065 -0.005299 0.024176 0.006037 -0.000624 0.004566
# 4 -0.001276 0.000103 0.006037 0.035928 0.000257 0.004833
# 5 0.004454 -0.001857 -0.000624 0.000257 0.043687 0.010672
# 6 0.004417 -0.003946 0.004566 0.004833 0.010672 0.029135
#
#
# Mechanical properties :
#
#
# Convention : Reuss Voigt Hill
#
# Bulk Modulus (GPa) = 64.98687 82.70617 73.84652
# Shear Modulus (GPa) = 24.97800 30.00638 27.49219
#
# Velocity S-wave (km/s) = 3.75734 4.11821 3.94191
# Velocity P-wave (km/s) = 7.45347 8.32818 7.90293
#
# Compressibility (1/GPa) = 0.01538772
#
# Stress axis : x y z
#
# Youngs Moduli (GPa) = 71.89047 78.39057 41.36377
#
# Poissons Ratio (x) = 0.42040 0.29225
# Poissons Ratio (y) = 0.38554 0.21919
# Poissons Ratio (z) = 0.50794 0.41539
#
# Static dielectric constant tensor:
#      x y z
#    x 1.556430 -0.001990 -0.011740 
#    y -0.001990 1.563330 0.003550 
#    z -0.011740 0.003550 1.621810 
# 
# From -- ./inp_files/205759.got.cif
#   From: 2010.05.17/outbox.cif.g08.bks.cpg/sg2_103_cif.got.tgz:205759.got - 2010.06.03 11:33:40.
