data_PCOD9001807
_publ_section_title
;
Structure prediction by ZEFSAII (Michael W. Deem and Ramdas Pophale) SiO2 
 PCOD9001807
Probable space group: P -1
;
_chemical_formula_sum "Si O2"
_cell_formula_units_Z 16
_cell_length_a 13.048626
_cell_length_b 13.641705
_cell_length_c 8.031270
_cell_angle_alpha 79.258092
_cell_angle_beta 107.690855
_cell_angle_gamma 41.149016
_cell_volume 671.473227
_symmetry_space_group_name_H-M "P -1"
_symmetry_group_IT_number 2
_symmetry_cell_setting 'triclinic'
loop_
_space_group_symop_operation_xyz
x,y,z
-x,-y,-z
loop_
_atom_site_type_symbol
_atom_site_label
_atom_site_fract_x
_atom_site_fract_y
_atom_site_fract_z
Si Si1 0.372115 0.012965 0.558110
Si Si2 0.182639 0.885161 0.835220
Si Si3 0.262189 0.209828 0.741786
Si Si4 0.822624 0.600150 0.077032
Si Si5 0.922277 0.722746 0.926407
Si Si6 0.229584 0.910430 0.493320
Si Si7 0.519161 0.370502 0.611819
Si Si8 0.028569 0.738103 0.287531
O O1 0.285479 0.176304 0.568798
O O2 0.322860 0.078105 0.321571
O O3 0.594020 0.797102 0.811962
O O4 0.230164 0.026598 0.496502
O O5 0.293369 0.805739 0.732964
O O6 0.334520 0.751996 0.112079
O O7 0.005218 0.941386 0.716112
O O8 0.049313 0.094322 0.733159
O O9 0.114576 0.235317 0.714843
O O10 0.196050 0.366798 0.745109
O O11 0.500000 0.000000 0.000000
O O12 0.949532 0.598393 0.083242
O O13 0.925377 0.419196 0.110452
O O14 0.977365 0.770212 0.054497
O O15 0.381700 0.767053 0.455040
O O16 0.500000 0.500000 0.500000
O O17 0.282727 0.521915 0.495199
#
# Coordination Sequence:
#
# PCOD9001807 Si02
#       8
#     2   2   2   2   2   2   2   2
#     4  11  20  37  62  93 118 173 216 263 336 391
#     4  11  25  47  68  99 142 180 226 285 332 410
#     4   9  20  40  66  89 133 170 216 276 334 403
#     4   9  20  39  56  90 126 161 215 269 330 399
#     4  10  21  35  64  89 127 164 214 276 323 398
#     4  11  24  45  70 100 137 182 232 275 342 406
#     4  12  26  43  69 101 138 182 227 280 343 398
#     4  11  22  45  64  99 135 176 226 276 337 404
#
# _framework density 23.828203999999999
#
# number of rings (size 3 to 8) (size 9 to 14) (size 15 to 20)
#    0.000    1.500    2.500    2.250    1.750    1.000 
#    4.500    6.250    0.000    0.000    0.000    0.000 
#    0.000    0.000    0.000    0.000    0.000    0.000 
#
# Total GULP energy -89377.549565 kJ/mol
# GULP energy per Si atom -5586.096848 kJ/mol
# Density = 2.377397 g / cm^3
# Si number density = 23.828204 Si / 1000 Ang^3
#
#
#
# Elastic Constant Matrix: (Units=GPa)
#
#
# Indices 1 2 3 4 5 6 
#
# 1 89.5233 36.7187 30.7937 -5.2257 10.4880 -11.0067
# 2 36.7187 114.8523 59.1836 16.6002 11.1586 -5.6121
# 3 30.7937 59.1836 150.2374 15.8563 1.0119 -16.5406
# 4 -5.2257 16.6002 15.8563 35.9299 2.2826 5.1406
# 5 10.4880 11.1586 1.0119 2.2826 33.2612 0.4291
# 6 -11.0067 -5.6121 -16.5406 5.1406 0.4291 28.3880
#
#
#
# Elastic Compliance Matrix: (Units=1/GPa)
#
#
# Indices 1 2 3 4 5 6 
#
# 1 0.014355 -0.003967 -0.001461 0.004329 -0.003489 0.003199
# 2 -0.003967 0.012824 -0.003768 -0.004627 -0.002615 -0.000321
# 3 -0.001461 -0.003768 0.009299 -0.003348 0.001611 0.004689
# 4 0.004329 -0.004627 -0.003348 0.033224 -0.001898 -0.007175
# 5 -0.003489 -0.002615 0.001611 -0.001898 0.032138 -0.001073
# 6 0.003199 -0.000321 0.004689 -0.007175 -0.001073 0.040450
#
#
# Mechanical properties :
#
#
# Convention : Reuss Voigt Hill
#
# Bulk Modulus (GPa) = 55.29213 67.55610 61.42411
# Shear Modulus (GPa) = 29.99232 34.71028 32.35130
#
# Velocity S-wave (km/s) = 3.55165 3.82080 3.68868
# Velocity P-wave (km/s) = 6.33039 6.91936 6.63142
#
# Compressibility (1/GPa) = 0.01808576
#
# Stress axis : x y z
#
# Youngs Moduli (GPa) = 69.66406 77.97950 107.54248
#
# Poissons Ratio (x) = 0.30934 0.15709
# Poissons Ratio (y) = 0.27635 0.40523
# Poissons Ratio (z) = 0.10176 0.29383
#
# Static dielectric constant tensor:
#      x y z
#    x 1.982190 -0.122360 -0.014530 
#    y -0.122360 2.056540 -0.057190 
#    z -0.014530 -0.057190 2.039680 
# 
# From -- ./inp_files/313415.got.cif
#   From: 2010.05.17/outbox.cif.g08.bks.cpg/sg2_157_cif.got.tgz:313415.got - 2010.06.03 11:33:40.
