data_PCOD9001740
_publ_section_title
;
Structure prediction by ZEFSAII (Michael W. Deem and Ramdas Pophale) SiO2 
 PCOD9001740
Probable space group: P -1
;
_chemical_formula_sum "Si O2"
_cell_formula_units_Z 12
_cell_length_a 5.319676
_cell_length_b 11.840097
_cell_length_c 15.810240
_cell_angle_alpha 32.788713
_cell_angle_beta 109.653843
_cell_angle_gamma 98.138829
_cell_volume 488.012811
_symmetry_space_group_name_H-M "P -1"
_symmetry_group_IT_number 2
_symmetry_cell_setting 'triclinic'
loop_
_space_group_symop_operation_xyz
x,y,z
-x,-y,-z
loop_
_atom_site_type_symbol
_atom_site_label
_atom_site_fract_x
_atom_site_fract_y
_atom_site_fract_z
Si Si1 0.722080 0.924451 0.281467
Si Si2 0.126130 0.204279 0.979812
Si Si3 0.660571 0.283268 0.302524
Si Si4 0.841150 0.355251 0.021938
Si Si5 0.197586 0.155815 0.841567
Si Si6 0.690206 0.824699 0.523736
O O1 0.804893 0.778211 0.298484
O O2 0.683936 0.796430 0.440589
O O3 0.433953 0.093956 0.115676
O O4 0.896965 0.099581 0.212988
O O5 0.120303 0.306723 0.820842
O O6 0.943118 0.343994 0.943794
O O7 0.001880 0.999753 0.085378
O O8 0.480259 0.504640 0.101184
O O9 0.524486 0.266448 0.389501
O O10 0.987724 0.252798 0.361995
O O11 0.606760 0.083354 0.370056
O O12 0.000000 0.500000 0.000000
O O13 0.500000 0.000000 0.000000
#
# Coordination Sequence:
#
# PCOD9001740 Si02
#       6
#     2   2   2   2   2   2
#     4  10  21  35  62  88 113 155 206 249 287 352
#     4   9  18  33  57  86 119 147 195 252 299 342
#     4  10  24  40  56  82 123 165 194 243 301 357
#     4  11  24  35  58  90 123 155 197 249 299 350
#     4   8  16  33  55  88 112 148 193 252 294 344
#     4  10  23  40  59  80 120 164 204 237 294 362
#
# _framework density 24.589518999999999
#
# number of rings (size 3 to 8) (size 9 to 14) (size 15 to 20)
#    0.000    2.333    0.000    1.000   14.000    1.333 
#    0.000    0.000    0.000    2.000    0.000    0.000 
#    0.000    0.000    0.000    0.000    0.000    0.000 
#
# Total GULP energy -67018.439450 kJ/mol
# GULP energy per Si atom -5584.869954 kJ/mol
# Density = 2.453355 g / cm^3
# Si number density = 24.589519 Si / 1000 Ang^3
#
#
#
# Elastic Constant Matrix: (Units=GPa)
#
#
# Indices 1 2 3 4 5 6 
#
# 1 70.5376 8.3790 2.1945 -1.1734 -3.5603 -3.8475
# 2 8.3790 90.0891 16.0396 22.9562 1.4669 -23.4979
# 3 2.1945 16.0396 42.7777 0.1191 1.2192 -10.6390
# 4 -1.1734 22.9562 0.1191 36.1838 -13.4779 -9.8010
# 5 -3.5603 1.4669 1.2192 -13.4779 34.7154 9.9705
# 6 -3.8475 -23.4979 -10.6390 -9.8010 9.9705 49.2180
#
#
#
# Elastic Compliance Matrix: (Units=1/GPa)
#
#
# Indices 1 2 3 4 5 6 
#
# 1 0.014612 -0.002070 -0.000011 0.002815 0.002628 0.000180
# 2 -0.002070 0.016723 -0.004451 -0.011655 -0.006998 0.005957
# 3 -0.000011 -0.004451 0.026139 0.003720 -0.000544 0.004375
# 4 0.002815 -0.011655 0.003720 0.041393 0.016625 0.000335
# 5 0.002628 -0.006998 -0.000544 0.016625 0.038041 -0.007649
# 6 0.000180 0.005957 0.004375 0.000335 -0.007649 0.025738
#
#
# Mechanical properties :
#
#
# Convention : Reuss Voigt Hill
#
# Bulk Modulus (GPa) = 22.51753 28.51450 25.51601
# Shear Modulus (GPa) = 26.24472 35.80952 31.02712
#
# Velocity S-wave (km/s) = 3.27052 3.82028 3.55604
# Velocity P-wave (km/s) = 4.84138 5.57501 5.22110
#
# Compressibility (1/GPa) = 0.04440985
#
# Stress axis : x y z
#
# Youngs Moduli (GPa) = 68.43522 59.79900 38.25653
#
# Poissons Ratio (x) = 0.12380 0.00044
# Poissons Ratio (y) = 0.14167 0.17027
# Poissons Ratio (z) = 0.00078 0.26614
#
# Static dielectric constant tensor:
#      x y z
#    x 1.626900 -0.368470 -0.009330 
#    y -0.368470 1.732840 0.035020 
#    z -0.009330 0.035020 1.950200 
# 
# From -- ./inp_files/20279.got.cif
#   From: 2010.05.17/outbox.cif.g08.bks.cpg/sg2_11_cif.got.tgz:20279.got - 2010.06.03 11:33:40.
