data_PCOD9001055
_publ_section_title
;
Structure prediction by ZEFSAII (Michael W. Deem and Ramdas Pophale) SiO2 
 PCOD9001055
Probable space group: P -1
;
_chemical_formula_sum "Si O2"
_cell_formula_units_Z 14
_cell_length_a 14.096588
_cell_length_b 12.523311
_cell_length_c 12.889144
_cell_angle_alpha 114.678173
_cell_angle_beta 148.794544
_cell_angle_gamma 41.909886
_cell_volume 609.735181
_symmetry_space_group_name_H-M "P -1"
_symmetry_group_IT_number 2
_symmetry_cell_setting 'triclinic'
loop_
_space_group_symop_operation_xyz
x,y,z
-x,-y,-z
loop_
_atom_site_type_symbol
_atom_site_label
_atom_site_fract_x
_atom_site_fract_y
_atom_site_fract_z
Si Si1 0.291862 0.842395 0.844044
Si Si2 0.767440 0.340755 0.772969
Si Si3 0.730414 0.739449 0.848874
Si Si4 0.777371 0.298258 0.453950
Si Si5 0.280006 0.225888 0.912973
Si Si6 0.640898 0.052305 0.623344
Si Si7 0.190643 0.893887 0.009172
O O1 0.217441 0.761323 0.679805
O O2 0.321899 0.813128 0.983445
O O3 0.613314 0.728587 0.047008
O O4 0.001542 0.088671 0.645261
O O5 0.500000 0.500000 0.500000
O O6 0.585693 0.501022 0.762255
O O7 0.889547 0.144899 0.823770
O O8 0.090028 0.233287 0.992445
O O9 0.507383 0.838711 0.582511
O O10 0.613272 0.796398 0.879987
O O11 0.000000 0.500000 0.000000
O O12 0.930086 0.348879 0.629098
O O13 0.500000 0.000000 0.000000
O O14 0.022293 0.864059 0.880303
O O15 0.500000 0.000000 0.500000
O O16 0.585458 0.166002 0.717440
#
# Coordination Sequence:
#
# PCOD9001055 Si02
#       7
#     2   2   2   2   2   2   2
#     4  10  21  37  60  94 128 172 212 261 320 387
#     4  12  19  37  61  98 135 163 209 277 320 365
#     4  12  24  39  69 102 131 166 218 275 319 379
#     4  10  21  33  57  94 135 163 205 265 326 372
#     4  10  21  36  57  97 130 163 208 265 320 375
#     4  11  26  44  65  97 130 174 216 265 329 391
#     4  11  24  43  68  91 130 174 219 266 323 388
#
# _framework density 22.960788999999998
#
# number of rings (size 3 to 8) (size 9 to 14) (size 15 to 20)
#    0.000    1.143    4.286    2.571    6.000    0.000 
#    0.000    0.000    0.000    8.571    0.000    0.000 
#    0.000    0.000    0.000    0.000    0.000    0.000 
#
# Total GULP energy -78159.436765 kJ/mol
# GULP energy per Si atom -5582.816912 kJ/mol
# Density = 2.290853 g / cm^3
# Si number density = 22.960789 Si / 1000 Ang^3
#
#
#
# Elastic Constant Matrix: (Units=GPa)
#
#
# Indices 1 2 3 4 5 6 
#
# 1 160.0023 29.7338 62.2152 37.9870 -8.6600 -28.6139
# 2 29.7338 69.2601 19.8619 12.8455 -22.0329 -13.9365
# 3 62.2152 19.8619 108.3612 48.6460 -18.6839 -5.8551
# 4 37.9870 12.8455 48.6460 34.1228 -8.6299 -6.7373
# 5 -8.6600 -22.0329 -18.6839 -8.6299 49.5740 20.9300
# 6 -28.6139 -13.9365 -5.8551 -6.7373 20.9300 41.3727
#
#
#
# Elastic Compliance Matrix: (Units=1/GPa)
#
#
# Indices 1 2 3 4 5 6 
#
# 1 0.010414 -0.002463 -0.003519 -0.005372 -0.004638 0.007347
# 2 -0.002463 0.018271 0.000946 -0.003579 0.007291 0.000314
# 3 -0.003519 0.000946 0.028286 -0.036427 0.007416 -0.007796
# 4 -0.005372 -0.003579 -0.036427 0.088922 -0.003354 0.006101
# 5 -0.004638 0.007291 0.007416 -0.003354 0.031686 -0.016278
# 6 0.007347 0.000314 -0.007796 0.006101 -0.016278 0.037483
#
#
# Mechanical properties :
#
#
# Convention : Reuss Voigt Hill
#
# Bulk Modulus (GPa) = 21.32230 62.36061 41.84146
# Shear Modulus (GPa) = 20.76708 40.06806 30.41757
#
# Velocity S-wave (km/s) = 3.01068 4.18193 3.64368
# Velocity P-wave (km/s) = 4.62517 7.10891 5.99703
#
# Compressibility (1/GPa) = 0.04689925
#
# Stress axis : x y z
#
# Youngs Moduli (GPa) = 96.02381 54.73261 35.35307
#
# Poissons Ratio (x) = 0.13478 0.12440
# Poissons Ratio (y) = 0.23647 -0.03343
# Poissons Ratio (z) = 0.33789 -0.05176
#
# Static dielectric constant tensor:
#      x y z
#    x 2.106720 0.113200 0.060440 
#    y 0.113200 1.882980 -0.000370 
#    z 0.060440 -0.000370 1.884430 
# 
# From -- ./inp_files/455840.got.cif
#   From: 2010.05.17/outbox.cif.g08.bks.cpg/sg2_228_cif.got.tgz:455840.got - 2010.06.03 11:33:40.
