data_PCOD9001994
_publ_section_title
;
Structure prediction by ZEFSAII (Michael W. Deem and Ramdas Pophale) SiO2 
 PCOD9001994
Probable space group: P -1
;
_chemical_formula_sum "Si O2"
_cell_formula_units_Z 16
_cell_length_a 8.034107
_cell_length_b 16.675581
_cell_length_c 19.300932
_cell_angle_alpha 20.818314
_cell_angle_beta 46.610538
_cell_angle_gamma 56.734276
_cell_volume 622.465801
_symmetry_space_group_name_H-M "P -1"
_symmetry_group_IT_number 2
_symmetry_cell_setting 'triclinic'
loop_
_space_group_symop_operation_xyz
x,y,z
-x,-y,-z
loop_
_atom_site_type_symbol
_atom_site_label
_atom_site_fract_x
_atom_site_fract_y
_atom_site_fract_z
Si Si1 0.406990 0.794510 0.798051
Si Si2 0.530870 0.927428 0.952005
Si Si3 0.003760 0.269281 0.729075
Si Si4 0.747575 0.447800 0.451399
Si Si5 0.849870 0.686750 0.685784
Si Si6 0.322184 0.163378 0.170623
Si Si7 0.483429 0.580737 0.594507
Si Si8 0.548083 0.674744 0.662619
O O1 0.605162 0.727658 0.750850
O O2 0.515719 0.849616 0.799973
O O3 0.396759 0.041282 0.571485
O O4 0.164129 0.553432 0.073317
O O5 0.563847 0.868633 0.909784
O O6 0.723247 0.191238 0.698743
O O7 0.549625 0.702125 0.170064
O O8 0.261416 0.931868 0.039868
O O9 0.038607 0.345686 0.737917
O O10 0.253700 0.245379 0.651350
O O11 0.000000 0.500000 0.500000
O O12 0.500000 0.500000 0.500000
O O13 0.726796 0.408262 0.406537
O O14 0.783278 0.639152 0.661340
O O15 0.067752 0.939709 0.431602
O O16 0.324344 0.438825 0.946569
O O17 0.501612 0.642704 0.619704
#
# Coordination Sequence:
#
# PCOD9001994 Si02
#       8
#     2   2   2   2   2   2   2   2
#     4  10  21  39  62  87 119 152 194 239 291 357
#     4  10  21  39  57  80 117 152 188 240 287 334
#     4   9  20  37  58  81 111 152 190 232 283 335
#     4  10  21  36  56  82 109 146 195 235 282 344
#     4  10  22  39  60  88 118 155 191 238 298 350
#     4  10  22  38  59  88 121 153 195 243 291 345
#     4   9  20  38  57  83 115 149 193 238 286 340
#     4  10  21  39  60  88 119 151 196 243 286 350
#
# _framework density 25.704225999999998
#
# number of rings (size 3 to 8) (size 9 to 14) (size 15 to 20)
#    0.000    2.250    0.000    1.500    0.000   12.000 
#    0.000   10.000    0.000    0.000    0.000    0.000 
#    0.000    0.000    0.000    0.000    0.000    0.000 
#
# Total GULP energy -89377.367952 kJ/mol
# GULP energy per Si atom -5586.085497 kJ/mol
# Density = 2.564572 g / cm^3
# Si number density = 25.704226 Si / 1000 Ang^3
#
#
#
# Elastic Constant Matrix: (Units=GPa)
#
#
# Indices 1 2 3 4 5 6 
#
# 1 76.0360 -3.5854 40.2305 2.8230 9.9316 20.8914
# 2 -3.5854 44.9509 27.2336 6.0734 8.3267 7.4281
# 3 40.2305 27.2336 234.4213 -5.9432 7.5502 -13.9916
# 4 2.8230 6.0734 -5.9432 40.0098 -9.0107 2.3370
# 5 9.9316 8.3267 7.5502 -9.0107 47.2141 0.3654
# 6 20.8914 7.4281 -13.9916 2.3370 0.3654 26.5459
#
#
#
# Elastic Compliance Matrix: (Units=1/GPa)
#
#
# Indices 1 2 3 4 5 6 
#
# 1 0.027008 0.013749 -0.007829 -0.005198 -0.007624 -0.028666
# 2 0.013749 0.034733 -0.007724 -0.008059 -0.009137 -0.023775
# 3 -0.007829 -0.007724 0.007208 0.002612 0.002263 0.011861
# 4 -0.005198 -0.008059 0.002612 0.028355 0.007469 0.005124
# 5 -0.007624 -0.009137 0.002263 0.007469 0.025391 0.008743
# 6 -0.028666 -0.023775 0.011861 0.005124 0.008743 0.072564
#
#
# Mechanical properties :
#
#
# Convention : Reuss Voigt Hill
#
# Bulk Modulus (GPa) = 15.30436 53.68507 34.49471
# Shear Modulus (GPa) = 22.66074 42.18926 32.42500
#
# Velocity S-wave (km/s) = 2.97239 4.05574 3.55556
# Velocity P-wave (km/s) = 4.21273 6.54699 5.50500
#
# Compressibility (1/GPa) = 0.06534086
#
# Stress axis : x y z
#
# Youngs Moduli (GPa) = 37.02656 28.79127 138.73365
#
# Poissons Ratio (x) = -0.39586 1.08621
# Poissons Ratio (y) = -0.50909 1.07154
# Poissons Ratio (z) = 0.28990 0.22238
#
# Static dielectric constant tensor:
#      x y z
#    x 1.998460 -0.011700 0.028620 
#    y -0.011700 2.153300 -0.000360 
#    z 0.028620 -0.000360 1.996400 
# 
# From -- ./inp_files/590869.got.cif
#   From: 2010.05.17/outbox.cif.g08.bks.cpg/sg2_296_cif.got.tgz:590869.got - 2010.06.03 11:33:40.
