data_PCOD9001647
_publ_section_title
;
Structure prediction by ZEFSAII (Michael W. Deem and Ramdas Pophale) SiO2 
 PCOD9001647
Probable space group: P -1
;
_chemical_formula_sum "Si O2"
_cell_formula_units_Z 16
_cell_length_a 16.091330
_cell_length_b 12.485395
_cell_length_c 11.909529
_cell_angle_alpha 23.024099
_cell_angle_beta 55.073109
_cell_angle_gamma 55.964877
_cell_volume 763.252444
_symmetry_space_group_name_H-M "P -1"
_symmetry_group_IT_number 2
_symmetry_cell_setting 'triclinic'
loop_
_space_group_symop_operation_xyz
x,y,z
-x,-y,-z
loop_
_atom_site_type_symbol
_atom_site_label
_atom_site_fract_x
_atom_site_fract_y
_atom_site_fract_z
Si Si1 0.684269 0.368708 0.646992
Si Si2 0.022453 0.996684 0.724674
Si Si3 0.395193 0.148973 0.892975
Si Si4 0.779546 0.412056 0.756124
Si Si5 0.213034 0.196065 0.157763
Si Si6 0.868500 0.316317 0.383426
Si Si7 0.835936 0.557568 0.807435
Si Si8 0.904417 0.870787 0.142756
O O1 0.602201 0.571727 0.447616
O O2 0.695835 0.462504 0.675330
O O3 0.792470 0.379533 0.487648
O O4 0.656211 0.061260 0.946613
O O5 0.083050 0.238477 0.496026
O O6 0.972131 0.149829 0.506923
O O7 0.101789 0.724663 0.924957
O O8 0.930333 0.902383 0.961324
O O9 0.318380 0.214384 0.993235
O O10 0.500000 0.000000 0.000000
O O11 0.766183 0.497851 0.813095
O O12 0.875402 0.570911 0.485792
O O13 0.810071 0.085920 0.042323
O O14 0.216497 0.288565 0.193834
O O15 0.185245 0.888259 0.458877
O O16 0.129154 0.400844 0.957928
O O17 0.000000 0.000000 0.000000
#
# Coordination Sequence:
#
# PCOD9001647 Si02
#       8
#     2   2   2   2   2   2   2   2
#     4  10  21  35  60  89 110 136 178 234 287 320
#     4  12  23  33  54  78 110 157 202 233 268 300
#     4  10  21  41  66  88 106 133 175 230 290 348
#     4  12  22  35  55  79 115 149 187 236 275 319
#     4  10  23  39  55  79 111 146 183 227 285 337
#     4  10  21  36  54  77 109 148 192 239 266 308
#     4  12  24  36  51  78 114 159 192 223 270 326
#     4  12  21  34  51  78 110 155 204 239 259 295
#
# _framework density 20.962918999999999
#
# number of rings (size 3 to 8) (size 9 to 14) (size 15 to 20)
#    0.000    1.000    3.750    3.750    3.500    3.000 
#    0.000    0.000    0.000    1.500    0.000    0.000 
#    0.000    0.000    0.000    0.000    0.000    0.000 
#
# Total GULP energy -89406.652999 kJ/mol
# GULP energy per Si atom -5587.915812 kJ/mol
# Density = 2.091521 g / cm^3
# Si number density = 20.962919 Si / 1000 Ang^3
#
#
#
# Elastic Constant Matrix: (Units=GPa)
#
#
# Indices 1 2 3 4 5 6 
#
# 1 75.1463 47.2209 0.4973 -4.3139 16.7787 16.2440
# 2 47.2209 100.2719 12.8249 -6.1225 10.2336 32.9049
# 3 0.4973 12.8249 82.8453 -12.2526 9.7791 -2.8392
# 4 -4.3139 -6.1225 -12.2526 23.5939 1.0711 1.0530
# 5 16.7787 10.2336 9.7791 1.0711 27.8484 -5.5161
# 6 16.2440 32.9049 -2.8392 1.0530 -5.5161 26.2880
#
#
#
# Elastic Compliance Matrix: (Units=1/GPa)
#
#
# Indices 1 2 3 4 5 6 
#
# 1 0.022732 -0.006357 0.002995 0.005116 -0.014389 -0.008990
# 2 -0.006357 0.024167 -0.002703 0.005453 -0.010044 -0.028940
# 3 0.002995 -0.002703 0.014317 0.007476 -0.005817 0.001559
# 4 0.005116 0.005453 0.007476 0.049792 -0.012353 -0.013766
# 5 -0.014389 -0.010044 -0.005817 -0.012353 0.057397 0.033373
# 6 -0.008990 -0.028940 0.001559 -0.013766 0.033373 0.087542
#
#
# Mechanical properties :
#
#
# Convention : Reuss Voigt Hill
#
# Bulk Modulus (GPa) = 20.37245 42.14997 31.26121
# Shear Modulus (GPa) = 17.57843 28.72743 23.15293
#
# Velocity S-wave (km/s) = 2.89891 3.70590 3.32696
# Velocity P-wave (km/s) = 4.57650 6.20178 5.45007
#
# Compressibility (1/GPa) = 0.04908590
#
# Stress axis : x y z
#
# Youngs Moduli (GPa) = 43.99047 41.37869 69.84773
#
# Poissons Ratio (x) = 0.26305 -0.20918
# Poissons Ratio (y) = 0.27965 0.18879
# Poissons Ratio (z) = -0.13174 0.11184
#
# Static dielectric constant tensor:
#      x y z
#    x 1.769100 0.042850 0.019860 
#    y 0.042850 1.792440 0.018400 
#    z 0.019860 0.018400 1.749790 
# 
# From -- ./inp_files/433903.got.cif
#   From: 2010.05.17/outbox.cif.g08.bks.cpg/sg2_217_cif.got.tgz:433903.got - 2010.06.03 11:33:40.
