data_PCOD9001742
_publ_section_title
;
Structure prediction by ZEFSAII (Michael W. Deem and Ramdas Pophale) SiO2 
 PCOD9001742
Probable space group: P -1
;
_chemical_formula_sum "Si O2"
_cell_formula_units_Z 16
_cell_length_a 9.211596
_cell_length_b 14.733059
_cell_length_c 8.275284
_cell_angle_alpha 140.349816
_cell_angle_beta 69.699001
_cell_angle_gamma 99.067886
_cell_volume 660.767361
_symmetry_space_group_name_H-M "P -1"
_symmetry_group_IT_number 2
_symmetry_cell_setting 'triclinic'
loop_
_space_group_symop_operation_xyz
x,y,z
-x,-y,-z
loop_
_atom_site_type_symbol
_atom_site_label
_atom_site_fract_x
_atom_site_fract_y
_atom_site_fract_z
Si Si1 0.955796 0.425171 0.573582
Si Si2 0.050936 0.905213 0.688852
Si Si3 0.500381 0.662067 0.650939
Si Si4 0.353679 0.266214 0.773231
Si Si5 0.834306 0.679592 0.394662
Si Si6 0.658311 0.332019 0.629102
Si Si7 0.507937 0.961216 0.135290
Si Si8 0.174220 0.154227 0.969617
O O1 0.771240 0.445715 0.703211
O O2 0.000000 0.500000 0.500000
O O3 0.042767 0.444942 0.734283
O O4 0.039114 0.261452 0.265427
O O5 0.209855 0.791288 0.510105
O O6 0.919554 0.820345 0.554445
O O7 0.098433 0.033962 0.738898
O O8 0.000000 0.000000 0.000000
O O9 0.500000 0.500000 0.500000
O O10 0.679052 0.677615 0.561091
O O11 0.407082 0.688991 0.554063
O O12 0.443808 0.809918 0.978104
O O13 0.232618 0.331482 0.770928
O O14 0.505925 0.344235 0.818643
O O15 0.264200 0.247186 0.945378
O O16 0.421997 0.100993 0.457345
O O17 0.687805 0.930143 0.085122
O O18 0.500000 0.000000 0.000000
#
# Coordination Sequence:
#
# PCOD9001742 Si02
#       8
#     2   2   2   2   2   2   2   2
#     4  11  22  40  66  87 117 169 221 248 298 384
#     4  11  19  35  62  92 119 159 205 261 309 364
#     4  11  21  35  61  93 120 158 217 262 294 363
#     4  11  24  38  63  95 132 156 200 269 327 361
#     4  10  21  39  60  89 125 164 206 254 314 374
#     4  10  21  35  62  88 120 161 204 251 314 364
#     4  12  20  38  65  94 124 164 210 259 308 375
#     4  12  23  39  63  97 128 157 207 267 314 371
#
# _framework density 24.214271
#
# number of rings (size 3 to 8) (size 9 to 14) (size 15 to 20)
#    0.000    1.000    7.500    1.125    1.750    0.500 
#    0.000    1.250    0.000    0.000    0.000    0.000 
#    0.000    0.000    0.000    0.000    0.000    0.000 
#
# Total GULP energy -89252.191078 kJ/mol
# GULP energy per Si atom -5578.261942 kJ/mol
# Density = 2.415916 g / cm^3
# Si number density = 24.214271 Si / 1000 Ang^3
#
#
#
# Elastic Constant Matrix: (Units=GPa)
#
#
# Indices 1 2 3 4 5 6 
#
# 1 171.0443 45.9098 37.3055 -10.3206 -15.1196 26.0355
# 2 45.9098 134.8965 27.8969 10.6003 0.8174 25.2575
# 3 37.3055 27.8969 84.0887 7.4277 -20.7125 12.8984
# 4 -10.3206 10.6003 7.4277 41.0166 6.9964 1.7969
# 5 -15.1196 0.8174 -20.7125 6.9964 33.3332 3.9704
# 6 26.0355 25.2575 12.8984 1.7969 3.9704 37.1416
#
#
#
# Elastic Compliance Matrix: (Units=1/GPa)
#
#
# Indices 1 2 3 4 5 6 
#
# 1 0.007664 -0.001690 -0.001893 0.002490 0.002287 -0.003930
# 2 -0.001690 0.009340 -0.001777 -0.002134 -0.001137 -0.004325
# 3 -0.001893 -0.001777 0.017263 -0.004905 0.011471 -0.004449
# 4 0.002490 -0.002134 -0.004905 0.027737 -0.007795 0.000901
# 5 0.002287 -0.001137 0.011471 -0.007795 0.040878 -0.008806
# 6 -0.003930 -0.004325 -0.004449 0.000901 -0.008806 0.035063
#
#
# Mechanical properties :
#
#
# Convention : Reuss Voigt Hill
#
# Bulk Modulus (GPa) = 42.47001 68.02822 55.24911
# Shear Modulus (GPa) = 31.94620 40.89277 36.41949
#
# Velocity S-wave (km/s) = 3.63618 4.11394 3.88242
# Velocity P-wave (km/s) = 5.93349 7.12189 6.55468
#
# Compressibility (1/GPa) = 0.02354603
#
# Stress axis : x y z
#
# Youngs Moduli (GPa) = 130.48643 107.06405 57.92873
#
# Poissons Ratio (x) = 0.18098 0.10966
# Poissons Ratio (y) = 0.22057 0.10293
# Poissons Ratio (z) = 0.24701 0.19023
#
# Static dielectric constant tensor:
#      x y z
#    x 1.920790 0.050200 0.007740 
#    y 0.050200 2.163150 0.113280 
#    z 0.007740 0.113280 2.055530 
# 
# From -- ./inp_files/208922.got.cif
#   From: 2010.05.17/outbox.cif.g08.bks.cpg/sg2_105_cif.got.tgz:208922.got - 2010.06.03 11:33:40.
