data_PCOD9001030
_publ_section_title
;
Structure prediction by ZEFSAII (Michael W. Deem and Ramdas Pophale) SiO2 
 PCOD9001030
Probable space group: P -1
;
_chemical_formula_sum "Si O2"
_cell_formula_units_Z 16
_cell_length_a 19.359016
_cell_length_b 9.529387
_cell_length_c 22.004559
_cell_angle_alpha 39.613227
_cell_angle_beta 18.509055
_cell_angle_gamma 39.681822
_cell_volume 806.196013
_symmetry_space_group_name_H-M "P -1"
_symmetry_group_IT_number 2
_symmetry_cell_setting 'triclinic'
loop_
_space_group_symop_operation_xyz
x,y,z
-x,-y,-z
loop_
_atom_site_type_symbol
_atom_site_label
_atom_site_fract_x
_atom_site_fract_y
_atom_site_fract_z
Si Si1 0.304704 0.716736 0.097241
Si Si2 0.883690 0.816553 0.124791
Si Si3 0.355352 0.024855 0.845188
Si Si4 0.587066 0.137040 0.434809
Si Si5 0.826222 0.949703 0.413623
Si Si6 0.068964 0.667704 0.715641
Si Si7 0.521426 0.618272 0.283633
Si Si8 0.393821 0.080397 0.997618
O O1 0.035352 0.748996 0.321440
O O2 0.500000 0.500000 0.000000
O O3 0.300174 0.832335 0.997209
O O4 0.387905 0.871281 0.027619
O O5 0.837336 0.889500 0.070251
O O6 0.632444 0.806687 0.359168
O O7 0.994979 0.561536 0.130864
O O8 0.000000 0.000000 0.000000
O O9 0.378980 0.225909 0.803950
O O10 0.593746 0.931621 0.645716
O O11 0.637155 0.361218 0.286740
O O12 0.500000 0.000000 0.500000
O O13 0.769973 0.997460 0.373512
O O14 0.878928 0.180242 0.321903
O O15 0.271004 0.629284 0.512875
O O16 0.857157 0.811039 0.813198
O O17 0.523087 0.732711 0.177551
O O18 0.500000 0.000000 0.000000
#
# Coordination Sequence:
#
# PCOD9001030 Si02
#       8
#     2   2   2   2   2   2   2   2
#     4  10  22  39  59  84 111 152 200 245 287 338
#     4  10  21  33  54  88 122 148 182 235 294 350
#     4   9  19  37  60  82 111 155 191 230 289 342
#     4  10  21  35  54  88 122 148 183 234 295 346
#     4   9  19  38  60  81 114 149 196 233 277 357
#     4   9  19  37  60  82 111 155 191 230 289 342
#     4   9  19  38  60  81 114 149 196 233 277 357
#     4  10  22  39  59  84 111 152 200 245 287 338
#
# _framework density 19.846291000000001
#
# number of rings (size 3 to 8) (size 9 to 14) (size 15 to 20)
#    0.000    2.500    0.000    0.750    3.500    5.000 
#    4.500    3.750    0.000    0.000    0.000    0.000 
#    0.000    0.000    0.000    0.000    0.000    0.000 
#
# Total GULP energy -89090.315137 kJ/mol
# GULP energy per Si atom -5568.144696 kJ/mol
# Density = 1.980112 g / cm^3
# Si number density = 19.846291 Si / 1000 Ang^3
#
#
#
# Elastic Constant Matrix: (Units=GPa)
#
#
# Indices 1 2 3 4 5 6 
#
# 1 137.1988 22.6369 21.3260 2.8095 -2.7409 -31.6848
# 2 22.6369 69.4100 2.9715 17.6162 -14.9748 -15.7515
# 3 21.3260 2.9715 65.5854 5.0732 -1.4933 -4.9851
# 4 2.8095 17.6162 5.0732 21.8017 -5.3482 0.2957
# 5 -2.7409 -14.9748 -1.4933 -5.3482 26.1900 5.9061
# 6 -31.6848 -15.7515 -4.9851 0.2957 5.9061 17.4001
#
#
#
# Elastic Compliance Matrix: (Units=1/GPa)
#
#
# Indices 1 2 3 4 5 6 
#
# 1 0.013738 0.002070 -0.002199 -0.004467 -0.004716 0.027937
# 2 0.002070 0.026057 0.001896 -0.020906 0.004962 0.026571
# 3 -0.002199 0.001896 0.016458 -0.005061 0.000208 0.002442
# 4 -0.004467 -0.020906 -0.005061 0.066987 0.008290 -0.032461
# 5 -0.004716 0.004962 0.000208 0.008290 0.046752 -0.020047
# 6 0.027937 0.026571 0.002442 -0.032461 -0.020047 0.140452
#
#
# Mechanical properties :
#
#
# Convention : Reuss Voigt Hill
#
# Bulk Modulus (GPa) = 16.72608 40.67365 28.69986
# Shear Modulus (GPa) = 15.29798 28.09569 21.69683
#
# Velocity S-wave (km/s) = 2.77938 3.76661 3.31001
# Velocity P-wave (km/s) = 4.32967 6.28135 5.39451
#
# Compressibility (1/GPa) = 0.05978689
#
# Stress axis : x y z
#
# Youngs Moduli (GPa) = 72.79073 38.37678 60.75941
#
# Poissons Ratio (x) = -0.07942 0.13363
# Poissons Ratio (y) = -0.15065 -0.11522
# Poissons Ratio (z) = 0.16009 -0.07277
#
# Static dielectric constant tensor:
#      x y z
#    x 1.665130 0.009050 0.001390 
#    y 0.009050 1.751230 0.022960 
#    z 0.001390 0.022960 1.722240 
# 
# From -- ./inp_files/351817.got.cif
#   From: 2010.05.17/outbox.cif.g08.bks.cpg/sg2_176_cif.got.tgz:351817.got - 2010.06.03 11:33:40.
