data_PCOD9001345
_publ_section_title
;
Structure prediction by ZEFSAII (Michael W. Deem and Ramdas Pophale) SiO2 
 PCOD9001345
Probable space group: P -1
;
_chemical_formula_sum "Si O2"
_cell_formula_units_Z 16
_cell_length_a 12.958614
_cell_length_b 22.251884
_cell_length_c 6.710702
_cell_angle_alpha 101.573611
_cell_angle_beta 64.456785
_cell_angle_gamma 155.576975
_cell_volume 618.962099
_symmetry_space_group_name_H-M "P -1"
_symmetry_group_IT_number 2
_symmetry_cell_setting 'triclinic'
loop_
_space_group_symop_operation_xyz
x,y,z
-x,-y,-z
loop_
_atom_site_type_symbol
_atom_site_label
_atom_site_fract_x
_atom_site_fract_y
_atom_site_fract_z
Si Si1 0.797822 0.826221 0.889923
Si Si2 0.069676 0.836125 0.704013
Si Si3 0.797892 0.471641 0.312188
Si Si4 0.064665 0.483677 0.229061
Si Si5 0.188941 0.919235 0.119051
Si Si6 0.935205 0.918949 0.293825
Si Si7 0.811096 0.230307 0.307977
Si Si8 0.930357 0.266460 0.773683
O O1 0.854289 0.783138 0.763315
O O2 0.428410 0.655874 0.096024
O O3 0.949307 0.913079 0.038435
O O4 0.946437 0.952018 0.705051
O O5 0.035188 0.744771 0.660043
O O6 0.435877 0.031948 0.476058
O O7 0.051769 0.838348 0.960210
O O8 0.428493 0.272581 0.475361
O O9 0.946329 0.494365 0.348582
O O10 0.854253 0.571138 0.382412
O O11 0.949646 0.536403 0.012122
O O12 0.864117 0.327425 0.381787
O O13 0.035200 0.790430 0.304754
O O14 0.135870 0.963309 0.245878
O O15 0.564162 0.096095 0.911943
O O16 0.948306 0.286611 0.011950
#
# Coordination Sequence:
#
# PCOD9001345 Si02
#       8
#     2   2   2   2   2   2   2   2
#     4  10  21  35  51  73 100 129 163 203 244 288
#     4   9  18  33  52  74 100 129 162 200 241 287
#     4  10  21  35  51  73 100 129 163 203 244 288
#     4  10  21  35  51  73 100 129 163 203 244 288
#     4   9  18  33  52  74 100 129 162 200 241 287
#     4  10  21  35  51  73 100 129 163 203 244 288
#     4   9  18  33  52  74 100 129 162 200 241 287
#     4   9  18  33  52  74 100 129 162 200 241 287
#
# _framework density 25.849727000000001
#
# number of rings (size 3 to 8) (size 9 to 14) (size 15 to 20)
#    0.000    2.500    0.000    1.500    0.000    4.000 
#    0.000    0.000    0.000    0.000    0.000    0.000 
#    0.000    0.000    0.000    0.000    0.000    0.000 
#
# Total GULP energy -89508.678059 kJ/mol
# GULP energy per Si atom -5594.292379 kJ/mol
# Density = 2.579089 g / cm^3
# Si number density = 25.849727 Si / 1000 Ang^3
#
#
#
# Elastic Constant Matrix: (Units=GPa)
#
#
# Indices 1 2 3 4 5 6 
#
# 1 238.9995 62.4212 57.0133 -22.8286 -14.4526 -46.6832
# 2 62.4212 115.1144 11.8900 -14.4749 -1.9329 -54.2448
# 3 57.0133 11.8900 53.9553 -8.1321 -5.1010 -26.0347
# 4 -22.8286 -14.4749 -8.1321 41.1712 -11.3859 6.8223
# 5 -14.4526 -1.9329 -5.1010 -11.3859 53.2334 5.6039
# 6 -46.6832 -54.2448 -26.0347 6.8223 5.6039 54.7664
#
#
#
# Elastic Compliance Matrix: (Units=1/GPa)
#
#
# Indices 1 2 3 4 5 6 
#
# 1 0.006587 -0.002990 -0.006197 0.001926 0.001571 -0.000693
# 2 -0.002990 0.019692 0.009452 0.003452 -0.000673 0.021088
# 3 -0.006197 0.009452 0.032819 0.003321 0.000493 0.019217
# 4 0.001926 0.003452 0.003321 0.028734 0.006864 0.002358
# 5 0.001571 -0.000673 0.000493 0.006864 0.020923 -0.002089
# 6 -0.000693 0.021088 0.019217 0.002358 -0.002089 0.047611
#
#
# Mechanical properties :
#
#
# Convention : Reuss Voigt Hill
#
# Bulk Modulus (GPa) = 16.77070 74.52423 45.64747
# Shear Modulus (GPa) = 28.45593 48.28385 38.36989
#
# Velocity S-wave (km/s) = 3.32146 4.32657 3.85690
# Velocity P-wave (km/s) = 4.60558 7.33835 6.12628
#
# Compressibility (1/GPa) = 0.05962781
#
# Stress axis : x y z
#
# Youngs Moduli (GPa) = 151.81808 50.78262 30.47031
#
# Poissons Ratio (x) = 0.15182 0.18882
# Poissons Ratio (y) = 0.45389 -0.28800
# Poissons Ratio (z) = 0.94080 -0.47999
#
# Static dielectric constant tensor:
#      x y z
#    x 2.056030 0.001310 0.079550 
#    y 0.001310 2.051690 0.139650 
#    z 0.079550 0.139650 2.049050 
# 
# From -- ./inp_files/181576.got.cif
#   From: 2010.05.17/outbox.cif.g08.bks.cpg/sg2_91_cif.got.tgz:181576.got - 2010.06.03 11:33:40.
