data_PCOD9001687
_publ_section_title
;
Structure prediction by ZEFSAII (Michael W. Deem and Ramdas Pophale) SiO2 
 PCOD9001687
Probable space group: P -1
;
_chemical_formula_sum "Si O2"
_cell_formula_units_Z 14
_cell_length_a 9.940378
_cell_length_b 14.335122
_cell_length_c 4.971921
_cell_angle_alpha 93.147270
_cell_angle_beta 73.543808
_cell_angle_gamma 57.773910
_cell_volume 555.957803
_symmetry_space_group_name_H-M "P -1"
_symmetry_group_IT_number 2
_symmetry_cell_setting 'triclinic'
loop_
_space_group_symop_operation_xyz
x,y,z
-x,-y,-z
loop_
_atom_site_type_symbol
_atom_site_label
_atom_site_fract_x
_atom_site_fract_y
_atom_site_fract_z
Si Si1 0.608238 0.068684 0.251079
Si Si2 0.283870 0.084342 0.328404
Si Si3 0.397108 0.608463 0.278062
Si Si4 0.007258 0.250626 0.909932
Si Si5 0.112257 0.390000 0.119703
Si Si6 0.703147 0.245954 0.160080
Si Si7 0.820644 0.460342 0.700439
O O1 0.412229 0.123857 0.281133
O O2 0.674881 0.147213 0.192429
O O3 0.631314 0.024283 0.535105
O O4 0.715579 0.959200 0.974966
O O5 0.103284 0.174724 0.581068
O O6 0.428084 0.654157 0.540046
O O7 0.273700 0.573064 0.449596
O O8 0.500000 0.500000 0.000000
O O9 0.328337 0.711563 0.123151
O O10 0.860691 0.378659 0.914498
O O11 0.139214 0.276348 0.969951
O O12 0.896679 0.210741 0.105415
O O13 0.253891 0.411493 0.141505
O O14 0.999457 0.410949 0.446895
O O15 0.000000 0.500000 0.000000
#
# Coordination Sequence:
#
# PCOD9001687 Si02
#       7
#     2   2   2   2   2   2   2
#     4  10  23  44  60  88 121 155 193 247 304 352
#     4  10  23  41  65  86 119 153 199 248 296 359
#     4  11  23  40  60  87 122 161 195 237 291 353
#     4  10  21  35  61  88 116 155 200 245 297 341
#     4   9  17  34  54  81 117 154 188 244 287 341
#     4  11  23  41  63  87 123 154 198 247 292 351
#     4   9  19  35  54  82 121 152 195 242 286 342
#
# _framework density 25.181766
#
# number of rings (size 3 to 8) (size 9 to 14) (size 15 to 20)
#    0.000    2.000    1.429    1.286    2.000    2.286 
#    7.714    0.000    0.000    0.000    0.000    0.000 
#    0.000    0.000    0.000    0.000    0.000    0.000 
#
# Total GULP energy -77997.054168 kJ/mol
# GULP energy per Si atom -5571.218155 kJ/mol
# Density = 2.512445 g / cm^3
# Si number density = 25.181766 Si / 1000 Ang^3
#
#
#
# Elastic Constant Matrix: (Units=GPa)
#
#
# Indices 1 2 3 4 5 6 
#
# 1 61.1278 61.9391 23.4743 5.7577 -1.5608 31.7824
# 2 61.9391 120.8253 20.4571 -4.3728 -0.1046 50.8427
# 3 23.4743 20.4571 127.9071 0.5429 6.4298 12.1494
# 4 5.7577 -4.3728 0.5429 40.9799 0.3692 6.6656
# 5 -1.5608 -0.1046 6.4298 0.3692 37.1804 -1.4795
# 6 31.7824 50.8427 12.1494 6.6656 -1.4795 52.8280
#
#
#
# Elastic Compliance Matrix: (Units=1/GPa)
#
#
# Indices 1 2 3 4 5 6 
#
# 1 0.038572 -0.017351 -0.003934 -0.006469 0.002127 -0.004727
# 2 -0.017351 0.022427 0.000798 0.006821 -0.001358 -0.012228
# 3 -0.003934 0.000798 0.008540 0.000620 -0.001665 -0.000490
# 4 -0.006469 0.006821 0.000620 0.027056 -0.000877 -0.006254
# 5 0.002127 -0.001358 -0.001665 -0.000877 0.027329 0.001286
# 6 -0.004727 -0.012228 -0.000490 -0.006254 0.001286 0.034479
#
#
# Mechanical properties :
#
#
# Convention : Reuss Voigt Hill
#
# Bulk Modulus (GPa) = 35.00731 57.95568 46.48150
# Shear Modulus (GPa) = 23.93499 39.79698 31.86598
#
# Velocity S-wave (km/s) = 3.08634 3.97972 3.56116
# Velocity P-wave (km/s) = 5.16069 6.64699 5.95043
#
# Compressibility (1/GPa) = 0.02856546
#
# Stress axis : x y z
#
# Youngs Moduli (GPa) = 25.92548 44.58929 117.09284
#
# Poissons Ratio (x) = 0.77365 0.46070
# Poissons Ratio (y) = 0.44982 -0.09346
# Poissons Ratio (z) = 0.10200 -0.03559
#
# Static dielectric constant tensor:
#      x y z
#    x 2.377560 -0.035140 -0.073570 
#    y -0.035140 2.020140 0.032970 
#    z -0.073570 0.032970 2.043170 
# 
# From -- ./inp_files/26872.got.cif
#   From: 2010.05.17/outbox.cif.g08.bks.cpg/sg2_14_cif.got.tgz:26872.got - 2010.06.03 11:33:40.
