data_PCOD9001408
_publ_section_title
;
Structure prediction by ZEFSAII (Michael W. Deem and Ramdas Pophale) SiO2 
 PCOD9001408
Probable space group: P -1
;
_chemical_formula_sum "Si O2"
_cell_formula_units_Z 16
_cell_length_a 10.212829
_cell_length_b 17.386371
_cell_length_c 5.412199
_cell_angle_alpha 83.614441
_cell_angle_beta 81.018478
_cell_angle_gamma 115.982941
_cell_volume 835.643915
_symmetry_space_group_name_H-M "P -1"
_symmetry_group_IT_number 2
_symmetry_cell_setting 'triclinic'
loop_
_space_group_symop_operation_xyz
x,y,z
-x,-y,-z
loop_
_atom_site_type_symbol
_atom_site_label
_atom_site_fract_x
_atom_site_fract_y
_atom_site_fract_z
Si Si1 0.119408 0.451444 0.980323
Si Si2 0.936589 0.643632 0.460362
Si Si3 0.521285 0.303991 0.783080
Si Si4 0.368433 0.946263 0.748000
Si Si5 0.360801 0.416192 0.685150
Si Si6 0.206156 0.792656 0.571669
Si Si7 0.282488 0.650471 0.795213
Si Si8 0.491867 0.123551 0.873569
O O1 0.073356 0.417041 0.282964
O O2 0.279085 0.449248 0.895614
O O3 0.156655 0.550522 0.883330
O O4 0.029422 0.392016 0.792590
O O5 0.063166 0.739888 0.460188
O O6 0.771381 0.632522 0.459840
O O7 0.415343 0.349563 0.797715
O O8 0.619145 0.335609 0.489167
O O9 0.440868 0.198347 0.857481
O O10 0.624238 0.332360 0.986547
O O11 0.216614 0.874183 0.696669
O O12 0.500000 0.000000 0.500000
O O13 0.367813 0.025628 0.873989
O O14 0.436177 0.891872 0.895484
O O15 0.500000 0.500000 0.500000
O O16 0.219138 0.719599 0.760617
O O17 0.361091 0.836256 0.358778
#
# Coordination Sequence:
#
# PCOD9001408 Si02
#       8
#     2   2   2   2   2   2   2   2
#     4  10  22  37  50  80 106 152 194 223 274 313
#     4  10  24  36  54  80 108 157 188 223 277 318
#     4  11  21  33  58  83 111 142 190 231 272 321
#     4   9  17  34  56  82 111 139 173 223 286 342
#     4  10  21  38  56  77 110 153 195 233 263 313
#     4  10  21  35  55  80 118 140 182 226 278 345
#     4  11  21  34  55  81 107 149 183 232 280 314
#     4   9  19  34  56  86 109 141 178 224 288 329
#
# _framework density 19.146912
#
# number of rings (size 3 to 8) (size 9 to 14) (size 15 to 20)
#    0.750    1.250    2.500    1.500    3.500    2.000 
#    0.000    0.000    0.000    0.750    0.000    8.750 
#    0.000    0.000    0.000    0.000    0.000    0.000 
#
# Total GULP energy -89129.639840 kJ/mol
# GULP energy per Si atom -5570.602490 kJ/mol
# Density = 1.910333 g / cm^3
# Si number density = 19.146912 Si / 1000 Ang^3
#
#
#
# Elastic Constant Matrix: (Units=GPa)
#
#
# Indices 1 2 3 4 5 6 
#
# 1 60.6377 38.8250 20.6060 -0.9044 19.6359 5.9536
# 2 38.8250 140.9651 26.0825 3.7884 18.8737 18.7596
# 3 20.6060 26.0825 112.1615 -2.2274 7.0098 -0.6052
# 4 -0.9044 3.7884 -2.2274 34.6128 0.7765 12.0153
# 5 19.6359 18.8737 7.0098 0.7765 28.3548 0.6040
# 6 5.9536 18.7596 -0.6052 12.0153 0.6040 22.6370
#
#
#
# Elastic Compliance Matrix: (Units=1/GPa)
#
#
# Indices 1 2 3 4 5 6 
#
# 1 0.024971 -0.003985 -0.002759 0.002763 -0.013939 -0.004433
# 2 -0.003985 0.009912 -0.001374 0.001554 -0.003372 -0.007937
# 3 -0.002759 -0.001374 0.009729 -0.000047 0.000376 0.002139
# 4 0.002763 0.001554 -0.000047 0.036207 -0.003477 -0.021140
# 5 -0.013939 -0.003372 0.000376 -0.003477 0.047017 0.007061
# 6 -0.004433 -0.007937 0.002139 -0.021140 0.007061 0.063009
#
#
# Mechanical properties :
#
#
# Convention : Reuss Voigt Hill
#
# Bulk Modulus (GPa) = 35.24112 53.86569 44.55340
# Shear Modulus (GPa) = 23.09067 32.33765 27.71416
#
# Velocity S-wave (km/s) = 3.47648 4.11411 3.80866
# Velocity P-wave (km/s) = 5.87879 7.12473 6.53154
#
# Compressibility (1/GPa) = 0.02837594
#
# Stress axis : x y z
#
# Youngs Moduli (GPa) = 40.04699 100.89057 102.78319
#
# Poissons Ratio (x) = 0.40205 0.28355
# Poissons Ratio (y) = 0.15959 0.14123
# Poissons Ratio (z) = 0.11048 0.13863
#
# Static dielectric constant tensor:
#      x y z
#    x 1.709530 0.003000 -0.031990 
#    y 0.003000 1.749290 0.039020 
#    z -0.031990 0.039020 1.714470 
# 
# From -- ./inp_files/79655.got.cif
#   From: 2010.05.17/outbox.cif.g08.bks.cpg/sg2_40_cif.got.tgz:79655.got - 2010.06.03 11:33:40.
