data_PCOD9001703
_publ_section_title
;
Structure prediction by ZEFSAII (Michael W. Deem and Ramdas Pophale) SiO2 
 PCOD9001703
Probable space group: P -1
;
_chemical_formula_sum "Si O2"
_cell_formula_units_Z 16
_cell_length_a 11.029079
_cell_length_b 21.848463
_cell_length_c 8.189758
_cell_angle_alpha 136.818507
_cell_angle_beta 77.898088
_cell_angle_gamma 133.673176
_cell_volume 785.958759
_symmetry_space_group_name_H-M "P -1"
_symmetry_group_IT_number 2
_symmetry_cell_setting 'triclinic'
loop_
_space_group_symop_operation_xyz
x,y,z
-x,-y,-z
loop_
_atom_site_type_symbol
_atom_site_label
_atom_site_fract_x
_atom_site_fract_y
_atom_site_fract_z
Si Si1 0.559246 0.477994 0.099126
Si Si2 0.552475 0.112912 0.329911
Si Si3 0.997438 0.329290 0.567078
Si Si4 0.910237 0.537873 0.528616
Si Si5 0.460932 0.350170 0.395309
Si Si6 0.048304 0.094907 0.813318
Si Si7 0.368768 0.197319 0.466316
Si Si8 0.860623 0.161252 0.957097
O O1 0.527340 0.534877 0.358344
O O2 0.801991 0.590855 0.243701
O O3 0.500000 0.500000 0.000000
O O4 0.436456 0.312606 0.804152
O O5 0.795463 0.243258 0.555051
O O6 0.505425 0.185045 0.413741
O O7 0.500000 0.000000 0.000000
O O8 0.381858 0.001041 0.302181
O O9 0.918743 0.207973 0.224870
O O10 0.067023 0.445049 0.641602
O O11 0.678799 0.434894 0.439076
O O12 0.000000 0.500000 0.500000
O O13 0.066300 0.704495 0.876982
O O14 0.402108 0.266033 0.418066
O O15 0.273745 0.221949 0.075291
O O16 0.000000 0.000000 0.500000
O O17 0.866896 0.970670 0.757168
O O18 0.005931 0.165140 0.875874
#
# Coordination Sequence:
#
# PCOD9001703 Si02
#       8
#     2   2   2   2   2   2   2   2
#     4  10  22  39  60  92 124 156 205 255 303 364
#     4   9  17  36  60  85 119 160 199 249 298 355
#     4   9  18  34  63  86 119 158 202 243 307 355
#     4  10  21  35  61  90 116 158 209 243 307 369
#     4  11  22  40  61  87 126 164 192 258 311 359
#     4  11  23  38  64  90 119 159 207 250 306 366
#     4  10  23  38  61  91 124 156 212 247 301 368
#     4   8  19  35  58  89 117 155 198 249 298 365
#
# _framework density 20.357302000000001
#
# number of rings (size 3 to 8) (size 9 to 14) (size 15 to 20)
#    0.750    1.500    1.250    1.125    3.500    1.500 
#    0.000    0.000    0.000    2.250    0.000    0.000 
#    0.000    0.000    0.000    0.000    0.000    0.000 
#
# Total GULP energy -89095.622594 kJ/mol
# GULP energy per Si atom -5568.476412 kJ/mol
# Density = 2.031097 g / cm^3
# Si number density = 20.357302 Si / 1000 Ang^3
#
#
#
# Elastic Constant Matrix: (Units=GPa)
#
#
# Indices 1 2 3 4 5 6 
#
# 1 185.2994 52.2862 77.1184 21.4801 -4.5457 16.5421
# 2 52.2862 60.3039 34.0470 23.8025 12.6364 9.6062
# 3 77.1184 34.0470 101.1555 9.6243 -9.0903 4.1167
# 4 21.4801 23.8025 9.6243 25.6229 3.2964 1.5020
# 5 -4.5457 12.6364 -9.0903 3.2964 44.4509 14.6995
# 6 16.5421 9.6062 4.1167 1.5020 14.6995 21.7493
#
#
#
# Elastic Compliance Matrix: (Units=1/GPa)
#
#
# Indices 1 2 3 4 5 6 
#
# 1 0.009699 -0.004267 -0.005144 -0.002296 0.003561 -0.006767
# 2 -0.004267 0.038012 -0.007635 -0.027420 -0.009524 -0.003768
# 3 -0.005144 -0.007635 0.016280 0.004679 0.004306 0.000970
# 4 -0.002296 -0.027420 0.004679 0.064058 0.001210 0.007730
# 5 0.003561 -0.009524 0.004306 0.001210 0.033691 -0.022171
# 6 -0.006767 -0.003768 0.000970 0.007730 -0.022171 0.067056
#
#
# Mechanical properties :
#
#
# Convention : Reuss Voigt Hill
#
# Bulk Modulus (GPa) = 33.44647 74.85131 54.14889
# Shear Modulus (GPa) = 18.32475 30.58509 24.45492
#
# Velocity S-wave (km/s) = 3.00351 3.88030 3.46972
# Velocity P-wave (km/s) = 5.33793 7.54482 6.53520
#
# Compressibility (1/GPa) = 0.02989852
#
# Stress axis : x y z
#
# Youngs Moduli (GPa) = 103.09885 26.30755 61.42630
#
# Poissons Ratio (x) = 0.11226 0.31601
# Poissons Ratio (y) = 0.43994 0.46896
# Poissons Ratio (z) = 0.53039 0.20085
#
# Static dielectric constant tensor:
#      x y z
#    x 1.712300 0.024240 -0.029250 
#    y 0.024240 1.795660 -0.004950 
#    z -0.029250 -0.004950 1.762460 
# 
# From -- ./inp_files/285197.got.cif
#   From: 2010.05.17/outbox.cif.g08.bks.cpg/sg2_143_cif.got.tgz:285197.got - 2010.06.03 11:33:40.
