data_PCOD9001812
_publ_section_title
;
Structure prediction by ZEFSAII (Michael W. Deem and Ramdas Pophale) SiO2 
 PCOD9001812
Probable space group: P -1
;
_chemical_formula_sum "Si O2"
_cell_formula_units_Z 16
_cell_length_a 8.753102
_cell_length_b 8.909076
_cell_length_c 15.065852
_cell_angle_alpha 50.735340
_cell_angle_beta 107.214778
_cell_angle_gamma 81.737545
_cell_volume 776.973225
_symmetry_space_group_name_H-M "P -1"
_symmetry_group_IT_number 2
_symmetry_cell_setting 'triclinic'
loop_
_space_group_symop_operation_xyz
x,y,z
-x,-y,-z
loop_
_atom_site_type_symbol
_atom_site_label
_atom_site_fract_x
_atom_site_fract_y
_atom_site_fract_z
Si Si1 0.360892 0.197241 0.480533
Si Si2 0.434214 0.266971 0.272870
Si Si3 0.390678 0.145904 0.118208
Si Si4 0.866490 0.907719 0.041956
Si Si5 0.315010 0.318671 0.707648
Si Si6 0.939731 0.374509 0.659203
Si Si7 0.654521 0.323934 0.532264
Si Si8 0.523122 0.300900 0.919425
O O1 0.328961 0.277055 0.342593
O O2 0.211809 0.379552 0.447056
O O3 0.560119 0.178004 0.541492
O O4 0.384549 0.958084 0.595249
O O5 0.354684 0.234104 0.178401
O O6 0.462817 0.479819 0.182747
O O7 0.222044 0.151593 0.034475
O O8 0.539096 0.893456 0.237332
O O9 0.470744 0.271658 0.021345
O O10 0.707222 0.095512 0.000497
O O11 0.000000 0.000000 0.000000
O O12 0.984499 0.710960 0.199090
O O13 0.322651 0.535809 0.595678
O O14 0.376036 0.288952 0.831917
O O15 0.117189 0.344331 0.650229
O O16 0.838280 0.243458 0.648739
O O17 0.500000 0.500000 0.500000
#
# Coordination Sequence:
#
# PCOD9001812 Si02
#       8
#     2   2   2   2   2   2   2   2
#     4  10  23  42  63  91 122 169 207 254 309 365
#     4  11  23  41  68  83 128 171 207 243 309 381
#     4  11  22  40  66  95 121 167 206 248 315 373
#     4  11  23  37  66  96 124 155 207 265 306 356
#     4  11  20  40  66  94 124 154 212 265 306 358
#     4  11  21  39  65  94 124 153 211 264 307 358
#     4  10  21  35  64  92 118 158 207 261 303 353
#     4  11  21  43  63  90 125 169 204 253 309 370
#
# _framework density 20.59273
#
# number of rings (size 3 to 8) (size 9 to 14) (size 15 to 20)
#    0.000    1.250    3.750    3.750    7.000    0.000 
#    0.000    3.125    5.500    0.000    0.000    0.000 
#    0.000    0.000    0.000    0.000    0.000    0.000 
#
# Total GULP energy -89291.051221 kJ/mol
# GULP energy per Si atom -5580.690701 kJ/mol
# Density = 2.054586 g / cm^3
# Si number density = 20.592730 Si / 1000 Ang^3
#
#
#
# Elastic Constant Matrix: (Units=GPa)
#
#
# Indices 1 2 3 4 5 6 
#
# 1 80.3592 14.6921 39.0830 7.9927 6.7045 10.2014
# 2 14.6921 86.3450 34.4456 12.6928 1.2522 12.4478
# 3 39.0830 34.4456 103.4382 4.5100 4.2247 11.5462
# 4 7.9927 12.6928 4.5100 42.9919 3.6588 -10.2893
# 5 6.7045 1.2522 4.2247 3.6588 38.4569 2.3817
# 6 10.2014 12.4478 11.5462 -10.2893 2.3817 20.7023
#
#
#
# Elastic Compliance Matrix: (Units=1/GPa)
#
#
# Indices 1 2 3 4 5 6 
#
# 1 0.016473 0.001233 -0.005490 -0.004634 -0.001376 -0.007942
# 2 0.001233 0.015744 -0.004152 -0.007294 0.001136 -0.011514
# 3 -0.005490 -0.004152 0.013344 0.000389 -0.000286 -0.002015
# 4 -0.004634 -0.007294 0.000389 0.031970 -0.003447 0.022739
# 5 -0.001376 0.001136 -0.000286 -0.003447 0.026853 -0.004648
# 6 -0.007942 -0.011514 -0.002015 0.022739 -0.004648 0.072100
#
#
# Mechanical properties :
#
#
# Convention : Reuss Voigt Hill
#
# Bulk Modulus (GPa) = 34.79046 49.62043 42.20545
# Shear Modulus (GPa) = 24.64488 32.55832 28.60160
#
# Velocity S-wave (km/s) = 3.46320 3.98057 3.73086
# Velocity P-wave (km/s) = 5.73785 6.72867 6.25291
#
# Compressibility (1/GPa) = 0.02874351
#
# Stress axis : x y z
#
# Youngs Moduli (GPa) = 60.70672 63.51786 74.93941
#
# Poissons Ratio (x) = -0.07834 0.41141
# Poissons Ratio (y) = -0.07487 0.31113
# Poissons Ratio (z) = 0.33328 0.26371
#
# Static dielectric constant tensor:
#      x y z
#    x 1.769110 0.016650 -0.054350 
#    y 0.016650 1.762480 0.031260 
#    z -0.054350 0.031260 1.792510 
# 
# From -- ./inp_files/182519.got.cif
#   From: 2010.05.17/outbox.cif.g08.bks.cpg/sg2_92_cif.got.tgz:182519.got - 2010.06.03 11:33:40.
