data_PCOD9001618
_publ_section_title
;
Structure prediction by ZEFSAII (Michael W. Deem and Ramdas Pophale) SiO2 
 PCOD9001618
Probable space group: P -1
;
_chemical_formula_sum "Si O2"
_cell_formula_units_Z 14
_cell_length_a 9.400879
_cell_length_b 12.327010
_cell_length_c 21.157865
_cell_angle_alpha 31.696764
_cell_angle_beta 32.403791
_cell_angle_gamma 50.321437
_cell_volume 661.998962
_symmetry_space_group_name_H-M "P -1"
_symmetry_group_IT_number 2
_symmetry_cell_setting 'triclinic'
loop_
_space_group_symop_operation_xyz
x,y,z
-x,-y,-z
loop_
_atom_site_type_symbol
_atom_site_label
_atom_site_fract_x
_atom_site_fract_y
_atom_site_fract_z
Si Si1 0.828105 0.662532 0.962440
Si Si2 0.765053 0.695613 0.821192
Si Si3 0.819817 0.459337 0.709054
Si Si4 0.799169 0.865571 0.088933
Si Si5 0.832721 0.044154 0.853620
Si Si6 0.709453 0.145832 0.645109
Si Si7 0.847814 0.457397 0.337104
O O1 0.507621 0.577195 0.148714
O O2 0.833790 0.670661 0.880748
O O3 0.925357 0.906540 0.832791
O O4 0.000000 0.500000 0.000000
O O5 0.008800 0.685051 0.688150
O O6 0.707521 0.924586 0.723825
O O7 0.500000 0.500000 0.000000
O O8 0.994000 0.708212 0.514222
O O9 0.917763 0.408625 0.767894
O O10 0.923281 0.303019 0.700021
O O11 0.501774 0.901120 0.194978
O O12 0.760740 0.617020 0.243471
O O13 0.903272 0.939111 0.944153
O O14 0.000000 0.000000 0.000000
O O15 0.500000 0.000000 0.000000
O O16 0.632908 0.300687 0.543362
#
# Coordination Sequence:
#
# PCOD9001618 Si02
#       7
#     2   2   2   2   2   2   2
#     4  11  23  41  63  92 122 164 209 251 297 365
#     4  12  21  40  65  89 119 169 205 245 309 373
#     4   9  20  41  59  88 127 158 196 252 317 348
#     4  12  20  37  64  96 115 157 213 254 292 362
#     4  10  21  40  62  88 130 164 203 250 302 369
#     4  10  22  38  62  92 126 157 197 260 317 354
#     4  10  21  35  59  92 126 145 205 254 305 344
#
# _framework density 21.148069
#
# number of rings (size 3 to 8) (size 9 to 14) (size 15 to 20)
#    0.857    0.571    2.857    4.286    0.000    0.000 
#    0.000    8.571    0.000    1.714    0.000    0.000 
#    0.000    0.000    0.000    0.000    0.000    0.000 
#
# Total GULP energy -78088.995523 kJ/mol
# GULP energy per Si atom -5577.785394 kJ/mol
# Density = 2.109994 g / cm^3
# Si number density = 21.148069 Si / 1000 Ang^3
#
#
#
# Elastic Constant Matrix: (Units=GPa)
#
#
# Indices 1 2 3 4 5 6 
#
# 1 84.3970 20.9144 10.9988 -11.2031 9.3882 14.4928
# 2 20.9144 107.5823 15.7879 -26.6508 -8.1177 11.7746
# 3 10.9988 15.7879 74.0889 -19.3141 -5.6704 4.2784
# 4 -11.2031 -26.6508 -19.3141 41.0750 0.9804 1.2794
# 5 9.3882 -8.1177 -5.6704 0.9804 24.9335 -6.1956
# 6 14.4928 11.7746 4.2784 1.2794 -6.1956 30.5651
#
#
#
# Elastic Compliance Matrix: (Units=1/GPa)
#
#
# Indices 1 2 3 4 5 6 
#
# 1 0.015243 -0.001835 -0.001339 0.002804 -0.008797 -0.008234
# 2 -0.001835 0.012117 0.000093 0.007427 0.003518 -0.003408
# 3 -0.001339 0.000093 0.015872 0.007110 0.003567 -0.001197
# 4 0.002804 0.007427 0.007110 0.033477 0.000028 -0.006582
# 5 -0.008797 0.003518 0.003567 0.000028 0.048387 0.012124
# 6 -0.008234 -0.003408 -0.001197 -0.006582 0.012124 0.040835
#
#
# Mechanical properties :
#
#
# Convention : Reuss Voigt Hill
#
# Bulk Modulus (GPa) = 26.97644 40.16337 33.56991
# Shear Modulus (GPa) = 27.10778 33.87251 30.49014
#
# Velocity S-wave (km/s) = 3.58412 4.00645 3.80115
# Velocity P-wave (km/s) = 5.46915 6.35884 5.93070
#
# Compressibility (1/GPa) = 0.03706938
#
# Stress axis : x y z
#
# Youngs Moduli (GPa) = 65.60535 82.53103 63.00404
#
# Poissons Ratio (x) = 0.15143 0.08435
# Poissons Ratio (y) = 0.12037 -0.00583
# Poissons Ratio (z) = 0.08783 -0.00764
#
# Static dielectric constant tensor:
#      x y z
#    x 1.809260 -0.007050 0.007380 
#    y -0.007050 1.768830 -0.029920 
#    z 0.007380 -0.029920 1.805020 
# 
# From -- ./inp_files/588812.got.cif
#   From: 2010.05.17/outbox.cif.g08.bks.cpg/sg2_295_cif.got.tgz:588812.got - 2010.06.03 11:33:40.
