data_PCOD9001206
_publ_section_title
;
Structure prediction by ZEFSAII (Michael W. Deem and Ramdas Pophale) SiO2 
 PCOD9001206
Probable space group: P -1
;
_chemical_formula_sum "Si O2"
_cell_formula_units_Z 14
_cell_length_a 9.102245
_cell_length_b 12.049182
_cell_length_c 21.244923
_cell_angle_alpha 24.706592
_cell_angle_beta 136.563606
_cell_angle_gamma 141.677421
_cell_volume 603.084793
_symmetry_space_group_name_H-M "P -1"
_symmetry_group_IT_number 2
_symmetry_cell_setting 'triclinic'
loop_
_space_group_symop_operation_xyz
x,y,z
-x,-y,-z
loop_
_atom_site_type_symbol
_atom_site_label
_atom_site_fract_x
_atom_site_fract_y
_atom_site_fract_z
Si Si1 0.726970 0.051974 0.627420
Si Si2 0.845828 0.758151 0.164958
Si Si3 0.448831 0.406457 0.303105
Si Si4 0.126108 0.385866 0.494365
Si Si5 0.302453 0.280278 0.002529
Si Si6 0.523980 0.014006 0.714563
Si Si7 0.019040 0.845933 0.648612
O O1 0.561560 0.214720 0.473589
O O2 0.673927 0.967319 0.727208
O O3 0.997887 0.262643 0.584483
O O4 0.653485 0.780106 0.696885
O O5 0.656695 0.705496 0.188475
O O6 0.970191 0.541763 0.333807
O O7 0.723614 0.660586 0.108688
O O8 0.037496 0.096212 0.042415
O O9 0.231001 0.401021 0.278583
O O10 0.393025 0.637847 0.449287
O O11 0.098870 0.104512 0.591935
O O12 0.394418 0.023007 0.171298
O O13 0.500000 0.500000 0.000000
O O14 0.248899 0.790885 0.737078
O O15 0.000000 0.000000 0.500000
#
# Coordination Sequence:
#
# PCOD9001206 Si02
#       7
#     2   2   2   2   2   2   2
#     4   9  16  29  53  79 105 138 176 219 267 321
#     4   9  19  37  57  78 106 141 181 227 269 306
#     4   9  17  32  52  77 109 142 175 215 268 319
#     4   9  20  34  54  79 111 139 173 224 271 321
#     4  10  21  34  57  83 103 137 185 233 263 309
#     4  11  20  33  52  83 110 137 179 220 271 323
#     4  11  21  32  52  82 112 147 169 211 273 333
#
# _framework density 23.213982999999999
#
# number of rings (size 3 to 8) (size 9 to 14) (size 15 to 20)
#    0.000    2.286    1.429    2.571    2.000    0.000 
#    0.000    0.714    0.000    0.857    0.000    0.000 
#    0.000    0.000    0.000    0.000    0.000    0.000 
#
# Total GULP energy -77994.648016 kJ/mol
# GULP energy per Si atom -5571.046287 kJ/mol
# Density = 2.316115 g / cm^3
# Si number density = 23.213983 Si / 1000 Ang^3
#
#
#
# Elastic Constant Matrix: (Units=GPa)
#
#
# Indices 1 2 3 4 5 6 
#
# 1 122.0196 32.4641 27.9739 8.3611 -41.2827 23.3252
# 2 32.4641 89.4544 17.8396 -2.7623 -19.8242 7.1036
# 3 27.9739 17.8396 49.6108 10.9861 -37.5512 11.7012
# 4 8.3611 -2.7623 10.9861 40.9661 2.9832 -7.4736
# 5 -41.2827 -19.8242 -37.5512 2.9832 36.5732 -11.7433
# 6 23.3252 7.1036 11.7012 -7.4736 -11.7433 48.6510
#
#
#
# Elastic Compliance Matrix: (Units=1/GPa)
#
#
# Indices 1 2 3 4 5 6 
#
# 1 0.101455 -0.004723 0.312543 -0.143750 0.431396 -0.041075
# 2 -0.004723 0.013054 -0.010059 0.005447 -0.008528 0.001556
# 3 0.312543 -0.010059 1.127606 -0.500709 1.503006 -0.133704
# 4 -0.143750 0.005447 -0.500709 0.249150 -0.673063 0.064362
# 5 0.431396 -0.008528 1.503006 -0.673063 2.051483 -0.175286
# 6 -0.041075 0.001556 -0.133704 0.064362 -0.175286 0.039755
#
#
# Mechanical properties :
#
#
# Convention : Reuss Voigt Hill
#
# Bulk Modulus (GPa) = 0.54418 46.40443 23.47430
# Shear Modulus (GPa) = 1.38907 37.42521 19.40714
#
# Velocity S-wave (km/s) = 0.77439 4.01956 2.89452
# Velocity P-wave (km/s) = 1.01710 6.44792 4.61574
#
# Compressibility (1/GPa) = 1.83763674
#
# Stress axis : x y z
#
# Youngs Moduli (GPa) = 9.85660 76.60725 0.88683
#
# Poissons Ratio (x) = 0.36180 -0.27717
# Poissons Ratio (y) = 0.04655 0.00892
# Poissons Ratio (z) = -3.08061 0.77058
#
# Static dielectric constant tensor:
#      x y z
#    x 1.924450 0.026170 0.074310 
#    y 0.026170 2.071560 -0.054180 
#    z 0.074310 -0.054180 2.048140 
# 
# From -- ./inp_files/168593.got.cif
#   From: 2010.05.17/outbox.cif.g08.bks.cpg/sg2_85_cif.got.tgz:168593.got - 2010.06.03 11:33:40.
