data_PCOD9001299
_publ_section_title
;
Structure prediction by ZEFSAII (Michael W. Deem and Ramdas Pophale) SiO2 
 PCOD9001299
Probable space group: P -1
;
_chemical_formula_sum "Si O2"
_cell_formula_units_Z 14
_cell_length_a 19.019613
_cell_length_b 11.422427
_cell_length_c 17.934496
_cell_angle_alpha 150.815304
_cell_angle_beta 16.857593
_cell_angle_gamma 143.915899
_cell_volume 540.538292
_symmetry_space_group_name_H-M "P -1"
_symmetry_group_IT_number 2
_symmetry_cell_setting 'triclinic'
loop_
_space_group_symop_operation_xyz
x,y,z
-x,-y,-z
loop_
_atom_site_type_symbol
_atom_site_label
_atom_site_fract_x
_atom_site_fract_y
_atom_site_fract_z
Si Si1 0.363650 0.640829 0.950350
Si Si2 0.068203 0.292119 0.101253
Si Si3 0.381519 0.459642 0.220274
Si Si4 0.257548 0.848595 0.753457
Si Si5 0.384030 0.202972 0.932432
Si Si6 0.726751 0.811386 0.439750
Si Si7 0.218951 0.722374 0.982048
O O1 0.519631 0.704985 0.898851
O O2 0.534207 0.391552 0.603778
O O3 0.246866 0.780829 0.073874
O O4 0.145974 0.548489 0.162492
O O5 0.825712 0.326990 0.417356
O O6 0.992276 0.235166 0.063320
O O7 0.261212 0.069397 0.814417
O O8 0.581038 0.591068 0.048386
O O9 0.269825 0.324217 0.191722
O O10 0.262127 0.987263 0.902883
O O11 0.654214 0.056026 0.600806
O O12 0.470918 0.784969 0.726657
O O13 0.778922 0.564894 0.199895
O O14 0.953086 0.834331 0.277575
#
# Coordination Sequence:
#
# PCOD9001299 Si02
#       7
#     2   2   2   2   2   2   2
#     4  11  21  41  62  95 131 163 214 283 318 397
#     4  10  22  35  61  94 129 164 214 267 337 394
#     4  10  25  41  61  96 130 174 211 262 343 399
#     4  10  21  34  61  94 120 166 211 267 334 378
#     4  11  22  45  62  91 137 167 218 271 327 403
#     4  10  23  43  65 100 128 176 220 279 329 391
#     4  10  23  40  69  97 132 168 228 277 332 379
#
# _framework density 25.900106999999998
#
# number of rings (size 3 to 8) (size 9 to 14) (size 15 to 20)
#    0.000    1.714    2.857    0.429    8.000    2.857 
#    2.571    1.429    0.000    0.000    0.000    0.000 
#    0.000    0.000    0.000    0.000    0.000    0.000 
#
# Total GULP energy -78139.749204 kJ/mol
# GULP energy per Si atom -5581.410657 kJ/mol
# Density = 2.584116 g / cm^3
# Si number density = 25.900107 Si / 1000 Ang^3
#
#
#
# Elastic Constant Matrix: (Units=GPa)
#
#
# Indices 1 2 3 4 5 6 
#
# 1 209.4699 38.2477 45.2656 -10.1155 -12.2372 16.3914
# 2 38.2477 50.8062 16.5318 -3.3170 5.9425 7.2915
# 3 45.2656 16.5318 45.5346 -4.0911 -14.8444 10.9272
# 4 -10.1155 -3.3170 -4.0911 27.4307 7.1017 5.5715
# 5 -12.2372 5.9425 -14.8444 7.1017 46.1247 8.2188
# 6 16.3914 7.2915 10.9272 5.5715 8.2188 36.7415
#
#
#
# Elastic Compliance Matrix: (Units=1/GPa)
#
#
# Indices 1 2 3 4 5 6 
#
# 1 0.006592 -0.003220 -0.004748 0.001421 0.000639 -0.001248
# 2 -0.003220 0.025826 -0.008314 0.002571 -0.007256 0.000017
# 3 -0.004748 -0.008314 0.036596 0.001369 0.013210 -0.010278
# 4 0.001421 0.002571 0.001369 0.040001 -0.004494 -0.006612
# 5 0.000639 -0.007256 0.013210 -0.004494 0.029267 -0.008639
# 6 -0.001248 0.000017 -0.010278 -0.006612 -0.008639 0.033763
#
#
# Mechanical properties :
#
#
# Convention : Reuss Voigt Hill
#
# Bulk Modulus (GPa) = 27.43549 56.21121 41.82335
# Shear Modulus (GPa) = 23.06710 35.77708 29.42209
#
# Velocity S-wave (km/s) = 2.98756 3.72068 3.37409
# Velocity P-wave (km/s) = 4.74515 6.34099 5.60021
#
# Compressibility (1/GPa) = 0.03644914
#
# Stress axis : x y z
#
# Youngs Moduli (GPa) = 151.70839 38.72036 27.32555
#
# Poissons Ratio (x) = 0.12469 0.12974
# Poissons Ratio (y) = 0.48853 0.22719
# Poissons Ratio (z) = 0.72031 0.32192
#
# Static dielectric constant tensor:
#      x y z
#    x 2.103790 0.033750 -0.025090 
#    y 0.033750 2.092200 0.001630 
#    z -0.025090 0.001630 2.024960 
# 
# From -- ./inp_files/98623.got.cif
#   From: 2010.05.17/outbox.cif.g08.bks.cpg/sg2_50_cif.got.tgz:98623.got - 2010.06.03 11:33:40.
