data_PCOD9001234
_publ_section_title
;
Structure prediction by ZEFSAII (Michael W. Deem and Ramdas Pophale) SiO2 
 PCOD9001234
Probable space group: P -1
;
_chemical_formula_sum "Si O2"
_cell_formula_units_Z 12
_cell_length_a 11.816344
_cell_length_b 11.577026
_cell_length_c 11.277065
_cell_angle_alpha 42.943530
_cell_angle_beta 75.441089
_cell_angle_gamma 109.615874
_cell_volume 626.060924
_symmetry_space_group_name_H-M "P -1"
_symmetry_group_IT_number 2
_symmetry_cell_setting 'triclinic'
loop_
_space_group_symop_operation_xyz
x,y,z
-x,-y,-z
loop_
_atom_site_type_symbol
_atom_site_label
_atom_site_fract_x
_atom_site_fract_y
_atom_site_fract_z
Si Si1 0.928754 0.891880 0.904506
Si Si2 0.390350 0.253333 0.807863
Si Si3 0.344079 0.948144 0.854374
Si Si4 0.970033 0.345786 0.013308
Si Si5 0.209931 0.561482 0.582892
Si Si6 0.741334 0.458565 0.669051
O O1 0.741922 0.794055 0.032395
O O2 0.959420 0.767877 0.900314
O O3 0.897109 0.742037 0.144455
O O4 0.104581 0.217974 0.604050
O O5 0.500000 0.500000 0.500000
O O6 0.542958 0.319567 0.790649
O O7 0.280552 0.001856 0.936662
O O8 0.573472 0.212559 0.598867
O O9 0.280654 0.687668 0.103460
O O10 0.243768 0.893759 0.801629
O O11 0.097630 0.550490 0.712335
O O12 0.000000 0.500000 0.000000
O O13 0.211791 0.602045 0.413954
#
# Coordination Sequence:
#
# PCOD9001234 Si02
#       6
#     2   2   2   2   2   2
#     4  10  21  34  58  83 110 152 188 220 276 336
#     4  11  18  33  57  84 118 141 180 222 278 347
#     4  11  22  35  58  88 118 144 176 235 289 328
#     4  10  23  40  59  78 108 154 203 230 258 327
#     4   9  20  35  57  86 110 146 183 217 283 337
#     4  11  21  34  57  93 120 137 173 234 296 337
#
# _framework density 19.167463999999999
#
# number of rings (size 3 to 8) (size 9 to 14) (size 15 to 20)
#    1.000    0.667    3.333    4.500    0.000    4.667 
#    0.000    0.833    0.000    2.000    0.000    0.000 
#    0.000    0.000    0.000    0.000    0.000    0.000 
#
# Total GULP energy -66817.045200 kJ/mol
# GULP energy per Si atom -5568.087100 kJ/mol
# Density = 1.912384 g / cm^3
# Si number density = 19.167464 Si / 1000 Ang^3
#
#
#
# Elastic Constant Matrix: (Units=GPa)
#
#
# Indices 1 2 3 4 5 6 
#
# 1 81.8002 44.1878 28.9044 -10.3565 -3.2909 -10.3721
# 2 44.1878 80.2618 24.8486 -18.2496 -3.0240 -27.9382
# 3 28.9044 24.8486 80.2413 -21.4213 6.6511 -4.2283
# 4 -10.3565 -18.2496 -21.4213 15.2474 2.3683 4.5254
# 5 -3.2909 -3.0240 6.6511 2.3683 26.7823 -0.9532
# 6 -10.3721 -27.9382 -4.2283 4.5254 -0.9532 20.3546
#
#
#
# Elastic Compliance Matrix: (Units=1/GPa)
#
#
# Indices 1 2 3 4 5 6 
#
# 1 0.019742 -0.013861 -0.006127 -0.009907 0.002977 -0.007896
# 2 -0.013861 0.041559 0.002526 0.030709 0.001203 0.043733
# 3 -0.006127 0.002526 0.023751 0.034556 -0.009523 -0.002849
# 4 -0.009907 0.030709 0.034556 0.143648 -0.018626 0.011471
# 5 0.002977 0.001203 -0.009523 -0.018626 0.042112 0.007303
# 6 -0.007896 0.043733 -0.002849 0.011471 0.007303 0.102332
#
#
# Mechanical properties :
#
#
# Convention : Reuss Voigt Hill
#
# Bulk Modulus (GPa) = 19.94839 48.68722 34.31781
# Shear Modulus (GPa) = 11.77090 22.10102 16.93596
#
# Velocity S-wave (km/s) = 2.48081 3.39934 2.97573
# Velocity P-wave (km/s) = 4.31693 6.39245 5.45433
#
# Compressibility (1/GPa) = 0.05012935
#
# Stress axis : x y z
#
# Youngs Moduli (GPa) = 50.65460 24.06215 42.10292
#
# Poissons Ratio (x) = 0.33352 0.25795
# Poissons Ratio (y) = 0.70211 -0.10636
# Poissons Ratio (z) = 0.31034 -0.06079
#
# Static dielectric constant tensor:
#      x y z
#    x 1.733520 -0.015680 -0.012190 
#    y -0.015680 1.651060 -0.008770 
#    z -0.012190 -0.008770 1.708880 
# 
# From -- ./inp_files/173082.got.cif
#   From: 2010.05.17/outbox.cif.g08.bks.cpg/sg2_87_cif.got.tgz:173082.got - 2010.06.03 11:33:40.
