data_PCOD9001118
_publ_section_title
;
Structure prediction by ZEFSAII (Michael W. Deem and Ramdas Pophale) SiO2 
 PCOD9001118
Probable space group: P -1
;
_chemical_formula_sum "Si O2"
_cell_formula_units_Z 16
_cell_length_a 7.622567
_cell_length_b 8.651107
_cell_length_c 30.324079
_cell_angle_alpha 141.917945
_cell_angle_beta 57.957177
_cell_angle_gamma 101.528909
_cell_volume 950.485802
_symmetry_space_group_name_H-M "P -1"
_symmetry_group_IT_number 2
_symmetry_cell_setting 'triclinic'
loop_
_space_group_symop_operation_xyz
x,y,z
-x,-y,-z
loop_
_atom_site_type_symbol
_atom_site_label
_atom_site_fract_x
_atom_site_fract_y
_atom_site_fract_z
Si Si1 0.891474 0.651878 0.689130
Si Si2 0.847068 0.956718 0.625254
Si Si3 0.156460 0.479642 0.763613
Si Si4 0.536840 0.573849 0.779970
Si Si5 0.925197 0.156849 0.755423
Si Si6 0.363846 0.277823 0.106500
Si Si7 0.347553 0.313433 0.603597
Si Si8 0.257896 0.498289 0.418599
O O1 0.685589 0.690964 0.757971
O O2 0.831055 0.551936 0.628227
O O3 0.123638 0.433617 0.630280
O O4 0.923974 0.930676 0.738340
O O5 0.731113 0.750402 0.606984
O O6 0.067575 0.779394 0.527256
O O7 0.683185 0.241434 0.688490
O O8 0.921854 0.041385 0.680710
O O9 0.302293 0.620959 0.798607
O O10 0.268186 0.348754 0.672963
O O11 0.132782 0.249594 0.747419
O O12 0.513327 0.690388 0.858601
O O13 0.891451 0.683593 0.837182
O O14 0.700994 0.445955 0.852348
O O15 0.500000 0.000000 0.000000
O O16 0.505012 0.477952 0.612305
O O17 0.500000 0.000000 0.500000
#
# Coordination Sequence:
#
# PCOD9001118 Si02
#       8
#     2   2   2   2   2   2   2   2
#     4  11  21  36  55  82 115 150 187 231 278 320
#     4   9  19  37  51  77 116 149 191 227 279 323
#     4  10  21  37  56  84 112 144 190 223 277 339
#     4  11  20  35  60  80 111 147 177 237 283 331
#     4   8  19  38  56  80 112 143 187 228 280 332
#     4   9  20  41  63  82 110 143 182 234 288 343
#     4  12  23  34  54  83 117 155 194 225 272 323
#     4  10  21  34  52  79 111 152 194 233 263 329
#
# _framework density 16.833499
#
# number of rings (size 3 to 8) (size 9 to 14) (size 15 to 20)
#    0.750    1.250    2.500    1.500    3.500    1.500 
#    0.000    3.125    0.000    0.750    0.000    0.000 
#    0.000    0.000    0.000    0.000    0.000    0.000 
#
# Total GULP energy -89157.179584 kJ/mol
# GULP energy per Si atom -5572.323724 kJ/mol
# Density = 1.679518 g / cm^3
# Si number density = 16.833499 Si / 1000 Ang^3
#
#
#
# Elastic Constant Matrix: (Units=GPa)
#
#
# Indices 1 2 3 4 5 6 
#
# 1 82.4377 19.4328 17.1595 -6.2701 -6.4223 12.1255
# 2 19.4328 79.4089 19.8795 -2.1740 -1.0472 13.7983
# 3 17.1595 19.8795 97.3302 3.2142 14.3331 3.6553
# 4 -6.2701 -2.1740 3.2142 12.0258 4.1364 -4.6014
# 5 -6.4223 -1.0472 14.3331 4.1364 11.7798 -5.0187
# 6 12.1255 13.7983 3.6553 -4.6014 -5.0187 28.0817
#
#
#
# Elastic Compliance Matrix: (Units=1/GPa)
#
#
# Indices 1 2 3 4 5 6 
#
# 1 0.014823 -0.002027 -0.003702 0.003976 0.009947 -0.002493
# 2 -0.002027 0.014764 -0.002557 -0.000281 0.000889 -0.005933
# 3 -0.003702 -0.002557 0.014702 -0.000088 -0.021332 -0.002886
# 4 0.003976 -0.000281 -0.000088 0.098583 -0.028307 0.009527
# 5 0.009947 0.000889 -0.021332 -0.028307 0.133656 0.017293
# 6 -0.002493 -0.005933 -0.002886 0.009527 0.017293 0.044630
#
#
# Mechanical properties :
#
#
# Convention : Reuss Voigt Hill
#
# Bulk Modulus (GPa) = 36.07893 41.34673 38.71283
# Shear Modulus (GPa) = 14.41050 23.89112 19.15081
#
# Velocity S-wave (km/s) = 2.92903 3.77139 3.37658
# Velocity P-wave (km/s) = 5.73744 6.60152 6.18459
#
# Compressibility (1/GPa) = 0.02771701
#
# Stress axis : x y z
#
# Youngs Moduli (GPa) = 67.46348 67.73059 68.01829
#
# Poissons Ratio (x) = 0.13732 0.25178
# Poissons Ratio (y) = 0.13678 0.17392
# Poissons Ratio (z) = 0.24972 0.17318
#
# Static dielectric constant tensor:
#      x y z
#    x 1.566990 0.012670 -0.000490 
#    y 0.012670 1.590130 0.010580 
#    z -0.000490 0.010580 1.537020 
# 
# From -- ./inp_files/45828.got.cif
#   From: 2010.05.17/outbox.cif.g08.bks.cpg/sg2_23_cif.got.tgz:45828.got - 2010.06.03 11:33:40.
