data_PCOD9001440
_publ_section_title
;
Structure prediction by ZEFSAII (Michael W. Deem and Ramdas Pophale) SiO2 
 PCOD9001440
Probable space group: P -1
;
_chemical_formula_sum "Si O2"
_cell_formula_units_Z 16
_cell_length_a 18.423928
_cell_length_b 14.466791
_cell_length_c 9.909450
_cell_angle_alpha 49.314214
_cell_angle_beta 129.400894
_cell_angle_gamma 159.873183
_cell_volume 686.570518
_symmetry_space_group_name_H-M "P -1"
_symmetry_group_IT_number 2
_symmetry_cell_setting 'triclinic'
loop_
_space_group_symop_operation_xyz
x,y,z
-x,-y,-z
loop_
_atom_site_type_symbol
_atom_site_label
_atom_site_fract_x
_atom_site_fract_y
_atom_site_fract_z
Si Si1 0.657532 0.960070 0.920556
Si Si2 0.723435 0.412755 0.831183
Si Si3 0.481027 0.121912 0.460320
Si Si4 0.124181 0.541252 0.271842
Si Si5 0.550573 0.643744 0.718847
Si Si6 0.830951 0.921113 0.049165
Si Si7 0.281780 0.803918 0.765827
Si Si8 0.300206 0.401385 0.199820
O O1 0.567092 0.906223 0.723737
O O2 0.817518 0.039585 0.987659
O O3 0.476288 0.682214 0.056197
O O4 0.762252 0.199417 0.886151
O O5 0.894184 0.566825 0.776574
O O6 0.499473 0.108732 0.795240
O O7 0.750078 0.364360 0.044164
O O8 0.718831 0.549880 0.727624
O O9 0.714266 0.340589 0.551199
O O10 0.447987 0.210050 0.417795
O O11 0.318566 0.843729 0.610943
O O12 0.910869 0.334226 0.287781
O O13 0.710688 0.789259 0.889815
O O14 0.317081 0.333815 0.787680
O O15 0.625397 0.651762 0.671971
O O16 0.067382 0.147452 0.103514
#
# Coordination Sequence:
#
# PCOD9001440 Si02
#       8
#     2   2   2   2   2   2   2   2
#     4  10  21  35  55  87 116 138 180 229 270 329
#     4  10  22  38  56  84 108 136 194 234 258 324
#     4  10  22  37  53  83 117 142 179 223 271 338
#     4  11  22  37  58  81 111 149 181 223 276 322
#     4   9  20  36  53  82 115 140 182 229 263 322
#     4   9  19  35  57  83 109 143 184 224 272 324
#     4  10  21  38  59  78 110 149 178 226 282 318
#     4  11  20  35  61  82 108 150 182 224 278 312
#
# _framework density 23.304234000000001
#
# number of rings (size 3 to 8) (size 9 to 14) (size 15 to 20)
#    0.000    2.000    0.000    4.875    0.000    5.500 
#    0.000    2.500    0.000    4.500    0.000    0.000 
#    0.000    0.000    0.000    0.000    0.000    0.000 
#
# Total GULP energy -89479.644565 kJ/mol
# GULP energy per Si atom -5592.477785 kJ/mol
# Density = 2.325119 g / cm^3
# Si number density = 23.304234 Si / 1000 Ang^3
#
#
#
# Elastic Constant Matrix: (Units=GPa)
#
#
# Indices 1 2 3 4 5 6 
#
# 1 159.3272 12.2169 13.4720 1.8650 31.9662 6.1191
# 2 12.2169 73.4295 -6.2945 6.9007 8.3827 19.5654
# 3 13.4720 -6.2945 46.5281 4.3005 8.2313 10.1682
# 4 1.8650 6.9007 4.3005 11.6820 4.6652 12.2830
# 5 31.9662 8.3827 8.2313 4.6652 27.0041 7.6159
# 6 6.1191 19.5654 10.1682 12.2830 7.6159 41.8451
#
#
#
# Elastic Compliance Matrix: (Units=1/GPa)
#
#
# Indices 1 2 3 4 5 6 
#
# 1 0.008382 -0.000720 -0.001110 0.003217 -0.009988 0.000254
# 2 -0.000720 0.016802 0.004956 -0.002211 -0.003321 -0.007702
# 3 -0.001110 0.004956 0.025141 -0.003124 -0.005561 -0.006335
# 4 0.003217 -0.002211 -0.003124 0.129104 -0.014925 -0.033858
# 5 -0.009988 -0.003321 -0.005561 -0.014925 0.054489 -0.001172
# 6 0.000254 -0.007702 -0.006335 -0.033858 -0.001172 0.039153
#
#
# Mechanical properties :
#
#
# Convention : Reuss Voigt Hill
#
# Bulk Modulus (GPa) = 17.67445 35.34151 26.50798
# Shear Modulus (GPa) = 17.50224 33.43229 25.46726
#
# Velocity S-wave (km/s) = 2.74347 3.79172 3.30936
# Velocity P-wave (km/s) = 4.19955 5.86240 5.09921
#
# Compressibility (1/GPa) = 0.05657884
#
# Stress axis : x y z
#
# Youngs Moduli (GPa) = 119.30480 59.51616 39.77491
#
# Poissons Ratio (x) = 0.04282 0.04416
# Poissons Ratio (y) = 0.08584 -0.19714
# Poissons Ratio (z) = 0.13245 -0.29499
#
# Static dielectric constant tensor:
#      x y z
#    x 1.919790 -0.039720 -0.016860 
#    y -0.039720 1.870740 0.025580 
#    z -0.016860 0.025580 1.871450 
# 
# From -- ./inp_files/466057.got.cif
#   From: 2010.05.17/outbox.cif.g08.bks.cpg/sg2_234_cif.got.tgz:466057.got - 2010.06.03 11:33:40.
