data_PCOD9001905
_publ_section_title
;
Structure prediction by ZEFSAII (Michael W. Deem and Ramdas Pophale) SiO2 
 PCOD9001905
Probable space group: P -1
;
_chemical_formula_sum "Si O2"
_cell_formula_units_Z 15
_cell_length_a 4.859212
_cell_length_b 29.415782
_cell_length_c 6.148656
_cell_angle_alpha 122.091254
_cell_angle_beta 101.720616
_cell_angle_gamma 78.681891
_cell_volume 724.914381
_symmetry_space_group_name_H-M "P -1"
_symmetry_group_IT_number 2
_symmetry_cell_setting 'triclinic'
loop_
_space_group_symop_operation_xyz
x,y,z
-x,-y,-z
loop_
_atom_site_type_symbol
_atom_site_label
_atom_site_fract_x
_atom_site_fract_y
_atom_site_fract_z
Si Si1 0.000000 0.500000 0.500000
Si Si2 0.758060 0.803193 0.980203
Si Si3 0.682049 0.252488 0.972853
Si Si4 0.243693 0.284054 0.602629
Si Si5 0.781232 0.928610 0.230125
Si Si6 0.584626 0.461850 0.710241
Si Si7 0.220207 0.984735 0.186228
Si Si8 0.684114 0.339932 0.555024
O O1 0.296278 0.464017 0.530514
O O2 0.168533 0.519499 0.355319
O O3 0.014086 0.778230 0.113299
O O4 0.466961 0.787909 0.995471
O O5 0.768506 0.865886 0.103531
O O6 0.800628 0.769538 0.677490
O O7 0.462312 0.268234 0.787947
O O8 0.726713 0.305992 0.252432
O O9 0.395145 0.323971 0.570358
O O10 0.941393 0.315750 0.690195
O O11 0.525247 0.954538 0.101633
O O12 0.073047 0.943758 0.215479
O O13 0.740581 0.961733 0.533031
O O14 0.677506 0.402487 0.667576
O O15 0.500000 0.500000 0.000000
O O16 0.000000 0.000000 0.000000
#
# Coordination Sequence:
#
# PCOD9001905 Si02
#       8
#     1   2   2   2   2   2   2   2
#     4  10  24  40  60  90 120 154 200 244 292 354
#     4  10  21  36  55  82 110 140 185 231 275 335
#     4  10  21  37  56  81 111 143 183 229 280 336
#     4  10  21  37  58  82 110 148 186 229 288 340
#     4  10  21  36  54  79 110 141 182 231 272 330
#     4  11  23  41  62  89 122 157 199 247 296 354
#     4  10  21  36  54  78 108 145 183 222 278 333
#     4  10  22  38  57  83 114 147 188 234 282 343
#
# _framework density 20.6921
#
# number of rings (size 3 to 8) (size 9 to 14) (size 15 to 20)
#    0.000    1.867    0.000    3.200    0.000    5.333 
#    0.000    0.000    0.000    0.000    0.000    0.000 
#    0.000    0.000    0.000    0.000    0.000    0.000 
#
# Total GULP energy -83510.910808 kJ/mol
# GULP energy per Si atom -5567.394054 kJ/mol
# Density = 2.064500 g / cm^3
# Si number density = 20.692100 Si / 1000 Ang^3
#
#
#
# Elastic Constant Matrix: (Units=GPa)
#
#
# Indices 1 2 3 4 5 6 
#
# 1 114.3591 22.0867 15.1243 12.4138 -7.2392 -3.3997
# 2 22.0867 123.9812 59.9885 23.7460 11.8783 2.8187
# 3 15.1243 59.9885 52.1932 11.3127 13.0190 2.3752
# 4 12.4138 23.7460 11.3127 29.4789 -7.3591 15.3726
# 5 -7.2392 11.8783 13.0190 -7.3591 27.2274 -16.0695
# 6 -3.3997 2.8187 2.3752 15.3726 -16.0695 39.9555
#
#
#
# Elastic Compliance Matrix: (Units=1/GPa)
#
#
# Indices 1 2 3 4 5 6 
#
# 1 0.010295 0.000271 -0.004378 -0.003984 0.006818 0.005392
# 2 0.000271 0.020159 -0.021672 -0.009905 0.001504 0.004305
# 3 -0.004378 -0.021672 0.051718 -0.000584 -0.023073 -0.010973
# 4 -0.003984 -0.009905 -0.000584 0.054943 0.008062 -0.017502
# 5 0.006818 0.001504 -0.023073 0.008062 0.066027 0.025299
# 6 0.005392 0.004305 -0.010973 -0.017502 0.025299 0.042744
#
#
# Mechanical properties :
#
#
# Convention : Reuss Voigt Hill
#
# Bulk Modulus (GPa) = 32.66355 53.88140 43.27248
# Shear Modulus (GPa) = 16.25233 32.22130 24.23682
#
# Velocity S-wave (km/s) = 2.80560 3.95039 3.42615
# Velocity P-wave (km/s) = 5.12982 6.84862 6.05056
#
# Compressibility (1/GPa) = 0.03061516
#
# Stress axis : x y z
#
# Youngs Moduli (GPa) = 97.13249 49.60611 19.33545
#
# Poissons Ratio (x) = -0.01346 0.08464
# Poissons Ratio (y) = -0.02635 0.41905
# Poissons Ratio (z) = 0.42520 1.07508
#
# Static dielectric constant tensor:
#      x y z
#    x 1.749220 -0.009250 0.008160 
#    y -0.009250 1.728840 -0.040370 
#    z 0.008160 -0.040370 1.745170 
# 
# From -- ./inp_files/13938.got.cif
#   From: 2010.05.17/outbox.cif.g08.bks.cpg/sg2_7_cif.got.tgz:13938.got - 2010.06.03 11:33:40.
