data_PCOD9001642
_publ_section_title
;
Structure prediction by ZEFSAII (Michael W. Deem and Ramdas Pophale) SiO2 
 PCOD9001642
Probable space group: P -1
;
_chemical_formula_sum "Si O2"
_cell_formula_units_Z 16
_cell_length_a 14.279760
_cell_length_b 14.536107
_cell_length_c 9.265570
_cell_angle_alpha 148.124511
_cell_angle_beta 68.288436
_cell_angle_gamma 124.230475
_cell_volume 813.728804
_symmetry_space_group_name_H-M "P -1"
_symmetry_group_IT_number 2
_symmetry_cell_setting 'triclinic'
loop_
_space_group_symop_operation_xyz
x,y,z
-x,-y,-z
loop_
_atom_site_type_symbol
_atom_site_label
_atom_site_fract_x
_atom_site_fract_y
_atom_site_fract_z
Si Si1 0.983534 0.072549 0.262285
Si Si2 0.778365 0.095953 0.004802
Si Si3 0.876109 0.893987 0.511703
Si Si4 0.373752 0.709680 0.591463
Si Si5 0.550264 0.730826 0.756805
Si Si6 0.183050 0.348192 0.041076
Si Si7 0.416759 0.964963 0.633066
Si Si8 0.858995 0.293804 0.518922
O O1 0.938155 0.231762 0.483652
O O2 0.096501 0.165036 0.425859
O O3 0.891920 0.861419 0.110551
O O4 0.000000 0.000000 0.000000
O O5 0.838487 0.058963 0.785974
O O6 0.681746 0.871818 0.813793
O O7 0.709160 0.216351 0.189321
O O8 0.861003 0.210547 0.246204
O O9 0.790661 0.715286 0.214855
O O10 0.000000 0.000000 0.500000
O O11 0.467647 0.741275 0.696831
O O12 0.290458 0.492317 0.276533
O O13 0.434592 0.850136 0.604808
O O14 0.500000 0.500000 0.500000
O O15 0.549562 0.822556 0.033904
O O16 0.120731 0.480934 0.215854
O O17 0.275892 0.835758 0.519507
O O18 0.500000 0.000000 0.500000
#
# Coordination Sequence:
#
# PCOD9001642 Si02
#       8
#     2   2   2   2   2   2   2   2
#     4  11  21  37  63  85 115 154 199 241 294 348
#     4   9  18  38  60  78 119 151 193 240 282 351
#     4  10  21  39  57  86 116 150 194 250 292 333
#     4   9  20  40  59  85 114 161 195 232 298 362
#     4  10  21  35  60  88 116 153 196 234 291 366
#     4   9  22  39  60  84 120 146 200 244 292 346
#     4   9  19  38  58  83 121 147 191 246 287 346
#     4   9  20  39  60  85 115 158 193 237 292 353
#
# _framework density 19.662569999999999
#
# number of rings (size 3 to 8) (size 9 to 14) (size 15 to 20)
#    0.000    3.000    1.250    1.500    3.500    3.000 
#   11.250    1.250    0.000    0.000    0.000    0.000 
#    0.000    0.000    0.000    0.000    0.000    0.000 
#
# Total GULP energy -89070.863942 kJ/mol
# GULP energy per Si atom -5566.928996 kJ/mol
# Density = 1.961782 g / cm^3
# Si number density = 19.662570 Si / 1000 Ang^3
#
#
#
# Elastic Constant Matrix: (Units=GPa)
#
#
# Indices 1 2 3 4 5 6 
#
# 1 53.6433 12.1642 0.7720 -15.4759 -7.3560 -13.4000
# 2 12.1642 30.6859 25.8925 -19.6862 -13.5164 3.0022
# 3 0.7720 25.8925 81.5128 -14.2214 -0.6193 16.4738
# 4 -15.4759 -19.6862 -14.2214 39.2382 3.6635 -7.9015
# 5 -7.3560 -13.5164 -0.6193 3.6635 20.5027 0.4382
# 6 -13.4000 3.0022 16.4738 -7.9015 0.4382 21.9782
#
#
#
# Elastic Compliance Matrix: (Units=1/GPa)
#
#
# Indices 1 2 3 4 5 6 
#
# 1 0.031012 0.003746 -0.003922 0.017282 0.009805 0.027354
# 2 0.003746 0.118496 -0.034437 0.047534 0.069338 0.027617
# 3 -0.003922 -0.034437 0.025133 -0.011878 -0.020793 -0.020381
# 4 0.017282 0.047534 -0.011878 0.055921 0.026491 0.032523
# 5 0.009805 0.069338 -0.020793 0.026491 0.092219 0.019777
# 6 0.027354 0.027617 -0.020381 0.032523 0.019777 0.084980
#
#
# Mechanical properties :
#
#
# Convention : Reuss Voigt Hill
#
# Bulk Modulus (GPa) = 9.48642 27.05550 18.27096
# Shear Modulus (GPa) = 9.76324 24.81137 17.28730
#
# Velocity S-wave (km/s) = 2.23073 3.55612 2.96835
# Velocity P-wave (km/s) = 3.38674 5.53634 4.58917
#
# Compressibility (1/GPa) = 0.10541386
#
# Stress axis : x y z
#
# Youngs Moduli (GPa) = 32.24562 8.43911 39.78863
#
# Poissons Ratio (x) = -0.03161 0.15605
# Poissons Ratio (y) = -0.12078 1.37020
# Poissons Ratio (z) = 0.12647 0.29062
#
# Static dielectric constant tensor:
#      x y z
#    x 1.744070 -0.003110 0.005120 
#    y -0.003110 1.710090 -0.008310 
#    z 0.005120 -0.008310 1.713760 
# 
# From -- ./inp_files/203619.got.cif
#   From: 2010.05.17/outbox.cif.g08.bks.cpg/sg2_102_cif.got.tgz:203619.got - 2010.06.03 11:33:40.
