data_PCOD9001399
_publ_section_title
;
Structure prediction by ZEFSAII (Michael W. Deem and Ramdas Pophale) SiO2 
 PCOD9001399
Probable space group: P -1
;
_chemical_formula_sum "Si O2"
_cell_formula_units_Z 16
_cell_length_a 19.761861
_cell_length_b 12.306232
_cell_length_c 15.054652
_cell_angle_alpha 27.112012
_cell_angle_beta 29.315678
_cell_angle_gamma 36.351969
_cell_volume 809.887700
_symmetry_space_group_name_H-M "P -1"
_symmetry_group_IT_number 2
_symmetry_cell_setting 'triclinic'
loop_
_space_group_symop_operation_xyz
x,y,z
-x,-y,-z
loop_
_atom_site_type_symbol
_atom_site_label
_atom_site_fract_x
_atom_site_fract_y
_atom_site_fract_z
Si Si1 0.872924 0.045961 0.541779
Si Si2 0.455126 0.676593 0.666169
Si Si3 0.634467 0.404724 0.976694
Si Si4 0.625684 0.839362 0.923509
Si Si5 0.227529 0.499012 0.565925
Si Si6 0.948987 0.735611 0.944521
Si Si7 0.284291 0.855229 0.093823
Si Si8 0.391011 0.093876 0.300732
O O1 0.781741 0.291200 0.501479
O O2 0.770673 0.844503 0.805180
O O3 0.000000 0.000000 0.500000
O O4 0.938730 0.090298 0.337832
O O5 0.409922 0.704458 0.800505
O O6 0.622886 0.661130 0.481669
O O7 0.387622 0.890144 0.525653
O O8 0.413207 0.424384 0.861555
O O9 0.500000 0.500000 0.000000
O O10 0.724380 0.216163 0.947637
O O11 0.691352 0.652302 0.757662
O O12 0.648775 0.961758 0.712843
O O13 0.500000 0.000000 0.000000
O O14 0.096283 0.358443 0.839612
O O15 0.228925 0.643845 0.367464
O O16 0.000000 0.500000 0.000000
O O17 0.805024 0.892585 0.964752
O O18 0.445505 0.864627 0.925749
#
# Coordination Sequence:
#
# PCOD9001399 Si02
#       8
#     2   2   2   2   2   2   2   2
#     4  11  22  40  60  82 121 159 198 246 293 358
#     4  11  20  36  58  88 124 156 196 250 303 359
#     4   9  19  32  55  89 122 155 195 248 305 355
#     4  11  22  39  58  85 121 159 201 242 305 364
#     4  11  19  35  56  85 120 153 194 242 294 353
#     4  10  23  35  55  85 120 155 196 243 292 355
#     4  11  18  35  59  85 121 159 194 247 302 345
#     4  10  21  35  54  85 125 154 194 247 301 357
#
# _framework density 19.755825999999999
#
# number of rings (size 3 to 8) (size 9 to 14) (size 15 to 20)
#    0.000    1.500    7.500    0.000    0.000    3.500 
#    6.750    0.000    0.000    3.000    0.000    5.250 
#    0.000    0.000    0.000    0.000    0.000    0.000 
#
# Total GULP energy -89148.100934 kJ/mol
# GULP energy per Si atom -5571.756308 kJ/mol
# Density = 1.971086 g / cm^3
# Si number density = 19.755826 Si / 1000 Ang^3
#
#
#
# Elastic Constant Matrix: (Units=GPa)
#
#
# Indices 1 2 3 4 5 6 
#
# 1 73.1923 25.3367 40.2267 6.2016 11.5011 10.4343
# 2 25.3367 75.1543 23.2606 5.7483 -0.6234 1.6579
# 3 40.2267 23.2606 122.9949 16.7197 18.0197 8.8989
# 4 6.2016 5.7483 16.7197 21.4221 -4.9934 8.9139
# 5 11.5011 -0.6234 18.0197 -4.9934 34.5206 1.9003
# 6 10.4343 1.6579 8.8989 8.9139 1.9003 23.4464
#
#
#
# Elastic Compliance Matrix: (Units=1/GPa)
#
#
# Indices 1 2 3 4 5 6 
#
# 1 0.019326 -0.005097 -0.004508 0.001235 -0.003630 -0.006705
# 2 -0.005097 0.015617 -0.001542 -0.001905 0.002384 0.002280
# 3 -0.004508 -0.001542 0.012043 -0.009922 -0.006348 0.001831
# 4 0.001235 -0.001905 -0.009922 0.068224 0.015916 -0.023876
# 5 -0.003630 0.002384 -0.006348 0.015916 0.036119 -0.005122
# 6 -0.006705 0.002280 0.001831 -0.023876 -0.005122 0.054271
#
#
# Mechanical properties :
#
#
# Convention : Reuss Voigt Hill
#
# Bulk Modulus (GPa) = 40.49785 49.88772 45.19278
# Shear Modulus (GPa) = 21.17546 28.04565 24.61056
#
# Velocity S-wave (km/s) = 3.27748 3.77186 3.53333
# Velocity P-wave (km/s) = 5.90476 6.65404 6.29057
#
# Compressibility (1/GPa) = 0.02469267
#
# Stress axis : x y z
#
# Youngs Moduli (GPa) = 51.74339 64.03448 83.03783
#
# Poissons Ratio (x) = 0.32638 0.37432
# Poissons Ratio (y) = 0.26373 0.12802
# Poissons Ratio (z) = 0.23325 0.09872
#
# Static dielectric constant tensor:
#      x y z
#    x 1.722180 0.012900 0.028060 
#    y 0.012900 1.731010 -0.009600 
#    z 0.028060 -0.009600 1.759480 
# 
# From -- ./inp_files/540778.got.cif
#   From: 2010.05.17/outbox.cif.g08.bks.cpg/sg2_271_cif.got.tgz:540778.got - 2010.06.03 11:33:40.
