data_PCOD9001018
_publ_section_title
;
Structure prediction by ZEFSAII (Michael W. Deem and Ramdas Pophale) SiO2 
 PCOD9001018
Probable space group: P -1
;
_chemical_formula_sum "Si O2"
_cell_formula_units_Z 14
_cell_length_a 9.702773
_cell_length_b 5.259484
_cell_length_c 12.557337
_cell_angle_alpha 122.359049
_cell_angle_beta 86.748190
_cell_angle_gamma 102.022650
_cell_volume 528.270413
_symmetry_space_group_name_H-M "P -1"
_symmetry_group_IT_number 2
_symmetry_cell_setting 'triclinic'
loop_
_space_group_symop_operation_xyz
x,y,z
-x,-y,-z
loop_
_atom_site_type_symbol
_atom_site_label
_atom_site_fract_x
_atom_site_fract_y
_atom_site_fract_z
Si Si1 0.836366 0.650930 0.949080
Si Si2 0.916628 0.702942 0.186072
Si Si3 0.848156 0.772571 0.428763
Si Si4 0.480113 0.618712 0.146385
Si Si5 0.719617 0.332668 0.530900
Si Si6 0.461034 0.279031 0.279181
Si Si7 0.854470 0.813674 0.772283
O O1 0.689238 0.491405 0.867423
O O2 0.882036 0.914889 0.916428
O O3 0.954954 0.456568 0.884773
O O4 0.818661 0.694593 0.085104
O O5 0.858663 0.592027 0.277733
O O6 0.005565 0.050205 0.268706
O O7 0.787545 0.539098 0.473948
O O8 0.736438 0.985477 0.451032
O O9 0.000000 0.000000 0.500000
O O10 0.526062 0.421767 0.196682
O O11 0.527124 0.988751 0.244681
O O12 0.500000 0.500000 0.000000
O O13 0.570457 0.433488 0.584930
O O14 0.816936 0.459997 0.658291
O O15 0.295253 0.107836 0.232938
#
# Coordination Sequence:
#
# PCOD9001018 Si02
#       7
#     2   2   2   2   2   2   2
#     4  10  21  36  49  79 109 151 171 215 277 336
#     4  11  21  32  53  73 118 147 176 211 269 326
#     4  12  21  32  49  81 106 146 185 220 248 312
#     4  11  20  36  58  82 106 134 183 231 266 316
#     4  10  21  33  54  73 115 137 183 221 258 315
#     4   9  19  34  56  79 107 138 175 220 281 310
#     4   9  18  32  52  71 108 143 178 207 261 327
#
# _framework density 26.501580000000001
#
# number of rings (size 3 to 8) (size 9 to 14) (size 15 to 20)
#    0.857    0.857    2.857    3.000    2.000    0.000 
#    0.000    0.000    0.000    0.000    0.000    6.000 
#    0.000    0.000    0.000    0.000    0.000    0.000 
#
# Total GULP energy -78019.406258 kJ/mol
# GULP energy per Si atom -5572.814733 kJ/mol
# Density = 2.644126 g / cm^3
# Si number density = 26.501580 Si / 1000 Ang^3
#
#
#
# Elastic Constant Matrix: (Units=GPa)
#
#
# Indices 1 2 3 4 5 6 
#
# 1 54.7947 34.1882 26.1834 -1.0166 12.1064 0.2051
# 2 34.1882 112.4921 30.6313 -31.1791 -16.5482 -11.5934
# 3 26.1834 30.6313 126.4174 -47.8504 -18.2108 5.4967
# 4 -1.0166 -31.1791 -47.8504 49.0170 1.9036 -7.0097
# 5 12.1064 -16.5482 -18.2108 1.9036 41.6289 0.6784
# 6 0.2051 -11.5934 5.4967 -7.0097 0.6784 27.1188
#
#
#
# Elastic Compliance Matrix: (Units=1/GPa)
#
#
# Indices 1 2 3 4 5 6 
#
# 1 0.056708 -0.029848 -0.025820 -0.044204 -0.037330 -0.018448
# 2 -0.029848 0.028700 0.014730 0.033569 0.024712 0.017568
# 3 -0.025820 0.014730 0.025511 0.034225 0.022803 0.009598
# 4 -0.044204 0.033569 0.034225 0.076608 0.037235 0.026619
# 5 -0.037330 0.024712 0.022803 0.037235 0.052737 0.014530
# 6 -0.018448 0.017568 0.009598 0.026619 0.014530 0.049096
#
#
# Mechanical properties :
#
#
# Convention : Reuss Voigt Hill
#
# Bulk Modulus (GPa) = 34.43220 52.85665 43.64443
# Shear Modulus (GPa) = 13.12617 37.06637 25.09627
#
# Velocity S-wave (km/s) = 2.22794 3.74391 3.08063
# Velocity P-wave (km/s) = 4.43159 6.21909 5.39982
#
# Compressibility (1/GPa) = 0.02904258
#
# Stress axis : x y z
#
# Youngs Moduli (GPa) = 17.63419 34.84322 39.19868
#
# Poissons Ratio (x) = 1.04002 1.01211
# Poissons Ratio (y) = 0.52635 -0.57741
# Poissons Ratio (z) = 0.45532 -0.51325
#
# Static dielectric constant tensor:
#      x y z
#    x 2.136620 -0.026070 0.000670 
#    y -0.026070 2.471900 -0.011690 
#    z 0.000670 -0.011690 2.102950 
# 
# From -- ./inp_files/411052.got.cif
#   From: 2010.05.17/outbox.cif.g08.bks.cpg/sg2_206_cif.got.tgz:411052.got - 2010.06.03 11:33:40.
