data_PCOD9001917
_publ_section_title
;
Structure prediction by ZEFSAII (Michael W. Deem and Ramdas Pophale) SiO2 
 PCOD9001917
Probable space group: P -1
;
_chemical_formula_sum "Si O2"
_cell_formula_units_Z 16
_cell_length_a 10.138114
_cell_length_b 5.433020
_cell_length_c 24.610244
_cell_angle_alpha 115.838944
_cell_angle_beta 32.940900
_cell_angle_gamma 122.201831
_cell_volume 623.534259
_symmetry_space_group_name_H-M "P -1"
_symmetry_group_IT_number 2
_symmetry_cell_setting 'triclinic'
loop_
_space_group_symop_operation_xyz
x,y,z
-x,-y,-z
loop_
_atom_site_type_symbol
_atom_site_label
_atom_site_fract_x
_atom_site_fract_y
_atom_site_fract_z
Si Si1 0.305701 0.130084 0.897547
Si Si2 0.303518 0.424598 0.121965
Si Si3 0.237738 0.754540 0.373898
Si Si4 0.304784 0.182817 0.618846
Si Si5 0.907355 0.239411 0.854659
Si Si6 0.092698 0.518364 0.643570
Si Si7 0.220018 0.511597 0.879840
Si Si8 0.304587 0.371188 0.400882
O O1 0.437872 0.372878 0.919239
O O2 0.349526 0.292311 0.840129
O O3 0.395189 0.851055 0.846926
O O4 0.000000 0.000000 0.000000
O O5 0.249453 0.573829 0.100581
O O6 0.087336 0.441019 0.241658
O O7 0.262651 0.085665 0.099773
O O8 0.364598 0.548799 0.341227
O O9 0.092074 0.625696 0.356479
O O10 0.003863 0.747589 0.495877
O O11 0.398583 0.095237 0.345115
O O12 0.229271 0.303172 0.600466
O O13 0.566845 0.406801 0.574193
O O14 0.097758 0.205532 0.738147
O O15 0.276885 0.845032 0.596513
O O16 0.073604 0.400051 0.863841
O O17 0.000000 0.500000 0.000000
#
# Coordination Sequence:
#
# PCOD9001917 Si02
#       8
#     2   2   2   2   2   2   2   2
#     4  10  21  38  56  81 110 138 178 222 266 325
#     4  10  21  38  58  81 110 143 180 225 273 321
#     4  10  21  36  54  80 113 147 183 223 270 321
#     4  10  21  36  56  82 109 142 185 226 270 321
#     4  10  21  38  58  81 110 143 180 225 273 321
#     4  10  21  36  56  82 109 142 185 226 270 321
#     4  10  21  38  56  81 110 138 178 222 266 325
#     4  10  21  36  54  80 113 147 183 223 270 321
#
# _framework density 25.660177000000001
#
# number of rings (size 3 to 8) (size 9 to 14) (size 15 to 20)
#    0.000    2.000    0.000    3.000    0.000    3.000 
#    0.000   15.000    0.000    0.000    0.000    0.000 
#    0.000    0.000    0.000    0.000    0.000    0.000 
#
# Total GULP energy -89671.051863 kJ/mol
# GULP energy per Si atom -5604.440741 kJ/mol
# Density = 2.560177 g / cm^3
# Si number density = 25.660177 Si / 1000 Ang^3
#
#
#
# Elastic Constant Matrix: (Units=GPa)
#
#
# Indices 1 2 3 4 5 6 
#
# 1 202.4279 91.8266 19.2274 -9.5440 31.5991 -17.5050
# 2 91.8266 196.2253 24.5029 -15.5379 19.9605 -19.5296
# 3 19.2274 24.5029 61.4684 -6.6324 4.2189 -12.3087
# 4 -9.5440 -15.5379 -6.6324 36.8855 2.8773 0.4011
# 5 31.5991 19.9605 4.2189 2.8773 43.5110 -4.2085
# 6 -17.5050 -19.5296 -12.3087 0.4011 -4.2085 57.1198
#
#
#
# Elastic Compliance Matrix: (Units=1/GPa)
#
#
# Indices 1 2 3 4 5 6 
#
# 1 0.006873 -0.002617 -0.000600 0.000849 -0.003711 0.000803
# 2 -0.002617 0.006889 -0.001397 0.002051 -0.001149 0.001154
# 3 -0.000600 -0.001397 0.017948 0.002490 -0.000524 0.003150
# 4 0.000849 0.002051 0.002490 0.028913 -0.003611 0.001029
# 5 -0.003711 -0.001149 -0.000524 -0.003611 0.026527 0.000337
# 6 0.000803 0.001154 0.003150 0.001029 0.000337 0.018844
#
#
# Mechanical properties :
#
#
# Convention : Reuss Voigt Hill
#
# Bulk Modulus (GPa) = 44.47514 81.24840 62.86177
# Shear Modulus (GPa) = 40.74492 49.14090 44.94291
#
# Velocity S-wave (km/s) = 3.98913 4.38089 4.18959
# Velocity P-wave (km/s) = 6.21188 7.57110 6.92492
#
# Compressibility (1/GPa) = 0.02248447
#
# Stress axis : x y z
#
# Youngs Moduli (GPa) = 145.50194 145.15591 55.71551
#
# Poissons Ratio (x) = 0.37983 0.03341
# Poissons Ratio (y) = 0.38073 0.07781
# Poissons Ratio (z) = 0.08725 0.20272
#
# Static dielectric constant tensor:
#      x y z
#    x 1.955790 -0.094610 -0.045960 
#    y -0.094610 1.997280 0.065330 
#    z -0.045960 0.065330 2.263180 
# 
# From -- ./inp_files/13133.got.cif
#   From: 2010.05.17/outbox.cif.g08.bks.cpg/sg2_7_cif.got.tgz:13133.got - 2010.06.03 11:33:40.
