data_PCOD9001168
_publ_section_title
;
Structure prediction by ZEFSAII (Michael W. Deem and Ramdas Pophale) SiO2 
 PCOD9001168
Probable space group: P -1
;
_chemical_formula_sum "Si O2"
_cell_formula_units_Z 16
_cell_length_a 10.597829
_cell_length_b 12.203484
_cell_length_c 13.829743
_cell_angle_alpha 98.713802
_cell_angle_beta 30.999242
_cell_angle_gamma 116.550819
_cell_volume 712.289490
_symmetry_space_group_name_H-M "P -1"
_symmetry_group_IT_number 2
_symmetry_cell_setting 'triclinic'
loop_
_space_group_symop_operation_xyz
x,y,z
-x,-y,-z
loop_
_atom_site_type_symbol
_atom_site_label
_atom_site_fract_x
_atom_site_fract_y
_atom_site_fract_z
Si Si1 0.272174 0.810000 0.376002
Si Si2 0.061500 0.683216 0.308795
Si Si3 0.581860 0.291983 0.463553
Si Si4 0.991718 0.409321 0.865202
Si Si5 0.231580 0.218881 0.881033
Si Si6 0.521333 0.051370 0.383132
Si Si7 0.370913 0.492017 0.812416
Si Si8 0.842405 0.552967 0.757135
O O1 0.240914 0.812598 0.282314
O O2 0.586123 0.829230 0.194521
O O3 0.984911 0.651583 0.581328
O O4 0.287514 0.923760 0.446735
O O5 0.143369 0.577309 0.267953
O O6 0.106631 0.704882 0.167092
O O7 0.697123 0.598075 0.559412
O O8 0.703698 0.439111 0.355708
O O9 0.329206 0.237584 0.706479
O O10 0.484245 0.172831 0.434624
O O11 0.894065 0.338147 0.321569
O O12 0.091463 0.399529 0.904310
O O13 0.725298 0.428116 0.053290
O O14 0.374382 0.374946 0.846838
O O15 0.867579 0.119886 0.127453
O O16 0.500000 0.000000 0.500000
O O17 0.500000 0.500000 0.000000
#
# Coordination Sequence:
#
# PCOD9001168 Si02
#       8
#     2   2   2   2   2   2   2   2
#     4  11  24  36  54  88 124 161 192 236 297 361
#     4  11  23  36  56  87 127 149 190 243 311 352
#     4  10  21  38  59  89 115 157 203 240 294 345
#     4  10  22  39  62  94 113 153 199 253 309 343
#     4  11  22  38  59  89 119 155 202 246 287 356
#     4  12  23  40  57  83 123 164 208 234 282 356
#     4  11  21  39  65  90 117 150 203 254 299 358
#     4  10  21  34  55  84 122 157 185 237 301 358
#
# _framework density 22.462776999999999
#
# number of rings (size 3 to 8) (size 9 to 14) (size 15 to 20)
#    0.000    1.250    7.500    1.125    5.250    0.000 
#    0.000    0.000    0.000    1.500    0.000    0.000 
#    0.000    0.000    0.000    0.000    0.000    0.000 
#
# Total GULP energy -89449.241887 kJ/mol
# GULP energy per Si atom -5590.577618 kJ/mol
# Density = 2.241165 g / cm^3
# Si number density = 22.462777 Si / 1000 Ang^3
#
#
#
# Elastic Constant Matrix: (Units=GPa)
#
#
# Indices 1 2 3 4 5 6 
#
# 1 38.7734 19.9021 -0.9197 9.3925 3.6347 15.3211
# 2 19.9021 115.0060 12.4268 17.2013 -3.5129 32.3632
# 3 -0.9197 12.4268 126.9349 27.9919 3.5213 -0.8978
# 4 9.3925 17.2013 27.9919 29.2249 -0.4596 5.7955
# 5 3.6347 -3.5129 3.5213 -0.4596 19.7724 8.6071
# 6 15.3211 32.3632 -0.8978 5.7955 8.6071 29.5009
#
#
#
# Elastic Compliance Matrix: (Units=1/GPa)
#
#
# Indices 1 2 3 4 5 6 
#
# 1 0.034628 -0.000447 0.002445 -0.010185 -0.000465 -0.015283
# 2 -0.000447 0.015101 -0.001086 -0.003791 0.011078 -0.018855
# 3 0.002445 -0.001086 0.010599 -0.011103 -0.004403 0.003710
# 4 -0.010185 -0.003791 -0.011103 0.050935 0.005441 -0.002483
# 5 -0.000465 0.011078 -0.004403 0.005441 0.067868 -0.032915
# 6 -0.015283 -0.018855 0.003710 -0.002483 -0.032915 0.072722
#
#
# Mechanical properties :
#
#
# Convention : Reuss Voigt Hill
#
# Bulk Modulus (GPa) = 16.08945 38.17029 27.12987
# Shear Modulus (GPa) = 18.46747 32.31999 25.39373
#
# Velocity S-wave (km/s) = 2.87040 3.79730 3.36591
# Velocity P-wave (km/s) = 4.26191 6.02126 5.21629
#
# Compressibility (1/GPa) = 0.06215253
#
# Stress axis : x y z
#
# Youngs Moduli (GPa) = 28.87843 66.22046 94.34796
#
# Poissons Ratio (x) = 0.02959 -0.23072
# Poissons Ratio (y) = 0.01291 0.10249
# Poissons Ratio (z) = -0.07062 0.07194
#
# Static dielectric constant tensor:
#      x y z
#    x 1.944090 0.038730 0.016360 
#    y 0.038730 1.893210 0.001650 
#    z 0.016360 0.001650 1.807950 
# 
# From -- ./inp_files/475071.got.cif
#   From: 2010.05.17/outbox.cif.g08.bks.cpg/sg2_238_cif.got.tgz:475071.got - 2010.06.03 11:33:40.
