data_PCOD9001531
_publ_section_title
;
Structure prediction by ZEFSAII (Michael W. Deem and Ramdas Pophale) SiO2 
 PCOD9001531
Probable space group: P -1
;
_chemical_formula_sum "Si O2"
_cell_formula_units_Z 14
_cell_length_a 11.806932
_cell_length_b 12.268711
_cell_length_c 10.075803
_cell_angle_alpha 144.008213
_cell_angle_beta 64.761159
_cell_angle_gamma 90.296890
_cell_volume 596.615875
_symmetry_space_group_name_H-M "P -1"
_symmetry_group_IT_number 2
_symmetry_cell_setting 'triclinic'
loop_
_space_group_symop_operation_xyz
x,y,z
-x,-y,-z
loop_
_atom_site_type_symbol
_atom_site_label
_atom_site_fract_x
_atom_site_fract_y
_atom_site_fract_z
Si Si1 0.869927 0.663897 0.610760
Si Si2 0.241667 0.600475 0.543211
Si Si3 0.905595 0.693976 0.077778
Si Si4 0.448202 0.545553 0.851649
Si Si5 0.998225 0.916640 0.738495
Si Si6 0.418739 0.875003 0.419386
Si Si7 0.876430 0.334544 0.853236
O O1 0.732224 0.645113 0.694818
O O2 0.863633 0.890132 0.825228
O O3 0.000000 0.500000 0.500000
O O4 0.948517 0.531536 0.301165
O O5 0.412743 0.541069 0.408852
O O6 0.153925 0.735403 0.579085
O O7 0.099705 0.802057 0.912543
O O8 0.975541 0.768295 0.223251
O O9 0.773832 0.908908 0.259075
O O10 0.824193 0.594349 0.094536
O O11 0.511133 0.320473 0.693429
O O12 0.438911 0.737992 0.138689
O O13 0.271250 0.644171 0.992386
O O14 0.062865 0.816700 0.461699
O O15 0.500000 0.000000 0.500000
#
# Coordination Sequence:
#
# PCOD9001531 Si02
#       7
#     2   2   2   2   2   2   2
#     4   9  20  35  59  87 115 158 207 247 291 369
#     4  10  21  35  57  89 121 158 201 252 301 356
#     4  10  22  40  68  88 122 167 208 251 307 367
#     4  11  24  37  61  95 127 155 205 262 304 359
#     4   9  19  36  60  84 119 161 201 249 300 360
#     4  11  23  38  62  93 124 161 204 258 308 356
#     4  10  21  43  63  93 124 160 210 252 307 374
#
# _framework density 23.465686999999999
#
# number of rings (size 3 to 8) (size 9 to 14) (size 15 to 20)
#    0.000    2.000    1.429    1.714   12.000    0.571 
#    0.000    0.714    0.000    2.571    0.000    0.000 
#    0.000    0.000    0.000    0.000    0.000    0.000 
#
# Total GULP energy -78248.967236 kJ/mol
# GULP energy per Si atom -5589.211945 kJ/mol
# Density = 2.341228 g / cm^3
# Si number density = 23.465687 Si / 1000 Ang^3
#
#
#
# Elastic Constant Matrix: (Units=GPa)
#
#
# Indices 1 2 3 4 5 6 
#
# 1 129.0223 34.1775 34.5869 -9.6723 -4.4456 29.1874
# 2 34.1775 55.5258 12.0524 9.2054 -1.0169 33.9091
# 3 34.5869 12.0524 40.1804 -1.9024 -0.7839 11.0470
# 4 -9.6723 9.2054 -1.9024 40.0664 8.5394 6.7157
# 5 -4.4456 -1.0169 -0.7839 8.5394 25.3511 -10.4664
# 6 29.1874 33.9091 11.0470 6.7157 -10.4664 48.1998
#
#
#
# Elastic Compliance Matrix: (Units=1/GPa)
#
#
# Indices 1 2 3 4 5 6 
#
# 1 0.012094 -0.004528 -0.008005 0.004332 -0.001063 -0.003138
# 2 -0.004528 0.035712 -0.000715 -0.003756 -0.007772 -0.023382
# 3 -0.008005 -0.000715 0.032700 0.000578 -0.001685 -0.002590
# 4 0.004332 -0.003756 0.000578 0.030804 -0.012707 -0.007165
# 5 -0.001063 -0.007772 -0.001685 -0.012707 0.051178 0.019381
# 6 -0.003138 -0.023382 -0.002590 -0.007165 0.019381 0.044897
#
#
# Mechanical properties :
#
#
# Convention : Reuss Voigt Hill
#
# Bulk Modulus (GPa) = 18.51564 42.92911 30.72238
# Shear Modulus (GPa) = 19.85048 32.31757 26.08403
#
# Velocity S-wave (km/s) = 2.91165 3.71513 3.33766
# Velocity P-wave (km/s) = 4.38307 6.06111 5.28906
#
# Compressibility (1/GPa) = 0.05400839
#
# Stress axis : x y z
#
# Youngs Moduli (GPa) = 82.68603 28.00216 30.58139
#
# Poissons Ratio (x) = 0.12680 0.24481
# Poissons Ratio (y) = 0.37441 0.02187
# Poissons Ratio (z) = 0.66191 0.02003
#
# Static dielectric constant tensor:
#      x y z
#    x 1.913670 0.053470 0.027930 
#    y 0.053470 1.933440 0.012410 
#    z 0.027930 0.012410 1.885910 
# 
# From -- ./inp_files/434343.got.cif
#   From: 2010.05.17/outbox.cif.g08.bks.cpg/sg2_218_cif.got.tgz:434343.got - 2010.06.03 11:33:40.
