data_PCOD9001947
_publ_section_title
;
Structure prediction by ZEFSAII (Michael W. Deem and Ramdas Pophale) SiO2 
 PCOD9001947
Probable space group: P -1
;
_chemical_formula_sum "Si O2"
_cell_formula_units_Z 16
_cell_length_a 14.553718
_cell_length_b 22.240831
_cell_length_c 22.556899
_cell_angle_alpha 167.366046
_cell_angle_beta 30.169741
_cell_angle_gamma 148.404927
_cell_volume 800.360252
_symmetry_space_group_name_H-M "P -1"
_symmetry_group_IT_number 2
_symmetry_cell_setting 'triclinic'
loop_
_space_group_symop_operation_xyz
x,y,z
-x,-y,-z
loop_
_atom_site_type_symbol
_atom_site_label
_atom_site_fract_x
_atom_site_fract_y
_atom_site_fract_z
Si Si1 0.931592 0.288118 0.885218
Si Si2 0.010348 0.254096 0.612454
Si Si3 0.427819 0.649858 0.264407
Si Si4 0.328301 0.805678 0.343526
Si Si5 0.784414 0.750500 0.829454
Si Si6 0.430843 0.294099 0.392000
Si Si7 0.796385 0.173201 0.326997
Si Si8 0.510751 0.245301 0.103767
O O1 0.015823 0.994334 0.563698
O O2 0.979486 0.455479 0.080047
O O3 0.712027 0.227905 0.945849
O O4 0.000000 0.500000 0.000000
O O5 0.211454 0.234545 0.453463
O O6 0.852782 0.227733 0.626505
O O7 0.312585 0.677830 0.295200
O O8 0.315193 0.735115 0.466003
O O9 0.600062 0.877149 0.383359
O O10 0.512637 0.355670 0.932533
O O11 0.794053 0.429296 0.529474
O O12 0.645546 0.786353 0.888377
O O13 0.992995 0.864707 0.809373
O O14 0.726254 0.907360 0.072314
O O15 0.500000 0.500000 0.500000
O O16 0.478530 0.462209 0.587738
O O17 0.513255 0.999786 0.070230
#
# Coordination Sequence:
#
# PCOD9001947 Si02
#       8
#     2   2   2   2   2   2   2   2
#     4  10  21  36  55  81 112 144 181 224 271 327
#     4  10  21  37  56  81 112 143 182 228 272 326
#     4  10  21  37  56  81 112 144 185 229 274 329
#     4  10  21  37  56  81 112 146 184 229 275 327
#     4  10  21  37  57  82 113 145 183 229 277 330
#     4  10  21  38  58  82 111 144 185 230 277 330
#     4  10  21  37  56  82 112 144 184 229 275 330
#     4  10  21  37  56  82 113 144 183 229 274 330
#
# _framework density 19.990998000000001
#
# number of rings (size 3 to 8) (size 9 to 14) (size 15 to 20)
#    0.000    2.000    0.000    3.000    0.000    4.000 
#    0.000    3.750    0.000    0.000    0.000    0.000 
#    0.000    0.000    0.000    0.000    0.000    0.000 
#
# Total GULP energy -89323.423894 kJ/mol
# GULP energy per Si atom -5582.713993 kJ/mol
# Density = 1.994550 g / cm^3
# Si number density = 19.990998 Si / 1000 Ang^3
#
#
#
# Elastic Constant Matrix: (Units=GPa)
#
#
# Indices 1 2 3 4 5 6 
#
# 1 141.0845 46.2592 10.9874 0.8648 -4.3032 32.2117
# 2 46.2592 53.0599 -4.8483 9.1045 -10.0584 -5.1902
# 3 10.9874 -4.8483 81.5512 9.7086 0.4563 7.6266
# 4 0.8648 9.1045 9.7086 26.7768 -8.3007 4.0479
# 5 -4.3032 -10.0584 0.4563 -8.3007 21.5716 4.5312
# 6 32.2117 -5.1902 7.6266 4.0479 4.5312 25.4841
#
#
#
# Elastic Compliance Matrix: (Units=1/GPa)
#
#
# Indices 1 2 3 4 5 6 
#
# 1 0.028341 -0.031485 -0.003928 0.020864 0.008731 -0.045927
# 2 -0.031485 0.056748 0.006038 -0.029630 -0.002853 0.054761
# 3 -0.003928 0.006038 0.013784 -0.008172 -0.002194 0.003757
# 4 0.020864 -0.029630 -0.008172 0.064031 0.024503 -0.044488
# 5 0.008731 -0.002853 -0.002194 0.024503 0.061667 -0.025818
# 6 -0.045927 0.054761 0.003757 -0.044488 -0.025818 0.118976
#
#
# Mechanical properties :
#
#
# Convention : Reuss Voigt Hill
#
# Bulk Modulus (GPa) = 24.92308 42.27691 33.59999
# Shear Modulus (GPa) = 12.02873 29.65296 20.84085
#
# Velocity S-wave (km/s) = 2.45563 3.85556 3.23230
# Velocity P-wave (km/s) = 4.53149 6.40425 5.54747
#
# Compressibility (1/GPa) = 0.04012345
#
# Stress axis : x y z
#
# Youngs Moduli (GPa) = 35.28415 17.62184 72.54706
#
# Poissons Ratio (x) = 0.55482 0.28496
# Poissons Ratio (y) = 1.11092 -0.43803
# Poissons Ratio (z) = 0.13859 -0.10640
#
# Static dielectric constant tensor:
#      x y z
#    x 1.671200 -0.032220 0.000240 
#    y -0.032220 1.713670 -0.002180 
#    z 0.000240 -0.002180 1.702280 
# 
# From -- ./inp_files/543383.got.cif
#   From: 2010.05.17/outbox.cif.g08.bks.cpg/sg2_272_cif.got.tgz:543383.got - 2010.06.03 11:33:40.
