data_PCOD9001340
_publ_section_title
;
Structure prediction by ZEFSAII (Michael W. Deem and Ramdas Pophale) SiO2 
 PCOD9001340
Probable space group: P -1
;
_chemical_formula_sum "Si O2"
_cell_formula_units_Z 16
_cell_length_a 13.321395
_cell_length_b 12.936671
_cell_length_c 11.245977
_cell_angle_alpha 157.166159
_cell_angle_beta 82.839805
_cell_angle_gamma 102.520070
_cell_volume 719.612028
_symmetry_space_group_name_H-M "P -1"
_symmetry_group_IT_number 2
_symmetry_cell_setting 'triclinic'
loop_
_space_group_symop_operation_xyz
x,y,z
-x,-y,-z
loop_
_atom_site_type_symbol
_atom_site_label
_atom_site_fract_x
_atom_site_fract_y
_atom_site_fract_z
Si Si1 0.080002 0.893425 0.456489
Si Si2 0.698556 0.713606 0.157680
Si Si3 0.297393 0.546836 0.717442
Si Si4 0.907761 0.466101 0.135717
Si Si5 0.863963 0.712637 0.706613
Si Si6 0.580448 0.092552 0.476876
Si Si7 0.030444 0.751884 0.886803
Si Si8 0.391065 0.160460 0.436922
O O1 0.011837 0.718167 0.385675
O O2 0.180036 0.143494 0.728370
O O3 0.115583 0.663052 0.128020
O O4 0.000000 0.000000 0.500000
O O5 0.663050 0.794964 0.381142
O O6 0.638747 0.851534 0.213797
O O7 0.661208 0.384915 0.804255
O O8 0.192831 0.449939 0.711914
O O9 0.252985 0.443289 0.483267
O O10 0.381449 0.404953 0.610131
O O11 0.332479 0.873713 0.078456
O O12 0.933043 0.228756 0.962720
O O13 0.909814 0.739453 0.861921
O O14 0.937460 0.529074 0.447682
O O15 0.898384 0.007998 0.950665
O O16 0.507255 0.138380 0.428687
O O17 0.500000 0.000000 0.500000
#
# Coordination Sequence:
#
# PCOD9001340 Si02
#       8
#     2   2   2   2   2   2   2   2
#     4  11  24  34  51  72 103 143 183 212 235 288
#     4  11  21  35  49  68 100 135 172 210 246 292
#     4  11  19  30  51  75 102 130 164 203 250 298
#     4  10  22  34  48  73 104 143 177 205 246 289
#     4   9  18  30  49  73  98 131 167 203 254 306
#     4  10  21  35  50  70  94 132 171 209 257 304
#     4   9  18  33  48  68 100 136 168 204 247 300
#     4  11  19  31  50  72  97 128 164 205 256 300
#
# _framework density 22.234203000000001
#
# number of rings (size 3 to 8) (size 9 to 14) (size 15 to 20)
#    0.000    1.750    1.250    6.000    7.000    0.000 
#    0.000    0.000    0.000    0.000    0.000    0.000 
#    0.000    6.000    0.000    0.000    0.000    0.000 
#
# Total GULP energy -89304.580772 kJ/mol
# GULP energy per Si atom -5581.536298 kJ/mol
# Density = 2.218360 g / cm^3
# Si number density = 22.234203 Si / 1000 Ang^3
#
#
#
# Elastic Constant Matrix: (Units=GPa)
#
#
# Indices 1 2 3 4 5 6 
#
# 1 50.5396 19.9552 -16.0983 3.7400 9.0694 -22.3867
# 2 19.9552 35.4169 3.9260 7.6854 -5.8745 -28.5369
# 3 -16.0983 3.9260 92.3475 13.1901 7.3790 8.7542
# 4 3.7400 7.6854 13.1901 31.2086 -8.4688 0.9599
# 5 9.0694 -5.8745 7.3790 -8.4688 37.0222 6.2256
# 6 -22.3867 -28.5369 8.7542 0.9599 6.2256 33.3547
#
#
#
# Elastic Compliance Matrix: (Units=1/GPa)
#
#
# Indices 1 2 3 4 5 6 
#
# 1 0.039234 -0.001332 0.007804 -0.013679 -0.019064 0.027097
# 2 -0.001332 0.126316 -0.011620 -0.030289 -0.003020 0.111661
# 3 0.007804 -0.011620 0.014757 -0.005953 -0.006861 -0.007125
# 4 -0.013679 -0.030289 -0.005953 0.049582 0.017501 -0.038226
# 5 -0.019064 -0.003020 -0.006861 0.017501 0.040202 -0.021585
# 6 0.027097 0.111661 -0.007125 -0.038226 -0.021585 0.150699
#
#
# Mechanical properties :
#
#
# Convention : Reuss Voigt Hill
#
# Bulk Modulus (GPa) = 5.88193 21.54108 13.71150
# Shear Modulus (GPa) = 10.25104 31.68516 20.96810
#
# Velocity S-wave (km/s) = 2.14953 3.77910 3.07425
# Velocity P-wave (km/s) = 2.96847 5.36203 4.33378
#
# Compressibility (1/GPa) = 0.17001224
#
# Stress axis : x y z
#
# Youngs Moduli (GPa) = 25.48799 7.91666 67.76419
#
# Poissons Ratio (x) = 0.01055 -0.52886
# Poissons Ratio (y) = 0.03395 0.78741
# Poissons Ratio (z) = -0.19892 0.09199
#
# Static dielectric constant tensor:
#      x y z
#    x 1.854920 -0.027300 -0.006000 
#    y -0.027300 1.951520 -0.103780 
#    z -0.006000 -0.103780 1.902210 
# 
# From -- ./inp_files/482218.got.cif
#   From: 2010.05.17/outbox.cif.g08.bks.cpg/sg2_242_cif.got.tgz:482218.got - 2010.06.03 11:33:40.
