data_PCOD9001427
_publ_section_title
;
Structure prediction by ZEFSAII (Michael W. Deem and Ramdas Pophale) SiO2 
 PCOD9001427
Probable space group: P -1
;
_chemical_formula_sum "Si O2"
_cell_formula_units_Z 16
_cell_length_a 12.032567
_cell_length_b 7.422229
_cell_length_c 7.543072
_cell_angle_alpha 87.046122
_cell_angle_beta 91.112305
_cell_angle_gamma 102.919286
_cell_volume 655.713209
_symmetry_space_group_name_H-M "P -1"
_symmetry_group_IT_number 2
_symmetry_cell_setting 'triclinic'
loop_
_space_group_symop_operation_xyz
x,y,z
-x,-y,-z
loop_
_atom_site_type_symbol
_atom_site_label
_atom_site_fract_x
_atom_site_fract_y
_atom_site_fract_z
Si Si1 0.773739 0.699867 0.146806
Si Si2 0.934467 0.845652 0.868359
Si Si3 0.086697 0.256785 0.523636
Si Si4 0.368929 0.816132 0.879821
Si Si5 0.595402 0.191472 0.516906
Si Si6 0.848133 0.305319 0.553380
Si Si7 0.530537 0.742027 0.172626
Si Si8 0.868279 0.332591 0.145797
O O1 0.830669 0.800557 0.323349
O O2 0.639870 0.658989 0.163360
O O3 0.831261 0.525047 0.147515
O O4 0.810723 0.796373 0.955627
O O5 0.926613 0.861462 0.653304
O O6 0.008156 0.687737 0.904497
O O7 0.000000 0.000000 0.000000
O O8 0.138459 0.470885 0.449181
O O9 0.968552 0.266446 0.623163
O O10 0.374900 0.739826 0.684591
O O11 0.240235 0.791435 0.949171
O O12 0.420194 0.034693 0.851223
O O13 0.439621 0.713096 0.014829
O O14 0.720935 0.196001 0.606046
O O15 0.534680 0.306398 0.642179
O O16 0.500000 0.000000 0.500000
O O17 0.859688 0.259013 0.349772
#
# Coordination Sequence:
#
# PCOD9001427 Si02
#       8
#     2   2   2   2   2   2   2   2
#     4  11  23  38  58  88 120 155 199 246 298 363
#     4  11  23  39  61  89 118 155 198 246 307 364
#     4   9  20  38  59  86 121 155 195 251 302 355
#     4   9  19  38  57  78 116 156 193 248 295 343
#     4   9  18  34  59  87 115 155 203 246 294 356
#     4   8  16  36  62  86 117 159 200 243 303 359
#     4  10  21  35  55  84 117 156 200 239 294 356
#     4   9  19  38  61  84 116 154 198 247 299 357
#
# _framework density 24.40091
#
# number of rings (size 3 to 8) (size 9 to 14) (size 15 to 20)
#    0.000    2.500    0.000    1.875    0.000    5.000 
#    0.000    9.375    0.000    0.000    0.000    0.000 
#    0.000    0.000    0.000    0.000    0.000    0.000 
#
# Total GULP energy -89191.251737 kJ/mol
# GULP energy per Si atom -5574.453234 kJ/mol
# Density = 2.434537 g / cm^3
# Si number density = 24.400910 Si / 1000 Ang^3
#
#
#
# Elastic Constant Matrix: (Units=GPa)
#
#
# Indices 1 2 3 4 5 6 
#
# 1 134.7850 15.8275 29.1076 3.2360 -4.4773 5.2674
# 2 15.8275 65.2914 18.8697 14.0580 -2.7785 -3.5678
# 3 29.1076 18.8697 102.2880 19.0075 -3.8823 -11.5642
# 4 3.2360 14.0580 19.0075 19.5218 2.7022 0.8650
# 5 -4.4773 -2.7785 -3.8823 2.7022 33.4822 -1.1654
# 6 5.2674 -3.5678 -11.5642 0.8650 -1.1654 31.5942
#
#
#
# Elastic Compliance Matrix: (Units=1/GPa)
#
#
# Indices 1 2 3 4 5 6 
#
# 1 0.008306 -0.001947 -0.002831 0.002861 0.000296 -0.002708
# 2 -0.001947 0.019041 0.000064 -0.013938 0.002556 0.002974
# 3 -0.002831 0.000064 0.013902 -0.013734 0.002557 0.006038
# 4 0.002861 -0.013938 -0.013734 0.075800 -0.008814 -0.009478
# 5 0.000296 0.002556 0.002557 -0.008814 0.031216 0.002568
# 6 -0.002708 0.002974 0.006038 -0.009478 0.002568 0.035003
#
#
# Mechanical properties :
#
#
# Convention : Reuss Voigt Hill
#
# Bulk Modulus (GPa) = 31.42366 47.77490 39.59928
# Shear Modulus (GPa) = 24.59390 32.82361 28.70876
#
# Velocity S-wave (km/s) = 3.17820 3.67165 3.43380
# Velocity P-wave (km/s) = 5.13556 6.13158 5.65554
#
# Compressibility (1/GPa) = 0.03182315
#
# Stress axis : x y z
#
# Youngs Moduli (GPa) = 120.39217 52.51695 71.93259
#
# Poissons Ratio (x) = 0.10223 0.20364
# Poissons Ratio (y) = 0.23436 -0.00464
# Poissons Ratio (z) = 0.34084 -0.00339
#
# Static dielectric constant tensor:
#      x y z
#    x 2.079790 0.050160 -0.058560 
#    y 0.050160 2.051460 0.025240 
#    z -0.058560 0.025240 2.071360 
# 
# From -- ./inp_files/239105.got.cif
#   From: 2010.05.17/outbox.cif.g08.bks.cpg/sg2_120_cif.got.tgz:239105.got - 2010.06.03 11:33:40.
