data_PCOD9001476
_publ_section_title
;
Structure prediction by ZEFSAII (Michael W. Deem and Ramdas Pophale) SiO2 
 PCOD9001476
Probable space group: P -1
;
_chemical_formula_sum "Si O2"
_cell_formula_units_Z 12
_cell_length_a 8.022149
_cell_length_b 6.868260
_cell_length_c 12.697452
_cell_angle_alpha 44.908962
_cell_angle_beta 66.544354
_cell_angle_gamma 84.689042
_cell_volume 433.301765
_symmetry_space_group_name_H-M "P -1"
_symmetry_group_IT_number 2
_symmetry_cell_setting 'triclinic'
loop_
_space_group_symop_operation_xyz
x,y,z
-x,-y,-z
loop_
_atom_site_type_symbol
_atom_site_label
_atom_site_fract_x
_atom_site_fract_y
_atom_site_fract_z
Si Si1 0.877452 0.205378 0.188457
Si Si2 0.318108 0.106868 0.916492
Si Si3 0.648086 0.416342 0.577029
Si Si4 0.965024 0.709970 0.242886
Si Si5 0.541538 0.381819 0.145092
Si Si6 0.805610 0.927600 0.514403
O O1 0.981202 0.971676 0.221135
O O2 0.684742 0.187897 0.184306
O O3 0.832640 0.196905 0.326024
O O4 0.000000 0.500000 0.000000
O O5 0.517532 0.160821 0.781486
O O6 0.377758 0.339237 0.906947
O O7 0.172971 0.220080 0.837468
O O8 0.181166 0.789842 0.111356
O O9 0.500000 0.500000 0.500000
O O10 0.734161 0.666387 0.546993
O O11 0.836056 0.439598 0.448149
O O12 0.357539 0.163681 0.325109
O O13 0.500000 0.500000 0.000000
O O14 0.000000 0.000000 0.500000
#
# Coordination Sequence:
#
# PCOD9001476 Si02
#       6
#     2   2   2   2   2   2
#     4  11  20  35  56  84 114 147 188 233 283 336
#     4   9  17  32  52  82 103 147 182 227 276 339
#     4   8  16  30  51  79 107 142 185 225 272 335
#     4   9  17  31  55  78 108 140 188 225 279 333
#     4  11  22  36  56  83 115 149 189 234 283 339
#     4  10  21  35  56  85 114 147 186 235 286 337
#
# _framework density 27.694323000000001
#
# number of rings (size 3 to 8) (size 9 to 14) (size 15 to 20)
#    0.000    2.333    1.667    1.500    2.333    0.000 
#    0.000    0.833    0.000    2.000    0.000   15.167 
#    0.000    0.000    0.000    0.000    0.000    0.000 
#
# Total GULP energy -67070.776824 kJ/mol
# GULP energy per Si atom -5589.231402 kJ/mol
# Density = 2.763129 g / cm^3
# Si number density = 27.694323 Si / 1000 Ang^3
#
#
#
# Elastic Constant Matrix: (Units=GPa)
#
#
# Indices 1 2 3 4 5 6 
#
# 1 100.1135 23.2573 78.7022 -2.7302 -25.8326 19.9214
# 2 23.2573 81.3229 52.2100 -0.6692 -14.7020 18.4309
# 3 78.7022 52.2100 288.5203 8.3594 -59.8707 4.9927
# 4 -2.7302 -0.6692 8.3594 42.6925 10.2619 -5.6057
# 5 -25.8326 -14.7020 -59.8707 10.2619 61.7806 -5.0435
# 6 19.9214 18.4309 4.9927 -5.6057 -5.0435 42.0309
#
#
#
# Elastic Compliance Matrix: (Units=1/GPa)
#
#
# Indices 1 2 3 4 5 6 
#
# 1 0.014453 -0.000208 -0.003348 0.000249 0.002213 -0.006063
# 2 -0.000208 0.015522 -0.002482 -0.000296 0.000731 -0.006365
# 3 -0.003348 -0.002482 0.005688 -0.002048 0.004043 0.002211
# 4 0.000249 -0.000296 -0.002048 0.025660 -0.005972 0.002961
# 5 0.002213 0.000731 0.004043 -0.005972 0.022197 0.000017
# 6 -0.006063 -0.006365 0.002211 0.002961 0.000017 0.029591
#
#
# Mechanical properties :
#
#
# Convention : Reuss Voigt Hill
#
# Bulk Modulus (GPa) = 42.39374 86.47731 64.43552
# Shear Modulus (GPa) = 37.58048 50.35329 43.96688
#
# Velocity S-wave (km/s) = 3.68771 4.26864 3.98876
# Velocity P-wave (km/s) = 5.78561 7.45577 6.67314
#
# Compressibility (1/GPa) = 0.02358839
#
# Stress axis : x y z
#
# Youngs Moduli (GPa) = 69.18912 64.42643 175.80134
#
# Poissons Ratio (x) = 0.01339 0.58857
# Poissons Ratio (y) = 0.01438 0.43627
# Poissons Ratio (z) = 0.23164 0.15988
#
# Static dielectric constant tensor:
#      x y z
#    x 2.095370 -0.012630 -0.001180 
#    y -0.012630 2.319160 -0.092490 
#    z -0.001180 -0.092490 2.241140 
# 
# From -- ./inp_files/147056.got.cif
#   From: 2010.05.17/outbox.cif.g08.bks.cpg/sg2_74_cif.got.tgz:147056.got - 2010.06.03 11:33:40.
