data_PCOD9001342
_publ_section_title
;
Structure prediction by ZEFSAII (Michael W. Deem and Ramdas Pophale) SiO2 
 PCOD9001342
Probable space group: P -1
;
_chemical_formula_sum "Si O2"
_cell_formula_units_Z 16
_cell_length_a 9.418009
_cell_length_b 7.835901
_cell_length_c 19.463271
_cell_angle_alpha 96.345219
_cell_angle_beta 150.190319
_cell_angle_gamma 86.748267
_cell_volume 707.436863
_symmetry_space_group_name_H-M "P -1"
_symmetry_group_IT_number 2
_symmetry_cell_setting 'triclinic'
loop_
_space_group_symop_operation_xyz
x,y,z
-x,-y,-z
loop_
_atom_site_type_symbol
_atom_site_label
_atom_site_fract_x
_atom_site_fract_y
_atom_site_fract_z
Si Si1 0.543183 0.892879 0.884152
Si Si2 0.884351 0.988211 0.818220
Si Si3 0.506506 0.210596 0.466549
Si Si4 0.610843 0.445789 0.401562
Si Si5 0.049423 0.251427 0.511326
Si Si6 0.596441 0.213152 0.815112
Si Si7 0.906669 0.928887 0.609613
Si Si8 0.165761 0.334788 0.112005
O O1 0.647117 0.733173 0.875810
O O2 0.210717 0.879071 0.764689
O O3 0.564193 0.056976 0.848814
O O4 0.785200 0.936471 0.045457
O O5 0.716189 0.914052 0.678297
O O6 0.879517 0.830591 0.863058
O O7 0.716767 0.132371 0.792560
O O8 0.543325 0.387323 0.447689
O O9 0.351084 0.200211 0.473963
O O10 0.801280 0.117026 0.589465
O O11 0.856371 0.594542 0.495888
O O12 0.335929 0.471649 0.239692
O O13 0.743491 0.278712 0.415272
O O14 0.285654 0.269549 0.670397
O O15 0.063254 0.088043 0.460890
O O16 0.840769 0.353793 0.951423
#
# Coordination Sequence:
#
# PCOD9001342 Si02
#       8
#     2   2   2   2   2   2   2   2
#     4   9  16  28  50  76  99 123 156 202 246 283
#     4   8  15  29  49  73  97 123 158 201 245 283
#     4  10  21  35  50  72 101 129 163 203 240 287
#     4  10  21  35  50  72 101 129 163 203 240 287
#     4  11  21  32  51  76  98 129 166 198 241 289
#     4   9  16  28  50  76  99 123 156 202 246 283
#     4  11  21  32  51  76  98 129 166 198 241 289
#     4   8  15  29  49  73  97 123 158 201 245 283
#
# _framework density 22.616857
#
# number of rings (size 3 to 8) (size 9 to 14) (size 15 to 20)
#    0.000    2.500    2.500    2.250    0.000    2.500 
#    0.000    0.000    0.000    0.000    0.000    3.500 
#    0.000    0.000    0.000    0.000    0.000    0.000 
#
# Total GULP energy -89289.151042 kJ/mol
# GULP energy per Si atom -5580.571940 kJ/mol
# Density = 2.256538 g / cm^3
# Si number density = 22.616857 Si / 1000 Ang^3
#
#
#
# Elastic Constant Matrix: (Units=GPa)
#
#
# Indices 1 2 3 4 5 6 
#
# 1 75.6307 4.1429 7.6278 -5.3186 8.5617 -1.1234
# 2 4.1429 42.6367 0.3109 1.6722 3.5975 9.6889
# 3 7.6278 0.3109 113.6091 -11.6137 16.7316 -1.3527
# 4 -5.3186 1.6722 -11.6137 27.0312 4.1829 2.0324
# 5 8.5617 3.5975 16.7316 4.1829 29.1181 -1.7287
# 6 -1.1234 9.6889 -1.3527 2.0324 -1.7287 27.7209
#
#
#
# Elastic Compliance Matrix: (Units=1/GPa)
#
#
# Indices 1 2 3 4 5 6 
#
# 1 0.014047 -0.001229 0.000093 0.003543 -0.004513 0.000462
# 2 -0.001229 0.026004 0.000380 -0.000436 -0.003560 -0.009310
# 3 0.000093 0.000380 0.010365 0.005543 -0.006854 -0.000457
# 4 0.003543 -0.000436 0.005543 0.041944 -0.010386 -0.003156
# 5 -0.004513 -0.003560 -0.006854 -0.010386 0.041783 0.004094
# 6 0.000462 -0.009310 -0.000457 -0.003156 0.004094 0.039811
#
#
# Mechanical properties :
#
#
# Convention : Reuss Voigt Hill
#
# Bulk Modulus (GPa) = 20.44810 28.44885 24.44847
# Shear Modulus (GPa) = 26.07320 31.42704 28.75012
#
# Velocity S-wave (km/s) = 3.39901 3.73170 3.56923
# Velocity P-wave (km/s) = 4.94621 5.58331 5.27439
#
# Compressibility (1/GPa) = 0.04890430
#
# Stress axis : x y z
#
# Youngs Moduli (GPa) = 71.18913 38.45611 96.47470
#
# Poissons Ratio (x) = 0.04725 -0.00894
# Poissons Ratio (y) = 0.08747 -0.03668
# Poissons Ratio (z) = -0.00660 -0.01462
#
# Static dielectric constant tensor:
#      x y z
#    x 1.826760 0.003970 -0.016790 
#    y 0.003970 1.940020 0.022360 
#    z -0.016790 0.022360 1.882290 
# 
# From -- ./inp_files/196891.got.cif
#   From: 2010.05.17/outbox.cif.g08.bks.cpg/sg2_99_cif.got.tgz:196891.got - 2010.06.03 11:33:40.
