data_PCOD9001614
_publ_section_title
;
Structure prediction by ZEFSAII (Michael W. Deem and Ramdas Pophale) SiO2 
 PCOD9001614
Probable space group: P -1
;
_chemical_formula_sum "Si O2"
_cell_formula_units_Z 16
_cell_length_a 13.978410
_cell_length_b 9.369552
_cell_length_c 8.870134
_cell_angle_alpha 43.855484
_cell_angle_beta 114.566968
_cell_angle_gamma 112.912581
_cell_volume 724.608911
_symmetry_space_group_name_H-M "P -1"
_symmetry_group_IT_number 2
_symmetry_cell_setting 'triclinic'
loop_
_space_group_symop_operation_xyz
x,y,z
-x,-y,-z
loop_
_atom_site_type_symbol
_atom_site_label
_atom_site_fract_x
_atom_site_fract_y
_atom_site_fract_z
Si Si1 0.780610 0.661412 0.339925
Si Si2 0.569237 0.402562 0.747517
Si Si3 0.662944 0.396603 0.235096
Si Si4 0.213253 0.448621 0.072769
Si Si5 0.072874 0.206526 0.951570
Si Si6 0.541598 0.774296 0.881392
Si Si7 0.688143 0.064208 0.931119
Si Si8 0.886871 0.406893 0.820363
O O1 0.706463 0.455758 0.384457
O O2 0.857135 0.719774 0.203705
O O3 0.848961 0.604753 0.565493
O O4 0.716234 0.850821 0.185873
O O5 0.500000 0.500000 0.500000
O O6 0.678017 0.549753 0.759684
O O7 0.501884 0.321799 0.912037
O O8 0.614161 0.198997 0.870260
O O9 0.611116 0.604145 0.996486
O O10 0.751496 0.396336 0.164234
O O11 0.564198 0.217307 0.289711
O O12 0.129883 0.547437 0.049408
O O13 0.158682 0.231176 0.127572
O O14 0.993012 0.357342 0.848611
O O15 0.000000 0.000000 0.000000
O O16 0.621770 0.981154 0.804462
O O17 0.799981 0.207442 0.876606
#
# Coordination Sequence:
#
# PCOD9001614 Si02
#       8
#     2   2   2   2   2   2   2   2
#     4  10  21  39  65  88 123 163 209 255 309 374
#     4  10  21  36  61  92 124 164 208 251 310 365
#     4   8  17  34  60  81 120 167 196 250 314 355
#     4   9  21  38  62  93 125 164 205 255 314 363
#     4  11  21  42  68  90 126 166 204 257 319 367
#     4   9  17  34  56  81 120 166 203 244 306 362
#     4  10  21  35  59  91 125 159 207 254 309 356
#     4  11  22  39  66  93 121 162 208 254 312 369
#
# _framework density 22.080874999999999
#
# number of rings (size 3 to 8) (size 9 to 14) (size 15 to 20)
#    0.000    2.250    1.250    1.125    7.000    0.000 
#    0.000    2.500   11.000    0.000    0.000    0.000 
#    0.000    0.000    0.000    0.000    0.000    0.000 
#
# Total GULP energy -89141.587062 kJ/mol
# GULP energy per Si atom -5571.349191 kJ/mol
# Density = 2.203062 g / cm^3
# Si number density = 22.080875 Si / 1000 Ang^3
#
#
#
# Elastic Constant Matrix: (Units=GPa)
#
#
# Indices 1 2 3 4 5 6 
#
# 1 98.5467 30.4496 16.9147 -6.2586 12.9465 -21.5174
# 2 30.4496 138.1363 26.1123 1.8667 7.9985 16.1129
# 3 16.9147 26.1123 60.8775 1.3054 18.1290 -12.6405
# 4 -6.2586 1.8667 1.3054 10.7010 3.2545 -0.7848
# 5 12.9465 7.9985 18.1290 3.2545 18.3948 0.8026
# 6 -21.5174 16.1129 -12.6405 -0.7848 0.8026 50.5244
#
#
#
# Elastic Compliance Matrix: (Units=1/GPa)
#
#
# Indices 1 2 3 4 5 6 
#
# 1 0.016308 -0.004821 0.004308 0.015716 -0.016848 0.010073
# 2 -0.004821 0.010001 -0.006242 -0.006331 0.006622 -0.007008
# 3 0.004308 -0.006242 0.029670 0.010581 -0.031952 0.011920
# 4 0.015716 -0.006331 0.010581 0.115566 -0.039785 0.013787
# 5 -0.016848 0.006622 -0.031952 -0.039785 0.102723 -0.019531
# 6 0.010073 -0.007008 0.011920 0.013787 -0.019531 0.029824
#
#
# Mechanical properties :
#
#
# Convention : Reuss Voigt Hill
#
# Bulk Modulus (GPa) = 23.54547 49.39041 36.46794
# Shear Modulus (GPa) = 15.07124 30.86296 22.96710
#
# Velocity S-wave (km/s) = 2.61540 3.74267 3.22861
# Velocity P-wave (km/s) = 4.45049 6.41040 5.51816
#
# Compressibility (1/GPa) = 0.04247102
#
# Stress axis : x y z
#
# Youngs Moduli (GPa) = 61.31780 99.98606 33.70423
#
# Poissons Ratio (x) = 0.48204 -0.14521
# Poissons Ratio (y) = 0.29562 0.21037
# Poissons Ratio (z) = -0.26418 0.62407
#
# Static dielectric constant tensor:
#      x y z
#    x 1.862460 0.044930 0.002660 
#    y 0.044930 1.904600 0.028030 
#    z 0.002660 0.028030 1.800310 
# 
# From -- ./inp_files/294207.got.cif
#   From: 2010.05.17/outbox.cif.g08.bks.cpg/sg2_148_cif.got.tgz:294207.got - 2010.06.03 11:33:40.
