data_PCOD9001863
_publ_section_title
;
Structure prediction by ZEFSAII (Michael W. Deem and Ramdas Pophale) SiO2 
 PCOD9001863
Probable space group: P -1
;
_chemical_formula_sum "Si O2"
_cell_formula_units_Z 16
_cell_length_a 14.297633
_cell_length_b 15.666483
_cell_length_c 7.442872
_cell_angle_alpha 64.895365
_cell_angle_beta 95.563818
_cell_angle_gamma 42.111567
_cell_volume 744.145394
_symmetry_space_group_name_H-M "P -1"
_symmetry_group_IT_number 2
_symmetry_cell_setting 'triclinic'
loop_
_space_group_symop_operation_xyz
x,y,z
-x,-y,-z
loop_
_atom_site_type_symbol
_atom_site_label
_atom_site_fract_x
_atom_site_fract_y
_atom_site_fract_z
Si Si1 0.406921 0.674134 0.047943
Si Si2 0.592069 0.694215 0.673319
Si Si3 0.782979 0.644914 0.198076
Si Si4 0.985909 0.063645 0.636911
Si Si5 0.606528 0.309036 0.409913
Si Si6 0.151352 0.361620 0.385113
Si Si7 0.782720 0.442470 0.280522
Si Si8 0.589787 0.005867 0.396207
O O1 0.397326 0.689040 0.813287
O O2 0.470354 0.513753 0.252231
O O3 0.584326 0.584742 0.207746
O O4 0.202717 0.875495 0.908991
O O5 0.489383 0.703429 0.531294
O O6 0.721522 0.662207 0.638685
O O7 0.418785 0.896046 0.567165
O O8 0.727179 0.527273 0.995241
O O9 0.806514 0.676524 0.360875
O O10 0.849559 0.477614 0.366023
O O11 0.924116 0.569388 0.145421
O O12 0.565976 0.837655 0.925265
O O13 0.824316 0.145051 0.639016
O O14 0.908156 0.239042 0.464730
O O15 0.000000 0.000000 0.500000
O O16 0.218670 0.204204 0.455090
O O17 0.500000 0.000000 0.500000
#
# Coordination Sequence:
#
# PCOD9001863 Si02
#       8
#     2   2   2   2   2   2   2   2
#     4   8  14  26  42  67  98 125 151 192 245 289
#     4   9  17  31  49  74 101 126 161 208 249 285
#     4  10  21  36  52  72  99 137 172 201 247 304
#     4   9  15  25  45  71  97 126 154 194 250 293
#     4   8  14  25  41  67  99 122 152 195 240 290
#     4  10  21  36  52  70 101 137 169 205 249 299
#     4   9  18  29  46  73  98 120 163 208 240 288
#     4   9  19  34  53  75  98 125 164 213 252 287
#
# _framework density 21.501175
#
# number of rings (size 3 to 8) (size 9 to 14) (size 15 to 20)
#    0.000    3.000    0.000    2.625    0.000    8.500 
#    0.000    6.250    0.000    3.000    0.000    4.375 
#    0.000    0.000    0.000    0.000    0.000    0.000 
#
# Total GULP energy -89149.310642 kJ/mol
# GULP energy per Si atom -5571.831915 kJ/mol
# Density = 2.145224 g / cm^3
# Si number density = 21.501175 Si / 1000 Ang^3
#
#
#
# Elastic Constant Matrix: (Units=GPa)
#
#
# Indices 1 2 3 4 5 6 
#
# 1 107.1852 31.8108 27.4408 -25.3837 -0.3935 6.2497
# 2 31.8108 69.6086 36.9225 -20.7707 -4.3670 -1.2181
# 3 27.4408 36.9225 48.1208 -31.5430 5.0911 -6.9474
# 4 -25.3837 -20.7707 -31.5430 28.4639 -2.4079 4.5408
# 5 -0.3935 -4.3670 5.0911 -2.4079 17.6518 -9.9326
# 6 6.2497 -1.2181 -6.9474 4.5408 -9.9326 20.6334
#
#
#
# Elastic Compliance Matrix: (Units=1/GPa)
#
#
# Indices 1 2 3 4 5 6 
#
# 1 0.013534 -0.005034 0.005757 0.015678 -0.005198 -0.008411
# 2 -0.005034 0.030194 -0.034663 -0.020108 0.017001 0.004245
# 3 0.005757 -0.034663 0.117884 0.108328 -0.028641 -0.001725
# 4 0.015678 -0.020108 0.108328 0.154873 -0.022955 -0.014595
# 5 -0.005198 0.017001 -0.028641 -0.022955 0.088788 0.040728
# 6 -0.008411 0.004245 -0.001725 -0.014595 0.040728 0.073500
#
#
# Mechanical properties :
#
#
# Convention : Reuss Voigt Hill
#
# Bulk Modulus (GPa) = 10.66864 46.36252 28.51558
# Shear Modulus (GPa) = 8.65208 21.93253 15.29231
#
# Velocity S-wave (km/s) = 2.00817 3.19731 2.66979
# Velocity P-wave (km/s) = 3.21709 5.93632 4.77439
#
# Compressibility (1/GPa) = 0.09373262
#
# Stress axis : x y z
#
# Youngs Moduli (GPa) = 73.88883 33.11970 8.48293
#
# Poissons Ratio (x) = 0.16672 -0.04884
# Poissons Ratio (y) = 0.37194 0.29404
# Poissons Ratio (z) = -0.42540 1.14802
#
# Static dielectric constant tensor:
#      x y z
#    x 1.822420 -0.021390 0.020220 
#    y -0.021390 1.809270 0.009770 
#    z 0.020220 0.009770 1.798040 
# 
# From -- ./inp_files/314969.got.cif
#   From: 2010.05.17/outbox.cif.g08.bks.cpg/sg2_158_cif.got.tgz:314969.got - 2010.06.03 11:33:40.
