data_PCOD9001485
_publ_section_title
;
Structure prediction by ZEFSAII (Michael W. Deem and Ramdas Pophale) SiO2 
 PCOD9001485
Probable space group: P -1
;
_chemical_formula_sum "Si O2"
_cell_formula_units_Z 14
_cell_length_a 5.465921
_cell_length_b 5.310502
_cell_length_c 17.943357
_cell_angle_alpha 77.058741
_cell_angle_beta 82.245128
_cell_angle_gamma 82.455930
_cell_volume 500.204078
_symmetry_space_group_name_H-M "P -1"
_symmetry_group_IT_number 2
_symmetry_cell_setting 'triclinic'
loop_
_space_group_symop_operation_xyz
x,y,z
-x,-y,-z
loop_
_atom_site_type_symbol
_atom_site_label
_atom_site_fract_x
_atom_site_fract_y
_atom_site_fract_z
Si Si1 0.696267 0.197236 0.951318
Si Si2 0.863294 0.210076 0.093799
Si Si3 0.343710 0.844593 0.620438
Si Si4 0.065181 0.633023 0.762697
Si Si5 0.478849 0.170444 0.809370
Si Si6 0.244921 0.610398 0.332384
Si Si7 0.295254 0.738550 0.472137
O O1 0.581776 0.299528 0.871272
O O2 0.766832 0.356196 0.011692
O O3 0.949879 0.030833 0.926311
O O4 0.500000 0.000000 0.000000
O O5 0.001918 0.319033 0.151250
O O6 0.623739 0.096081 0.146480
O O7 0.193807 0.868381 0.702183
O O8 0.507150 0.569333 0.642836
O O9 0.187654 0.829006 0.551184
O O10 0.538848 0.047655 0.582405
O O11 0.252971 0.372287 0.780199
O O12 0.882850 0.558895 0.710902
O O13 0.678038 0.151151 0.736280
O O14 0.122167 0.675271 0.413718
O O15 0.500000 0.500000 0.500000
#
# Coordination Sequence:
#
# PCOD9001485 Si02
#       7
#     2   2   2   2   2   2   2
#     4   9  20  39  61  84 115 156 196 241 295 345
#     4  10  21  39  60  85 118 154 196 244 293 349
#     4   9  20  38  58  84 116 153 193 236 287 342
#     4  11  23  36  59  91 117 151 198 241 291 348
#     4  10  21  39  59  84 118 155 198 241 289 345
#     4  10  21  35  56  87 118 152 192 239 290 340
#     4   9  18  38  61  81 116 156 191 234 285 342
#
# _framework density 27.988575000000001
#
# number of rings (size 3 to 8) (size 9 to 14) (size 15 to 20)
#    0.000    2.286    0.000    1.714    0.000    8.000 
#    0.000   16.429    0.000    0.000    0.000    0.000 
#    0.000    0.000    0.000    0.000    0.000    0.000 
#
# Total GULP energy -78302.333200 kJ/mol
# GULP energy per Si atom -5593.023800 kJ/mol
# Density = 2.792487 g / cm^3
# Si number density = 27.988575 Si / 1000 Ang^3
#
#
#
# Elastic Constant Matrix: (Units=GPa)
#
#
# Indices 1 2 3 4 5 6 
#
# 1 63.2983 11.2819 55.3814 9.5910 14.6264 12.4517
# 2 11.2819 57.0482 44.8742 12.4753 -0.6184 6.5607
# 3 55.3814 44.8742 266.7445 45.2538 41.2593 11.5858
# 4 9.5910 12.4753 45.2538 54.2363 16.9489 7.7359
# 5 14.6264 -0.6184 41.2593 16.9489 53.1637 10.9317
# 6 12.4517 6.5607 11.5858 7.7359 10.9317 39.9260
#
#
#
# Elastic Compliance Matrix: (Units=1/GPa)
#
#
# Indices 1 2 3 4 5 6 
#
# 1 0.020504 -0.000783 -0.003773 0.001032 -0.002063 -0.004806
# 2 -0.000783 0.021528 -0.003577 -0.002895 0.004783 -0.003004
# 3 -0.003773 -0.003577 0.006020 -0.002769 -0.003080 0.001397
# 4 0.001032 -0.002895 -0.002769 0.023131 -0.005105 -0.002126
# 5 -0.002063 0.004783 -0.003080 -0.005105 0.024471 -0.004960
# 6 -0.004806 -0.003004 0.001397 -0.002126 -0.004960 0.028403
#
#
# Mechanical properties :
#
#
# Convention : Reuss Voigt Hill
#
# Bulk Modulus (GPa) = 31.45990 67.79623 49.62806
# Shear Modulus (GPa) = 33.13070 47.83543 40.48306
#
# Velocity S-wave (km/s) = 3.44426 4.13862 3.80730
# Velocity P-wave (km/s) = 5.20403 6.86389 6.09077
#
# Compressibility (1/GPa) = 0.03178650
#
# Stress axis : x y z
#
# Youngs Moduli (GPa) = 48.77015 46.45095 166.12632
#
# Poissons Ratio (x) = 0.03636 0.62674
# Poissons Ratio (y) = 0.03817 0.59429
# Poissons Ratio (z) = 0.18399 0.16617
#
# Static dielectric constant tensor:
#      x y z
#    x 2.260820 0.051160 0.006940 
#    y 0.051160 2.239060 0.062820 
#    z 0.006940 0.062820 2.204350 
# 
# From -- ./inp_files/7796.got.cif
#   From: 2010.05.17/outbox.cif.g08.bks.cpg/sg2_4_cif.got.tgz:7796.got - 2010.06.03 11:33:40.
