data_PCOD9001736
_publ_section_title
;
Structure prediction by ZEFSAII (Michael W. Deem and Ramdas Pophale) SiO2 
 PCOD9001736
Probable space group: P -1
;
_chemical_formula_sum "Si O2"
_cell_formula_units_Z 16
_cell_length_a 11.541121
_cell_length_b 9.469430
_cell_length_c 11.297082
_cell_angle_alpha 103.749470
_cell_angle_beta 44.123908
_cell_angle_gamma 79.695223
_cell_volume 714.789823
_symmetry_space_group_name_H-M "P -1"
_symmetry_group_IT_number 2
_symmetry_cell_setting 'triclinic'
loop_
_space_group_symop_operation_xyz
x,y,z
-x,-y,-z
loop_
_atom_site_type_symbol
_atom_site_label
_atom_site_fract_x
_atom_site_fract_y
_atom_site_fract_z
Si Si1 0.510134 0.274098 0.210754
Si Si2 0.124960 0.698875 0.718643
Si Si3 0.084797 0.357021 0.514179
Si Si4 0.443193 0.696818 0.090087
Si Si5 0.925390 0.062025 0.904624
Si Si6 0.197243 0.391938 0.042518
Si Si7 0.935789 0.163146 0.456735
Si Si8 0.736591 0.427675 0.170364
O O1 0.295086 0.312591 0.397591
O O2 0.557199 0.419401 0.244212
O O3 0.538175 0.252483 0.045285
O O4 0.700345 0.112250 0.096814
O O5 0.927345 0.697256 0.878976
O O6 0.156166 0.695474 0.554204
O O7 0.268738 0.566049 0.682931
O O8 0.080357 0.887987 0.819779
O O9 0.000000 0.500000 0.500000
O O10 0.932176 0.437808 0.749623
O O11 0.085321 0.197931 0.423594
O O12 0.233865 0.803743 0.324329
O O13 0.500000 0.500000 0.000000
O O14 0.598590 0.706857 0.060861
O O15 0.916008 0.236544 0.971741
O O16 0.974609 0.007137 0.719708
O O17 0.230391 0.439705 0.896980
#
# Coordination Sequence:
#
# PCOD9001736 Si02
#       8
#     2   2   2   2   2   2   2   2
#     4  10  21  35  62  87 115 162 191 237 298 352
#     4  10  21  41  62  84 118 158 199 242 290 345
#     4  12  19  37  59  88 125 150 193 243 303 351
#     4  12  19  37  59  88 125 150 193 243 303 351
#     4   8  21  40  60  86 116 160 197 232 294 356
#     4  12  23  36  62  90 117 156 192 252 294 346
#     4  10  21  35  62  87 115 162 191 237 298 352
#     4  10  21  41  62  84 118 158 199 242 290 345
#
# _framework density 22.384201999999998
#
# number of rings (size 3 to 8) (size 9 to 14) (size 15 to 20)
#    1.500    0.000    5.000    0.750    0.000    1.000 
#    0.000    3.750    0.000    1.500    0.000    0.000 
#    0.000    0.000    0.000    0.000    0.000    0.000 
#
# Total GULP energy -89212.487839 kJ/mol
# GULP energy per Si atom -5575.780490 kJ/mol
# Density = 2.233325 g / cm^3
# Si number density = 22.384202 Si / 1000 Ang^3
#
#
#
# Elastic Constant Matrix: (Units=GPa)
#
#
# Indices 1 2 3 4 5 6 
#
# 1 79.5437 9.1319 7.0752 -19.9844 -8.7087 -13.4140
# 2 9.1319 39.5589 -0.8816 -12.7840 8.2215 -13.5995
# 3 7.0752 -0.8816 67.6652 -11.8106 -4.6502 -1.7123
# 4 -19.9844 -12.7840 -11.8106 25.5501 0.5270 9.8510
# 5 -8.7087 8.2215 -4.6502 0.5270 38.9238 2.0455
# 6 -13.4140 -13.5995 -1.7123 9.8510 2.0455 40.8742
#
#
#
# Elastic Compliance Matrix: (Units=1/GPa)
#
#
# Indices 1 2 3 4 5 6 
#
# 1 0.016326 0.000332 0.000735 0.012293 0.003380 0.002367
# 2 0.000332 0.034890 0.002900 0.015988 -0.007605 0.008366
# 3 0.000735 0.002900 0.016544 0.009855 0.001424 -0.000547
# 4 0.012293 0.015988 0.009855 0.063439 -0.000018 -0.005522
# 5 0.003380 -0.007605 0.001424 -0.000018 0.028370 -0.002777
# 6 0.002367 0.008366 -0.000547 -0.005522 -0.002777 0.029473
#
#
# Mechanical properties :
#
#
# Convention : Reuss Voigt Hill
#
# Bulk Modulus (GPa) = 13.21130 24.15764 18.68447
# Shear Modulus (GPa) = 24.23196 32.49909 28.36553
#
# Velocity S-wave (km/s) = 3.29378 3.81448 3.56365
# Velocity P-wave (km/s) = 4.51444 5.49692 5.02972
#
# Compressibility (1/GPa) = 0.07569275
#
# Stress axis : x y z
#
# Youngs Moduli (GPa) = 61.25231 28.66125 60.44607
#
# Poissons Ratio (x) = -0.00951 -0.04443
# Poissons Ratio (y) = -0.02032 -0.17527
# Poissons Ratio (z) = -0.04503 -0.08311
#
# Static dielectric constant tensor:
#      x y z
#    x 1.863740 -0.041850 0.028130 
#    y -0.041850 1.866780 0.045260 
#    z 0.028130 0.045260 1.833720 
# 
# From -- ./inp_files/426148.got.cif
#   From: 2010.05.17/outbox.cif.g08.bks.cpg/sg2_214_cif.got.tgz:426148.got - 2010.06.03 11:33:40.
