data_PCOD9001436
_publ_section_title
;
Structure prediction by ZEFSAII (Michael W. Deem and Ramdas Pophale) SiO2 
 PCOD9001436
Probable space group: P -1
;
_chemical_formula_sum "Si O2"
_cell_formula_units_Z 16
_cell_length_a 19.179933
_cell_length_b 8.658506
_cell_length_c 22.773614
_cell_angle_alpha 132.227073
_cell_angle_beta 163.388733
_cell_angle_gamma 42.333887
_cell_volume 715.057360
_symmetry_space_group_name_H-M "P -1"
_symmetry_group_IT_number 2
_symmetry_cell_setting 'triclinic'
loop_
_space_group_symop_operation_xyz
x,y,z
-x,-y,-z
loop_
_atom_site_type_symbol
_atom_site_label
_atom_site_fract_x
_atom_site_fract_y
_atom_site_fract_z
Si Si1 0.649059 0.098114 0.561513
Si Si2 0.886626 0.693058 0.740415
Si Si3 0.173713 0.708654 0.455824
Si Si4 0.675341 0.126777 0.196807
Si Si5 0.239864 0.713252 0.817162
Si Si6 0.640033 0.978115 0.393318
Si Si7 0.640700 0.540494 0.867123
Si Si8 0.825771 0.885393 0.040959
O O1 0.387334 0.237078 0.425734
O O2 0.825328 0.856365 0.676554
O O3 0.553842 0.058053 0.410566
O O4 0.864495 0.203084 0.753873
O O5 0.984135 0.425346 0.732402
O O6 0.126801 0.687243 0.973802
O O7 0.431960 0.512148 0.647315
O O8 0.272511 0.836472 0.519862
O O9 0.978298 0.914574 0.393509
O O10 0.691901 0.272402 0.191725
O O11 0.546308 0.285481 0.188932
O O12 0.500000 0.000000 0.000000
O O13 0.929038 0.741980 0.572569
O O14 0.500000 0.500000 0.000000
O O15 0.214023 0.932929 0.892066
O O16 0.400627 0.986363 0.159933
O O17 0.775504 0.676097 0.973167
#
# Coordination Sequence:
#
# PCOD9001436 Si02
#       8
#     2   2   2   2   2   2   2   2
#     4  10  24  41  60  83 120 153 189 246 293 344
#     4  11  23  41  60  87 115 151 196 241 295 344
#     4  10  22  39  61  88 118 151 197 239 284 345
#     4  11  19  36  59  86 121 154 188 241 283 335
#     4  10  21  35  55  86 121 156 192 231 284 346
#     4   9  21  40  60  84 115 154 193 238 288 343
#     4  11  22  38  62  89 116 154 196 239 288 341
#     4  10  21  40  60  83 117 153 194 240 288 342
#
# _framework density 22.375826
#
# number of rings (size 3 to 8) (size 9 to 14) (size 15 to 20)
#    0.000    1.750    2.500    1.875    3.500    4.500 
#    0.000    5.000    0.000    0.000    0.000    0.000 
#    0.000    0.000    0.000    0.000    0.000    0.000 
#
# Total GULP energy -89355.848879 kJ/mol
# GULP energy per Si atom -5584.740555 kJ/mol
# Density = 2.232490 g / cm^3
# Si number density = 22.375826 Si / 1000 Ang^3
#
#
#
# Elastic Constant Matrix: (Units=GPa)
#
#
# Indices 1 2 3 4 5 6 
#
# 1 104.8910 1.5004 30.7930 6.8887 -3.1281 -2.3630
# 2 1.5004 11.6119 1.5704 -10.1836 -1.6439 -1.7308
# 3 30.7930 1.5704 117.1394 -9.6644 -40.2755 3.9048
# 4 6.8887 -10.1836 -9.6644 24.5414 4.7099 -0.7561
# 5 -3.1281 -1.6439 -40.2755 4.7099 27.8412 0.8666
# 6 -2.3630 -1.7308 3.9048 -0.7561 0.8666 6.7722
#
#
#
# Elastic Compliance Matrix: (Units=1/GPa)
#
#
# Indices 1 2 3 4 5 6 
#
# 1 0.011873 -0.007104 -0.006274 -0.007196 -0.007132 0.006054
# 2 -0.007104 0.152423 0.004971 0.067956 0.002625 0.040861
# 3 -0.006274 0.004971 0.021595 0.005996 0.030330 -0.016581
# 4 -0.007196 0.067956 0.005996 0.074186 -0.001290 0.019847
# 5 -0.007132 0.002625 0.030330 -0.001290 0.080291 -0.029723
# 6 0.006054 0.040861 -0.016581 0.019847 -0.029723 0.175797
#
#
# Mechanical properties :
#
#
# Convention : Reuss Voigt Hill
#
# Bulk Modulus (GPa) = 5.91442 33.48555 19.69998
# Shear Modulus (GPa) = 8.48409 25.14954 16.81682
#
# Velocity S-wave (km/s) = 1.94932 3.35619 2.74444
# Velocity P-wave (km/s) = 2.77767 5.47871 4.34348
#
# Compressibility (1/GPa) = 0.16907836
#
# Stress axis : x y z
#
# Youngs Moduli (GPa) = 84.22221 6.56070 46.30689
#
# Poissons Ratio (x) = 0.04661 0.29051
# Poissons Ratio (y) = 0.59830 -0.23019
# Poissons Ratio (z) = 0.52838 -0.03261
#
# Static dielectric constant tensor:
#      x y z
#    x 1.824840 0.034990 0.005200 
#    y 0.034990 1.839070 -0.036960 
#    z 0.005200 -0.036960 1.852800 
# 
# From -- ./inp_files/270106.got.cif
#   From: 2010.05.17/outbox.cif.g08.bks.cpg/sg2_136_cif.got.tgz:270106.got - 2010.06.03 11:33:40.
