data_PCOD9001731
_publ_section_title
;
Structure prediction by ZEFSAII (Michael W. Deem and Ramdas Pophale) SiO2 
 PCOD9001731
Probable space group: P -1
;
_chemical_formula_sum "Si O2"
_cell_formula_units_Z 14
_cell_length_a 8.536635
_cell_length_b 8.799473
_cell_length_c 9.173956
_cell_angle_alpha 90.017271
_cell_angle_beta 95.614703
_cell_angle_gamma 126.035052
_cell_volume 553.159841
_symmetry_space_group_name_H-M "P -1"
_symmetry_group_IT_number 2
_symmetry_cell_setting 'triclinic'
loop_
_space_group_symop_operation_xyz
x,y,z
-x,-y,-z
loop_
_atom_site_type_symbol
_atom_site_label
_atom_site_fract_x
_atom_site_fract_y
_atom_site_fract_z
Si Si1 0.036491 0.746618 0.420936
Si Si2 0.693002 0.727583 0.371144
Si Si3 0.909516 0.523754 0.679489
Si Si4 0.191200 0.693050 0.946756
Si Si5 0.403003 0.001247 0.640249
Si Si6 0.665438 0.667872 0.713352
Si Si7 0.395938 0.092705 0.096603
O O1 0.138153 0.683285 0.323818
O O2 0.911625 0.810068 0.341199
O O3 0.889495 0.560351 0.507560
O O4 0.179590 0.881900 0.560198
O O5 0.582006 0.815009 0.312331
O O6 0.699861 0.739888 0.548969
O O7 0.558802 0.512286 0.306892
O O8 0.790643 0.587222 0.749120
O O9 0.120989 0.648982 0.772859
O O10 0.409421 0.746109 0.976791
O O11 0.000000 0.500000 0.000000
O O12 0.240295 0.894068 0.002263
O O13 0.500000 0.000000 0.500000
O O14 0.500547 0.952593 0.770715
O O15 0.698803 0.818685 0.831891
#
# Coordination Sequence:
#
# PCOD9001731 Si02
#       7
#     2   2   2   2   2   2   2
#     4  10  21  37  65  97 132 169 218 276 338 399
#     4  10  21  35  62 101 137 169 215 272 343 410
#     4  10  21  40  67  95 128 173 223 277 334 394
#     4  11  26  46  72  93 131 187 234 275 332 396
#     4  12  22  37  65 101 138 174 217 277 346 400
#     4  10  21  39  64  98 134 173 219 275 338 403
#     4  11  25  47  68  99 139 178 226 280 330 403
#
# _framework density 25.309138000000001
#
# number of rings (size 3 to 8) (size 9 to 14) (size 15 to 20)
#    0.000    1.429    2.857    2.143    8.000    0.571 
#    0.000    0.714    6.286    0.000    0.000    0.000 
#    0.000    0.000    0.000    0.000    0.000    0.000 
#
# Total GULP energy -78053.685441 kJ/mol
# GULP energy per Si atom -5575.263246 kJ/mol
# Density = 2.525153 g / cm^3
# Si number density = 25.309138 Si / 1000 Ang^3
#
#
#
# Elastic Constant Matrix: (Units=GPa)
#
#
# Indices 1 2 3 4 5 6 
#
# 1 106.9851 47.8319 14.3475 0.3491 -14.1405 -24.2041
# 2 47.8319 101.7309 36.0446 30.3955 -10.5281 3.4566
# 3 14.3475 36.0446 78.2187 28.7688 -1.4204 -3.5945
# 4 0.3491 30.3955 28.7688 48.1029 -7.8137 -3.3462
# 5 -14.1405 -10.5281 -1.4204 -7.8137 38.1293 14.0247
# 6 -24.2041 3.4566 -3.5945 -3.3462 14.0247 46.4494
#
#
#
# Elastic Compliance Matrix: (Units=1/GPa)
#
#
# Indices 1 2 3 4 5 6 
#
# 1 0.015919 -0.009542 -0.000733 0.007207 0.001391 0.009048
# 2 -0.009542 0.019163 -0.003752 -0.009945 0.002585 -0.008186
# 3 -0.000733 -0.003752 0.017859 -0.008683 -0.002995 0.001558
# 4 0.007207 -0.009945 -0.008683 0.033305 0.004657 0.004817
# 5 0.001391 0.002585 -0.002995 0.004657 0.031571 -0.008896
# 6 0.009048 -0.008186 0.001558 0.004817 -0.008896 0.030006
#
#
# Mechanical properties :
#
#
# Convention : Reuss Voigt Hill
#
# Bulk Modulus (GPa) = 40.18100 53.70919 46.94510
# Shear Modulus (GPa) = 27.14866 39.11705 33.13285
#
# Velocity S-wave (km/s) = 3.27874 3.93564 3.62211
# Velocity P-wave (km/s) = 5.49946 6.47454 6.00682
#
# Compressibility (1/GPa) = 0.02488738
#
# Stress axis : x y z
#
# Youngs Moduli (GPa) = 62.81907 52.18455 55.99535
#
# Poissons Ratio (x) = 0.49795 0.04102
# Poissons Ratio (y) = 0.59942 0.21008
# Poissons Ratio (z) = 0.04602 0.19578
#
# Static dielectric constant tensor:
#      x y z
#    x 2.032270 0.060820 -0.066250 
#    y 0.060820 2.332630 -0.139270 
#    z -0.066250 -0.139270 2.013310 
# 
# From -- ./inp_files/376680.got.cif
#   From: 2010.05.17/outbox.cif.g08.bks.cpg/sg2_189_cif.got.tgz:376680.got - 2010.06.03 11:33:40.
