data_PCOD9001868
_publ_section_title
;
Structure prediction by ZEFSAII (Michael W. Deem and Ramdas Pophale) SiO2 
 PCOD9001868
Probable space group: P -1
;
_chemical_formula_sum "Si O2"
_cell_formula_units_Z 12
_cell_length_a 11.960396
_cell_length_b 4.971400
_cell_length_c 19.151631
_cell_angle_alpha 90.645380
_cell_angle_beta 32.140054
_cell_angle_gamma 96.660601
_cell_volume 593.515542
_symmetry_space_group_name_H-M "P -1"
_symmetry_group_IT_number 2
_symmetry_cell_setting 'triclinic'
loop_
_space_group_symop_operation_xyz
x,y,z
-x,-y,-z
loop_
_atom_site_type_symbol
_atom_site_label
_atom_site_fract_x
_atom_site_fract_y
_atom_site_fract_z
Si Si1 0.366275 0.116977 0.010127
Si Si2 0.902235 0.588454 0.414030
Si Si3 0.907760 0.425652 0.828324
Si Si4 0.672538 0.414921 0.727750
Si Si5 0.348473 0.711956 0.568442
Si Si6 0.752631 0.932487 0.605536
O O1 0.517923 0.263811 0.868769
O O2 0.914170 0.472255 0.631814
O O3 0.245212 0.355532 0.101641
O O4 0.500000 0.000000 0.000000
O O5 0.667772 0.208520 0.664325
O O6 0.750514 0.329747 0.457384
O O7 0.768085 0.785169 0.523333
O O8 0.032664 0.712854 0.276279
O O9 0.136977 0.614244 0.728139
O O10 0.796191 0.160851 0.930142
O O11 0.630804 0.701315 0.722632
O O12 0.500000 0.500000 0.500000
O O13 0.500000 0.000000 0.500000
O O14 0.000000 0.000000 0.500000
#
# Coordination Sequence:
#
# PCOD9001868 Si02
#       6
#     2   2   2   2   2   2
#     4  12  21  36  52  82 117 154 179 218 268 346
#     4   9  21  35  56  80 117 138 185 229 279 316
#     4  10  23  33  57  79 114 143 182 225 287 317
#     4  11  22  33  56  81 116 154 183 202 277 341
#     4  10  21  36  56  83 107 139 187 236 289 321
#     4  10  21  36  52  80 113 153 181 223 262 334
#
# _framework density 20.218512
#
# number of rings (size 3 to 8) (size 9 to 14) (size 15 to 20)
#    1.000    0.667    1.667    4.500    2.333    5.333 
#    0.000    0.000    0.000    0.000    0.000   23.333 
#    0.000    0.000    0.000    0.000    0.000    0.000 
#
# Total GULP energy -66861.047596 kJ/mol
# GULP energy per Si atom -5571.753966 kJ/mol
# Density = 2.017249 g / cm^3
# Si number density = 20.218512 Si / 1000 Ang^3
#
#
#
# Elastic Constant Matrix: (Units=GPa)
#
#
# Indices 1 2 3 4 5 6 
#
# 1 41.5389 36.8930 33.5564 -6.1674 -3.9301 19.4826
# 2 36.8930 142.8636 47.3061 -26.1671 -7.2219 10.2828
# 3 33.5564 47.3061 109.4999 -18.5419 -0.6842 3.0209
# 4 -6.1674 -26.1671 -18.5419 36.7009 3.1103 -2.9671
# 5 -3.9301 -7.2219 -0.6842 3.1103 26.0361 -1.7639
# 6 19.4826 10.2828 3.0209 -2.9671 -1.7639 37.0947
#
#
#
# Elastic Compliance Matrix: (Units=1/GPa)
#
#
# Indices 1 2 3 4 5 6 
#
# 1 0.053329 -0.008588 -0.012950 -0.006084 0.004370 -0.024853
# 2 -0.008588 0.010470 -0.000996 0.005606 0.001060 0.002188
# 3 -0.012950 -0.000996 0.014186 0.004956 -0.002029 0.006222
# 4 -0.006084 0.005606 0.004956 0.033280 -0.002954 0.003759
# 5 0.004370 0.001060 -0.002029 -0.002954 0.039609 -0.000777
# 6 -0.024853 0.002188 0.006222 0.003759 -0.000777 0.039161
#
#
# Mechanical properties :
#
#
# Convention : Reuss Voigt Hill
#
# Bulk Modulus (GPa) = 30.37890 58.82371 44.60131
# Shear Modulus (GPa) = 20.31892 31.70946 26.01419
#
# Velocity S-wave (km/s) = 3.17356 3.96452 3.59088
# Velocity P-wave (km/s) = 5.33728 7.07910 6.26898
#
# Compressibility (1/GPa) = 0.03291758
#
# Stress axis : x y z
#
# Youngs Moduli (GPa) = 18.75140 95.50983 70.49202
#
# Poissons Ratio (x) = 0.82026 0.91286
# Poissons Ratio (y) = 0.16104 0.07021
# Poissons Ratio (z) = 0.24283 0.09512
#
# Static dielectric constant tensor:
#      x y z
#    x 1.745050 0.010910 0.022380 
#    y 0.010910 1.754840 -0.028780 
#    z 0.022380 -0.028780 1.778650 
# 
# From -- ./inp_files/596723.got.cif
#   From: 2010.05.17/outbox.cif.g08.bks.cpg/sg2_299_cif.got.tgz:596723.got - 2010.06.03 11:33:40.
