data_PCOD9001665
_publ_section_title
;
Structure prediction by ZEFSAII (Michael W. Deem and Ramdas Pophale) SiO2 
 PCOD9001665
Probable space group: P -1
;
_chemical_formula_sum "Si O2"
_cell_formula_units_Z 12
_cell_length_a 15.052050
_cell_length_b 12.115717
_cell_length_c 11.729073
_cell_angle_alpha 122.051356
_cell_angle_beta 28.355521
_cell_angle_gamma 138.883820
_cell_volume 605.133690
_symmetry_space_group_name_H-M "P -1"
_symmetry_group_IT_number 2
_symmetry_cell_setting 'triclinic'
loop_
_space_group_symop_operation_xyz
x,y,z
-x,-y,-z
loop_
_atom_site_type_symbol
_atom_site_label
_atom_site_fract_x
_atom_site_fract_y
_atom_site_fract_z
Si Si1 0.640221 0.071454 0.756283
Si Si2 0.570966 0.296832 0.311414
Si Si3 0.156064 0.476683 0.394372
Si Si4 0.648631 0.808812 0.905628
Si Si5 0.818356 0.783052 0.457107
Si Si6 0.868542 0.507353 0.305323
O O1 0.957008 0.254195 0.504822
O O2 0.564306 0.906367 0.681890
O O3 0.509608 0.133445 0.882435
O O4 0.500000 0.000000 0.000000
O O5 0.387904 0.312884 0.466039
O O6 0.627408 0.343508 0.406534
O O7 0.864573 0.436879 0.000515
O O8 0.175961 0.533540 0.533358
O O9 0.000000 0.500000 0.500000
O O10 0.454341 0.615748 0.085806
O O11 0.681263 0.771977 0.720035
O O12 0.938793 0.998194 0.722162
O O13 0.909770 0.681614 0.325958
#
# Coordination Sequence:
#
# PCOD9001665 Si02
#       6
#     2   2   2   2   2   2
#     4  11  17  38  64  88 114 157 201 243 293 348
#     4  11  22  38  64  88 120 156 200 243 292 356
#     4  10  21  38  62  89 121 153 200 247 293 347
#     4  10  21  35  60  92 117 149 203 252 286 343
#     4  11  21  39  63  89 117 157 201 242 294 353
#     4  11  23  40  62  88 120 159 198 241 299 353
#
# _framework density 19.830328999999999
#
# number of rings (size 3 to 8) (size 9 to 14) (size 15 to 20)
#    0.000    1.333    5.000    1.500    2.333    0.667 
#    0.000    4.167    3.667    0.000    0.000    0.000 
#    0.000    0.000    0.000    0.000    0.000    0.000 
#
# Total GULP energy -66965.610146 kJ/mol
# GULP energy per Si atom -5580.467512 kJ/mol
# Density = 1.978519 g / cm^3
# Si number density = 19.830329 Si / 1000 Ang^3
#
#
#
# Elastic Constant Matrix: (Units=GPa)
#
#
# Indices 1 2 3 4 5 6 
#
# 1 138.9732 41.4681 46.8732 -15.3321 -3.8381 22.0612
# 2 41.4681 92.9085 24.1098 -20.7534 12.3786 15.4934
# 3 46.8732 24.1098 101.7137 -36.1259 10.3897 8.1832
# 4 -15.3321 -20.7534 -36.1259 31.8808 -7.8717 -8.3949
# 5 -3.8381 12.3786 10.3897 -7.8717 21.7401 2.5986
# 6 22.0612 15.4934 8.1832 -8.3949 2.5986 44.3655
#
#
#
# Elastic Compliance Matrix: (Units=1/GPa)
#
#
# Indices 1 2 3 4 5 6 
#
# 1 0.010716 -0.004295 -0.005393 -0.003224 0.006202 -0.003807
# 2 -0.004295 0.015155 0.002079 0.007923 -0.007319 -0.001612
# 3 -0.005393 0.002079 0.019209 0.020109 -0.004330 0.002471
# 4 -0.003224 0.007923 0.020109 0.061063 0.006667 0.006291
# 5 0.006202 -0.007319 -0.004330 0.006667 0.055952 -0.001745
# 6 -0.003807 -0.001612 0.002471 0.006291 -0.001745 0.025833
#
#
# Mechanical properties :
#
#
# Convention : Reuss Voigt Hill
#
# Bulk Modulus (GPa) = 33.48748 62.05530 47.77139
# Shear Modulus (GPa) = 23.46302 34.34024 28.90163
#
# Velocity S-wave (km/s) = 3.44348 4.16589 3.82179
# Velocity P-wave (km/s) = 5.72134 7.38245 6.60433
#
# Compressibility (1/GPa) = 0.02986191
#
# Stress axis : x y z
#
# Youngs Moduli (GPa) = 93.31744 65.98557 52.05770
#
# Poissons Ratio (x) = 0.28342 0.28073
# Poissons Ratio (y) = 0.40082 -0.10821
# Poissons Ratio (z) = 0.50323 -0.13716
#
# Static dielectric constant tensor:
#      x y z
#    x 1.749380 -0.029840 -0.040310 
#    y -0.029840 1.730770 -0.019710 
#    z -0.040310 -0.019710 1.717510 
# 
# From -- ./inp_files/152213.got.cif
#   From: 2010.05.17/outbox.cif.g08.bks.cpg/sg2_77_cif.got.tgz:152213.got - 2010.06.03 11:33:40.
