data_PCOD9001756
_publ_section_title
;
Structure prediction by ZEFSAII (Michael W. Deem and Ramdas Pophale) SiO2 
 PCOD9001756
Probable space group: P -1
;
_chemical_formula_sum "Si O2"
_cell_formula_units_Z 16
_cell_length_a 6.793213
_cell_length_b 18.083589
_cell_length_c 7.637636
_cell_angle_alpha 114.809314
_cell_angle_beta 118.423752
_cell_angle_gamma 56.401520
_cell_volume 671.486025
_symmetry_space_group_name_H-M "P -1"
_symmetry_group_IT_number 2
_symmetry_cell_setting 'triclinic'
loop_
_space_group_symop_operation_xyz
x,y,z
-x,-y,-z
loop_
_atom_site_type_symbol
_atom_site_label
_atom_site_fract_x
_atom_site_fract_y
_atom_site_fract_z
Si Si1 0.581994 0.725754 0.133950
Si Si2 0.720050 0.529773 0.962188
Si Si3 0.209430 0.875268 0.374873
Si Si4 0.882815 0.650926 0.537377
Si Si5 0.345787 0.471802 0.649479
Si Si6 0.712557 0.843867 0.746597
Si Si7 0.288848 0.130917 0.834259
Si Si8 0.814901 0.988193 0.770362
O O1 0.561562 0.637543 0.967420
O O2 0.334992 0.800429 0.197894
O O3 0.784221 0.686878 0.337817
O O4 0.677753 0.778099 0.092800
O O5 0.712183 0.515562 0.153233
O O6 0.610362 0.471828 0.751819
O O7 0.000000 0.500000 0.000000
O O8 0.437234 0.858939 0.584921
O O9 0.975843 0.861809 0.330666
O O10 0.130408 0.972836 0.346714
O O11 0.686429 0.616979 0.501691
O O12 0.880307 0.736131 0.721216
O O13 0.138919 0.560652 0.559483
O O14 0.826419 0.889322 0.701185
O O15 0.696590 0.888286 0.971951
O O16 0.525150 0.053488 0.759944
O O17 0.000000 0.000000 0.000000
#
# Coordination Sequence:
#
# PCOD9001756 Si02
#       8
#     2   2   2   2   2   2   2   2
#     4   9  22  41  58  94 126 160 204 258 308 367
#     4  10  21  35  62  91 121 163 206 249 312 363
#     4  10  23  44  64  90 129 166 206 258 309 369
#     4   9  20  41  63  88 122 163 206 254 312 363
#     4   9  20  40  62  84 124 163 202 257 305 364
#     4  11  23  40  68  93 121 168 209 254 315 368
#     4  11  24  42  65  93 130 161 207 261 306 371
#     4  11  23  44  65  92 131 163 206 259 309 370
#
# _framework density 23.827750000000002
#
# number of rings (size 3 to 8) (size 9 to 14) (size 15 to 20)
#    0.000    2.000    1.250    0.750    3.500    3.500 
#    9.000    5.625    0.000    0.000    0.000    0.000 
#    0.000    0.000    0.000    0.000    0.000    0.000 
#
# Total GULP energy -89527.668787 kJ/mol
# GULP energy per Si atom -5595.479299 kJ/mol
# Density = 2.377352 g / cm^3
# Si number density = 23.827750 Si / 1000 Ang^3
#
#
#
# Elastic Constant Matrix: (Units=GPa)
#
#
# Indices 1 2 3 4 5 6 
#
# 1 122.1340 25.0222 24.7790 -4.2643 19.3500 6.8456
# 2 25.0222 102.7503 7.6147 1.5247 -2.9687 22.9272
# 3 24.7790 7.6147 43.8388 0.3534 13.6876 1.3835
# 4 -4.2643 1.5247 0.3534 28.5192 -2.1354 -0.6950
# 5 19.3500 -2.9687 13.6876 -2.1354 38.7704 -6.2371
# 6 6.8456 22.9272 1.3835 -0.6950 -6.2371 20.1979
#
#
#
# Elastic Compliance Matrix: (Units=1/GPa)
#
#
# Indices 1 2 3 4 5 6 
#
# 1 0.010218 -0.001793 -0.004123 0.001311 -0.004089 -0.002363
# 2 -0.001793 0.013553 -0.000781 -0.001364 -0.000255 -0.014849
# 3 -0.004123 -0.000781 0.027960 -0.001600 -0.008324 -0.002257
# 4 0.001311 -0.001364 -0.001600 0.035599 0.002272 0.003140
# 5 -0.004089 -0.000255 -0.008324 0.002272 0.032886 0.012479
# 6 -0.002363 -0.014849 -0.002257 0.003140 0.012479 0.071283
#
#
# Mechanical properties :
#
#
# Convention : Reuss Voigt Hill
#
# Bulk Modulus (GPa) = 26.08508 42.61720 34.35114
# Shear Modulus (GPa) = 22.97028 31.58466 27.27747
#
# Velocity S-wave (km/s) = 3.10823 3.64475 3.38713
# Velocity P-wave (km/s) = 4.88391 5.96964 5.45386
#
# Compressibility (1/GPa) = 0.03833609
#
# Stress axis : x y z
#
# Youngs Moduli (GPa) = 97.86982 73.78392 35.76509
#
# Poissons Ratio (x) = 0.13230 0.14746
# Poissons Ratio (y) = 0.17548 0.02794
# Poissons Ratio (z) = 0.40353 0.05764
#
# Static dielectric constant tensor:
#      x y z
#    x 1.911120 0.012780 -0.020140 
#    y 0.012780 1.948650 0.034800 
#    z -0.020140 0.034800 1.950630 
# 
# From -- ./inp_files/46554.got.cif
#   From: 2010.05.17/outbox.cif.g08.bks.cpg/sg2_24_cif.got.tgz:46554.got - 2010.06.03 11:33:40.
