data_PCOD9001515
_publ_section_title
;
Structure prediction by ZEFSAII (Michael W. Deem and Ramdas Pophale) SiO2 
 PCOD9001515
Probable space group: P -1
;
_chemical_formula_sum "Si O2"
_cell_formula_units_Z 16
_cell_length_a 10.489458
_cell_length_b 22.397724
_cell_length_c 18.681626
_cell_angle_alpha 16.151327
_cell_angle_beta 131.111983
_cell_angle_gamma 138.850357
_cell_volume 749.803215
_symmetry_space_group_name_H-M "P -1"
_symmetry_group_IT_number 2
_symmetry_cell_setting 'triclinic'
loop_
_space_group_symop_operation_xyz
x,y,z
-x,-y,-z
loop_
_atom_site_type_symbol
_atom_site_label
_atom_site_fract_x
_atom_site_fract_y
_atom_site_fract_z
Si Si1 0.387416 0.073356 0.452122
Si Si2 0.101531 0.515695 0.285338
Si Si3 0.115627 0.118131 0.832367
Si Si4 0.565557 0.311793 0.003224
Si Si5 0.325391 0.422026 0.125085
Si Si6 0.477375 0.554442 0.312937
Si Si7 0.283028 0.967799 0.942979
Si Si8 0.970811 0.448728 0.156608
O O1 0.317050 0.190127 0.351249
O O2 0.489280 0.946326 0.677506
O O3 0.195116 0.842088 0.601123
O O4 0.540952 0.317453 0.175897
O O5 0.020127 0.239405 0.610793
O O6 0.330118 0.622004 0.217323
O O7 0.135565 0.724173 0.116512
O O8 0.974542 0.471259 0.217983
O O9 0.339671 0.364083 0.659225
O O10 0.165021 0.951069 0.991975
O O11 0.000000 0.000000 0.000000
O O12 0.571579 0.500147 0.848599
O O13 0.445522 0.297703 0.904668
O O14 0.800757 0.444040 0.909399
O O15 0.104931 0.378236 0.100453
O O16 0.344629 0.240538 0.615562
O O17 0.500000 0.000000 0.000000
#
# Coordination Sequence:
#
# PCOD9001515 Si02
#       8
#     2   2   2   2   2   2   2   2
#     4  10  21  38  57  79 118 159 185 234 292 346
#     4  10  21  39  60  85 112 157 196 235 296 348
#     4  11  23  37  58  91 121 151 191 244 294 347
#     4  10  21  35  57  86 113 147 193 241 284 334
#     4  10  21  37  57  81 113 157 194 225 292 348
#     4  10  21  38  59  85 115 154 193 239 296 348
#     4  11  19  40  67  79 116 159 196 237 288 352
#     4  10  21  35  59  85 113 145 194 244 282 333
#
# _framework density 21.338932
#
# number of rings (size 3 to 8) (size 9 to 14) (size 15 to 20)
#    0.000    1.750    2.500    3.750    0.000    9.500 
#    0.000    1.250    0.000    0.000    0.000    0.000 
#    0.000    0.000    0.000    0.000    0.000    0.000 
#
# Total GULP energy -89337.228864 kJ/mol
# GULP energy per Si atom -5583.576804 kJ/mol
# Density = 2.129036 g / cm^3
# Si number density = 21.338932 Si / 1000 Ang^3
#
#
#
# Elastic Constant Matrix: (Units=GPa)
#
#
# Indices 1 2 3 4 5 6 
#
# 1 86.5050 25.8645 38.7083 -17.3844 9.6479 -40.6125
# 2 25.8645 96.3912 26.1304 8.0277 7.7004 -38.8519
# 3 38.7083 26.1304 58.0923 -10.2838 9.6674 -23.3290
# 4 -17.3844 8.0277 -10.2838 26.6693 -13.8157 -0.1845
# 5 9.6479 7.7004 9.6674 -13.8157 40.2206 -6.4254
# 6 -40.6125 -38.8519 -23.3290 -0.1845 -6.4254 42.3287
#
#
#
# Elastic Compliance Matrix: (Units=1/GPa)
#
#
# Indices 1 2 3 4 5 6 
#
# 1 0.031382 0.003922 -0.008057 0.018957 0.004979 0.030107
# 2 0.003922 0.018374 -0.004327 -0.005857 -0.002583 0.017826
# 3 -0.008057 -0.004327 0.026972 0.005829 -0.001240 0.003001
# 4 0.018957 -0.005857 0.005829 0.064600 0.020464 0.019413
# 5 0.004979 -0.002583 -0.001240 0.020464 0.032570 0.006756
# 6 0.030107 0.017826 0.003001 0.019413 0.006756 0.071637
#
#
# Mechanical properties :
#
#
# Convention : Reuss Voigt Hill
#
# Bulk Modulus (GPa) = 16.72094 46.93278 31.82686
# Shear Modulus (GPa) = 17.70591 31.86273 24.78432
#
# Velocity S-wave (km/s) = 2.88366 3.86835 3.41172
# Velocity P-wave (km/s) = 4.35203 6.48027 5.51970
#
# Compressibility (1/GPa) = 0.05980524
#
# Stress axis : x y z
#
# Youngs Moduli (GPa) = 31.86582 54.42497 37.07537
#
# Poissons Ratio (x) = -0.21347 0.29870
# Poissons Ratio (y) = -0.12498 0.16041
# Poissons Ratio (z) = 0.25673 0.23548
#
# Static dielectric constant tensor:
#      x y z
#    x 1.818060 -0.002300 -0.030130 
#    y -0.002300 1.761120 0.004900 
#    z -0.030130 0.004900 1.773410 
# 
# From -- ./inp_files/570552.got.cif
#   From: 2010.05.17/outbox.cif.g08.bks.cpg/sg2_286_cif.got.tgz:570552.got - 2010.06.03 11:33:40.
