data_PCOD9001593
_publ_section_title
;
Structure prediction by ZEFSAII (Michael W. Deem and Ramdas Pophale) SiO2 
 PCOD9001593
Probable space group: P -1
;
_chemical_formula_sum "Si O2"
_cell_formula_units_Z 12
_cell_length_a 8.617116
_cell_length_b 10.290298
_cell_length_c 22.632453
_cell_angle_alpha 145.152785
_cell_angle_beta 33.963437
_cell_angle_gamma 134.370880
_cell_volume 639.533750
_symmetry_space_group_name_H-M "P -1"
_symmetry_group_IT_number 2
_symmetry_cell_setting 'triclinic'
loop_
_space_group_symop_operation_xyz
x,y,z
-x,-y,-z
loop_
_atom_site_type_symbol
_atom_site_label
_atom_site_fract_x
_atom_site_fract_y
_atom_site_fract_z
Si Si1 0.241930 0.638204 0.151414
Si Si2 0.797948 0.400422 0.622264
Si Si3 0.365800 0.438701 0.680035
Si Si4 0.076822 0.988661 0.650270
Si Si5 0.700135 0.094891 0.644958
Si Si6 0.702709 0.278961 0.409581
O O1 0.282726 0.758335 0.246711
O O2 0.948335 0.484774 0.189052
O O3 0.183971 0.852243 0.206667
O O4 0.500000 0.500000 0.000000
O O5 0.590303 0.525846 0.690509
O O6 0.636818 0.258341 0.670967
O O7 0.946679 0.221501 0.466117
O O8 0.039665 0.562388 0.635247
O O9 0.499601 0.428543 0.569370
O O10 0.304616 0.172357 0.618965
O O11 0.163276 0.887363 0.646898
O O12 0.479262 0.879863 0.636159
O O13 0.000000 0.000000 0.500000
#
# Coordination Sequence:
#
# PCOD9001593 Si02
#       6
#     2   2   2   2   2   2
#     4  10  21  35  59  79 110 157 177 212 289 326
#     4  11  19  32  59  86 108 142 179 232 280 309
#     4   9  16  34  55  78 114 137 183 221 263 320
#     4   9  16  34  55  78 114 137 183 221 263 320
#     4  12  19  37  53  85 118 130 185 240 256 329
#     4  11  19  32  59  86 108 142 179 232 280 309
#
# _framework density 18.763670000000001
#
# number of rings (size 3 to 8) (size 9 to 14) (size 15 to 20)
#    1.000    0.667    6.667    3.000    0.000    0.667 
#    0.000    3.333    0.000   11.000    0.000    0.000 
#    0.000    0.000    0.000    0.000    0.000    0.000 
#
# Total GULP energy -66831.545663 kJ/mol
# GULP energy per Si atom -5569.295472 kJ/mol
# Density = 1.872096 g / cm^3
# Si number density = 18.763670 Si / 1000 Ang^3
#
#
#
# Elastic Constant Matrix: (Units=GPa)
#
#
# Indices 1 2 3 4 5 6 
#
# 1 56.3274 8.5017 36.5972 0.4659 -5.8256 18.4463
# 2 8.5017 76.0242 4.1818 -6.0126 0.1754 31.9324
# 3 36.5972 4.1818 112.7279 -9.2903 -20.5262 14.4148
# 4 0.4659 -6.0126 -9.2903 12.0634 5.1527 -3.2278
# 5 -5.8256 0.1754 -20.5262 5.1527 22.7846 -1.3138
# 6 18.4463 31.9324 14.4148 -3.2278 -1.3138 34.5177
#
#
#
# Elastic Compliance Matrix: (Units=1/GPa)
#
#
# Indices 1 2 3 4 5 6 
#
# 1 0.027459 0.002838 -0.007664 -0.010219 0.001541 -0.014996
# 2 0.002838 0.022802 0.001519 0.006756 -0.000915 -0.022648
# 3 -0.007664 0.001519 0.013742 0.007414 0.008615 -0.002027
# 4 -0.010219 0.006756 0.007414 0.101666 -0.018694 0.004911
# 5 0.001541 -0.000915 0.008615 -0.018694 0.056095 -0.003188
# 6 -0.014996 -0.022648 -0.002027 0.004911 -0.003188 0.059121
#
#
# Mechanical properties :
#
#
# Convention : Reuss Voigt Hill
#
# Bulk Modulus (GPa) = 17.42498 38.18234 27.80366
# Shear Modulus (GPa) = 16.30635 26.92638 21.61637
#
# Velocity S-wave (km/s) = 2.95114 3.79229 3.39784
# Velocity P-wave (km/s) = 4.57373 6.29035 5.49943
#
# Compressibility (1/GPa) = 0.05738888
#
# Stress axis : x y z
#
# Youngs Moduli (GPa) = 36.41741 43.85543 72.77214
#
# Poissons Ratio (x) = -0.12445 0.55773
# Poissons Ratio (y) = -0.10335 -0.11055
# Poissons Ratio (z) = 0.27910 -0.06662
#
# Static dielectric constant tensor:
#      x y z
#    x 1.731720 0.016550 -0.048770 
#    y 0.016550 1.704730 -0.011690 
#    z -0.048770 -0.011690 1.612850 
# 
# From -- ./inp_files/183548.got.cif
#   From: 2010.05.17/outbox.cif.g08.bks.cpg/sg2_92_cif.got.tgz:183548.got - 2010.06.03 11:33:40.
