data_PCOD9001267
_publ_section_title
;
Structure prediction by ZEFSAII (Michael W. Deem and Ramdas Pophale) SiO2 
 PCOD9001267
Probable space group: P -1
;
_chemical_formula_sum "Si O2"
_cell_formula_units_Z 16
_cell_length_a 8.210672
_cell_length_b 30.747990
_cell_length_c 15.873558
_cell_angle_alpha 17.574583
_cell_angle_beta 130.382777
_cell_angle_gamma 137.639743
_cell_volume 783.194309
_symmetry_space_group_name_H-M "P -1"
_symmetry_group_IT_number 2
_symmetry_cell_setting 'triclinic'
loop_
_space_group_symop_operation_xyz
x,y,z
-x,-y,-z
loop_
_atom_site_type_symbol
_atom_site_label
_atom_site_fract_x
_atom_site_fract_y
_atom_site_fract_z
Si Si1 0.742382 0.944520 0.972284
Si Si2 0.180891 0.729431 0.921403
Si Si3 0.403845 0.874314 0.279594
Si Si4 0.088955 0.359551 0.554816
Si Si5 0.274302 0.987608 0.355034
Si Si6 0.416816 0.605564 0.425715
Si Si7 0.104359 0.939825 0.823967
Si Si8 0.018146 0.724251 0.041009
O O1 0.770695 0.989124 0.800369
O O2 0.636165 0.038524 0.814630
O O3 0.562768 0.742838 0.294008
O O4 0.000000 0.000000 0.000000
O O5 0.436315 0.881474 0.768120
O O6 0.185431 0.797833 0.703435
O O7 0.158113 0.549327 0.245139
O O8 0.978551 0.724830 0.926802
O O9 0.132326 0.718599 0.446480
O O10 0.660184 0.890452 0.368393
O O11 0.500000 0.000000 0.000000
O O12 0.350110 0.369138 0.600339
O O13 0.961705 0.229100 0.831462
O O14 0.130408 0.043056 0.267334
O O15 0.212900 0.656868 0.236498
O O16 0.245424 0.413546 0.751279
O O17 0.125200 0.893156 0.820911
#
# Coordination Sequence:
#
# PCOD9001267 Si02
#       8
#     2   2   2   2   2   2   2   2
#     4  12  20  40  65  90 121 159 210 254 299 358
#     4  11  24  42  60  89 131 163 200 245 317 368
#     4  10  21  34  59  93 121 154 198 257 304 350
#     4  11  21  38  61  91 123 162 205 256 300 364
#     4  11  24  42  64  89 123 168 201 250 306 374
#     4  11  20  34  60  97 117 154 206 257 305 344
#     4  11  20  37  62  91 123 156 213 254 301 352
#     4  11  22  34  59  94 125 157 197 267 302 356
#
# _framework density 20.429157
#
# number of rings (size 3 to 8) (size 9 to 14) (size 15 to 20)
#    0.000    1.000    5.000    3.000    1.750    2.000 
#    0.000    2.500    0.000    0.000    0.000    0.000 
#    0.000    0.000    0.000    0.000    0.000    0.000 
#
# Total GULP energy -89095.177423 kJ/mol
# GULP energy per Si atom -5568.448589 kJ/mol
# Density = 2.038266 g / cm^3
# Si number density = 20.429157 Si / 1000 Ang^3
#
#
#
# Elastic Constant Matrix: (Units=GPa)
#
#
# Indices 1 2 3 4 5 6 
#
# 1 82.4020 14.8060 11.9801 -2.3148 -8.3996 -12.8880
# 2 14.8060 83.3829 22.4156 -14.9383 -14.6269 -8.4682
# 3 11.9801 22.4156 47.3667 -6.7212 3.0028 -2.0531
# 4 -2.3148 -14.9383 -6.7212 25.3506 0.5797 -1.8803
# 5 -8.3996 -14.6269 3.0028 0.5797 19.9288 -11.7074
# 6 -12.8880 -8.4682 -2.0531 -1.8803 -11.7074 30.5057
#
#
#
# Elastic Compliance Matrix: (Units=1/GPa)
#
#
# Indices 1 2 3 4 5 6 
#
# 1 0.017108 0.004799 -0.006763 0.003333 0.021350 0.016504
# 2 0.004799 0.025377 -0.012660 0.012903 0.035474 0.022629
# 3 -0.006763 -0.012660 0.029685 -0.000673 -0.024775 -0.013923
# 4 0.003333 0.012903 -0.000673 0.047864 0.018361 0.014941
# 5 0.021350 0.035474 -0.024775 0.018361 0.128051 0.067474
# 6 0.016504 0.022629 -0.013923 0.014941 0.067474 0.071914
#
#
# Mechanical properties :
#
#
# Convention : Reuss Voigt Hill
#
# Bulk Modulus (GPa) = 23.29883 34.61722 28.95802
# Shear Modulus (GPa) = 13.75312 26.08701 19.92007
#
# Velocity S-wave (km/s) = 2.59744 3.57732 3.12601
# Velocity P-wave (km/s) = 4.51941 5.83479 5.21871
#
# Compressibility (1/GPa) = 0.04292062
#
# Stress axis : x y z
#
# Youngs Moduli (GPa) = 58.45291 39.40646 33.68693
#
# Poissons Ratio (x) = -0.18910 0.22783
# Poissons Ratio (y) = -0.28049 0.42647
# Poissons Ratio (z) = 0.39532 0.49888
#
# Static dielectric constant tensor:
#      x y z
#    x 1.944470 0.121990 -0.075130 
#    y 0.121990 1.850800 0.007270 
#    z -0.075130 0.007270 1.785450 
# 
# From -- ./inp_files/390065.got.cif
#   From: 2010.05.17/outbox.cif.g08.bks.cpg/sg2_196_cif.got.tgz:390065.got - 2010.06.03 11:33:40.
