data_PCOD9001750
_publ_section_title
;
Structure prediction by ZEFSAII (Michael W. Deem and Ramdas Pophale) SiO2 
 PCOD9001750
Probable space group: P -1
;
_chemical_formula_sum "Si O2"
_cell_formula_units_Z 16
_cell_length_a 12.589123
_cell_length_b 7.976407
_cell_length_c 10.769828
_cell_angle_alpha 48.332620
_cell_angle_beta 132.130493
_cell_angle_gamma 107.548983
_cell_volume 578.409469
_symmetry_space_group_name_H-M "P -1"
_symmetry_group_IT_number 2
_symmetry_cell_setting 'triclinic'
loop_
_space_group_symop_operation_xyz
x,y,z
-x,-y,-z
loop_
_atom_site_type_symbol
_atom_site_label
_atom_site_fract_x
_atom_site_fract_y
_atom_site_fract_z
Si Si1 0.444806 0.114599 0.104394
Si Si2 0.752620 0.622238 0.976684
Si Si3 0.893609 0.856529 0.630862
Si Si4 0.415991 0.708250 0.416127
Si Si5 0.772563 0.111688 0.633724
Si Si6 0.810538 0.385976 0.889487
Si Si7 0.056115 0.534159 0.389306
Si Si8 0.277793 0.069154 0.763105
O O1 0.490671 0.912018 0.341923
O O2 0.582429 0.077062 0.136067
O O3 0.356880 0.332976 0.011432
O O4 0.327323 0.031396 0.962446
O O5 0.718174 0.485860 0.894515
O O6 0.766411 0.874103 0.814889
O O7 0.921798 0.505828 0.210647
O O8 0.848580 0.613652 0.746561
O O9 0.860761 0.950889 0.419206
O O10 0.784889 0.057257 0.526495
O O11 0.050247 0.799598 0.851071
O O12 0.500000 0.500000 0.500000
O O13 0.381010 0.710376 0.531703
O O14 0.255262 0.732508 0.214978
O O15 0.910769 0.216928 0.718292
O O16 0.216442 0.352173 0.581831
O O17 0.000000 0.500000 0.500000
#
# Coordination Sequence:
#
# PCOD9001750 Si02
#       8
#     2   2   2   2   2   2   2   2
#     4  10  23  40  63  90 120 171 200 249 302 376
#     4  10  21  40  60  93 121 158 207 255 304 353
#     4  10  21  37  59  92 120 160 198 254 310 351
#     4  11  23  41  64  90 122 160 209 250 308 362
#     4  10  24  37  63  89 123 158 205 257 301 360
#     4  10  21  35  62  90 120 154 205 257 302 357
#     4  12  22  38  62  90 124 165 204 246 309 367
#     4  11  22  42  61  86 132 161 206 244 312 366
#
# _framework density 27.662064000000001
#
# number of rings (size 3 to 8) (size 9 to 14) (size 15 to 20)
#    0.000    1.500    2.500    2.625    7.000    1.000 
#    2.250    5.000    0.000    3.750    0.000    0.000 
#    0.000    0.000    0.000    0.000    0.000    0.000 
#
# Total GULP energy -89233.558831 kJ/mol
# GULP energy per Si atom -5577.097427 kJ/mol
# Density = 2.759910 g / cm^3
# Si number density = 27.662064 Si / 1000 Ang^3
#
#
#
# Elastic Constant Matrix: (Units=GPa)
#
#
# Indices 1 2 3 4 5 6 
#
# 1 97.7084 42.5433 32.1527 -11.0857 2.2110 -31.4071
# 2 42.5433 76.6203 0.5947 7.0784 3.4927 -26.1554
# 3 32.1527 0.5947 59.9670 6.9504 8.3944 -2.7345
# 4 -11.0857 7.0784 6.9504 37.8273 -9.2980 5.9430
# 5 2.2110 3.4927 8.3944 -9.2980 33.8193 -0.8128
# 6 -31.4071 -26.1554 -2.7345 5.9430 -0.8128 48.8881
#
#
#
# Elastic Compliance Matrix: (Units=1/GPa)
#
#
# Indices 1 2 3 4 5 6 
#
# 1 0.023932 -0.012490 -0.014896 0.012826 0.007103 0.006418
# 2 -0.012490 0.023643 0.009230 -0.012584 -0.007219 0.006551
# 3 -0.014896 0.009230 0.027540 -0.013494 -0.010564 -0.001626
# 4 0.012826 -0.012584 -0.013494 0.039184 0.014493 -0.003770
# 5 0.007103 -0.007219 -0.010564 0.014493 0.036432 -0.001046
# 6 0.006418 0.006551 -0.001626 -0.003770 -0.001046 0.028433
#
#
# Mechanical properties :
#
#
# Convention : Reuss Voigt Hill
#
# Bulk Modulus (GPa) = 25.77160 42.76413 34.26786
# Shear Modulus (GPa) = 21.89048 34.70727 28.29887
#
# Velocity S-wave (km/s) = 2.81615 3.54600 3.20194
# Velocity P-wave (km/s) = 4.46219 5.67966 5.10733
#
# Compressibility (1/GPa) = 0.03880241
#
# Stress axis : x y z
#
# Youngs Moduli (GPa) = 41.78450 42.29606 36.31091
#
# Poissons Ratio (x) = 0.52830 0.54089
# Poissons Ratio (y) = 0.52191 -0.33516
# Poissons Ratio (z) = 0.62243 -0.39041
#
# Static dielectric constant tensor:
#      x y z
#    x 2.347910 -0.015560 0.101240 
#    y -0.015560 2.277170 0.036970 
#    z 0.101240 0.036970 2.261020 
# 
# From -- ./inp_files/446818.got.cif
#   From: 2010.05.17/outbox.cif.g08.bks.cpg/sg2_224_cif.got.tgz:446818.got - 2010.06.03 11:33:40.
