data_PCOD9001637
_publ_section_title
;
Structure prediction by ZEFSAII (Michael W. Deem and Ramdas Pophale) SiO2 
 PCOD9001637
Probable space group: P -1
;
_chemical_formula_sum "Si O2"
_cell_formula_units_Z 16
_cell_length_a 5.812461
_cell_length_b 14.915325
_cell_length_c 9.118849
_cell_angle_alpha 78.407239
_cell_angle_beta 54.555233
_cell_angle_gamma 84.360091
_cell_volume 630.743080
_symmetry_space_group_name_H-M "P -1"
_symmetry_group_IT_number 2
_symmetry_cell_setting 'triclinic'
loop_
_space_group_symop_operation_xyz
x,y,z
-x,-y,-z
loop_
_atom_site_type_symbol
_atom_site_label
_atom_site_fract_x
_atom_site_fract_y
_atom_site_fract_z
Si Si1 0.555207 0.917569 0.397359
Si Si2 0.903642 0.533225 0.809422
Si Si3 0.584640 0.045713 0.106326
Si Si4 0.097753 0.786417 0.947688
Si Si5 0.043988 0.151887 0.341153
Si Si6 0.344419 0.264930 0.400392
Si Si7 0.252035 0.361009 0.705118
Si Si8 0.453858 0.512514 0.761616
O O1 0.247642 0.882217 0.470586
O O2 0.675099 0.833612 0.471742
O O3 0.500000 0.000000 0.500000
O O4 0.709373 0.966283 0.188793
O O5 0.986108 0.428364 0.778741
O O6 0.703922 0.534064 0.024711
O O7 0.723938 0.560643 0.724151
O O8 0.206839 0.567113 0.750062
O O9 0.773895 0.138758 0.011025
O O10 0.296789 0.081360 0.277368
O O11 0.500000 0.000000 0.000000
O O12 0.994333 0.834809 0.822698
O O13 0.364245 0.731390 0.801763
O O14 0.852147 0.723910 0.129774
O O15 0.116205 0.247964 0.362136
O O16 0.313911 0.330339 0.528868
O O17 0.498478 0.426370 0.664185
#
# Coordination Sequence:
#
# PCOD9001637 Si02
#       8
#     2   2   2   2   2   2   2   2
#     4  11  20  38  54  70 102 146 194 237 297 345
#     4   8  16  33  59  91 122 156 195 237 289 352
#     4  11  24  35  53  78 102 142 196 250 290 352
#     4  10  23  40  51  84 114 145 193 243 298 350
#     4  10  21  38  54  70 107 146 186 242 300 346
#     4  10  23  38  55  82 109 150 192 240 296 353
#     4  10  21  35  60  86 118 153 193 241 295 354
#     4   8  16  33  59  91 122 155 197 236 287 357
#
# _framework density 25.366907000000001
#
# number of rings (size 3 to 8) (size 9 to 14) (size 15 to 20)
#    0.750    1.500    3.750    0.375    3.500    4.500 
#    0.000    0.000    0.000    3.000    0.000    7.000 
#    0.000    0.000    0.000    0.000    0.000    0.000 
#
# Total GULP energy -89300.893187 kJ/mol
# GULP energy per Si atom -5581.305824 kJ/mol
# Density = 2.530917 g / cm^3
# Si number density = 25.366907 Si / 1000 Ang^3
#
#
#
# Elastic Constant Matrix: (Units=GPa)
#
#
# Indices 1 2 3 4 5 6 
#
# 1 122.3583 36.9373 18.4356 10.3887 26.3515 28.8765
# 2 36.9373 70.3309 37.2647 17.0823 15.2259 46.5448
# 3 18.4356 37.2647 113.8834 16.3036 28.6028 18.5264
# 4 10.3887 17.0823 16.3036 56.4089 12.7896 10.9184
# 5 26.3515 15.2259 28.6028 12.7896 36.0117 8.5439
# 6 28.8765 46.5448 18.5264 10.9184 8.5439 46.5769
#
#
#
# Elastic Compliance Matrix: (Units=1/GPa)
#
#
# Indices 1 2 3 4 5 6 
#
# 1 0.011219 -0.003069 0.001524 0.000786 -0.007623 -0.003280
# 2 -0.003069 0.050580 -0.008086 -0.003615 -0.000896 -0.044414
# 3 0.001524 -0.008086 0.012786 -0.000288 -0.008628 0.003700
# 4 0.000786 -0.003615 -0.000288 0.020175 -0.005886 -0.000410
# 5 -0.007623 -0.000896 -0.008628 -0.005886 0.042022 0.002724
# 6 -0.003280 -0.044414 0.003700 -0.000410 0.002724 0.066012
#
#
# Mechanical properties :
#
#
# Convention : Reuss Voigt Hill
#
# Bulk Modulus (GPa) = 18.07586 54.64973 36.36279
# Shear Modulus (GPa) = 20.79027 42.06184 31.42606
#
# Velocity S-wave (km/s) = 2.86594 4.07644 3.52356
# Velocity P-wave (km/s) = 4.25355 6.61415 5.56056
#
# Compressibility (1/GPa) = 0.05532241
#
# Stress axis : x y z
#
# Youngs Moduli (GPa) = 89.13649 19.77072 78.20867
#
# Poissons Ratio (x) = 0.06068 -0.11918
# Poissons Ratio (y) = 0.27357 0.63240
# Poissons Ratio (z) = -0.13583 0.15987
#
# Static dielectric constant tensor:
#      x y z
#    x 2.080600 -0.038480 -0.006380 
#    y -0.038480 2.129870 -0.024090 
#    z -0.006380 -0.024090 1.975270 
# 
# From -- ./inp_files/136744.got.cif
#   From: 2010.05.17/outbox.cif.g08.bks.cpg/sg2_69_cif.got.tgz:136744.got - 2010.06.03 11:33:40.
