data_PCOD9001912
_publ_section_title
;
Structure prediction by ZEFSAII (Michael W. Deem and Ramdas Pophale) SiO2 
 PCOD9001912
Probable space group: P -1
;
_chemical_formula_sum "Si O2"
_cell_formula_units_Z 16
_cell_length_a 15.250832
_cell_length_b 4.874918
_cell_length_c 15.417994
_cell_angle_alpha 92.627395
_cell_angle_beta 41.439895
_cell_angle_gamma 89.123106
_cell_volume 755.704472
_symmetry_space_group_name_H-M "P -1"
_symmetry_group_IT_number 2
_symmetry_cell_setting 'triclinic'
loop_
_space_group_symop_operation_xyz
x,y,z
-x,-y,-z
loop_
_atom_site_type_symbol
_atom_site_label
_atom_site_fract_x
_atom_site_fract_y
_atom_site_fract_z
Si Si1 0.056782 0.770034 0.774122
Si Si2 0.645357 0.168073 0.948350
Si Si3 0.110473 0.722874 0.112808
Si Si4 0.514147 0.298437 0.879339
Si Si5 0.135815 0.663231 0.899498
Si Si6 0.414477 0.802330 0.370429
Si Si7 0.276915 0.310616 0.541293
Si Si8 0.605477 0.671372 0.369118
O O1 0.109173 0.831435 0.832881
O O2 0.160643 0.550151 0.648013
O O3 0.927963 0.590700 0.868681
O O4 0.014592 0.063129 0.768326
O O5 0.776954 0.235290 0.900957
O O6 0.636408 0.220947 0.852735
O O7 0.528771 0.379558 0.076763
O O8 0.605934 0.863776 0.994644
O O9 0.147357 0.797883 0.987201
O O10 0.535542 0.207817 0.764202
O O11 0.276574 0.495844 0.773613
O O12 0.000000 0.500000 0.000000
O O13 0.380786 0.496415 0.418477
O O14 0.525889 0.863363 0.360843
O O15 0.290008 0.027989 0.474131
O O16 0.317092 0.204056 0.606661
O O17 0.500000 0.500000 0.500000
#
# Coordination Sequence:
#
# PCOD9001912 Si02
#       8
#     2   2   2   2   2   2   2   2
#     4  10  21  36  54  79 112 147 184 227 277 331
#     4  10  21  37  57  83 112 141 179 232 290 341
#     4  11  20  35  57  80 107 146 187 228 277 337
#     4  10  21  37  57  83 112 141 179 232 290 341
#     4   9  19  34  53  81 114 149 188 230 277 335
#     4  11  20  35  57  80 107 146 187 228 277 337
#     4  10  21  36  54  79 112 147 184 227 277 331
#     4   9  19  34  53  81 114 149 188 230 277 335
#
# _framework density 21.172294999999998
#
# number of rings (size 3 to 8) (size 9 to 14) (size 15 to 20)
#    0.000    2.000    0.000    3.750    0.000    2.000 
#    0.000   10.000    0.000    4.500    0.000    0.000 
#    0.000    0.000    0.000    0.000    0.000    0.000 
#
# Total GULP energy -89177.813582 kJ/mol
# GULP energy per Si atom -5573.613349 kJ/mol
# Density = 2.112411 g / cm^3
# Si number density = 21.172295 Si / 1000 Ang^3
#
#
#
# Elastic Constant Matrix: (Units=GPa)
#
#
# Indices 1 2 3 4 5 6 
#
# 1 67.0183 7.3925 10.4288 0.8133 0.0233 -23.2236
# 2 7.3925 70.1240 11.8739 0.7778 9.4502 -2.9167
# 3 10.4288 11.8739 85.1631 16.3925 3.6282 -17.9801
# 4 0.8133 0.7778 16.3925 30.3871 5.1083 -4.0640
# 5 0.0233 9.4502 3.6282 5.1083 21.7489 -0.6614
# 6 -23.2236 -2.9167 -17.9801 -4.0640 -0.6614 24.1909
#
#
#
# Elastic Compliance Matrix: (Units=1/GPa)
#
#
# Indices 1 2 3 4 5 6 
#
# 1 0.022991 -0.001938 0.002173 0.001284 0.000874 0.023692
# 2 -0.001938 0.015709 -0.002354 0.001870 -0.006919 -0.001591
# 3 0.002173 -0.002354 0.015719 -0.006894 0.000393 0.012338
# 4 0.001284 0.001870 -0.006894 0.038329 -0.008589 0.002539
# 5 0.000874 -0.006919 0.000393 -0.008589 0.050944 0.000247
# 6 0.023692 -0.001591 0.012338 0.002539 0.000247 0.073495
#
#
# Mechanical properties :
#
#
# Convention : Reuss Voigt Hill
#
# Bulk Modulus (GPa) = 19.92822 31.29952 25.61387
# Shear Modulus (GPa) = 20.99491 28.10605 24.55048
#
# Velocity S-wave (km/s) = 3.15242 3.64743 3.40892
# Velocity P-wave (km/s) = 4.76268 5.70558 5.25532
#
# Compressibility (1/GPa) = 0.05018009
#
# Stress axis : x y z
#
# Youngs Moduli (GPa) = 43.49490 63.65852 63.61559
#
# Poissons Ratio (x) = 0.12338 -0.13821
# Poissons Ratio (y) = 0.08430 0.14975
# Poissons Ratio (z) = -0.09449 0.14985
#
# Static dielectric constant tensor:
#      x y z
#    x 1.792750 0.021830 -0.069030 
#    y 0.021830 1.782660 -0.036380 
#    z -0.069030 -0.036380 1.844340 
# 
# From -- ./inp_files/510959.got.cif
#   From: 2010.05.17/outbox.cif.g08.bks.cpg/sg2_256_cif.got.tgz:510959.got - 2010.06.03 11:33:40.
