data_PCOD9001007
_publ_section_title
;
Structure prediction by ZEFSAII (Michael W. Deem and Ramdas Pophale) SiO2 
 PCOD9001007
Probable space group: P -1
;
_chemical_formula_sum "Si O2"
_cell_formula_units_Z 16
_cell_length_a 11.539905
_cell_length_b 10.384745
_cell_length_c 9.960334
_cell_angle_alpha 76.748380
_cell_angle_beta 40.557448
_cell_angle_gamma 77.099933
_cell_volume 753.172299
_symmetry_space_group_name_H-M "P -1"
_symmetry_group_IT_number 2
_symmetry_cell_setting 'triclinic'
loop_
_space_group_symop_operation_xyz
x,y,z
-x,-y,-z
loop_
_atom_site_type_symbol
_atom_site_label
_atom_site_fract_x
_atom_site_fract_y
_atom_site_fract_z
Si Si1 0.214186 0.040373 0.723919
Si Si2 0.489519 0.672147 0.350047
Si Si3 0.051992 0.115367 0.121311
Si Si4 0.740087 0.609891 0.825283
Si Si5 0.415613 0.467780 0.270111
Si Si6 0.453879 0.790915 0.645552
Si Si7 0.089269 0.404708 0.055806
Si Si8 0.610979 0.878736 0.998733
O O1 0.296573 0.906543 0.758031
O O2 0.096425 0.989122 0.719452
O O3 0.369667 0.128647 0.521621
O O4 0.102856 0.119724 0.917937
O O5 0.380617 0.552959 0.416636
O O6 0.442997 0.719838 0.527956
O O7 0.702878 0.626774 0.166264
O O8 0.481664 0.799395 0.228096
O O9 0.996538 0.266242 0.173660
O O10 0.229130 0.075559 0.059988
O O11 0.746838 0.561634 0.677683
O O12 0.553550 0.557550 0.053758
O O13 0.886255 0.554943 0.819357
O O14 0.705754 0.768558 0.840017
O O15 0.524010 0.327439 0.240086
O O16 0.000000 0.500000 0.000000
O O17 0.500000 0.000000 0.000000
#
# Coordination Sequence:
#
# PCOD9001007 Si02
#       8
#     2   2   2   2   2   2   2   2
#     4  10  21  33  52  82 113 139 186 224 268 329
#     4   9  19  35  49  86 108 134 191 227 259 343
#     4   9  19  37  49  83 114 132 187 233 251 330
#     4   8  18  33  49  85 104 130 192 225 254 336
#     4   9  18  32  52  75 109 136 176 232 268 308
#     4  11  20  33  56  80 110 152 174 226 288 323
#     4   9  17  32  58  77 106 144 177 225 277 306
#     4   9  17  31  58  77 109 142 176 228 277 312
#
# _framework density 21.243478
#
# number of rings (size 3 to 8) (size 9 to 14) (size 15 to 20)
#    0.000    3.250    2.500    0.375    5.250    0.000 
#    0.000    0.000    0.000    7.500    0.000    0.000 
#    0.000    0.000    0.000    0.000    0.000    0.000 
#
# Total GULP energy -89162.612135 kJ/mol
# GULP energy per Si atom -5572.663258 kJ/mol
# Density = 2.119513 g / cm^3
# Si number density = 21.243478 Si / 1000 Ang^3
#
#
#
# Elastic Constant Matrix: (Units=GPa)
#
#
# Indices 1 2 3 4 5 6 
#
# 1 141.5943 74.8570 4.5900 -15.1295 0.7640 23.7469
# 2 74.8570 83.7744 3.3383 -10.3072 4.1066 5.9452
# 3 4.5900 3.3383 15.7642 3.2342 -3.5524 7.2248
# 4 -15.1295 -10.3072 3.2342 11.8269 2.5699 6.7496
# 5 0.7640 4.1066 -3.5524 2.5699 16.8313 -5.1759
# 6 23.7469 5.9452 7.2248 6.7496 -5.1759 55.3481
#
#
#
# Elastic Compliance Matrix: (Units=1/GPa)
#
#
# Indices 1 2 3 4 5 6 
#
# 1 0.016585 -0.011900 -0.002962 0.016878 -0.003460 -0.007833
# 2 -0.011900 0.023996 -0.005596 0.007855 -0.007194 0.001628
# 3 -0.002962 -0.005596 0.078485 -0.033811 0.022569 -0.002140
# 4 0.016878 0.007855 -0.033811 0.145181 -0.039701 -0.025089
# 5 -0.003460 -0.007194 0.022569 -0.039701 0.075602 0.011223
# 6 -0.007833 0.001628 -0.002140 -0.025089 0.011223 0.025642
#
#
# Mechanical properties :
#
#
# Convention : Reuss Voigt Hill
#
# Bulk Modulus (GPa) = 12.79543 45.18930 28.99236
# Shear Modulus (GPa) = 11.56187 27.35776 19.45981
#
# Velocity S-wave (km/s) = 2.33546 3.59251 3.02989
# Velocity P-wave (km/s) = 3.64812 6.20697 5.09094
#
# Compressibility (1/GPa) = 0.07815291
#
# Stress axis : x y z
#
# Youngs Moduli (GPa) = 60.29463 41.67282 12.74125
#
# Poissons Ratio (x) = 0.49590 0.03774
# Poissons Ratio (y) = 0.71749 0.07129
# Poissons Ratio (z) = 0.17857 0.23318
#
# Static dielectric constant tensor:
#      x y z
#    x 1.841310 0.040830 0.016140 
#    y 0.040830 1.794060 0.026260 
#    z 0.016140 0.026260 1.803690 
# 
# From -- ./inp_files/414604.got.cif
#   From: 2010.05.17/outbox.cif.g08.bks.cpg/sg2_208_cif.got.tgz:414604.got - 2010.06.03 11:33:40.
