data_PCOD9001433
_publ_section_title
;
Structure prediction by ZEFSAII (Michael W. Deem and Ramdas Pophale) SiO2 
 PCOD9001433
Probable space group: P -1
;
_chemical_formula_sum "Si O2"
_cell_formula_units_Z 16
_cell_length_a 5.750745
_cell_length_b 27.791491
_cell_length_c 14.389431
_cell_angle_alpha 32.405731
_cell_angle_beta 139.115083
_cell_angle_gamma 136.489211
_cell_volume 781.518848
_symmetry_space_group_name_H-M "P -1"
_symmetry_group_IT_number 2
_symmetry_cell_setting 'triclinic'
loop_
_space_group_symop_operation_xyz
x,y,z
-x,-y,-z
loop_
_atom_site_type_symbol
_atom_site_label
_atom_site_fract_x
_atom_site_fract_y
_atom_site_fract_z
Si Si1 0.537784 0.916516 0.444000
Si Si2 0.296715 0.117823 0.815069
Si Si3 0.786513 0.299949 0.757037
Si Si4 0.571539 0.609761 0.335419
Si Si5 0.483516 0.071996 0.294845
Si Si6 0.888837 0.287734 0.097401
Si Si7 0.672853 0.977120 0.202813
Si Si8 0.395192 0.260142 0.150426
O O1 0.746104 0.917298 0.409395
O O2 0.613861 0.846024 0.657150
O O3 0.114308 0.884809 0.335806
O O4 0.631754 0.021498 0.336985
O O5 0.507484 0.211189 0.774291
O O6 0.459735 0.092761 0.807226
O O7 0.374734 0.034992 0.036395
O O8 0.540482 0.352388 0.660463
O O9 0.034954 0.351444 0.661429
O O10 0.079796 0.271755 0.963370
O O11 0.500000 0.500000 0.500000
O O12 0.293717 0.643014 0.127658
O O13 0.670275 0.180131 0.185379
O O14 0.500000 0.000000 0.500000
O O15 0.050249 0.053048 0.173985
O O16 0.786355 0.300750 0.152445
O O17 0.287800 0.298217 0.154802
#
# Coordination Sequence:
#
# PCOD9001433 Si02
#       8
#     2   2   2   2   2   2   2   2
#     4  11  23  33  55  78 118 160 203 240 276 345
#     4  10  23  38  51  80 116 166 202 238 290 348
#     4  10  22  39  64  88 121 152 190 245 305 353
#     4  10  21  38  63  94 119 145 193 252 310 354
#     4  11  21  32  52  83 118 154 201 240 288 341
#     4  10  21  35  55  86 117 150 188 243 300 342
#     4  10  22  37  51  73 121 165 208 242 280 336
#     4  10  21  37  55  86 112 150 196 240 289 335
#
# _framework density 20.472954000000001
#
# number of rings (size 3 to 8) (size 9 to 14) (size 15 to 20)
#    0.000    1.750    1.250    3.000    8.750    1.000 
#    0.000    0.000    0.000    0.000    0.000   21.000 
#    0.000    0.000    0.000    0.000    0.000    0.000 
#
# Total GULP energy -89125.989574 kJ/mol
# GULP energy per Si atom -5570.374348 kJ/mol
# Density = 2.042636 g / cm^3
# Si number density = 20.472954 Si / 1000 Ang^3
#
#
#
# Elastic Constant Matrix: (Units=GPa)
#
#
# Indices 1 2 3 4 5 6 
#
# 1 160.7482 34.7822 35.5794 -10.2181 6.0588 -2.4917
# 2 34.7822 56.0373 38.6563 -6.4074 6.2628 -6.1673
# 3 35.5794 38.6563 103.1067 -20.8942 1.2902 -2.4838
# 4 -10.2181 -6.4074 -20.8942 23.9033 -0.9130 7.6034
# 5 6.0588 6.2628 1.2902 -0.9130 31.0029 5.6040
# 6 -2.4917 -6.1673 -2.4838 7.6034 5.6040 25.4456
#
#
#
# Elastic Compliance Matrix: (Units=1/GPa)
#
#
# Indices 1 2 3 4 5 6 
#
# 1 0.007336 -0.003866 -0.000762 0.001634 -0.000450 -0.000682
# 2 -0.003866 0.028229 -0.010171 -0.005961 -0.006259 0.008630
# 3 -0.000762 -0.010171 0.016240 0.012997 0.002900 -0.005477
# 4 0.001634 -0.005961 0.012997 0.058446 0.005442 -0.018679
# 5 -0.000450 -0.006259 0.002900 0.005442 0.035589 -0.010742
# 6 -0.000682 0.008630 -0.005477 -0.018679 -0.010742 0.048737
#
#
# Mechanical properties :
#
#
# Convention : Reuss Voigt Hill
#
# Bulk Modulus (GPa) = 45.02952 59.76978 52.39965
# Shear Modulus (GPa) = 21.59097 30.12863 25.85980
#
# Velocity S-wave (km/s) = 3.25100 3.84035 3.55790
# Velocity P-wave (km/s) = 6.01119 6.99444 6.52137
#
# Compressibility (1/GPa) = 0.02220765
#
# Stress axis : x y z
#
# Youngs Moduli (GPa) = 136.30880 35.42438 61.57458
#
# Poissons Ratio (x) = 0.13695 0.04691
# Poissons Ratio (y) = 0.52698 0.62629
# Poissons Ratio (z) = 0.10385 0.36031
#
# Static dielectric constant tensor:
#      x y z
#    x 1.927780 -0.002300 0.004150 
#    y -0.002300 1.692090 0.062080 
#    z 0.004150 0.062080 1.769530 
# 
# From -- ./inp_files/77348.got.cif
#   From: 2010.05.17/outbox.cif.g08.bks.cpg/sg2_39_cif.got.tgz:77348.got - 2010.06.03 11:33:40.
