data_PCOD9001094
_publ_section_title
;
Structure prediction by ZEFSAII (Michael W. Deem and Ramdas Pophale) SiO2 
 PCOD9001094
Probable space group: P -1
;
_chemical_formula_sum "Si O2"
_cell_formula_units_Z 16
_cell_length_a 14.197257
_cell_length_b 9.309780
_cell_length_c 11.781855
_cell_angle_alpha 84.969819
_cell_angle_beta 129.524019
_cell_angle_gamma 124.185846
_cell_volume 900.383442
_symmetry_space_group_name_H-M "P -1"
_symmetry_group_IT_number 2
_symmetry_cell_setting 'triclinic'
loop_
_space_group_symop_operation_xyz
x,y,z
-x,-y,-z
loop_
_atom_site_type_symbol
_atom_site_label
_atom_site_fract_x
_atom_site_fract_y
_atom_site_fract_z
Si Si1 0.021219 0.126616 0.270487
Si Si2 0.824298 0.510113 0.948403
Si Si3 0.155471 0.812256 0.044682
Si Si4 0.356803 0.502435 0.401125
Si Si5 0.200763 0.734555 0.525603
Si Si6 0.500013 0.887280 0.610796
Si Si7 0.023615 0.304786 0.480019
Si Si8 0.941115 0.730864 0.240080
O O1 0.198632 0.304053 0.346689
O O2 0.013016 0.169175 0.392011
O O3 0.984034 0.930011 0.240236
O O4 0.896903 0.128325 0.103831
O O5 0.814582 0.329866 0.959362
O O6 0.695917 0.471464 0.762282
O O7 0.818438 0.577152 0.062715
O O8 0.001306 0.687138 0.019616
O O9 0.317728 0.994506 0.215820
O O10 0.500000 0.500000 0.500000
O O11 0.415909 0.677845 0.514460
O O12 0.385611 0.861495 0.624239
O O13 0.115568 0.511922 0.480866
O O14 0.151035 0.773134 0.602945
O O15 0.102951 0.755805 0.357782
O O16 0.500000 0.000000 0.500000
O O17 0.110078 0.330038 0.663307
#
# Coordination Sequence:
#
# PCOD9001094 Si02
#       8
#     2   2   2   2   2   2   2   2
#     4  11  22  39  59  90 118 159 196 246 291 358
#     4  10  21  40  56  89 114 163 196 242 287 360
#     4  10  23  35  62  83 124 152 201 242 297 346
#     4  11  26  37  59  87 129 152 192 246 306 350
#     4   9  20  36  63  88 112 157 202 243 284 347
#     4  12  22  40  61  91 119 158 195 250 296 349
#     4   9  19  39  63  88 112 159 207 238 288 348
#     4  10  21  33  65  84 118 148 207 237 290 347
#
# _framework density 17.770206999999999
#
# number of rings (size 3 to 8) (size 9 to 14) (size 15 to 20)
#    0.750    1.000    2.500    1.875    7.000    1.000 
#    0.000    0.625    0.000    1.500    0.000    0.000 
#    0.000    0.000    0.000    0.000    0.000    0.000 
#
# Total GULP energy -89216.738669 kJ/mol
# GULP energy per Si atom -5576.046167 kJ/mol
# Density = 1.772976 g / cm^3
# Si number density = 17.770207 Si / 1000 Ang^3
#
#
#
# Elastic Constant Matrix: (Units=GPa)
#
#
# Indices 1 2 3 4 5 6 
#
# 1 62.1564 27.7968 47.7605 -7.4027 -1.0016 -0.2438
# 2 27.7968 95.1827 45.6932 -16.7142 -0.5691 -14.7009
# 3 47.7605 45.6932 129.0114 -3.1906 -2.5316 -7.6522
# 4 -7.4027 -16.7142 -3.1906 20.3988 0.1132 1.4683
# 5 -1.0016 -0.5691 -2.5316 0.1132 31.8076 5.6126
# 6 -0.2438 -14.7009 -7.6522 1.4683 5.6126 18.9574
#
#
#
# Elastic Compliance Matrix: (Units=1/GPa)
#
#
# Indices 1 2 3 4 5 6 
#
# 1 0.024395 -0.003252 -0.008094 0.005364 0.001146 -0.006230
# 2 -0.003252 0.017092 -0.003935 0.011402 -0.002158 0.011380
# 3 -0.008094 -0.003935 0.012157 -0.004406 0.000305 0.002003
# 4 0.005364 0.011402 -0.004406 0.059430 -0.000671 0.002728
# 5 0.001146 -0.002158 0.000305 -0.000671 0.033474 -0.011395
# 6 -0.006230 0.011380 0.002003 0.002728 -0.011395 0.065465
#
#
# Mechanical properties :
#
#
# Convention : Reuss Voigt Hill
#
# Bulk Modulus (GPa) = 43.32359 58.76129 51.04244
# Shear Modulus (GPa) = 19.97860 25.23941 22.60901
#
# Velocity S-wave (km/s) = 3.35666 3.77280 3.57080
# Velocity P-wave (km/s) = 6.28138 7.21927 6.76659
#
# Compressibility (1/GPa) = 0.02308211
#
# Stress axis : x y z
#
# Youngs Moduli (GPa) = 40.99228 58.50783 82.25705
#
# Poissons Ratio (x) = 0.19028 0.66575
# Poissons Ratio (y) = 0.13332 0.32368
# Poissons Ratio (z) = 0.33177 0.23023
#
# Static dielectric constant tensor:
#      x y z
#    x 1.612930 -0.002530 -0.014920 
#    y -0.002530 1.598870 -0.007450 
#    z -0.014920 -0.007450 1.604520 
# 
# From -- ./inp_files/245082.got.cif
#   From: 2010.05.17/outbox.cif.g08.bks.cpg/sg2_123_cif.got.tgz:245082.got - 2010.06.03 11:33:40.
