data_PCOD9001945
_publ_section_title
;
Structure prediction by ZEFSAII (Michael W. Deem and Ramdas Pophale) SiO2 
 PCOD9001945
Probable space group: P -1
;
_chemical_formula_sum "Si O2"
_cell_formula_units_Z 14
_cell_length_a 6.733133
_cell_length_b 25.003134
_cell_length_c 7.919172
_cell_angle_alpha 143.421474
_cell_angle_beta 127.598976
_cell_angle_gamma 68.562902
_cell_volume 607.195121
_symmetry_space_group_name_H-M "P -1"
_symmetry_group_IT_number 2
_symmetry_cell_setting 'triclinic'
loop_
_space_group_symop_operation_xyz
x,y,z
-x,-y,-z
loop_
_atom_site_type_symbol
_atom_site_label
_atom_site_fract_x
_atom_site_fract_y
_atom_site_fract_z
Si Si1 0.824612 0.815295 0.161172
Si Si2 0.946680 0.310117 0.825497
Si Si3 0.233282 0.980002 0.959861
Si Si4 0.119525 0.091216 0.906246
Si Si5 0.329758 0.863625 0.991958
Si Si6 0.768757 0.514191 0.807014
Si Si7 0.281957 0.566860 0.767495
O O1 0.862972 0.721969 0.024608
O O2 0.085270 0.890793 0.546375
O O3 0.787218 0.825172 0.966409
O O4 0.572108 0.845260 0.171148
O O5 0.811749 0.227014 0.419441
O O6 0.115528 0.392921 0.007876
O O7 0.729614 0.342554 0.904757
O O8 0.411064 0.947846 0.110169
O O9 0.308888 0.064448 0.078942
O O10 0.000000 0.000000 0.000000
O O11 0.000000 0.000000 0.500000
O O12 0.883501 0.113234 0.940875
O O13 0.527905 0.525617 0.823741
O O14 0.701234 0.431380 0.423329
O O15 0.000000 0.500000 0.000000
O O16 0.000000 0.500000 0.500000
#
# Coordination Sequence:
#
# PCOD9001945 Si02
#       7
#     2   2   2   2   2   2   2
#     4  10  21  36  55  80 113 152 187 236 299 347
#     4  10  23  38  55  86 121 148 190 241 288 355
#     4   8  17  35  53  78 109 140 193 243 279 342
#     4   9  19  35  55  79 107 145 197 240 281 344
#     4  10  21  36  56  81 114 153 189 238 298 346
#     4  10  22  40  65  90 116 155 197 239 292 353
#     4   9  21  41  63  90 120 151 192 241 291 352
#
# _framework density 23.056837999999999
#
# number of rings (size 3 to 8) (size 9 to 14) (size 15 to 20)
#    0.000    2.571    0.000    0.000    0.000   16.000 
#    0.000   10.000    0.000    0.000    0.000    0.000 
#    0.000    0.000    0.000    0.000    0.000    0.000 
#
# Total GULP energy -78103.426051 kJ/mol
# GULP energy per Si atom -5578.816146 kJ/mol
# Density = 2.300436 g / cm^3
# Si number density = 23.056838 Si / 1000 Ang^3
#
#
#
# Elastic Constant Matrix: (Units=GPa)
#
#
# Indices 1 2 3 4 5 6 
#
# 1 133.8269 55.6143 37.1847 13.5928 -13.4134 -26.7452
# 2 55.6143 160.1034 25.0704 -12.2703 7.9775 -5.3941
# 3 37.1847 25.0704 77.4961 -1.4052 -15.3983 -17.7257
# 4 13.5928 -12.2703 -1.4052 23.9711 -11.6655 8.6105
# 5 -13.4134 7.9775 -15.3983 -11.6655 34.8906 3.7754
# 6 -26.7452 -5.3941 -17.7257 8.6105 3.7754 48.9202
#
#
#
# Elastic Compliance Matrix: (Units=1/GPa)
#
#
# Indices 1 2 3 4 5 6 
#
# 1 0.013278 -0.004810 -0.003367 -0.013311 -0.000586 0.007897
# 2 -0.004810 0.008688 -0.001461 0.007537 -0.001592 -0.003405
# 3 -0.003367 -0.001461 0.017324 0.005135 0.008105 0.002746
# 4 -0.013311 0.007537 0.005135 0.070282 0.020933 -0.018572
# 5 -0.000586 -0.001592 0.008105 0.020933 0.039843 -0.004319
# 6 0.007897 -0.003405 0.002746 -0.018572 -0.004319 0.028981
#
#
# Mechanical properties :
#
#
# Convention : Reuss Voigt Hill
#
# Bulk Modulus (GPa) = 49.96484 67.46280 58.71382
# Shear Modulus (GPa) = 24.46878 38.46019 31.46448
#
# Velocity S-wave (km/s) = 3.26120 4.08862 3.69812
# Velocity P-wave (km/s) = 5.99148 7.18415 6.61475
#
# Compressibility (1/GPa) = 0.02001407
#
# Stress axis : x y z
#
# Youngs Moduli (GPa) = 75.31167 115.10325 57.72485
#
# Poissons Ratio (x) = 0.55365 0.19434
# Poissons Ratio (y) = 0.36225 0.08434
# Poissons Ratio (z) = 0.25355 0.16817
#
# Static dielectric constant tensor:
#      x y z
#    x 1.940510 -0.022750 -0.005250 
#    y -0.022750 1.958250 0.007510 
#    z -0.005250 0.007510 1.922280 
# 
# From -- ./inp_files/143023.got.cif
#   From: 2010.05.17/outbox.cif.g08.bks.cpg/sg2_72_cif.got.tgz:143023.got - 2010.06.03 11:33:40.
