data_PCOD9001920
_publ_section_title
;
Structure prediction by ZEFSAII (Michael W. Deem and Ramdas Pophale) SiO2 
 PCOD9001920
Probable space group: P -1
;
_chemical_formula_sum "Si O2"
_cell_formula_units_Z 16
_cell_length_a 27.000819
_cell_length_b 4.930118
_cell_length_c 5.694725
_cell_angle_alpha 99.152477
_cell_angle_beta 69.418815
_cell_angle_gamma 86.022251
_cell_volume 694.180317
_symmetry_space_group_name_H-M "P -1"
_symmetry_group_IT_number 2
_symmetry_cell_setting 'triclinic'
loop_
_space_group_symop_operation_xyz
x,y,z
-x,-y,-z
loop_
_atom_site_type_symbol
_atom_site_label
_atom_site_fract_x
_atom_site_fract_y
_atom_site_fract_z
Si Si1 0.540245 0.717434 0.415672
Si Si2 0.717699 0.581965 0.898301
Si Si3 0.195513 0.516022 0.632461
Si Si4 0.438011 0.129384 0.103701
Si Si5 0.662425 0.108607 0.810183
Si Si6 0.017935 0.209561 0.687438
Si Si7 0.250839 0.990430 0.715345
Si Si8 0.928302 0.313227 0.225615
O O1 0.500000 0.500000 0.500000
O O2 0.574486 0.725397 0.600327
O O3 0.500000 0.000000 0.500000
O O4 0.567736 0.703188 0.110906
O O5 0.771735 0.455121 0.658308
O O6 0.682824 0.792486 0.807984
O O7 0.683457 0.334153 0.977874
O O8 0.732563 0.794660 0.095541
O O9 0.212011 0.198933 0.640781
O O10 0.133185 0.596065 0.710925
O O11 0.218709 0.736950 0.797809
O O12 0.399968 0.892148 0.113677
O O13 0.500000 0.000000 0.000000
O O14 0.695041 0.141944 0.522783
O O15 0.048797 0.467079 0.606721
O O16 0.058442 0.001964 0.752326
O O17 0.000000 0.000000 0.500000
O O18 0.964910 0.324483 0.936033
#
# Coordination Sequence:
#
# PCOD9001920 Si02
#       8
#     2   2   2   2   2   2   2   2
#     4  10  22  40  62  88 124 158 202 252 302 364
#     4  10  22  40  60  86 118 153 197 248 306 365
#     4  10  21  37  59  87 114 150 200 247 300 356
#     4  10  23  43  64  96 126 166 210 259 315 386
#     4  10  23  39  60  87 119 154 197 246 305 367
#     4  10  21  36  54  81 118 158 196 238 300 353
#     4  10  21  39  59  85 115 152 193 248 303 364
#     4  10  21  36  55  83 117 151 198 250 287 358
#
# _framework density 23.048767999999999
#
# number of rings (size 3 to 8) (size 9 to 14) (size 15 to 20)
#    0.000    2.000    0.000    2.250    1.750    6.000 
#    0.000    0.000    0.000    0.000    0.000    0.000 
#    0.000    0.000    0.000    0.000    0.000    0.000 
#
# Total GULP energy -89294.286667 kJ/mol
# GULP energy per Si atom -5580.892917 kJ/mol
# Density = 2.299631 g / cm^3
# Si number density = 23.048768 Si / 1000 Ang^3
#
#
#
# Elastic Constant Matrix: (Units=GPa)
#
#
# Indices 1 2 3 4 5 6 
#
# 1 107.3365 26.6003 37.8430 12.9064 -21.8237 20.3683
# 2 26.6003 140.9884 21.1041 14.7748 -4.3192 18.6597
# 3 37.8430 21.1041 92.4761 9.3422 22.0726 10.2103
# 4 12.9064 14.7748 9.3422 31.5268 0.4727 10.5158
# 5 -21.8237 -4.3192 22.0726 0.4727 35.0944 8.2628
# 6 20.3683 18.6597 10.2103 10.5158 8.2628 36.0742
#
#
#
# Elastic Compliance Matrix: (Units=1/GPa)
#
#
# Indices 1 2 3 4 5 6 
#
# 1 0.022132 0.000699 -0.013703 -0.000819 0.025935 -0.014681
# 2 0.000699 0.008232 -0.002444 -0.002051 0.004021 -0.004284
# 3 -0.013703 -0.002444 0.022158 -0.002491 -0.024880 0.009155
# 4 -0.000819 -0.002051 -0.002491 0.036732 0.002438 -0.009037
# 5 0.025935 0.004021 -0.024880 0.002438 0.066781 -0.025688
# 6 -0.014681 -0.004284 0.009155 -0.009037 -0.025688 0.044153
#
#
# Mechanical properties :
#
#
# Convention : Reuss Voigt Hill
#
# Bulk Modulus (GPa) = 46.24120 56.87731 51.55925
# Shear Modulus (GPa) = 20.98268 37.55599 29.26933
#
# Velocity S-wave (km/s) = 3.02049 4.04098 3.56741
# Velocity P-wave (km/s) = 5.68070 6.81933 6.27589
#
# Compressibility (1/GPa) = 0.02162574
#
# Stress axis : x y z
#
# Youngs Moduli (GPa) = 45.18396 121.47851 45.12989
#
# Poissons Ratio (x) = -0.08490 0.61840
# Poissons Ratio (y) = -0.03158 0.11031
# Poissons Ratio (z) = 0.61914 0.29692
#
# Static dielectric constant tensor:
#      x y z
#    x 1.868440 -0.001860 0.079440 
#    y -0.001860 1.892430 0.015870 
#    z 0.079440 0.015870 1.954990 
# 
# From -- ./inp_files/121820.got.cif
#   From: 2010.05.17/outbox.cif.g08.bks.cpg/sg2_61_cif.got.tgz:121820.got - 2010.06.03 11:33:40.
