data_PCOD9001140
_publ_section_title
;
Structure prediction by ZEFSAII (Michael W. Deem and Ramdas Pophale) SiO2 
 PCOD9001140
Probable space group: P -1
;
_chemical_formula_sum "Si O2"
_cell_formula_units_Z 16
_cell_length_a 15.714214
_cell_length_b 10.312282
_cell_length_c 6.958015
_cell_angle_alpha 84.443414
_cell_angle_beta 54.811297
_cell_angle_gamma 67.448209
_cell_volume 839.432047
_symmetry_space_group_name_H-M "P -1"
_symmetry_group_IT_number 2
_symmetry_cell_setting 'triclinic'
loop_
_space_group_symop_operation_xyz
x,y,z
-x,-y,-z
loop_
_atom_site_type_symbol
_atom_site_label
_atom_site_fract_x
_atom_site_fract_y
_atom_site_fract_z
Si Si1 0.167698 0.339185 0.837534
Si Si2 0.484162 0.844944 0.313162
Si Si3 0.952702 0.460944 0.373380
Si Si4 0.656477 0.535472 0.251173
Si Si5 0.334780 0.038705 0.811806
Si Si6 0.753883 0.388759 0.761525
Si Si7 0.559516 0.570772 0.768305
Si Si8 0.353306 0.831742 0.108306
O O1 0.122781 0.400038 0.675883
O O2 0.243157 0.422419 0.805099
O O3 0.248741 0.174439 0.788395
O O4 0.057977 0.375010 0.110144
O O5 0.560099 0.677178 0.265311
O O6 0.576508 0.914962 0.191850
O O7 0.405271 0.867449 0.227234
O O8 0.402515 0.920167 0.585088
O O9 0.878899 0.373531 0.548999
O O10 0.000000 0.500000 0.500000
O O11 0.596289 0.503185 0.520725
O O12 0.713097 0.416979 0.032386
O O13 0.284838 0.966663 0.046184
O O14 0.675949 0.536425 0.733677
O O15 0.719149 0.263299 0.750048
O O16 0.500000 0.500000 0.000000
O O17 0.468670 0.731368 0.856319
#
# Coordination Sequence:
#
# PCOD9001140 Si02
#       8
#     2   2   2   2   2   2   2   2
#     4  10  23  39  65  89 114 153 208 258 304 351
#     4  10  21  35  60  86 122 167 199 237 285 358
#     4  11  22  42  65  91 113 148 207 265 312 348
#     4  11  19  37  60  91 123 159 197 248 299 354
#     4  10  22  40  57  86 124 163 202 242 289 362
#     4  11  23  36  61  92 125 157 200 256 306 351
#     4  10  21  34  53  87 127 160 190 234 293 365
#     4  11  22  37  56  90 127 166 197 233 299 368
#
# _framework density 19.060507999999999
#
# number of rings (size 3 to 8) (size 9 to 14) (size 15 to 20)
#    0.000    1.500    5.000    0.375    0.000    5.000 
#    0.000    0.625    0.000    1.500    0.000    0.000 
#    0.000    0.000    0.000    0.000    0.000    0.000 
#
# Total GULP energy -89187.004505 kJ/mol
# GULP energy per Si atom -5574.187782 kJ/mol
# Density = 1.901713 g / cm^3
# Si number density = 19.060508 Si / 1000 Ang^3
#
#
#
# Elastic Constant Matrix: (Units=GPa)
#
#
# Indices 1 2 3 4 5 6 
#
# 1 99.8054 38.0800 42.7997 -5.3594 6.6047 1.4121
# 2 38.0800 66.8342 34.1834 -9.4113 10.7766 -4.5708
# 3 42.7997 34.1834 118.1306 -15.0401 2.0200 14.8096
# 4 -5.3594 -9.4113 -15.0401 16.8219 -3.6051 4.9806
# 5 6.6047 10.7766 2.0200 -3.6051 31.5657 -4.7496
# 6 1.4121 -4.5708 14.8096 4.9806 -4.7496 16.6623
#
#
#
# Elastic Compliance Matrix: (Units=1/GPa)
#
#
# Indices 1 2 3 4 5 6 
#
# 1 0.013859 -0.006215 -0.003706 -0.002840 -0.000706 0.001062
# 2 -0.006215 0.022841 -0.005136 0.002482 -0.004480 0.009338
# 3 -0.003706 -0.005136 0.015818 0.016043 0.000362 -0.019846
# 4 -0.002840 0.002482 0.016043 0.086217 0.002803 -0.038310
# 5 -0.000706 -0.004480 0.000362 0.002803 0.034796 0.007590
# 6 0.001062 0.009338 -0.019846 -0.038310 0.007590 0.093742
#
#
# Mechanical properties :
#
#
# Convention : Reuss Voigt Hill
#
# Bulk Modulus (GPa) = 44.63151 57.21073 50.92112
# Shear Modulus (GPa) = 16.40134 24.32378 20.36256
#
# Velocity S-wave (km/s) = 2.93659 3.57618 3.27205
# Velocity P-wave (km/s) = 5.91309 6.86532 6.40692
#
# Compressibility (1/GPa) = 0.02240569
#
# Stress axis : x y z
#
# Youngs Moduli (GPa) = 72.15615 43.78153 63.21797
#
# Poissons Ratio (x) = 0.27209 0.23425
# Poissons Ratio (y) = 0.44842 0.32468
# Poissons Ratio (z) = 0.26738 0.22486
#
# Static dielectric constant tensor:
#      x y z
#    x 1.700030 -0.004960 0.000630 
#    y -0.004960 1.688510 -0.020760 
#    z 0.000630 -0.020760 1.686690 
# 
# From -- ./inp_files/94891.got.cif
#   From: 2010.05.17/outbox.cif.g08.bks.cpg/sg2_48_cif.got.tgz:94891.got - 2010.06.03 11:33:40.
