data_PCOD9001314
_publ_section_title
;
Structure prediction by ZEFSAII (Michael W. Deem and Ramdas Pophale) SiO2 
 PCOD9001314
Probable space group: P -1
;
_chemical_formula_sum "Si O2"
_cell_formula_units_Z 14
_cell_length_a 16.021229
_cell_length_b 8.860892
_cell_length_c 10.977494
_cell_angle_alpha 75.463922
_cell_angle_beta 28.215796
_cell_angle_gamma 60.531130
_cell_volume 574.975625
_symmetry_space_group_name_H-M "P -1"
_symmetry_group_IT_number 2
_symmetry_cell_setting 'triclinic'
loop_
_space_group_symop_operation_xyz
x,y,z
-x,-y,-z
loop_
_atom_site_type_symbol
_atom_site_label
_atom_site_fract_x
_atom_site_fract_y
_atom_site_fract_z
Si Si1 0.289184 0.388218 0.318305
Si Si2 0.348986 0.278102 0.996311
Si Si3 0.260499 0.930908 0.812943
Si Si4 0.563264 0.922979 0.632038
Si Si5 0.161288 0.916062 0.553512
Si Si6 0.850373 0.320767 0.906682
Si Si7 0.207109 0.760062 0.279892
O O1 0.158873 0.617578 0.435731
O O2 0.276002 0.287857 0.473457
O O3 0.256774 0.319480 0.243630
O O4 0.543370 0.309413 0.010881
O O5 0.403802 0.083205 0.906684
O O6 0.586091 0.239537 0.712969
O O7 0.202608 0.470197 0.063663
O O8 0.324591 0.991306 0.599254
O O9 0.415712 0.911906 0.724324
O O10 0.270797 0.736521 0.834850
O O11 0.009953 0.092300 0.144784
O O12 0.097742 0.930977 0.488982
O O13 0.097489 0.125804 0.629436
O O14 0.784593 0.299072 0.859485
#
# Coordination Sequence:
#
# PCOD9001314 Si02
#       7
#     2   2   2   2   2   2   2
#     4   9  17  31  55  86 108 139 187 226 276 330
#     4  10  21  34  63  84 108 144 184 233 286 304
#     4   9  22  36  58  77 113 156 184 215 275 331
#     4  11  20  37  55  82 120 145 175 236 279 324
#     4   9  19  35  57  87 103 148 192 220 269 328
#     4   9  18  36  56  85 108 142 193 220 262 346
#     4   9  15  30  60  81 104 145 186 231 264 320
#
# _framework density 24.348860999999999
#
# number of rings (size 3 to 8) (size 9 to 14) (size 15 to 20)
#    0.857    1.714    1.429    1.714    0.000    1.143 
#    0.000    2.143    0.000    6.857    0.000    0.000 
#    0.000    0.000    0.000    0.000    0.000    0.000 
#
# Total GULP energy -78020.117897 kJ/mol
# GULP energy per Si atom -5572.865564 kJ/mol
# Density = 2.429344 g / cm^3
# Si number density = 24.348861 Si / 1000 Ang^3
#
#
#
# Elastic Constant Matrix: (Units=GPa)
#
#
# Indices 1 2 3 4 5 6 
#
# 1 65.7025 -39.1075 -6.3671 -22.9204 7.1841 -1.4945
# 2 -39.1075 -53.5782 1.6288 -79.0610 3.0950 -11.8005
# 3 -6.3671 1.6288 51.0369 -20.2093 -5.7611 -4.0043
# 4 -22.9204 -79.0610 -20.2093 24.9415 -6.0798 6.0354
# 5 7.1841 3.0950 -5.7611 -6.0798 13.7577 -3.3133
# 6 -1.4945 -11.8005 -4.0043 6.0354 -3.3133 24.8307
#
#
#
# Elastic Compliance Matrix: (Units=1/GPa)
#
#
# Indices 1 2 3 4 5 6 
#
# 1 0.012356 -0.004020 -0.000698 -0.003486 -0.007733 -0.001464
# 2 -0.004020 -0.000488 -0.005187 -0.010716 -0.004533 0.000690
# 3 -0.000698 -0.005187 0.023192 0.004585 0.013739 0.001952
# 4 -0.003486 -0.010716 0.004585 0.010315 0.009306 -0.005829
# 5 -0.007733 -0.004533 0.013739 0.009306 0.089856 0.009324
# 6 -0.001464 0.000690 0.001952 -0.005829 0.009324 0.043488
#
#
# Mechanical properties :
#
#
# Convention : Reuss Voigt Hill
#
# Bulk Modulus (GPa) = 65.58181 -2.72560 31.42810
# Shear Modulus (GPa) = 24.55652 19.83977 22.19814
#
# Velocity S-wave (km/s) = 3.17918 2.85759 3.02266
# Velocity P-wave (km/s) = 6.36152 3.12505 5.01173
#
# Compressibility (1/GPa) = 0.01524813
#
# Stress axis : x y z
#
# Youngs Moduli (GPa) = 80.93426 -2048.65840 43.11913
#
# Poissons Ratio (x) = -8.23618 0.03011
# Poissons Ratio (y) = 0.32538 0.22365
# Poissons Ratio (z) = 0.05652 -10.62611
#
# Static dielectric constant tensor:
#      x y z
#    x 2.004650 -0.114530 -0.073760 
#    y -0.114530 2.073300 0.033460 
#    z -0.073760 0.033460 1.952780 
# 
# From -- ./inp_files/336919.got.cif
#   From: 2010.05.17/outbox.cif.g08.bks.cpg/sg2_169_cif.got.tgz:336919.got - 2010.06.03 11:33:40.
