data_PCOD9001820
_publ_section_title
;
Structure prediction by ZEFSAII (Michael W. Deem and Ramdas Pophale) SiO2 
 PCOD9001820
Probable space group: P -1
;
_chemical_formula_sum "Si O2"
_cell_formula_units_Z 14
_cell_length_a 8.400278
_cell_length_b 18.665653
_cell_length_c 12.344456
_cell_angle_alpha 151.888119
_cell_angle_beta 36.817474
_cell_angle_gamma 128.948950
_cell_volume 525.573220
_symmetry_space_group_name_H-M "P -1"
_symmetry_group_IT_number 2
_symmetry_cell_setting 'triclinic'
loop_
_space_group_symop_operation_xyz
x,y,z
-x,-y,-z
loop_
_atom_site_type_symbol
_atom_site_label
_atom_site_fract_x
_atom_site_fract_y
_atom_site_fract_z
Si Si1 0.781796 0.525902 0.255731
Si Si2 0.094354 0.102811 0.180060
Si Si3 0.337248 0.389048 0.886000
Si Si4 0.588989 0.713752 0.889336
Si Si5 0.288991 0.167799 0.802306
Si Si6 0.458257 0.187789 0.353541
Si Si7 0.939976 0.078328 0.453165
O O1 0.603848 0.708534 0.584094
O O2 0.556319 0.425145 0.239956
O O3 0.000000 0.500000 0.000000
O O4 0.010781 0.468033 0.147497
O O5 0.206039 0.232435 0.231234
O O6 0.324891 0.976487 0.955402
O O7 0.889009 0.165205 0.477316
O O8 0.000000 0.000000 0.000000
O O9 0.364159 0.240823 0.750849
O O10 0.487386 0.316755 0.597336
O O11 0.500000 0.500000 0.000000
O O12 0.731269 0.709995 0.925499
O O13 0.318970 0.862810 0.248146
O O14 0.500000 0.000000 0.500000
O O15 0.023055 0.106428 0.837192
O O16 0.176278 0.138270 0.459348
#
# Coordination Sequence:
#
# PCOD9001820 Si02
#       7
#     2   2   2   2   2   2   2
#     4  10  21  43  69 101 141 184 235 288 348 421
#     4  12  27  45  70 109 143 186 235 293 351 418
#     4  11  23  38  69 107 136 185 239 287 354 421
#     4  11  22  45  74 102 141 185 235 289 353 422
#     4  10  21  35  65 100 133 175 226 279 343 404
#     4  11  24  43  69 100 150 180 233 297 349 417
#     4  11  23  43  72 102 146 180 234 292 353 412
#
# _framework density 26.637581000000001
#
# number of rings (size 3 to 8) (size 9 to 14) (size 15 to 20)
#    0.000    1.143    4.286    3.857    6.000    1.143 
#    0.000    1.429    0.000    0.000    0.000    0.000 
#    0.000    0.000    0.000    0.000    0.000    0.000 
#
# Total GULP energy -78220.142871 kJ/mol
# GULP energy per Si atom -5587.153062 kJ/mol
# Density = 2.657695 g / cm^3
# Si number density = 26.637581 Si / 1000 Ang^3
#
#
#
# Elastic Constant Matrix: (Units=GPa)
#
#
# Indices 1 2 3 4 5 6 
#
# 1 108.5770 27.6429 25.7783 30.7024 8.2484 7.7386
# 2 27.6429 148.4067 13.0258 20.5518 7.7183 17.3368
# 3 25.7783 13.0258 73.1772 22.0910 4.8682 0.2266
# 4 30.7024 20.5518 22.0910 44.1861 -5.6138 13.6958
# 5 8.2484 7.7183 4.8682 -5.6138 53.9942 15.7047
# 6 7.7386 17.3368 0.2266 13.6958 15.7047 55.9961
#
#
#
# Elastic Compliance Matrix: (Units=1/GPa)
#
#
# Indices 1 2 3 4 5 6 
#
# 1 0.012225 -0.001047 -0.001507 -0.008047 -0.002826 0.001402
# 2 -0.001047 0.007472 -0.000216 -0.002296 -0.000719 -0.001405
# 3 -0.001507 -0.000216 0.017089 -0.008798 -0.003136 0.003237
# 4 -0.008047 -0.002296 -0.008798 0.037962 0.009209 -0.010009
# 5 -0.002826 -0.000719 -0.003136 0.009209 0.022613 -0.007969
# 6 0.001402 -0.001405 0.003237 -0.010009 -0.007969 0.022769
#
#
# Mechanical properties :
#
#
# Convention : Reuss Voigt Hill
#
# Bulk Modulus (GPa) = 32.00430 51.45056 41.72743
# Shear Modulus (GPa) = 36.74153 48.41621 42.57887
#
# Velocity S-wave (km/s) = 3.71794 4.26795 4.00240
# Velocity P-wave (km/s) = 5.52010 6.60637 6.08751
#
# Compressibility (1/GPa) = 0.03124580
#
# Stress axis : x y z
#
# Youngs Moduli (GPa) = 81.80077 133.84018 58.51565
#
# Poissons Ratio (x) = 0.14015 0.08818
# Poissons Ratio (y) = 0.08565 0.01264
# Poissons Ratio (z) = 0.12327 0.02890
#
# Static dielectric constant tensor:
#      x y z
#    x 2.210980 0.096940 -0.005890 
#    y 0.096940 2.113020 -0.127220 
#    z -0.005890 -0.127220 2.338630 
# 
# From -- ./inp_files/403457.got.cif
#   From: 2010.05.17/outbox.cif.g08.bks.cpg/sg2_202_cif.got.tgz:403457.got - 2010.06.03 11:33:40.
