data_PCOD9001851
_publ_section_title
;
Structure prediction by ZEFSAII (Michael W. Deem and Ramdas Pophale) SiO2 
 PCOD9001851
Probable space group: P -1
;
_chemical_formula_sum "Si O2"
_cell_formula_units_Z 16
_cell_length_a 5.659298
_cell_length_b 9.810385
_cell_length_c 26.274867
_cell_angle_alpha 44.104999
_cell_angle_beta 104.612298
_cell_angle_gamma 131.895587
_cell_volume 679.156698
_symmetry_space_group_name_H-M "P -1"
_symmetry_group_IT_number 2
_symmetry_cell_setting 'triclinic'
loop_
_space_group_symop_operation_xyz
x,y,z
-x,-y,-z
loop_
_atom_site_type_symbol
_atom_site_label
_atom_site_fract_x
_atom_site_fract_y
_atom_site_fract_z
Si Si1 0.895300 0.270446 0.334320
Si Si2 0.014889 0.192336 0.702889
Si Si3 0.285368 0.665756 0.426130
Si Si4 0.618202 0.542911 0.246411
Si Si5 0.252409 0.703013 0.006508
Si Si6 0.633037 0.570646 0.844256
Si Si7 0.758190 0.714298 0.002582
Si Si8 0.782938 0.676690 0.567696
O O1 0.676546 0.342994 0.294171
O O2 0.259645 0.427510 0.282709
O O3 0.997183 0.343328 0.379408
O O4 0.647470 0.942736 0.396964
O O5 0.071064 0.225834 0.758346
O O6 0.396621 0.467341 0.626901
O O7 0.768700 0.205152 0.656853
O O8 0.894783 0.903210 0.759621
O O9 0.258533 0.441192 0.457842
O O10 0.000000 0.500000 0.500000
O O11 0.588989 0.600447 0.172058
O O12 0.144036 0.857247 0.973963
O O13 0.174801 0.508831 0.100712
O O14 0.649396 0.875190 0.965550
O O15 0.000000 0.500000 0.000000
O O16 0.380567 0.476116 0.903407
O O17 0.500000 0.500000 0.000000
O O18 0.000000 0.000000 0.500000
#
# Coordination Sequence:
#
# PCOD9001851 Si02
#       8
#     2   2   2   2   2   2   2   2
#     4  11  25  44  64  86 130 160 212 266 327 381
#     4  11  24  43  61  93 126 165 219 265 322 380
#     4  12  26  40  69  92 121 164 223 269 331 387
#     4  11  24  42  63  92 126 169 205 266 320 380
#     4   8  16  31  54  89 119 156 202 244 303 371
#     4  10  21  35  68  88 126 166 213 259 312 378
#     4   8  16  31  55  91 120 158 201 246 306 373
#     4  11  26  44  65  88 129 171 212 273 334 392
#
# _framework density 23.558627000000001
#
# number of rings (size 3 to 8) (size 9 to 14) (size 15 to 20)
#    0.750    1.000    2.500    1.500    5.250    3.000 
#    0.000    0.000    0.000    1.500    0.000    0.000 
#    0.000    0.000    0.000    0.000    0.000    0.000 
#
# Total GULP energy -89207.331238 kJ/mol
# GULP energy per Si atom -5575.458202 kJ/mol
# Density = 2.350501 g / cm^3
# Si number density = 23.558627 Si / 1000 Ang^3
#
#
#
# Elastic Constant Matrix: (Units=GPa)
#
#
# Indices 1 2 3 4 5 6 
#
# 1 137.1092 25.8386 21.1027 -5.7639 14.4863 -17.6624
# 2 25.8386 105.6984 42.6222 13.4800 5.7187 -9.6672
# 3 21.1027 42.6222 67.6872 13.0348 14.5207 -2.1432
# 4 -5.7639 13.4800 13.0348 52.0492 -0.9145 3.0007
# 5 14.4863 5.7187 14.5207 -0.9145 35.4698 5.4808
# 6 -17.6624 -9.6672 -2.1432 3.0007 5.4808 33.4549
#
#
#
# Elastic Compliance Matrix: (Units=1/GPa)
#
#
# Indices 1 2 3 4 5 6 
#
# 1 0.008742 -0.001137 -0.001351 0.001270 -0.003522 0.004663
# 2 -0.001137 0.013313 -0.007831 -0.001751 0.001057 0.002729
# 3 -0.001351 -0.007831 0.022484 -0.003886 -0.007497 0.000041
# 4 0.001270 -0.001751 -0.003886 0.020954 0.002255 -0.002333
# 5 -0.003522 0.001057 -0.007497 0.002255 0.033789 -0.007772
# 6 0.004663 0.002729 0.000041 -0.002333 -0.007772 0.034627
#
#
# Mechanical properties :
#
#
# Convention : Reuss Voigt Hill
#
# Bulk Modulus (GPa) = 41.84137 54.40243 48.12190
# Shear Modulus (GPa) = 30.76655 38.92351 34.84503
#
# Velocity S-wave (km/s) = 3.61772 4.06913 3.85005
# Velocity P-wave (km/s) = 5.93714 6.72455 6.34308
#
# Compressibility (1/GPa) = 0.02389979
#
# Stress axis : x y z
#
# Youngs Moduli (GPa) = 114.39211 75.11701 44.47534
#
# Poissons Ratio (x) = 0.08543 0.06007
# Poissons Ratio (y) = 0.13010 0.34831
# Poissons Ratio (z) = 0.15451 0.58828
#
# Static dielectric constant tensor:
#      x y z
#    x 1.981280 0.023820 0.021170 
#    y 0.023820 1.895110 0.061830 
#    z 0.021170 0.061830 1.923310 
# 
# From -- ./inp_files/615169.got.cif
#   From: 2010.05.17/outbox.cif.g08.bks.cpg/sg2_308_cif.got.tgz:615169.got - 2010.06.03 11:33:40.
