data_PCOD9001528
_publ_section_title
;
Structure prediction by ZEFSAII (Michael W. Deem and Ramdas Pophale) SiO2 
 PCOD9001528
Probable space group: P -1
;
_chemical_formula_sum "Si O2"
_cell_formula_units_Z 16
_cell_length_a 14.539516
_cell_length_b 12.091806
_cell_length_c 14.060451
_cell_angle_alpha 65.506596
_cell_angle_beta 148.934504
_cell_angle_gamma 135.517568
_cell_volume 750.187692
_symmetry_space_group_name_H-M "P -1"
_symmetry_group_IT_number 2
_symmetry_cell_setting 'triclinic'
loop_
_space_group_symop_operation_xyz
x,y,z
-x,-y,-z
loop_
_atom_site_type_symbol
_atom_site_label
_atom_site_fract_x
_atom_site_fract_y
_atom_site_fract_z
Si Si1 0.555706 0.089811 0.141463
Si Si2 0.160040 0.691148 0.521007
Si Si3 0.742897 0.675905 0.219544
Si Si4 0.962668 0.523561 0.684213
Si Si5 0.587712 0.547593 0.347395
Si Si6 0.721096 0.532039 0.742072
Si Si7 0.945404 0.031654 0.337972
Si Si8 0.262200 0.712748 0.071812
O O1 0.556479 0.150726 0.226029
O O2 0.828281 0.281589 0.261678
O O3 0.514698 0.926122 0.183607
O O4 0.305648 0.005759 0.885461
O O5 0.000000 0.500000 0.500000
O O6 0.999320 0.728267 0.394877
O O7 0.132864 0.639525 0.406028
O O8 0.630755 0.595845 0.256566
O O9 0.850419 0.870341 0.244719
O O10 0.500000 0.500000 0.000000
O O11 0.701600 0.472313 0.492458
O O12 0.124116 0.580700 0.903315
O O13 0.296755 0.419505 0.185154
O O14 0.785212 0.744358 0.509760
O O15 0.500000 0.500000 0.500000
O O16 0.661733 0.355482 0.764511
O O17 0.028916 0.682976 0.917360
O O18 0.000000 0.000000 0.500000
#
# Coordination Sequence:
#
# PCOD9001528 Si02
#       8
#     2   2   2   2   2   2   2   2
#     4  11  21  39  61  95 133 161 208 262 327 393
#     4  10  21  35  57  88 133 171 197 244 326 391
#     4  11  22  36  55  94 132 169 201 252 326 391
#     4  11  21  38  62  98 125 168 204 261 329 387
#     4  11  22  38  63  89 125 163 216 261 317 368
#     4  11  24  44  63  93 123 171 223 274 307 370
#     4  10  23  34  54  92 127 164 206 261 316 374
#     4  11  25  40  68  91 124 171 217 268 323 370
#
# _framework density 21.327994
#
# number of rings (size 3 to 8) (size 9 to 14) (size 15 to 20)
#    0.000    1.250    5.000    1.875    7.000    0.000 
#    0.000    0.000    0.000    5.250    0.000    0.000 
#    0.000    0.000    0.000    0.000    0.000    0.000 
#
# Total GULP energy -89161.003662 kJ/mol
# GULP energy per Si atom -5572.562729 kJ/mol
# Density = 2.127945 g / cm^3
# Si number density = 21.327994 Si / 1000 Ang^3
#
#
#
# Elastic Constant Matrix: (Units=GPa)
#
#
# Indices 1 2 3 4 5 6 
#
# 1 117.2656 32.2304 40.9110 8.3042 -4.8317 -13.5182
# 2 32.2304 81.0800 27.6538 -13.5382 -10.1680 -9.0692
# 3 40.9110 27.6538 97.9630 -1.6063 -14.6327 -5.0788
# 4 8.3042 -13.5382 -1.6063 30.4458 -13.4869 -6.5247
# 5 -4.8317 -10.1680 -14.6327 -13.4869 37.6923 6.5316
# 6 -13.5182 -9.0692 -5.0788 -6.5247 6.5316 28.9363
#
#
#
# Elastic Compliance Matrix: (Units=1/GPa)
#
#
# Indices 1 2 3 4 5 6 
#
# 1 0.011933 -0.004663 -0.004283 -0.006877 -0.004335 0.002790
# 2 -0.004663 0.018616 -0.001641 0.014012 0.007982 0.004726
# 3 -0.004283 -0.001641 0.013307 0.003447 0.005520 -0.000648
# 4 -0.006877 0.014012 0.003447 0.052546 0.021518 0.008775
# 5 -0.004335 0.007982 0.005520 0.021518 0.038380 -0.002366
# 6 0.002790 0.004726 -0.000648 0.008775 -0.002366 0.039742
#
#
# Mechanical properties :
#
#
# Convention : Reuss Voigt Hill
#
# Bulk Modulus (GPa) = 44.08499 55.32212 49.70356
# Shear Modulus (GPa) = 24.59920 32.44909 28.52415
#
# Velocity S-wave (km/s) = 3.39982 3.90479 3.66102
# Velocity P-wave (km/s) = 6.01054 6.80624 6.42073
#
# Compressibility (1/GPa) = 0.02268346
#
# Stress axis : x y z
#
# Youngs Moduli (GPa) = 83.79874 53.71793 75.14724
#
# Poissons Ratio (x) = 0.25047 0.32185
# Poissons Ratio (y) = 0.39072 0.12330
# Poissons Ratio (z) = 0.35891 0.08814
#
# Static dielectric constant tensor:
#      x y z
#    x 1.908110 0.001700 0.000010 
#    y 0.001700 1.790900 -0.026660 
#    z 0.000010 -0.026660 1.877310 
# 
# From -- ./inp_files/531825.got.cif
#   From: 2010.05.17/outbox.cif.g08.bks.cpg/sg2_266_cif.got.tgz:531825.got - 2010.06.03 11:33:40.
