data_PCOD9001910
_publ_section_title
;
Structure prediction by ZEFSAII (Michael W. Deem and Ramdas Pophale) SiO2 
 PCOD9001910
Probable space group: P -1
;
_chemical_formula_sum "Si O2"
_cell_formula_units_Z 16
_cell_length_a 14.464734
_cell_length_b 9.327027
_cell_length_c 14.464734
_cell_angle_alpha 135.552838
_cell_angle_beta 150.216277
_cell_angle_gamma 44.447160
_cell_volume 653.369392
_symmetry_space_group_name_H-M "P -1"
_symmetry_group_IT_number 2
_symmetry_cell_setting 'triclinic'
loop_
_space_group_symop_operation_xyz
x,y,z
-x,-y,-z
loop_
_atom_site_type_symbol
_atom_site_label
_atom_site_fract_x
_atom_site_fract_y
_atom_site_fract_z
Si Si1 0.309732 0.813028 0.701227
Si Si2 0.928472 0.195334 0.097079
Si Si3 0.077689 0.554582 0.446819
Si Si4 0.097079 0.304666 0.928472
Si Si5 0.154422 0.932934 0.325177
Si Si6 0.701227 0.686971 0.309732
Si Si7 0.325177 0.567066 0.154422
Si Si8 0.446819 0.945418 0.077689
O O1 0.110056 0.751710 0.509224
O O2 0.464121 0.582933 0.713216
O O3 0.367117 0.973647 0.753954
O O4 0.357422 0.890631 0.879389
O O5 0.067998 0.351511 0.284928
O O6 0.721579 0.324180 0.936325
O O7 0.970409 0.093179 0.187403
O O8 0.000000 0.000000 0.000000
O O9 0.246046 0.473647 0.632883
O O10 0.879389 0.609369 0.357422
O O11 0.187403 0.406821 0.970409
O O12 0.284928 0.148489 0.067998
O O13 0.000000 0.500000 0.000000
O O14 0.936325 0.175820 0.721579
O O15 0.259920 0.750000 0.259920
O O16 0.286784 0.082933 0.535879
O O17 0.509224 0.748290 0.110056
#
# Coordination Sequence:
#
# PCOD9001910 Si02
#       8
#     2   2   2   2   2   2   2   2
#     4  10  21  36  54  79 109 140 178 220 264 313
#     4   9  18  34  54  77 104 138 177 217 265 315
#     4  10  21  36  55  80 109 141 177 220 264 314
#     4   9  18  34  54  77 104 138 177 217 265 315
#     4   9  18  34  53  76 107 139 176 221 264 313
#     4  10  21  36  54  79 109 140 178 220 264 313
#     4   9  18  34  53  76 107 139 176 221 264 313
#     4  10  21  36  55  80 109 141 177 220 264 314
#
# _framework density 24.488444000000001
#
# number of rings (size 3 to 8) (size 9 to 14) (size 15 to 20)
#    0.000    2.500    0.000    1.500    0.000    3.000 
#    0.000   15.000    0.000    0.000    0.000    0.000 
#    0.000    0.000    0.000    0.000    0.000    0.000 
#
# Total GULP energy -89329.845072 kJ/mol
# GULP energy per Si atom -5583.115317 kJ/mol
# Density = 2.443271 g / cm^3
# Si number density = 24.488444 Si / 1000 Ang^3
#
#
#
# Elastic Constant Matrix: (Units=GPa)
#
#
# Indices 1 2 3 4 5 6 
#
# 1 55.0284 20.1763 7.4800 5.8729 6.5524 8.0536
# 2 20.1763 99.7120 1.5908 -4.5325 -10.1437 -3.8019
# 3 7.4800 1.5908 37.6885 17.6391 -8.3705 -4.1384
# 4 5.8729 -4.5325 17.6391 55.0037 11.3675 5.1344
# 5 6.5524 -10.1437 -8.3705 11.3675 27.2989 -0.4570
# 6 8.0536 -3.8019 -4.1384 5.1344 -0.4570 36.7034
#
#
#
# Elastic Compliance Matrix: (Units=1/GPa)
#
#
# Indices 1 2 3 4 5 6 
#
# 1 0.023973 -0.006107 -0.009672 0.003333 -0.012504 -0.007605
# 2 -0.006107 0.012045 0.003343 -0.001292 0.007559 0.003239
# 3 -0.009672 0.003343 0.043865 -0.018906 0.025060 0.010371
# 4 0.003333 -0.001292 -0.018906 0.028384 -0.019017 -0.007204
# 5 -0.012504 0.007559 0.025060 -0.019017 0.058207 0.009737
# 6 -0.007605 0.003239 0.010371 -0.007204 0.009737 0.031548
#
#
# Mechanical properties :
#
#
# Convention : Reuss Voigt Hill
#
# Bulk Modulus (GPa) = 18.17869 27.88034 23.02952
# Shear Modulus (GPa) = 20.72696 34.67998 27.70347
#
# Velocity S-wave (km/s) = 2.91245 3.76730 3.36711
# Velocity P-wave (km/s) = 4.33005 5.50756 4.95391
#
# Compressibility (1/GPa) = 0.05500946
#
# Stress axis : x y z
#
# Youngs Moduli (GPa) = 41.71426 83.02197 22.79723
#
# Poissons Ratio (x) = 0.50701 0.22050
# Poissons Ratio (y) = 0.25475 -0.07621
# Poissons Ratio (z) = 0.40347 -0.27752
#
# Static dielectric constant tensor:
#      x y z
#    x 1.933860 -0.009190 0.016530 
#    y -0.009190 1.966190 -0.005660 
#    z 0.016530 -0.005660 1.995830 
# 
# From -- ./inp_files/401847.got.cif
#   From: 2010.05.17/outbox.cif.g08.bks.cpg/sg2_201_cif.got.tgz:401847.got - 2010.06.03 11:33:40.
