data_PCOD9001891
_publ_section_title
;
Structure prediction by ZEFSAII (Michael W. Deem and Ramdas Pophale) SiO2 
 PCOD9001891
Probable space group: P -1
;
_chemical_formula_sum "Si O2"
_cell_formula_units_Z 16
_cell_length_a 5.206518
_cell_length_b 5.601572
_cell_length_c 24.075611
_cell_angle_alpha 98.533028
_cell_angle_beta 101.432591
_cell_angle_gamma 61.113718
_cell_volume 601.462831
_symmetry_space_group_name_H-M "P -1"
_symmetry_group_IT_number 2
_symmetry_cell_setting 'triclinic'
loop_
_space_group_symop_operation_xyz
x,y,z
-x,-y,-z
loop_
_atom_site_type_symbol
_atom_site_label
_atom_site_fract_x
_atom_site_fract_y
_atom_site_fract_z
Si Si1 0.857027 0.423559 0.210687
Si Si2 0.764408 0.949030 0.451941
Si Si3 0.136480 0.919745 0.662817
Si Si4 0.146549 0.767931 0.173736
Si Si5 0.241458 0.506448 0.312610
Si Si6 0.835869 0.612896 0.577742
Si Si7 0.675833 0.180292 0.934016
Si Si8 0.916647 0.380651 0.045258
O O1 0.004370 0.587185 0.188199
O O2 0.002801 0.418715 0.276957
O O3 0.499794 0.614016 0.200140
O O4 0.973931 0.100988 0.188720
O O5 0.753848 0.983670 0.384732
O O6 0.443485 0.184564 0.462276
O O7 0.000000 0.000000 0.500000
O O8 0.890212 0.627048 0.448671
O O9 0.435080 0.714833 0.700010
O O10 0.957442 0.788342 0.621141
O O11 0.907314 0.175101 0.697660
O O12 0.161190 0.749253 0.106098
O O13 0.272690 0.513282 0.381175
O O14 0.331619 0.386501 0.920743
O O15 0.746600 0.228186 0.002271
O O16 0.792386 0.857296 0.922790
O O17 0.000000 0.500000 0.000000
#
# Coordination Sequence:
#
# PCOD9001891 Si02
#       8
#     2   2   2   2   2   2   2   2
#     4  12  28  49  73 107 142 192 240 289 370 421
#     4  10  21  36  53  86 122 155 205 254 321 402
#     4  10  21  38  60  89 116 162 210 266 332 383
#     4  12  28  47  73 107 145 191 232 297 358 429
#     4  10  23  39  64  87 123 159 217 277 318 414
#     4  10  21  36  59  85 114 163 202 264 324 381
#     4  10  23  39  63  96 133 173 232 280 342 412
#     4  10  21  40  65  96 125 180 226 282 339 406
#
# _framework density 26.60181
#
# number of rings (size 3 to 8) (size 9 to 14) (size 15 to 20)
#    0.000    1.500    0.000    3.750    7.000    1.000 
#    0.000    0.000    0.000    0.000    0.000    0.000 
#    0.000    0.000    0.000    0.000    0.000    0.000 
#
# Total GULP energy -89382.107874 kJ/mol
# GULP energy per Si atom -5586.381742 kJ/mol
# Density = 2.654126 g / cm^3
# Si number density = 26.601810 Si / 1000 Ang^3
#
#
#
# Elastic Constant Matrix: (Units=GPa)
#
#
# Indices 1 2 3 4 5 6 
#
# 1 105.3696 77.1800 13.2676 0.2522 9.1185 -20.1789
# 2 77.1800 254.0201 39.9932 10.4598 -1.4469 -47.0811
# 3 13.2676 39.9932 93.1336 -1.2441 2.7115 -8.3729
# 4 0.2522 10.4598 -1.2441 33.0091 7.5495 -8.7056
# 5 9.1185 -1.4469 2.7115 7.5495 57.6371 -17.2997
# 6 -20.1789 -47.0811 -8.3729 -8.7056 -17.2997 44.2854
#
#
#
# Elastic Compliance Matrix: (Units=1/GPa)
#
#
# Indices 1 2 3 4 5 6 
#
# 1 0.012602 -0.003634 -0.000019 0.001883 -0.001877 0.001512
# 2 -0.003634 0.006443 -0.001835 -0.001204 0.002678 0.005657
# 3 -0.000019 -0.001835 0.011583 0.001229 -0.000688 0.000204
# 4 0.001883 -0.001204 0.001229 0.032755 -0.003172 0.005010
# 5 -0.001877 0.002678 -0.000688 -0.003172 0.020996 0.009440
# 6 0.001512 0.005657 0.000204 0.005010 0.009440 0.033995
#
#
# Mechanical properties :
#
#
# Convention : Reuss Voigt Hill
#
# Bulk Modulus (GPa) = 50.88407 79.26720 65.07564
# Shear Modulus (GPa) = 36.79219 48.45848 42.62534
#
# Velocity S-wave (km/s) = 3.72300 4.27268 4.00728
# Velocity P-wave (km/s) = 6.13600 7.36230 6.77694
#
# Compressibility (1/GPa) = 0.01965251
#
# Stress axis : x y z
#
# Youngs Moduli (GPa) = 79.35257 155.21079 86.33702
#
# Poissons Ratio (x) = 0.56401 0.00165
# Poissons Ratio (y) = 0.28835 0.15839
# Poissons Ratio (z) = 0.00151 0.28474
#
# Static dielectric constant tensor:
#      x y z
#    x 2.145890 0.050300 -0.150240 
#    y 0.050300 2.217410 -0.123140 
#    z -0.150240 -0.123140 2.404660 
# 
# From -- ./inp_files/14520.got.cif
#   From: 2010.05.17/outbox.cif.g08.bks.cpg/sg2_8_cif.got.tgz:14520.got - 2010.06.03 11:33:40.
