data_PCOD9001000
_publ_section_title
;
Structure prediction by ZEFSAII (Michael W. Deem and Ramdas Pophale) SiO2 
 PCOD9001000
Probable space group: P -1
;
_chemical_formula_sum "Si O2"
_cell_formula_units_Z 14
_cell_length_a 15.714057
_cell_length_b 12.338661
_cell_length_c 14.492976
_cell_angle_alpha 19.922389
_cell_angle_beta 44.598568
_cell_angle_gamma 46.392521
_cell_volume 669.885268
_symmetry_space_group_name_H-M "P -1"
_symmetry_group_IT_number 2
_symmetry_cell_setting 'triclinic'
loop_
_space_group_symop_operation_xyz
x,y,z
-x,-y,-z
loop_
_atom_site_type_symbol
_atom_site_label
_atom_site_fract_x
_atom_site_fract_y
_atom_site_fract_z
Si Si1 0.873400 0.440277 0.758178
Si Si2 0.161003 0.271456 0.637130
Si Si3 0.655397 0.421060 0.617908
Si Si4 0.055167 0.269507 0.355412
Si Si5 0.918376 0.700336 0.975785
Si Si6 0.752291 0.984829 0.739946
Si Si7 0.494755 0.152276 0.732650
O O1 0.827344 0.671546 0.526590
O O2 0.855378 0.582149 0.760497
O O3 0.020162 0.375718 0.686551
O O4 0.819203 0.102527 0.057416
O O5 0.251607 0.473859 0.461994
O O6 0.560756 0.721808 0.422785
O O7 0.728140 0.310457 0.556620
O O8 0.588518 0.109328 0.950207
O O9 0.134924 0.073020 0.371758
O O10 0.972047 0.041709 0.657151
O O11 0.962793 0.541769 0.163454
O O12 0.787745 0.736714 0.995869
O O13 0.000000 0.500000 0.000000
O O14 0.629791 0.977903 0.781258
O O15 0.500000 0.500000 0.500000
#
# Coordination Sequence:
#
# PCOD9001000 Si02
#       7
#     2   2   2   2   2   2   2
#     4  10  21  38  58  84 110 146 188 223 279 336
#     4  10  21  37  59  81 111 147 185 232 272 325
#     4  11  22  37  59  84 112 147 191 235 277 326
#     4  11  22  36  56  84 117 146 180 225 281 343
#     4  10  21  33  51  83 116 146 175 214 278 346
#     4  10  21  36  57  82 115 146 179 229 283 329
#     4  10  22  37  55  83 114 149 191 229 276 333
#
# _framework density 20.899101999999999
#
# number of rings (size 3 to 8) (size 9 to 14) (size 15 to 20)
#    0.000    1.714    0.000    6.000    0.000   13.714 
#    0.000    0.000    0.000    5.143    0.000    0.000 
#    0.000    0.000    0.000    0.000    0.000    0.000 
#
# Total GULP energy -78025.143029 kJ/mol
# GULP energy per Si atom -5573.224502 kJ/mol
# Density = 2.085153 g / cm^3
# Si number density = 20.899102 Si / 1000 Ang^3
#
#
#
# Elastic Constant Matrix: (Units=GPa)
#
#
# Indices 1 2 3 4 5 6 
#
# 1 134.8286 37.0671 47.3047 4.3342 7.8116 -11.5969
# 2 37.0671 44.0598 27.4817 0.7885 1.4024 -4.0791
# 3 47.3047 27.4817 130.7092 19.3044 7.1494 -7.6337
# 4 4.3342 0.7885 19.3044 20.4540 -0.6139 0.6643
# 5 7.8116 1.4024 7.1494 -0.6139 43.1859 -4.9194
# 6 -11.5969 -4.0791 -7.6337 0.6643 -4.9194 37.5929
#
#
#
# Elastic Compliance Matrix: (Units=1/GPa)
#
#
# Indices 1 2 3 4 5 6 
#
# 1 0.010344 -0.007218 -0.002047 -0.000074 -0.001088 0.001851
# 2 -0.007218 0.031675 -0.004815 0.004878 0.001178 0.000301
# 3 -0.002047 -0.004815 0.010990 -0.009827 -0.001309 0.001080
# 4 -0.000074 0.004878 -0.009827 0.058127 0.002052 -0.002248
# 5 -0.001088 0.001178 -0.001309 0.002052 0.023858 0.002612
# 6 0.001851 0.000301 0.001080 -0.002248 0.002612 0.027805
#
#
# Mechanical properties :
#
#
# Convention : Reuss Voigt Hill
#
# Bulk Modulus (GPa) = 40.24376 59.25609 49.74992
# Shear Modulus (GPa) = 25.09500 33.42950 29.26225
#
# Velocity S-wave (km/s) = 3.46897 4.00380 3.74594
# Velocity P-wave (km/s) = 5.94500 7.05612 6.52426
#
# Compressibility (1/GPa) = 0.02484857
#
# Stress axis : x y z
#
# Youngs Moduli (GPa) = 96.67253 31.57055 90.99233
#
# Poissons Ratio (x) = 0.22788 0.18631
# Poissons Ratio (y) = 0.69779 0.43811
# Poissons Ratio (z) = 0.19794 0.15200
#
# Static dielectric constant tensor:
#      x y z
#    x 1.816050 0.000270 0.014270 
#    y 0.000270 1.787740 0.017050 
#    z 0.014270 0.017050 1.827470 
# 
# From -- ./inp_files/531431.got.cif
#   From: 2010.05.17/outbox.cif.g08.bks.cpg/sg2_266_cif.got.tgz:531431.got - 2010.06.03 11:33:40.
