data_PCOD9001435
_publ_section_title
;
Structure prediction by ZEFSAII (Michael W. Deem and Ramdas Pophale) SiO2 
 PCOD9001435
Probable space group: P -1
;
_chemical_formula_sum "Si O2"
_cell_formula_units_Z 16
_cell_length_a 13.065694
_cell_length_b 16.403573
_cell_length_c 13.709050
_cell_angle_alpha 65.457757
_cell_angle_beta 49.046824
_cell_angle_gamma 24.189145
_cell_volume 734.250911
_symmetry_space_group_name_H-M "P -1"
_symmetry_group_IT_number 2
_symmetry_cell_setting 'triclinic'
loop_
_space_group_symop_operation_xyz
x,y,z
-x,-y,-z
loop_
_atom_site_type_symbol
_atom_site_label
_atom_site_fract_x
_atom_site_fract_y
_atom_site_fract_z
Si Si1 0.120274 0.360353 0.905045
Si Si2 0.191865 0.675399 0.342527
Si Si3 0.958084 0.785760 0.019415
Si Si4 0.422398 0.768620 0.327197
Si Si5 0.596142 0.528522 0.489346
Si Si6 0.503535 0.246792 0.064611
Si Si7 0.065822 0.946560 0.277618
Si Si8 0.231186 0.581442 0.157991
O O1 0.161538 0.228610 0.959438
O O2 0.512552 0.166954 0.732326
O O3 0.847080 0.545198 0.892421
O O4 0.000000 0.500000 0.000000
O O5 0.165673 0.642261 0.479143
O O6 0.955965 0.912046 0.377207
O O7 0.084032 0.690203 0.304011
O O8 0.630165 0.435219 0.166444
O O9 0.971814 0.743608 0.144108
O O10 0.683651 0.039021 0.066821
O O11 0.690991 0.545487 0.340268
O O12 0.422303 0.741782 0.227118
O O13 0.000000 0.000000 0.500000
O O14 0.500000 0.500000 0.500000
O O15 0.231583 0.796555 0.634760
O O16 0.408874 0.372133 0.149544
O O17 0.806932 0.117324 0.879286
O O18 0.500000 0.500000 0.000000
#
# Coordination Sequence:
#
# PCOD9001435 Si02
#       8
#     2   2   2   2   2   2   2   2
#     4  11  21  38  58  84 124 157 198 253 301 357
#     4  11  19  35  57  87 120 157 197 246 304 352
#     4  10  21  35  55  86 121 154 196 246 304 358
#     4  10  22  40  57  82 123 161 195 242 294 359
#     4  11  23  35  57  82 120 157 197 244 291 363
#     4  11  20  35  58  89 121 156 193 246 308 362
#     4  11  19  35  55  84 120 153 191 241 293 351
#     4   9  19  33  55  86 125 154 189 254 306 353
#
# _framework density 21.790917
#
# number of rings (size 3 to 8) (size 9 to 14) (size 15 to 20)
#    0.000    1.500    7.500    0.000    0.000    3.500 
#    4.500    0.000    0.000    3.000    0.000   15.750 
#    0.000    0.000    0.000    0.000    0.000    0.000 
#
# Total GULP energy -89087.387097 kJ/mol
# GULP energy per Si atom -5567.961694 kJ/mol
# Density = 2.174132 g / cm^3
# Si number density = 21.790917 Si / 1000 Ang^3
#
#
#
# Elastic Constant Matrix: (Units=GPa)
#
#
# Indices 1 2 3 4 5 6 
#
# 1 106.2682 34.5183 21.4852 4.0422 24.2815 28.9732
# 2 34.5183 112.0272 11.0192 -7.1517 13.6347 27.3593
# 3 21.4852 11.0192 25.0538 0.8865 14.2793 5.9498
# 4 4.0422 -7.1517 0.8865 29.4469 -0.3477 8.9255
# 5 24.2815 13.6347 14.2793 -0.3477 35.4649 -3.6181
# 6 28.9732 27.3593 5.9498 8.9255 -3.6181 33.8139
#
#
#
# Elastic Compliance Matrix: (Units=1/GPa)
#
#
# Indices 1 2 3 4 5 6 
#
# 1 0.017221 0.000863 -0.004429 0.002907 -0.012017 -0.016728
# 2 0.000863 0.013551 0.000810 0.007494 -0.007546 -0.014632
# 3 -0.004429 0.000810 0.057935 0.001787 -0.021592 -0.009837
# 4 0.002907 0.007494 0.001787 0.041484 -0.007286 -0.020599
# 5 -0.012017 -0.007546 -0.021592 -0.007286 0.050759 0.027556
# 6 -0.016728 -0.014632 -0.009837 -0.020599 0.027556 0.065863
#
#
# Mechanical properties :
#
#
# Convention : Reuss Voigt Hill
#
# Bulk Modulus (GPa) = 12.01977 41.93272 26.97625
# Shear Modulus (GPa) = 17.85354 31.50024 24.67689
#
# Velocity S-wave (km/s) = 2.86547 3.80619 3.36882
# Velocity P-wave (km/s) = 4.05904 6.21298 5.24771
#
# Compressibility (1/GPa) = 0.08319623
#
# Stress axis : x y z
#
# Youngs Moduli (GPa) = 58.06721 73.79497 17.26081
#
# Poissons Ratio (x) = -0.06368 0.07645
# Poissons Ratio (y) = -0.05011 -0.01399
# Poissons Ratio (z) = 0.25717 -0.05981
#
# Static dielectric constant tensor:
#      x y z
#    x 1.824750 -0.013840 -0.011260 
#    y -0.013840 1.849390 0.001580 
#    z -0.011260 0.001580 2.040560 
# 
# From -- ./inp_files/520872.got.cif
#   From: 2010.05.17/outbox.cif.g08.bks.cpg/sg2_261_cif.got.tgz:520872.got - 2010.06.03 11:33:40.
