data_PCOD9001659
_publ_section_title
;
Structure prediction by ZEFSAII (Michael W. Deem and Ramdas Pophale) SiO2 
 PCOD9001659
Probable space group: P -1
;
_chemical_formula_sum "Si O2"
_cell_formula_units_Z 15
_cell_length_a 6.750038
_cell_length_b 17.927021
_cell_length_c 10.192290
_cell_angle_alpha 55.819363
_cell_angle_beta 75.406801
_cell_angle_gamma 37.915422
_cell_volume 580.911428
_symmetry_space_group_name_H-M "P -1"
_symmetry_group_IT_number 2
_symmetry_cell_setting 'triclinic'
loop_
_space_group_symop_operation_xyz
x,y,z
-x,-y,-z
loop_
_atom_site_type_symbol
_atom_site_label
_atom_site_fract_x
_atom_site_fract_y
_atom_site_fract_z
Si Si1 0.879771 0.686061 0.171262
Si Si2 0.637381 0.423869 0.410593
Si Si3 0.486293 0.613886 0.893527
Si Si4 0.789195 0.557651 0.159233
Si Si5 0.474038 0.950945 0.791462
Si Si6 0.066211 0.848650 0.504787
Si Si7 0.000000 0.000000 0.000000
Si Si8 0.608101 0.097347 0.721126
O O1 0.680680 0.663040 0.191724
O O2 0.712146 0.775189 0.249344
O O3 0.285324 0.534906 0.276568
O O4 0.792300 0.779970 0.968576
O O5 0.500000 0.500000 0.500000
O O6 0.852251 0.433600 0.317025
O O7 0.843363 0.259611 0.512555
O O8 0.177692 0.763077 0.707032
O O9 0.856204 0.521924 0.869283
O O10 0.500000 0.500000 0.000000
O O11 0.504267 0.647245 0.004770
O O12 0.559341 0.024207 0.723514
O O13 0.326035 0.984491 0.637033
O O14 0.184589 0.020558 0.875254
O O15 0.313841 0.845830 0.441014
O O16 0.922385 0.983512 0.884407
#
# Coordination Sequence:
#
# PCOD9001659 Si02
#       8
#     2   2   2   2   2   2   1   2
#     4  11  22  39  59  95 133 169 209 256 324 386
#     4  12  25  38  63 100 135 163 208 266 325 388
#     4  11  23  45  68  92 122 168 228 266 318 381
#     4  11  24  41  68  91 127 171 209 273 327 366
#     4  10  22  37  61  88 133 173 211 253 318 384
#     4  11  23  39  62  96 122 164 225 261 308 387
#     4   8  16  34  50  84 118 172 210 238 290 382
#     4  10  21  35  60  90 133 171 206 254 317 380
#
# _framework density 25.821494000000001
#
# number of rings (size 3 to 8) (size 9 to 14) (size 15 to 20)
#    0.000    1.333    2.667    3.200    3.733    7.467 
#    0.000    0.667    0.000    4.000    0.000    0.000 
#    0.000    0.000    0.000    0.000    0.000    0.000 
#
# Total GULP energy -83693.979620 kJ/mol
# GULP energy per Si atom -5579.598641 kJ/mol
# Density = 2.576272 g / cm^3
# Si number density = 25.821494 Si / 1000 Ang^3
#
#
#
# Elastic Constant Matrix: (Units=GPa)
#
#
# Indices 1 2 3 4 5 6 
#
# 1 179.6603 26.6813 63.9170 -7.8428 -12.3396 21.3339
# 2 26.6813 57.6617 8.0230 1.5913 -1.7950 4.1177
# 3 63.9170 8.0230 142.2052 -3.7823 10.4106 0.6213
# 4 -7.8428 1.5913 -3.7823 29.1658 0.1406 1.1392
# 5 -12.3396 -1.7950 10.4106 0.1406 67.5193 0.1016
# 6 21.3339 4.1177 0.6213 1.1392 0.1016 29.8372
#
#
#
# Elastic Compliance Matrix: (Units=1/GPa)
#
#
# Indices 1 2 3 4 5 6 
#
# 1 0.008128 -0.002875 -0.003556 0.002084 0.001961 -0.005427
# 2 -0.002875 0.018726 0.000195 -0.001751 -0.000053 -0.000465
# 3 -0.003556 0.000195 0.008758 0.000087 -0.001999 0.002336
# 4 0.002084 -0.001751 0.000087 0.035054 0.000252 -0.002589
# 5 0.001961 -0.000053 -0.001999 0.000252 0.015477 -0.001416
# 6 -0.005427 -0.000465 0.002336 -0.002589 -0.001416 0.037515
#
#
# Mechanical properties :
#
#
# Convention : Reuss Voigt Hill
#
# Bulk Modulus (GPa) = 43.21464 64.08554 53.65009
# Shear Modulus (GPa) = 34.76032 44.03152 39.39592
#
# Velocity S-wave (km/s) = 3.67301 4.13392 3.91026
# Velocity P-wave (km/s) = 5.89578 6.90350 6.41944
#
# Compressibility (1/GPa) = 0.02314031
#
# Stress axis : x y z
#
# Youngs Moduli (GPa) = 123.02967 53.40255 114.18624
#
# Poissons Ratio (x) = 0.15355 0.40600
# Poissons Ratio (y) = 0.35374 -0.02229
# Poissons Ratio (z) = 0.43744 -0.01043
#
# Static dielectric constant tensor:
#      x y z
#    x 2.060540 -0.161260 0.226000 
#    y -0.161260 2.270040 -0.290700 
#    z 0.226000 -0.290700 2.500160 
# 
# From -- ./inp_files/63442.got.cif
#   From: 2010.05.17/outbox.cif.g08.bks.cpg/sg2_32_cif.got.tgz:63442.got - 2010.06.03 11:33:40.
