data_PCOD9001477
_publ_section_title
;
Structure prediction by ZEFSAII (Michael W. Deem and Ramdas Pophale) SiO2 
 PCOD9001477
Probable space group: P -1
;
_chemical_formula_sum "Si O2"
_cell_formula_units_Z 14
_cell_length_a 8.129576
_cell_length_b 18.974656
_cell_length_c 5.624310
_cell_angle_alpha 111.747311
_cell_angle_beta 40.468812
_cell_angle_gamma 113.948947
_cell_volume 511.820968
_symmetry_space_group_name_H-M "P -1"
_symmetry_group_IT_number 2
_symmetry_cell_setting 'triclinic'
loop_
_space_group_symop_operation_xyz
x,y,z
-x,-y,-z
loop_
_atom_site_type_symbol
_atom_site_label
_atom_site_fract_x
_atom_site_fract_y
_atom_site_fract_z
Si Si1 0.806895 0.522660 0.932673
Si Si2 0.906776 0.809492 0.325543
Si Si3 0.562086 0.620767 0.974719
Si Si4 0.021897 0.665300 0.159866
Si Si5 0.125450 0.952185 0.496943
Si Si6 0.659690 0.904685 0.326955
Si Si7 0.553859 0.233813 0.857727
O O1 0.620333 0.574294 0.082366
O O2 0.000000 0.500000 0.500000
O O3 0.618945 0.439934 0.080981
O O4 0.989284 0.579771 0.982253
O O5 0.764886 0.849863 0.333200
O O6 0.954277 0.724736 0.108426
O O7 0.151478 0.873440 0.234874
O O8 0.716829 0.791524 0.738497
O O9 0.822188 0.648688 0.577399
O O10 0.452421 0.697554 0.238838
O O11 0.265994 0.719365 0.080988
O O12 0.634841 0.985995 0.578349
O O13 0.000000 0.000000 0.500000
O O14 0.900097 0.929861 0.913411
O O15 0.417058 0.847129 0.396428
#
# Coordination Sequence:
#
# PCOD9001477 Si02
#       7
#     2   2   2   2   2   2   2
#     4  11  24  40  61  87 114 150 196 242 292 349
#     4   9  19  35  56  82 114 152 192 234 285 340
#     4  10  23  41  60  83 115 153 194 237 292 348
#     4  11  23  39  59  84 117 152 192 242 292 346
#     4   8  15  30  57  86 111 150 194 231 278 335
#     4   9  16  32  57  82 115 152 188 233 283 336
#     4  10  21  35  56  85 114 150 192 235 287 343
#
# _framework density 27.353313
#
# number of rings (size 3 to 8) (size 9 to 14) (size 15 to 20)
#    0.000    2.286    0.000    2.143    0.000    9.143 
#    0.000    0.714    0.000   29.143    0.000    0.000 
#    0.000    0.000    0.000    0.000    0.000    0.000 
#
# Total GULP energy -78267.115554 kJ/mol
# GULP energy per Si atom -5590.508254 kJ/mol
# Density = 2.729106 g / cm^3
# Si number density = 27.353313 Si / 1000 Ang^3
#
#
#
# Elastic Constant Matrix: (Units=GPa)
#
#
# Indices 1 2 3 4 5 6 
#
# 1 95.9155 52.8267 -10.8918 -6.2502 2.9955 28.1416
# 2 52.8267 242.2277 23.8064 -4.5855 0.6255 55.3697
# 3 -10.8918 23.8064 44.8876 5.1790 2.3422 1.6607
# 4 -6.2502 -4.5855 5.1790 34.5932 3.5938 13.7169
# 5 2.9955 0.6255 2.3422 3.5938 22.5545 -9.7614
# 6 28.1416 55.3697 1.6607 13.7169 -9.7614 72.8612
#
#
#
# Elastic Compliance Matrix: (Units=1/GPa)
#
#
# Indices 1 2 3 4 5 6 
#
# 1 0.014210 -0.002214 0.004607 0.004294 -0.005340 -0.005434
# 2 -0.002214 0.006073 -0.003835 0.002952 -0.001886 -0.004481
# 3 0.004607 -0.003835 0.025937 -0.003706 -0.002199 0.000947
# 4 0.004294 0.002952 -0.003706 0.036672 -0.011412 -0.012250
# 5 -0.005340 -0.001886 -0.002199 -0.011412 0.052663 0.012750
# 6 -0.005434 -0.004481 0.000947 -0.012250 0.012750 0.023221
#
#
# Mechanical properties :
#
#
# Convention : Reuss Voigt Hill
#
# Bulk Modulus (GPa) = 23.07629 57.16814 40.12222
# Shear Modulus (GPa) = 28.39206 47.15442 37.77324
#
# Velocity S-wave (km/s) = 3.22526 4.15649 3.72013
# Velocity P-wave (km/s) = 4.72487 6.63178 5.75782
#
# Compressibility (1/GPa) = 0.04333452
#
# Stress axis : x y z
#
# Youngs Moduli (GPa) = 70.37521 164.65950 38.55555
#
# Poissons Ratio (x) = 0.36462 -0.17761
# Poissons Ratio (y) = 0.15584 0.14785
# Poissons Ratio (z) = -0.32419 0.63140
#
# Static dielectric constant tensor:
#      x y z
#    x 2.352250 0.095250 -0.053940 
#    y 0.095250 2.199650 0.015520 
#    z -0.053940 0.015520 2.130600 
# 
# From -- ./inp_files/53363.got.cif
#   From: 2010.05.17/outbox.cif.g08.bks.cpg/sg2_27_cif.got.tgz:53363.got - 2010.06.03 11:33:40.
