data_PCOD9001513
_publ_section_title
;
Structure prediction by ZEFSAII (Michael W. Deem and Ramdas Pophale) SiO2 
 PCOD9001513
Probable space group: P -1
;
_chemical_formula_sum "Si O2"
_cell_formula_units_Z 16
_cell_length_a 5.196469
_cell_length_b 9.751253
_cell_length_c 13.322768
_cell_angle_alpha 68.642434
_cell_angle_beta 72.781990
_cell_angle_gamma 88.226585
_cell_volume 598.309170
_symmetry_space_group_name_H-M "P -1"
_symmetry_group_IT_number 2
_symmetry_cell_setting 'triclinic'
loop_
_space_group_symop_operation_xyz
x,y,z
-x,-y,-z
loop_
_atom_site_type_symbol
_atom_site_label
_atom_site_fract_x
_atom_site_fract_y
_atom_site_fract_z
Si Si1 0.618857 0.108388 0.277792
Si Si2 0.712770 0.562919 0.041268
Si Si3 0.761857 0.161643 0.568420
Si Si4 0.065726 0.476591 0.776405
Si Si5 0.190211 0.022852 0.196247
Si Si6 0.537941 0.405511 0.639554
Si Si7 0.385524 0.774783 0.117159
Si Si8 0.765120 0.692367 0.639494
O O1 0.497518 0.955295 0.384567
O O2 0.446708 0.112774 0.193472
O O3 0.925434 0.110745 0.206677
O O4 0.504670 0.228710 0.330421
O O5 0.703249 0.499020 0.172758
O O6 0.636781 0.731562 0.029902
O O7 0.500000 0.500000 0.000000
O O8 0.000000 0.500000 0.000000
O O9 0.882811 0.101162 0.674357
O O10 0.646831 0.318485 0.558350
O O11 0.000126 0.184657 0.454907
O O12 0.224725 0.436313 0.668987
O O13 0.866458 0.333444 0.864669
O O14 0.889269 0.612110 0.742288
O O15 0.280391 0.933888 0.111802
O O16 0.553386 0.289465 0.761962
O O17 0.708329 0.558883 0.603493
#
# Coordination Sequence:
#
# PCOD9001513 Si02
#       8
#     2   2   2   2   2   2   2   2
#     4  10  22  37  56  81 112 163 211 245 280 330
#     4  11  21  36  61  93 123 147 182 235 301 358
#     4   9  20  36  54  81 114 162 208 246 285 338
#     4  10  21  35  57  85 123 150 189 236 299 353
#     4   9  21  36  58  78 115 150 206 244 274 330
#     4   9  19  33  54  81 121 152 200 239 298 342
#     4   9  18  36  58  88 116 148 188 241 286 347
#     4  11  22  34  53  85 120 160 196 250 296 338
#
# _framework density 26.742027
#
# number of rings (size 3 to 8) (size 9 to 14) (size 15 to 20)
#    0.750    1.500    1.250    1.500    3.500    2.000 
#    0.000    0.000    0.000    0.000    0.000    5.250 
#    0.000    0.000    0.000    0.000    0.000    0.000 
#
# Total GULP energy -89336.742937 kJ/mol
# GULP energy per Si atom -5583.546434 kJ/mol
# Density = 2.668116 g / cm^3
# Si number density = 26.742027 Si / 1000 Ang^3
#
#
#
# Elastic Constant Matrix: (Units=GPa)
#
#
# Indices 1 2 3 4 5 6 
#
# 1 126.2806 51.5057 21.7849 15.9665 -16.6904 -45.0345
# 2 51.5057 148.0413 24.2158 32.2988 -4.1925 -13.0471
# 3 21.7849 24.2158 56.9579 9.9776 -4.0993 -14.1042
# 4 15.9665 32.2988 9.9776 33.5320 -9.4326 -13.8994
# 5 -16.6904 -4.1925 -4.0993 -9.4326 34.9897 5.6797
# 6 -45.0345 -13.0471 -14.1042 -13.8994 5.6797 43.0550
#
#
#
# Elastic Compliance Matrix: (Units=1/GPa)
#
#
# Indices 1 2 3 4 5 6 
#
# 1 0.015809 -0.005110 -0.000528 0.005792 0.005845 0.015914
# 2 -0.005110 0.010587 -0.002411 -0.010402 -0.003306 -0.005848
# 3 -0.000528 -0.002411 0.020255 -0.001240 0.000710 0.004859
# 4 0.005792 -0.010402 -0.001240 0.047448 0.011516 0.016298
# 5 0.005845 -0.003306 0.000710 0.011516 0.033404 0.004656
# 6 0.015914 -0.005848 0.004859 0.016298 0.004656 0.044338
#
#
# Mechanical properties :
#
#
# Convention : Reuss Voigt Hill
#
# Bulk Modulus (GPa) = 32.72700 58.47697 45.60198
# Shear Modulus (GPa) = 25.23688 37.90023 31.56856
#
# Velocity S-wave (km/s) = 3.07533 3.76873 3.43955
# Velocity P-wave (km/s) = 4.98746 6.39158 5.73267
#
# Compressibility (1/GPa) = 0.03055581
#
# Stress axis : x y z
#
# Youngs Moduli (GPa) = 63.25381 94.45314 49.37038
#
# Poissons Ratio (x) = 0.48261 0.02605
# Poissons Ratio (y) = 0.32320 0.11902
# Poissons Ratio (z) = 0.03337 0.22771
#
# Static dielectric constant tensor:
#      x y z
#    x 2.107270 0.007370 0.010880 
#    y 0.007370 2.187570 0.063920 
#    z 0.010880 0.063920 2.273520 
# 
# From -- ./inp_files/548626.got.cif
#   From: 2010.05.17/outbox.cif.g08.bks.cpg/sg2_275_cif.got.tgz:548626.got - 2010.06.03 11:33:40.
