data_PCOD9001509
_publ_section_title
;
Structure prediction by ZEFSAII (Michael W. Deem and Ramdas Pophale) SiO2 
 PCOD9001509
Probable space group: P -1
;
_chemical_formula_sum "Si O2"
_cell_formula_units_Z 14
_cell_length_a 14.269470
_cell_length_b 7.634698
_cell_length_c 15.937556
_cell_angle_alpha 139.129950
_cell_angle_beta 142.004960
_cell_angle_gamma 62.180363
_cell_volume 662.418549
_symmetry_space_group_name_H-M "P -1"
_symmetry_group_IT_number 2
_symmetry_cell_setting 'triclinic'
loop_
_space_group_symop_operation_xyz
x,y,z
-x,-y,-z
loop_
_atom_site_type_symbol
_atom_site_label
_atom_site_fract_x
_atom_site_fract_y
_atom_site_fract_z
Si Si1 0.648358 0.403716 0.594543
Si Si2 0.459042 0.759797 0.191522
Si Si3 0.329857 0.754957 0.272915
Si Si4 0.063303 0.682401 0.302826
Si Si5 0.066957 0.973709 0.241553
Si Si6 0.840715 0.297779 0.145235
Si Si7 0.773247 0.683291 0.368854
O O1 0.500000 0.500000 0.500000
O O2 0.688740 0.458818 0.740576
O O3 0.807894 0.485176 0.680826
O O4 0.582730 0.064833 0.413965
O O5 0.353277 0.646398 0.158598
O O6 0.580046 0.591119 0.192126
O O7 0.341080 0.804407 0.053829
O O8 0.185333 0.885663 0.229915
O O9 0.500000 0.000000 0.500000
O O10 0.010464 0.735560 0.189354
O O11 0.937829 0.517889 0.222902
O O12 0.149150 0.009234 0.509808
O O13 0.173698 0.243197 0.470434
O O14 0.072716 0.936271 0.866732
O O15 0.840066 0.459432 0.290444
#
# Coordination Sequence:
#
# PCOD9001509 Si02
#       7
#     2   2   2   2   2   2   2
#     4   9  18  36  57  77 109 148 186 217 267 341
#     4  10  21  35  57  85 109 143 179 233 279 314
#     4   9  16  36  55  74 110 141 183 224 261 338
#     4   8  20  36  54  82 107 145 188 217 268 325
#     4   9  20  36  57  80 109 145 189 221 265 331
#     4  12  21  34  61  84 111 145 181 229 283 312
#     4   9  19  40  56  77 115 149 184 221 265 336
#
# _framework density 21.134672999999999
#
# number of rings (size 3 to 8) (size 9 to 14) (size 15 to 20)
#    0.857    1.714    2.857    1.286    4.000    0.571 
#    2.571    1.429    0.000    1.714    0.000    0.000 
#    0.000    0.000    0.000    0.000    0.000    0.000 
#
# Total GULP energy -78000.869559 kJ/mol
# GULP energy per Si atom -5571.490683 kJ/mol
# Density = 2.108657 g / cm^3
# Si number density = 21.134673 Si / 1000 Ang^3
#
#
#
# Elastic Constant Matrix: (Units=GPa)
#
#
# Indices 1 2 3 4 5 6 
#
# 1 104.4498 29.0745 19.2967 7.2469 2.8102 -18.7687
# 2 29.0745 70.4959 11.1043 -10.4419 2.8499 -30.8577
# 3 19.2967 11.1043 52.2535 -10.5643 5.0701 -2.1712
# 4 7.2469 -10.4419 -10.5643 23.5077 -3.0731 6.1850
# 5 2.8102 2.8499 5.0701 -3.0731 15.0105 -5.9296
# 6 -18.7687 -30.8577 -2.1712 6.1850 -5.9296 26.5950
#
#
#
# Elastic Compliance Matrix: (Units=1/GPa)
#
#
# Indices 1 2 3 4 5 6 
#
# 1 0.013740 -0.002065 -0.006496 -0.010368 0.001665 0.009552
# 2 -0.002065 0.032185 -0.004724 0.004572 0.011417 0.036982
# 3 -0.006496 -0.004724 0.025634 0.013717 -0.008933 -0.013154
# 4 -0.010368 0.004572 0.013717 0.057917 0.002878 -0.013720
# 5 0.001665 0.011417 -0.008933 0.002878 0.079932 0.030844
# 6 0.009552 0.036982 -0.013154 -0.013720 0.030844 0.096246
#
#
# Mechanical properties :
#
#
# Convention : Reuss Voigt Hill
#
# Bulk Modulus (GPa) = 22.22772 38.46113 30.34442
# Shear Modulus (GPa) = 14.40017 24.20422 19.30219
#
# Velocity S-wave (km/s) = 2.61311 3.38781 3.02536
# Velocity P-wave (km/s) = 4.43220 5.79143 5.15679
#
# Compressibility (1/GPa) = 0.04498888
#
# Stress axis : x y z
#
# Youngs Moduli (GPa) = 72.78021 31.07063 39.01132
#
# Poissons Ratio (x) = 0.06417 0.25341
# Poissons Ratio (y) = 0.15031 0.18427
# Poissons Ratio (z) = 0.47277 0.14676
#
# Static dielectric constant tensor:
#      x y z
#    x 1.800190 -0.022570 0.008040 
#    y -0.022570 1.791740 -0.017070 
#    z 0.008040 -0.017070 1.830460 
# 
# From -- ./inp_files/527012.got.cif
#   From: 2010.05.17/outbox.cif.g08.bks.cpg/sg2_264_cif.got.tgz:527012.got - 2010.06.03 11:33:40.
