data_PCOD9001161
_publ_section_title
;
Structure prediction by ZEFSAII (Michael W. Deem and Ramdas Pophale) SiO2 
 PCOD9001161
Probable space group: P -1
;
_chemical_formula_sum "Si O2"
_cell_formula_units_Z 12
_cell_length_a 5.298080
_cell_length_b 21.820611
_cell_length_c 12.837406
_cell_angle_alpha 159.737429
_cell_angle_beta 85.143413
_cell_angle_gamma 90.179662
_cell_volume 499.460641
_symmetry_space_group_name_H-M "P -1"
_symmetry_group_IT_number 2
_symmetry_cell_setting 'triclinic'
loop_
_space_group_symop_operation_xyz
x,y,z
-x,-y,-z
loop_
_atom_site_type_symbol
_atom_site_label
_atom_site_fract_x
_atom_site_fract_y
_atom_site_fract_z
Si Si1 0.503392 0.890892 0.932888
Si Si2 0.110862 0.206899 0.500534
Si Si3 0.993880 0.144194 0.052755
Si Si4 0.828493 0.936570 0.309868
Si Si5 0.540825 0.694777 0.056951
Si Si6 0.078753 0.544947 0.903333
O O1 0.374401 0.059679 0.283709
O O2 0.773974 0.780762 0.789773
O O3 0.712933 0.228036 0.241413
O O4 0.500000 0.000000 0.000000
O O5 0.962968 0.314942 0.774112
O O6 0.950043 0.063679 0.235765
O O7 0.160974 0.349029 0.640954
O O8 0.006048 0.124535 0.896911
O O9 0.685200 0.774555 0.084743
O O10 0.601838 0.113820 0.580130
O O11 0.000000 0.000000 0.500000
O O12 0.786815 0.577993 0.922869
O O13 0.300573 0.594750 0.901692
#
# Coordination Sequence:
#
# PCOD9001161 Si02
#       6
#     2   2   2   2   2   2
#     4  10  21  37  55  81 107 139 184 226 268 308
#     4   9  22  31  56  73 116 132 183 208 279 314
#     4  10  21  34  55  81 107 140 175 225 271 308
#     4  11  21  34  52  78 114 145 180 216 262 324
#     4  11  21  31  49  70 112 143 179 199 259 316
#     4  11  21  33  48  81 109 151 163 214 263 343
#
# _framework density 24.025918000000001
#
# number of rings (size 3 to 8) (size 9 to 14) (size 15 to 20)
#    1.000    0.667    3.333    1.500    7.000    1.333 
#    0.000    0.000    0.000    0.000    0.000    7.000 
#    0.000    0.000    0.000    0.000    0.000    0.000 
#
# Total GULP energy -66862.893240 kJ/mol
# GULP energy per Si atom -5571.907770 kJ/mol
# Density = 2.397123 g / cm^3
# Si number density = 24.025918 Si / 1000 Ang^3
#
#
#
# Elastic Constant Matrix: (Units=GPa)
#
#
# Indices 1 2 3 4 5 6 
#
# 1 180.6028 58.5432 11.7320 -11.6468 18.0619 4.3373
# 2 58.5432 59.2563 15.3616 -23.7174 9.7524 12.8726
# 3 11.7320 15.3616 66.0340 0.6789 5.3146 2.6809
# 4 -11.6468 -23.7174 0.6789 29.9681 3.2474 0.2987
# 5 18.0619 9.7524 5.3146 3.2474 26.8349 3.1159
# 6 4.3373 12.8726 2.6809 0.2987 3.1159 55.2081
#
#
#
# Elastic Compliance Matrix: (Units=1/GPa)
#
#
# Indices 1 2 3 4 5 6 
#
# 1 0.008964 -0.011559 0.001202 -0.005535 -0.001639 0.002055
# 2 -0.011559 0.048628 -0.008315 0.035515 -0.011432 -0.009573
# 3 0.001202 -0.008315 0.016926 -0.006455 -0.000484 0.001085
# 4 -0.005535 0.035515 -0.006455 0.061111 -0.014481 -0.007046
# 5 -0.001639 -0.011432 -0.000484 -0.014481 0.044325 0.000394
# 6 0.002055 -0.009573 0.001085 -0.007046 0.000394 0.020147
#
#
# Mechanical properties :
#
#
# Convention : Reuss Voigt Hill
#
# Bulk Modulus (GPa) = 26.90173 53.01852 39.96012
# Shear Modulus (GPa) = 20.01312 37.08596 28.54954
#
# Velocity S-wave (km/s) = 2.88927 3.93311 3.45088
# Velocity P-wave (km/s) = 4.72777 6.53765 5.70494
#
# Compressibility (1/GPa) = 0.03717233
#
# Stress axis : x y z
#
# Youngs Moduli (GPa) = 111.56284 20.56439 59.08138
#
# Poissons Ratio (x) = 0.23771 -0.07101
# Poissons Ratio (y) = 1.28958 0.49127
# Poissons Ratio (z) = -0.13409 0.17099
#
# Static dielectric constant tensor:
#      x y z
#    x 2.068250 0.000630 0.035650 
#    y 0.000630 1.922390 -0.019750 
#    z 0.035650 -0.019750 1.928680 
# 
# From -- ./inp_files/91595.got.cif
#   From: 2010.05.17/outbox.cif.g08.bks.cpg/sg2_46_cif.got.tgz:91595.got - 2010.06.03 11:33:40.
