data_PCOD9001145
_publ_section_title
;
Structure prediction by ZEFSAII (Michael W. Deem and Ramdas Pophale) SiO2 
 PCOD9001145
Probable space group: P -1
;
_chemical_formula_sum "Si O2"
_cell_formula_units_Z 12
_cell_length_a 9.789156
_cell_length_b 16.488882
_cell_length_c 9.237782
_cell_angle_alpha 46.542428
_cell_angle_beta 137.644523
_cell_angle_gamma 146.006301
_cell_volume 550.382849
_symmetry_space_group_name_H-M "P -1"
_symmetry_group_IT_number 2
_symmetry_cell_setting 'triclinic'
loop_
_space_group_symop_operation_xyz
x,y,z
-x,-y,-z
loop_
_atom_site_type_symbol
_atom_site_label
_atom_site_fract_x
_atom_site_fract_y
_atom_site_fract_z
Si Si1 0.914044 0.059641 0.241079
Si Si2 0.810897 0.741072 0.046404
Si Si3 0.637796 0.141772 0.596080
Si Si4 0.701927 0.340315 0.143696
Si Si5 0.655133 0.144727 0.118144
Si Si6 0.020381 0.599650 0.269464
O O1 0.868304 0.163131 0.156818
O O2 0.135030 0.153826 0.172324
O O3 0.000000 0.000000 0.500000
O O4 0.627271 0.936392 0.087491
O O5 0.565136 0.681119 0.029191
O O6 0.803483 0.616458 0.118708
O O7 0.092034 0.835469 0.237070
O O8 0.638513 0.224848 0.360661
O O9 0.701630 0.237273 0.675265
O O10 0.405568 0.973170 0.663423
O O11 0.739503 0.286006 0.093861
O O12 0.948036 0.506722 0.183545
O O13 0.000000 0.500000 0.500000
#
# Coordination Sequence:
#
# PCOD9001145 Si02
#       6
#     2   2   2   2   2   2
#     4  10  21  38  53  72 109 147 170 206 264 312
#     4   9  19  33  55  77 103 139 175 202 263 312
#     4   8  18  32  50  80 107 133 166 211 267 306
#     4  11  18  31  57  83 103 129 175 224 252 301
#     4  10  21  34  54  80 103 135 179 217 253 302
#     4   8  17  34  51  78 108 139 159 211 270 312
#
# _framework density 21.803003
#
# number of rings (size 3 to 8) (size 9 to 14) (size 15 to 20)
#    1.000    1.667    0.000    2.000    0.000    4.000 
#    0.000    0.833    0.000    1.000    0.000    0.000 
#    0.000    0.000    0.000    0.000    0.000    0.000 
#
# Total GULP energy -66851.518589 kJ/mol
# GULP energy per Si atom -5570.959882 kJ/mol
# Density = 2.175338 g / cm^3
# Si number density = 21.803003 Si / 1000 Ang^3
#
#
#
# Elastic Constant Matrix: (Units=GPa)
#
#
# Indices 1 2 3 4 5 6 
#
# 1 85.7204 41.9262 11.0504 10.6527 -3.7062 -23.7411
# 2 41.9262 70.8917 -13.6692 5.4745 -0.6565 -32.6731
# 3 11.0504 -13.6692 77.5061 -18.3511 2.1968 5.4340
# 4 10.6527 5.4745 -18.3511 27.0158 0.9128 -7.7123
# 5 -3.7062 -0.6565 2.1968 0.9128 13.2912 -4.0640
# 6 -23.7411 -32.6731 5.4340 -7.7123 -4.0640 35.8246
#
#
#
# Elastic Compliance Matrix: (Units=1/GPa)
#
#
# Indices 1 2 3 4 5 6 
#
# 1 0.020920 -0.011547 -0.008017 -0.010727 0.008297 0.003180
# 2 -0.011547 0.032476 0.007993 0.009932 0.003502 0.023290
# 3 -0.008017 0.007993 0.019085 0.015185 -0.005510 0.001726
# 4 -0.010727 0.009932 0.015185 0.052692 -0.005458 0.010370
# 5 0.008297 0.003502 -0.005510 -0.005458 0.084495 0.017939
# 6 0.003180 0.023290 0.001726 0.010370 0.017939 0.055268
#
#
# Mechanical properties :
#
#
# Convention : Reuss Voigt Hill
#
# Bulk Modulus (GPa) = 20.26791 34.74811 27.50801
# Shear Modulus (GPa) = 16.41909 28.21371 22.31640
#
# Velocity S-wave (km/s) = 2.74718 3.60116 3.20276
# Velocity P-wave (km/s) = 4.40213 5.76741 5.13039
#
# Compressibility (1/GPa) = 0.04933908
#
# Stress axis : x y z
#
# Youngs Moduli (GPa) = 47.80194 30.79234 52.39616
#
# Poissons Ratio (x) = 0.35556 0.42007
# Poissons Ratio (y) = 0.55197 -0.41882
# Poissons Ratio (z) = 0.38323 -0.24613
#
# Static dielectric constant tensor:
#      x y z
#    x 1.823730 -0.024790 -0.040130 
#    y -0.024790 1.835800 0.006660 
#    z -0.040130 0.006660 1.856020 
# 
# From -- ./inp_files/138479.got.cif
#   From: 2010.05.17/outbox.cif.g08.bks.cpg/sg2_70_cif.got.tgz:138479.got - 2010.06.03 11:33:40.
