data_PCOD9001453
_publ_section_title
;
Structure prediction by ZEFSAII (Michael W. Deem and Ramdas Pophale) SiO2 
 PCOD9001453
Probable space group: P -1
;
_chemical_formula_sum "Si O2"
_cell_formula_units_Z 16
_cell_length_a 18.116797
_cell_length_b 20.123356
_cell_length_c 10.126265
_cell_angle_alpha 47.114812
_cell_angle_beta 48.052058
_cell_angle_gamma 13.785297
_cell_volume 643.961567
_symmetry_space_group_name_H-M "P -1"
_symmetry_group_IT_number 2
_symmetry_cell_setting 'triclinic'
loop_
_space_group_symop_operation_xyz
x,y,z
-x,-y,-z
loop_
_atom_site_type_symbol
_atom_site_label
_atom_site_fract_x
_atom_site_fract_y
_atom_site_fract_z
Si Si1 0.597588 0.087004 0.682064
Si Si2 0.545946 0.357041 0.099312
Si Si3 0.446094 0.596011 0.258406
Si Si4 0.708901 0.555803 0.018341
Si Si5 0.096828 0.188350 0.804723
Si Si6 0.693161 0.733543 0.976985
Si Si7 0.798765 0.108750 0.410140
Si Si8 0.117105 0.272401 0.402063
O O1 0.697688 0.099128 0.597917
O O2 0.249539 0.391547 0.626933
O O3 0.808494 0.867372 0.609135
O O4 0.571607 0.043261 0.898142
O O5 0.737372 0.148095 0.272032
O O6 0.210418 0.600416 0.160142
O O7 0.500000 0.500000 0.000000
O O8 0.679861 0.249883 0.936928
O O9 0.606146 0.362519 0.345790
O O10 0.155261 0.826090 0.385909
O O11 0.665630 0.486721 0.194401
O O12 0.745405 0.587987 0.056299
O O13 0.978152 0.333473 0.888182
O O14 0.387704 0.872361 0.912489
O O15 0.180574 0.182918 0.593721
O O16 0.675637 0.820276 0.761547
O O17 0.000000 0.500000 0.000000
#
# Coordination Sequence:
#
# PCOD9001453 Si02
#       8
#     2   2   2   2   2   2   2   2
#     4  11  23  41  67  96 130 169 223 270 308 373
#     4   9  18  31  54  88 130 167 203 240 303 379
#     4  10  21  35  55  93 134 170 205 255 318 388
#     4  11  24  43  65  94 138 168 212 266 330 389
#     4  11  23  38  64 100 135 171 203 267 333 386
#     4  10  26  49  72  93 120 174 226 277 323 380
#     4  11  20  35  60  93 131 170 217 248 309 381
#     4  11  23  42  67  98 131 162 221 271 326 381
#
# _framework density 24.846204
#
# number of rings (size 3 to 8) (size 9 to 14) (size 15 to 20)
#    0.000    1.500    1.250    4.500    3.500    5.000 
#    0.000    1.250    0.000    0.000    0.000    0.000 
#    0.000    0.000    0.000    0.000    0.000    0.000 
#
# Total GULP energy -89595.872036 kJ/mol
# GULP energy per Si atom -5599.742002 kJ/mol
# Density = 2.478965 g / cm^3
# Si number density = 24.846204 Si / 1000 Ang^3
#
#
#
# Elastic Constant Matrix: (Units=GPa)
#
#
# Indices 1 2 3 4 5 6 
#
# 1 89.7078 -11.4478 29.2148 -7.3190 -5.7040 3.7357
# 2 -11.4478 99.1655 25.2621 2.8323 3.6159 0.2690
# 3 29.2148 25.2621 122.2412 18.6403 -11.4031 -16.2509
# 4 -7.3190 2.8323 18.6403 17.9985 -2.7337 -1.3771
# 5 -5.7040 3.6159 -11.4031 -2.7337 40.2514 3.5365
# 6 3.7357 0.2690 -16.2509 -1.3771 3.5365 32.4179
#
#
#
# Elastic Compliance Matrix: (Units=1/GPa)
#
#
# Indices 1 2 3 4 5 6 
#
# 1 0.014938 0.003015 -0.006561 0.012225 0.001226 -0.004650
# 2 0.003015 0.011407 -0.003972 0.003179 -0.001318 -0.002154
# 3 -0.006561 -0.003972 0.014071 -0.015819 0.001725 0.006982
# 4 0.012225 0.003179 -0.015819 0.076336 0.002714 -0.006419
# 5 0.001226 -0.001318 0.001725 0.002714 0.025983 -0.001985
# 6 -0.004650 -0.002154 0.006982 -0.006419 -0.001985 0.034845
#
#
# Mechanical properties :
#
#
# Convention : Reuss Voigt Hill
#
# Bulk Modulus (GPa) = 39.40284 44.13031 41.76657
# Shear Modulus (GPa) = 24.86617 36.00591 30.43604
#
# Velocity S-wave (km/s) = 3.16698 3.81090 3.50376
# Velocity P-wave (km/s) = 5.40982 6.09622 5.76325
#
# Compressibility (1/GPa) = 0.02537888
#
# Stress axis : x y z
#
# Youngs Moduli (GPa) = 66.94461 87.66481 71.06882
#
# Poissons Ratio (x) = -0.26427 0.46628
# Poissons Ratio (y) = -0.20181 0.28228
# Poissons Ratio (z) = 0.43922 0.34820
#
# Static dielectric constant tensor:
#      x y z
#    x 1.995160 -0.029420 0.036650 
#    y -0.029420 1.907950 -0.007450 
#    z 0.036650 -0.007450 2.019450 
# 
# From -- ./inp_files/336725.got.cif
#   From: 2010.05.17/outbox.cif.g08.bks.cpg/sg2_169_cif.got.tgz:336725.got - 2010.06.03 11:33:40.
