data_PCOD9001890
_publ_section_title
;
Structure prediction by ZEFSAII (Michael W. Deem and Ramdas Pophale) SiO2 
 PCOD9001890
Probable space group: P -1
;
_chemical_formula_sum "Si O2"
_cell_formula_units_Z 16
_cell_length_a 25.437988
_cell_length_b 5.172847
_cell_length_c 5.719282
_cell_angle_alpha 60.104762
_cell_angle_beta 92.990413
_cell_angle_gamma 71.797842
_cell_volume 599.728338
_symmetry_space_group_name_H-M "P -1"
_symmetry_group_IT_number 2
_symmetry_cell_setting 'triclinic'
loop_
_space_group_symop_operation_xyz
x,y,z
-x,-y,-z
loop_
_atom_site_type_symbol
_atom_site_label
_atom_site_fract_x
_atom_site_fract_y
_atom_site_fract_z
Si Si1 0.164607 0.645175 0.577732
Si Si2 0.706890 0.744924 0.645534
Si Si3 0.079829 0.603178 0.189129
Si Si4 0.951291 0.912152 0.401272
Si Si5 0.544946 0.517900 0.188306
Si Si6 0.566301 0.078503 0.780028
Si Si7 0.329462 0.867614 0.036124
Si Si8 0.189433 0.196941 0.171509
O O1 0.123782 0.601292 0.395636
O O2 0.116208 0.891663 0.629332
O O3 0.203796 0.831265 0.417824
O O4 0.197903 0.302877 0.865551
O O5 0.688538 0.940220 0.803259
O O6 0.775113 0.655299 0.725690
O O7 0.689053 0.437437 0.804934
O O8 0.688625 0.939041 0.304708
O O9 0.039443 0.444639 0.357737
O O10 0.120593 0.363748 0.110496
O O11 0.052006 0.955593 0.918255
O O12 0.000000 0.000000 0.500000
O O13 0.575203 0.173448 0.475851
O O14 0.502251 0.756387 0.268029
O O15 0.500000 0.500000 0.000000
O O16 0.582892 0.707025 0.021958
O O17 0.602234 0.222336 0.885246
#
# Coordination Sequence:
#
# PCOD9001890 Si02
#       8
#     2   2   2   2   2   2   2   2
#     4  10  21  38  60  86 116 158 204 261 318 381
#     4  12  28  47  73 105 140 190 232 291 356 417
#     4  10  21  36  59  82 114 159 198 257 314 375
#     4  10  21  36  53  86 118 151 199 248 313 390
#     4  10  21  38  65  90 127 172 226 274 339 396
#     4  10  23  39  61  96 127 175 224 280 334 412
#     4  12  28  47  73 105 145 185 234 289 358 415
#     4  10  23  39  62  87 121 157 215 265 318 398
#
# _framework density 26.678746
#
# number of rings (size 3 to 8) (size 9 to 14) (size 15 to 20)
#    0.000    1.500    0.000    3.750    7.000    1.000 
#    0.000    0.000    0.000    0.000    0.000    0.000 
#    0.000    0.000    0.000    0.000    0.000    0.000 
#
# Total GULP energy -89395.979819 kJ/mol
# GULP energy per Si atom -5587.248739 kJ/mol
# Density = 2.661802 g / cm^3
# Si number density = 26.678746 Si / 1000 Ang^3
#
#
#
# Elastic Constant Matrix: (Units=GPa)
#
#
# Indices 1 2 3 4 5 6 
#
# 1 136.5770 48.6665 74.4153 -16.2057 -21.4244 34.0805
# 2 48.6665 116.7112 65.8375 -10.8855 -33.2286 36.6435
# 3 74.4153 65.8375 287.5966 -25.5321 -23.4122 50.8910
# 4 -16.2057 -10.8855 -25.5321 39.4079 23.7702 -15.3044
# 5 -21.4244 -33.2286 -23.4122 23.7702 52.6663 -2.9191
# 6 34.0805 36.6435 50.8910 -15.3044 -2.9191 72.4324
#
#
#
# Elastic Compliance Matrix: (Units=1/GPa)
#
#
# Indices 1 2 3 4 5 6 
#
# 1 0.009743 -0.001957 -0.001464 0.000579 0.001685 -0.002375
# 2 -0.001957 0.014502 -0.001421 -0.006363 0.010241 -0.006349
# 3 -0.001464 -0.001421 0.004560 0.001526 -0.000236 -0.001483
# 4 0.000579 -0.006363 0.001526 0.041479 -0.021279 0.009781
# 5 0.001685 0.010241 -0.000236 -0.021279 0.035141 -0.008888
# 6 -0.002375 -0.006349 -0.001483 0.009781 -0.008888 0.020886
#
#
# Mechanical properties :
#
#
# Convention : Reuss Voigt Hill
#
# Bulk Modulus (GPa) = 52.30316 102.08037 77.19177
# Shear Modulus (GPa) = 35.12047 56.36571 45.74309
#
# Velocity S-wave (km/s) = 3.63219 4.60146 4.14525
# Velocity P-wave (km/s) = 6.10227 8.15948 7.20468
#
# Compressibility (1/GPa) = 0.01911930
#
# Stress axis : x y z
#
# Youngs Moduli (GPa) = 102.64200 68.95803 219.30190
#
# Poissons Ratio (x) = 0.13497 0.32106
# Poissons Ratio (y) = 0.20091 0.31164
# Poissons Ratio (z) = 0.15027 0.09799
#
# Static dielectric constant tensor:
#      x y z
#    x 2.415710 -0.346490 -0.101860 
#    y -0.346490 2.279190 0.004610 
#    z -0.101860 0.004610 2.132350 
# 
# From -- ./inp_files/14091.got.cif
#   From: 2010.05.17/outbox.cif.g08.bks.cpg/sg2_8_cif.got.tgz:14091.got - 2010.06.03 11:33:40.
