data_PCOD9001502
_publ_section_title
;
Structure prediction by ZEFSAII (Michael W. Deem and Ramdas Pophale) SiO2 
 PCOD9001502
Probable space group: P -1
;
_chemical_formula_sum "Si O2"
_cell_formula_units_Z 16
_cell_length_a 23.114195
_cell_length_b 11.915092
_cell_length_c 12.137163
_cell_angle_alpha 140.671573
_cell_angle_beta 28.804095
_cell_angle_gamma 158.004739
_cell_volume 588.968952
_symmetry_space_group_name_H-M "P -1"
_symmetry_group_IT_number 2
_symmetry_cell_setting 'triclinic'
loop_
_space_group_symop_operation_xyz
x,y,z
-x,-y,-z
loop_
_atom_site_type_symbol
_atom_site_label
_atom_site_fract_x
_atom_site_fract_y
_atom_site_fract_z
Si Si1 0.284208 0.308823 0.888828
Si Si2 0.776074 0.140474 0.633210
Si Si3 0.216737 0.274918 0.720207
Si Si4 0.689313 0.665177 0.891027
Si Si5 0.302222 0.940193 0.537126
Si Si6 0.703463 0.359908 0.510884
Si Si7 0.803195 0.349991 0.970234
Si Si8 0.236772 0.871869 0.904238
O O1 0.299378 0.386887 0.794384
O O2 0.379746 0.226701 0.660113
O O3 0.360834 0.465055 0.000709
O O4 0.034708 0.022030 0.095075
O O5 0.658950 0.041390 0.641287
O O6 0.711094 0.160067 0.867142
O O7 0.000000 0.500000 0.500000
O O8 0.754609 0.898731 0.497828
O O9 0.265269 0.533958 0.792332
O O10 0.804825 0.652281 0.619668
O O11 0.500000 0.500000 0.000000
O O12 0.819921 0.001446 0.944137
O O13 0.360213 0.841466 0.434676
O O14 0.051614 0.656523 0.762328
O O15 0.839947 0.398203 0.234505
O O16 0.484579 0.157612 0.671260
O O17 0.770854 0.172288 0.987449
#
# Coordination Sequence:
#
# PCOD9001502 Si02
#       8
#     2   2   2   2   2   2   2   2
#     4   9  16  33  57  81 116 136 191 234 268 338
#     4   9  18  32  55  84 115 142 182 225 282 338
#     4   9  19  32  54  88 112 149 175 230 297 328
#     4  10  21  35  57  81 105 152 195 231 269 333
#     4   9  18  34  58  85 106 144 186 230 278 334
#     4  10  21  37  60  76 103 156 195 224 274 335
#     4  10  21  35  57  83 119 142 178 240 284 335
#     4  10  22  41  53  79 115 149 189 230 279 335
#
# _framework density 27.166118000000001
#
# number of rings (size 3 to 8) (size 9 to 14) (size 15 to 20)
#    0.000    2.500    1.250    2.250    5.250    1.500 
#    0.000    1.250    0.000    1.500    0.000    0.000 
#    0.000    0.000    0.000    0.000    0.000    0.000 
#
# Total GULP energy -89252.095271 kJ/mol
# GULP energy per Si atom -5578.255954 kJ/mol
# Density = 2.710429 g / cm^3
# Si number density = 27.166118 Si / 1000 Ang^3
#
#
#
# Elastic Constant Matrix: (Units=GPa)
#
#
# Indices 1 2 3 4 5 6 
#
# 1 123.7828 22.2056 46.6713 11.7396 15.5365 1.3988
# 2 22.2056 123.1390 35.9682 25.7401 -0.9190 -18.4675
# 3 46.6713 35.9682 144.3128 44.5454 13.3732 -9.0770
# 4 11.7396 25.7401 44.5454 37.9593 3.9151 -8.1487
# 5 15.5365 -0.9190 13.3732 3.9151 54.2636 6.6440
# 6 1.3988 -18.4675 -9.0770 -8.1487 6.6440 39.3255
#
#
#
# Elastic Compliance Matrix: (Units=1/GPa)
#
#
# Indices 1 2 3 4 5 6 
#
# 1 0.009614 -0.001316 -0.003159 0.001612 -0.001988 -0.001019
# 2 -0.001316 0.010101 -0.000235 -0.005473 0.000571 0.003505
# 3 -0.003159 -0.000235 0.012121 -0.012894 -0.001197 0.000330
# 4 0.001612 -0.005473 -0.012894 0.045679 -0.001169 0.004059
# 5 -0.001988 0.000571 -0.001197 -0.001169 0.019819 -0.003528
# 6 -0.001019 0.003505 0.000330 0.004059 -0.003528 0.028625
#
#
# Mechanical properties :
#
#
# Convention : Reuss Voigt Hill
#
# Bulk Modulus (GPa) = 44.60923 66.76942 55.68933
# Shear Modulus (GPa) = 35.00188 45.40231 40.20210
#
# Velocity S-wave (km/s) = 3.59338 4.09257 3.85107
# Velocity P-wave (km/s) = 5.80285 6.85301 6.34968
#
# Compressibility (1/GPa) = 0.02241688
#
# Stress axis : x y z
#
# Youngs Moduli (GPa) = 104.01742 99.00176 82.50088
#
# Poissons Ratio (x) = 0.13025 0.26059
# Poissons Ratio (y) = 0.13685 0.01940
# Poissons Ratio (z) = 0.32855 0.02328
#
# Static dielectric constant tensor:
#      x y z
#    x 2.091080 0.075500 -0.010830 
#    y 0.075500 2.310330 -0.050750 
#    z -0.010830 -0.050750 2.179090 
# 
# From -- ./inp_files/474871.got.cif
#   From: 2010.05.17/outbox.cif.g08.bks.cpg/sg2_238_cif.got.tgz:474871.got - 2010.06.03 11:33:40.
